data_PCOD8305510
_publ_section_title
;
Structure prediction by ZEFSAII (Michael W. Deem and Ramdas Pophale) SiO2 
 PCOD8305510
Probable space group: P 42 2 2
;
_chemical_formula_sum "Si O2"
_cell_formula_units_Z 56
_cell_length_a 11.373469
_cell_length_b 11.373469
_cell_length_c 26.116870
_cell_angle_alpha 90.000000
_cell_angle_beta 90.000000
_cell_angle_gamma 90.000000
_cell_volume 3378.368536
_symmetry_space_group_name_H-M "P 42 2 2"
_symmetry_group_IT_number 93
_symmetry_cell_setting 'tetragonal'
loop_
_space_group_symop_operation_xyz
x,y,z
-y,x,1/2+z
-x,-y,z
y,-x,1/2+z
x,-y,-z
-x,y,-z
y,x,1/2-z
-y,-x,1/2-z
loop_
_atom_site_type_symbol
_atom_site_label
_atom_site_fract_x
_atom_site_fract_y
_atom_site_fract_z
Si Si1 0.859913 0.366261 0.501314
Si Si2 0.563409 0.879359 0.198127
Si Si3 0.686533 0.190464 0.205584
Si Si4 0.731294 0.123093 0.892949
Si Si5 0.991586 0.865315 0.137991
Si Si6 0.234622 0.149491 0.901784
Si Si7 0.236000 0.959639 0.741834
O O1 0.815171 0.500000 0.500000
O O2 0.816457 0.309373 0.554339
O O3 0.802602 0.292916 0.454148
O O4 0.000000 0.359573 0.500000
O O5 0.454253 0.795500 0.209431
O O6 0.647013 0.831899 0.152608
O O7 0.642804 0.887020 0.250054
O O8 0.500000 0.000000 0.181286
O O9 0.722059 0.277942 0.250000
O O10 0.723692 0.224669 0.147697
O O11 0.750069 0.063545 0.216142
O O12 0.864539 0.165179 0.884431
O O13 0.720887 0.983111 0.894880
O O14 0.015877 0.777044 0.185667
O O15 0.092130 0.843330 0.095082
O O16 0.000000 0.000000 0.157144
O O17 0.121284 0.878717 0.750000
#
# Coordination Sequence:
#
# PCOD8305510 Si02
#       7
#     8   8   8   8   8   8   8
#     4   9  18  26  41  56  83 130 169 193 226 275
#     4  10  19  29  43  63  94 120 159 197 226 280
#     4  11  20  29  45  65  93 123 154 191 234 275
#     4  10  17  29  41  61  89 124 159 192 233 279
#     4  10  19  27  43  67  89 118 154 193 237 283
#     4  10  17  28  39  62  90 120 160 197 223 278
#     4  11  18  28  45  66  89 121 154 188 230 283
#
# _framework density 16.576046999999999
#
# number of rings (size 3 to 8) (size 9 to 14) (size 15 to 20)
#    0.000    1.857    5.714    1.714    2.000    0.571 
#    0.000    2.857    0.000    0.429    0.000    0.000 
#    0.000    1.143    1.143    1.714    0.571    3.714 
#
# Total GULP energy -693885.290641 kJ/mol
# GULP energy per Si atom -12390.808761 kJ/mol
# Density = 1.653832 g / cm^3
# Si number density = 16.576047 Si / 1000 Ang^3
#
#
#
# Elastic Constant Matrix: (Units=GPa)
#
#
# Indices 1 2 3 4 5 6 
#
# 1 76.5098 31.1208 48.0168 0.0000 0.0000 0.0000
# 2 31.1208 76.5098 48.0171 0.0000 0.0000 0.0000
# 3 48.0168 48.0171 132.3512 0.0000 0.0000 0.0000
# 4 0.0000 0.0000 0.0000 13.5645 0.0000 0.0000
# 5 0.0000 0.0000 0.0000 0.0000 13.5646 0.0000
# 6 0.0000 0.0000 0.0000 0.0000 0.0000 6.7144
#
#
#
# Elastic Compliance Matrix: (Units=1/GPa)
#
#
# Indices 1 2 3 4 5 6 
#
# 1 0.017885 -0.004147 -0.004984 0.000000 0.000000 0.000000
# 2 -0.004147 0.017885 -0.004984 0.000000 0.000000 0.000000
# 3 -0.004984 -0.004984 0.011172 0.000000 0.000000 0.000000
# 4 0.000000 0.000000 0.000000 0.073722 0.000000 0.000000
# 5 0.000000 0.000000 0.000000 0.000000 0.073721 0.000000
# 6 0.000000 0.000000 0.000000 0.000000 0.000000 0.148934
#
#
# Mechanical properties :
#
#
# Convention : Reuss Voigt Hill
#
# Bulk Modulus (GPa) = 53.44229 59.96448 56.70339
# Shear Modulus (GPa) = 13.23496 17.31644 15.27570
#
# Velocity S-wave (km/s) = 2.82873 3.23564 3.03900
# Velocity P-wave (km/s) = 6.55589 7.08612 6.82615
#
# Compressibility (1/GPa) = 0.01871177
#
# Stress axis : x y z
#
# Youngs Moduli (GPa) = 55.91286 55.91259 89.50781
#
# Poissons Ratio (x) = 0.23186 0.44612
# Poissons Ratio (y) = 0.23186 0.44613
# Poissons Ratio (z) = 0.27868 0.27868
#
# Static dielectric constant tensor:
#      x y z
#    x 2.976530 0.000000 0.000000 
#    y 0.000000 2.976530 0.000000 
#    z 0.000000 0.000000 3.348460 
# 
# 
# High freq. dielectric constant tensor:
#      x y z
#    x 1.600390 0.000000 0.000000 
#    y 0.000000 1.600390 0.000000 
#    z 0.000000 0.000000 1.640590 
# 
# From -- ./inp_files/6929.got.cif
#   From: 2010.03.12/outbox.cif.g09.slc.cpg/sg93_4_cif.got.tgz:6929.got - 2010.04.08 20:44:19.
