data_PCOD8305273
_publ_section_title
;
Structure prediction by ZEFSAII (Michael W. Deem and Ramdas Pophale) SiO2 
 PCOD8305273
Probable space group: P 41 21 2
;
_chemical_formula_sum "Si O2"
_cell_formula_units_Z 44
_cell_length_a 8.542498
_cell_length_b 8.542498
_cell_length_c 27.917852
_cell_angle_alpha 90.000000
_cell_angle_beta 90.000000
_cell_angle_gamma 90.000000
_cell_volume 2037.284928
_symmetry_space_group_name_H-M "P 41 21 2"
_symmetry_group_IT_number 92
_symmetry_cell_setting 'tetragonal'
loop_
_space_group_symop_operation_xyz
x,y,z
1/2-y,1/2+x,1/4+z
-x,-y,1/2+z
1/2+y,1/2-x,3/4+z
1/2+x,1/2-y,3/4-z
1/2-x,1/2+y,1/4-z
y,x,-z
-y,-x,1/2-z
loop_
_atom_site_type_symbol
_atom_site_label
_atom_site_fract_x
_atom_site_fract_y
_atom_site_fract_z
Si Si1 0.794906 0.794906 0.000000
Si Si2 0.996706 0.532394 0.769906
Si Si3 0.808820 0.672181 0.339650
Si Si4 0.074690 0.097856 0.403084
Si Si5 0.549168 0.905697 0.333819
Si Si6 0.711901 0.136576 0.399160
O O1 0.820468 0.616061 0.016793
O O2 0.827150 0.912183 0.043975
O O3 0.942148 0.474871 0.717834
O O4 0.840582 0.587025 0.797600
O O5 0.085235 0.388112 0.795617
O O6 0.651994 0.571303 0.347569
O O7 0.724560 0.834928 0.327809
O O8 0.917230 0.690963 0.386835
O O9 0.180174 0.182115 0.362121
O O10 0.891333 0.089888 0.389821
O O11 0.584616 0.063359 0.362605
#
# Coordination Sequence:
#
# PCOD8305273 Si02
#       6
#     4   8   8   8   8   8
#     4  10  20  38  60  90 124 164 210 276 326 390
#     4  10  23  38  65  92 127 167 218 266 336 387
#     4  10  24  41  62  95 124 173 212 265 337 389
#     4  11  22  39  64  92 126 163 221 267 328 394
#     4  11  22  43  63  88 138 165 217 276 325 397
#     4  11  23  39  64  95 124 171 215 270 327 388
#
# _framework density 21.597370999999999
#
# number of rings (size 3 to 8) (size 9 to 14) (size 15 to 20)
#    0.000    1.455    1.818    4.364    5.091    0.000 
#    0.000    2.727    0.000    0.000    0.000    0.000 
#    0.000    0.000    0.000    0.000    0.000    0.000 
#
# Total GULP energy -545406.566672 kJ/mol
# GULP energy per Si atom -12395.603788 kJ/mol
# Density = 2.154821 g / cm^3
# Si number density = 21.597371 Si / 1000 Ang^3
#
#
#
# Elastic Constant Matrix: (Units=GPa)
#
#
# Indices 1 2 3 4 5 6 
#
# 1 76.0790 4.8308 27.0385 0.0000 0.0000 0.0000
# 2 4.8308 76.0790 27.0385 0.0000 0.0000 0.0000
# 3 27.0385 27.0385 139.7950 0.0000 0.0000 0.0000
# 4 0.0000 0.0000 0.0000 26.4881 0.0000 0.0000
# 5 0.0000 0.0000 0.0000 0.0000 26.4881 0.0000
# 6 0.0000 0.0000 0.0000 0.0000 0.0000 33.4729
#
#
#
# Elastic Compliance Matrix: (Units=1/GPa)
#
#
# Indices 1 2 3 4 5 6 
#
# 1 0.014115 0.000079 -0.002745 0.000000 0.000000 0.000000
# 2 0.000079 0.014115 -0.002745 0.000000 0.000000 0.000000
# 3 -0.002745 -0.002745 0.008215 0.000000 0.000000 0.000000
# 4 0.000000 0.000000 0.000000 0.037753 0.000000 0.000000
# 5 0.000000 0.000000 0.000000 0.000000 0.037753 0.000000
# 6 0.000000 0.000000 0.000000 0.000000 0.000000 0.029875
#
#
# Mechanical properties :
#
#
# Convention : Reuss Voigt Hill
#
# Bulk Modulus (GPa) = 39.02829 45.52985 42.27907
# Shear Modulus (GPa) = 31.01948 32.82619 31.92283
#
# Velocity S-wave (km/s) = 3.79392 3.90284 3.84876
# Velocity P-wave (km/s) = 6.10752 6.43712 6.27448
#
# Compressibility (1/GPa) = 0.02562244
#
# Stress axis : x y z
#
# Youngs Moduli (GPa) = 70.84706 70.84706 121.72355
#
# Poissons Ratio (x) = -0.00563 0.33418
# Poissons Ratio (y) = -0.00563 0.33418
# Poissons Ratio (z) = 0.19450 0.19450
#
# Static dielectric constant tensor:
#      x y z
#    x 3.740030 0.000000 0.000000 
#    y 0.000000 3.740030 0.000000 
#    z 0.000000 0.000000 3.954100 
# 
# 
# High freq. dielectric constant tensor:
#      x y z
#    x 1.842780 0.000000 0.000000 
#    y 0.000000 1.842780 0.000000 
#    z 0.000000 0.000000 1.848280 
# 
# From -- ./inp_files/4397.got.cif
#   From: 2010.03.12/outbox.cif.g09.slc.cpg/sg92_3_cif.got.tgz:4397.got - 2010.04.08 20:41:11.
