data_PCOD8305487
_publ_section_title
;
Structure prediction by ZEFSAII (Michael W. Deem and Ramdas Pophale) SiO2 
 PCOD8305487
Probable space group: P 41 21 2
;
_chemical_formula_sum "Si O2"
_cell_formula_units_Z 36
_cell_length_a 11.809192
_cell_length_b 11.809192
_cell_length_c 10.381274
_cell_angle_alpha 90.000000
_cell_angle_beta 90.000000
_cell_angle_gamma 90.000000
_cell_volume 1447.741491
_symmetry_space_group_name_H-M "P 41 21 2"
_symmetry_group_IT_number 92
_symmetry_cell_setting 'tetragonal'
loop_
_space_group_symop_operation_xyz
x,y,z
1/2-y,1/2+x,1/4+z
-x,-y,1/2+z
1/2+y,1/2-x,3/4+z
1/2+x,1/2-y,3/4-z
1/2-x,1/2+y,1/4-z
y,x,-z
-y,-x,1/2-z
loop_
_atom_site_type_symbol
_atom_site_label
_atom_site_fract_x
_atom_site_fract_y
_atom_site_fract_z
Si Si1 0.406307 0.406307 0.000000
Si Si2 0.578658 0.241374 0.726528
Si Si3 0.248867 0.332105 0.223205
Si Si4 0.392590 0.699733 0.620480
Si Si5 0.536807 0.916642 0.639462
O O1 0.345691 0.352975 0.875203
O O2 0.380793 0.541579 0.985056
O O3 0.636824 0.363177 0.750000
O O4 0.633429 0.171718 0.609371
O O5 0.446334 0.251769 0.691560
O O6 0.599074 0.171904 0.861124
O O7 0.254450 0.223215 0.315351
O O8 0.370894 0.629107 0.750000
O O9 0.475145 0.799352 0.661739
O O10 0.488699 0.983974 0.516859
#
# Coordination Sequence:
#
# PCOD8305487 Si02
#       5
#     4   8   8   8   8
#     4  12  24  50  82 112 160 214 258 320 400 482
#     4  12  23  43  77 106 145 207 271 311 389 478
#     4  12  26  48  78 114 150 213 262 321 396 479
#     4  12  29  49  77 120 166 198 264 336 397 469
#     4  12  25  47  80 114 158 209 261 327 397 482
#
# _framework density 24.866320000000002
#
# number of rings (size 3 to 8) (size 9 to 14) (size 15 to 20)
#    0.000    0.000    5.556    4.000    3.111    2.667 
#    4.000    0.000    2.444    0.000    0.000    0.000 
#    0.000    0.000    0.000    0.000    0.000    0.000 
#
# Total GULP energy -446408.739402 kJ/mol
# GULP energy per Si atom -12400.242761 kJ/mol
# Density = 2.480972 g / cm^3
# Si number density = 24.866320 Si / 1000 Ang^3
#
#
#
# Elastic Constant Matrix: (Units=GPa)
#
#
# Indices 1 2 3 4 5 6 
#
# 1 147.9751 57.5432 43.1326 0.0000 0.0000 0.0000
# 2 57.5432 147.9738 43.1325 0.0000 0.0000 0.0000
# 3 43.1326 43.1325 108.2840 0.0000 0.0000 0.0000
# 4 0.0000 0.0000 0.0000 39.2325 0.0000 0.0000
# 5 0.0000 0.0000 0.0000 0.0000 39.2320 0.0000
# 6 0.0000 0.0000 0.0000 0.0000 0.0000 25.7968
#
#
#
# Elastic Compliance Matrix: (Units=1/GPa)
#
#
# Indices 1 2 3 4 5 6 
#
# 1 0.008450 -0.002608 -0.002327 0.000000 0.000000 0.000000
# 2 -0.002608 0.008450 -0.002327 0.000000 0.000000 0.000000
# 3 -0.002327 -0.002327 0.011089 0.000000 0.000000 0.000000
# 4 0.000000 0.000000 0.000000 0.025489 0.000000 0.000000
# 5 0.000000 0.000000 0.000000 0.000000 0.025489 0.000000
# 6 0.000000 0.000000 0.000000 0.000000 0.000000 0.038765
#
#
# Mechanical properties :
#
#
# Convention : Reuss Voigt Hill
#
# Bulk Modulus (GPa) = 74.26582 76.87217 75.56899
# Shear Modulus (GPa) = 36.56419 38.21388 37.38904
#
# Velocity S-wave (km/s) = 3.83878 3.92442 3.88184
# Velocity P-wave (km/s) = 7.04125 7.17747 7.10968
#
# Compressibility (1/GPa) = 0.01346514
#
# Stress axis : x y z
#
# Youngs Moduli (GPa) = 118.33852 118.33732 90.17935
#
# Poissons Ratio (x) = 0.30859 0.20987
# Poissons Ratio (y) = 0.30860 0.20987
# Poissons Ratio (z) = 0.27541 0.27541
#
# Static dielectric constant tensor:
#      x y z
#    x 4.633640 0.000000 0.000000 
#    y 0.000000 4.633650 0.000000 
#    z 0.000000 0.000000 4.305970 
# 
# 
# High freq. dielectric constant tensor:
#      x y z
#    x 1.997550 0.000000 0.000000 
#    y 0.000000 1.997550 0.000000 
#    z 0.000000 0.000000 1.972910 
# 
# From -- ./inp_files/2028.got.cif
#   From: 2010.03.12/outbox.cif.g09.slc.cpg/sg92_2_cif.got.tgz:2028.got - 2010.04.08 20:41:11.
