data_PCOD8305499
_publ_section_title
;
Structure prediction by ZEFSAII (Michael W. Deem and Ramdas Pophale) SiO2 
 PCOD8305499
Probable space group: P 41 21 2
;
_chemical_formula_sum "Si O2"
_cell_formula_units_Z 24
_cell_length_a 13.289450
_cell_length_b 13.289450
_cell_length_c 5.240496
_cell_angle_alpha 90.000000
_cell_angle_beta 90.000000
_cell_angle_gamma 90.000000
_cell_volume 925.521280
_symmetry_space_group_name_H-M "P 41 21 2"
_symmetry_group_IT_number 92
_symmetry_cell_setting 'tetragonal'
loop_
_space_group_symop_operation_xyz
x,y,z
1/2-y,1/2+x,1/4+z
-x,-y,1/2+z
1/2+y,1/2-x,3/4+z
1/2+x,1/2-y,3/4-z
1/2-x,1/2+y,1/4-z
y,x,-z
-y,-x,1/2-z
loop_
_atom_site_type_symbol
_atom_site_label
_atom_site_fract_x
_atom_site_fract_y
_atom_site_fract_z
Si Si1 0.106489 0.191935 0.263300
Si Si2 0.399768 0.399768 0.500000
Si Si3 0.388168 0.100387 0.981928
Si Si4 0.816203 0.183798 0.750000
O O1 0.183077 0.183077 0.500000
O O2 0.075371 0.310694 0.251544
O O3 0.013660 0.120003 0.330753
O O4 0.157996 0.157996 0.000000
O O5 0.384275 0.331995 0.751345
O O6 0.504708 0.117517 0.917296
O O7 0.341570 0.203326 0.099722
#
# Coordination Sequence:
#
# PCOD8305499 Si02
#       4
#     8   4   8   4
#     4  12  27  49  82 118 161 214 274 340 414 494
#     4  12  26  51  80 118 159 218 268 344 408 498
#     4  12  30  51  83 125 165 222 278 349 418 506
#     4  12  28  51  80 114 165 212 268 336 424 486
#
# _framework density 25.931335000000001
#
# number of rings (size 3 to 8) (size 9 to 14) (size 15 to 20)
#    0.000    0.000    5.000    3.000    7.000    0.000 
#    0.000    0.000    0.000    0.000    0.000    0.000 
#    0.000    0.000    0.000    0.000    0.000    0.000 
#
# Total GULP energy -297344.155748 kJ/mol
# GULP energy per Si atom -12389.339823 kJ/mol
# Density = 2.587231 g / cm^3
# Si number density = 25.931335 Si / 1000 Ang^3
#
#
#
# Elastic Constant Matrix: (Units=GPa)
#
#
# Indices 1 2 3 4 5 6 
#
# 1 124.9990 48.8358 28.8322 0.0000 0.0000 0.0000
# 2 48.8358 124.9963 28.8316 0.0000 0.0000 0.0000
# 3 28.8322 28.8316 122.8944 0.0000 0.0000 0.0000
# 4 0.0000 0.0000 0.0000 33.6018 0.0000 0.0000
# 5 0.0000 0.0000 0.0000 0.0000 33.6017 0.0000
# 6 0.0000 0.0000 0.0000 0.0000 0.0000 54.4037
#
#
#
# Elastic Compliance Matrix: (Units=1/GPa)
#
#
# Indices 1 2 3 4 5 6 
#
# 1 0.009684 -0.003446 -0.001464 0.000000 0.000000 0.000000
# 2 -0.003446 0.009684 -0.001463 0.000000 0.000000 0.000000
# 3 -0.001464 -0.001463 0.008824 0.000000 0.000000 0.000000
# 4 0.000000 0.000000 0.000000 0.029760 0.000000 0.000000
# 5 0.000000 0.000000 0.000000 0.000000 0.029760 0.000000
# 6 0.000000 0.000000 0.000000 0.000000 0.000000 0.018381
#
#
# Mechanical properties :
#
#
# Convention : Reuss Voigt Hill
#
# Bulk Modulus (GPa) = 64.74186 65.09877 64.92032
# Shear Modulus (GPa) = 40.32644 42.08078 41.20361
#
# Velocity S-wave (km/s) = 3.94778 4.03274 3.99049
# Velocity P-wave (km/s) = 6.76763 6.84418 6.80601
#
# Compressibility (1/GPa) = 0.01544596
#
# Stress axis : x y z
#
# Youngs Moduli (GPa) = 103.26399 103.26188 113.33037
#
# Poissons Ratio (x) = 0.35583 0.16586
# Poissons Ratio (y) = 0.35584 0.16586
# Poissons Ratio (z) = 0.15113 0.15112
#
# Static dielectric constant tensor:
#      x y z
#    x 5.164650 0.000000 0.000000 
#    y 0.000000 5.164600 0.000000 
#    z 0.000000 0.000000 4.232460 
# 
# 
# High freq. dielectric constant tensor:
#      x y z
#    x 2.058150 0.000000 0.000000 
#    y 0.000000 2.058150 0.000000 
#    z 0.000000 0.000000 2.016400 
# 
# From -- ./inp_files/168.got.cif
#   From: 2010.03.12/outbox.cif.g09.slc.cpg/sg92_1_cif.got.tgz:168.got - 2010.04.08 20:41:11.
