data_PCOD8305191
_publ_section_title
;
Structure prediction by ZEFSAII (Michael W. Deem and Ramdas Pophale) SiO2 
 PCOD8305191
Probable space group: P 41 2 2
;
_chemical_formula_sum "Si O2"
_cell_formula_units_Z 32
_cell_length_a 10.745393
_cell_length_b 10.745393
_cell_length_c 16.363519
_cell_angle_alpha 90.000000
_cell_angle_beta 90.000000
_cell_angle_gamma 90.000000
_cell_volume 1889.388697
_symmetry_space_group_name_H-M "P 41 2 2"
_symmetry_group_IT_number 91
_symmetry_cell_setting 'tetragonal'
loop_
_space_group_symop_operation_xyz
x,y,z
-y,x,1/4+z
-x,-y,1/2+z
y,-x,3/4+z
x,-y,1/2-z
-x,y,-z
y,x,3/4-z
-y,-x,1/4-z
loop_
_atom_site_type_symbol
_atom_site_label
_atom_site_fract_x
_atom_site_fract_y
_atom_site_fract_z
Si Si1 0.603407 0.741203 0.060709
Si Si2 0.079863 0.000000 0.750000
Si Si3 0.596449 0.745724 0.811850
Si Si4 0.000000 0.311866 0.500000
Si Si5 0.154910 0.116224 0.590790
O O1 0.538195 0.713193 0.148386
O O2 0.706291 0.847448 0.066814
O O3 0.500000 0.796882 0.000000
O O4 0.664142 0.615542 0.021203
O O5 0.162032 0.925895 0.815307
O O6 0.999461 0.889660 0.711833
O O7 0.707020 0.707020 0.875000
O O8 0.604279 0.892587 0.791514
O O9 0.940715 0.229187 0.427102
#
# Coordination Sequence:
#
# PCOD8305191 Si02
#       5
#     8   4   8   4   8
#     4   9  18  31  50  76  98 128 174 209 246 283
#     4   9  18  29  48  74 108 139 155 196 258 312
#     4   9  18  31  49  78  98 132 167 214 244 289
#     4   9  18  27  48  76 104 123 171 204 248 294
#     4   9  18  29  47  75 105 134 161 199 250 311
#
# _framework density 16.936696999999999
#
# number of rings (size 3 to 8) (size 9 to 14) (size 15 to 20)
#    0.000    3.000    0.000    0.000   14.000    1.000 
#    0.000    0.000    0.000    0.000  117.000    0.000 
#    0.000    0.000    0.000    0.000    0.000    0.000 
#
# Total GULP energy -396485.262564 kJ/mol
# GULP energy per Si atom -12390.164455 kJ/mol
# Density = 1.689815 g / cm^3
# Si number density = 16.936697 Si / 1000 Ang^3
#
#
#
# Elastic Constant Matrix: (Units=GPa)
#
#
# Indices 1 2 3 4 5 6 
#
# 1 101.8563 37.3752 46.4311 0.0000 0.0000 0.0000
# 2 37.3752 101.8563 46.4311 0.0000 0.0000 0.0000
# 3 46.4311 46.4311 97.1117 0.0000 0.0000 0.0000
# 4 0.0000 0.0000 0.0000 27.3446 0.0000 0.0000
# 5 0.0000 0.0000 0.0000 0.0000 27.3446 0.0000
# 6 0.0000 0.0000 0.0000 0.0000 0.0000 12.6560
#
#
#
# Elastic Compliance Matrix: (Units=1/GPa)
#
#
# Indices 1 2 3 4 5 6 
#
# 1 0.013027 -0.002482 -0.005042 0.000000 0.000000 0.000000
# 2 -0.002482 0.013027 -0.005042 0.000000 0.000000 0.000000
# 3 -0.005042 -0.005042 0.015119 0.000000 0.000000 0.000000
# 4 0.000000 0.000000 0.000000 0.036570 0.000000 0.000000
# 5 0.000000 0.000000 0.000000 0.000000 0.036570 0.000000
# 6 0.000000 0.000000 0.000000 0.000000 0.000000 0.079014
#
#
# Mechanical properties :
#
#
# Convention : Reuss Voigt Hill
#
# Bulk Modulus (GPa) = 62.33863 62.36659 62.35261
# Shear Modulus (GPa) = 22.34099 24.84149 23.59124
#
# Velocity S-wave (km/s) = 3.63586 3.83394 3.73622
# Velocity P-wave (km/s) = 7.38328 7.51679 7.45033
#
# Compressibility (1/GPa) = 0.01604142
#
# Stress axis : x y z
#
# Youngs Moduli (GPa) = 76.76547 76.76547 66.14390
#
# Poissons Ratio (x) = 0.19051 0.33348
# Poissons Ratio (y) = 0.19051 0.33348
# Poissons Ratio (z) = 0.38703 0.38703
#
# Static dielectric constant tensor:
#      x y z
#    x 3.067260 0.000000 0.000000 
#    y 0.000000 3.067260 0.000000 
#    z 0.000000 0.000000 3.430000 
# 
# 
# High freq. dielectric constant tensor:
#      x y z
#    x 1.634330 0.000000 0.000000 
#    y 0.000000 1.634330 0.000000 
#    z 0.000000 0.000000 1.653560 
# 
# From -- ./inp_files/4497.got.cif
#   From: 2010.03.12/outbox.cif.g09.slc.cpg/sg91_3_cif.got.tgz:4497.got - 2010.04.08 20:27:58.
