data_PCOD8305105
_publ_section_title
;
Structure prediction by ZEFSAII (Michael W. Deem and Ramdas Pophale) SiO2 
 PCOD8305105
Probable space group: P 41 2 2
;
_chemical_formula_sum "Si O2"
_cell_formula_units_Z 40
_cell_length_a 12.304938
_cell_length_b 12.304938
_cell_length_c 12.693609
_cell_angle_alpha 90.000000
_cell_angle_beta 90.000000
_cell_angle_gamma 90.000000
_cell_volume 1921.958369
_symmetry_space_group_name_H-M "P 41 2 2"
_symmetry_group_IT_number 91
_symmetry_cell_setting 'tetragonal'
loop_
_space_group_symop_operation_xyz
x,y,z
-y,x,1/4+z
-x,-y,1/2+z
y,-x,3/4+z
x,-y,1/2-z
-x,y,-z
y,x,3/4-z
-y,-x,1/4-z
loop_
_atom_site_type_symbol
_atom_site_label
_atom_site_fract_x
_atom_site_fract_y
_atom_site_fract_z
Si Si1 0.082659 0.746248 0.088979
Si Si2 0.754229 0.104391 0.192801
Si Si3 0.718586 0.390564 0.527130
Si Si4 0.384796 0.020673 0.534232
Si Si5 0.374884 0.243448 0.650528
O O1 0.149833 0.850168 0.125000
O O2 0.159298 0.653383 0.039960
O O3 0.017073 0.700108 0.188546
O O4 0.000000 0.785697 0.000000
O O5 0.852792 0.147209 0.125000
O O6 0.717359 0.201787 0.269511
O O7 0.804960 0.000000 0.250000
O O8 0.652589 0.060403 0.125678
O O9 0.646100 0.353901 0.625000
O O10 0.668025 0.346076 0.417582
O O11 0.720911 0.521304 0.529945
O O12 0.500000 0.972811 0.500000
O O13 0.401981 0.144804 0.571773
#
# Coordination Sequence:
#
# PCOD8305105 Si02
#       5
#     8   8   8   8   8
#     4  11  24  38  66  97 132 172 225 279 325 398
#     4  10  26  44  65  89 131 171 213 277 328 388
#     4  11  21  40  67  96 133 169 218 271 326 401
#     4  11  21  39  68  99 125 169 228 270 328 396
#     4  11  22  41  67  99 131 172 215 274 335 393
#
# _framework density 20.812107000000001
#
# number of rings (size 3 to 8) (size 9 to 14) (size 15 to 20)
#    0.000    1.200    6.000    0.600    5.600    0.000 
#    0.000    6.000    0.000    0.000    0.000    0.000 
#    0.000    0.000    0.000    0.000    0.000    0.000 
#
# Total GULP energy -496115.882112 kJ/mol
# GULP energy per Si atom -12402.897053 kJ/mol
# Density = 2.076474 g / cm^3
# Si number density = 20.812107 Si / 1000 Ang^3
#
#
#
# Elastic Constant Matrix: (Units=GPa)
#
#
# Indices 1 2 3 4 5 6 
#
# 1 87.7934 47.1559 60.8881 0.0000 0.0000 0.0000
# 2 47.1559 87.7936 60.8889 0.0000 0.0000 0.0000
# 3 60.8881 60.8889 132.3582 0.0000 0.0000 0.0000
# 4 0.0000 0.0000 0.0000 39.0751 0.0000 0.0000
# 5 0.0000 0.0000 0.0000 0.0000 39.0743 0.0000
# 6 0.0000 0.0000 0.0000 0.0000 0.0000 4.9012
#
#
#
# Elastic Compliance Matrix: (Units=1/GPa)
#
#
# Indices 1 2 3 4 5 6 
#
# 1 0.018639 -0.005969 -0.005828 0.000000 0.000000 0.000000
# 2 -0.005969 0.018639 -0.005829 0.000000 0.000000 0.000000
# 3 -0.005828 -0.005829 0.012918 0.000000 0.000000 0.000000
# 4 0.000000 0.000000 0.000000 0.025592 0.000000 0.000000
# 5 0.000000 0.000000 0.000000 0.000000 0.025592 0.000000
# 6 0.000000 0.000000 0.000000 0.000000 0.000000 0.204031
#
#
# Mechanical properties :
#
#
# Convention : Reuss Voigt Hill
#
# Bulk Modulus (GPa) = 66.91897 71.75677 69.33787
# Shear Modulus (GPa) = 14.46579 25.87762 20.17170
#
# Velocity S-wave (km/s) = 2.63927 3.53000 3.11662
# Velocity P-wave (km/s) = 6.44293 7.15317 6.80732
#
# Compressibility (1/GPa) = 0.01494345
#
# Stress axis : x y z
#
# Youngs Moduli (GPa) = 53.65208 53.65155 77.41303
#
# Poissons Ratio (x) = 0.32025 0.45119
# Poissons Ratio (y) = 0.32025 0.45120
# Poissons Ratio (z) = 0.31270 0.31271
#
# Static dielectric constant tensor:
#      x y z
#    x 3.623820 0.000000 0.000000 
#    y 0.000000 3.623820 0.000000 
#    z 0.000000 0.000000 3.903060 
# 
# 
# High freq. dielectric constant tensor:
#      x y z
#    x 1.803680 0.000000 0.000000 
#    y 0.000000 1.803680 0.000000 
#    z 0.000000 0.000000 1.822790 
# 
# From -- ./inp_files/4740.got.cif
#   From: 2010.03.12/outbox.cif.g09.slc.cpg/sg91_3_cif.got.tgz:4740.got - 2010.04.08 20:27:58.
