data_PCOD8305065
_publ_section_title
;
Structure prediction by ZEFSAII (Michael W. Deem and Ramdas Pophale) SiO2 
 PCOD8305065
Probable space group: P 41 2 2
;
_chemical_formula_sum "Si O2"
_cell_formula_units_Z 36
_cell_length_a 11.623019
_cell_length_b 11.623019
_cell_length_c 11.408084
_cell_angle_alpha 90.000000
_cell_angle_beta 90.000000
_cell_angle_gamma 90.000000
_cell_volume 1541.170210
_symmetry_space_group_name_H-M "P 41 2 2"
_symmetry_group_IT_number 91
_symmetry_cell_setting 'tetragonal'
loop_
_space_group_symop_operation_xyz
x,y,z
-y,x,1/4+z
-x,-y,1/2+z
y,-x,3/4+z
x,-y,1/2-z
-x,y,-z
y,x,3/4-z
-y,-x,1/4-z
loop_
_atom_site_type_symbol
_atom_site_label
_atom_site_fract_x
_atom_site_fract_y
_atom_site_fract_z
Si Si1 0.116164 0.747956 0.436799
Si Si2 0.271070 0.953413 0.486360
Si Si3 0.444456 0.444456 0.375000
Si Si4 0.814275 0.500000 0.250000
Si Si5 0.776142 0.483334 0.992484
Si Si6 0.000000 0.627880 0.000000
O O1 0.164675 0.864494 0.494469
O O2 0.213067 0.651596 0.460927
O O3 0.000000 0.710899 0.500000
O O4 0.074115 0.757022 0.301749
O O5 0.390720 0.895338 0.528379
O O6 0.282431 0.979430 0.351443
O O7 0.500000 0.486728 0.500000
O O8 0.310220 0.464871 0.397242
O O9 0.738145 0.490472 0.370086
O O10 0.895348 0.545491 0.969105
#
# Coordination Sequence:
#
# PCOD8305065 Si02
#       6
#     8   8   4   4   8   4
#     4  12  24  47  73 106 145 202 256 311 374 462
#     4  11  25  43  74 108 148 197 262 311 381 456
#     4  12  34  52  78 122 160 200 250 338 404 468
#     4  10  22  46  76 108 136 202 256 306 374 462
#     4  11  25  48  79 108 150 199 260 310 382 471
#     4  10  24  46  72 110 144 206 252 308 384 454
#
# _framework density 23.358872000000002
#
# number of rings (size 3 to 8) (size 9 to 14) (size 15 to 20)
#    0.000    0.889    3.333    2.000   10.889    0.889 
#    6.000    0.000    0.000    0.000    0.000    0.000 
#    0.000    0.000    0.000    0.000    0.000    0.000 
#
# Total GULP energy -446121.166833 kJ/mol
# GULP energy per Si atom -12392.254634 kJ/mol
# Density = 2.330571 g / cm^3
# Si number density = 23.358872 Si / 1000 Ang^3
#
#
#
# Elastic Constant Matrix: (Units=GPa)
#
#
# Indices 1 2 3 4 5 6 
#
# 1 79.8600 45.1913 45.6470 0.0000 0.0000 0.0000
# 2 45.1913 79.8600 45.6470 0.0000 0.0000 0.0000
# 3 45.6470 45.6470 104.0606 0.0000 0.0000 0.0000
# 4 0.0000 0.0000 0.0000 22.3349 0.0000 0.0000
# 5 0.0000 0.0000 0.0000 0.0000 22.3349 0.0000
# 6 0.0000 0.0000 0.0000 0.0000 0.0000 -223.7609
#
#
#
# Elastic Compliance Matrix: (Units=1/GPa)
#
#
# Indices 1 2 3 4 5 6 
#
# 1 0.020304 -0.008540 -0.005160 0.000000 0.000000 0.000000
# 2 -0.008540 0.020304 -0.005160 0.000000 0.000000 0.000000
# 3 -0.005160 -0.005160 0.014137 0.000000 0.000000 0.000000
# 4 0.000000 0.000000 0.000000 0.044773 0.000000 0.000000
# 5 0.000000 0.000000 0.000000 0.000000 0.044773 0.000000
# 6 0.000000 0.000000 0.000000 0.000000 0.000000 -0.004469
#
#
# Mechanical properties :
#
#
# Convention : Reuss Voigt Hill
#
# Bulk Modulus (GPa) = 58.74187 59.63902 59.19044
# Shear Modulus (GPa) = 27.28972 -27.33187 -0.02107
#
# Velocity S-wave (km/s) = 3.42172 -3.42436 -0.09509
# Velocity P-wave (km/s) = 6.38851 3.15469 5.03811
#
# Compressibility (1/GPa) = 0.01702363
#
# Stress axis : x y z
#
# Youngs Moduli (GPa) = 49.25072 49.25072 70.73586
#
# Poissons Ratio (x) = 0.42061 0.36503
# Poissons Ratio (y) = 0.42061 0.36503
# Poissons Ratio (z) = 0.25415 0.25415
#
# Static dielectric constant tensor:
#      x y z
#    x 6.712600 0.000000 0.000000 
#    y 0.000000 6.712600 0.000000 
#    z 0.000000 0.000000 5.037880 
# 
# 
# High freq. dielectric constant tensor:
#      x y z
#    x 1.914760 0.000000 0.000000 
#    y 0.000000 1.914760 0.000000 
#    z 0.000000 0.000000 1.944220 
# 
# From -- ./inp_files/3575.got.cif
#   From: 2010.03.12/outbox.cif.g09.slc.cpg/sg91_2_cif.got.tgz:3575.got - 2010.04.08 20:27:58.
