data_PCOD8305576
_publ_section_title
;
Structure prediction by ZEFSAII (Michael W. Deem and Ramdas Pophale) SiO2 
 PCOD8305576
Probable space group: P 42 2 2
;
_chemical_formula_sum "Si O2"
_cell_formula_units_Z 40
_cell_length_a 8.300443
_cell_length_b 8.300443
_cell_length_c 25.782902
_cell_angle_alpha 90.000000
_cell_angle_beta 90.000000
_cell_angle_gamma 90.000000
_cell_volume 1776.373726
_symmetry_space_group_name_H-M "P 42 2 2"
_symmetry_group_IT_number 93
_symmetry_cell_setting 'tetragonal'
loop_
_space_group_symop_operation_xyz
x,y,z
-y,x,1/2+z
-x,-y,z
y,-x,1/2+z
x,-y,-z
-x,y,-z
y,x,1/2-z
-y,-x,1/2-z
loop_
_atom_site_type_symbol
_atom_site_label
_atom_site_fract_x
_atom_site_fract_y
_atom_site_fract_z
Si Si1 0.000000 0.759865 0.500000
Si Si2 0.500000 0.500000 0.411828
Si Si3 0.834167 0.930641 0.888546
Si Si4 0.000000 0.500000 0.339493
Si Si5 0.832383 0.561593 0.861297
Si Si6 0.509649 0.244534 0.750067
Si Si7 0.746588 0.500000 0.500000
O O1 0.949570 0.863770 0.549836
O O2 0.849248 0.652519 0.483294
O O3 0.528030 0.664791 0.378733
O O4 0.648780 0.456334 0.448568
O O5 0.665060 0.019074 0.873070
O O6 0.814646 0.748129 0.872159
O O7 0.000000 0.000000 0.862210
O O8 0.846772 0.474819 0.303218
O O9 0.860645 0.526669 0.800620
O O10 0.000000 0.500000 0.888759
O O11 0.396352 0.396352 0.750000
O O12 0.695094 0.304907 0.750000
#
# Coordination Sequence:
#
# PCOD8305576 Si02
#       7
#     4   4   8   4   8   8   4
#     4  11  23  46  72 103 143 186 247 301 374 447
#     4  11  24  46  71 102 146 188 245 303 370 424
#     4  12  29  47  74 108 147 195 245 309 378 451
#     4  12  26  47  74 108 150 197 246 308 376 438
#     4  12  27  46  73 109 148 194 250 302 368 449
#     4  11  24  44  72 104 143 191 242 298 360 436
#     4  10  22  42  74 104 138 190 240 308 364 450
#
# _framework density 22.517783000000001
#
# number of rings (size 3 to 8) (size 9 to 14) (size 15 to 20)
#    0.000    0.600    5.000    2.700    5.600    0.000 
#    0.000    3.000    0.000    0.000    0.000    0.000 
#    0.000    0.000    0.000    0.000    0.000    0.000 
#
# Total GULP energy -495690.970665 kJ/mol
# GULP energy per Si atom -12392.274267 kJ/mol
# Density = 2.246653 g / cm^3
# Si number density = 22.517783 Si / 1000 Ang^3
#
#
#
# Elastic Constant Matrix: (Units=GPa)
#
#
# Indices 1 2 3 4 5 6 
#
# 1 125.9822 32.7257 33.8022 0.0000 0.0000 0.0000
# 2 32.7257 125.9834 33.8024 0.0000 0.0000 0.0000
# 3 33.8022 33.8024 121.5499 0.0000 0.0000 0.0000
# 4 0.0000 0.0000 0.0000 2.7223 0.0000 0.0000
# 5 0.0000 0.0000 0.0000 0.0000 2.7205 0.0000
# 6 0.0000 0.0000 0.0000 0.0000 0.0000 26.2608
#
#
#
# Elastic Compliance Matrix: (Units=1/GPa)
#
#
# Indices 1 2 3 4 5 6 
#
# 1 0.008935 -0.001788 -0.001988 0.000000 0.000000 0.000000
# 2 -0.001788 0.008935 -0.001988 0.000000 0.000000 0.000000
# 3 -0.001988 -0.001988 0.009333 0.000000 0.000000 0.000000
# 4 0.000000 0.000000 0.000000 0.367341 0.000000 0.000000
# 5 0.000000 0.000000 0.000000 0.000000 0.367578 0.000000
# 6 0.000000 0.000000 0.000000 0.000000 0.000000 0.038080
#
#
# Mechanical properties :
#
#
# Convention : Reuss Voigt Hill
#
# Bulk Modulus (GPa) = 63.78793 63.79732 63.79262
# Shear Modulus (GPa) = 6.12029 24.55306 15.33668
#
# Velocity S-wave (km/s) = 1.65042 3.30568 2.61260
# Velocity P-wave (km/s) = 5.65872 6.55466 6.12310
#
# Compressibility (1/GPa) = 0.01567695
#
# Stress axis : x y z
#
# Youngs Moduli (GPa) = 111.91517 111.91624 107.15122
#
# Poissons Ratio (x) = 0.20008 0.21298
# Poissons Ratio (y) = 0.20008 0.21298
# Poissons Ratio (z) = 0.22245 0.22245
#
# Static dielectric constant tensor:
#      x y z
#    x 4.242100 0.000000 0.000000 
#    y 0.000000 4.242100 0.000000 
#    z 0.000000 0.000000 3.856960 
# 
# 
# High freq. dielectric constant tensor:
#      x y z
#    x 1.892890 0.000000 0.000000 
#    y 0.000000 1.892890 0.000000 
#    z 0.000000 0.000000 1.887740 
# 
# From -- ./inp_files/7351.got.cif
#   From: 2010.03.12/outbox.cif.g09.slc.cpg/sg93_4_cif.got.tgz:7351.got - 2010.04.08 20:44:19.
