data_PCOD8305083
_publ_section_title
;
Structure prediction by ZEFSAII (Michael W. Deem and Ramdas Pophale) SiO2 
 PCOD8305083
Probable space group: P 41 2 2
;
_chemical_formula_sum "Si O2"
_cell_formula_units_Z 40
_cell_length_a 7.758280
_cell_length_b 7.758280
_cell_length_c 28.557159
_cell_angle_alpha 90.000000
_cell_angle_beta 90.000000
_cell_angle_gamma 90.000000
_cell_volume 1718.881346
_symmetry_space_group_name_H-M "P 41 2 2"
_symmetry_group_IT_number 91
_symmetry_cell_setting 'tetragonal'
loop_
_space_group_symop_operation_xyz
x,y,z
-y,x,1/4+z
-x,-y,1/2+z
y,-x,3/4+z
x,-y,1/2-z
-x,y,-z
y,x,3/4-z
-y,-x,1/4-z
loop_
_atom_site_type_symbol
_atom_site_label
_atom_site_fract_x
_atom_site_fract_y
_atom_site_fract_z
Si Si1 0.823791 0.437739 0.022129
Si Si2 0.081456 0.566932 0.296130
Si Si3 0.373309 0.633955 0.352555
Si Si4 0.191511 0.282686 0.694447
Si Si5 0.904441 0.914653 0.319876
O O1 0.724454 0.580536 0.052782
O O2 0.862370 0.292029 0.060572
O O3 0.714801 0.358884 0.978537
O O4 0.000000 0.515865 0.000000
O O5 0.181740 0.500000 0.250000
O O6 0.207639 0.517513 0.339047
O O7 0.908612 0.456480 0.295630
O O8 0.030828 0.771487 0.296788
O O9 0.527941 0.527941 0.375000
O O10 0.296025 0.764728 0.389879
O O11 0.077266 0.107750 0.702794
O O12 0.929786 0.929786 0.375000
#
# Coordination Sequence:
#
# PCOD8305083 Si02
#       5
#     8   8   8   8   8
#     4  10  23  45  74 104 142 192 245 306 382 452
#     4  12  26  46  72 106 145 194 247 308 378 454
#     4  12  28  45  73 107 151 193 244 317 381 463
#     4  11  25  45  76 105 142 198 251 306 378 459
#     4  11  21  46  72 100 140 188 250 304 370 445
#
# _framework density 23.270948000000001
#
# number of rings (size 3 to 8) (size 9 to 14) (size 15 to 20)
#    0.000    0.800    4.000    3.000    5.600    0.800 
#    3.600    0.000    0.000    0.000    0.000    0.000 
#    0.000    0.000    0.000    0.000    0.000    0.000 
#
# Total GULP energy -495546.969826 kJ/mol
# GULP energy per Si atom -12388.674246 kJ/mol
# Density = 2.321798 g / cm^3
# Si number density = 23.270948 Si / 1000 Ang^3
#
#
#
# Elastic Constant Matrix: (Units=GPa)
#
#
# Indices 1 2 3 4 5 6 
#
# 1 88.2090 49.3738 46.9726 0.0000 0.0000 0.0000
# 2 49.3738 88.2090 46.9726 0.0000 0.0000 0.0000
# 3 46.9726 46.9726 134.5021 0.0000 0.0000 0.0000
# 4 0.0000 0.0000 0.0000 38.2828 0.0000 0.0000
# 5 0.0000 0.0000 0.0000 0.0000 38.2828 0.0000
# 6 0.0000 0.0000 0.0000 0.0000 0.0000 -0.4807
#
#
#
# Elastic Compliance Matrix: (Units=1/GPa)
#
#
# Indices 1 2 3 4 5 6 
#
# 1 0.017647 -0.008103 -0.003333 0.000000 0.000000 0.000000
# 2 -0.008103 0.017647 -0.003333 0.000000 0.000000 0.000000
# 3 -0.003333 -0.003333 0.009763 0.000000 0.000000 0.000000
# 4 0.000000 0.000000 0.000000 0.026121 0.000000 0.000000
# 5 0.000000 0.000000 0.000000 0.000000 0.026121 0.000000
# 6 0.000000 0.000000 0.000000 0.000000 0.000000 -2.080123
#
#
# Mechanical properties :
#
#
# Convention : Reuss Voigt Hill
#
# Bulk Modulus (GPa) = 64.43775 66.39531 65.41653
# Shear Modulus (GPa) = -2.56659 26.39038 11.91189
#
# Velocity S-wave (km/s) = -1.05134 3.37122 2.26493
# Velocity P-wave (km/s) = 5.12607 6.61414 5.91707
#
# Compressibility (1/GPa) = 0.01551885
#
# Stress axis : x y z
#
# Youngs Moduli (GPa) = 56.66654 56.66654 102.42798
#
# Poissons Ratio (x) = 0.45915 0.34141
# Poissons Ratio (y) = 0.45915 0.34141
# Poissons Ratio (z) = 0.18888 0.18888
#
# Static dielectric constant tensor:
#      x y z
#    x 4.118700 0.000000 0.000000 
#    y 0.000000 4.118700 0.000000 
#    z 0.000000 0.000000 3.318510 
# 
# 
# High freq. dielectric constant tensor:
#      x y z
#    x 1.906370 0.000000 0.000000 
#    y 0.000000 1.906370 0.000000 
#    z 0.000000 0.000000 1.948000 
# 
# From -- ./inp_files/13421.got.cif
#   From: 2010.03.12/outbox.cif.g09.slc.cpg/sg91_7_cif.got.tgz:13421.got - 2010.04.08 20:27:58.
