data_PCOD8305007
_publ_section_title
;
Structure prediction by ZEFSAII (Michael W. Deem and Ramdas Pophale) SiO2 
 PCOD8305007
Probable space group: P 41 2 2
;
_chemical_formula_sum "Si O2"
_cell_formula_units_Z 44
_cell_length_a 11.830282
_cell_length_b 11.830282
_cell_length_c 16.551396
_cell_angle_alpha 90.000000
_cell_angle_beta 90.000000
_cell_angle_gamma 90.000000
_cell_volume 2316.460098
_symmetry_space_group_name_H-M "P 41 2 2"
_symmetry_group_IT_number 91
_symmetry_cell_setting 'tetragonal'
loop_
_space_group_symop_operation_xyz
x,y,z
-y,x,1/4+z
-x,-y,1/2+z
y,-x,3/4+z
x,-y,1/2-z
-x,y,-z
y,x,3/4-z
-y,-x,1/4-z
loop_
_atom_site_type_symbol
_atom_site_label
_atom_site_fract_x
_atom_site_fract_y
_atom_site_fract_z
Si Si1 0.680060 0.422698 0.468096
Si Si2 0.114943 0.479350 0.043595
Si Si3 0.169740 0.701511 0.320116
Si Si4 0.703373 0.111903 0.604147
Si Si5 0.952818 0.115174 0.410872
Si Si6 0.466243 0.466243 0.375000
O O1 0.785363 0.509242 0.476682
O O2 0.727996 0.300221 0.446831
O O3 0.598842 0.454654 0.393929
O O4 0.609932 0.424682 0.551191
O O5 0.150754 0.387944 0.109543
O O6 0.100200 0.600843 0.084361
O O7 0.000000 0.440969 0.000000
O O8 0.117371 0.654263 0.236694
O O9 0.110380 0.818412 0.344164
O O10 0.776982 0.223019 0.625000
O O11 0.781244 0.000638 0.607866
O O12 0.000000 0.134573 0.500000
O O13 0.996498 0.996498 0.375000
#
# Coordination Sequence:
#
# PCOD8305007 Si02
#       6
#     8   8   8   8   8   4
#     4  11  20  39  62  96 128 166 213 268 328 391
#     4  12  25  40  61  96 138 168 210 277 334 385
#     4  12  23  38  65 100 125 168 220 273 328 386
#     4  11  20  37  68  95 120 161 218 275 320 373
#     4  11  21  40  65  93 123 167 216 269 318 384
#     4  10  22  34  68  98 124 162 212 274 328 394
#
# _framework density 18.994499999999999
#
# number of rings (size 3 to 8) (size 9 to 14) (size 15 to 20)
#    0.000    0.727    7.273    3.273    2.545    0.727 
#    0.000    1.818    4.000    0.000    0.000    0.000 
#    0.000    0.000    0.000    0.000    0.000    0.000 
#
# Total GULP energy -545620.202916 kJ/mol
# GULP energy per Si atom -12400.459157 kJ/mol
# Density = 1.895127 g / cm^3
# Si number density = 18.994500 Si / 1000 Ang^3
#
#
#
# Elastic Constant Matrix: (Units=GPa)
#
#
# Indices 1 2 3 4 5 6 
#
# 1 93.4792 24.7273 33.5986 0.0000 0.0000 0.0000
# 2 24.7273 93.4783 33.5985 0.0000 0.0000 0.0000
# 3 33.5986 33.5985 76.5334 0.0000 0.0000 0.0000
# 4 0.0000 0.0000 0.0000 29.1209 0.0000 0.0000
# 5 0.0000 0.0000 0.0000 0.0000 29.1210 0.0000
# 6 0.0000 0.0000 0.0000 0.0000 0.0000 23.7256
#
#
#
# Elastic Compliance Matrix: (Units=1/GPa)
#
#
# Indices 1 2 3 4 5 6 
#
# 1 0.012909 -0.001636 -0.004949 0.000000 0.000000 0.000000
# 2 -0.001636 0.012909 -0.004949 0.000000 0.000000 0.000000
# 3 -0.004949 -0.004949 0.017411 0.000000 0.000000 0.000000
# 4 0.000000 0.000000 0.000000 0.034340 0.000000 0.000000
# 5 0.000000 0.000000 0.000000 0.000000 0.034339 0.000000
# 6 0.000000 0.000000 0.000000 0.000000 0.000000 0.042149
#
#
# Mechanical properties :
#
#
# Convention : Reuss Voigt Hill
#
# Bulk Modulus (GPa) = 49.59859 49.70442 49.65150
# Shear Modulus (GPa) = 27.19669 27.83127 27.51398
#
# Velocity S-wave (km/s) = 3.78804 3.83198 3.81008
# Velocity P-wave (km/s) = 6.73061 6.76782 6.74924
#
# Compressibility (1/GPa) = 0.02016187
#
# Stress axis : x y z
#
# Youngs Moduli (GPa) = 77.46481 77.46401 57.43344
#
# Poissons Ratio (x) = 0.12673 0.28424
# Poissons Ratio (y) = 0.12673 0.28424
# Poissons Ratio (z) = 0.38337 0.38337
#
# Static dielectric constant tensor:
#      x y z
#    x 3.659570 0.000000 0.000000 
#    y 0.000000 3.659580 0.000000 
#    z 0.000000 0.000000 3.697200 
# 
# 
# High freq. dielectric constant tensor:
#      x y z
#    x 1.733000 0.000000 0.000000 
#    y 0.000000 1.733000 0.000000 
#    z 0.000000 0.000000 1.736040 
# 
# From -- ./inp_files/16822.got.cif
#   From: 2010.03.12/outbox.cif.g09.slc.cpg/sg91_9_cif.got.tgz:16822.got - 2010.04.08 20:27:58.
