data_PCOD8305022
_publ_section_title
;
Structure prediction by ZEFSAII (Michael W. Deem and Ramdas Pophale) SiO2 
 PCOD8305022
Probable space group: P 41 2 2
;
_chemical_formula_sum "Si O2"
_cell_formula_units_Z 60
_cell_length_a 14.934576
_cell_length_b 14.934576
_cell_length_c 13.742780
_cell_angle_alpha 90.000000
_cell_angle_beta 90.000000
_cell_angle_gamma 90.000000
_cell_volume 3065.211094
_symmetry_space_group_name_H-M "P 41 2 2"
_symmetry_group_IT_number 91
_symmetry_cell_setting 'tetragonal'
loop_
_space_group_symop_operation_xyz
x,y,z
-y,x,1/4+z
-x,-y,1/2+z
y,-x,3/4+z
x,-y,1/2-z
-x,y,-z
y,x,3/4-z
-y,-x,1/4-z
loop_
_atom_site_type_symbol
_atom_site_label
_atom_site_fract_x
_atom_site_fract_y
_atom_site_fract_z
Si Si1 0.848805 0.500000 0.750000
Si Si2 0.939172 0.930146 0.168566
Si Si3 0.753475 0.644986 0.216701
Si Si4 0.438597 0.005176 0.135870
Si Si5 0.047151 0.745769 0.396821
Si Si6 0.813197 0.521077 0.385998
Si Si7 0.383985 0.787963 0.834034
Si Si8 0.935894 0.270657 0.282535
O O1 0.784117 0.567503 0.689970
O O2 0.911764 0.543084 0.832590
O O3 0.846667 0.929707 0.107028
O O4 0.963998 0.830999 0.199701
O O5 0.910498 0.000000 0.250000
O O6 0.030501 0.969500 0.125000
O O7 0.760486 0.593465 0.320210
O O8 0.766034 0.575480 0.127980
O O9 0.658966 0.692714 0.196212
O O10 0.828828 0.722130 0.222407
O O11 0.506467 0.083813 0.098974
O O12 0.334892 0.028987 0.117528
O O13 0.453701 0.000000 0.250000
O O14 0.138354 0.692153 0.405901
O O15 0.000000 0.742060 0.500000
O O16 0.980842 0.699044 0.319391
O O17 0.811978 0.546132 0.499088
#
# Coordination Sequence:
#
# PCOD8305022 Si02
#       8
#     4   8   8   8   8   8   8   8
#     4  12  24  38  64  94 130 176 208 270 332 400
#     4  11  22  37  55  79 127 179 224 262 303 356
#     4  10  22  40  64  98 129 157 206 273 333 399
#     4  11  22  40  63  93 130 167 219 275 326 377
#     4  11  23  34  57  90 124 165 212 269 317 369
#     4  10  22  39  68  95 127 165 204 279 338 390
#     4  12  23  40  65  95 127 169 215 262 337 398
#     4  11  21  39  58  86 124 170 218 262 313 367
#
# _framework density 19.574507000000001
#
# number of rings (size 3 to 8) (size 9 to 14) (size 15 to 20)
#    0.000    1.067    5.333    2.800    1.867    0.533 
#    0.000    0.667    0.000    4.800    0.000    0.000 
#    0.000    0.000    0.000    0.000    0.000    0.000 
#
# Total GULP energy -743465.421876 kJ/mol
# GULP energy per Si atom -12391.090365 kJ/mol
# Density = 1.952995 g / cm^3
# Si number density = 19.574507 Si / 1000 Ang^3
#
#
#
# Elastic Constant Matrix: (Units=GPa)
#
#
# Indices 1 2 3 4 5 6 
#
# 1 103.3849 45.1107 45.6418 0.0000 0.0000 0.0000
# 2 45.1107 103.3854 45.6419 0.0000 0.0000 0.0000
# 3 45.6418 45.6419 113.4457 0.0000 0.0000 0.0000
# 4 0.0000 0.0000 0.0000 28.1985 0.0000 0.0000
# 5 0.0000 0.0000 0.0000 0.0000 28.1987 0.0000
# 6 0.0000 0.0000 0.0000 0.0000 0.0000 20.0986
#
#
#
# Elastic Compliance Matrix: (Units=1/GPa)
#
#
# Indices 1 2 3 4 5 6 
#
# 1 0.013054 -0.004107 -0.003600 0.000000 0.000000 0.000000
# 2 -0.004107 0.013054 -0.003600 0.000000 0.000000 0.000000
# 3 -0.003600 -0.003600 0.011711 0.000000 0.000000 0.000000
# 4 0.000000 0.000000 0.000000 0.035463 0.000000 0.000000
# 5 0.000000 0.000000 0.000000 0.000000 0.035463 0.000000
# 6 0.000000 0.000000 0.000000 0.000000 0.000000 0.049755
#
#
# Mechanical properties :
#
#
# Convention : Reuss Voigt Hill
#
# Bulk Modulus (GPa) = 65.76014 65.88943 65.82479
# Shear Modulus (GPa) = 26.85588 27.55392 27.20490
#
# Velocity S-wave (km/s) = 3.70805 3.75593 3.73206
# Velocity P-wave (km/s) = 7.21114 7.24867 7.22993
#
# Compressibility (1/GPa) = 0.01520678
#
# Stress axis : x y z
#
# Youngs Moduli (GPa) = 76.60735 76.60769 85.38860
#
# Poissons Ratio (x) = 0.31460 0.30736
# Poissons Ratio (y) = 0.31460 0.30736
# Poissons Ratio (z) = 0.27575 0.27575
#
# Static dielectric constant tensor:
#      x y z
#    x 3.572200 0.000000 0.000000 
#    y 0.000000 3.572200 0.000000 
#    z 0.000000 0.000000 3.459810 
# 
# 
# High freq. dielectric constant tensor:
#      x y z
#    x 1.755240 0.000000 0.000000 
#    y 0.000000 1.755240 0.000000 
#    z 0.000000 0.000000 1.757600 
# 
# From -- ./inp_files/11590.got.cif
#   From: 2010.03.12/outbox.cif.g09.slc.cpg/sg91_6_cif.got.tgz:11590.got - 2010.04.08 20:27:58.
