data_PCOD8305596
_publ_section_title
;
Structure prediction by ZEFSAII (Michael W. Deem and Ramdas Pophale) SiO2 
 PCOD8305596
Probable space group: P 42 2 2
;
_chemical_formula_sum "Si O2"
_cell_formula_units_Z 60
_cell_length_a 12.139446
_cell_length_b 12.139446
_cell_length_c 19.995527
_cell_angle_alpha 90.000000
_cell_angle_beta 90.000000
_cell_angle_gamma 90.000000
_cell_volume 2946.663815
_symmetry_space_group_name_H-M "P 42 2 2"
_symmetry_group_IT_number 93
_symmetry_cell_setting 'tetragonal'
loop_
_space_group_symop_operation_xyz
x,y,z
-y,x,1/2+z
-x,-y,z
y,-x,1/2+z
x,-y,-z
-x,y,-z
y,x,1/2-z
-y,-x,1/2-z
loop_
_atom_site_type_symbol
_atom_site_label
_atom_site_fract_x
_atom_site_fract_y
_atom_site_fract_z
Si Si1 0.113558 0.657446 0.887804
Si Si2 0.522180 0.873031 0.721572
Si Si3 0.624401 0.719532 0.504037
Si Si4 0.127946 0.471144 0.363867
Si Si5 0.226047 0.845673 0.822878
Si Si6 0.700057 0.865648 0.621859
Si Si7 0.937011 0.891470 0.674410
Si Si8 0.500000 0.756865 0.000000
O O1 0.161261 0.573602 0.831252
O O2 0.135541 0.783468 0.867248
O O3 0.982900 0.648394 0.902328
O O4 0.177695 0.636845 0.955275
O O5 0.520100 0.817286 0.795318
O O6 0.643072 0.844783 0.693629
O O7 0.500000 0.000000 0.736095
O O8 0.500000 0.679677 0.500000
O O9 0.663351 0.765454 0.575335
O O10 0.689507 0.610176 0.484715
O O11 0.164482 0.344168 0.357047
O O12 0.174442 0.522165 0.432407
O O13 0.000000 0.500000 0.367259
O O14 0.209977 0.790024 0.750000
O O15 0.207799 0.976519 0.825458
O O16 0.832410 0.866302 0.627436
O O17 0.900227 0.900227 0.750000
O O18 0.000000 0.000000 0.648637
#
# Coordination Sequence:
#
# PCOD8305596 Si02
#       8
#     8   8   8   8   8   8   8   4
#     4  11  20  40  66 100 127 166 222 279 338 394
#     4   9  20  36  67 100 126 158 221 289 325 383
#     4  12  26  45  69  91 128 177 221 286 349 401
#     4  11  25  42  67  94 131 178 232 274 324 398
#     4  12  21  39  67  98 134 176 225 276 334 407
#     4  11  23  39  66 101 137 167 222 278 337 402
#     4  11  22  36  60  97 144 183 210 259 340 409
#     4  12  28  48  62  92 128 184 230 272 342 414
#
# _framework density 20.362010999999999
#
# number of rings (size 3 to 8) (size 9 to 14) (size 15 to 20)
#    0.000    0.933    6.667    0.800    5.600    0.533 
#    0.000    0.667    0.000    0.000    3.467    0.000 
#    0.000    0.000    0.000    0.000    0.000    0.000 
#
# Total GULP energy -743450.032073 kJ/mol
# GULP energy per Si atom -12390.833868 kJ/mol
# Density = 2.031567 g / cm^3
# Si number density = 20.362011 Si / 1000 Ang^3
#
#
#
# Elastic Constant Matrix: (Units=GPa)
#
#
# Indices 1 2 3 4 5 6 
#
# 1 57.2199 44.4508 26.8934 0.0000 0.0000 0.0000
# 2 44.4508 57.2202 26.8927 0.0000 0.0000 0.0000
# 3 26.8934 26.8927 106.2893 0.0000 0.0000 0.0000
# 4 0.0000 0.0000 0.0000 34.2971 0.0000 0.0000
# 5 0.0000 0.0000 0.0000 0.0000 34.2972 0.0000
# 6 0.0000 0.0000 0.0000 0.0000 0.0000 25.8633
#
#
#
# Elastic Compliance Matrix: (Units=1/GPa)
#
#
# Indices 1 2 3 4 5 6 
#
# 1 0.044835 -0.033479 -0.002873 0.000000 0.000000 0.000000
# 2 -0.033479 0.044834 -0.002873 0.000000 0.000000 0.000000
# 3 -0.002873 -0.002873 0.010862 0.000000 0.000000 0.000000
# 4 0.000000 0.000000 0.000000 0.029157 0.000000 0.000000
# 5 0.000000 0.000000 0.000000 0.000000 0.029157 0.000000
# 6 0.000000 0.000000 0.000000 0.000000 0.000000 0.038665
#
#
# Mechanical properties :
#
#
# Convention : Reuss Voigt Hill
#
# Bulk Modulus (GPa) = 45.28826 46.35592 45.82209
# Shear Modulus (GPa) = 17.64788 27.05767 22.35278
#
# Velocity S-wave (km/s) = 2.94718 3.64927 3.31685
# Velocity P-wave (km/s) = 5.81988 6.36958 6.10092
#
# Compressibility (1/GPa) = 0.02208078
#
# Stress axis : x y z
#
# Youngs Moduli (GPa) = 22.30418 22.30446 92.06224
#
# Poissons Ratio (x) = 0.74672 0.26454
# Poissons Ratio (y) = 0.74672 0.26448
# Poissons Ratio (z) = 0.06409 0.06408
#
# Static dielectric constant tensor:
#      x y z
#    x 3.468370 0.000000 0.000000 
#    y 0.000000 3.468370 0.000000 
#    z 0.000000 0.000000 4.221400 
# 
# 
# High freq. dielectric constant tensor:
#      x y z
#    x 1.790000 0.000000 0.000000 
#    y 0.000000 1.790000 0.000000 
#    z 0.000000 0.000000 1.794710 
# 
# From -- ./inp_files/6340.got.cif
#   From: 2010.03.12/outbox.cif.g09.slc.cpg/sg93_4_cif.got.tgz:6340.got - 2010.04.08 20:44:19.
