data_PCOD8305149
_publ_section_title
;
Structure prediction by ZEFSAII (Michael W. Deem and Ramdas Pophale) SiO2 
 PCOD8305149
Probable space group: P 41 2 2
;
_chemical_formula_sum "Si O2"
_cell_formula_units_Z 24
_cell_length_a 8.557288
_cell_length_b 8.557288
_cell_length_c 14.108984
_cell_angle_alpha 90.000000
_cell_angle_beta 90.000000
_cell_angle_gamma 90.000000
_cell_volume 1033.161082
_symmetry_space_group_name_H-M "P 41 2 2"
_symmetry_group_IT_number 91
_symmetry_cell_setting 'tetragonal'
loop_
_space_group_symop_operation_xyz
x,y,z
-y,x,1/4+z
-x,-y,1/2+z
y,-x,3/4+z
x,-y,1/2-z
-x,y,-z
y,x,3/4-z
-y,-x,1/4-z
loop_
_atom_site_type_symbol
_atom_site_label
_atom_site_fract_x
_atom_site_fract_y
_atom_site_fract_z
Si Si1 0.825039 0.090423 0.526175
Si Si2 0.207334 0.321587 0.641690
Si Si3 0.167946 0.655461 0.549974
O O1 0.816525 0.183476 0.625000
O O2 0.761728 0.203652 0.444671
O O3 0.000000 0.037630 0.500000
O O4 0.719968 0.938548 0.540060
O O5 0.183667 0.494734 0.605681
O O6 0.350175 0.298113 0.715448
O O7 0.203752 0.796249 0.625000
O O8 0.000000 0.679880 0.500000
#
# Coordination Sequence:
#
# PCOD8305149 Si02
#       3
#     8   8   8
#     4   9  18  38  71 105 134 173 228 277 323 388
#     4  11  23  43  69 101 138 179 225 279 338 400
#     4  12  26  47  72 100 138 180 226 280 338 402
#
# _framework density 23.229679999999998
#
# number of rings (size 3 to 8) (size 9 to 14) (size 15 to 20)
#    0.000    1.333    0.000    7.000    0.000    2.667 
#    0.000   21.667    0.000    0.000    0.000    0.000 
#    0.000    0.000    0.000    0.000    0.000    0.000 
#
# Total GULP energy -297402.251171 kJ/mol
# GULP energy per Si atom -12391.760465 kJ/mol
# Density = 2.317681 g / cm^3
# Si number density = 23.229680 Si / 1000 Ang^3
#
#
#
# Elastic Constant Matrix: (Units=GPa)
#
#
# Indices 1 2 3 4 5 6 
#
# 1 93.5532 73.9110 83.1305 0.0000 0.0000 0.0000
# 2 73.9110 93.5520 83.1301 0.0000 0.0000 0.0000
# 3 83.1305 83.1301 189.5312 0.0000 0.0000 0.0000
# 4 0.0000 0.0000 0.0000 52.2953 0.0000 0.0000
# 5 0.0000 0.0000 0.0000 0.0000 52.2951 0.0000
# 6 0.0000 0.0000 0.0000 0.0000 0.0000 10.7106
#
#
#
# Elastic Compliance Matrix: (Units=1/GPa)
#
#
# Indices 1 2 3 4 5 6 
#
# 1 0.030745 -0.020167 -0.004639 0.000000 0.000000 0.000000
# 2 -0.020167 0.030745 -0.004639 0.000000 0.000000 0.000000
# 3 -0.004639 -0.004639 0.009346 0.000000 0.000000 0.000000
# 4 0.000000 0.000000 0.000000 0.019122 0.000000 0.000000
# 5 0.000000 0.000000 0.000000 0.000000 0.019122 0.000000
# 6 0.000000 0.000000 0.000000 0.000000 0.000000 0.093365
#
#
# Mechanical properties :
#
#
# Convention : Reuss Voigt Hill
#
# Bulk Modulus (GPa) = 83.72843 95.21995 89.47419
# Shear Modulus (GPa) = 18.84525 32.15786 25.50155
#
# Velocity S-wave (km/s) = 2.85135 3.72471 3.31690
# Velocity P-wave (km/s) = 6.85290 7.71865 7.29862
#
# Compressibility (1/GPa) = 0.01194337
#
# Stress axis : x y z
#
# Youngs Moduli (GPa) = 32.52593 32.52545 106.99816
#
# Poissons Ratio (x) = 0.65595 0.49640
# Poissons Ratio (y) = 0.65596 0.49641
# Poissons Ratio (z) = 0.15090 0.15090
#
# Static dielectric constant tensor:
#      x y z
#    x 4.012700 0.000000 0.000000 
#    y 0.000000 4.012700 0.000000 
#    z 0.000000 0.000000 4.974750 
# 
# 
# High freq. dielectric constant tensor:
#      x y z
#    x 1.894430 0.000000 0.000000 
#    y 0.000000 1.894430 0.000000 
#    z 0.000000 0.000000 1.970370 
# 
# From -- ./inp_files/4201.got.cif
#   From: 2010.03.12/outbox.cif.g09.slc.cpg/sg91_3_cif.got.tgz:4201.got - 2010.04.08 20:27:58.
