data_PCOD8305451
_publ_section_title
;
Structure prediction by ZEFSAII (Michael W. Deem and Ramdas Pophale) SiO2 
 PCOD8305451
Probable space group: P 41 21 2
;
_chemical_formula_sum "Si O2"
_cell_formula_units_Z 36
_cell_length_a 10.460443
_cell_length_b 10.460443
_cell_length_c 15.414126
_cell_angle_alpha 90.000000
_cell_angle_beta 90.000000
_cell_angle_gamma 90.000000
_cell_volume 1686.627043
_symmetry_space_group_name_H-M "P 41 21 2"
_symmetry_group_IT_number 92
_symmetry_cell_setting 'tetragonal'
loop_
_space_group_symop_operation_xyz
x,y,z
1/2-y,1/2+x,1/4+z
-x,-y,1/2+z
1/2+y,1/2-x,3/4+z
1/2+x,1/2-y,3/4-z
1/2-x,1/2+y,1/4-z
y,x,-z
-y,-x,1/2-z
loop_
_atom_site_type_symbol
_atom_site_label
_atom_site_fract_x
_atom_site_fract_y
_atom_site_fract_z
Si Si1 0.712819 0.484184 0.788713
Si Si2 0.303839 0.838284 0.095104
Si Si3 0.800253 0.111565 0.155881
Si Si4 0.671524 0.332508 0.439719
Si Si5 0.884515 0.115486 0.750000
O O1 0.629107 0.370894 0.750000
O O2 0.801580 0.532439 0.710301
O O3 0.813182 0.441087 0.862104
O O4 0.622663 0.590597 0.831862
O O5 0.202806 0.847692 0.170688
O O6 0.274118 0.722092 0.029943
O O7 0.853020 0.146981 0.250000
O O8 0.686692 0.212583 0.130291
O O9 0.760169 0.960359 0.157979
O O10 0.634661 0.477102 0.458788
#
# Coordination Sequence:
#
# PCOD8305451 Si02
#       5
#     8   8   8   8   4
#     4  11  22  43  67  96 136 177 229 284 349 424
#     4  11  23  40  69  99 130 184 225 289 351 422
#     4  11  23  44  72 100 142 184 236 298 369 427
#     4  11  24  45  70 103 140 188 240 303 363 443
#     4  12  24  44  74  96 140 194 244 280 378 448
#
# _framework density 21.344376
#
# number of rings (size 3 to 8) (size 9 to 14) (size 15 to 20)
#    0.000    0.889    4.444    2.667    0.000    4.444 
#    8.000    0.000    0.000    0.000    0.000    0.000 
#    0.000    0.000    0.000    0.000    0.000    0.000 
#
# Total GULP energy -446041.602480 kJ/mol
# GULP energy per Si atom -12390.044513 kJ/mol
# Density = 2.129580 g / cm^3
# Si number density = 21.344376 Si / 1000 Ang^3
#
#
#
# Elastic Constant Matrix: (Units=GPa)
#
#
# Indices 1 2 3 4 5 6 
#
# 1 59.5313 40.3799 22.7721 0.0000 0.0000 0.0000
# 2 40.3799 59.5308 22.7715 0.0000 0.0000 0.0000
# 3 22.7721 22.7715 113.7948 0.0000 0.0000 0.0000
# 4 0.0000 0.0000 0.0000 44.0797 0.0000 0.0000
# 5 0.0000 0.0000 0.0000 0.0000 44.0804 0.0000
# 6 0.0000 0.0000 0.0000 0.0000 0.0000 -0.2036
#
#
#
# Elastic Compliance Matrix: (Units=1/GPa)
#
#
# Indices 1 2 3 4 5 6 
#
# 1 0.031615 -0.020601 -0.002204 0.000000 0.000000 0.000000
# 2 -0.020601 0.031615 -0.002204 0.000000 0.000000 0.000000
# 3 -0.002204 -0.002204 0.009670 0.000000 0.000000 0.000000
# 4 0.000000 0.000000 0.000000 0.022686 0.000000 0.000000
# 5 0.000000 0.000000 0.000000 0.000000 0.022686 0.000000
# 6 0.000000 0.000000 0.000000 0.000000 0.000000 -4.911332
#
#
# Mechanical properties :
#
#
# Convention : Reuss Voigt Hill
#
# Bulk Modulus (GPa) = 43.70412 44.96710 44.33561
# Shear Modulus (GPa) = -1.05587 27.38685 13.16549
#
# Velocity S-wave (km/s) = -0.70410 3.58592 2.48627
# Velocity P-wave (km/s) = 4.45636 6.18532 5.39061
#
# Compressibility (1/GPa) = 0.02288114
#
# Stress axis : x y z
#
# Youngs Moduli (GPa) = 31.63066 31.63054 103.41451
#
# Poissons Ratio (x) = 0.65163 0.22794
# Poissons Ratio (y) = 0.65164 0.22791
# Poissons Ratio (z) = 0.06972 0.06971
#
# Static dielectric constant tensor:
#      x y z
#    x 4.055360 0.000000 0.000000 
#    y 0.000000 4.055360 0.000000 
#    z 0.000000 0.000000 3.917180 
# 
# 
# High freq. dielectric constant tensor:
#      x y z
#    x 1.827650 0.000000 0.000000 
#    y 0.000000 1.827650 0.000000 
#    z 0.000000 0.000000 1.863940 
# 
# From -- ./inp_files/2566.got.cif
#   From: 2010.03.12/outbox.cif.g09.slc.cpg/sg92_2_cif.got.tgz:2566.got - 2010.04.08 20:41:11.
