data_PCOD8305498
_publ_section_title
;
Structure prediction by ZEFSAII (Michael W. Deem and Ramdas Pophale) SiO2 
 PCOD8305498
Probable space group: P 41 21 2
;
_chemical_formula_sum "Si O2"
_cell_formula_units_Z 24
_cell_length_a 9.856821
_cell_length_b 9.856821
_cell_length_c 10.078760
_cell_angle_alpha 90.000000
_cell_angle_beta 90.000000
_cell_angle_gamma 90.000000
_cell_volume 979.221281
_symmetry_space_group_name_H-M "P 41 21 2"
_symmetry_group_IT_number 92
_symmetry_cell_setting 'tetragonal'
loop_
_space_group_symop_operation_xyz
x,y,z
1/2-y,1/2+x,1/4+z
-x,-y,1/2+z
1/2+y,1/2-x,3/4+z
1/2+x,1/2-y,3/4-z
1/2-x,1/2+y,1/4-z
y,x,-z
-y,-x,1/2-z
loop_
_atom_site_type_symbol
_atom_site_label
_atom_site_fract_x
_atom_site_fract_y
_atom_site_fract_z
Si Si1 0.629112 0.491465 0.386377
Si Si2 0.255387 0.820159 0.546939
Si Si3 0.438547 0.905030 0.909904
O O1 0.517436 0.517436 0.500000
O O2 0.562771 0.437230 0.250000
O O3 0.706656 0.632212 0.348823
O O4 0.740004 0.395775 0.454116
O O5 0.143526 0.716939 0.606283
O O6 0.278286 0.959466 0.631059
O O7 0.462169 0.026917 0.805383
#
# Coordination Sequence:
#
# PCOD8305498 Si02
#       3
#     8   8   8
#     4  12  29  50  84 120 165 216 281 339 415 491
#     4  12  26  50  78 115 162 216 263 335 414 479
#     4  12  27  48  78 113 159 214 265 340 409 486
#
# _framework density 24.509271999999999
#
# number of rings (size 3 to 8) (size 9 to 14) (size 15 to 20)
#    0.000    0.000    6.667    1.000    9.333    2.667 
#    0.000    0.000    0.000    0.000    0.000    0.000 
#    0.000    0.000    0.000    0.000    0.000    0.000 
#
# Total GULP energy -297411.298429 kJ/mol
# GULP energy per Si atom -12392.137435 kJ/mol
# Density = 2.445349 g / cm^3
# Si number density = 24.509272 Si / 1000 Ang^3
#
#
#
# Elastic Constant Matrix: (Units=GPa)
#
#
# Indices 1 2 3 4 5 6 
#
# 1 110.6389 35.8714 55.9608 0.0000 0.0000 0.0000
# 2 35.8714 110.6380 55.9611 0.0000 0.0000 0.0000
# 3 55.9608 55.9611 113.8901 0.0000 0.0000 0.0000
# 4 0.0000 0.0000 0.0000 38.9089 0.0000 0.0000
# 5 0.0000 0.0000 0.0000 0.0000 38.9087 0.0000
# 6 0.0000 0.0000 0.0000 0.0000 0.0000 41.4921
#
#
#
# Elastic Compliance Matrix: (Units=1/GPa)
#
#
# Indices 1 2 3 4 5 6 
#
# 1 0.012151 -0.001224 -0.005369 0.000000 0.000000 0.000000
# 2 -0.001224 0.012151 -0.005369 0.000000 0.000000 0.000000
# 3 -0.005369 -0.005369 0.014057 0.000000 0.000000 0.000000
# 4 0.000000 0.000000 0.000000 0.025701 0.000000 0.000000
# 5 0.000000 0.000000 0.000000 0.000000 0.025701 0.000000
# 6 0.000000 0.000000 0.000000 0.000000 0.000000 0.024101
#
#
# Mechanical properties :
#
#
# Convention : Reuss Voigt Hill
#
# Bulk Modulus (GPa) = 69.27901 70.08373 69.68137
# Shear Modulus (GPa) = 35.06372 36.35353 35.70863
#
# Velocity S-wave (km/s) = 3.78647 3.85548 3.82113
# Velocity P-wave (km/s) = 6.88798 6.96251 6.92535
#
# Compressibility (1/GPa) = 0.01443439
#
# Stress axis : x y z
#
# Youngs Moduli (GPa) = 82.29866 82.29744 71.14045
#
# Poissons Ratio (x) = 0.10073 0.38196
# Poissons Ratio (y) = 0.10073 0.38196
# Poissons Ratio (z) = 0.44186 0.44187
#
# Static dielectric constant tensor:
#      x y z
#    x 4.601850 0.000000 0.000000 
#    y 0.000000 4.601860 0.000000 
#    z 0.000000 0.000000 4.404170 
# 
# 
# High freq. dielectric constant tensor:
#      x y z
#    x 1.978110 0.000000 0.000000 
#    y 0.000000 1.978110 0.000000 
#    z 0.000000 0.000000 1.963770 
# 
# From -- ./inp_files/999.got.cif
#   From: 2010.03.12/outbox.cif.g09.slc.cpg/sg92_1_cif.got.tgz:999.got - 2010.04.08 20:41:11.
