data_PCOD8305358
_publ_section_title
;
Structure prediction by ZEFSAII (Michael W. Deem and Ramdas Pophale) SiO2 
 PCOD8305358
Probable space group: P 41 21 2
;
_chemical_formula_sum "Si O2"
_cell_formula_units_Z 48
_cell_length_a 8.960918
_cell_length_b 8.960918
_cell_length_c 25.876141
_cell_angle_alpha 90.000000
_cell_angle_beta 90.000000
_cell_angle_gamma 90.000000
_cell_volume 2077.803700
_symmetry_space_group_name_H-M "P 41 21 2"
_symmetry_group_IT_number 92
_symmetry_cell_setting 'tetragonal'
loop_
_space_group_symop_operation_xyz
x,y,z
1/2-y,1/2+x,1/4+z
-x,-y,1/2+z
1/2+y,1/2-x,3/4+z
1/2+x,1/2-y,3/4-z
1/2-x,1/2+y,1/4-z
y,x,-z
-y,-x,1/2-z
loop_
_atom_site_type_symbol
_atom_site_label
_atom_site_fract_x
_atom_site_fract_y
_atom_site_fract_z
Si Si1 0.372099 0.596302 0.095540
Si Si2 0.010931 0.412400 0.250466
Si Si3 0.780440 0.532290 0.182423
Si Si4 0.076690 0.923311 0.750000
Si Si5 0.031398 0.031398 0.500000
Si Si6 0.874729 0.226913 0.930671
Si Si7 0.897291 0.307446 0.097839
O O1 0.469240 0.533839 0.047728
O O2 0.313653 0.455497 0.127455
O O3 0.226624 0.694621 0.078581
O O4 0.475303 0.699449 0.131515
O O5 0.102805 0.405138 0.196958
O O6 0.109839 0.467956 0.298202
O O7 0.881929 0.530085 0.234817
O O8 0.944859 0.249583 0.265222
O O9 0.632049 0.441804 0.199469
O O10 0.848325 0.436694 0.136444
O O11 0.746248 0.703456 0.166578
O O12 0.865601 0.067475 0.519927
#
# Coordination Sequence:
#
# PCOD8305358 Si02
#       7
#     8   8   8   4   4   8   8
#     4  11  24  46  72 103 144 191 232 309 352 440
#     4  11  24  45  69 104 145 184 241 294 359 434
#     4  12  26  43  76 101 142 192 231 306 353 435
#     4  10  21  46  67 100 144 182 239 300 351 424
#     4  12  25  44  69 106 140 186 233 294 359 424
#     4  11  23  47  68  99 147 184 233 291 365 417
#     4  12  25  46  69 108 143 183 247 296 362 430
#
# _framework density 23.101316000000001
#
# number of rings (size 3 to 8) (size 9 to 14) (size 15 to 20)
#    0.000    0.667    6.667    1.500    2.333    2.667 
#    0.000    0.833    0.000    0.000    0.000    0.000 
#    0.000    0.000    0.000    0.000    0.000    0.000 
#
# Total GULP energy -594904.421185 kJ/mol
# GULP energy per Si atom -12393.842108 kJ/mol
# Density = 2.304874 g / cm^3
# Si number density = 23.101316 Si / 1000 Ang^3
#
#
#
# Elastic Constant Matrix: (Units=GPa)
#
#
# Indices 1 2 3 4 5 6 
#
# 1 76.4846 42.5240 51.8693 0.0000 0.0000 0.0000
# 2 42.5240 76.4845 51.8693 0.0000 0.0000 0.0000
# 3 51.8693 51.8693 129.4360 0.0000 0.0000 0.0000
# 4 0.0000 0.0000 0.0000 46.9487 0.0000 0.0000
# 5 0.0000 0.0000 0.0000 0.0000 46.9488 0.0000
# 6 0.0000 0.0000 0.0000 0.0000 0.0000 39.8725
#
#
#
# Elastic Compliance Matrix: (Units=1/GPa)
#
#
# Indices 1 2 3 4 5 6 
#
# 1 0.021180 -0.008266 -0.005175 0.000000 0.000000 0.000000
# 2 -0.008266 0.021180 -0.005175 0.000000 0.000000 0.000000
# 3 -0.005175 -0.005175 0.011873 0.000000 0.000000 0.000000
# 4 0.000000 0.000000 0.000000 0.021300 0.000000 0.000000
# 5 0.000000 0.000000 0.000000 0.000000 0.021300 0.000000
# 6 0.000000 0.000000 0.000000 0.000000 0.000000 0.025080
#
#
# Mechanical properties :
#
#
# Convention : Reuss Voigt Hill
#
# Bulk Modulus (GPa) = 58.82009 63.88113 61.35061
# Shear Modulus (GPa) = 30.33769 35.83019 33.08394
#
# Velocity S-wave (km/s) = 3.62780 3.94255 3.78845
# Velocity P-wave (km/s) = 6.56239 6.95971 6.76397
#
# Compressibility (1/GPa) = 0.01700099
#
# Stress axis : x y z
#
# Youngs Moduli (GPa) = 47.21486 47.21477 84.22203
#
# Poissons Ratio (x) = 0.39028 0.43584
# Poissons Ratio (y) = 0.39028 0.43585
# Poissons Ratio (z) = 0.24433 0.24433
#
# Static dielectric constant tensor:
#      x y z
#    x 4.175470 0.000000 0.000000 
#    y 0.000000 4.175470 0.000000 
#    z 0.000000 0.000000 4.372390 
# 
# 
# High freq. dielectric constant tensor:
#      x y z
#    x 1.903930 0.000000 0.000000 
#    y 0.000000 1.903930 0.000000 
#    z 0.000000 0.000000 1.932660 
# 
# From -- ./inp_files/4542.got.cif
#   From: 2010.03.12/outbox.cif.g09.slc.cpg/sg92_3_cif.got.tgz:4542.got - 2010.04.08 20:41:11.
