data_PCOD8305946
_publ_section_title
;
Structure prediction by ZEFSAII (Michael W. Deem and Ramdas Pophale) SiO2 
 PCOD8305946
Probable space group: P 43 21 2
;
_chemical_formula_sum "Si O2"
_cell_formula_units_Z 40
_cell_length_a 19.178488
_cell_length_b 19.178488
_cell_length_c 5.105679
_cell_angle_alpha 90.000000
_cell_angle_beta 90.000000
_cell_angle_gamma 90.000000
_cell_volume 1877.942268
_symmetry_space_group_name_H-M "P 43 21 2"
_symmetry_group_IT_number 96
_symmetry_cell_setting 'tetragonal'
loop_
_space_group_symop_operation_xyz
x,y,z
1/2-y,1/2+x,3/4+z
-x,-y,1/2+z
1/2+y,1/2-x,1/4+z
1/2+x,1/2-y,1/4-z
1/2-x,1/2+y,3/4-z
y,x,-z
-y,-x,1/2-z
loop_
_atom_site_type_symbol
_atom_site_label
_atom_site_fract_x
_atom_site_fract_y
_atom_site_fract_z
Si Si1 0.652172 0.347829 0.750000
Si Si2 0.583803 0.064203 0.588873
Si Si3 0.913943 0.913943 0.500000
Si Si4 0.012493 0.720190 0.598945
Si Si5 0.568995 0.634257 0.756704
Si Si6 0.286736 0.077504 0.414834
O O1 0.632025 0.394697 0.501433
O O2 0.641783 0.266489 0.684266
O O3 0.505533 0.080051 0.502861
O O4 0.645417 0.052632 0.376763
O O5 0.604210 0.135280 0.743325
O O6 0.994038 0.899605 0.431730
O O7 0.065032 0.782198 0.525075
O O8 0.951674 0.715595 0.380917
O O9 0.981966 0.737301 0.883345
O O10 0.600166 0.600166 0.500000
O O11 0.619394 0.619394 0.000000
#
# Coordination Sequence:
#
# PCOD8305946 Si02
#       6
#     4   8   4   8   8   8
#     4  12  20  39  64  90 130 174 220 254 329 384
#     4  10  22  41  71 100 126 165 220 272 329 398
#     4  12  22  39  64  92 124 176 222 268 307 394
#     4  11  23  42  64  92 131 168 207 271 332 374
#     4  12  23  39  61  92 131 173 218 269 318 382
#     4  11  22  40  66  92 127 167 213 270 316 384
#
# _framework density 21.299910000000001
#
# number of rings (size 3 to 8) (size 9 to 14) (size 15 to 20)
#    0.000    0.800    4.000    4.200    0.000    4.800 
#    1.800    0.000    2.200    0.000    0.000    0.000 
#    0.000    0.000    0.000    0.000    0.000    0.000 
#
# Total GULP energy -495828.527631 kJ/mol
# GULP energy per Si atom -12395.713191 kJ/mol
# Density = 2.125143 g / cm^3
# Si number density = 21.299910 Si / 1000 Ang^3
#
#
#
# Elastic Constant Matrix: (Units=GPa)
#
#
# Indices 1 2 3 4 5 6 
#
# 1 58.6421 97.4036 1.3613 0.0000 0.0000 0.0000
# 2 97.4036 58.6689 1.3712 0.0000 0.0000 0.0000
# 3 1.3613 1.3712 70.2766 0.0000 0.0000 0.0000
# 4 0.0000 0.0000 0.0000 23.8998 0.0000 0.0000
# 5 0.0000 0.0000 0.0000 0.0000 23.9041 0.0000
# 6 0.0000 0.0000 0.0000 0.0000 0.0000 23.2689
#
#
#
# Elastic Compliance Matrix: (Units=1/GPa)
#
#
# Indices 1 2 3 4 5 6 
#
# 1 -0.009701 0.016109 -0.000126 0.000000 0.000000 0.000000
# 2 0.016109 -0.009697 -0.000123 0.000000 0.000000 0.000000
# 3 -0.000126 -0.000123 0.014234 0.000000 0.000000 0.000000
# 4 0.000000 0.000000 0.000000 0.041841 0.000000 0.000000
# 5 0.000000 0.000000 0.000000 0.000000 0.041834 0.000000
# 6 0.000000 0.000000 0.000000 0.000000 0.000000 0.042976
#
#
# Mechanical properties :
#
#
# Convention : Reuss Voigt Hill
#
# Bulk Modulus (GPa) = 37.65646 43.09555 40.37601
# Shear Modulus (GPa) = 50.69946 20.04465 35.37205
#
# Velocity S-wave (km/s) = 4.88409 3.07101 4.07955
# Velocity P-wave (km/s) = 7.03728 5.73162 6.41774
#
# Compressibility (1/GPa) = 0.02655586
#
# Stress axis : x y z
#
# Youngs Moduli (GPa) = -103.08177 -103.12818 70.25270
#
# Poissons Ratio (x) = 1.66128 0.00888
# Poissons Ratio (y) = 1.66053 0.00863
# Poissons Ratio (z) = -0.01303 -0.01267
#
# Static dielectric constant tensor:
#      x y z
#    x 4.271600 0.000000 0.000000 
#    y 0.000000 4.271540 0.000000 
#    z 0.000000 0.000000 3.766650 
# 
# 
# High freq. dielectric constant tensor:
#      x y z
#    x 1.837000 0.000000 0.000000 
#    y 0.000000 1.837000 0.000000 
#    z 0.000000 0.000000 1.832430 
# 
# From -- ./inp_files/460.got.cif
#   From: 2010.03.12/outbox.cif.g09.slc.cpg/sg96_1_cif.got.tgz:460.got - 2010.04.08 20:56:49.
