data_PCOD8305025
_publ_section_title
;
Structure prediction by ZEFSAII (Michael W. Deem and Ramdas Pophale) SiO2 
 PCOD8305025
Probable space group: P 41 2 2
;
_chemical_formula_sum "Si O2"
_cell_formula_units_Z 40
_cell_length_a 13.743298
_cell_length_b 13.743298
_cell_length_c 9.287608
_cell_angle_alpha 90.000000
_cell_angle_beta 90.000000
_cell_angle_gamma 90.000000
_cell_volume 1754.227052
_symmetry_space_group_name_H-M "P 41 2 2"
_symmetry_group_IT_number 91
_symmetry_cell_setting 'tetragonal'
loop_
_space_group_symop_operation_xyz
x,y,z
-y,x,1/4+z
-x,-y,1/2+z
y,-x,3/4+z
x,-y,1/2-z
-x,y,-z
y,x,3/4-z
-y,-x,1/4-z
loop_
_atom_site_type_symbol
_atom_site_label
_atom_site_fract_x
_atom_site_fract_y
_atom_site_fract_z
Si Si1 0.247533 0.515038 0.910372
Si Si2 0.834507 0.160567 0.957304
Si Si3 0.056091 0.206679 0.303882
Si Si4 0.410915 0.135994 0.416542
Si Si5 0.657464 0.707028 0.138810
O O1 0.206345 0.500000 0.750000
O O2 0.334443 0.594377 0.906439
O O3 0.159266 0.554743 0.005832
O O4 0.285993 0.412866 0.973126
O O5 0.929144 0.199139 0.870096
O O6 0.745772 0.234518 0.929449
O O7 0.816416 0.052417 0.894545
O O8 0.853437 0.146564 0.125000
O O9 0.137046 0.137046 0.375000
O O10 0.068324 0.318188 0.348579
O O11 0.500000 0.082553 0.500000
O O12 0.385740 0.235136 0.503107
#
# Coordination Sequence:
#
# PCOD8305025 Si02
#       5
#     8   8   8   8   8
#     4  11  20  36  61  90 123 161 203 254 312 372
#     4  11  23  41  63  92 127 164 210 268 325 384
#     4  11  23  39  64  94 126 167 214 264 326 394
#     4   9  20  40  63  89 124 167 210 255 314 382
#     4  10  22  40  61  87 124 165 206 255 314 382
#
# _framework density 22.802064999999999
#
# number of rings (size 3 to 8) (size 9 to 14) (size 15 to 20)
#    0.000    1.600    0.000    6.000    0.000    2.400 
#    0.000   14.000    0.000    9.600    0.000    0.000 
#    0.000    0.000    0.000    0.000    0.000    0.000 
#
# Total GULP energy -495940.615831 kJ/mol
# GULP energy per Si atom -12398.515396 kJ/mol
# Density = 2.275017 g / cm^3
# Si number density = 22.802065 Si / 1000 Ang^3
#
#
#
# Elastic Constant Matrix: (Units=GPa)
#
#
# Indices 1 2 3 4 5 6 
#
# 1 129.6628 35.7292 13.0709 0.0000 0.0000 0.0000
# 2 35.7292 129.6628 13.0709 0.0000 0.0000 0.0000
# 3 13.0709 13.0709 98.8550 0.0000 0.0000 0.0000
# 4 0.0000 0.0000 0.0000 28.5434 0.0000 0.0000
# 5 0.0000 0.0000 0.0000 0.0000 28.5434 0.0000
# 6 0.0000 0.0000 0.0000 0.0000 0.0000 15.2217
#
#
#
# Elastic Compliance Matrix: (Units=1/GPa)
#
#
# Indices 1 2 3 4 5 6 
#
# 1 0.008411 -0.002235 -0.000817 0.000000 0.000000 0.000000
# 2 -0.002235 0.008411 -0.000817 0.000000 0.000000 0.000000
# 3 -0.000817 -0.000817 0.010332 0.000000 0.000000 0.000000
# 4 0.000000 0.000000 0.000000 0.035034 0.000000 0.000000
# 5 0.000000 0.000000 0.000000 0.000000 0.035034 0.000000
# 6 0.000000 0.000000 0.000000 0.000000 0.000000 0.065695
#
#
# Mechanical properties :
#
#
# Convention : Reuss Voigt Hill
#
# Bulk Modulus (GPa) = 51.50315 53.54695 52.52505
# Shear Modulus (GPa) = 28.22854 34.21569 31.22211
#
# Velocity S-wave (km/s) = 3.52231 3.87790 3.70438
# Velocity P-wave (km/s) = 6.25926 6.60191 6.43286
#
# Compressibility (1/GPa) = 0.01941629
#
# Stress axis : x y z
#
# Youngs Moduli (GPa) = 118.89819 118.89817 96.78896
#
# Poissons Ratio (x) = 0.26577 0.07903
# Poissons Ratio (y) = 0.26577 0.07903
# Poissons Ratio (z) = 0.09708 0.09708
#
# Static dielectric constant tensor:
#      x y z
#    x 4.014530 0.000000 0.000000 
#    y 0.000000 4.014530 0.000000 
#    z 0.000000 0.000000 4.374220 
# 
# 
# High freq. dielectric constant tensor:
#      x y z
#    x 1.887230 0.000000 0.000000 
#    y 0.000000 1.887230 0.000000 
#    z 0.000000 0.000000 1.925610 
# 
# From -- ./inp_files/19401.got.cif
#   From: 2010.03.12/outbox.cif.g09.slc.cpg/sg91_10_cif.got.tgz:19401.got - 2010.04.08 20:27:58.
