data_PCOD8305731
_publ_section_title
;
Structure prediction by ZEFSAII (Michael W. Deem and Ramdas Pophale) SiO2 
 PCOD8305731
Probable space group: P 42 21 2
;
_chemical_formula_sum "Si O2"
_cell_formula_units_Z 54
_cell_length_a 14.474324
_cell_length_b 14.474324
_cell_length_c 12.468711
_cell_angle_alpha 90.000000
_cell_angle_beta 90.000000
_cell_angle_gamma 90.000000
_cell_volume 2612.270456
_symmetry_space_group_name_H-M "P 42 21 2"
_symmetry_group_IT_number 94
_symmetry_cell_setting 'tetragonal'
loop_
_space_group_symop_operation_xyz
x,y,z
1/2-y,1/2+x,1/2+z
-x,-y,z
1/2+y,1/2-x,1/2+z
1/2+x,1/2-y,1/2-z
1/2-x,1/2+y,1/2-z
y,x,-z
-y,-x,-z
loop_
_atom_site_type_symbol
_atom_site_label
_atom_site_fract_x
_atom_site_fract_y
_atom_site_fract_z
Si Si1 0.362583 0.506226 0.314601
Si Si2 0.040286 0.680435 0.885986
Si Si3 0.574996 0.306114 0.233170
Si Si4 0.910405 0.061385 0.615237
Si Si5 0.546563 0.823689 0.366372
Si Si6 0.500000 0.500000 0.500000
Si Si7 0.759398 0.246243 0.879145
Si Si8 0.000000 0.500000 0.758842
O O1 0.253498 0.532151 0.334124
O O2 0.423829 0.594932 0.287927
O O3 0.370782 0.430596 0.217131
O O4 0.408298 0.482035 0.428640
O O5 0.131387 0.742851 0.868371
O O6 0.045746 0.580645 0.830595
O O7 0.022440 0.661431 0.009995
O O8 0.500400 0.318072 0.136976
O O9 0.539678 0.230385 0.316364
O O10 0.678381 0.287078 0.196071
O O11 0.888820 0.111181 0.500000
O O12 0.000000 0.000000 0.597776
O O13 0.643405 0.771682 0.345641
O O14 0.550913 0.924004 0.312625
O O15 0.729543 0.270458 0.000000
#
# Coordination Sequence:
#
# PCOD8305731 Si02
#       8
#     8   8   8   8   8   2   8   4
#     4  11  22  35  64  96 129 167 209 271 334 400
#     4  11  24  43  67  95 130 174 223 273 336 400
#     4  11  20  40  62  95 127 168 216 267 333 393
#     4   9  19  34  55  91 132 166 204 261 331 396
#     4  11  24  43  68  94 133 171 226 278 322 405
#     4  12  20  36  58 104 132 164 212 270 348 396
#     4  10  23  38  65  95 123 170 220 267 325 397
#     4  12  24  48  64  94 130 180 228 272 336 394
#
# _framework density 20.671672000000001
#
# number of rings (size 3 to 8) (size 9 to 14) (size 15 to 20)
#    0.000    1.333    3.704    3.111    7.259    0.000 
#    0.000    0.000    0.000    0.000    0.000    0.000 
#    0.000    0.000    0.000    0.000    0.000    0.000 
#
# Total GULP energy -669162.248357 kJ/mol
# GULP energy per Si atom -12391.893488 kJ/mol
# Density = 2.062462 g / cm^3
# Si number density = 20.671672 Si / 1000 Ang^3
#
#
#
# Elastic Constant Matrix: (Units=GPa)
#
#
# Indices 1 2 3 4 5 6 
#
# 1 85.6421 26.1691 42.1091 0.0000 0.0000 0.0000
# 2 26.1691 85.6417 42.1089 0.0000 0.0000 0.0000
# 3 42.1091 42.1089 139.4220 0.0000 0.0000 0.0000
# 4 0.0000 0.0000 0.0000 24.6852 0.0000 0.0000
# 5 0.0000 0.0000 0.0000 0.0000 24.6854 0.0000
# 6 0.0000 0.0000 0.0000 0.0000 0.0000 31.7475
#
#
#
# Elastic Compliance Matrix: (Units=1/GPa)
#
#
# Indices 1 2 3 4 5 6 
#
# 1 0.014196 -0.002618 -0.003497 0.000000 0.000000 0.000000
# 2 -0.002618 0.014196 -0.003497 0.000000 0.000000 0.000000
# 3 -0.003497 -0.003497 0.009285 0.000000 0.000000 0.000000
# 4 0.000000 0.000000 0.000000 0.040510 0.000000 0.000000
# 5 0.000000 0.000000 0.000000 0.000000 0.040510 0.000000
# 6 0.000000 0.000000 0.000000 0.000000 0.000000 0.031499
#
#
# Mechanical properties :
#
#
# Convention : Reuss Voigt Hill
#
# Bulk Modulus (GPa) = 54.19237 59.05332 56.62285
# Shear Modulus (GPa) = 28.47876 29.57821 29.02849
#
# Velocity S-wave (km/s) = 3.71573 3.78677 3.75142
# Velocity P-wave (km/s) = 6.68442 6.91005 6.79817
#
# Compressibility (1/GPa) = 0.01845278
#
# Stress axis : x y z
#
# Youngs Moduli (GPa) = 70.44298 70.44265 107.70481
#
# Poissons Ratio (x) = 0.18445 0.37661
# Poissons Ratio (y) = 0.18445 0.37661
# Poissons Ratio (z) = 0.24632 0.24632
#
# Static dielectric constant tensor:
#      x y z
#    x 3.637730 0.000000 0.000000 
#    y 0.000000 3.637730 0.000000 
#    z 0.000000 0.000000 4.053440 
# 
# 
# High freq. dielectric constant tensor:
#      x y z
#    x 1.799240 0.000000 0.000000 
#    y 0.000000 1.799240 0.000000 
#    z 0.000000 0.000000 1.820190 
# 
# From -- ./inp_files/2751.got.cif
#   From: 2010.03.12/outbox.cif.g09.slc.cpg/sg94_2_cif.got.tgz:2751.got - 2010.04.08 20:48:32.
