data_PCOD8305066
_publ_section_title
;
Structure prediction by ZEFSAII (Michael W. Deem and Ramdas Pophale) SiO2 
 PCOD8305066
Probable space group: P 41 2 2
;
_chemical_formula_sum "Si O2"
_cell_formula_units_Z 40
_cell_length_a 8.336422
_cell_length_b 8.336422
_cell_length_c 24.529658
_cell_angle_alpha 90.000000
_cell_angle_beta 90.000000
_cell_angle_gamma 90.000000
_cell_volume 1704.711439
_symmetry_space_group_name_H-M "P 41 2 2"
_symmetry_group_IT_number 91
_symmetry_cell_setting 'tetragonal'
loop_
_space_group_symop_operation_xyz
x,y,z
-y,x,1/4+z
-x,-y,1/2+z
y,-x,3/4+z
x,-y,1/2-z
-x,y,-z
y,x,3/4-z
-y,-x,1/4-z
loop_
_atom_site_type_symbol
_atom_site_label
_atom_site_fract_x
_atom_site_fract_y
_atom_site_fract_z
Si Si1 0.623747 0.623747 0.375000
Si Si2 0.273118 0.736917 0.031882
Si Si3 0.258565 0.177471 0.965644
Si Si4 0.000000 0.053050 0.500000
Si Si5 0.376834 0.719128 0.822234
Si Si6 0.121052 0.419902 0.177784
O O1 0.743567 0.670025 0.425018
O O2 0.645761 0.443300 0.355726
O O3 0.263190 0.548810 0.043519
O O4 0.394399 0.824678 0.073524
O O5 0.104991 0.830196 0.038670
O O6 0.329994 0.758412 0.969316
O O7 0.103731 0.062766 0.960567
O O8 0.407882 0.063023 0.948170
O O9 0.272550 0.238607 0.027285
O O10 0.352517 0.861133 0.866297
#
# Coordination Sequence:
#
# PCOD8305066 Si02
#       6
#     4   8   8   4   8   8
#     4  12  26  44  72 116 136 194 260 322 374 458
#     4  10  22  47  72 103 148 192 258 299 367 466
#     4  11  28  47  73 110 154 191 247 326 384 450
#     4  10  26  50  68 102 154 198 236 310 382 460
#     4  12  24  47  79 107 146 203 257 313 381 459
#     4  10  23  47  71 110 142 195 253 312 386 444
#
# _framework density 23.464379000000001
#
# number of rings (size 3 to 8) (size 9 to 14) (size 15 to 20)
#    0.000    1.200    2.000    1.800   16.800    0.800 
#   10.800    2.000    0.000    0.000    0.000    0.000 
#    0.000    0.000    0.000    0.000    0.000    0.000 
#
# Total GULP energy -495855.597119 kJ/mol
# GULP energy per Si atom -12396.389928 kJ/mol
# Density = 2.341097 g / cm^3
# Si number density = 23.464379 Si / 1000 Ang^3
#
#
#
# Elastic Constant Matrix: (Units=GPa)
#
#
# Indices 1 2 3 4 5 6 
#
# 1 124.5046 64.6808 49.5107 0.0000 0.0000 0.0000
# 2 64.6808 124.5046 49.5107 0.0000 0.0000 0.0000
# 3 49.5107 49.5107 161.0258 0.0000 0.0000 0.0000
# 4 0.0000 0.0000 0.0000 28.9972 0.0000 0.0000
# 5 0.0000 0.0000 0.0000 0.0000 28.9972 0.0000
# 6 0.0000 0.0000 0.0000 0.0000 0.0000 41.7740
#
#
#
# Elastic Compliance Matrix: (Units=1/GPa)
#
#
# Indices 1 2 3 4 5 6 
#
# 1 0.011508 -0.005208 -0.001937 0.000000 0.000000 0.000000
# 2 -0.005208 0.011508 -0.001937 0.000000 0.000000 0.000000
# 3 -0.001937 -0.001937 0.007401 0.000000 0.000000 0.000000
# 4 0.000000 0.000000 0.000000 0.034486 0.000000 0.000000
# 5 0.000000 0.000000 0.000000 0.000000 0.034486 0.000000
# 6 0.000000 0.000000 0.000000 0.000000 0.000000 0.023938
#
#
# Mechanical properties :
#
#
# Convention : Reuss Voigt Hill
#
# Bulk Modulus (GPa) = 81.61423 81.93768 81.77595
# Shear Modulus (GPa) = 34.34647 36.37588 35.36117
#
# Velocity S-wave (km/s) = 3.83008 3.94160 3.88624
# Velocity P-wave (km/s) = 7.37679 7.46397 7.42051
#
# Compressibility (1/GPa) = 0.01225277
#
# Stress axis : x y z
#
# Youngs Moduli (GPa) = 86.89836 86.89836 135.11150
#
# Poissons Ratio (x) = 0.45257 0.26170
# Poissons Ratio (y) = 0.45257 0.26170
# Poissons Ratio (z) = 0.16832 0.16832
#
# Static dielectric constant tensor:
#      x y z
#    x 4.354880 0.000000 0.000000 
#    y 0.000000 4.354880 0.000000 
#    z 0.000000 0.000000 4.298640 
# 
# 
# High freq. dielectric constant tensor:
#      x y z
#    x 1.928260 0.000000 0.000000 
#    y 0.000000 1.928260 0.000000 
#    z 0.000000 0.000000 1.923860 
# 
# From -- ./inp_files/12771.got.cif
#   From: 2010.03.12/outbox.cif.g09.slc.cpg/sg91_7_cif.got.tgz:12771.got - 2010.04.08 20:27:58.
