data_PCOD8305687
_publ_section_title
;
Structure prediction by ZEFSAII (Michael W. Deem and Ramdas Pophale) SiO2 
 PCOD8305687
Probable space group: P 42 21 2
;
_chemical_formula_sum "Si O2"
_cell_formula_units_Z 48
_cell_length_a 8.612323
_cell_length_b 8.612323
_cell_length_c 31.440627
_cell_angle_alpha 90.000000
_cell_angle_beta 90.000000
_cell_angle_gamma 90.000000
_cell_volume 2332.017564
_symmetry_space_group_name_H-M "P 42 21 2"
_symmetry_group_IT_number 94
_symmetry_cell_setting 'tetragonal'
loop_
_space_group_symop_operation_xyz
x,y,z
1/2-y,1/2+x,1/2+z
-x,-y,z
1/2+y,1/2-x,1/2+z
1/2+x,1/2-y,1/2-z
1/2-x,1/2+y,1/2-z
y,x,-z
-y,-x,-z
loop_
_atom_site_type_symbol
_atom_site_label
_atom_site_fract_x
_atom_site_fract_y
_atom_site_fract_z
Si Si1 0.247978 0.291214 0.450810
Si Si2 0.000000 0.000000 0.907985
Si Si3 0.134262 0.209986 0.705012
Si Si4 0.751386 0.804115 0.134511
Si Si5 0.500000 0.000000 0.586670
Si Si6 0.213782 0.870698 0.720271
Si Si7 0.681497 0.965433 0.384328
O O1 0.253011 0.253011 0.500000
O O2 0.382270 0.411542 0.438668
O O3 0.265669 0.129923 0.425489
O O4 0.082333 0.371068 0.442441
O O5 0.127167 0.080976 0.877733
O O6 0.211277 0.343069 0.733763
O O7 0.135569 0.271446 0.656824
O O8 0.963962 0.179046 0.722600
O O9 0.233162 0.051110 0.707502
O O10 0.736052 0.800821 0.185481
O O11 0.729031 0.630212 0.115835
O O12 0.621331 0.915533 0.116538
O O13 0.500000 0.000000 0.384213
#
# Coordination Sequence:
#
# PCOD8305687 Si02
#       7
#     8   4   8   8   4   8   8
#     4  11  24  41  67  97 132 170 222 272 337 399
#     4  10  21  40  64  96 130 174 214 274 325 396
#     4  10  24  39  61  90 127 168 216 267 324 378
#     4  10  22  42  66  93 130 173 217 263 330 385
#     4  10  24  42  64  96 132 166 212 280 326 396
#     4  10  23  40  60  92 127 168 218 268 310 394
#     4  11  23  43  69  93 130 178 217 270 334 405
#
# _framework density 20.583037000000001
#
# number of rings (size 3 to 8) (size 9 to 14) (size 15 to 20)
#    0.000    1.667    1.667    1.250    5.833    7.333 
#    0.000    1.667    0.000    0.000    0.000    0.000 
#    0.000    0.000    0.000    0.000    0.000    0.000 
#
# Total GULP energy -595432.635715 kJ/mol
# GULP energy per Si atom -12404.846577 kJ/mol
# Density = 2.053619 g / cm^3
# Si number density = 20.583037 Si / 1000 Ang^3
#
#
#
# Elastic Constant Matrix: (Units=GPa)
#
#
# Indices 1 2 3 4 5 6 
#
# 1 82.1434 23.6568 50.4267 0.0000 0.0000 0.0000
# 2 23.6568 82.1434 50.4267 0.0000 0.0000 0.0000
# 3 50.4267 50.4267 150.7228 0.0000 0.0000 0.0000
# 4 0.0000 0.0000 0.0000 25.3837 0.0000 0.0000
# 5 0.0000 0.0000 0.0000 0.0000 25.3837 0.0000
# 6 0.0000 0.0000 0.0000 0.0000 0.0000 37.3665
#
#
#
# Elastic Compliance Matrix: (Units=1/GPa)
#
#
# Indices 1 2 3 4 5 6 
#
# 1 0.015488 -0.001610 -0.004643 0.000000 0.000000 0.000000
# 2 -0.001610 0.015488 -0.004643 0.000000 0.000000 0.000000
# 3 -0.004643 -0.004643 0.009741 0.000000 0.000000 0.000000
# 4 0.000000 0.000000 0.000000 0.039395 0.000000 0.000000
# 5 0.000000 0.000000 0.000000 0.000000 0.039395 0.000000
# 6 0.000000 0.000000 0.000000 0.000000 0.000000 0.026762
#
#
# Mechanical properties :
#
#
# Convention : Reuss Voigt Hill
#
# Bulk Modulus (GPa) = 52.84059 62.67002 57.75530
# Shear Modulus (GPa) = 28.67459 30.32672 29.50066
#
# Velocity S-wave (km/s) = 3.73650 3.84263 3.78994
# Velocity P-wave (km/s) = 6.65904 7.08529 6.87547
#
# Compressibility (1/GPa) = 0.01892485
#
# Stress axis : x y z
#
# Youngs Moduli (GPa) = 64.56692 64.56692 102.65387
#
# Poissons Ratio (x) = 0.10396 0.47662
# Poissons Ratio (y) = 0.10396 0.47662
# Poissons Ratio (z) = 0.29978 0.29978
#
# Static dielectric constant tensor:
#      x y z
#    x 3.940440 0.000000 0.000000 
#    y 0.000000 3.940440 0.000000 
#    z 0.000000 0.000000 3.531090 
# 
# 
# High freq. dielectric constant tensor:
#      x y z
#    x 1.814360 0.000000 0.000000 
#    y 0.000000 1.814360 0.000000 
#    z 0.000000 0.000000 1.795730 
# 
# From -- ./inp_files/5663.got.cif
#   From: 2010.03.12/outbox.cif.g09.slc.cpg/sg94_3_cif.got.tgz:5663.got - 2010.04.08 20:48:32.
