data_PCOD8305850
_publ_section_title
;
Structure prediction by ZEFSAII (Michael W. Deem and Ramdas Pophale) SiO2 
 PCOD8305850
Probable space group: P 43 2 2
;
_chemical_formula_sum "Si O2"
_cell_formula_units_Z 40
_cell_length_a 17.574115
_cell_length_b 17.574115
_cell_length_c 6.327754
_cell_angle_alpha 90.000000
_cell_angle_beta 90.000000
_cell_angle_gamma 90.000000
_cell_volume 1954.323773
_symmetry_space_group_name_H-M "P 43 2 2"
_symmetry_group_IT_number 95
_symmetry_cell_setting 'tetragonal'
loop_
_space_group_symop_operation_xyz
x,y,z
-y,x,3/4+z
-x,-y,1/2+z
y,-x,1/4+z
x,-y,1/2-z
-x,y,-z
y,x,1/4-z
-y,-x,3/4-z
loop_
_atom_site_type_symbol
_atom_site_label
_atom_site_fract_x
_atom_site_fract_y
_atom_site_fract_z
Si Si1 0.174629 0.669782 0.191994
Si Si2 0.576428 0.923327 0.127030
Si Si3 0.584493 0.681391 0.487415
Si Si4 0.275089 0.920650 0.161560
Si Si5 0.577931 0.577931 0.125000
Si Si6 0.803349 0.196652 0.375000
O O1 0.249684 0.638244 0.303550
O O2 0.125684 0.705053 0.378801
O O3 0.136179 0.601542 0.057949
O O4 0.201921 0.735242 0.037103
O O5 0.555523 0.000000 0.250000
O O6 0.500000 0.896530 0.000000
O O7 0.647408 0.935520 0.969022
O O8 0.500000 0.711278 0.500000
O O9 0.606670 0.606670 0.625000
O O10 0.588295 0.655508 0.249047
O O11 0.241464 0.000000 0.250000
O O12 0.209266 0.881339 0.013487
O O13 0.580269 0.500000 0.250000
#
# Coordination Sequence:
#
# PCOD8305850 Si02
#       6
#     8   8   8   8   4   4
#     4  11  25  43  63  96 136 172 216 274 338 395
#     4  11  24  39  63  96 133 181 228 271 328 402
#     4  12  25  40  61  85 117 164 217 276 332 383
#     4  11  22  42  69  96 137 178 222 272 331 407
#     4  12  23  42  62  82 112 162 228 281 332 382
#     4  10  23  42  66  98 138 170 218 267 322 408
#
# _framework density 20.467437
#
# number of rings (size 3 to 8) (size 9 to 14) (size 15 to 20)
#    0.000    0.800    4.000    3.600    2.800    2.400 
#    0.000    0.000    0.000    0.000    0.000    0.000 
#   42.000    0.000    0.000    0.000    0.000    0.000 
#
# Total GULP energy -495553.556927 kJ/mol
# GULP energy per Si atom -12388.838923 kJ/mol
# Density = 2.042085 g / cm^3
# Si number density = 20.467437 Si / 1000 Ang^3
#
#
#
# Elastic Constant Matrix: (Units=GPa)
#
#
# Indices 1 2 3 4 5 6 
#
# 1 104.1657 60.3352 50.2737 0.0000 0.0000 0.0000
# 2 60.3352 104.1657 50.2738 0.0000 0.0000 0.0000
# 3 50.2737 50.2738 119.1319 0.0000 0.0000 0.0000
# 4 0.0000 0.0000 0.0000 39.3960 0.0000 0.0000
# 5 0.0000 0.0000 0.0000 0.0000 39.3958 0.0000
# 6 0.0000 0.0000 0.0000 0.0000 0.0000 29.3850
#
#
#
# Elastic Compliance Matrix: (Units=1/GPa)
#
#
# Indices 1 2 3 4 5 6 
#
# 1 0.015504 -0.007312 -0.003457 0.000000 0.000000 0.000000
# 2 -0.007312 0.015504 -0.003457 0.000000 0.000000 0.000000
# 3 -0.003457 -0.003457 0.011312 0.000000 0.000000 0.000000
# 4 0.000000 0.000000 0.000000 0.025383 0.000000 0.000000
# 5 0.000000 0.000000 0.000000 0.000000 0.025383 0.000000
# 6 0.000000 0.000000 0.000000 0.000000 0.000000 0.034031
#
#
# Mechanical properties :
#
#
# Convention : Reuss Voigt Hill
#
# Bulk Modulus (GPa) = 72.11001 72.13652 72.12327
# Shear Modulus (GPa) = 31.21281 32.74072 31.97676
#
# Velocity S-wave (km/s) = 3.90936 4.00390 3.95691
# Velocity P-wave (km/s) = 7.46227 7.52967 7.49605
#
# Compressibility (1/GPa) = 0.01386770
#
# Stress axis : x y z
#
# Youngs Moduli (GPa) = 64.50110 64.50113 88.40326
#
# Poissons Ratio (x) = 0.47160 0.30561
# Poissons Ratio (y) = 0.47160 0.30561
# Poissons Ratio (z) = 0.22298 0.22298
#
# Static dielectric constant tensor:
#      x y z
#    x 3.662950 0.000000 0.000000 
#    y 0.000000 3.662950 0.000000 
#    z 0.000000 0.000000 4.222610 
# 
# 
# High freq. dielectric constant tensor:
#      x y z
#    x 1.791290 0.000000 0.000000 
#    y 0.000000 1.791290 0.000000 
#    z 0.000000 0.000000 1.824360 
# 
# From -- ./inp_files/862.got.cif
#   From: 2010.03.12/outbox.cif.g09.slc.cpg/sg95_1_cif.got.tgz:862.got - 2010.04.08 20:51:55.
