data_PCOD8305868
_publ_section_title
;
Structure prediction by ZEFSAII (Michael W. Deem and Ramdas Pophale) SiO2 
 PCOD8305868
Probable space group: P 43 2 2
;
_chemical_formula_sum "Si O2"
_cell_formula_units_Z 36
_cell_length_a 12.076935
_cell_length_b 12.076935
_cell_length_c 10.232400
_cell_angle_alpha 90.000000
_cell_angle_beta 90.000000
_cell_angle_gamma 90.000000
_cell_volume 1492.419678
_symmetry_space_group_name_H-M "P 43 2 2"
_symmetry_group_IT_number 95
_symmetry_cell_setting 'tetragonal'
loop_
_space_group_symop_operation_xyz
x,y,z
-y,x,3/4+z
-x,-y,1/2+z
y,-x,1/4+z
x,-y,1/2-z
-x,y,-z
y,x,1/4-z
-y,-x,3/4-z
loop_
_atom_site_type_symbol
_atom_site_label
_atom_site_fract_x
_atom_site_fract_y
_atom_site_fract_z
Si Si1 0.620008 0.712476 0.971238
Si Si2 0.751587 0.891676 0.523196
Si Si3 0.158153 0.500000 0.250000
Si Si4 0.524097 0.666084 0.712927
Si Si5 0.184036 0.868364 0.015409
O O1 0.624744 0.689499 0.813779
O O2 0.641300 0.591690 0.038003
O O3 0.500000 0.761424 0.000000
O O4 0.701949 0.806405 0.018511
O O5 0.795872 0.795872 0.625000
O O6 0.617846 0.905889 0.511553
O O7 0.797215 0.876821 0.376103
O O8 0.796026 0.009685 0.574202
O O9 0.226545 0.496406 0.381563
O O10 0.560867 0.560867 0.625000
O O11 0.120960 0.879041 0.875000
#
# Coordination Sequence:
#
# PCOD8305868 Si02
#       5
#     8   8   4   8   8
#     4  12  24  38  64 104 146 190 243 296 366 450
#     4  12  28  52  80 110 149 201 257 315 382 458
#     4  12  24  44  72 108 152 190 240 310 380 456
#     4  12  20  39  66  98 148 199 238 289 364 459
#     4  12  27  51  75 111 148 196 259 321 382 440
#
# _framework density 24.121901000000001
#
# number of rings (size 3 to 8) (size 9 to 14) (size 15 to 20)
#    0.000    0.000    4.444    6.667    1.556    2.667 
#    0.000    2.222    0.000    0.000    0.000    0.000 
#    0.000    0.000    0.000    0.000    0.000    0.000 
#
# Total GULP energy -446169.291015 kJ/mol
# GULP energy per Si atom -12393.591417 kJ/mol
# Density = 2.406700 g / cm^3
# Si number density = 24.121901 Si / 1000 Ang^3
#
#
#
# Elastic Constant Matrix: (Units=GPa)
#
#
# Indices 1 2 3 4 5 6 
#
# 1 121.4557 27.2989 16.1560 0.0000 0.0000 0.0000
# 2 27.2989 121.4553 16.1558 0.0000 0.0000 0.0000
# 3 16.1560 16.1558 114.9802 0.0000 0.0000 0.0000
# 4 0.0000 0.0000 0.0000 29.0633 0.0000 0.0000
# 5 0.0000 0.0000 0.0000 0.0000 29.0633 0.0000
# 6 0.0000 0.0000 0.0000 0.0000 0.0000 24.3956
#
#
#
# Elastic Compliance Matrix: (Units=1/GPa)
#
#
# Indices 1 2 3 4 5 6 
#
# 1 0.008777 -0.001843 -0.000974 0.000000 0.000000 0.000000
# 2 -0.001843 0.008777 -0.000974 0.000000 0.000000 0.000000
# 3 -0.000974 -0.000974 0.008971 0.000000 0.000000 0.000000
# 4 0.000000 0.000000 0.000000 0.034408 0.000000 0.000000
# 5 0.000000 0.000000 0.000000 0.000000 0.034408 0.000000
# 6 0.000000 0.000000 0.000000 0.000000 0.000000 0.040991
#
#
# Mechanical properties :
#
#
# Convention : Reuss Voigt Hill
#
# Bulk Modulus (GPa) = 52.79291 53.01253 52.90272
# Shear Modulus (GPa) = 33.28233 36.38978 34.83606
#
# Velocity S-wave (km/s) = 3.71854 3.88826 3.80434
# Velocity P-wave (km/s) = 6.35375 6.49482 6.42467
#
# Compressibility (1/GPa) = 0.01894194
#
# Stress axis : x y z
#
# Youngs Moduli (GPa) = 113.92954 113.92923 111.47084
#
# Poissons Ratio (x) = 0.21000 0.10861
# Poissons Ratio (y) = 0.21000 0.10861
# Poissons Ratio (z) = 0.11100 0.11100
#
# Static dielectric constant tensor:
#      x y z
#    x 4.295380 0.000000 0.000000 
#    y 0.000000 4.295380 0.000000 
#    z 0.000000 0.000000 4.683790 
# 
# 
# High freq. dielectric constant tensor:
#      x y z
#    x 1.945030 0.000000 0.000000 
#    y 0.000000 1.945030 0.000000 
#    z 0.000000 0.000000 1.988550 
# 
# From -- ./inp_files/3581.got.cif
#   From: 2010.03.12/outbox.cif.g09.slc.cpg/sg95_2_cif.got.tgz:3581.got - 2010.04.08 20:51:55.
