data_PCOD8305941
_publ_section_title
;
Structure prediction by ZEFSAII (Michael W. Deem and Ramdas Pophale) SiO2 
 PCOD8305941
Probable space group: P 43 21 2
;
_chemical_formula_sum "Si O2"
_cell_formula_units_Z 48
_cell_length_a 13.712174
_cell_length_b 13.712174
_cell_length_c 11.991370
_cell_angle_alpha 90.000000
_cell_angle_beta 90.000000
_cell_angle_gamma 90.000000
_cell_volume 2254.661945
_symmetry_space_group_name_H-M "P 43 21 2"
_symmetry_group_IT_number 96
_symmetry_cell_setting 'tetragonal'
loop_
_space_group_symop_operation_xyz
x,y,z
1/2-y,1/2+x,3/4+z
-x,-y,1/2+z
1/2+y,1/2-x,1/4+z
1/2+x,1/2-y,1/4-z
1/2-x,1/2+y,3/4-z
y,x,-z
-y,-x,1/2-z
loop_
_atom_site_type_symbol
_atom_site_label
_atom_site_fract_x
_atom_site_fract_y
_atom_site_fract_z
Si Si1 0.477437 0.724927 0.927289
Si Si2 0.192527 0.652196 0.766563
Si Si3 0.665786 0.996031 0.127032
Si Si4 0.231509 0.322326 0.608377
Si Si5 0.644011 0.289049 0.007715
Si Si6 0.355137 0.007804 0.387713
O O1 0.419584 0.788670 0.836167
O O2 0.583852 0.695016 0.876889
O O3 0.405911 0.636365 0.965468
O O4 0.510581 0.782093 0.037477
O O5 0.243517 0.756483 0.750000
O O6 0.232056 0.608626 0.882793
O O7 0.077749 0.666857 0.777836
O O8 0.753545 0.922683 0.156696
O O9 0.555942 0.952362 0.117825
O O10 0.691196 0.035465 0.003056
O O11 0.258284 0.258284 0.500000
O O12 0.232961 0.256111 0.719698
O O13 0.123743 0.371656 0.596060
#
# Coordination Sequence:
#
# PCOD8305941 Si02
#       6
#     8   8   8   8   8   8
#     4  10  23  39  61  90 126 171 223 256 331 401
#     4  10  24  43  62  93 131 173 211 270 344 405
#     4  12  22  38  64  94 136 162 221 282 332 398
#     4  11  21  38  62  92 131 169 216 275 328 397
#     4  10  22  39  61  91 125 172 214 270 331 395
#     4  11  22  35  61  98 126 163 215 270 339 386
#
# _framework density 21.289223
#
# number of rings (size 3 to 8) (size 9 to 14) (size 15 to 20)
#    0.000    1.333    5.000    0.000    2.333    4.000 
#    0.000    0.833    0.000    0.000    0.000    0.000 
#    0.000    0.000    0.000    0.000    0.000    0.000 
#
# Total GULP energy -594655.367768 kJ/mol
# GULP energy per Si atom -12388.653495 kJ/mol
# Density = 2.124077 g / cm^3
# Si number density = 21.289223 Si / 1000 Ang^3
#
#
#
# Elastic Constant Matrix: (Units=GPa)
#
#
# Indices 1 2 3 4 5 6 
#
# 1 55.3636 10.9299 16.4649 0.0000 0.0000 0.0000
# 2 10.9299 55.3640 16.4650 0.0000 0.0000 0.0000
# 3 16.4649 16.4650 118.9468 0.0000 0.0000 0.0000
# 4 0.0000 0.0000 0.0000 26.8501 0.0000 0.0000
# 5 0.0000 0.0000 0.0000 0.0000 26.8503 0.0000
# 6 0.0000 0.0000 0.0000 0.0000 0.0000 17.1527
#
#
#
# Elastic Compliance Matrix: (Units=1/GPa)
#
#
# Indices 1 2 3 4 5 6 
#
# 1 0.019352 -0.003154 -0.002242 0.000000 0.000000 0.000000
# 2 -0.003154 0.019352 -0.002242 0.000000 0.000000 0.000000
# 3 -0.002242 -0.002242 0.009028 0.000000 0.000000 0.000000
# 4 0.000000 0.000000 0.000000 0.037244 0.000000 0.000000
# 5 0.000000 0.000000 0.000000 0.000000 0.037243 0.000000
# 6 0.000000 0.000000 0.000000 0.000000 0.000000 0.058300
#
#
# Mechanical properties :
#
#
# Convention : Reuss Voigt Hill
#
# Bulk Modulus (GPa) = 30.81151 35.26599 33.03875
# Shear Modulus (GPa) = 24.19985 26.55827 25.37906
#
# Velocity S-wave (km/s) = 3.37518 3.53583 3.45644
# Velocity P-wave (km/s) = 5.44916 5.76806 5.61088
#
# Compressibility (1/GPa) = 0.03245540
#
# Stress axis : x y z
#
# Youngs Moduli (GPa) = 51.67472 51.67510 110.76820
#
# Poissons Ratio (x) = 0.16296 0.24836
# Poissons Ratio (y) = 0.16296 0.24836
# Poissons Ratio (z) = 0.11586 0.11587
#
# Static dielectric constant tensor:
#      x y z
#    x 3.774370 0.000000 0.000000 
#    y 0.000000 3.774370 0.000000 
#    z 0.000000 0.000000 4.196930 
# 
# 
# High freq. dielectric constant tensor:
#      x y z
#    x 1.811340 0.000000 0.000000 
#    y 0.000000 1.811340 0.000000 
#    z 0.000000 0.000000 1.861170 
# 
# From -- ./inp_files/2189.got.cif
#   From: 2010.03.12/outbox.cif.g09.slc.cpg/sg96_2_cif.got.tgz:2189.got - 2010.04.08 20:56:49.
