data_PCOD8305071
_publ_section_title
;
Structure prediction by ZEFSAII (Michael W. Deem and Ramdas Pophale) SiO2 
 PCOD8305071
Probable space group: P 41 2 2
;
_chemical_formula_sum "Si O2"
_cell_formula_units_Z 40
_cell_length_a 8.510094
_cell_length_b 8.510094
_cell_length_c 23.323788
_cell_angle_alpha 90.000000
_cell_angle_beta 90.000000
_cell_angle_gamma 90.000000
_cell_volume 1689.148375
_symmetry_space_group_name_H-M "P 41 2 2"
_symmetry_group_IT_number 91
_symmetry_cell_setting 'tetragonal'
loop_
_space_group_symop_operation_xyz
x,y,z
-y,x,1/4+z
-x,-y,1/2+z
y,-x,3/4+z
x,-y,1/2-z
-x,y,-z
y,x,3/4-z
-y,-x,1/4-z
loop_
_atom_site_type_symbol
_atom_site_label
_atom_site_fract_x
_atom_site_fract_y
_atom_site_fract_z
Si Si1 0.076092 0.751644 0.084962
Si Si2 0.315586 0.239010 0.224269
Si Si3 0.869587 0.441546 0.858471
Si Si4 0.220505 0.615606 0.676329
Si Si5 0.646213 0.702922 0.215303
O O1 0.090786 0.909215 0.125000
O O2 0.166364 0.619346 0.122995
O O3 0.899440 0.689880 0.073990
O O4 0.171505 0.786990 0.026637
O O5 0.242634 0.393141 0.194527
O O6 0.487944 0.278570 0.246820
O O7 0.836426 0.338299 0.916435
O O8 0.044946 0.430409 0.836983
O O9 0.280120 0.719881 0.625000
O O10 0.336952 0.466174 0.684094
O O11 0.218204 0.715170 0.736114
#
# Coordination Sequence:
#
# PCOD8305071 Si02
#       5
#     8   8   8   8   8
#     4  10  23  41  64  95 130 169 218 275 333 397
#     4  10  23  43  65  93 132 175 217 271 338 403
#     4  11  23  41  66  96 131 173 221 276 339 401
#     4  11  24  42  66  99 134 174 226 277 336 407
#     4  10  23  43  66  93 133 176 220 277 338 403
#
# _framework density 23.680569999999999
#
# number of rings (size 3 to 8) (size 9 to 14) (size 15 to 20)
#    0.000    1.600    0.000    3.600    0.000   18.400 
#    0.000    2.000    0.000    2.400    0.000    0.000 
#    0.000    0.000    0.000    0.000    0.000    0.000 
#
# Total GULP energy -495587.223541 kJ/mol
# GULP energy per Si atom -12389.680589 kJ/mol
# Density = 2.362667 g / cm^3
# Si number density = 23.680570 Si / 1000 Ang^3
#
#
#
# Elastic Constant Matrix: (Units=GPa)
#
#
# Indices 1 2 3 4 5 6 
#
# 1 55.8533 65.2792 49.4092 0.0000 0.0000 0.0000
# 2 65.2792 55.8544 49.4062 0.0000 0.0000 0.0000
# 3 49.4092 49.4062 113.1468 0.0000 0.0000 0.0000
# 4 0.0000 0.0000 0.0000 53.2722 0.0000 0.0000
# 5 0.0000 0.0000 0.0000 0.0000 53.2723 0.0000
# 6 0.0000 0.0000 0.0000 0.0000 0.0000 16.7579
#
#
#
# Elastic Compliance Matrix: (Units=1/GPa)
#
#
# Indices 1 2 3 4 5 6 
#
# 1 -0.046639 0.059460 -0.005597 0.000000 0.000000 0.000000
# 2 0.059460 -0.046634 -0.005602 0.000000 0.000000 0.000000
# 3 -0.005597 -0.005602 0.013728 0.000000 0.000000 0.000000
# 4 0.000000 0.000000 0.000000 0.018772 0.000000 0.000000
# 5 0.000000 0.000000 0.000000 0.000000 0.018771 0.000000
# 6 0.000000 0.000000 0.000000 0.000000 0.000000 0.059673
#
#
# Mechanical properties :
#
#
# Convention : Reuss Voigt Hill
#
# Bulk Modulus (GPa) = 58.90401 61.44931 60.17666
# Shear Modulus (GPa) = -68.31411 28.71115 -19.80148
#
# Velocity S-wave (km/s) = -5.37688 3.48578 -2.89483
# Velocity P-wave (km/s) = 3.69044 6.49665 3.78068
#
# Compressibility (1/GPa) = 0.01697677
#
# Stress axis : x y z
#
# Youngs Moduli (GPa) = -21.44120 -21.44356 72.84204
#
# Poissons Ratio (x) = 1.27503 0.40769
# Poissons Ratio (y) = 1.27489 0.40807
# Poissons Ratio (z) = -0.12001 -0.12013
#
# Static dielectric constant tensor:
#      x y z
#    x 4.072440 0.000000 0.000000 
#    y 0.000000 4.072450 0.000000 
#    z 0.000000 0.000000 4.948590 
# 
# 
# High freq. dielectric constant tensor:
#      x y z
#    x 1.915580 0.000000 0.000000 
#    y 0.000000 1.915580 0.000000 
#    z 0.000000 0.000000 1.975740 
# 
# From -- ./inp_files/17518.got.cif
#   From: 2010.03.12/outbox.cif.g09.slc.cpg/sg91_9_cif.got.tgz:17518.got - 2010.04.08 20:27:58.
