data_PCOD8305935
_publ_section_title
;
Structure prediction by ZEFSAII (Michael W. Deem and Ramdas Pophale) SiO2 
 PCOD8305935
Probable space group: P 43 21 2
;
_chemical_formula_sum "Si O2"
_cell_formula_units_Z 40
_cell_length_a 14.465437
_cell_length_b 14.465437
_cell_length_c 8.242525
_cell_angle_alpha 90.000000
_cell_angle_beta 90.000000
_cell_angle_gamma 90.000000
_cell_volume 1724.739022
_symmetry_space_group_name_H-M "P 43 21 2"
_symmetry_group_IT_number 96
_symmetry_cell_setting 'tetragonal'
loop_
_space_group_symop_operation_xyz
x,y,z
1/2-y,1/2+x,3/4+z
-x,-y,1/2+z
1/2+y,1/2-x,1/4+z
1/2+x,1/2-y,1/4-z
1/2-x,1/2+y,3/4-z
y,x,-z
-y,-x,1/2-z
loop_
_atom_site_type_symbol
_atom_site_label
_atom_site_fract_x
_atom_site_fract_y
_atom_site_fract_z
Si Si1 0.996519 0.612681 0.612001
Si Si2 0.176333 0.823668 0.750000
Si Si3 0.322328 0.677673 0.250000
Si Si4 0.645214 0.781343 0.819093
Si Si5 0.477247 0.522754 0.750000
Si Si6 0.899484 0.100517 0.750000
Si Si7 0.306237 0.529952 0.984876
O O1 0.040044 0.571306 0.776822
O O2 0.074328 0.639257 0.481096
O O3 0.941964 0.706310 0.661182
O O4 0.195521 0.760678 0.591459
O O5 0.072494 0.803163 0.811803
O O6 0.333350 0.779472 0.176022
O O7 0.338873 0.601252 0.116762
O O8 0.590893 0.704101 0.927482
O O9 0.473234 0.428288 0.642125
O O10 0.474937 0.617222 0.651991
#
# Coordination Sequence:
#
# PCOD8305935 Si02
#       7
#     8   4   4   8   4   4   8
#     4  11  27  51  74 103 139 194 250 307 355 426
#     4  10  21  47  73 101 146 188 222 306 368 432
#     4  11  28  43  77 105 144 190 242 302 352 461
#     4  10  25  48  72 105 147 191 240 303 366 435
#     4  12  24  40  72 108 152 190 232 296 366 464
#     4  11  23  44  68 112 148 190 230 296 374 431
#     4  11  27  45  70 111 141 193 235 301 369 439
#
# _framework density 23.191915999999999
#
# number of rings (size 3 to 8) (size 9 to 14) (size 15 to 20)
#    0.000    1.200    4.000    0.600   14.000    0.800 
#    3.600    0.000    0.000    0.000    0.000    0.000 
#    0.000    0.000    0.000    0.000    0.000    0.000 
#
# Total GULP energy -495781.644413 kJ/mol
# GULP energy per Si atom -12394.541110 kJ/mol
# Density = 2.313913 g / cm^3
# Si number density = 23.191916 Si / 1000 Ang^3
#
#
#
# Elastic Constant Matrix: (Units=GPa)
#
#
# Indices 1 2 3 4 5 6 
#
# 1 54.6391 11.7965 30.3046 0.0000 0.0000 0.0000
# 2 11.7965 54.6421 30.3047 0.0000 0.0000 0.0000
# 3 30.3046 30.3047 106.5834 0.0000 0.0000 0.0000
# 4 0.0000 0.0000 0.0000 46.7451 0.0000 0.0000
# 5 0.0000 0.0000 0.0000 0.0000 46.7445 0.0000
# 6 0.0000 0.0000 0.0000 0.0000 0.0000 32.3068
#
#
#
# Elastic Compliance Matrix: (Units=1/GPa)
#
#
# Indices 1 2 3 4 5 6 
#
# 1 0.021833 -0.001508 -0.005779 0.000000 0.000000 0.000000
# 2 -0.001508 0.021831 -0.005778 0.000000 0.000000 0.000000
# 3 -0.005779 -0.005778 0.012668 0.000000 0.000000 0.000000
# 4 0.000000 0.000000 0.000000 0.021393 0.000000 0.000000
# 5 0.000000 0.000000 0.000000 0.000000 0.021393 0.000000
# 6 0.000000 0.000000 0.000000 0.000000 0.000000 0.030953
#
#
# Mechanical properties :
#
#
# Convention : Reuss Voigt Hill
#
# Bulk Modulus (GPa) = 33.11133 40.07514 36.59323
# Shear Modulus (GPa) = 30.07173 34.72320 32.39747
#
# Velocity S-wave (km/s) = 3.60481 3.87358 3.74161
# Velocity P-wave (km/s) = 5.62443 6.10929 5.87187
#
# Compressibility (1/GPa) = 0.03020114
#
# Stress axis : x y z
#
# Youngs Moduli (GPa) = 45.80299 45.80589 78.93706
#
# Poissons Ratio (x) = 0.06910 0.45615
# Poissons Ratio (y) = 0.06909 0.45613
# Poissons Ratio (z) = 0.26468 0.26468
#
# Static dielectric constant tensor:
#      x y z
#    x 4.212730 0.000000 0.000000 
#    y 0.000000 4.212670 0.000000 
#    z 0.000000 0.000000 4.399660 
# 
# 
# High freq. dielectric constant tensor:
#      x y z
#    x 1.910900 0.000000 0.000000 
#    y 0.000000 1.910890 0.000000 
#    z 0.000000 0.000000 1.929770 
# 
# From -- ./inp_files/1395.got.cif
#   From: 2010.03.12/outbox.cif.g09.slc.cpg/sg96_1_cif.got.tgz:1395.got - 2010.04.08 20:56:49.
