data_PCOD8305270
_publ_section_title
;
Structure prediction by ZEFSAII (Michael W. Deem and Ramdas Pophale) SiO2 
 PCOD8305270
Probable space group: P 41 21 2
;
_chemical_formula_sum "Si O2"
_cell_formula_units_Z 40
_cell_length_a 12.020534
_cell_length_b 12.020534
_cell_length_c 14.043869
_cell_angle_alpha 90.000000
_cell_angle_beta 90.000000
_cell_angle_gamma 90.000000
_cell_volume 2029.244101
_symmetry_space_group_name_H-M "P 41 21 2"
_symmetry_group_IT_number 92
_symmetry_cell_setting 'tetragonal'
loop_
_space_group_symop_operation_xyz
x,y,z
1/2-y,1/2+x,1/4+z
-x,-y,1/2+z
1/2+y,1/2-x,3/4+z
1/2+x,1/2-y,3/4-z
1/2-x,1/2+y,1/4-z
y,x,-z
-y,-x,1/2-z
loop_
_atom_site_type_symbol
_atom_site_label
_atom_site_fract_x
_atom_site_fract_y
_atom_site_fract_z
Si Si1 0.148787 0.593912 0.361780
Si Si2 0.327375 0.304034 0.205764
Si Si3 0.662472 0.913143 0.609109
Si Si4 0.595576 0.470850 0.648155
Si Si5 0.092490 0.822168 0.656501
O O1 0.191377 0.700182 0.420289
O O2 0.172166 0.617545 0.251497
O O3 0.210203 0.482242 0.398786
O O4 0.016819 0.578833 0.378035
O O5 0.382510 0.187829 0.173912
O O6 0.407504 0.396126 0.158075
O O7 0.328213 0.321585 0.319007
O O8 0.785794 0.941113 0.648616
O O9 0.589964 0.410037 0.750000
O O10 0.491290 0.427710 0.587676
O O11 0.170359 0.829642 0.750000
#
# Coordination Sequence:
#
# PCOD8305270 Si02
#       5
#     8   8   8   8   8
#     4  11  20  39  64  90 124 168 214 272 327 388
#     4  10  20  37  64  93 125 167 225 272 325 389
#     4  11  20  36  66  95 124 161 224 273 322 378
#     4   9  16  33  60  89 123 157 218 267 319 386
#     4  11  22  39  61  94 131 180 212 264 342 406
#
# _framework density 19.711772
#
# number of rings (size 3 to 8) (size 9 to 14) (size 15 to 20)
#    0.000    1.600    8.000    0.600    0.000    3.200 
#    3.600    0.000    0.000    0.000    0.000    0.000 
#    0.000    0.000    0.000    0.000    0.000    0.000 
#
# Total GULP energy -495742.503459 kJ/mol
# GULP energy per Si atom -12393.562586 kJ/mol
# Density = 1.966691 g / cm^3
# Si number density = 19.711772 Si / 1000 Ang^3
#
#
#
# Elastic Constant Matrix: (Units=GPa)
#
#
# Indices 1 2 3 4 5 6 
#
# 1 101.8040 55.6888 52.5755 0.0000 0.0000 0.0000
# 2 55.6888 101.8054 52.5763 0.0000 0.0000 0.0000
# 3 52.5755 52.5763 120.7743 0.0000 0.0000 0.0000
# 4 0.0000 0.0000 0.0000 25.1204 0.0000 0.0000
# 5 0.0000 0.0000 0.0000 0.0000 25.1202 0.0000
# 6 0.0000 0.0000 0.0000 0.0000 0.0000 21.7242
#
#
#
# Elastic Compliance Matrix: (Units=1/GPa)
#
#
# Indices 1 2 3 4 5 6 
#
# 1 0.015318 -0.006367 -0.003897 0.000000 0.000000 0.000000
# 2 -0.006367 0.015318 -0.003897 0.000000 0.000000 0.000000
# 3 -0.003897 -0.003897 0.011672 0.000000 0.000000 0.000000
# 4 0.000000 0.000000 0.000000 0.039808 0.000000 0.000000
# 5 0.000000 0.000000 0.000000 0.000000 0.039809 0.000000
# 6 0.000000 0.000000 0.000000 0.000000 0.000000 0.046032
#
#
# Mechanical properties :
#
#
# Convention : Reuss Voigt Hill
#
# Bulk Modulus (GPa) = 71.48894 71.78498 71.63696
# Shear Modulus (GPa) = 24.88317 25.29585 25.08951
#
# Velocity S-wave (km/s) = 3.55681 3.58618 3.57153
# Velocity P-wave (km/s) = 7.29478 7.32421 7.30951
#
# Compressibility (1/GPa) = 0.01398818
#
# Stress axis : x y z
#
# Youngs Moduli (GPa) = 65.28328 65.28387 85.67163
#
# Poissons Ratio (x) = 0.41564 0.33383
# Poissons Ratio (y) = 0.41564 0.33383
# Poissons Ratio (z) = 0.25438 0.25439
#
# Static dielectric constant tensor:
#      x y z
#    x 3.655900 0.000000 0.000000 
#    y 0.000000 3.655900 0.000000 
#    z 0.000000 0.000000 3.469940 
# 
# 
# High freq. dielectric constant tensor:
#      x y z
#    x 1.756070 0.000000 0.000000 
#    y 0.000000 1.756070 0.000000 
#    z 0.000000 0.000000 1.754760 
# 
# From -- ./inp_files/2635.got.cif
#   From: 2010.03.12/outbox.cif.g09.slc.cpg/sg92_2_cif.got.tgz:2635.got - 2010.04.08 20:41:11.
