data_PCOD8305531
_publ_section_title
;
Structure prediction by ZEFSAII (Michael W. Deem and Ramdas Pophale) SiO2 
 PCOD8305531
Probable space group: P 42 2 2
;
_chemical_formula_sum "Si O2"
_cell_formula_units_Z 60
_cell_length_a 11.805915
_cell_length_b 11.805915
_cell_length_c 20.474859
_cell_angle_alpha 90.000000
_cell_angle_beta 90.000000
_cell_angle_gamma 90.000000
_cell_volume 2853.778251
_symmetry_space_group_name_H-M "P 42 2 2"
_symmetry_group_IT_number 93
_symmetry_cell_setting 'tetragonal'
loop_
_space_group_symop_operation_xyz
x,y,z
-y,x,1/2+z
-x,-y,z
y,-x,1/2+z
x,-y,-z
-x,y,-z
y,x,1/2-z
-y,-x,1/2-z
loop_
_atom_site_type_symbol
_atom_site_label
_atom_site_fract_x
_atom_site_fract_y
_atom_site_fract_z
Si Si1 0.753138 0.558778 0.179884
Si Si2 0.956485 0.740389 0.307044
Si Si3 0.776725 0.691125 0.821286
Si Si4 0.900443 0.921985 0.088725
Si Si5 0.706881 0.038367 0.661698
Si Si6 0.244219 0.596562 0.668186
Si Si7 0.861865 0.374175 0.382581
Si Si8 0.713314 0.000000 0.000000
O O1 0.721810 0.430279 0.162962
O O2 0.874263 0.602444 0.151205
O O3 0.647217 0.631881 0.152102
O O4 0.762136 0.556857 0.257722
O O5 0.986935 0.856157 0.345307
O O6 0.935411 0.765897 0.231350
O O7 0.839293 0.702323 0.341063
O O8 0.049752 0.641780 0.321894
O O9 0.743517 0.743517 0.750000
O O10 0.728754 0.773114 0.877202
O O11 0.909065 0.668621 0.832677
O O12 0.946324 0.796470 0.103475
O O13 0.795505 0.913798 0.038665
O O14 0.000000 0.000000 0.059718
O O15 0.204997 0.493167 0.621934
O O16 0.927664 0.366661 0.451429
#
# Coordination Sequence:
#
# PCOD8305531 Si02
#       8
#     8   8   8   8   8   8   8   4
#     4  10  21  36  58  90 137 174 207 261 346 411
#     4  10  19  34  55  91 127 162 211 268 336 402
#     4  12  22  36  57  97 131 170 220 270 335 409
#     4  11  22  35  59  86 125 172 222 279 334 395
#     4  11  20  35  58  88 131 174 210 264 339 422
#     4  10  19  36  58  89 131 176 209 261 333 417
#     4  11  22  39  62  89 132 170 225 275 325 398
#     4  10  25  44  59  90 130 182 224 284 332 380
#
# _framework density 21.024760000000001
#
# number of rings (size 3 to 8) (size 9 to 14) (size 15 to 20)
#    0.000    1.333    4.000    3.000    0.000    3.200 
#    0.000    5.333    0.000    0.800    0.000    1.867 
#   12.000    0.000    0.000    0.000    0.000    0.000 
#
# Total GULP energy -743582.210276 kJ/mol
# GULP energy per Si atom -12393.036838 kJ/mol
# Density = 2.097691 g / cm^3
# Si number density = 21.024760 Si / 1000 Ang^3
#
#
#
# Elastic Constant Matrix: (Units=GPa)
#
#
# Indices 1 2 3 4 5 6 
#
# 1 110.0227 23.3860 32.7062 0.0000 0.0000 0.0000
# 2 23.3860 110.0227 32.7062 0.0000 0.0000 0.0000
# 3 32.7062 32.7062 69.2241 0.0000 0.0000 0.0000
# 4 0.0000 0.0000 0.0000 22.7483 0.0000 0.0000
# 5 0.0000 0.0000 0.0000 0.0000 22.7483 0.0000
# 6 0.0000 0.0000 0.0000 0.0000 0.0000 34.5697
#
#
#
# Elastic Compliance Matrix: (Units=1/GPa)
#
#
# Indices 1 2 3 4 5 6 
#
# 1 0.010649 -0.000893 -0.004609 0.000000 0.000000 0.000000
# 2 -0.000893 0.010649 -0.004609 0.000000 0.000000 0.000000
# 3 -0.004609 -0.004609 0.018801 0.000000 0.000000 0.000000
# 4 0.000000 0.000000 0.000000 0.043959 0.000000 0.000000
# 5 0.000000 0.000000 0.000000 0.000000 0.043959 0.000000
# 6 0.000000 0.000000 0.000000 0.000000 0.000000 0.028927
#
#
# Mechanical properties :
#
#
# Convention : Reuss Voigt Hill
#
# Bulk Modulus (GPa) = 50.31272 51.87405 51.09338
# Shear Modulus (GPa) = 27.20430 29.37799 28.29114
#
# Velocity S-wave (km/s) = 3.60101 3.74211 3.67224
# Velocity P-wave (km/s) = 6.42432 6.58768 6.50651
#
# Compressibility (1/GPa) = 0.01987569
#
# Stress axis : x y z
#
# Youngs Moduli (GPa) = 93.90451 93.90451 53.18767
#
# Poissons Ratio (x) = 0.08389 0.24516
# Poissons Ratio (y) = 0.08389 0.24516
# Poissons Ratio (z) = 0.43283 0.43283
#
# Static dielectric constant tensor:
#      x y z
#    x 3.874580 0.000000 0.000000 
#    y 0.000000 3.874580 0.000000 
#    z 0.000000 0.000000 3.503650 
# 
# 
# High freq. dielectric constant tensor:
#      x y z
#    x 1.826760 0.000000 0.000000 
#    y 0.000000 1.826760 0.000000 
#    z 0.000000 0.000000 1.777030 
# 
# From -- ./inp_files/6339.got.cif
#   From: 2010.03.12/outbox.cif.g09.slc.cpg/sg93_4_cif.got.tgz:6339.got - 2010.04.08 20:44:19.
