data_PCOD8305377
_publ_section_title
;
Structure prediction by ZEFSAII (Michael W. Deem and Ramdas Pophale) SiO2 
 PCOD8305377
Probable space group: P 41 21 2
;
_chemical_formula_sum "Si O2"
_cell_formula_units_Z 32
_cell_length_a 8.810681
_cell_length_b 8.810681
_cell_length_c 16.572641
_cell_angle_alpha 90.000000
_cell_angle_beta 90.000000
_cell_angle_gamma 90.000000
_cell_volume 1286.502628
_symmetry_space_group_name_H-M "P 41 21 2"
_symmetry_group_IT_number 92
_symmetry_cell_setting 'tetragonal'
loop_
_space_group_symop_operation_xyz
x,y,z
1/2-y,1/2+x,1/4+z
-x,-y,1/2+z
1/2+y,1/2-x,3/4+z
1/2+x,1/2-y,3/4-z
1/2-x,1/2+y,1/4-z
y,x,-z
-y,-x,1/2-z
loop_
_atom_site_type_symbol
_atom_site_label
_atom_site_fract_x
_atom_site_fract_y
_atom_site_fract_z
Si Si1 0.302401 0.469945 0.649216
Si Si2 0.539489 0.832567 0.135747
Si Si3 0.318604 0.037792 0.060983
Si Si4 0.432288 0.320397 0.165258
O O1 0.376963 0.321808 0.607362
O O2 0.151011 0.521262 0.602660
O O3 0.400139 0.624981 0.642770
O O4 0.265108 0.423928 0.742010
O O5 0.434663 0.804312 0.215100
O O6 0.424985 0.887982 0.067109
O O7 0.376766 0.186335 0.106889
O O8 0.159186 0.979262 0.096394
#
# Coordination Sequence:
#
# PCOD8305377 Si02
#       4
#     8   8   8   8
#     4  10  22  41  65  96 131 172 218 268 327 392
#     4  11  23  40  63  93 129 170 218 268 325 391
#     4  11  23  40  64  94 129 171 216 268 326 388
#     4  10  22  42  66  94 131 171 216 272 328 393
#
# _framework density 24.873636000000001
#
# number of rings (size 3 to 8) (size 9 to 14) (size 15 to 20)
#    0.000    1.500    0.000    4.500    0.000    8.000 
#    0.000    2.500    0.000    0.000    0.000    0.000 
#    0.000    0.000    0.000    0.000    0.000    0.000 
#
# Total GULP energy -396584.780078 kJ/mol
# GULP energy per Si atom -12393.274377 kJ/mol
# Density = 2.481702 g / cm^3
# Si number density = 24.873636 Si / 1000 Ang^3
#
#
#
# Elastic Constant Matrix: (Units=GPa)
#
#
# Indices 1 2 3 4 5 6 
#
# 1 70.2458 -3.9331 21.2285 0.0000 0.0000 0.0000
# 2 -3.9331 70.2458 21.2285 0.0000 0.0000 0.0000
# 3 21.2285 21.2285 44.7532 0.0000 0.0000 0.0000
# 4 0.0000 0.0000 0.0000 40.8389 0.0000 0.0000
# 5 0.0000 0.0000 0.0000 0.0000 40.8389 0.0000
# 6 0.0000 0.0000 0.0000 0.0000 0.0000 35.3003
#
#
#
# Elastic Compliance Matrix: (Units=1/GPa)
#
#
# Indices 1 2 3 4 5 6 
#
# 1 0.017569 0.004088 -0.010273 0.000000 0.000000 0.000000
# 2 0.004088 0.017569 -0.010273 0.000000 0.000000 0.000000
# 3 -0.010273 -0.010273 0.032091 0.000000 0.000000 0.000000
# 4 0.000000 0.000000 0.000000 0.024486 0.000000 0.000000
# 5 0.000000 0.000000 0.000000 0.000000 0.024486 0.000000
# 6 0.000000 0.000000 0.000000 0.000000 0.000000 0.028328
#
#
# Mechanical properties :
#
#
# Convention : Reuss Voigt Hill
#
# Bulk Modulus (GPa) = 29.14328 29.14363 29.14346
# Shear Modulus (GPa) = 26.47123 33.17704 29.82413
#
# Velocity S-wave (km/s) = 3.26579 3.65612 3.46645
# Velocity P-wave (km/s) = 5.09534 5.43737 5.26913
#
# Compressibility (1/GPa) = 0.03431322
#
# Stress axis : x y z
#
# Youngs Moduli (GPa) = 56.91772 56.91772 31.16152
#
# Poissons Ratio (x) = -0.23270 0.32013
# Poissons Ratio (y) = -0.23270 0.32013
# Poissons Ratio (z) = 0.58473 0.58473
#
# Static dielectric constant tensor:
#      x y z
#    x 4.638040 0.000000 0.000000 
#    y 0.000000 4.638040 0.000000 
#    z 0.000000 0.000000 3.991860 
# 
# 
# High freq. dielectric constant tensor:
#      x y z
#    x 2.005340 0.000000 0.000000 
#    y 0.000000 2.005340 0.000000 
#    z 0.000000 0.000000 1.957130 
# 
# From -- ./inp_files/3374.got.cif
#   From: 2010.03.12/outbox.cif.g09.slc.cpg/sg92_2_cif.got.tgz:3374.got - 2010.04.08 20:41:11.
