data_PCOD8305461
_publ_section_title
;
Structure prediction by ZEFSAII (Michael W. Deem and Ramdas Pophale) SiO2 
 PCOD8305461
Probable space group: P 41 21 2
;
_chemical_formula_sum "Si O2"
_cell_formula_units_Z 32
_cell_length_a 7.020797
_cell_length_b 7.020797
_cell_length_c 26.500477
_cell_angle_alpha 90.000000
_cell_angle_beta 90.000000
_cell_angle_gamma 90.000000
_cell_volume 1306.250661
_symmetry_space_group_name_H-M "P 41 21 2"
_symmetry_group_IT_number 92
_symmetry_cell_setting 'tetragonal'
loop_
_space_group_symop_operation_xyz
x,y,z
1/2-y,1/2+x,1/4+z
-x,-y,1/2+z
1/2+y,1/2-x,3/4+z
1/2+x,1/2-y,3/4-z
1/2-x,1/2+y,1/4-z
y,x,-z
-y,-x,1/2-z
loop_
_atom_site_type_symbol
_atom_site_label
_atom_site_fract_x
_atom_site_fract_y
_atom_site_fract_z
Si Si1 0.947628 0.341099 0.445955
Si Si2 0.918119 0.342876 0.014228
Si Si3 0.416958 0.424158 0.177453
Si Si4 0.980520 0.614364 0.351847
O O1 0.736015 0.291775 0.468581
O O2 0.040099 0.139840 0.431237
O O3 0.934788 0.463397 0.395616
O O4 0.082397 0.450244 0.486923
O O5 0.045797 0.344464 0.066039
O O6 0.015272 0.194736 0.974963
O O7 0.325550 0.485090 0.123818
O O8 0.376647 0.200420 0.184292
#
# Coordination Sequence:
#
# PCOD8305461 Si02
#       4
#     8   8   8   8
#     4  11  24  45  75 107 149 199 256 316 388 463
#     4  11  23  44  73 106 151 198 251 314 389 455
#     4  11  24  45  73 104 153 194 253 320 375 469
#     4  11  24  44  72 111 146 205 250 313 394 458
#
# _framework density 24.497599000000001
#
# number of rings (size 3 to 8) (size 9 to 14) (size 15 to 20)
#    0.000    1.000    2.500    3.750    0.000    4.000 
#    0.000    2.500    0.000    0.000    0.000    0.000 
#    0.000    0.000    0.000    0.000    0.000    0.000 
#
# Total GULP energy -396422.938722 kJ/mol
# GULP energy per Si atom -12388.216835 kJ/mol
# Density = 2.444184 g / cm^3
# Si number density = 24.497599 Si / 1000 Ang^3
#
#
#
# Elastic Constant Matrix: (Units=GPa)
#
#
# Indices 1 2 3 4 5 6 
#
# 1 85.5295 9.1565 31.3565 0.0000 0.0000 0.0000
# 2 9.1565 85.5295 31.3565 0.0000 0.0000 0.0000
# 3 31.3565 31.3565 131.2411 0.0000 0.0000 0.0000
# 4 0.0000 0.0000 0.0000 38.3349 0.0000 0.0000
# 5 0.0000 0.0000 0.0000 0.0000 38.3349 0.0000
# 6 0.0000 0.0000 0.0000 0.0000 0.0000 40.5954
#
#
#
# Elastic Compliance Matrix: (Units=1/GPa)
#
#
# Indices 1 2 3 4 5 6 
#
# 1 0.012820 -0.000273 -0.002998 0.000000 0.000000 0.000000
# 2 -0.000273 0.012820 -0.002998 0.000000 0.000000 0.000000
# 3 -0.002998 -0.002998 0.009052 0.000000 0.000000 0.000000
# 4 0.000000 0.000000 0.000000 0.026086 0.000000 0.000000
# 5 0.000000 0.000000 0.000000 0.000000 0.026086 0.000000
# 6 0.000000 0.000000 0.000000 0.000000 0.000000 0.024633
#
#
# Mechanical properties :
#
#
# Convention : Reuss Voigt Hill
#
# Bulk Modulus (GPa) = 45.13737 49.55990 47.34863
# Shear Modulus (GPa) = 38.04596 38.81507 38.43052
#
# Velocity S-wave (km/s) = 3.94515 3.98483 3.96504
# Velocity P-wave (km/s) = 6.26239 6.43787 6.35074
#
# Compressibility (1/GPa) = 0.02215459
#
# Stress axis : x y z
#
# Youngs Moduli (GPa) = 78.00220 78.00220 110.47294
#
# Poissons Ratio (x) = 0.02133 0.33116
# Poissons Ratio (y) = 0.02133 0.33116
# Poissons Ratio (z) = 0.23383 0.23383
#
# Static dielectric constant tensor:
#      x y z
#    x 4.470080 0.000000 0.000000 
#    y 0.000000 4.470080 0.000000 
#    z 0.000000 0.000000 4.754220 
# 
# 
# High freq. dielectric constant tensor:
#      x y z
#    x 1.964200 0.000000 0.000000 
#    y 0.000000 1.964200 0.000000 
#    z 0.000000 0.000000 2.005620 
# 
# From -- ./inp_files/3697.got.cif
#   From: 2010.03.12/outbox.cif.g09.slc.cpg/sg92_2_cif.got.tgz:3697.got - 2010.04.08 20:41:11.
