data_PCOD8305247
_publ_section_title
;
Structure prediction by ZEFSAII (Michael W. Deem and Ramdas Pophale) SiO2 
 PCOD8305247
Probable space group: P 41 21 2
;
_chemical_formula_sum "Si O2"
_cell_formula_units_Z 48
_cell_length_a 11.459382
_cell_length_b 11.459382
_cell_length_c 20.579047
_cell_angle_alpha 90.000000
_cell_angle_beta 90.000000
_cell_angle_gamma 90.000000
_cell_volume 2702.387684
_symmetry_space_group_name_H-M "P 41 21 2"
_symmetry_group_IT_number 92
_symmetry_cell_setting 'tetragonal'
loop_
_space_group_symop_operation_xyz
x,y,z
1/2-y,1/2+x,1/4+z
-x,-y,1/2+z
1/2+y,1/2-x,3/4+z
1/2+x,1/2-y,3/4-z
1/2-x,1/2+y,1/4-z
y,x,-z
-y,-x,1/2-z
loop_
_atom_site_type_symbol
_atom_site_label
_atom_site_fract_x
_atom_site_fract_y
_atom_site_fract_z
Si Si1 0.074713 0.399256 0.309199
Si Si2 0.285180 0.520008 0.762311
Si Si3 0.495127 0.367022 0.442217
Si Si4 0.453229 0.987166 0.554133
Si Si5 0.162383 0.827052 0.578821
Si Si6 0.917813 0.754130 0.155310
O O1 0.212643 0.414500 0.319603
O O2 0.022443 0.269744 0.301648
O O3 0.053880 0.461323 0.240468
O O4 0.015217 0.466681 0.369345
O O5 0.376354 0.623647 0.750000
O O6 0.170166 0.542459 0.718773
O O7 0.331882 0.392880 0.740624
O O8 0.252656 0.512791 0.837585
O O9 0.417478 0.417478 0.500000
O O10 0.420588 0.393709 0.377855
O O11 0.619544 0.432844 0.438580
O O12 0.465769 0.846603 0.546850
O O13 0.284039 0.781045 0.608501
#
# Coordination Sequence:
#
# PCOD8305247 Si02
#       6
#     8   8   8   8   8   8
#     4  11  21  35  56  87 117 149 186 238 294 334
#     4  11  17  33  59  81 112 146 185 233 282 333
#     4  11  20  35  55  85 116 145 185 244 280 337
#     4  11  20  35  57  84 114 149 186 236 281 343
#     4  10  20  33  54  89 112 139 190 234 284 339
#     4  10  20  34  55  85 111 151 190 227 291 337
#
# _framework density 17.762070000000001
#
# number of rings (size 3 to 8) (size 9 to 14) (size 15 to 20)
#    0.000    1.333    6.667    2.000    0.000    1.333 
#    0.000    1.667    0.000    1.000    0.000    0.000 
#    0.000    0.000    0.000    0.000    0.000    0.000 
#
# Total GULP energy -594955.769653 kJ/mol
# GULP energy per Si atom -12394.911868 kJ/mol
# Density = 1.772164 g / cm^3
# Si number density = 17.762070 Si / 1000 Ang^3
#
#
#
# Elastic Constant Matrix: (Units=GPa)
#
#
# Indices 1 2 3 4 5 6 
#
# 1 92.8244 40.7106 42.0435 0.0000 0.0000 0.0000
# 2 40.7106 92.8240 42.0438 0.0000 0.0000 0.0000
# 3 42.0435 42.0438 105.1200 0.0000 0.0000 0.0000
# 4 0.0000 0.0000 0.0000 30.9905 0.0000 0.0000
# 5 0.0000 0.0000 0.0000 0.0000 30.9904 0.0000
# 6 0.0000 0.0000 0.0000 0.0000 0.0000 14.8167
#
#
#
# Elastic Compliance Matrix: (Units=1/GPa)
#
#
# Indices 1 2 3 4 5 6 
#
# 1 0.014599 -0.004590 -0.004003 0.000000 0.000000 0.000000
# 2 -0.004590 0.014599 -0.004004 0.000000 0.000000 0.000000
# 3 -0.004003 -0.004004 0.012715 0.000000 0.000000 0.000000
# 4 0.000000 0.000000 0.000000 0.032268 0.000000 0.000000
# 5 0.000000 0.000000 0.000000 0.000000 0.032268 0.000000
# 6 0.000000 0.000000 0.000000 0.000000 0.000000 0.067491
#
#
# Mechanical properties :
#
#
# Convention : Reuss Voigt Hill
#
# Bulk Modulus (GPa) = 59.80540 60.04047 59.92293
# Shear Modulus (GPa) = 24.42506 26.42424 25.42465
#
# Velocity S-wave (km/s) = 3.71229 3.86123 3.78749
# Velocity P-wave (km/s) = 7.21929 7.33177 7.27575
#
# Compressibility (1/GPa) = 0.01672090
#
# Stress axis : x y z
#
# Youngs Moduli (GPa) = 68.49692 68.49641 78.64499
#
# Poissons Ratio (x) = 0.31437 0.31485
# Poissons Ratio (y) = 0.31437 0.31486
# Poissons Ratio (z) = 0.27422 0.27423
#
# Static dielectric constant tensor:
#      x y z
#    x 3.296130 0.000000 0.000000 
#    y 0.000000 3.296130 0.000000 
#    z 0.000000 0.000000 3.334330 
# 
# 
# High freq. dielectric constant tensor:
#      x y z
#    x 1.671250 0.000000 0.000000 
#    y 0.000000 1.671250 0.000000 
#    z 0.000000 0.000000 1.685270 
# 
# From -- ./inp_files/3097.got.cif
#   From: 2010.03.12/outbox.cif.g09.slc.cpg/sg92_2_cif.got.tgz:3097.got - 2010.04.08 20:41:11.
