data_PCOD8305837
_publ_section_title
;
Structure prediction by ZEFSAII (Michael W. Deem and Ramdas Pophale) SiO2 
 PCOD8305837
Probable space group: P 43 2 2
;
_chemical_formula_sum "Si O2"
_cell_formula_units_Z 48
_cell_length_a 8.962598
_cell_length_b 8.962598
_cell_length_c 30.988738
_cell_angle_alpha 90.000000
_cell_angle_beta 90.000000
_cell_angle_gamma 90.000000
_cell_volume 2489.268394
_symmetry_space_group_name_H-M "P 43 2 2"
_symmetry_group_IT_number 95
_symmetry_cell_setting 'tetragonal'
loop_
_space_group_symop_operation_xyz
x,y,z
-y,x,3/4+z
-x,-y,1/2+z
y,-x,1/4+z
x,-y,1/2-z
-x,y,-z
y,x,1/4-z
-y,-x,3/4-z
loop_
_atom_site_type_symbol
_atom_site_label
_atom_site_fract_x
_atom_site_fract_y
_atom_site_fract_z
Si Si1 0.824437 0.333608 0.663019
Si Si2 0.332893 0.175915 0.585278
Si Si3 0.421074 0.355430 0.044480
Si Si4 0.162861 0.668662 0.512830
Si Si5 0.676878 0.168821 0.258283
Si Si6 0.357956 0.332974 0.422877
O O1 0.779495 0.495555 0.681748
O O2 0.767175 0.209844 0.696479
O O3 0.747389 0.303753 0.617601
O O4 0.000184 0.324453 0.656183
O O5 0.265300 0.265300 0.625000
O O6 0.237830 0.213218 0.543224
O O7 0.504171 0.220565 0.578745
O O8 0.416967 0.496564 0.076526
O O9 0.500000 0.407411 0.000000
O O10 0.258370 0.297742 0.030467
O O11 0.174426 0.493735 0.525268
O O12 0.000000 0.719579 0.500000
O O13 0.698744 0.262348 0.215130
O O14 0.726885 0.000000 0.250000
#
# Coordination Sequence:
#
# PCOD8305837 Si02
#       6
#     8   8   8   8   8   8
#     4  11  23  37  57  86 116 148 192 242 289 339
#     4  12  24  39  59  85 118 155 196 242 289 343
#     4   9  18  35  58  84 111 146 193 239 282 335
#     4   9  19  37  61  85 115 154 190 231 285 347
#     4  10  21  39  63  90 118 150 192 238 292 350
#     4  11  21  37  62  86 112 151 198 242 288 342
#
# _framework density 19.282772999999999
#
# number of rings (size 3 to 8) (size 9 to 14) (size 15 to 20)
#    0.000    1.667    0.000    7.000    0.000    7.333 
#    0.000    1.667    0.000    0.000    0.000    0.000 
#    0.000    0.000    0.000    0.000    0.000    0.000 
#
# Total GULP energy -595322.540023 kJ/mol
# GULP energy per Si atom -12402.552917 kJ/mol
# Density = 1.923888 g / cm^3
# Si number density = 19.282773 Si / 1000 Ang^3
#
#
#
# Elastic Constant Matrix: (Units=GPa)
#
#
# Indices 1 2 3 4 5 6 
#
# 1 125.5129 53.1898 48.4424 0.0000 0.0000 0.0000
# 2 53.1898 125.5129 48.4424 0.0000 0.0000 0.0000
# 3 48.4424 48.4424 101.4128 0.0000 0.0000 0.0000
# 4 0.0000 0.0000 0.0000 22.4557 0.0000 0.0000
# 5 0.0000 0.0000 0.0000 0.0000 22.4557 0.0000
# 6 0.0000 0.0000 0.0000 0.0000 0.0000 13.0833
#
#
#
# Elastic Compliance Matrix: (Units=1/GPa)
#
#
# Indices 1 2 3 4 5 6 
#
# 1 0.010689 -0.003138 -0.003607 0.000000 0.000000 0.000000
# 2 -0.003138 0.010689 -0.003607 0.000000 0.000000 0.000000
# 3 -0.003607 -0.003607 0.013307 0.000000 0.000000 0.000000
# 4 0.000000 0.000000 0.000000 0.044532 0.000000 0.000000
# 5 0.000000 0.000000 0.000000 0.000000 0.044532 0.000000
# 6 0.000000 0.000000 0.000000 0.000000 0.000000 0.076434
#
#
# Mechanical properties :
#
#
# Convention : Reuss Voigt Hill
#
# Bulk Modulus (GPa) = 71.52486 72.50979 72.01732
# Shear Modulus (GPa) = 22.16828 25.08986 23.62907
#
# Velocity S-wave (km/s) = 3.39432 3.61107 3.50437
# Velocity P-wave (km/s) = 7.24810 7.42101 7.33507
#
# Compressibility (1/GPa) = 0.01398115
#
# Stress axis : x y z
#
# Youngs Moduli (GPa) = 93.55243 93.55243 75.14942
#
# Poissons Ratio (x) = 0.29353 0.27108
# Poissons Ratio (y) = 0.29353 0.27108
# Poissons Ratio (z) = 0.33746 0.33746
#
# Static dielectric constant tensor:
#      x y z
#    x 3.603670 0.000000 0.000000 
#    y 0.000000 3.603670 0.000000 
#    z 0.000000 0.000000 4.166630 
# 
# 
# High freq. dielectric constant tensor:
#      x y z
#    x 1.747060 0.000000 0.000000 
#    y 0.000000 1.747060 0.000000 
#    z 0.000000 0.000000 1.760360 
# 
# From -- ./inp_files/7908.got.cif
#   From: 2010.03.12/outbox.cif.g09.slc.cpg/sg95_4_cif.got.tgz:7908.got - 2010.04.08 20:51:55.
