data_PCOD8305138
_publ_section_title
;
Structure prediction by ZEFSAII (Michael W. Deem and Ramdas Pophale) SiO2 
 PCOD8305138
Probable space group: P 41 2 2
;
_chemical_formula_sum "Si O2"
_cell_formula_units_Z 56
_cell_length_a 12.476819
_cell_length_b 12.476819
_cell_length_c 17.816355
_cell_angle_alpha 90.000000
_cell_angle_beta 90.000000
_cell_angle_gamma 90.000000
_cell_volume 2773.490019
_symmetry_space_group_name_H-M "P 41 2 2"
_symmetry_group_IT_number 91
_symmetry_cell_setting 'tetragonal'
loop_
_space_group_symop_operation_xyz
x,y,z
-y,x,1/4+z
-x,-y,1/2+z
y,-x,3/4+z
x,-y,1/2-z
-x,y,-z
y,x,3/4-z
-y,-x,1/4-z
loop_
_atom_site_type_symbol
_atom_site_label
_atom_site_fract_x
_atom_site_fract_y
_atom_site_fract_z
Si Si1 0.455305 0.961408 0.582592
Si Si2 0.933821 0.059498 0.820452
Si Si3 0.226557 0.111183 0.939213
Si Si4 0.226427 0.558761 0.921773
Si Si5 0.214641 0.778948 0.843462
Si Si6 0.461229 0.612496 0.917255
Si Si7 0.829349 0.548960 0.578554
O O1 0.500000 0.982875 0.500000
O O2 0.326518 0.961235 0.586195
O O3 0.496424 0.846222 0.611812
O O4 0.494150 0.059920 0.635026
O O5 0.863650 0.142635 0.864762
O O6 0.040576 0.121618 0.793228
O O7 0.876998 0.000000 0.750000
O O8 0.962831 0.962831 0.875000
O O9 0.198809 0.198809 0.875000
O O10 0.265144 0.164701 0.016590
O O11 0.219785 0.685600 0.905775
O O12 0.353667 0.539020 0.911290
O O13 0.189437 0.522840 0.004602
O O14 0.323617 0.835856 0.814440
O O15 0.553315 0.553315 0.875000
O O16 0.457565 0.731201 0.885085
O O17 0.500000 0.628139 0.000000
#
# Coordination Sequence:
#
# PCOD8305138 Si02
#       7
#     8   8   8   8   8   8   8
#     4  12  24  43  65  94 138 177 224 279 351 409
#     4  11  22  39  67  94 127 173 223 272 336 398
#     4  11  23  40  65  93 129 176 218 273 335 407
#     4  11  25  41  68 100 133 176 222 286 341 409
#     4  11  23  43  65  98 136 169 228 280 336 402
#     4  11  23  45  73 100 134 177 233 286 345 409
#     4  11  24  43  70  98 135 180 227 280 348 417
#
# _framework density 20.191165999999999
#
# number of rings (size 3 to 8) (size 9 to 14) (size 15 to 20)
#    0.000    0.857    5.714    1.714    0.000    3.429 
#    0.000    0.000    0.000    0.000    0.000    0.000 
#    0.000    0.000    0.000    0.000    0.000    0.000 
#
# Total GULP energy -694076.327820 kJ/mol
# GULP energy per Si atom -12394.220140 kJ/mol
# Density = 2.014521 g / cm^3
# Si number density = 20.191166 Si / 1000 Ang^3
#
#
#
# Elastic Constant Matrix: (Units=GPa)
#
#
# Indices 1 2 3 4 5 6 
#
# 1 85.9777 8.2054 36.8853 0.0000 0.0000 0.0000
# 2 8.2054 85.9777 36.8853 0.0000 0.0000 0.0000
# 3 36.8853 36.8853 132.0307 0.0000 0.0000 0.0000
# 4 0.0000 0.0000 0.0000 35.7068 0.0000 0.0000
# 5 0.0000 0.0000 0.0000 0.0000 35.7068 0.0000
# 6 0.0000 0.0000 0.0000 0.0000 0.0000 28.9500
#
#
#
# Elastic Compliance Matrix: (Units=1/GPa)
#
#
# Indices 1 2 3 4 5 6 
#
# 1 0.013225 0.000367 -0.003797 0.000000 0.000000 0.000000
# 2 0.000367 0.013225 -0.003797 0.000000 0.000000 0.000000
# 3 -0.003797 -0.003797 0.009696 0.000000 0.000000 0.000000
# 4 0.000000 0.000000 0.000000 0.028006 0.000000 0.000000
# 5 0.000000 0.000000 0.000000 0.000000 0.028006 0.000000
# 6 0.000000 0.000000 0.000000 0.000000 0.000000 0.034542
#
#
# Mechanical properties :
#
#
# Convention : Reuss Voigt Hill
#
# Bulk Modulus (GPa) = 46.10278 51.99311 49.04795
# Shear Modulus (GPa) = 33.69626 34.87340 34.28483
#
# Velocity S-wave (km/s) = 4.08960 4.16042 4.12516
# Velocity P-wave (km/s) = 6.72179 6.99179 6.85812
#
# Compressibility (1/GPa) = 0.02169066
#
# Stress axis : x y z
#
# Youngs Moduli (GPa) = 75.61481 75.61481 103.13960
#
# Poissons Ratio (x) = -0.02774 0.39163
# Poissons Ratio (y) = -0.02774 0.39163
# Poissons Ratio (z) = 0.28712 0.28712
#
# Static dielectric constant tensor:
#      x y z
#    x 3.774420 0.000000 0.000000 
#    y 0.000000 3.774420 0.000000 
#    z 0.000000 0.000000 3.741900 
# 
# 
# High freq. dielectric constant tensor:
#      x y z
#    x 1.790850 0.000000 0.000000 
#    y 0.000000 1.790850 0.000000 
#    z 0.000000 0.000000 1.799270 
# 
# From -- ./inp_files/6394.got.cif
#   From: 2010.03.12/outbox.cif.g09.slc.cpg/sg91_4_cif.got.tgz:6394.got - 2010.04.08 20:27:58.
