data_PCOD8305206
_publ_section_title
;
Structure prediction by ZEFSAII (Michael W. Deem and Ramdas Pophale) SiO2 
 PCOD8305206
Probable space group: P 41 21 2
;
_chemical_formula_sum "Si O2"
_cell_formula_units_Z 52
_cell_length_a 20.549242
_cell_length_b 20.549242
_cell_length_c 6.436163
_cell_angle_alpha 90.000000
_cell_angle_beta 90.000000
_cell_angle_gamma 90.000000
_cell_volume 2717.807218
_symmetry_space_group_name_H-M "P 41 21 2"
_symmetry_group_IT_number 92
_symmetry_cell_setting 'tetragonal'
loop_
_space_group_symop_operation_xyz
x,y,z
1/2-y,1/2+x,1/4+z
-x,-y,1/2+z
1/2+y,1/2-x,3/4+z
1/2+x,1/2-y,3/4-z
1/2-x,1/2+y,1/4-z
y,x,-z
-y,-x,1/2-z
loop_
_atom_site_type_symbol
_atom_site_label
_atom_site_fract_x
_atom_site_fract_y
_atom_site_fract_z
Si Si1 0.378255 0.158027 0.178522
Si Si2 0.911470 0.530490 0.002470
Si Si3 0.456633 0.202389 0.800318
Si Si4 0.162678 0.255595 0.374743
Si Si5 0.138294 0.754481 0.738829
Si Si6 0.083832 0.249245 0.749138
Si Si7 0.331732 0.668269 0.250000
O O1 0.419520 0.107138 0.315488
O O2 0.379723 0.230994 0.278905
O O3 0.304593 0.132224 0.161467
O O4 0.407227 0.163934 0.949340
O O5 0.937318 0.465169 0.105830
O O6 0.849494 0.511976 0.859158
O O7 0.423744 0.260990 0.664543
O O8 0.510039 0.236731 0.944892
O O9 0.215705 0.215705 0.500000
O O10 0.190650 0.328296 0.382669
O O11 0.093305 0.248328 0.496962
O O12 0.160940 0.232997 0.138747
O O13 0.178831 0.821170 0.750000
O O14 0.106160 0.178181 0.846433
#
# Coordination Sequence:
#
# PCOD8305206 Si02
#       7
#     8   8   8   8   8   8   4
#     4  10  21  36  52  74 107 141 186 236 274 324
#     4  11  25  36  51  71 103 155 203 234 265 309
#     4  11  22  35  52  77 107 145 184 232 277 321
#     4   8  16  30  48  72  97 133 173 214 261 319
#     4   9  19  34  52  79 106 136 178 225 281 331
#     4  10  20  32  51  74 105 135 180 224 272 322
#     4  10  18  32  54  74 100 138 168 216 278 334
#
# _framework density 19.133071999999999
#
# number of rings (size 3 to 8) (size 9 to 14) (size 15 to 20)
#    0.000    2.154    0.000    3.692    4.308    5.538 
#    0.000    0.000    0.000    0.000    0.000    0.000 
#    4.615    0.000    0.000    0.000    0.000    0.000 
#
# Total GULP energy -644260.921317 kJ/mol
# GULP energy per Si atom -12389.633102 kJ/mol
# Density = 1.908952 g / cm^3
# Si number density = 19.133072 Si / 1000 Ang^3
#
#
#
# Elastic Constant Matrix: (Units=GPa)
#
#
# Indices 1 2 3 4 5 6 
#
# 1 49.5759 39.8431 28.5540 0.0000 0.0000 0.0000
# 2 39.8431 49.5746 28.5537 0.0000 0.0000 0.0000
# 3 28.5540 28.5537 94.1022 0.0000 0.0000 0.0000
# 4 0.0000 0.0000 0.0000 31.9071 0.0000 0.0000
# 5 0.0000 0.0000 0.0000 0.0000 31.9063 0.0000
# 6 0.0000 0.0000 0.0000 0.0000 0.0000 26.2110
#
#
#
# Elastic Compliance Matrix: (Units=1/GPa)
#
#
# Indices 1 2 3 4 5 6 
#
# 1 0.058311 -0.044440 -0.004209 0.000000 0.000000 0.000000
# 2 -0.044440 0.058312 -0.004209 0.000000 0.000000 0.000000
# 3 -0.004209 -0.004209 0.013181 0.000000 0.000000 0.000000
# 4 0.000000 0.000000 0.000000 0.031341 0.000000 0.000000
# 5 0.000000 0.000000 0.000000 0.000000 0.031342 0.000000
# 6 0.000000 0.000000 0.000000 0.000000 0.000000 0.038152
#
#
# Mechanical properties :
#
#
# Convention : Reuss Voigt Hill
#
# Bulk Modulus (GPa) = 41.51475 43.01712 42.26593
# Shear Modulus (GPa) = 14.51864 24.42501 19.47183
#
# Velocity S-wave (km/s) = 2.75767 3.57681 3.19361
# Velocity P-wave (km/s) = 5.64665 6.29206 5.97807
#
# Compressibility (1/GPa) = 0.02408783
#
# Stress axis : x y z
#
# Youngs Moduli (GPa) = 17.14947 17.14900 75.86608
#
# Poissons Ratio (x) = 0.76210 0.31932
# Poissons Ratio (y) = 0.76212 0.31934
# Poissons Ratio (z) = 0.07218 0.07218
#
# Static dielectric constant tensor:
#      x y z
#    x 3.285010 0.000000 0.000000 
#    y 0.000000 3.285010 0.000000 
#    z 0.000000 0.000000 3.881160 
# 
# 
# High freq. dielectric constant tensor:
#      x y z
#    x 1.709990 0.000000 0.000000 
#    y 0.000000 1.709990 0.000000 
#    z 0.000000 0.000000 1.770030 
# 
# From -- ./inp_files/703.got.cif
#   From: 2010.03.12/outbox.cif.g09.slc.cpg/sg92_1_cif.got.tgz:703.got - 2010.04.08 20:41:11.
