data_PCOD8305236
_publ_section_title
;
Structure prediction by ZEFSAII (Michael W. Deem and Ramdas Pophale) SiO2 
 PCOD8305236
Probable space group: P 41 21 2
;
_chemical_formula_sum "Si O2"
_cell_formula_units_Z 40
_cell_length_a 8.704702
_cell_length_b 8.704702
_cell_length_c 25.439001
_cell_angle_alpha 90.000000
_cell_angle_beta 90.000000
_cell_angle_gamma 90.000000
_cell_volume 1927.559835
_symmetry_space_group_name_H-M "P 41 21 2"
_symmetry_group_IT_number 92
_symmetry_cell_setting 'tetragonal'
loop_
_space_group_symop_operation_xyz
x,y,z
1/2-y,1/2+x,1/4+z
-x,-y,1/2+z
1/2+y,1/2-x,3/4+z
1/2+x,1/2-y,3/4-z
1/2-x,1/2+y,1/4-z
y,x,-z
-y,-x,1/2-z
loop_
_atom_site_type_symbol
_atom_site_label
_atom_site_fract_x
_atom_site_fract_y
_atom_site_fract_z
Si Si1 0.400898 0.089238 0.093999
Si Si2 0.624442 0.141742 0.394957
Si Si3 0.686492 0.917668 0.482618
Si Si4 0.631858 0.613949 0.060562
Si Si5 0.560064 0.660100 0.412681
O O1 0.410335 0.273393 0.102371
O O2 0.542131 0.017571 0.124516
O O3 0.238621 0.020374 0.112848
O O4 0.411560 0.033735 0.033519
O O5 0.743867 0.179731 0.348326
O O6 0.544091 0.287945 0.420998
O O7 0.714824 0.055021 0.441791
O O8 0.852922 0.852922 0.500000
O O9 0.584214 0.783402 0.458063
O O10 0.454518 0.569269 0.065617
O O11 0.663964 0.663964 0.000000
#
# Coordination Sequence:
#
# PCOD8305236 Si02
#       5
#     8   8   8   8   8
#     4  10  19  37  59  87 117 153 202 252 295 354
#     4  11  24  39  59  86 120 156 201 251 308 374
#     4   9  18  36  61  85 111 151 202 245 285 354
#     4  12  24  41  60  87 123 161 198 251 315 367
#     4  10  20  35  61  87 116 157 203 245 296 361
#
# _framework density 20.751626000000002
#
# number of rings (size 3 to 8) (size 9 to 14) (size 15 to 20)
#    0.000    1.600    0.000    7.800    0.000    0.000 
#    0.000    7.000    0.000    0.000    0.000    0.000 
#    0.000    0.000    0.000    0.000    0.000    0.000 
#
# Total GULP energy -495838.518820 kJ/mol
# GULP energy per Si atom -12395.962970 kJ/mol
# Density = 2.070439 g / cm^3
# Si number density = 20.751626 Si / 1000 Ang^3
#
#
#
# Elastic Constant Matrix: (Units=GPa)
#
#
# Indices 1 2 3 4 5 6 
#
# 1 74.6768 15.7254 40.5932 0.0000 0.0000 0.0000
# 2 15.7254 74.6768 40.5932 0.0000 0.0000 0.0000
# 3 40.5932 40.5932 130.3550 0.0000 0.0000 0.0000
# 4 0.0000 0.0000 0.0000 25.4774 0.0000 0.0000
# 5 0.0000 0.0000 0.0000 0.0000 25.4774 0.0000
# 6 0.0000 0.0000 0.0000 0.0000 0.0000 26.1719
#
#
#
# Elastic Compliance Matrix: (Units=1/GPa)
#
#
# Indices 1 2 3 4 5 6 
#
# 1 0.016160 -0.000803 -0.004782 0.000000 0.000000 0.000000
# 2 -0.000803 0.016160 -0.004782 0.000000 0.000000 0.000000
# 3 -0.004782 -0.004782 0.010650 0.000000 0.000000 0.000000
# 4 0.000000 0.000000 0.000000 0.039250 0.000000 0.000000
# 5 0.000000 0.000000 0.000000 0.000000 0.039250 0.000000
# 6 0.000000 0.000000 0.000000 0.000000 0.000000 0.038209
#
#
# Mechanical properties :
#
#
# Convention : Reuss Voigt Hill
#
# Bulk Modulus (GPa) = 44.97612 52.61471 48.79542
# Shear Modulus (GPa) = 26.62052 27.61179 27.11616
#
# Velocity S-wave (km/s) = 3.58553 3.65168 3.61875
# Velocity P-wave (km/s) = 6.23393 6.57185 6.40512
#
# Compressibility (1/GPa) = 0.02223402
#
# Stress axis : x y z
#
# Youngs Moduli (GPa) = 61.88247 61.88247 93.89995
#
# Poissons Ratio (x) = 0.04972 0.44903
# Poissons Ratio (y) = 0.04972 0.44903
# Poissons Ratio (z) = 0.29592 0.29592
#
# Static dielectric constant tensor:
#      x y z
#    x 3.688980 0.000000 0.000000 
#    y 0.000000 3.688980 0.000000 
#    z 0.000000 0.000000 4.093680 
# 
# 
# High freq. dielectric constant tensor:
#      x y z
#    x 1.803700 0.000000 0.000000 
#    y 0.000000 1.803700 0.000000 
#    z 0.000000 0.000000 1.826790 
# 
# From -- ./inp_files/3795.got.cif
#   From: 2010.03.12/outbox.cif.g09.slc.cpg/sg92_2_cif.got.tgz:3795.got - 2010.04.08 20:41:11.
