data_PCOD8305462
_publ_section_title
;
Structure prediction by ZEFSAII (Michael W. Deem and Ramdas Pophale) SiO2 
 PCOD8305462
Probable space group: P 41 21 2
;
_chemical_formula_sum "Si O2"
_cell_formula_units_Z 36
_cell_length_a 12.481440
_cell_length_b 12.481440
_cell_length_c 10.470463
_cell_angle_alpha 90.000000
_cell_angle_beta 90.000000
_cell_angle_gamma 90.000000
_cell_volume 1631.155156
_symmetry_space_group_name_H-M "P 41 21 2"
_symmetry_group_IT_number 92
_symmetry_cell_setting 'tetragonal'
loop_
_space_group_symop_operation_xyz
x,y,z
1/2-y,1/2+x,1/4+z
-x,-y,1/2+z
1/2+y,1/2-x,3/4+z
1/2+x,1/2-y,3/4-z
1/2-x,1/2+y,1/4-z
y,x,-z
-y,-x,1/2-z
loop_
_atom_site_type_symbol
_atom_site_label
_atom_site_fract_x
_atom_site_fract_y
_atom_site_fract_z
Si Si1 0.307864 0.782972 0.024472
Si Si2 0.038254 0.651010 0.956411
Si Si3 0.827129 0.542855 0.928205
Si Si4 0.745467 0.440896 0.444693
Si Si5 0.664254 0.664254 0.500000
O O1 0.418238 0.803206 0.101576
O O2 0.210455 0.776149 0.124941
O O3 0.274623 0.876040 0.924036
O O4 0.322575 0.669061 0.950858
O O5 0.071069 0.711593 0.823752
O O6 0.140922 0.587953 0.012333
O O7 0.954601 0.559374 0.916085
O O8 0.981983 0.735611 0.050212
O O9 0.685597 0.537279 0.517637
#
# Coordination Sequence:
#
# PCOD8305462 Si02
#       5
#     8   8   8   8   4
#     4  11  25  44  73 104 148 184 250 306 369 444
#     4   9  20  41  73 101 131 185 249 303 341 443
#     4   9  22  40  71 108 130 187 238 306 359 440
#     4  11  23  45  65 107 140 190 243 303 370 435
#     4  12  28  40  68 104 140 200 230 324 360 432
#
# _framework density 22.070250000000001
#
# number of rings (size 3 to 8) (size 9 to 14) (size 15 to 20)
#    0.000    1.778    2.222    0.000   12.444    8.000 
#    0.000    6.667   14.667    0.000    0.000    0.000 
#    0.000    0.000    0.000    0.000    0.000    0.000 
#
# Total GULP energy -446034.231132 kJ/mol
# GULP energy per Si atom -12389.839754 kJ/mol
# Density = 2.202002 g / cm^3
# Si number density = 22.070250 Si / 1000 Ang^3
#
#
#
# Elastic Constant Matrix: (Units=GPa)
#
#
# Indices 1 2 3 4 5 6 
#
# 1 119.4394 31.3040 41.1898 0.0000 0.0000 0.0000
# 2 31.3040 119.4394 41.1898 0.0000 0.0000 0.0000
# 3 41.1898 41.1898 115.0020 0.0000 0.0000 0.0000
# 4 0.0000 0.0000 0.0000 30.5891 0.0000 0.0000
# 5 0.0000 0.0000 0.0000 0.0000 30.5891 0.0000
# 6 0.0000 0.0000 0.0000 0.0000 0.0000 34.4746
#
#
#
# Elastic Compliance Matrix: (Units=1/GPa)
#
#
# Indices 1 2 3 4 5 6 
#
# 1 0.009797 -0.001549 -0.002954 0.000000 0.000000 0.000000
# 2 -0.001549 0.009797 -0.002954 0.000000 0.000000 0.000000
# 3 -0.002954 -0.002954 0.010812 0.000000 0.000000 0.000000
# 4 0.000000 0.000000 0.000000 0.032691 0.000000 0.000000
# 5 0.000000 0.000000 0.000000 0.000000 0.032691 0.000000
# 6 0.000000 0.000000 0.000000 0.000000 0.000000 0.029007
#
#
# Mechanical properties :
#
#
# Convention : Reuss Voigt Hill
#
# Bulk Modulus (GPa) = 64.55257 64.58311 64.56784
# Shear Modulus (GPa) = 34.51267 35.14372 34.82820
#
# Velocity S-wave (km/s) = 3.95874 3.99476 3.97679
# Velocity P-wave (km/s) = 7.08573 7.11362 7.09969
#
# Compressibility (1/GPa) = 0.01549125
#
# Stress axis : x y z
#
# Youngs Moduli (GPa) = 102.06979 102.06979 92.49220
#
# Poissons Ratio (x) = 0.15810 0.27324
# Poissons Ratio (y) = 0.15810 0.27324
# Poissons Ratio (z) = 0.30154 0.30154
#
# Static dielectric constant tensor:
#      x y z
#    x 3.903110 0.000000 0.000000 
#    y 0.000000 3.903110 0.000000 
#    z 0.000000 0.000000 4.128350 
# 
# 
# High freq. dielectric constant tensor:
#      x y z
#    x 1.855630 0.000000 0.000000 
#    y 0.000000 1.855630 0.000000 
#    z 0.000000 0.000000 1.865890 
# 
# From -- ./inp_files/2025.got.cif
#   From: 2010.03.12/outbox.cif.g09.slc.cpg/sg92_2_cif.got.tgz:2025.got - 2010.04.08 20:41:11.
