data_PCOD8305064
_publ_section_title
;
Structure prediction by ZEFSAII (Michael W. Deem and Ramdas Pophale) SiO2 
 PCOD8305064
Probable space group: P 41 2 2
;
_chemical_formula_sum "Si O2"
_cell_formula_units_Z 36
_cell_length_a 11.333312
_cell_length_b 11.333312
_cell_length_c 12.450807
_cell_angle_alpha 90.000000
_cell_angle_beta 90.000000
_cell_angle_gamma 90.000000
_cell_volume 1599.230967
_symmetry_space_group_name_H-M "P 41 2 2"
_symmetry_group_IT_number 91
_symmetry_cell_setting 'tetragonal'
loop_
_space_group_symop_operation_xyz
x,y,z
-y,x,1/4+z
-x,-y,1/2+z
y,-x,3/4+z
x,-y,1/2-z
-x,y,-z
y,x,3/4-z
-y,-x,1/4-z
loop_
_atom_site_type_symbol
_atom_site_label
_atom_site_fract_x
_atom_site_fract_y
_atom_site_fract_z
Si Si1 0.311083 0.362373 0.255591
Si Si2 0.284654 0.903885 0.655563
Si Si3 0.247587 0.930511 0.020003
Si Si4 0.526474 0.281642 0.121171
Si Si5 0.000000 0.830150 0.000000
O O1 0.331547 0.500000 0.250000
O O2 0.323628 0.323628 0.375000
O O3 0.180211 0.322569 0.227905
O O4 0.402466 0.292853 0.180901
O O5 0.167561 0.832440 0.625000
O O6 0.393752 0.816546 0.682134
O O7 0.264405 0.000000 0.750000
O O8 0.313353 0.966726 0.543274
O O9 0.250792 0.962522 0.147279
O O10 0.112777 0.913255 0.977664
O O11 0.592840 0.407160 0.125000
O O12 0.500000 0.243432 0.000000
#
# Coordination Sequence:
#
# PCOD8305064 Si02
#       5
#     8   8   8   8   4
#     4  12  26  47  75 105 144 192 250 307 369 444
#     4  11  27  46  74 106 148 193 245 305 374 461
#     4  11  25  44  73 108 146 192 246 300 377 445
#     4  11  26  48  75 106 145 202 251 311 375 452
#     4  10  22  46  70 104 148 188 242 304 362 446
#
# _framework density 22.510822000000001
#
# number of rings (size 3 to 8) (size 9 to 14) (size 15 to 20)
#    0.000    0.889    2.222    4.000   17.111    0.889 
#    2.000    0.000    0.000    0.000    0.000    0.000 
#    0.000    0.000    0.000    0.000    0.000    0.000 
#
# Total GULP energy -446226.028099 kJ/mol
# GULP energy per Si atom -12395.167447 kJ/mol
# Density = 2.245959 g / cm^3
# Si number density = 22.510822 Si / 1000 Ang^3
#
#
#
# Elastic Constant Matrix: (Units=GPa)
#
#
# Indices 1 2 3 4 5 6 
#
# 1 89.0842 63.0033 42.8136 0.0000 0.0000 0.0000
# 2 63.0033 89.0852 42.8142 0.0000 0.0000 0.0000
# 3 42.8136 42.8142 121.4792 0.0000 0.0000 0.0000
# 4 0.0000 0.0000 0.0000 33.0085 0.0000 0.0000
# 5 0.0000 0.0000 0.0000 0.0000 33.0089 0.0000
# 6 0.0000 0.0000 0.0000 0.0000 0.0000 28.0552
#
#
#
# Elastic Compliance Matrix: (Units=1/GPa)
#
#
# Indices 1 2 3 4 5 6 
#
# 1 0.023272 -0.015069 -0.002891 0.000000 0.000000 0.000000
# 2 -0.015069 0.023272 -0.002891 0.000000 0.000000 0.000000
# 3 -0.002891 -0.002891 0.010270 0.000000 0.000000 0.000000
# 4 0.000000 0.000000 0.000000 0.030295 0.000000 0.000000
# 5 0.000000 0.000000 0.000000 0.000000 0.030295 0.000000
# 6 0.000000 0.000000 0.000000 0.000000 0.000000 0.035644
#
#
# Mechanical properties :
#
#
# Convention : Reuss Voigt Hill
#
# Bulk Modulus (GPa) = 66.17548 66.32340 66.24944
# Shear Modulus (GPa) = 25.02655 28.88235 26.95445
#
# Velocity S-wave (km/s) = 3.33792 3.58584 3.46410
# Velocity P-wave (km/s) = 6.65707 6.83163 6.74492
#
# Compressibility (1/GPa) = 0.01511134
#
# Stress axis : x y z
#
# Youngs Moduli (GPa) = 42.96966 42.96997 97.37434
#
# Poissons Ratio (x) = 0.64753 0.28150
# Poissons Ratio (y) = 0.64752 0.28151
# Poissons Ratio (z) = 0.12422 0.12423
#
# Static dielectric constant tensor:
#      x y z
#    x 4.046300 0.000000 0.000000 
#    y 0.000000 4.046300 0.000000 
#    z 0.000000 0.000000 4.092930 
# 
# 
# High freq. dielectric constant tensor:
#      x y z
#    x 1.891170 0.000000 0.000000 
#    y 0.000000 1.891170 0.000000 
#    z 0.000000 0.000000 1.894400 
# 
# From -- ./inp_files/15652.got.cif
#   From: 2010.03.12/outbox.cif.g09.slc.cpg/sg91_8_cif.got.tgz:15652.got - 2010.04.08 20:27:58.
