data_PCOD8305107
_publ_section_title
;
Structure prediction by ZEFSAII (Michael W. Deem and Ramdas Pophale) SiO2 
 PCOD8305107
Probable space group: P 41 2 2
;
_chemical_formula_sum "Si O2"
_cell_formula_units_Z 40
_cell_length_a 8.231218
_cell_length_b 8.231218
_cell_length_c 23.494472
_cell_angle_alpha 90.000000
_cell_angle_beta 90.000000
_cell_angle_gamma 90.000000
_cell_volume 1591.819781
_symmetry_space_group_name_H-M "P 41 2 2"
_symmetry_group_IT_number 91
_symmetry_cell_setting 'tetragonal'
loop_
_space_group_symop_operation_xyz
x,y,z
-y,x,1/4+z
-x,-y,1/2+z
y,-x,3/4+z
x,-y,1/2-z
-x,y,-z
y,x,3/4-z
-y,-x,1/4-z
loop_
_atom_site_type_symbol
_atom_site_label
_atom_site_fract_x
_atom_site_fract_y
_atom_site_fract_z
Si Si1 0.390332 0.201801 0.447647
Si Si2 0.136677 0.222614 0.935679
Si Si3 0.828108 0.421400 0.482230
Si Si4 0.221720 0.878066 0.450777
Si Si5 0.625591 0.632652 0.624992
O O1 0.500000 0.139273 0.500000
O O2 0.298864 0.368328 0.468126
O O3 0.491071 0.245764 0.390811
O O4 0.276178 0.053713 0.427481
O O5 0.228417 0.228417 0.875000
O O6 0.151796 0.386969 0.972418
O O7 0.951939 0.170173 0.923990
O O8 0.217945 0.097861 0.980440
O O9 0.769854 0.348331 0.422813
O O10 0.000000 0.343761 0.500000
O O11 0.341490 0.728243 0.433682
O O12 0.443635 0.556366 0.625000
#
# Coordination Sequence:
#
# PCOD8305107 Si02
#       5
#     8   8   8   8   8
#     4  10  26  46  76 110 153 196 255 315 387 464
#     4  11  26  46  75 110 154 203 259 317 390 461
#     4  11  24  47  75 109 152 200 252 316 380 460
#     4  11  26  46  73 113 151 203 259 321 387 460
#     4  11  26  45  75 110 152 202 254 318 385 459
#
# _framework density 25.128475000000002
#
# number of rings (size 3 to 8) (size 9 to 14) (size 15 to 20)
#    0.000    1.200    2.000    1.800   11.200    2.400 
#    0.000    0.000    0.000    0.000    0.000    0.000 
#    0.000    0.000    0.000    0.000    0.000    0.000 
#
# Total GULP energy -495767.053360 kJ/mol
# GULP energy per Si atom -12394.176334 kJ/mol
# Density = 2.507128 g / cm^3
# Si number density = 25.128475 Si / 1000 Ang^3
#
#
#
# Elastic Constant Matrix: (Units=GPa)
#
#
# Indices 1 2 3 4 5 6 
#
# 1 129.0673 71.7159 37.2605 0.0000 0.0000 0.0000
# 2 71.7159 129.0666 37.2605 0.0000 0.0000 0.0000
# 3 37.2605 37.2605 120.9810 0.0000 0.0000 0.0000
# 4 0.0000 0.0000 0.0000 30.7309 0.0000 0.0000
# 5 0.0000 0.0000 0.0000 0.0000 30.7311 0.0000
# 6 0.0000 0.0000 0.0000 0.0000 0.0000 44.9629
#
#
#
# Elastic Compliance Matrix: (Units=1/GPa)
#
#
# Indices 1 2 3 4 5 6 
#
# 1 0.011530 -0.005907 -0.001732 0.000000 0.000000 0.000000
# 2 -0.005907 0.011530 -0.001732 0.000000 0.000000 0.000000
# 3 -0.001732 -0.001732 0.009333 0.000000 0.000000 0.000000
# 4 0.000000 0.000000 0.000000 0.032541 0.000000 0.000000
# 5 0.000000 0.000000 0.000000 0.000000 0.032540 0.000000
# 6 0.000000 0.000000 0.000000 0.000000 0.000000 0.022241
#
#
# Mechanical properties :
#
#
# Convention : Reuss Voigt Hill
#
# Bulk Modulus (GPa) = 73.25163 74.62094 73.93629
# Shear Modulus (GPa) = 34.96381 36.81020 35.88701
#
# Velocity S-wave (km/s) = 3.73420 3.83153 3.78318
# Velocity P-wave (km/s) = 6.91422 7.02384 6.96925
#
# Compressibility (1/GPa) = 0.01365157
#
# Stress axis : x y z
#
# Youngs Moduli (GPa) = 86.73137 86.73089 107.15170
#
# Poissons Ratio (x) = 0.51228 0.18557
# Poissons Ratio (y) = 0.51229 0.18558
# Poissons Ratio (z) = 0.15021 0.15021
#
# Static dielectric constant tensor:
#      x y z
#    x 4.437480 0.000000 0.000000 
#    y 0.000000 4.437490 0.000000 
#    z 0.000000 0.000000 4.371220 
# 
# 
# High freq. dielectric constant tensor:
#      x y z
#    x 1.999290 0.000000 0.000000 
#    y 0.000000 1.999290 0.000000 
#    z 0.000000 0.000000 2.003760 
# 
# From -- ./inp_files/7359.got.cif
#   From: 2010.03.12/outbox.cif.g09.slc.cpg/sg91_4_cif.got.tgz:7359.got - 2010.04.08 20:27:58.
