data_PCOD8305849
_publ_section_title
;
Structure prediction by ZEFSAII (Michael W. Deem and Ramdas Pophale) SiO2 
 PCOD8305849
Probable space group: P 43 2 2
;
_chemical_formula_sum "Si O2"
_cell_formula_units_Z 60
_cell_length_a 17.627786
_cell_length_b 17.627786
_cell_length_c 9.062490
_cell_angle_alpha 90.000000
_cell_angle_beta 90.000000
_cell_angle_gamma 90.000000
_cell_volume 2816.067623
_symmetry_space_group_name_H-M "P 43 2 2"
_symmetry_group_IT_number 95
_symmetry_cell_setting 'tetragonal'
loop_
_space_group_symop_operation_xyz
x,y,z
-y,x,3/4+z
-x,-y,1/2+z
y,-x,1/4+z
x,-y,1/2-z
-x,y,-z
y,x,1/4-z
-y,-x,3/4-z
loop_
_atom_site_type_symbol
_atom_site_label
_atom_site_fract_x
_atom_site_fract_y
_atom_site_fract_z
Si Si1 0.419821 0.836103 0.312489
Si Si2 0.316450 0.261061 0.776786
Si Si3 0.604083 0.666962 0.767292
Si Si4 0.724113 0.029545 0.105632
Si Si5 0.500000 0.588508 0.000000
Si Si6 0.132700 0.588335 0.101956
Si Si7 0.712590 0.074342 0.656618
Si Si8 0.180790 0.200419 0.285975
O O1 0.431539 0.747552 0.277748
O O2 0.500676 0.881702 0.307773
O O3 0.392561 0.842994 0.479672
O O4 0.358329 0.870673 0.198587
O O5 0.306038 0.306038 0.625000
O O6 0.327945 0.311723 0.920846
O O7 0.386690 0.204358 0.751752
O O8 0.243622 0.212006 0.821278
O O9 0.609663 0.609663 0.625000
O O10 0.557657 0.638390 0.907256
O O11 0.642739 0.060671 0.166755
O O12 0.779199 0.091047 0.024863
O O13 0.768587 0.000000 0.250000
O O14 0.706422 0.954726 0.010067
O O15 0.460426 0.539575 0.875000
O O16 0.794983 0.113427 0.681365
O O17 0.704527 0.000000 0.750000
O O18 0.218612 0.218612 0.125000
#
# Coordination Sequence:
#
# PCOD8305849 Si02
#       8
#     8   8   8   8   4   8   8   8
#     4  11  23  41  68 101 131 182 230 278 342 415
#     4  11  23  39  65  97 130 173 232 296 337 396
#     4  12  25  44  72  95 132 181 237 297 353 416
#     4  11  26  44  66 102 141 183 225 283 354 412
#     4  12  30  50  68  98 140 182 240 298 378 440
#     4  10  23  42  64  95 140 177 225 276 347 415
#     4  12  22  42  72 100 133 181 235 275 336 421
#     4  11  22  42  71  97 132 178 235 283 331 411
#
# _framework density 21.306307
#
# number of rings (size 3 to 8) (size 9 to 14) (size 15 to 20)
#    0.000    0.800    5.333    2.000    7.467    0.533 
#    0.000    0.000    0.000    2.400    0.000    0.000 
#    0.000    0.000    0.000    0.000    0.000    0.000 
#
# Total GULP energy -743326.309369 kJ/mol
# GULP energy per Si atom -12388.771823 kJ/mol
# Density = 2.125781 g / cm^3
# Si number density = 21.306307 Si / 1000 Ang^3
#
#
#
# Elastic Constant Matrix: (Units=GPa)
#
#
# Indices 1 2 3 4 5 6 
#
# 1 81.1747 39.0921 34.2160 0.0000 0.0000 0.0000
# 2 39.0921 81.1733 34.2163 0.0000 0.0000 0.0000
# 3 34.2160 34.2163 129.2521 0.0000 0.0000 0.0000
# 4 0.0000 0.0000 0.0000 38.3522 0.0000 0.0000
# 5 0.0000 0.0000 0.0000 0.0000 38.3520 0.0000
# 6 0.0000 0.0000 0.0000 0.0000 0.0000 43.7524
#
#
#
# Elastic Compliance Matrix: (Units=1/GPa)
#
#
# Indices 1 2 3 4 5 6 
#
# 1 0.016776 -0.006987 -0.002591 0.000000 0.000000 0.000000
# 2 -0.006987 0.016777 -0.002592 0.000000 0.000000 0.000000
# 3 -0.002591 -0.002592 0.009109 0.000000 0.000000 0.000000
# 4 0.000000 0.000000 0.000000 0.026074 0.000000 0.000000
# 5 0.000000 0.000000 0.000000 0.000000 0.026074 0.000000
# 6 0.000000 0.000000 0.000000 0.000000 0.000000 0.022856
#
#
# Mechanical properties :
#
#
# Convention : Reuss Voigt Hill
#
# Bulk Modulus (GPa) = 54.57975 56.29431 55.43703
# Shear Modulus (GPa) = 33.75806 36.36305 35.06056
#
# Velocity S-wave (km/s) = 3.98479 4.13568 4.06094
# Velocity P-wave (km/s) = 6.84425 7.02025 6.93281
#
# Compressibility (1/GPa) = 0.01832181
#
# Stress axis : x y z
#
# Youngs Moduli (GPa) = 59.60842 59.60718 109.78291
#
# Poissons Ratio (x) = 0.41647 0.28450
# Poissons Ratio (y) = 0.41647 0.28451
# Poissons Ratio (z) = 0.15447 0.15448
#
# Static dielectric constant tensor:
#      x y z
#    x 3.031450 0.000000 0.000000 
#    y 0.000000 3.031410 0.000000 
#    z 0.000000 0.000000 3.776300 
# 
# 
# High freq. dielectric constant tensor:
#      x y z
#    x 1.825180 0.000000 0.000000 
#    y 0.000000 1.825180 0.000000 
#    z 0.000000 0.000000 1.849330 
# 
# From -- ./inp_files/2838.got.cif
#   From: 2010.03.12/outbox.cif.g09.slc.cpg/sg95_2_cif.got.tgz:2838.got - 2010.04.08 20:51:55.
