data_PCOD8305050
_publ_section_title
;
Structure prediction by ZEFSAII (Michael W. Deem and Ramdas Pophale) SiO2 
 PCOD8305050
Probable space group: P 41 2 2
;
_chemical_formula_sum "Si O2"
_cell_formula_units_Z 48
_cell_length_a 8.488838
_cell_length_b 8.488838
_cell_length_c 28.879954
_cell_angle_alpha 90.000000
_cell_angle_beta 90.000000
_cell_angle_gamma 90.000000
_cell_volume 2081.100188
_symmetry_space_group_name_H-M "P 41 2 2"
_symmetry_group_IT_number 91
_symmetry_cell_setting 'tetragonal'
loop_
_space_group_symop_operation_xyz
x,y,z
-y,x,1/4+z
-x,-y,1/2+z
y,-x,3/4+z
x,-y,1/2-z
-x,y,-z
y,x,3/4-z
-y,-x,1/4-z
loop_
_atom_site_type_symbol
_atom_site_label
_atom_site_fract_x
_atom_site_fract_y
_atom_site_fract_z
Si Si1 0.173786 0.322895 0.831786
Si Si2 0.349953 0.666644 0.226792
Si Si3 0.181410 0.668745 0.493034
Si Si4 0.246779 0.334741 0.653967
Si Si5 0.597865 0.402136 0.625000
Si Si6 0.000000 0.802947 0.000000
Si Si7 0.895585 0.901860 0.093150
O O1 0.288278 0.288278 0.875000
O O2 0.224557 0.229090 0.786134
O O3 0.170150 0.509448 0.823737
O O4 0.997553 0.268360 0.843837
O O5 0.291016 0.500000 0.250000
O O6 0.533589 0.685739 0.238801
O O7 0.313904 0.658136 0.171580
O O8 0.285466 0.831254 0.247014
O O9 0.198816 0.757917 0.443668
O O10 0.000000 0.611297 0.500000
O O11 0.414822 0.371124 0.632007
O O12 0.140910 0.274664 0.610950
O O13 0.981073 0.910817 0.044193
O O14 0.024399 0.975602 0.125000
#
# Coordination Sequence:
#
# PCOD8305050 Si02
#       7
#     8   8   8   8   4   4   8
#     4  11  24  43  73 102 140 192 246 317 376 453
#     4  11  24  45  72 110 150 198 256 317 391 464
#     4  11  22  41  74 109 147 192 253 313 382 463
#     4  11  23  45  74 106 144 192 257 313 385 456
#     4  10  22  42  74 112 142 188 248 328 372 462
#     4  12  28  48  72 104 152 204 250 312 394 466
#     4  11  28  48  70 105 151 197 244 312 382 471
#
# _framework density 23.064723999999998
#
# number of rings (size 3 to 8) (size 9 to 14) (size 15 to 20)
#    0.000    1.000    1.667    5.500    7.000    2.667 
#    3.000    0.000    0.000    0.000    0.000    0.000 
#    0.000    0.000    0.000    0.000    0.000    0.000 
#
# Total GULP energy -594903.775873 kJ/mol
# GULP energy per Si atom -12393.828664 kJ/mol
# Density = 2.301223 g / cm^3
# Si number density = 23.064724 Si / 1000 Ang^3
#
#
#
# Elastic Constant Matrix: (Units=GPa)
#
#
# Indices 1 2 3 4 5 6 
#
# 1 120.2187 26.2019 51.9120 0.0000 0.0000 0.0000
# 2 26.2019 120.2162 51.9131 0.0000 0.0000 0.0000
# 3 51.9120 51.9131 169.3582 0.0000 0.0000 0.0000
# 4 0.0000 0.0000 0.0000 -2.7280 0.0000 0.0000
# 5 0.0000 0.0000 0.0000 0.0000 -2.7163 0.0000
# 6 0.0000 0.0000 0.0000 0.0000 0.0000 -1.0727
#
#
#
# Elastic Compliance Matrix: (Units=1/GPa)
#
#
# Indices 1 2 3 4 5 6 
#
# 1 0.009681 -0.000955 -0.002675 0.000000 0.000000 0.000000
# 2 -0.000955 0.009682 -0.002675 0.000000 0.000000 0.000000
# 3 -0.002675 -0.002675 0.007544 0.000000 0.000000 0.000000
# 4 0.000000 0.000000 0.000000 -0.366566 0.000000 0.000000
# 5 0.000000 0.000000 0.000000 0.000000 -0.368144 0.000000
# 6 0.000000 0.000000 0.000000 0.000000 0.000000 -0.932197
#
#
# Mechanical properties :
#
#
# Convention : Reuss Voigt Hill
#
# Bulk Modulus (GPa) = 69.94055 74.42746 72.18401
# Shear Modulus (GPa) = -3.08143 17.34765 7.13311
#
# Velocity S-wave (km/s) = -1.15711 2.74547 1.76050
# Velocity P-wave (km/s) = 5.34829 6.51070 5.95791
#
# Compressibility (1/GPa) = 0.01429786
#
# Stress axis : x y z
#
# Youngs Moduli (GPa) = 103.29148 103.28829 132.54726
#
# Poissons Ratio (x) = 0.09865 0.35454
# Poissons Ratio (y) = 0.09865 0.35456
# Poissons Ratio (z) = 0.27628 0.27629
#
# Static dielectric constant tensor:
#      x y z
#    x 4.344050 0.000000 0.000000 
#    y 0.000000 4.343960 0.000000 
#    z 0.000000 0.000000 4.386210 
# 
# 
# High freq. dielectric constant tensor:
#      x y z
#    x 1.904370 0.000000 0.000000 
#    y 0.000000 1.904370 0.000000 
#    z 0.000000 0.000000 1.931360 
# 
# From -- ./inp_files/8002.got.cif
#   From: 2010.03.12/outbox.cif.g09.slc.cpg/sg91_5_cif.got.tgz:8002.got - 2010.04.08 20:27:58.
