data_PCOD8305716
_publ_section_title
;
Structure prediction by ZEFSAII (Michael W. Deem and Ramdas Pophale) SiO2 
 PCOD8305716
Probable space group: P 42 21 2
;
_chemical_formula_sum "Si O2"
_cell_formula_units_Z 48
_cell_length_a 8.087963
_cell_length_b 8.087963
_cell_length_c 32.695850
_cell_angle_alpha 90.000000
_cell_angle_beta 90.000000
_cell_angle_gamma 90.000000
_cell_volume 2138.803785
_symmetry_space_group_name_H-M "P 42 21 2"
_symmetry_group_IT_number 94
_symmetry_cell_setting 'tetragonal'
loop_
_space_group_symop_operation_xyz
x,y,z
1/2-y,1/2+x,1/2+z
-x,-y,z
1/2+y,1/2-x,1/2+z
1/2+x,1/2-y,1/2-z
1/2-x,1/2+y,1/2-z
y,x,-z
-y,-x,-z
loop_
_atom_site_type_symbol
_atom_site_label
_atom_site_fract_x
_atom_site_fract_y
_atom_site_fract_z
Si Si1 0.697982 0.173997 0.899665
Si Si2 0.684756 0.315245 0.500000
Si Si3 0.000000 0.500000 0.531445
Si Si4 0.500000 0.000000 0.330988
Si Si5 0.696848 0.705327 0.793663
Si Si6 0.450418 0.326646 0.708762
Si Si7 0.500000 0.500000 0.431445
Si Si8 0.937257 0.684094 0.349308
O O1 0.608132 0.114583 0.859369
O O2 0.874321 0.086342 0.901099
O O3 0.733318 0.369683 0.891748
O O4 0.600046 0.133322 0.941232
O O5 0.624491 0.122466 0.493972
O O6 0.636073 0.412978 0.459535
O O7 0.382501 0.885149 0.303264
O O8 0.622540 0.626374 0.752985
O O9 0.889332 0.717114 0.784095
O O10 0.690246 0.576113 0.831693
O O11 0.500000 0.500000 0.686955
O O12 0.322491 0.219023 0.682048
O O13 0.000000 0.500000 0.359382
#
# Coordination Sequence:
#
# PCOD8305716 Si02
#       8
#     8   4   4   4   8   8   4   8
#     4  10  22  41  64  98 132 171 212 260 333 391
#     4   9  18  42  70 107 134 168 221 260 315 386
#     4   9  20  42  72 108 137 176 212 264 323 394
#     4  11  26  40  62  86 133 170 210 278 337 392
#     4  11  26  41  61  89 119 172 225 284 341 389
#     4  11  24  40  64  84 117 164 226 286 334 393
#     4   9  20  38  74  94 128 176 218 252 306 400
#     4  10  24  41  61  93 124 165 223 278 329 399
#
# _framework density 22.442454000000001
#
# number of rings (size 3 to 8) (size 9 to 14) (size 15 to 20)
#    0.000    1.833    0.000    2.000   16.333    0.000 
#    1.500    1.667    0.000    7.000    0.000    0.000 
#    0.000    0.000    0.000    0.000    0.000    0.000 
#
# Total GULP energy -594781.211906 kJ/mol
# GULP energy per Si atom -12391.275248 kJ/mol
# Density = 2.239137 g / cm^3
# Si number density = 22.442454 Si / 1000 Ang^3
#
#
#
# Elastic Constant Matrix: (Units=GPa)
#
#
# Indices 1 2 3 4 5 6 
#
# 1 105.9657 25.4223 24.6866 0.0000 0.0000 0.0000
# 2 25.4223 105.9652 24.6864 0.0000 0.0000 0.0000
# 3 24.6866 24.6864 48.5996 0.0000 0.0000 0.0000
# 4 0.0000 0.0000 0.0000 31.3086 0.0000 0.0000
# 5 0.0000 0.0000 0.0000 0.0000 31.3072 0.0000
# 6 0.0000 0.0000 0.0000 0.0000 0.0000 40.6611
#
#
#
# Elastic Compliance Matrix: (Units=1/GPa)
#
#
# Indices 1 2 3 4 5 6 
#
# 1 0.010911 -0.001505 -0.004778 0.000000 0.000000 0.000000
# 2 -0.001505 0.010911 -0.004778 0.000000 0.000000 0.000000
# 3 -0.004778 -0.004778 0.025431 0.000000 0.000000 0.000000
# 4 0.000000 0.000000 0.000000 0.031940 0.000000 0.000000
# 5 0.000000 0.000000 0.000000 0.000000 0.031942 0.000000
# 6 0.000000 0.000000 0.000000 0.000000 0.000000 0.024594
#
#
# Mechanical properties :
#
#
# Convention : Reuss Voigt Hill
#
# Bulk Modulus (GPa) = 39.79134 45.56901 42.68017
# Shear Modulus (GPa) = 30.07938 33.03770 31.55854
#
# Velocity S-wave (km/s) = 3.66497 3.84097 3.75400
# Velocity P-wave (km/s) = 5.97312 6.32611 6.15215
#
# Compressibility (1/GPa) = 0.02513110
#
# Stress axis : x y z
#
# Youngs Moduli (GPa) = 91.64943 91.64918 39.32286
#
# Poissons Ratio (x) = 0.13789 0.18789
# Poissons Ratio (y) = 0.13789 0.18789
# Poissons Ratio (z) = 0.43792 0.43791
#
# Static dielectric constant tensor:
#      x y z
#    x 4.268310 0.000000 0.000000 
#    y 0.000000 4.268330 0.000000 
#    z 0.000000 0.000000 3.990690 
# 
# 
# High freq. dielectric constant tensor:
#      x y z
#    x 1.890600 0.000000 0.000000 
#    y 0.000000 1.890600 0.000000 
#    z 0.000000 0.000000 1.865480 
# 
# From -- ./inp_files/5686.got.cif
#   From: 2010.03.12/outbox.cif.g09.slc.cpg/sg94_3_cif.got.tgz:5686.got - 2010.04.08 20:48:32.
