data_PCOD8305305
_publ_section_title
;
Structure prediction by ZEFSAII (Michael W. Deem and Ramdas Pophale) SiO2 
 PCOD8305305
Probable space group: P 41 21 2
;
_chemical_formula_sum "Si O2"
_cell_formula_units_Z 56
_cell_length_a 12.099119
_cell_length_b 12.099119
_cell_length_c 19.178174
_cell_angle_alpha 90.000000
_cell_angle_beta 90.000000
_cell_angle_gamma 90.000000
_cell_volume 2807.467588
_symmetry_space_group_name_H-M "P 41 21 2"
_symmetry_group_IT_number 92
_symmetry_cell_setting 'tetragonal'
loop_
_space_group_symop_operation_xyz
x,y,z
1/2-y,1/2+x,1/4+z
-x,-y,1/2+z
1/2+y,1/2-x,3/4+z
1/2+x,1/2-y,3/4-z
1/2-x,1/2+y,1/4-z
y,x,-z
-y,-x,1/2-z
loop_
_atom_site_type_symbol
_atom_site_label
_atom_site_fract_x
_atom_site_fract_y
_atom_site_fract_z
Si Si1 0.431894 0.802306 0.987858
Si Si2 0.054441 0.402627 0.014768
Si Si3 0.661490 0.586414 0.932732
Si Si4 0.888216 0.563363 0.358422
Si Si5 0.187218 0.389285 0.615886
Si Si6 0.257306 0.310665 0.757731
Si Si7 0.500717 0.337265 0.712867
O O1 0.485345 0.786619 0.910635
O O2 0.319484 0.730667 0.994688
O O3 0.522317 0.772144 0.046600
O O4 0.410586 0.927595 0.004319
O O5 0.116258 0.419073 0.941388
O O6 0.092368 0.492926 0.072533
O O7 0.069609 0.277638 0.043860
O O8 0.689276 0.716304 0.917093
O O9 0.613795 0.529562 0.863397
O O10 0.578286 0.578286 0.000000
O O11 0.855363 0.435909 0.341530
O O12 0.794364 0.646287 0.329782
O O13 0.196452 0.384702 0.699115
O O14 0.389112 0.324897 0.757834
O O15 0.573432 0.426569 0.750000
#
# Coordination Sequence:
#
# PCOD8305305 Si02
#       7
#     8   8   8   8   8   8   8
#     4   9  19  36  61  84 117 157 203 243 296 375
#     4  10  21  36  62  85 118 161 204 251 298 371
#     4   9  18  37  61  88 114 154 208 247 300 368
#     4  11  20  38  59  89 121 150 202 253 315 360
#     4   9  19  38  57  88 114 155 196 249 305 367
#     4  10  21  39  56  86 124 151 194 258 310 360
#     4  10  22  40  60  85 120 162 207 245 307 376
#
# _framework density 19.946802000000002
#
# number of rings (size 3 to 8) (size 9 to 14) (size 15 to 20)
#    0.000    2.286    1.429    0.857    2.000    1.143 
#   15.429    0.000    0.000    2.571    0.000    0.000 
#    0.000    0.000    0.000    0.000    0.000    0.000 
#
# Total GULP energy -693831.767985 kJ/mol
# GULP energy per Si atom -12389.853000 kJ/mol
# Density = 1.990140 g / cm^3
# Si number density = 19.946802 Si / 1000 Ang^3
#
#
#
# Elastic Constant Matrix: (Units=GPa)
#
#
# Indices 1 2 3 4 5 6 
#
# 1 73.5648 27.2727 19.2887 0.0000 0.0000 0.0000
# 2 27.2727 73.5627 19.2909 0.0000 0.0000 0.0000
# 3 19.2887 19.2909 86.2638 0.0000 0.0000 0.0000
# 4 0.0000 0.0000 0.0000 26.5042 0.0000 0.0000
# 5 0.0000 0.0000 0.0000 0.0000 26.5045 0.0000
# 6 0.0000 0.0000 0.0000 0.0000 0.0000 29.3721
#
#
#
# Elastic Compliance Matrix: (Units=1/GPa)
#
#
# Indices 1 2 3 4 5 6 
#
# 1 0.016223 -0.005379 -0.002425 0.000000 0.000000 0.000000
# 2 -0.005379 0.016224 -0.002425 0.000000 0.000000 0.000000
# 3 -0.002425 -0.002425 0.012677 0.000000 0.000000 0.000000
# 4 0.000000 0.000000 0.000000 0.037730 0.000000 0.000000
# 5 0.000000 0.000000 0.000000 0.000000 0.037729 0.000000
# 6 0.000000 0.000000 0.000000 0.000000 0.000000 0.034046
#
#
# Mechanical properties :
#
#
# Convention : Reuss Voigt Hill
#
# Bulk Modulus (GPa) = 40.54103 40.56623 40.55363
# Shear Modulus (GPa) = 27.27629 27.64543 27.46086
#
# Velocity S-wave (km/s) = 3.70192 3.72688 3.71442
# Velocity P-wave (km/s) = 6.21619 6.23706 6.22663
#
# Compressibility (1/GPa) = 0.02466637
#
# Stress axis : x y z
#
# Youngs Moduli (GPa) = 61.63975 61.63702 78.88361
#
# Poissons Ratio (x) = 0.33153 0.19127
# Poissons Ratio (y) = 0.33155 0.19133
# Poissons Ratio (z) = 0.14946 0.14950
#
# Static dielectric constant tensor:
#      x y z
#    x 3.648080 0.000000 0.000000 
#    y 0.000000 3.648070 0.000000 
#    z 0.000000 0.000000 3.734470 
# 
# 
# High freq. dielectric constant tensor:
#      x y z
#    x 1.760040 0.000000 0.000000 
#    y 0.000000 1.760040 0.000000 
#    z 0.000000 0.000000 1.783840 
# 
# From -- ./inp_files/3560.got.cif
#   From: 2010.03.12/outbox.cif.g09.slc.cpg/sg92_2_cif.got.tgz:3560.got - 2010.04.08 20:41:11.
