data_PCOD8305691
_publ_section_title
;
Structure prediction by ZEFSAII (Michael W. Deem and Ramdas Pophale) SiO2 
 PCOD8305691
Probable space group: P 42 21 2
;
_chemical_formula_sum "Si O2"
_cell_formula_units_Z 40
_cell_length_a 9.187393
_cell_length_b 9.187393
_cell_length_c 23.345394
_cell_angle_alpha 90.000000
_cell_angle_beta 90.000000
_cell_angle_gamma 90.000000
_cell_volume 1970.542456
_symmetry_space_group_name_H-M "P 42 21 2"
_symmetry_group_IT_number 94
_symmetry_cell_setting 'tetragonal'
loop_
_space_group_symop_operation_xyz
x,y,z
1/2-y,1/2+x,1/2+z
-x,-y,z
1/2+y,1/2-x,1/2+z
1/2+x,1/2-y,1/2-z
1/2-x,1/2+y,1/2-z
y,x,-z
-y,-x,-z
loop_
_atom_site_type_symbol
_atom_site_label
_atom_site_fract_x
_atom_site_fract_y
_atom_site_fract_z
Si Si1 0.997528 0.334687 0.281460
Si Si2 0.731442 0.507487 0.488355
Si Si3 0.320481 0.326301 0.313529
Si Si4 0.490304 0.838850 0.394146
Si Si5 0.753989 0.385776 0.366533
O O1 0.932001 0.223220 0.235607
O O2 0.905667 0.332181 0.340202
O O3 0.000000 0.500000 0.256604
O O4 0.158311 0.277235 0.296226
O O5 0.669845 0.669845 0.500000
O O6 0.601287 0.398714 0.500000
O O7 0.853752 0.484760 0.536918
O O8 0.792094 0.473495 0.425070
O O9 0.368098 0.249763 0.372912
O O10 0.325812 0.500717 0.323453
O O11 0.345964 0.755656 0.372803
O O12 0.500000 0.000000 0.367670
#
# Coordination Sequence:
#
# PCOD8305691 Si02
#       5
#     8   8   8   8   8
#     4  10  23  39  60  88 118 160 204 254 306 367
#     4   9  17  35  62  91 116 156 203 246 308 365
#     4  11  21  38  59  85 119 157 206 250 305 364
#     4  11  22  36  60  92 124 156 198 255 307 369
#     4  10  21  41  64  88 122 159 206 255 308 372
#
# _framework density 20.29898
#
# number of rings (size 3 to 8) (size 9 to 14) (size 15 to 20)
#    0.000    1.800    2.000    2.400    0.000    5.600 
#    0.000    5.000    0.000    0.000    0.000    0.000 
#    0.000    0.000    0.000    0.000    0.000    0.000 
#
# Total GULP energy -495772.842388 kJ/mol
# GULP energy per Si atom -12394.321060 kJ/mol
# Density = 2.025278 g / cm^3
# Si number density = 20.298980 Si / 1000 Ang^3
#
#
#
# Elastic Constant Matrix: (Units=GPa)
#
#
# Indices 1 2 3 4 5 6 
#
# 1 89.8424 32.9517 31.6403 0.0000 0.0000 0.0000
# 2 32.9517 89.8423 31.6403 0.0000 0.0000 0.0000
# 3 31.6403 31.6403 122.5000 0.0000 0.0000 0.0000
# 4 0.0000 0.0000 0.0000 19.1252 0.0000 0.0000
# 5 0.0000 0.0000 0.0000 0.0000 19.1282 0.0000
# 6 0.0000 0.0000 0.0000 0.0000 0.0000 25.6763
#
#
#
# Elastic Compliance Matrix: (Units=1/GPa)
#
#
# Indices 1 2 3 4 5 6 
#
# 1 0.013486 -0.004092 -0.002426 0.000000 0.000000 0.000000
# 2 -0.004092 0.013486 -0.002426 0.000000 0.000000 0.000000
# 3 -0.002426 -0.002426 0.009417 0.000000 0.000000 0.000000
# 4 0.000000 0.000000 0.000000 0.052287 0.000000 0.000000
# 5 0.000000 0.000000 0.000000 0.000000 0.052279 0.000000
# 6 0.000000 0.000000 0.000000 0.000000 0.000000 0.038946
#
#
# Mechanical properties :
#
#
# Convention : Reuss Voigt Hill
#
# Bulk Modulus (GPa) = 54.05588 54.96103 54.50845
# Shear Modulus (GPa) = 24.51506 26.51609 25.51557
#
# Velocity S-wave (km/s) = 3.47897 3.61817 3.54925
# Velocity P-wave (km/s) = 6.54410 6.67753 6.61115
#
# Compressibility (1/GPa) = 0.01849938
#
# Stress axis : x y z
#
# Youngs Moduli (GPa) = 74.15174 74.15169 106.19455
#
# Poissons Ratio (x) = 0.30341 0.25767
# Poissons Ratio (y) = 0.30341 0.25767
# Poissons Ratio (z) = 0.17992 0.17992
#
# Static dielectric constant tensor:
#      x y z
#    x 3.585370 0.000000 0.000000 
#    y 0.000000 3.585370 0.000000 
#    z 0.000000 0.000000 3.986050 
# 
# 
# High freq. dielectric constant tensor:
#      x y z
#    x 1.779190 0.000000 0.000000 
#    y 0.000000 1.779190 0.000000 
#    z 0.000000 0.000000 1.805250 
# 
# From -- ./inp_files/4934.got.cif
#   From: 2010.03.12/outbox.cif.g09.slc.cpg/sg94_3_cif.got.tgz:4934.got - 2010.04.08 20:48:32.
