data_PCOD8305971
_publ_section_title
;
Structure prediction by ZEFSAII (Michael W. Deem and Ramdas Pophale) SiO2 
 PCOD8305971
Probable space group: P 43 21 2
;
_chemical_formula_sum "Si O2"
_cell_formula_units_Z 40
_cell_length_a 9.192160
_cell_length_b 9.192160
_cell_length_c 20.364497
_cell_angle_alpha 90.000000
_cell_angle_beta 90.000000
_cell_angle_gamma 90.000000
_cell_volume 1720.714577
_symmetry_space_group_name_H-M "P 43 21 2"
_symmetry_group_IT_number 96
_symmetry_cell_setting 'tetragonal'
loop_
_space_group_symop_operation_xyz
x,y,z
1/2-y,1/2+x,3/4+z
-x,-y,1/2+z
1/2+y,1/2-x,1/4+z
1/2+x,1/2-y,1/4-z
1/2-x,1/2+y,3/4-z
y,x,-z
-y,-x,1/2-z
loop_
_atom_site_type_symbol
_atom_site_label
_atom_site_fract_x
_atom_site_fract_y
_atom_site_fract_z
Si Si1 0.852381 0.067328 0.873503
Si Si2 0.173394 0.503747 0.938308
Si Si3 0.522610 0.477391 0.750000
Si Si4 0.619355 0.128539 0.560026
Si Si5 0.674490 0.733551 0.686558
Si Si6 0.966217 0.033784 0.250000
O O1 0.866878 0.236774 0.893279
O O2 0.695056 0.020595 0.847197
O O3 0.970249 0.031291 0.817537
O O4 0.872894 0.960096 0.936820
O O5 0.152752 0.674170 0.918285
O O6 0.205041 0.400803 0.876911
O O7 0.292961 0.490718 0.995528
O O8 0.026720 0.434493 0.965533
O O9 0.549850 0.638390 0.722410
O O10 0.645320 0.216316 0.491863
#
# Coordination Sequence:
#
# PCOD8305971 Si02
#       6
#     8   8   4   8   8   4
#     4  11  25  49  70 109 149 202 239 321 367 459
#     4  12  27  46  78 110 144 197 253 310 379 462
#     4  10  24  44  72  98 156 194 246 306 382 428
#     4  11  28  45  75 111 152 191 260 301 387 454
#     4  11  26  47  74 112 149 197 249 319 380 451
#     4  12  24  48  76 102 152 190 252 306 382 444
#
# _framework density 23.246157
#
# number of rings (size 3 to 8) (size 9 to 14) (size 15 to 20)
#    0.000    0.800    4.000    1.200    8.400    4.800 
#    0.000    0.000    0.000    0.000    0.000    0.000 
#    0.000    0.000    0.000    0.000    0.000    0.000 
#
# Total GULP energy -495563.722198 kJ/mol
# GULP energy per Si atom -12389.093055 kJ/mol
# Density = 2.319325 g / cm^3
# Si number density = 23.246157 Si / 1000 Ang^3
#
#
#
# Elastic Constant Matrix: (Units=GPa)
#
#
# Indices 1 2 3 4 5 6 
#
# 1 108.4169 54.4015 21.5645 0.0000 0.0000 0.0000
# 2 54.4015 108.4178 21.5640 0.0000 0.0000 0.0000
# 3 21.5645 21.5640 95.4000 0.0000 0.0000 0.0000
# 4 0.0000 0.0000 0.0000 29.0430 0.0000 0.0000
# 5 0.0000 0.0000 0.0000 0.0000 29.0426 0.0000
# 6 0.0000 0.0000 0.0000 0.0000 0.0000 36.9788
#
#
#
# Elastic Compliance Matrix: (Units=1/GPa)
#
#
# Indices 1 2 3 4 5 6 
#
# 1 0.012523 -0.005990 -0.001477 0.000000 0.000000 0.000000
# 2 -0.005990 0.012523 -0.001477 0.000000 0.000000 0.000000
# 3 -0.001477 -0.001477 0.011150 0.000000 0.000000 0.000000
# 4 0.000000 0.000000 0.000000 0.034432 0.000000 0.000000
# 5 0.000000 0.000000 0.000000 0.000000 0.034432 0.000000
# 6 0.000000 0.000000 0.000000 0.000000 0.000000 0.027043
#
#
# Mechanical properties :
#
#
# Convention : Reuss Voigt Hill
#
# Bulk Modulus (GPa) = 54.61842 56.36607 55.49225
# Shear Modulus (GPa) = 32.03239 33.32655 32.67947
#
# Velocity S-wave (km/s) = 3.71612 3.79045 3.75347
# Velocity P-wave (km/s) = 6.47761 6.59218 6.53514
#
# Compressibility (1/GPa) = 0.01830884
#
# Stress axis : x y z
#
# Youngs Moduli (GPa) = 79.85256 79.85338 89.68796
#
# Poissons Ratio (x) = 0.47833 0.13245
# Poissons Ratio (y) = 0.47832 0.13244
# Poissons Ratio (z) = 0.11792 0.11792
#
# Static dielectric constant tensor:
#      x y z
#    x 4.188890 0.000000 0.000000 
#    y 0.000000 4.188880 0.000000 
#    z 0.000000 0.000000 4.439170 
# 
# 
# High freq. dielectric constant tensor:
#      x y z
#    x 1.917530 0.000000 0.000000 
#    y 0.000000 1.917530 0.000000 
#    z 0.000000 0.000000 1.932200 
# 
# From -- ./inp_files/3835.got.cif
#   From: 2010.03.12/outbox.cif.g09.slc.cpg/sg96_2_cif.got.tgz:3835.got - 2010.04.08 20:56:49.
