data_PCOD8305609
_publ_section_title
;
Structure prediction by ZEFSAII (Michael W. Deem and Ramdas Pophale) SiO2 
 PCOD8305609
Probable space group: P 42 2 2
;
_chemical_formula_sum "Si O2"
_cell_formula_units_Z 22
_cell_length_a 5.258875
_cell_length_b 5.258875
_cell_length_c 31.293534
_cell_angle_alpha 90.000000
_cell_angle_beta 90.000000
_cell_angle_gamma 90.000000
_cell_volume 865.446662
_symmetry_space_group_name_H-M "P 42 2 2"
_symmetry_group_IT_number 93
_symmetry_cell_setting 'tetragonal'
loop_
_space_group_symop_operation_xyz
x,y,z
-y,x,1/2+z
-x,-y,z
y,-x,1/2+z
x,-y,-z
-x,y,-z
y,x,1/2-z
-y,-x,1/2-z
loop_
_atom_site_type_symbol
_atom_site_label
_atom_site_fract_x
_atom_site_fract_y
_atom_site_fract_z
Si Si1 0.744694 0.843348 0.568092
Si Si2 0.500000 0.500000 0.638577
Si Si3 0.839313 0.252037 0.798025
Si Si4 0.500000 0.000000 0.000000
O O1 0.654064 0.699283 0.610225
O O2 0.812390 0.663017 0.528957
O O3 0.500000 0.000000 0.552050
O O4 0.000000 0.000000 0.580133
O O5 0.273443 0.611752 0.668087
O O6 0.733806 0.266195 0.750000
O O7 0.000000 0.500000 0.807289
O O8 0.000000 0.000000 0.806299
#
# Coordination Sequence:
#
# PCOD8305609 Si02
#       4
#     8   4   8   2
#     4  12  30  53  79 122 158 211 274 343 415 504
#     4  12  29  51  84 118 164 214 270 349 419 506
#     4  11  29  52  79 117 161 215 274 336 415 502
#     4  12  30  54  84 108 168 218 274 338 436 492
#
# _framework density 25.420397000000001
#
# number of rings (size 3 to 8) (size 9 to 14) (size 15 to 20)
#    0.000    0.364    0.000    4.364   10.182   25.455 
#    0.000    0.000    0.000    0.000    0.000    0.000 
#    0.000    0.000    0.000    0.000    0.000    0.000 
#
# Total GULP energy -272824.259479 kJ/mol
# GULP energy per Si atom -12401.102704 kJ/mol
# Density = 2.536254 g / cm^3
# Si number density = 25.420397 Si / 1000 Ang^3
#
#
#
# Elastic Constant Matrix: (Units=GPa)
#
#
# Indices 1 2 3 4 5 6 
#
# 1 188.9091 97.4243 93.5711 0.0000 0.0000 0.0000
# 2 97.4243 188.9083 93.5710 0.0000 0.0000 0.0000
# 3 93.5711 93.5710 215.2535 0.0000 0.0000 0.0000
# 4 0.0000 0.0000 0.0000 21.5316 0.0000 0.0000
# 5 0.0000 0.0000 0.0000 0.0000 21.5315 0.0000
# 6 0.0000 0.0000 0.0000 0.0000 0.0000 21.4556
#
#
#
# Elastic Compliance Matrix: (Units=1/GPa)
#
#
# Indices 1 2 3 4 5 6 
#
# 1 0.007905 -0.003026 -0.002121 0.000000 0.000000 0.000000
# 2 -0.003026 0.007905 -0.002121 0.000000 0.000000 0.000000
# 3 -0.002121 -0.002121 0.006489 0.000000 0.000000 0.000000
# 4 0.000000 0.000000 0.000000 0.046443 0.000000 0.000000
# 5 0.000000 0.000000 0.000000 0.000000 0.046444 0.000000
# 6 0.000000 0.000000 0.000000 0.000000 0.000000 0.046608
#
#
# Mechanical properties :
#
#
# Convention : Reuss Voigt Hill
#
# Bulk Modulus (GPa) = 128.80561 129.13378 128.96969
# Shear Modulus (GPa) = 27.94598 33.47070 30.70834
#
# Velocity S-wave (km/s) = 3.31925 3.63255 3.47943
# Velocity P-wave (km/s) = 8.09136 8.27668 8.18454
#
# Compressibility (1/GPa) = 0.00776364
#
# Stress axis : x y z
#
# Youngs Moduli (GPa) = 126.50808 126.50750 154.09715
#
# Poissons Ratio (x) = 0.38283 0.32679
# Poissons Ratio (y) = 0.38284 0.32679
# Poissons Ratio (z) = 0.26828 0.26828
#
# Static dielectric constant tensor:
#      x y z
#    x 4.572340 0.000000 0.000000 
#    y 0.000000 4.572340 0.000000 
#    z 0.000000 0.000000 5.320860 
# 
# 
# High freq. dielectric constant tensor:
#      x y z
#    x 2.029670 0.000000 0.000000 
#    y 0.000000 2.029670 0.000000 
#    z 0.000000 0.000000 2.041030 
# 
# From -- ./inp_files/7507.got.cif
#   From: 2010.03.12/outbox.cif.g09.slc.cpg/sg93_4_cif.got.tgz:7507.got - 2010.04.08 20:44:19.
