data_PCOD8305916
_publ_section_title
;
Structure prediction by ZEFSAII (Michael W. Deem and Ramdas Pophale) SiO2 
 PCOD8305916
Probable space group: P 43 21 2
;
_chemical_formula_sum "Si O2"
_cell_formula_units_Z 48
_cell_length_a 11.375676
_cell_length_b 11.375676
_cell_length_c 17.388297
_cell_angle_alpha 90.000000
_cell_angle_beta 90.000000
_cell_angle_gamma 90.000000
_cell_volume 2250.150039
_symmetry_space_group_name_H-M "P 43 21 2"
_symmetry_group_IT_number 96
_symmetry_cell_setting 'tetragonal'
loop_
_space_group_symop_operation_xyz
x,y,z
1/2-y,1/2+x,3/4+z
-x,-y,1/2+z
1/2+y,1/2-x,1/4+z
1/2+x,1/2-y,1/4-z
1/2-x,1/2+y,3/4-z
y,x,-z
-y,-x,1/2-z
loop_
_atom_site_type_symbol
_atom_site_label
_atom_site_fract_x
_atom_site_fract_y
_atom_site_fract_z
Si Si1 0.590102 0.449514 0.665066
Si Si2 0.560921 0.136151 0.361972
Si Si3 0.281115 0.307371 0.157376
Si Si4 0.080051 0.593556 0.803301
Si Si5 0.626040 0.513914 0.067320
Si Si6 0.219073 0.115737 0.727395
O O1 0.602831 0.397170 0.750000
O O2 0.636339 0.581395 0.660727
O O3 0.454170 0.451341 0.639983
O O4 0.668629 0.367850 0.608950
O O5 0.701033 0.145441 0.372118
O O6 0.534267 0.143195 0.270765
O O7 0.490799 0.239345 0.405414
O O8 0.520621 0.010679 0.396806
O O9 0.165597 0.327174 0.104530
O O10 0.237782 0.275235 0.243621
O O11 0.981928 0.680582 0.770260
O O12 0.611751 0.611751 0.000000
O O13 0.580685 0.388956 0.033508
#
# Coordination Sequence:
#
# PCOD8305916 Si02
#       6
#     8   8   8   8   8   8
#     4  10  21  35  65  92 121 166 210 253 316 386
#     4  11  23  35  66  95 124 164 212 263 317 375
#     4  10  21  38  64  92 126 161 207 271 321 365
#     4  11  21  39  61  96 124 160 205 264 325 367
#     4   9  20  39  62  91 130 160 204 263 311 369
#     4   9  19  40  61  87 124 161 199 258 319 369
#
# _framework density 21.331910000000001
#
# number of rings (size 3 to 8) (size 9 to 14) (size 15 to 20)
#    0.000    2.000    1.667    1.500    4.667    2.667 
#    0.000    5.000    0.000    0.000    0.000    0.000 
#    0.000    0.000    0.000    0.000    0.000    0.000 
#
# Total GULP energy -595218.122625 kJ/mol
# GULP energy per Si atom -12400.377555 kJ/mol
# Density = 2.128336 g / cm^3
# Si number density = 21.331910 Si / 1000 Ang^3
#
#
#
# Elastic Constant Matrix: (Units=GPa)
#
#
# Indices 1 2 3 4 5 6 
#
# 1 48.0115 3.3435 20.3993 0.0000 0.0000 0.0000
# 2 3.3435 48.0115 20.3994 0.0000 0.0000 0.0000
# 3 20.3993 20.3994 136.0723 0.0000 0.0000 0.0000
# 4 0.0000 0.0000 0.0000 26.8668 0.0000 0.0000
# 5 0.0000 0.0000 0.0000 0.0000 26.8668 0.0000
# 6 0.0000 0.0000 0.0000 0.0000 0.0000 15.5102
#
#
#
# Elastic Compliance Matrix: (Units=1/GPa)
#
#
# Indices 1 2 3 4 5 6 
#
# 1 0.022246 -0.000141 -0.003314 0.000000 0.000000 0.000000
# 2 -0.000141 0.022246 -0.003314 0.000000 0.000000 0.000000
# 3 -0.003314 -0.003314 0.008343 0.000000 0.000000 0.000000
# 4 0.000000 0.000000 0.000000 0.037221 0.000000 0.000000
# 5 0.000000 0.000000 0.000000 0.000000 0.037221 0.000000
# 6 0.000000 0.000000 0.000000 0.000000 0.000000 0.064474
#
#
# Mechanical properties :
#
#
# Convention : Reuss Voigt Hill
#
# Bulk Modulus (GPa) = 25.44717 35.59775 30.52246
# Shear Modulus (GPa) = 22.89514 26.37896 24.63705
#
# Velocity S-wave (km/s) = 3.27965 3.52034 3.40213
# Velocity P-wave (km/s) = 5.12801 5.76607 5.45638
#
# Compressibility (1/GPa) = 0.03929711
#
# Stress axis : x y z
#
# Youngs Moduli (GPa) = 44.95147 44.95147 119.86609
#
# Poissons Ratio (x) = 0.00635 0.39722
# Poissons Ratio (y) = 0.00635 0.39722
# Poissons Ratio (z) = 0.14896 0.14896
#
# Static dielectric constant tensor:
#      x y z
#    x 3.625030 0.000000 0.000000 
#    y 0.000000 3.625030 0.000000 
#    z 0.000000 0.000000 4.111910 
# 
# 
# High freq. dielectric constant tensor:
#      x y z
#    x 1.819670 0.000000 0.000000 
#    y 0.000000 1.819670 0.000000 
#    z 0.000000 0.000000 1.848120 
# 
# From -- ./inp_files/3104.got.cif
#   From: 2010.03.12/outbox.cif.g09.slc.cpg/sg96_2_cif.got.tgz:3104.got - 2010.04.08 20:56:49.
