data_PCOD8305995
_publ_section_title
;
Structure prediction by ZEFSAII (Michael W. Deem and Ramdas Pophale) SiO2 
 PCOD8305995
Probable space group: P 43 21 2
;
_chemical_formula_sum "Si O2"
_cell_formula_units_Z 48
_cell_length_a 9.326923
_cell_length_b 9.326923
_cell_length_c 25.260350
_cell_angle_alpha 90.000000
_cell_angle_beta 90.000000
_cell_angle_gamma 90.000000
_cell_volume 2197.435551
_symmetry_space_group_name_H-M "P 43 21 2"
_symmetry_group_IT_number 96
_symmetry_cell_setting 'tetragonal'
loop_
_space_group_symop_operation_xyz
x,y,z
1/2-y,1/2+x,3/4+z
-x,-y,1/2+z
1/2+y,1/2-x,1/4+z
1/2+x,1/2-y,1/4-z
1/2-x,1/2+y,3/4-z
y,x,-z
-y,-x,1/2-z
loop_
_atom_site_type_symbol
_atom_site_label
_atom_site_fract_x
_atom_site_fract_y
_atom_site_fract_z
Si Si1 0.464573 0.822270 0.037867
Si Si2 0.359591 0.690698 0.929576
Si Si3 0.507267 0.492734 0.250000
Si Si4 0.167763 0.832238 0.750000
Si Si5 0.229736 0.470999 0.190395
Si Si6 0.931288 0.736348 0.431934
Si Si7 0.029844 0.093193 0.335609
O O1 0.608185 0.915034 0.043903
O O2 0.468493 0.689755 0.078731
O O3 0.329167 0.916792 0.053048
O O4 0.442821 0.762315 0.978582
O O5 0.395185 0.790599 0.879322
O O6 0.417733 0.536009 0.913665
O O7 0.189335 0.669702 0.935438
O O8 0.340969 0.467338 0.238587
O O9 0.596051 0.442193 0.198211
O O10 0.159331 0.693637 0.713740
O O11 0.019492 0.817812 0.783481
O O12 0.306231 0.522869 0.136696
#
# Coordination Sequence:
#
# PCOD8305995 Si02
#       7
#     8   8   4   4   8   8   8
#     4  12  29  45  74 113 146 190 248 316 370 447
#     4  12  25  50  73 104 150 197 244 306 375 459
#     4  11  24  45  72 110 150 185 248 313 362 446
#     4  11  22  45  78 104 144 189 248 301 370 450
#     4  12  28  47  80 106 145 204 246 307 382 449
#     4  11  25  44  76 112 141 192 249 303 371 452
#     4  12  26  47  73 107 154 190 241 311 377 445
#
# _framework density 21.843643
#
# number of rings (size 3 to 8) (size 9 to 14) (size 15 to 20)
#    0.000    0.333    6.667    1.000    4.667    1.333 
#    0.000    0.000    0.000    0.000    0.000    0.000 
#    0.000    0.000    0.000    0.000    0.000    0.000 
#
# Total GULP energy -595244.057941 kJ/mol
# GULP energy per Si atom -12400.917874 kJ/mol
# Density = 2.179393 g / cm^3
# Si number density = 21.843643 Si / 1000 Ang^3
#
#
#
# Elastic Constant Matrix: (Units=GPa)
#
#
# Indices 1 2 3 4 5 6 
#
# 1 139.1911 61.1181 47.8735 0.0000 0.0000 0.0000
# 2 61.1181 139.1918 47.8735 0.0000 0.0000 0.0000
# 3 47.8735 47.8735 130.0722 0.0000 0.0000 0.0000
# 4 0.0000 0.0000 0.0000 30.1097 0.0000 0.0000
# 5 0.0000 0.0000 0.0000 0.0000 30.1097 0.0000
# 6 0.0000 0.0000 0.0000 0.0000 0.0000 30.3856
#
#
#
# Elastic Compliance Matrix: (Units=1/GPa)
#
#
# Indices 1 2 3 4 5 6 
#
# 1 0.009433 -0.003375 -0.002230 0.000000 0.000000 0.000000
# 2 -0.003375 0.009433 -0.002230 0.000000 0.000000 0.000000
# 3 -0.002230 -0.002230 0.009329 0.000000 0.000000 0.000000
# 4 0.000000 0.000000 0.000000 0.033212 0.000000 0.000000
# 5 0.000000 0.000000 0.000000 0.000000 0.033212 0.000000
# 6 0.000000 0.000000 0.000000 0.000000 0.000000 0.032910
#
#
# Mechanical properties :
#
#
# Convention : Reuss Voigt Hill
#
# Bulk Modulus (GPa) = 79.82957 80.24280 80.03618
# Shear Modulus (GPa) = 33.92715 34.89368 34.41041
#
# Velocity S-wave (km/s) = 3.94532 4.00112 3.97332
# Velocity P-wave (km/s) = 7.57491 7.62628 7.60064
#
# Compressibility (1/GPa) = 0.01252669
#
# Stress axis : x y z
#
# Youngs Moduli (GPa) = 106.00757 106.00821 107.18891
#
# Poissons Ratio (x) = 0.35780 0.23900
# Poissons Ratio (y) = 0.35780 0.23900
# Poissons Ratio (z) = 0.23636 0.23636
#
# Static dielectric constant tensor:
#      x y z
#    x 4.091210 0.000000 0.000000 
#    y 0.000000 4.091200 0.000000 
#    z 0.000000 0.000000 4.321920 
# 
# 
# High freq. dielectric constant tensor:
#      x y z
#    x 1.866970 0.000000 0.000000 
#    y 0.000000 1.866970 0.000000 
#    z 0.000000 0.000000 1.869160 
# 
# From -- ./inp_files/4516.got.cif
#   From: 2010.03.12/outbox.cif.g09.slc.cpg/sg96_3_cif.got.tgz:4516.got - 2010.04.08 20:56:49.
