data_PCOD8305005
_publ_section_title
;
Structure prediction by ZEFSAII (Michael W. Deem and Ramdas Pophale) SiO2 
 PCOD8305005
Probable space group: P 41 2 2
;
_chemical_formula_sum "Si O2"
_cell_formula_units_Z 44
_cell_length_a 11.754088
_cell_length_b 11.754088
_cell_length_c 15.774967
_cell_angle_alpha 90.000000
_cell_angle_beta 90.000000
_cell_angle_gamma 90.000000
_cell_volume 2179.447115
_symmetry_space_group_name_H-M "P 41 2 2"
_symmetry_group_IT_number 91
_symmetry_cell_setting 'tetragonal'
loop_
_space_group_symop_operation_xyz
x,y,z
-y,x,1/4+z
-x,-y,1/2+z
y,-x,3/4+z
x,-y,1/2-z
-x,y,-z
y,x,3/4-z
-y,-x,1/4-z
loop_
_atom_site_type_symbol
_atom_site_label
_atom_site_fract_x
_atom_site_fract_y
_atom_site_fract_z
Si Si1 0.374648 0.709936 0.537967
Si Si2 0.188183 0.318401 0.234611
Si Si3 0.641049 0.115665 0.789707
Si Si4 0.622363 0.049846 0.980891
Si Si5 0.362417 0.637584 0.125000
Si Si6 0.552790 0.765479 0.183139
O O1 0.500000 0.686996 0.500000
O O2 0.359053 0.640948 0.625000
O O3 0.352549 0.846036 0.545974
O O4 0.271990 0.667097 0.479195
O O5 0.256220 0.204222 0.214896
O O6 0.249128 0.370538 0.317163
O O7 0.184821 0.407817 0.157041
O O8 0.055881 0.290112 0.258373
O O9 0.614165 0.103330 0.887863
O O10 0.526111 0.148743 0.737891
O O11 0.688685 0.000000 0.750000
O O12 0.500000 0.995133 0.000000
O O13 0.479440 0.647327 0.176510
#
# Coordination Sequence:
#
# PCOD8305005 Si02
#       6
#     8   8   8   8   4   8
#     4  11  25  40  62  94 132 176 214 267 334 405
#     4  11  22  40  63  97 124 168 219 274 323 392
#     4  11  23  40  66  98 127 174 222 278 332 392
#     4  11  21  41  65  91 129 172 218 267 330 393
#     4  10  22  32  60  92 130 156 202 268 328 376
#     4  11  22  38  59  95 129 164 220 257 326 396
#
# _framework density 20.188607000000001
#
# number of rings (size 3 to 8) (size 9 to 14) (size 15 to 20)
#    0.000    1.091    1.818    7.091    3.818    0.000 
#    0.000    0.000    4.000    0.000    0.000    0.000 
#    0.000    0.000    0.000    0.000    0.000    0.000 
#
# Total GULP energy -545218.466983 kJ/mol
# GULP energy per Si atom -12391.328795 kJ/mol
# Density = 2.014266 g / cm^3
# Si number density = 20.188607 Si / 1000 Ang^3
#
#
#
# Elastic Constant Matrix: (Units=GPa)
#
#
# Indices 1 2 3 4 5 6 
#
# 1 116.4183 51.5894 39.4895 0.0000 0.0000 0.0000
# 2 51.5894 116.4189 39.4901 0.0000 0.0000 0.0000
# 3 39.4895 39.4901 111.0406 0.0000 0.0000 0.0000
# 4 0.0000 0.0000 0.0000 29.4221 0.0000 0.0000
# 5 0.0000 0.0000 0.0000 0.0000 29.4218 0.0000
# 6 0.0000 0.0000 0.0000 0.0000 0.0000 8.9969
#
#
#
# Elastic Compliance Matrix: (Units=1/GPa)
#
#
# Indices 1 2 3 4 5 6 
#
# 1 0.011286 -0.004139 -0.002542 0.000000 0.000000 0.000000
# 2 -0.004139 0.011286 -0.002542 0.000000 0.000000 0.000000
# 3 -0.002542 -0.002542 0.010814 0.000000 0.000000 0.000000
# 4 0.000000 0.000000 0.000000 0.033988 0.000000 0.000000
# 5 0.000000 0.000000 0.000000 0.000000 0.033988 0.000000
# 6 0.000000 0.000000 0.000000 0.000000 0.000000 0.111150
#
#
# Mechanical properties :
#
#
# Convention : Reuss Voigt Hill
#
# Bulk Modulus (GPa) = 66.93153 67.22396 67.07775
# Shear Modulus (GPa) = 21.19209 27.78876 24.49043
#
# Velocity S-wave (km/s) = 3.24343 3.71409 3.48671
# Velocity P-wave (km/s) = 6.87398 7.19464 7.03614
#
# Compressibility (1/GPa) = 0.01494064
#
# Stress axis : x y z
#
# Youngs Moduli (GPa) = 88.60499 88.60518 92.47673
#
# Poissons Ratio (x) = 0.36675 0.23504
# Poissons Ratio (y) = 0.36675 0.23505
# Poissons Ratio (z) = 0.22520 0.22521
#
# Static dielectric constant tensor:
#      x y z
#    x 3.617240 0.000000 0.000000 
#    y 0.000000 3.617240 0.000000 
#    z 0.000000 0.000000 3.940900 
# 
# 
# High freq. dielectric constant tensor:
#      x y z
#    x 1.777760 0.000000 0.000000 
#    y 0.000000 1.777760 0.000000 
#    z 0.000000 0.000000 1.804840 
# 
# From -- ./inp_files/21061.got.cif
#   From: 2010.03.12/outbox.cif.g09.slc.cpg/sg91_11_cif.got.tgz:21061.got - 2010.04.08 20:27:58.
