data_PCOD8305488
_publ_section_title
;
Structure prediction by ZEFSAII (Michael W. Deem and Ramdas Pophale) SiO2 
 PCOD8305488
Probable space group: P 41 21 2
;
_chemical_formula_sum "Si O2"
_cell_formula_units_Z 48
_cell_length_a 14.403312
_cell_length_b 14.403312
_cell_length_c 9.905102
_cell_angle_alpha 90.000000
_cell_angle_beta 90.000000
_cell_angle_gamma 90.000000
_cell_volume 2054.866863
_symmetry_space_group_name_H-M "P 41 21 2"
_symmetry_group_IT_number 92
_symmetry_cell_setting 'tetragonal'
loop_
_space_group_symop_operation_xyz
x,y,z
1/2-y,1/2+x,1/4+z
-x,-y,1/2+z
1/2+y,1/2-x,3/4+z
1/2+x,1/2-y,3/4-z
1/2-x,1/2+y,1/4-z
y,x,-z
-y,-x,1/2-z
loop_
_atom_site_type_symbol
_atom_site_label
_atom_site_fract_x
_atom_site_fract_y
_atom_site_fract_z
Si Si1 0.537722 0.728784 0.207517
Si Si2 0.248038 0.770488 0.596109
Si Si3 0.471625 0.225189 0.283573
Si Si4 0.933587 0.542231 0.874754
Si Si5 0.157665 0.084450 0.734048
Si Si6 0.970939 0.179984 0.743544
O O1 0.644570 0.698374 0.195746
O O2 0.527879 0.824346 0.126589
O O3 0.509789 0.732167 0.364728
O O4 0.466582 0.662128 0.129168
O O5 0.259704 0.740297 0.750000
O O6 0.304615 0.866498 0.574414
O O7 0.284941 0.682441 0.510353
O O8 0.541735 0.143304 0.320518
O O9 0.512393 0.312588 0.366817
O O10 0.471794 0.243127 0.123534
O O11 0.967747 0.521784 0.724520
O O12 0.050360 0.105949 0.709170
O O13 0.872445 0.127556 0.750000
#
# Coordination Sequence:
#
# PCOD8305488 Si02
#       6
#     8   8   8   8   8   8
#     4  12  25  51  71 108 152 195 246 308 382 443
#     4  12  23  46  78 103 147 195 251 308 372 454
#     4  12  26  47  75 109 147 200 247 304 379 455
#     4  12  27  49  78 109 147 195 250 306 375 444
#     4  12  27  47  79 109 145 199 253 308 377 457
#     4  12  29  47  72 115 151 190 250 314 380 444
#
# _framework density 23.359176999999999
#
# number of rings (size 3 to 8) (size 9 to 14) (size 15 to 20)
#    0.000    0.000    6.667    2.000    7.000    1.333 
#    6.000    0.000    0.000    0.000    0.000    0.000 
#    0.000    0.000    0.000    0.000    0.000    0.000 
#
# Total GULP energy -595357.909787 kJ/mol
# GULP energy per Si atom -12403.289787 kJ/mol
# Density = 2.330601 g / cm^3
# Si number density = 23.359177 Si / 1000 Ang^3
#
#
#
# Elastic Constant Matrix: (Units=GPa)
#
#
# Indices 1 2 3 4 5 6 
#
# 1 64.4226 7.7076 12.7261 0.0000 0.0000 0.0000
# 2 7.7076 64.4219 12.7265 0.0000 0.0000 0.0000
# 3 12.7261 12.7265 118.5925 0.0000 0.0000 0.0000
# 4 0.0000 0.0000 0.0000 35.2459 0.0000 0.0000
# 5 0.0000 0.0000 0.0000 0.0000 35.2458 0.0000
# 6 0.0000 0.0000 0.0000 0.0000 0.0000 25.2160
#
#
#
# Elastic Compliance Matrix: (Units=1/GPa)
#
#
# Indices 1 2 3 4 5 6 
#
# 1 0.016021 -0.001611 -0.001546 0.000000 0.000000 0.000000
# 2 -0.001611 0.016021 -0.001546 0.000000 0.000000 0.000000
# 3 -0.001546 -0.001546 0.008764 0.000000 0.000000 0.000000
# 4 0.000000 0.000000 0.000000 0.028372 0.000000 0.000000
# 5 0.000000 0.000000 0.000000 0.000000 0.028372 0.000000
# 6 0.000000 0.000000 0.000000 0.000000 0.000000 0.039657
#
#
# Mechanical properties :
#
#
# Convention : Reuss Voigt Hill
#
# Bulk Modulus (GPa) = 31.84920 34.86192 33.35556
# Shear Modulus (GPa) = 31.83068 33.42666 32.62867
#
# Velocity S-wave (km/s) = 3.69543 3.78694 3.74147
# Velocity P-wave (km/s) = 5.64557 5.83763 5.74240
#
# Compressibility (1/GPa) = 0.03139797
#
# Stress axis : x y z
#
# Youngs Moduli (GPa) = 62.41910 62.41832 114.10173
#
# Poissons Ratio (x) = 0.10058 0.17643
# Poissons Ratio (y) = 0.10058 0.17644
# Poissons Ratio (z) = 0.09652 0.09652
#
# Static dielectric constant tensor:
#      x y z
#    x 4.153770 0.000000 0.000000 
#    y 0.000000 4.153780 0.000000 
#    z 0.000000 0.000000 4.384900 
# 
# 
# High freq. dielectric constant tensor:
#      x y z
#    x 1.922700 0.000000 0.000000 
#    y 0.000000 1.922700 0.000000 
#    z 0.000000 0.000000 1.934080 
# 
# From -- ./inp_files/2191.got.cif
#   From: 2010.03.12/outbox.cif.g09.slc.cpg/sg92_2_cif.got.tgz:2191.got - 2010.04.08 20:41:11.
