data_PCOD8305987
_publ_section_title
;
Structure prediction by ZEFSAII (Michael W. Deem and Ramdas Pophale) SiO2 
 PCOD8305987
Probable space group: P 43 21 2
;
_chemical_formula_sum "Si O2"
_cell_formula_units_Z 60
_cell_length_a 17.866970
_cell_length_b 17.866970
_cell_length_c 9.237696
_cell_angle_alpha 90.000000
_cell_angle_beta 90.000000
_cell_angle_gamma 90.000000
_cell_volume 2948.936918
_symmetry_space_group_name_H-M "P 43 21 2"
_symmetry_group_IT_number 96
_symmetry_cell_setting 'tetragonal'
loop_
_space_group_symop_operation_xyz
x,y,z
1/2-y,1/2+x,3/4+z
-x,-y,1/2+z
1/2+y,1/2-x,1/4+z
1/2+x,1/2-y,1/4-z
1/2-x,1/2+y,3/4-z
y,x,-z
-y,-x,1/2-z
loop_
_atom_site_type_symbol
_atom_site_label
_atom_site_fract_x
_atom_site_fract_y
_atom_site_fract_z
Si Si1 0.818848 0.743048 0.221847
Si Si2 0.946665 0.703459 0.425503
Si Si3 0.094479 0.217666 0.219069
Si Si4 0.529688 0.709213 0.058646
Si Si5 0.803817 0.196184 0.750000
Si Si6 0.444571 0.553809 0.421652
Si Si7 0.292701 0.070214 0.494677
Si Si8 0.958986 0.433585 0.852520
O O1 0.866278 0.694610 0.341394
O O2 0.792079 0.817116 0.303964
O O3 0.751476 0.702293 0.138047
O O4 0.875380 0.765452 0.091505
O O5 0.939741 0.749096 0.573546
O O6 0.007440 0.748339 0.335592
O O7 0.987041 0.623045 0.441872
O O8 0.057200 0.139601 0.269852
O O9 0.081275 0.283713 0.335405
O O10 0.617210 0.702697 0.075860
O O11 0.490435 0.629807 0.040095
O O12 0.510795 0.761992 0.197665
O O13 0.515223 0.515223 0.500000
O O14 0.452723 0.547278 0.250000
O O15 0.374816 0.093562 0.436255
O O16 0.992631 0.454174 0.698042
#
# Coordination Sequence:
#
# PCOD8305987 Si02
#       8
#     8   8   8   8   4   8   8   8
#     4  11  21  40  70  97 130 179 231 284 343 411
#     4  11  26  43  68 101 139 175 230 294 346 414
#     4  12  23  43  72 102 135 181 234 282 347 420
#     4  11  23  42  68  98 138 185 230 279 348 410
#     4  12  24  40  74  98 134 186 236 284 342 418
#     4  12  25  42  69 105 143 184 230 276 350 423
#     4  11  22  45  72  97 134 181 236 285 332 425
#     4  12  27  47  70 100 138 183 233 292 358 412
#
# _framework density 20.346315000000001
#
# number of rings (size 3 to 8) (size 9 to 14) (size 15 to 20)
#    0.000    0.533    8.667    1.200    3.733    0.000 
#    0.000    0.000    2.933    0.000    0.000    0.000 
#    0.000    0.000    0.000    0.000    0.000    0.000 
#
# Total GULP energy -743432.920197 kJ/mol
# GULP energy per Si atom -12390.548670 kJ/mol
# Density = 2.030001 g / cm^3
# Si number density = 20.346315 Si / 1000 Ang^3
#
#
#
# Elastic Constant Matrix: (Units=GPa)
#
#
# Indices 1 2 3 4 5 6 
#
# 1 99.0329 36.2940 20.2560 0.0000 0.0000 0.0000
# 2 36.2940 99.0326 20.2564 0.0000 0.0000 0.0000
# 3 20.2560 20.2564 81.4863 0.0000 0.0000 0.0000
# 4 0.0000 0.0000 0.0000 35.4177 0.0000 0.0000
# 5 0.0000 0.0000 0.0000 0.0000 35.4187 0.0000
# 6 0.0000 0.0000 0.0000 0.0000 0.0000 19.8980
#
#
#
# Elastic Compliance Matrix: (Units=1/GPa)
#
#
# Indices 1 2 3 4 5 6 
#
# 1 0.011961 -0.003978 -0.001985 0.000000 0.000000 0.000000
# 2 -0.003978 0.011961 -0.001985 0.000000 0.000000 0.000000
# 3 -0.001985 -0.001985 0.013259 0.000000 0.000000 0.000000
# 4 0.000000 0.000000 0.000000 0.028234 0.000000 0.000000
# 5 0.000000 0.000000 0.000000 0.000000 0.028234 0.000000
# 6 0.000000 0.000000 0.000000 0.000000 0.000000 0.050256
#
#
# Mechanical properties :
#
#
# Convention : Reuss Voigt Hill
#
# Bulk Modulus (GPa) = 46.97583 48.12941 47.55262
# Shear Modulus (GPa) = 29.95885 31.66325 30.81105
#
# Velocity S-wave (km/s) = 3.84141 3.94917 3.89566
# Velocity P-wave (km/s) = 6.54320 6.67091 6.60736
#
# Compressibility (1/GPa) = 0.02128754
#
# Stress axis : x y z
#
# Youngs Moduli (GPa) = 83.60263 83.60219 75.42230
#
# Poissons Ratio (x) = 0.33255 0.14968
# Poissons Ratio (y) = 0.33255 0.14969
# Poissons Ratio (z) = 0.16591 0.16592
#
# Static dielectric constant tensor:
#      x y z
#    x 3.658620 0.000000 0.000000 
#    y 0.000000 3.658700 0.000000 
#    z 0.000000 0.000000 3.666330 
# 
# 
# High freq. dielectric constant tensor:
#      x y z
#    x 1.798260 0.000000 0.000000 
#    y 0.000000 1.798260 0.000000 
#    z 0.000000 0.000000 1.789840 
# 
# From -- ./inp_files/1607.got.cif
#   From: 2010.03.12/outbox.cif.g09.slc.cpg/sg96_1_cif.got.tgz:1607.got - 2010.04.08 20:56:49.
