data_PCOD8305646
_publ_section_title
;
Structure prediction by ZEFSAII (Michael W. Deem and Ramdas Pophale) SiO2 
 PCOD8305646
Probable space group: P 42 21 2
;
_chemical_formula_sum "Si O2"
_cell_formula_units_Z 30
_cell_length_a 16.854916
_cell_length_b 16.854916
_cell_length_c 5.346814
_cell_angle_alpha 90.000000
_cell_angle_beta 90.000000
_cell_angle_gamma 90.000000
_cell_volume 1518.966730
_symmetry_space_group_name_H-M "P 42 21 2"
_symmetry_group_IT_number 94
_symmetry_cell_setting 'tetragonal'
loop_
_space_group_symop_operation_xyz
x,y,z
1/2-y,1/2+x,1/2+z
-x,-y,z
1/2+y,1/2-x,1/2+z
1/2+x,1/2-y,1/2-z
1/2-x,1/2+y,1/2-z
y,x,-z
-y,-x,-z
loop_
_atom_site_type_symbol
_atom_site_label
_atom_site_fract_x
_atom_site_fract_y
_atom_site_fract_z
Si Si1 0.191752 0.808249 0.500000
Si Si2 0.500000 0.500000 0.000000
Si Si3 0.513137 0.809550 0.601794
Si Si4 0.546985 0.638978 0.688548
Si Si5 0.845089 0.609020 0.896028
O O1 0.176580 0.871302 0.283552
O O2 0.179782 0.719634 0.396203
O O3 0.587641 0.494537 0.122121
O O4 0.498481 0.714092 0.579833
O O5 0.430075 0.852511 0.576591
O O6 0.565260 0.839232 0.369626
O O7 0.549917 0.831419 0.871248
O O8 0.569598 0.569598 0.500000
#
# Coordination Sequence:
#
# PCOD8305646 Si02
#       5
#     4   2   8   8   8
#     4   9  20  39  62  84 123 168 207 246 318 384
#     4  10  22  36  60  94 120 164 204 268 304 382
#     4  11  24  41  67  92 127 168 212 261 320 376
#     4  10  19  40  62  85 126 166 205 253 328 377
#     4  11  23  42  63  94 124 167 212 262 315 376
#
# _framework density 19.750268999999999
#
# number of rings (size 3 to 8) (size 9 to 14) (size 15 to 20)
#    0.000    1.600    2.667    2.000    0.000    3.200 
#    4.800    2.667    0.000    0.000    0.000    0.000 
#    0.000    0.000    0.000    0.000    0.000    0.000 
#
# Total GULP energy -371705.705288 kJ/mol
# GULP energy per Si atom -12390.190176 kJ/mol
# Density = 1.970532 g / cm^3
# Si number density = 19.750269 Si / 1000 Ang^3
#
#
#
# Elastic Constant Matrix: (Units=GPa)
#
#
# Indices 1 2 3 4 5 6 
#
# 1 84.4424 82.2937 18.5222 0.0000 0.0000 0.0000
# 2 82.2937 84.4413 18.5217 0.0000 0.0000 0.0000
# 3 18.5222 18.5217 85.9387 0.0000 0.0000 0.0000
# 4 0.0000 0.0000 0.0000 -3.1827 0.0000 0.0000
# 5 0.0000 0.0000 0.0000 0.0000 -3.1842 0.0000
# 6 0.0000 0.0000 0.0000 0.0000 0.0000 36.2898
#
#
#
# Elastic Compliance Matrix: (Units=1/GPa)
#
#
# Indices 1 2 3 4 5 6 
#
# 1 0.235902 -0.229604 -0.001359 0.000000 0.000000 0.000000
# 2 -0.229604 0.235904 -0.001357 0.000000 0.000000 0.000000
# 3 -0.001359 -0.001357 0.012221 0.000000 0.000000 0.000000
# 4 0.000000 0.000000 0.000000 -0.314200 0.000000 0.000000
# 5 0.000000 0.000000 0.000000 0.000000 -0.314053 0.000000
# 6 0.000000 0.000000 0.000000 0.000000 0.000000 0.027556
#
#
# Mechanical properties :
#
#
# Convention : Reuss Voigt Hill
#
# Bulk Modulus (GPa) = 51.57512 54.83308 53.20410
# Shear Modulus (GPa) = 14.10710 15.01691 14.56200
#
# Velocity S-wave (km/s) = 2.67549 2.76042 2.71828
# Velocity P-wave (km/s) = 5.97617 6.16306 6.07034
#
# Compressibility (1/GPa) = 0.01938920
#
# Stress axis : x y z
#
# Youngs Moduli (GPa) = 4.23906 4.23900 81.82368
#
# Poissons Ratio (x) = 0.97329 0.11117
# Poissons Ratio (y) = 0.97330 0.11100
# Poissons Ratio (z) = 0.00576 0.00575
#
# Static dielectric constant tensor:
#      x y z
#    x 3.725890 0.000000 0.000000 
#    y 0.000000 3.725890 0.000000 
#    z 0.000000 0.000000 3.846910 
# 
# 
# High freq. dielectric constant tensor:
#      x y z
#    x 1.768590 0.000000 0.000000 
#    y 0.000000 1.768590 0.000000 
#    z 0.000000 0.000000 1.780190 
# 
# From -- ./inp_files/258.got.cif
#   From: 2010.03.12/outbox.cif.g09.slc.cpg/sg94_1_cif.got.tgz:258.got - 2010.04.08 20:48:32.
