data_PCOD8305911
_publ_section_title
;
Structure prediction by ZEFSAII (Michael W. Deem and Ramdas Pophale) SiO2 
 PCOD8305911
Probable space group: P 43 21 2
;
_chemical_formula_sum "Si O2"
_cell_formula_units_Z 44
_cell_length_a 8.474491
_cell_length_b 8.474491
_cell_length_c 27.028892
_cell_angle_alpha 90.000000
_cell_angle_beta 90.000000
_cell_angle_gamma 90.000000
_cell_volume 1941.133875
_symmetry_space_group_name_H-M "P 43 21 2"
_symmetry_group_IT_number 96
_symmetry_cell_setting 'tetragonal'
loop_
_space_group_symop_operation_xyz
x,y,z
1/2-y,1/2+x,3/4+z
-x,-y,1/2+z
1/2+y,1/2-x,1/4+z
1/2+x,1/2-y,1/4-z
1/2-x,1/2+y,3/4-z
y,x,-z
-y,-x,1/2-z
loop_
_atom_site_type_symbol
_atom_site_label
_atom_site_fract_x
_atom_site_fract_y
_atom_site_fract_z
Si Si1 0.034795 0.941008 0.850767
Si Si2 0.110990 0.509087 0.532746
Si Si3 0.692210 0.242537 0.383839
Si Si4 0.451453 0.451453 0.500000
Si Si5 0.439158 0.238563 0.654168
Si Si6 0.412432 0.128483 0.324416
O O1 0.126947 0.781469 0.866156
O O2 0.169487 0.077817 0.848286
O O3 0.965531 0.919822 0.794509
O O4 0.905309 0.975487 0.892981
O O5 0.114282 0.648793 0.573388
O O6 0.289669 0.452136 0.529588
O O7 0.054682 0.581988 0.481648
O O8 0.009888 0.355510 0.548765
O O9 0.574336 0.210909 0.338710
O O10 0.470356 0.130769 0.605339
O O11 0.253823 0.268580 0.664861
#
# Coordination Sequence:
#
# PCOD8305911 Si02
#       6
#     8   8   8   4   8   8
#     4  10  20  42  61  93 127 169 217 273 335 394
#     4  10  21  40  64  95 130 167 221 274 328 401
#     4   9  22  39  60  90 133 163 210 274 321 395
#     4  10  20  40  68  90 120 172 228 268 316 418
#     4  10  22  40  69  93 130 173 220 279 328 404
#     4  10  21  42  61  98 132 168 226 269 336 405
#
# _framework density 22.667162000000001
#
# number of rings (size 3 to 8) (size 9 to 14) (size 15 to 20)
#    0.000    2.182    1.818    1.091    0.000    5.818 
#    6.545    1.818    0.000    0.000    0.000    0.000 
#    0.000    0.000    0.000    0.000    0.000    0.000 
#
# Total GULP energy -545255.793111 kJ/mol
# GULP energy per Si atom -12392.177116 kJ/mol
# Density = 2.261557 g / cm^3
# Si number density = 22.667162 Si / 1000 Ang^3
#
#
#
# Elastic Constant Matrix: (Units=GPa)
#
#
# Indices 1 2 3 4 5 6 
#
# 1 59.8240 14.5374 29.0413 0.0000 0.0000 0.0000
# 2 14.5374 59.8240 29.0413 0.0000 0.0000 0.0000
# 3 29.0413 29.0413 133.5650 0.0000 0.0000 0.0000
# 4 0.0000 0.0000 0.0000 33.2496 0.0000 0.0000
# 5 0.0000 0.0000 0.0000 0.0000 33.2496 0.0000
# 6 0.0000 0.0000 0.0000 0.0000 0.0000 43.3517
#
#
#
# Elastic Compliance Matrix: (Units=1/GPa)
#
#
# Indices 1 2 3 4 5 6 
#
# 1 0.019140 -0.002941 -0.003522 0.000000 0.000000 0.000000
# 2 -0.002941 0.019140 -0.003522 0.000000 0.000000 0.000000
# 3 -0.003522 -0.003522 0.009019 0.000000 0.000000 0.000000
# 4 0.000000 0.000000 0.000000 0.030076 0.000000 0.000000
# 5 0.000000 0.000000 0.000000 0.000000 0.030076 0.000000
# 6 0.000000 0.000000 0.000000 0.000000 0.000000 0.023067
#
#
# Mechanical properties :
#
#
# Convention : Reuss Voigt Hill
#
# Bulk Modulus (GPa) = 36.59264 44.27253 40.43258
# Shear Modulus (GPa) = 31.32870 34.00971 32.66920
#
# Velocity S-wave (km/s) = 3.72172 3.87770 3.80051
# Velocity P-wave (km/s) = 5.88615 6.29465 6.09383
#
# Compressibility (1/GPa) = 0.02732790
#
# Stress axis : x y z
#
# Youngs Moduli (GPa) = 52.24589 52.24589 110.88130
#
# Poissons Ratio (x) = 0.15367 0.39054
# Poissons Ratio (y) = 0.15367 0.39054
# Poissons Ratio (z) = 0.18402 0.18402
#
# Static dielectric constant tensor:
#      x y z
#    x 3.965120 0.000000 0.000000 
#    y 0.000000 3.965120 0.000000 
#    z 0.000000 0.000000 4.226730 
# 
# 
# High freq. dielectric constant tensor:
#      x y z
#    x 1.887250 0.000000 0.000000 
#    y 0.000000 1.887250 0.000000 
#    z 0.000000 0.000000 1.889020 
# 
# From -- ./inp_files/4385.got.cif
#   From: 2010.03.12/outbox.cif.g09.slc.cpg/sg96_3_cif.got.tgz:4385.got - 2010.04.08 20:56:49.
