data_PCOD8305413
_publ_section_title
;
Structure prediction by ZEFSAII (Michael W. Deem and Ramdas Pophale) SiO2 
 PCOD8305413
Probable space group: P 41 21 2
;
_chemical_formula_sum "Si O2"
_cell_formula_units_Z 40
_cell_length_a 14.160738
_cell_length_b 14.160738
_cell_length_c 8.806276
_cell_angle_alpha 90.000000
_cell_angle_beta 90.000000
_cell_angle_gamma 90.000000
_cell_volume 1765.891711
_symmetry_space_group_name_H-M "P 41 21 2"
_symmetry_group_IT_number 92
_symmetry_cell_setting 'tetragonal'
loop_
_space_group_symop_operation_xyz
x,y,z
1/2-y,1/2+x,1/4+z
-x,-y,1/2+z
1/2+y,1/2-x,3/4+z
1/2+x,1/2-y,3/4-z
1/2-x,1/2+y,1/4-z
y,x,-z
-y,-x,1/2-z
loop_
_atom_site_type_symbol
_atom_site_label
_atom_site_fract_x
_atom_site_fract_y
_atom_site_fract_z
Si Si1 0.391148 0.997822 0.365647
Si Si2 0.025249 0.843668 0.842232
Si Si3 0.311645 0.449081 0.930291
Si Si4 0.312990 0.190916 0.401722
Si Si5 0.165023 0.143168 0.176490
O O1 0.441446 0.032130 0.212369
O O2 0.347415 0.087504 0.456081
O O3 0.301170 0.930680 0.334320
O O4 0.066842 0.933159 0.750000
O O5 0.096866 0.756346 0.833064
O O6 0.926010 0.814282 0.765852
O O7 0.018042 0.863198 0.023080
O O8 0.353584 0.353584 0.000000
O O9 0.333064 0.530914 0.050185
O O10 0.225486 0.225486 0.500000
O O11 0.264821 0.186275 0.235122
O O12 0.162512 0.162512 0.000000
#
# Coordination Sequence:
#
# PCOD8305413 Si02
#       5
#     8   8   8   8   8
#     4  11  24  50  67 100 142 192 237 288 364 437
#     4  11  22  42  70 103 141 182 236 292 365 431
#     4  11  23  44  72 103 142 180 237 303 358 426
#     4  10  23  44  70 100 136 186 240 293 352 422
#     4  11  23  42  70 104 143 188 236 298 368 427
#
# _framework density 22.651444999999999
#
# number of rings (size 3 to 8) (size 9 to 14) (size 15 to 20)
#    0.000    1.200    2.000    4.800    0.000    0.800 
#   14.400    0.000    0.000    0.000    0.000    0.000 
#    0.000    0.000    0.000    0.000    0.000    0.000 
#
# Total GULP energy -495791.156036 kJ/mol
# GULP energy per Si atom -12394.778901 kJ/mol
# Density = 2.259989 g / cm^3
# Si number density = 22.651445 Si / 1000 Ang^3
#
#
#
# Elastic Constant Matrix: (Units=GPa)
#
#
# Indices 1 2 3 4 5 6 
#
# 1 92.2860 47.5794 39.2130 0.0000 0.0000 0.0000
# 2 47.5794 92.2850 39.2126 0.0000 0.0000 0.0000
# 3 39.2130 39.2126 131.4395 0.0000 0.0000 0.0000
# 4 0.0000 0.0000 0.0000 33.8815 0.0000 0.0000
# 5 0.0000 0.0000 0.0000 0.0000 33.8815 0.0000
# 6 0.0000 0.0000 0.0000 0.0000 0.0000 40.8738
#
#
#
# Elastic Compliance Matrix: (Units=1/GPa)
#
#
# Indices 1 2 3 4 5 6 
#
# 1 0.015477 -0.006891 -0.002562 0.000000 0.000000 0.000000
# 2 -0.006891 0.015477 -0.002561 0.000000 0.000000 0.000000
# 3 -0.002562 -0.002561 0.009136 0.000000 0.000000 0.000000
# 4 0.000000 0.000000 0.000000 0.029515 0.000000 0.000000
# 5 0.000000 0.000000 0.000000 0.000000 0.029515 0.000000
# 6 0.000000 0.000000 0.000000 0.000000 0.000000 0.024466
#
#
# Mechanical properties :
#
#
# Convention : Reuss Voigt Hill
#
# Bulk Modulus (GPa) = 62.25678 63.11340 62.68509
# Shear Modulus (GPa) = 32.68656 34.39440 33.54048
#
# Velocity S-wave (km/s) = 3.80284 3.90092 3.85219
# Velocity P-wave (km/s) = 6.84298 6.94355 6.89345
#
# Compressibility (1/GPa) = 0.01606251
#
# Stress axis : x y z
#
# Youngs Moduli (GPa) = 64.61147 64.61090 109.45193
#
# Poissons Ratio (x) = 0.44524 0.28036
# Poissons Ratio (y) = 0.44525 0.28036
# Poissons Ratio (z) = 0.16550 0.16550
#
# Static dielectric constant tensor:
#      x y z
#    x 4.170640 0.000000 0.000000 
#    y 0.000000 4.170640 0.000000 
#    z 0.000000 0.000000 4.093340 
# 
# 
# High freq. dielectric constant tensor:
#      x y z
#    x 1.902480 0.000000 0.000000 
#    y 0.000000 1.902480 0.000000 
#    z 0.000000 0.000000 1.882190 
# 
# From -- ./inp_files/1340.got.cif
#   From: 2010.03.12/outbox.cif.g09.slc.cpg/sg92_1_cif.got.tgz:1340.got - 2010.04.08 20:41:11.
