data_PCOD8305265
_publ_section_title
;
Structure prediction by ZEFSAII (Michael W. Deem and Ramdas Pophale) SiO2 
 PCOD8305265
Probable space group: P 41 21 2
;
_chemical_formula_sum "Si O2"
_cell_formula_units_Z 48
_cell_length_a 12.087672
_cell_length_b 12.087672
_cell_length_c 17.059534
_cell_angle_alpha 90.000000
_cell_angle_beta 90.000000
_cell_angle_gamma 90.000000
_cell_volume 2492.599465
_symmetry_space_group_name_H-M "P 41 21 2"
_symmetry_group_IT_number 92
_symmetry_cell_setting 'tetragonal'
loop_
_space_group_symop_operation_xyz
x,y,z
1/2-y,1/2+x,1/4+z
-x,-y,1/2+z
1/2+y,1/2-x,3/4+z
1/2+x,1/2-y,3/4-z
1/2-x,1/2+y,1/4-z
y,x,-z
-y,-x,1/2-z
loop_
_atom_site_type_symbol
_atom_site_label
_atom_site_fract_x
_atom_site_fract_y
_atom_site_fract_z
Si Si1 0.651537 0.891328 0.794301
Si Si2 0.552722 0.945624 0.950311
Si Si3 0.796302 0.636474 0.456760
Si Si4 0.776570 0.207547 0.555638
Si Si5 0.979072 0.797055 0.511045
Si Si6 0.345311 0.033172 0.851750
O O1 0.632780 0.884856 0.888140
O O2 0.534644 0.878012 0.749729
O O3 0.733302 0.790962 0.768974
O O4 0.704533 0.008529 0.769308
O O5 0.455238 0.004651 0.900829
O O6 0.508970 0.853479 0.012196
O O7 0.696714 0.696714 0.500000
O O8 0.774097 0.644264 0.364462
O O9 0.916940 0.689309 0.474772
O O10 0.663696 0.177041 0.599026
O O11 0.830566 0.091633 0.531466
O O12 0.902526 0.902526 0.500000
O O13 0.011040 0.762878 0.600806
#
# Coordination Sequence:
#
# PCOD8305265 Si02
#       6
#     8   8   8   8   8   8
#     4  11  21  37  58  93 123 161 203 260 303 367
#     4  10  20  36  62  87 120 154 211 253 302 362
#     4  11  21  35  62  96 124 152 202 267 319 354
#     4  12  23  36  61  94 125 163 203 251 322 372
#     4  11  22  39  61  94 127 161 195 259 325 373
#     4  11  19  35  64  91 115 155 203 260 305 369
#
# _framework density 19.257003999999998
#
# number of rings (size 3 to 8) (size 9 to 14) (size 15 to 20)
#    0.000    1.000    8.333    1.000    2.333    0.000 
#    0.000    2.500    0.000    0.000    0.000    0.000 
#    0.000    0.000    0.000    0.000    0.000    0.000 
#
# Total GULP energy -594891.223189 kJ/mol
# GULP energy per Si atom -12393.567150 kJ/mol
# Density = 1.921317 g / cm^3
# Si number density = 19.257004 Si / 1000 Ang^3
#
#
#
# Elastic Constant Matrix: (Units=GPa)
#
#
# Indices 1 2 3 4 5 6 
#
# 1 77.4526 25.9945 30.0162 0.0000 0.0000 0.0000
# 2 25.9945 77.4526 30.0162 0.0000 0.0000 0.0000
# 3 30.0162 30.0162 113.7208 0.0000 0.0000 0.0000
# 4 0.0000 0.0000 0.0000 33.6990 0.0000 0.0000
# 5 0.0000 0.0000 0.0000 0.0000 33.6990 0.0000
# 6 0.0000 0.0000 0.0000 0.0000 0.0000 10.6740
#
#
#
# Elastic Compliance Matrix: (Units=1/GPa)
#
#
# Indices 1 2 3 4 5 6 
#
# 1 0.015424 -0.004009 -0.003013 0.000000 0.000000 0.000000
# 2 -0.004009 0.015424 -0.003013 0.000000 0.000000 0.000000
# 3 -0.003013 -0.003013 0.010384 0.000000 0.000000 0.000000
# 4 0.000000 0.000000 0.000000 0.029674 0.000000 0.000000
# 5 0.000000 0.000000 0.000000 0.000000 0.029674 0.000000
# 6 0.000000 0.000000 0.000000 0.000000 0.000000 0.093686
#
#
# Mechanical properties :
#
#
# Convention : Reuss Voigt Hill
#
# Bulk Modulus (GPa) = 47.25341 48.96445 48.10893
# Shear Modulus (GPa) = 22.58442 27.78768 25.18605
#
# Velocity S-wave (km/s) = 3.42832 3.80279 3.62040
# Velocity P-wave (km/s) = 6.34529 6.69057 6.52021
#
# Compressibility (1/GPa) = 0.02116249
#
# Stress axis : x y z
#
# Youngs Moduli (GPa) = 64.83281 64.83281 96.30183
#
# Poissons Ratio (x) = 0.25991 0.29016
# Poissons Ratio (y) = 0.25991 0.29016
# Poissons Ratio (z) = 0.19534 0.19534
#
# Static dielectric constant tensor:
#      x y z
#    x 3.352610 0.000000 0.000000 
#    y 0.000000 3.352610 0.000000 
#    z 0.000000 0.000000 4.060340 
# 
# 
# High freq. dielectric constant tensor:
#      x y z
#    x 1.723110 0.000000 0.000000 
#    y 0.000000 1.723110 0.000000 
#    z 0.000000 0.000000 1.769340 
# 
# From -- ./inp_files/3096.got.cif
#   From: 2010.03.12/outbox.cif.g09.slc.cpg/sg92_2_cif.got.tgz:3096.got - 2010.04.08 20:41:11.
