data_PCOD8305403
_publ_section_title
;
Structure prediction by ZEFSAII (Michael W. Deem and Ramdas Pophale) SiO2 
 PCOD8305403
Probable space group: P 41 21 2
;
_chemical_formula_sum "Si O2"
_cell_formula_units_Z 48
_cell_length_a 11.989619
_cell_length_b 11.989619
_cell_length_c 15.922664
_cell_angle_alpha 90.000000
_cell_angle_beta 90.000000
_cell_angle_gamma 90.000000
_cell_volume 2288.898296
_symmetry_space_group_name_H-M "P 41 21 2"
_symmetry_group_IT_number 92
_symmetry_cell_setting 'tetragonal'
loop_
_space_group_symop_operation_xyz
x,y,z
1/2-y,1/2+x,1/4+z
-x,-y,1/2+z
1/2+y,1/2-x,3/4+z
1/2+x,1/2-y,3/4-z
1/2-x,1/2+y,1/4-z
y,x,-z
-y,-x,1/2-z
loop_
_atom_site_type_symbol
_atom_site_label
_atom_site_fract_x
_atom_site_fract_y
_atom_site_fract_z
Si Si1 0.363749 0.533023 0.669830
Si Si2 0.498407 0.591517 0.416843
Si Si3 0.134303 0.434876 0.693828
Si Si4 0.592292 0.789931 0.311513
Si Si5 0.447171 0.018587 0.932534
Si Si6 0.302646 0.679952 0.972629
O O1 0.394562 0.605439 0.750000
O O2 0.472395 0.473803 0.628341
O O3 0.268111 0.448313 0.699883
O O4 0.304595 0.607654 0.599604
O O5 0.576306 0.576306 0.500000
O O6 0.552710 0.670621 0.346482
O O7 0.384515 0.646313 0.447561
O O8 0.085189 0.523451 0.627477
O O9 0.117666 0.302399 0.678324
O O10 0.069134 0.454859 0.780392
O O11 0.506003 0.851010 0.249576
O O12 0.703296 0.764826 0.260511
O O13 0.607305 0.875113 0.387909
#
# Coordination Sequence:
#
# PCOD8305403 Si02
#       6
#     8   8   8   8   8   8
#     4  11  23  42  64  95 133 177 221 265 335 400
#     4  10  24  43  63  96 137 173 220 274 331 400
#     4  11  21  42  65  94 131 176 214 275 330 391
#     4  11  22  42  67  98 133 174 220 276 331 387
#     4  10  23  40  68  97 134 168 228 272 327 401
#     4  11  23  41  66  98 133 170 224 275 330 395
#
# _framework density 20.970787000000001
#
# number of rings (size 3 to 8) (size 9 to 14) (size 15 to 20)
#    0.000    1.333    3.333    2.000    0.000    5.333 
#    0.000    0.833    0.000    0.000    0.000    0.000 
#    0.000    0.000    0.000    0.000    0.000    0.000 
#
# Total GULP energy -594859.046423 kJ/mol
# GULP energy per Si atom -12392.896800 kJ/mol
# Density = 2.092306 g / cm^3
# Si number density = 20.970787 Si / 1000 Ang^3
#
#
#
# Elastic Constant Matrix: (Units=GPa)
#
#
# Indices 1 2 3 4 5 6 
#
# 1 70.3289 35.5753 15.3153 0.0000 0.0000 0.0000
# 2 35.5753 70.3280 15.3155 0.0000 0.0000 0.0000
# 3 15.3153 15.3155 74.7460 0.0000 0.0000 0.0000
# 4 0.0000 0.0000 0.0000 32.7681 0.0000 0.0000
# 5 0.0000 0.0000 0.0000 0.0000 32.7680 0.0000
# 6 0.0000 0.0000 0.0000 0.0000 0.0000 24.8550
#
#
#
# Elastic Compliance Matrix: (Units=1/GPa)
#
#
# Indices 1 2 3 4 5 6 
#
# 1 0.019406 -0.009368 -0.002057 0.000000 0.000000 0.000000
# 2 -0.009368 0.019406 -0.002057 0.000000 0.000000 0.000000
# 3 -0.002057 -0.002057 0.014221 0.000000 0.000000 0.000000
# 4 0.000000 0.000000 0.000000 0.030517 0.000000 0.000000
# 5 0.000000 0.000000 0.000000 0.000000 0.030518 0.000000
# 6 0.000000 0.000000 0.000000 0.000000 0.000000 0.040233
#
#
# Mechanical properties :
#
#
# Convention : Reuss Voigt Hill
#
# Bulk Modulus (GPa) = 38.35886 38.64616 38.50251
# Shear Modulus (GPa) = 26.32200 28.02467 27.17333
#
# Velocity S-wave (km/s) = 3.54669 3.65960 3.60359
# Velocity P-wave (km/s) = 5.92480 6.02706 5.97615
#
# Compressibility (1/GPa) = 0.02606960
#
# Stress axis : x y z
#
# Youngs Moduli (GPa) = 51.53117 51.53042 70.31629
#
# Poissons Ratio (x) = 0.48276 0.14461
# Poissons Ratio (y) = 0.48277 0.14462
# Poissons Ratio (z) = 0.10598 0.10598
#
# Static dielectric constant tensor:
#      x y z
#    x 3.743040 0.000000 0.000000 
#    y 0.000000 3.743050 0.000000 
#    z 0.000000 0.000000 3.921190 
# 
# 
# High freq. dielectric constant tensor:
#      x y z
#    x 1.821530 0.000000 0.000000 
#    y 0.000000 1.821530 0.000000 
#    z 0.000000 0.000000 1.830550 
# 
# From -- ./inp_files/3135.got.cif
#   From: 2010.03.12/outbox.cif.g09.slc.cpg/sg92_2_cif.got.tgz:3135.got - 2010.04.08 20:41:11.
