data_PCOD8305235
_publ_section_title
;
Structure prediction by ZEFSAII (Michael W. Deem and Ramdas Pophale) SiO2 
 PCOD8305235
Probable space group: P 41 21 2
;
_chemical_formula_sum "Si O2"
_cell_formula_units_Z 48
_cell_length_a 9.166514
_cell_length_b 9.166514
_cell_length_c 29.117633
_cell_angle_alpha 90.000000
_cell_angle_beta 90.000000
_cell_angle_gamma 90.000000
_cell_volume 2446.608499
_symmetry_space_group_name_H-M "P 41 21 2"
_symmetry_group_IT_number 92
_symmetry_cell_setting 'tetragonal'
loop_
_space_group_symop_operation_xyz
x,y,z
1/2-y,1/2+x,1/4+z
-x,-y,1/2+z
1/2+y,1/2-x,3/4+z
1/2+x,1/2-y,3/4-z
1/2-x,1/2+y,1/4-z
y,x,-z
-y,-x,1/2-z
loop_
_atom_site_type_symbol
_atom_site_label
_atom_site_fract_x
_atom_site_fract_y
_atom_site_fract_z
Si Si1 0.175758 0.954466 0.013091
Si Si2 0.313333 0.918025 0.258453
Si Si3 0.949078 0.100146 0.891871
Si Si4 0.986839 0.402753 0.841170
Si Si5 0.576243 0.213258 0.101179
Si Si6 0.718552 0.596611 0.835605
O O1 0.150325 0.865503 0.060675
O O2 0.232027 0.863607 0.969045
O O3 0.288438 0.083125 0.025739
O O4 0.019026 0.019026 0.000000
O O5 0.152066 0.847935 0.250000
O O6 0.379670 0.996568 0.213591
O O7 0.315648 0.039644 0.298103
O O8 0.958525 0.243050 0.861030
O O9 0.877614 0.968629 0.863385
O O10 0.104022 0.032300 0.905729
O O11 0.865163 0.522745 0.854079
O O12 0.129114 0.473686 0.862930
O O13 0.748806 0.188617 0.110712
#
# Coordination Sequence:
#
# PCOD8305235 Si02
#       6
#     8   8   8   8   8   8
#     4   8  17  35  59  80 112 153 207 251 286 368
#     4  10  19  37  58  91 119 154 214 262 298 362
#     4  11  20  38  62  89 114 165 211 248 305 381
#     4  11  22  39  63  89 119 164 213 257 306 384
#     4  12  23  36  62  90 127 159 198 266 324 367
#     4  10  23  40  57  88 130 156 199 260 321 368
#
# _framework density 19.618994000000001
#
# number of rings (size 3 to 8) (size 9 to 14) (size 15 to 20)
#    0.000    1.667    3.333    3.000    2.333    0.000 
#    0.000    0.000    0.000    0.000    0.000    0.000 
#    0.000    0.000    0.000    0.000    0.000    0.000 
#
# Total GULP energy -594685.362611 kJ/mol
# GULP energy per Si atom -12389.278388 kJ/mol
# Density = 1.957434 g / cm^3
# Si number density = 19.618994 Si / 1000 Ang^3
#
#
#
# Elastic Constant Matrix: (Units=GPa)
#
#
# Indices 1 2 3 4 5 6 
#
# 1 69.9378 21.6860 30.4990 0.0000 0.0000 0.0000
# 2 21.6860 69.9377 30.4990 0.0000 0.0000 0.0000
# 3 30.4990 30.4990 111.2471 0.0000 0.0000 0.0000
# 4 0.0000 0.0000 0.0000 27.9088 0.0000 0.0000
# 5 0.0000 0.0000 0.0000 0.0000 27.9089 0.0000
# 6 0.0000 0.0000 0.0000 0.0000 0.0000 28.3822
#
#
#
# Elastic Compliance Matrix: (Units=1/GPa)
#
#
# Indices 1 2 3 4 5 6 
#
# 1 0.017038 -0.003687 -0.003660 0.000000 0.000000 0.000000
# 2 -0.003687 0.017038 -0.003660 0.000000 0.000000 0.000000
# 3 -0.003660 -0.003660 0.010996 0.000000 0.000000 0.000000
# 4 0.000000 0.000000 0.000000 0.035831 0.000000 0.000000
# 5 0.000000 0.000000 0.000000 0.000000 0.035831 0.000000
# 6 0.000000 0.000000 0.000000 0.000000 0.000000 0.035233
#
#
# Mechanical properties :
#
#
# Convention : Reuss Voigt Hill
#
# Bulk Modulus (GPa) = 43.37087 46.27673 44.82380
# Shear Modulus (GPa) = 27.52287 28.06922 27.79605
#
# Velocity S-wave (km/s) = 3.74955 3.78658 3.76811
# Velocity P-wave (km/s) = 6.39532 6.53885 6.46748
#
# Compressibility (1/GPa) = 0.02305695
#
# Stress axis : x y z
#
# Youngs Moduli (GPa) = 58.69307 58.69291 90.94249
#
# Poissons Ratio (x) = 0.21639 0.33287
# Poissons Ratio (y) = 0.21639 0.33287
# Poissons Ratio (z) = 0.21483 0.21483
#
# Static dielectric constant tensor:
#      x y z
#    x 3.338710 0.000000 0.000000 
#    y 0.000000 3.338710 0.000000 
#    z 0.000000 0.000000 3.818180 
# 
# 
# High freq. dielectric constant tensor:
#      x y z
#    x 1.749540 0.000000 0.000000 
#    y 0.000000 1.749540 0.000000 
#    z 0.000000 0.000000 1.776000 
# 
# From -- ./inp_files/4517.got.cif
#   From: 2010.03.12/outbox.cif.g09.slc.cpg/sg92_3_cif.got.tgz:4517.got - 2010.04.08 20:41:11.
