data_PCOD8305963
_publ_section_title
;
Structure prediction by ZEFSAII (Michael W. Deem and Ramdas Pophale) SiO2 
 PCOD8305963
Probable space group: P 43 21 2
;
_chemical_formula_sum "Si O2"
_cell_formula_units_Z 36
_cell_length_a 11.002710
_cell_length_b 11.002710
_cell_length_c 14.763436
_cell_angle_alpha 90.000000
_cell_angle_beta 90.000000
_cell_angle_gamma 90.000000
_cell_volume 1787.256060
_symmetry_space_group_name_H-M "P 43 21 2"
_symmetry_group_IT_number 96
_symmetry_cell_setting 'tetragonal'
loop_
_space_group_symop_operation_xyz
x,y,z
1/2-y,1/2+x,3/4+z
-x,-y,1/2+z
1/2+y,1/2-x,1/4+z
1/2+x,1/2-y,1/4-z
1/2-x,1/2+y,3/4-z
y,x,-z
-y,-x,1/2-z
loop_
_atom_site_type_symbol
_atom_site_label
_atom_site_fract_x
_atom_site_fract_y
_atom_site_fract_z
Si Si1 0.928955 0.886275 0.603624
Si Si2 0.624540 0.624540 0.500000
Si Si3 0.385158 0.102092 0.942810
Si Si4 0.955317 0.240020 0.777024
Si Si5 0.925575 0.450338 0.903718
O O1 0.936056 0.936056 0.500000
O O2 0.901849 0.743126 0.608510
O O3 0.051163 0.917941 0.660083
O O4 0.816700 0.947436 0.654912
O O5 0.595157 0.765206 0.484229
O O6 0.496240 0.069222 0.875637
O O7 0.377731 0.000474 0.020285
O O8 0.851856 0.148145 0.750000
O O9 0.899319 0.361090 0.820755
O O10 0.017254 0.289436 0.685484
#
# Coordination Sequence:
#
# PCOD8305963 Si02
#       5
#     8   4   8   8   8
#     4  12  24  42  67  98 136 173 222 280 329 391
#     4  12  24  42  72 102 134 174 230 278 330 396
#     4  11  21  41  66  99 125 177 227 268 327 404
#     4  11  24  45  64  95 135 174 218 280 338 395
#     4  10  23  43  67  90 134 177 218 269 343 400
#
# _framework density 20.142610000000001
#
# number of rings (size 3 to 8) (size 9 to 14) (size 15 to 20)
#    0.000    0.889    6.667    0.000    3.111    1.778 
#    8.000    0.000    0.000    0.000    0.000    0.000 
#    0.000    0.000    0.000    0.000    0.000    0.000 
#
# Total GULP energy -446373.943921 kJ/mol
# GULP energy per Si atom -12399.276220 kJ/mol
# Density = 2.009676 g / cm^3
# Si number density = 20.142610 Si / 1000 Ang^3
#
#
#
# Elastic Constant Matrix: (Units=GPa)
#
#
# Indices 1 2 3 4 5 6 
#
# 1 88.6478 64.0998 43.5332 0.0000 0.0000 0.0000
# 2 64.0998 88.6502 43.5321 0.0000 0.0000 0.0000
# 3 43.5332 43.5321 94.2524 0.0000 0.0000 0.0000
# 4 0.0000 0.0000 0.0000 40.6842 0.0000 0.0000
# 5 0.0000 0.0000 0.0000 0.0000 40.6854 0.0000
# 6 0.0000 0.0000 0.0000 0.0000 0.0000 24.9394
#
#
#
# Elastic Compliance Matrix: (Units=1/GPa)
#
#
# Indices 1 2 3 4 5 6 
#
# 1 0.024811 -0.015924 -0.004105 0.000000 0.000000 0.000000
# 2 -0.015924 0.024810 -0.004104 0.000000 0.000000 0.000000
# 3 -0.004105 -0.004104 0.014401 0.000000 0.000000 0.000000
# 4 0.000000 0.000000 0.000000 0.024580 0.000000 0.000000
# 5 0.000000 0.000000 0.000000 0.000000 0.024579 0.000000
# 6 0.000000 0.000000 0.000000 0.000000 0.000000 0.040097
#
#
# Mechanical properties :
#
#
# Convention : Reuss Voigt Hill
#
# Bulk Modulus (GPa) = 63.46676 63.76450 63.61563
# Shear Modulus (GPa) = 24.17857 29.28749 26.73303
#
# Velocity S-wave (km/s) = 3.46839 3.81728 3.64701
# Velocity P-wave (km/s) = 6.90049 7.15221 7.02748
#
# Compressibility (1/GPa) = 0.01575628
#
# Stress axis : x y z
#
# Youngs Moduli (GPa) = 40.30484 40.30692 69.43926
#
# Poissons Ratio (x) = 0.64186 0.28503
# Poissons Ratio (y) = 0.64182 0.28496
# Poissons Ratio (z) = 0.16544 0.16541
#
# Static dielectric constant tensor:
#      x y z
#    x 3.651850 0.000000 0.000000 
#    y 0.000000 3.651850 0.000000 
#    z 0.000000 0.000000 3.908980 
# 
# 
# High freq. dielectric constant tensor:
#      x y z
#    x 1.783380 0.000000 0.000000 
#    y 0.000000 1.783380 0.000000 
#    z 0.000000 0.000000 1.795390 
# 
# From -- ./inp_files/2558.got.cif
#   From: 2010.03.12/outbox.cif.g09.slc.cpg/sg96_2_cif.got.tgz:2558.got - 2010.04.08 20:56:49.
