data_PCOD8305851
_publ_section_title
;
Structure prediction by ZEFSAII (Michael W. Deem and Ramdas Pophale) SiO2 
 PCOD8305851
Probable space group: P 43 2 2
;
_chemical_formula_sum "Si O2"
_cell_formula_units_Z 40
_cell_length_a 11.304263
_cell_length_b 11.304263
_cell_length_c 14.485270
_cell_angle_alpha 90.000000
_cell_angle_beta 90.000000
_cell_angle_gamma 90.000000
_cell_volume 1851.019955
_symmetry_space_group_name_H-M "P 43 2 2"
_symmetry_group_IT_number 95
_symmetry_cell_setting 'tetragonal'
loop_
_space_group_symop_operation_xyz
x,y,z
-y,x,3/4+z
-x,-y,1/2+z
y,-x,1/4+z
x,-y,1/2-z
-x,y,-z
y,x,1/4-z
-y,-x,3/4-z
loop_
_atom_site_type_symbol
_atom_site_label
_atom_site_fract_x
_atom_site_fract_y
_atom_site_fract_z
Si Si1 0.804505 0.175413 0.589050
Si Si2 0.683797 0.502529 0.852508
Si Si3 0.263746 0.551490 0.650126
Si Si4 0.134560 0.084342 0.027372
Si Si5 0.584741 0.136551 0.246904
O O1 0.663309 0.176158 0.598671
O O2 0.860872 0.205004 0.690465
O O3 0.850943 0.275281 0.519007
O O4 0.837979 0.052844 0.541859
O O5 0.734739 0.500000 0.750000
O O6 0.619894 0.380107 0.875000
O O7 0.590408 0.609619 0.860826
O O8 0.798972 0.513495 0.915753
O O9 0.287366 0.500000 0.750000
O O10 0.203413 0.447709 0.591248
O O11 0.154660 0.154660 0.125000
O O12 0.000000 0.098762 0.000000
O O13 0.546180 0.000000 0.250000
#
# Coordination Sequence:
#
# PCOD8305851 Si02
#       5
#     8   8   8   8   8
#     4  10  23  42  68 101 132 179 228 281 344 406
#     4  11  22  45  75  98 130 179 234 275 324 404
#     4  11  26  44  66  96 134 181 221 280 342 396
#     4   9  19  41  71  99 130 176 230 280 336 414
#     4  11  26  44  64 104 140 173 221 282 348 403
#
# _framework density 21.609705999999999
#
# number of rings (size 3 to 8) (size 9 to 14) (size 15 to 20)
#    0.000    1.600    2.000    1.200    5.600    3.200 
#   10.800    0.000    0.000    0.000    0.000    0.000 
#    0.000    0.000    0.000    0.000    0.000    0.000 
#
# Total GULP energy -496014.239100 kJ/mol
# GULP energy per Si atom -12400.355978 kJ/mol
# Density = 2.156052 g / cm^3
# Si number density = 21.609706 Si / 1000 Ang^3
#
#
#
# Elastic Constant Matrix: (Units=GPa)
#
#
# Indices 1 2 3 4 5 6 
#
# 1 88.4409 17.2979 44.4179 0.0000 0.0000 0.0000
# 2 17.2979 88.4410 44.4175 0.0000 0.0000 0.0000
# 3 44.4179 44.4175 125.7516 0.0000 0.0000 0.0000
# 4 0.0000 0.0000 0.0000 35.0154 0.0000 0.0000
# 5 0.0000 0.0000 0.0000 0.0000 35.0153 0.0000
# 6 0.0000 0.0000 0.0000 0.0000 0.0000 29.5107
#
#
#
# Elastic Compliance Matrix: (Units=1/GPa)
#
#
# Indices 1 2 3 4 5 6 
#
# 1 0.013752 -0.000304 -0.004750 0.000000 0.000000 0.000000
# 2 -0.000304 0.013752 -0.004750 0.000000 0.000000 0.000000
# 3 -0.004750 -0.004750 0.011308 0.000000 0.000000 0.000000
# 4 0.000000 0.000000 0.000000 0.028559 0.000000 0.000000
# 5 0.000000 0.000000 0.000000 0.000000 0.028559 0.000000
# 6 0.000000 0.000000 0.000000 0.000000 0.000000 0.033886
#
#
# Mechanical properties :
#
#
# Convention : Reuss Voigt Hill
#
# Bulk Modulus (GPa) = 52.07384 57.21113 54.64249
# Shear Modulus (GPa) = 32.08718 33.00828 32.54773
#
# Velocity S-wave (km/s) = 3.85756 3.91253 3.88514
# Velocity P-wave (km/s) = 6.63255 6.85148 6.74290
#
# Compressibility (1/GPa) = 0.01920350
#
# Stress axis : x y z
#
# Youngs Moduli (GPa) = 72.71603 72.71647 88.43452
#
# Poissons Ratio (x) = 0.02211 0.42007
# Poissons Ratio (y) = 0.02211 0.42007
# Poissons Ratio (z) = 0.34541 0.34541
#
# Static dielectric constant tensor:
#      x y z
#    x 3.854360 0.000000 0.000000 
#    y 0.000000 3.854360 0.000000 
#    z 0.000000 0.000000 4.385290 
# 
# 
# High freq. dielectric constant tensor:
#      x y z
#    x 1.845450 0.000000 0.000000 
#    y 0.000000 1.845450 0.000000 
#    z 0.000000 0.000000 1.866060 
# 
# From -- ./inp_files/4755.got.cif
#   From: 2010.03.12/outbox.cif.g09.slc.cpg/sg95_3_cif.got.tgz:4755.got - 2010.04.08 20:51:55.
