data_PCOD8305986
_publ_section_title
;
Structure prediction by ZEFSAII (Michael W. Deem and Ramdas Pophale) SiO2 
 PCOD8305986
Probable space group: P 43 21 2
;
_chemical_formula_sum "Si O2"
_cell_formula_units_Z 48
_cell_length_a 9.188032
_cell_length_b 9.188032
_cell_length_c 28.111166
_cell_angle_alpha 90.000000
_cell_angle_beta 90.000000
_cell_angle_gamma 90.000000
_cell_volume 2373.142723
_symmetry_space_group_name_H-M "P 43 21 2"
_symmetry_group_IT_number 96
_symmetry_cell_setting 'tetragonal'
loop_
_space_group_symop_operation_xyz
x,y,z
1/2-y,1/2+x,3/4+z
-x,-y,1/2+z
1/2+y,1/2-x,1/4+z
1/2+x,1/2-y,1/4-z
1/2-x,1/2+y,3/4-z
y,x,-z
-y,-x,1/2-z
loop_
_atom_site_type_symbol
_atom_site_label
_atom_site_fract_x
_atom_site_fract_y
_atom_site_fract_z
Si Si1 0.801812 0.851892 0.103132
Si Si2 0.897150 0.040506 0.352392
Si Si3 0.960635 0.039366 0.250000
Si Si4 0.199281 0.653307 0.599892
Si Si5 0.706528 0.293473 0.750000
Si Si6 0.904267 0.459552 0.896944
Si Si7 0.792550 0.462064 0.998720
O O1 0.846854 0.687450 0.114958
O O2 0.630112 0.874358 0.114372
O O3 0.915359 0.938194 0.135942
O O4 0.832753 0.886110 0.047051
O O5 0.863738 0.075467 0.296535
O O6 0.815837 0.153669 0.386741
O O7 0.875128 0.868757 0.362439
O O8 0.126255 0.064455 0.265878
O O9 0.084255 0.566692 0.632642
O O10 0.165300 0.635579 0.544028
O O11 0.873088 0.319111 0.764626
O O12 0.888611 0.423243 0.952875
#
# Coordination Sequence:
#
# PCOD8305986 Si02
#       7
#     8   8   4   8   4   8   8
#     4  11  21  39  63  93 122 157 208 257 305 368
#     4  11  23  43  62  90 127 164 207 259 315 375
#     4   9  18  38  65  84 116 168 205 238 309 378
#     4  11  23  43  61  89 128 163 206 261 314 375
#     4   9  18  36  63  90 118 154 205 256 297 362
#     4  11  21  39  64  94 121 158 207 257 307 368
#     4   9  18  37  64  87 117 161 205 246 305 370
#
# _framework density 20.226343
#
# number of rings (size 3 to 8) (size 9 to 14) (size 15 to 20)
#    0.000    1.667    3.333    2.000    0.000    0.000 
#   12.000    0.000    0.000    0.000    0.000    0.000 
#    0.000    0.000    0.000    0.000    0.000    0.000 
#
# Total GULP energy -594868.554842 kJ/mol
# GULP energy per Si atom -12393.094893 kJ/mol
# Density = 2.018031 g / cm^3
# Si number density = 20.226343 Si / 1000 Ang^3
#
#
#
# Elastic Constant Matrix: (Units=GPa)
#
#
# Indices 1 2 3 4 5 6 
#
# 1 59.8114 14.3542 33.0284 0.0000 0.0000 0.0000
# 2 14.3542 59.8108 33.0282 0.0000 0.0000 0.0000
# 3 33.0284 33.0282 135.0879 0.0000 0.0000 0.0000
# 4 0.0000 0.0000 0.0000 31.1556 0.0000 0.0000
# 5 0.0000 0.0000 0.0000 0.0000 31.1557 0.0000
# 6 0.0000 0.0000 0.0000 0.0000 0.0000 39.9314
#
#
#
# Elastic Compliance Matrix: (Units=1/GPa)
#
#
# Indices 1 2 3 4 5 6 
#
# 1 0.019618 -0.002381 -0.004214 0.000000 0.000000 0.000000
# 2 -0.002381 0.019618 -0.004214 0.000000 0.000000 0.000000
# 3 -0.004214 -0.004214 0.009463 0.000000 0.000000 0.000000
# 4 0.000000 0.000000 0.000000 0.032097 0.000000 0.000000
# 5 0.000000 0.000000 0.000000 0.000000 0.032097 0.000000
# 6 0.000000 0.000000 0.000000 0.000000 0.000000 0.025043
#
#
# Mechanical properties :
#
#
# Convention : Reuss Voigt Hill
#
# Bulk Modulus (GPa) = 36.92775 46.17020 41.54897
# Shear Modulus (GPa) = 29.65918 32.06850 30.86384
#
# Velocity S-wave (km/s) = 3.83347 3.98613 3.91054
# Velocity P-wave (km/s) = 6.15555 6.63792 6.40128
#
# Compressibility (1/GPa) = 0.02707991
#
# Stress axis : x y z
#
# Youngs Moduli (GPa) = 50.97404 50.97352 105.67059
#
# Poissons Ratio (x) = 0.12136 0.44533
# Poissons Ratio (y) = 0.12137 0.44533
# Poissons Ratio (z) = 0.21482 0.21482
#
# Static dielectric constant tensor:
#      x y z
#    x 3.419300 0.000000 0.000000 
#    y 0.000000 3.419310 0.000000 
#    z 0.000000 0.000000 3.899240 
# 
# 
# High freq. dielectric constant tensor:
#      x y z
#    x 1.775610 0.000000 0.000000 
#    y 0.000000 1.775610 0.000000 
#    z 0.000000 0.000000 1.805140 
# 
# From -- ./inp_files/4524.got.cif
#   From: 2010.03.12/outbox.cif.g09.slc.cpg/sg96_3_cif.got.tgz:4524.got - 2010.04.08 20:56:49.
