data_PCOD8305737
_publ_section_title
;
Structure prediction by ZEFSAII (Michael W. Deem and Ramdas Pophale) SiO2 
 PCOD8305737
Probable space group: P 42 21 2
;
_chemical_formula_sum "Si O2"
_cell_formula_units_Z 58
_cell_length_a 17.016506
_cell_length_b 17.016506
_cell_length_c 9.668989
_cell_angle_alpha 90.000000
_cell_angle_beta 90.000000
_cell_angle_gamma 90.000000
_cell_volume 2799.766731
_symmetry_space_group_name_H-M "P 42 21 2"
_symmetry_group_IT_number 94
_symmetry_cell_setting 'tetragonal'
loop_
_space_group_symop_operation_xyz
x,y,z
1/2-y,1/2+x,1/2+z
-x,-y,z
1/2+y,1/2-x,1/2+z
1/2+x,1/2-y,1/2-z
1/2-x,1/2+y,1/2-z
y,x,-z
-y,-x,-z
loop_
_atom_site_type_symbol
_atom_site_label
_atom_site_fract_x
_atom_site_fract_y
_atom_site_fract_z
Si Si1 0.371339 0.819369 0.580501
Si Si2 0.764168 0.125048 0.930089
Si Si3 0.275269 0.686741 0.184566
Si Si4 0.000000 0.000000 0.500000
Si Si5 0.542053 0.762866 0.155272
Si Si6 0.168800 0.019593 0.401282
Si Si7 0.292791 0.965726 0.187336
Si Si8 0.386032 0.820109 0.268477
O O1 0.326875 0.747457 0.655408
O O2 0.318452 0.896756 0.577143
O O3 0.450298 0.835212 0.669945
O O4 0.390102 0.791646 0.426416
O O5 0.704217 0.197019 0.903831
O O6 0.782366 0.081891 0.784832
O O7 0.844573 0.155428 0.000000
O O8 0.724988 0.064227 0.034057
O O9 0.318894 0.612916 0.116026
O O10 0.331078 0.762438 0.179175
O O11 0.924081 0.998799 0.398538
O O12 0.472821 0.819624 0.206430
O O13 0.509439 0.698398 0.050464
O O14 0.213410 0.973036 0.278821
O O15 0.353227 0.908337 0.263464
#
# Coordination Sequence:
#
# PCOD8305737 Si02
#       8
#     8   8   8   2   8   8   8   8
#     4  10  23  43  61 103 128 172 215 272 329 399
#     4  11  22  39  65  98 123 167 216 271 319 389
#     4  10  23  41  68  89 129 169 230 260 327 390
#     4  12  28  40  64  94 136 168 216 266 334 366
#     4  11  24  41  69  95 133 170 216 269 334 398
#     4  11  25  44  63  96 130 172 218 274 322 399
#     4  11  23  42  67  95 135 163 214 272 328 392
#     4  12  21  41  69  95 129 174 213 276 326 392
#
# _framework density 20.716011000000002
#
# number of rings (size 3 to 8) (size 9 to 14) (size 15 to 20)
#    0.000    1.103    4.138    2.069    2.897    0.552 
#    0.000    1.379    0.000    0.828    0.000    0.000 
#    0.000    0.000    0.000    0.000    0.000    0.000 
#
# Total GULP energy -719307.162716 kJ/mol
# GULP energy per Si atom -12401.847633 kJ/mol
# Density = 2.066886 g / cm^3
# Si number density = 20.716011 Si / 1000 Ang^3
#
#
#
# Elastic Constant Matrix: (Units=GPa)
#
#
# Indices 1 2 3 4 5 6 
#
# 1 95.3681 31.3474 20.1768 0.0000 0.0000 0.0000
# 2 31.3474 95.3685 20.1768 0.0000 0.0000 0.0000
# 3 20.1768 20.1768 110.4747 0.0000 0.0000 0.0000
# 4 0.0000 0.0000 0.0000 30.5676 0.0000 0.0000
# 5 0.0000 0.0000 0.0000 0.0000 30.5673 0.0000
# 6 0.0000 0.0000 0.0000 0.0000 0.0000 24.5801
#
#
#
# Elastic Compliance Matrix: (Units=1/GPa)
#
#
# Indices 1 2 3 4 5 6 
#
# 1 0.011999 -0.003620 -0.001530 0.000000 0.000000 0.000000
# 2 -0.003620 0.011999 -0.001530 0.000000 0.000000 0.000000
# 3 -0.001530 -0.001530 0.009611 0.000000 0.000000 0.000000
# 4 0.000000 0.000000 0.000000 0.032714 0.000000 0.000000
# 5 0.000000 0.000000 0.000000 0.000000 0.032715 0.000000
# 6 0.000000 0.000000 0.000000 0.000000 0.000000 0.040683
#
#
# Mechanical properties :
#
#
# Convention : Reuss Voigt Hill
#
# Bulk Modulus (GPa) = 49.38859 49.40148 49.39503
# Shear Modulus (GPa) = 31.28252 32.44366 31.86309
#
# Velocity S-wave (km/s) = 3.89017 3.96171 3.92610
# Velocity P-wave (km/s) = 6.63856 6.69520 6.66694
#
# Compressibility (1/GPa) = 0.02024759
#
# Stress axis : x y z
#
# Youngs Moduli (GPa) = 83.33687 83.33721 104.04927
#
# Poissons Ratio (x) = 0.30172 0.15923
# Poissons Ratio (y) = 0.30172 0.15923
# Poissons Ratio (z) = 0.12753 0.12753
#
# Static dielectric constant tensor:
#      x y z
#    x 3.706450 0.000000 0.000000 
#    y 0.000000 3.706450 0.000000 
#    z 0.000000 0.000000 3.844960 
# 
# 
# High freq. dielectric constant tensor:
#      x y z
#    x 1.805000 0.000000 0.000000 
#    y 0.000000 1.805000 0.000000 
#    z 0.000000 0.000000 1.828930 
# 
# From -- ./inp_files/1742.got.cif
#   From: 2010.03.12/outbox.cif.g09.slc.cpg/sg94_1_cif.got.tgz:1742.got - 2010.04.08 20:48:32.
