data_PCOD8305800
_publ_section_title
;
Structure prediction by ZEFSAII (Michael W. Deem and Ramdas Pophale) SiO2 
 PCOD8305800
Probable space group: P 42 21 2
;
_chemical_formula_sum "Si O2"
_cell_formula_units_Z 48
_cell_length_a 8.257544
_cell_length_b 8.257544
_cell_length_c 29.486402
_cell_angle_alpha 90.000000
_cell_angle_beta 90.000000
_cell_angle_gamma 90.000000
_cell_volume 2010.590264
_symmetry_space_group_name_H-M "P 42 21 2"
_symmetry_group_IT_number 94
_symmetry_cell_setting 'tetragonal'
loop_
_space_group_symop_operation_xyz
x,y,z
1/2-y,1/2+x,1/2+z
-x,-y,z
1/2+y,1/2-x,1/2+z
1/2+x,1/2-y,1/2-z
1/2-x,1/2+y,1/2-z
y,x,-z
-y,-x,-z
loop_
_atom_site_type_symbol
_atom_site_label
_atom_site_fract_x
_atom_site_fract_y
_atom_site_fract_z
Si Si1 0.294085 0.308192 0.549524
Si Si2 0.164675 0.102668 0.630194
Si Si3 0.217563 0.843000 0.195986
Si Si4 0.659608 0.911220 0.786356
Si Si5 0.320114 0.669498 0.550244
Si Si6 0.700490 0.834871 0.145293
O O1 0.244447 0.244447 0.500000
O O2 0.202031 0.185823 0.582428
O O3 0.240258 0.493047 0.557481
O O4 0.486849 0.317910 0.552709
O O5 0.174319 0.237813 0.669839
O O6 0.320490 0.993327 0.646009
O O7 0.000000 0.000000 0.628931
O O8 0.338943 0.877375 0.236935
O O9 0.035583 0.813287 0.214558
O O10 0.225969 0.990302 0.159072
O O11 0.700302 0.767681 0.820508
O O12 0.500000 0.000000 0.803341
O O13 0.264974 0.735027 0.500000
O O14 0.265228 0.766997 0.594364
#
# Coordination Sequence:
#
# PCOD8305800 Si02
#       6
#     8   8   8   8   8   8
#     4   9  19  39  67  97 132 176 228 284 345 414
#     4  12  25  42  65  96 141 183 227 291 358 425
#     4  12  25  45  71  98 137 185 239 288 354 432
#     4  12  26  44  68 103 141 179 232 295 356 425
#     4   9  19  40  71 101 128 173 239 293 337 414
#     4  12  25  43  72 102 136 188 239 287 358 428
#
# _framework density 23.873584000000001
#
# number of rings (size 3 to 8) (size 9 to 14) (size 15 to 20)
#    0.000    1.000    1.667    7.000    2.333    1.667 
#    3.000    0.000    0.000    0.000    0.000    0.000 
#    0.000    0.000    0.000    0.000    0.000    0.000 
#
# Total GULP energy -594682.979990 kJ/mol
# GULP energy per Si atom -12389.228750 kJ/mol
# Density = 2.381925 g / cm^3
# Si number density = 23.873584 Si / 1000 Ang^3
#
#
#
# Elastic Constant Matrix: (Units=GPa)
#
#
# Indices 1 2 3 4 5 6 
#
# 1 63.0414 10.8143 28.9200 0.0000 0.0000 0.0000
# 2 10.8143 63.0412 28.9199 0.0000 0.0000 0.0000
# 3 28.9200 28.9199 167.3602 0.0000 0.0000 0.0000
# 4 0.0000 0.0000 0.0000 26.9586 0.0000 0.0000
# 5 0.0000 0.0000 0.0000 0.0000 26.9587 0.0000
# 6 0.0000 0.0000 0.0000 0.0000 0.0000 34.7119
#
#
#
# Elastic Compliance Matrix: (Units=1/GPa)
#
#
# Indices 1 2 3 4 5 6 
#
# 1 0.017403 -0.001744 -0.002706 0.000000 0.000000 0.000000
# 2 -0.001744 0.017403 -0.002706 0.000000 0.000000 0.000000
# 3 -0.002706 -0.002706 0.006910 0.000000 0.000000 0.000000
# 4 0.000000 0.000000 0.000000 0.037094 0.000000 0.000000
# 5 0.000000 0.000000 0.000000 0.000000 0.037094 0.000000
# 6 0.000000 0.000000 0.000000 0.000000 0.000000 0.028809
#
#
# Mechanical properties :
#
#
# Convention : Reuss Voigt Hill
#
# Bulk Modulus (GPa) = 36.48994 47.86125 42.17559
# Shear Modulus (GPa) = 29.73367 32.71173 31.22270
#
# Velocity S-wave (km/s) = 3.53294 3.70565 3.62032
# Velocity P-wave (km/s) = 5.65332 6.19680 5.93129
#
# Compressibility (1/GPa) = 0.02740482
#
# Stress axis : x y z
#
# Youngs Moduli (GPa) = 57.46103 57.46085 144.71164
#
# Poissons Ratio (x) = 0.10022 0.39157
# Poissons Ratio (y) = 0.10022 0.39157
# Poissons Ratio (z) = 0.15548 0.15548
#
# Static dielectric constant tensor:
#      x y z
#    x 4.190310 0.000000 0.000000 
#    y 0.000000 4.190310 0.000000 
#    z 0.000000 0.000000 4.804960 
# 
# 
# High freq. dielectric constant tensor:
#      x y z
#    x 1.937680 0.000000 0.000000 
#    y 0.000000 1.937680 0.000000 
#    z 0.000000 0.000000 1.963340 
# 
# From -- ./inp_files/5568.got.cif
#   From: 2010.03.12/outbox.cif.g09.slc.cpg/sg94_3_cif.got.tgz:5568.got - 2010.04.08 20:48:32.
