data_PCOD8305979
_publ_section_title
;
Structure prediction by ZEFSAII (Michael W. Deem and Ramdas Pophale) SiO2 
 PCOD8305979
Probable space group: P 43 21 2
;
_chemical_formula_sum "Si O2"
_cell_formula_units_Z 24
_cell_length_a 7.530204
_cell_length_b 7.530204
_cell_length_c 16.412260
_cell_angle_alpha 90.000000
_cell_angle_beta 90.000000
_cell_angle_gamma 90.000000
_cell_volume 930.640336
_symmetry_space_group_name_H-M "P 43 21 2"
_symmetry_group_IT_number 96
_symmetry_cell_setting 'tetragonal'
loop_
_space_group_symop_operation_xyz
x,y,z
1/2-y,1/2+x,3/4+z
-x,-y,1/2+z
1/2+y,1/2-x,1/4+z
1/2+x,1/2-y,1/4-z
1/2-x,1/2+y,3/4-z
y,x,-z
-y,-x,1/2-z
loop_
_atom_site_type_symbol
_atom_site_label
_atom_site_fract_x
_atom_site_fract_y
_atom_site_fract_z
Si Si1 0.566375 0.189842 0.205309
Si Si2 0.414469 0.892737 0.116407
Si Si3 0.012495 0.961390 0.340106
O O1 0.750282 0.249719 0.250000
O O2 0.422435 0.138779 0.272960
O O3 0.490954 0.350979 0.150403
O O4 0.583324 0.016042 0.146418
O O5 0.454475 0.687518 0.130895
O O6 0.248622 0.954745 0.171244
O O7 0.966126 0.033874 0.250000
#
# Coordination Sequence:
#
# PCOD8305979 Si02
#       3
#     8   8   8
#     4  10  25  48  77 111 154 207 258 320 395 467
#     4  11  24  49  76 111 154 200 265 321 395 469
#     4  11  25  46  77 112 155 204 260 327 398 470
#
# _framework density 25.788692999999999
#
# number of rings (size 3 to 8) (size 9 to 14) (size 15 to 20)
#    0.000    1.333    3.333    0.000    0.000   16.000 
#    6.000    0.000    0.000    0.000    0.000    0.000 
#    0.000    0.000    0.000    0.000    0.000    0.000 
#
# Total GULP energy -297461.594338 kJ/mol
# GULP energy per Si atom -12394.233097 kJ/mol
# Density = 2.573000 g / cm^3
# Si number density = 25.788693 Si / 1000 Ang^3
#
#
#
# Elastic Constant Matrix: (Units=GPa)
#
#
# Indices 1 2 3 4 5 6 
#
# 1 89.7768 57.6175 57.2115 0.0000 0.0000 0.0000
# 2 57.6175 89.7770 57.2119 0.0000 0.0000 0.0000
# 3 57.2115 57.2119 154.5951 0.0000 0.0000 0.0000
# 4 0.0000 0.0000 0.0000 17.9053 0.0000 0.0000
# 5 0.0000 0.0000 0.0000 0.0000 17.9052 0.0000
# 6 0.0000 0.0000 0.0000 0.0000 0.0000 41.3298
#
#
#
# Elastic Compliance Matrix: (Units=1/GPa)
#
#
# Indices 1 2 3 4 5 6 
#
# 1 0.020307 -0.010788 -0.003523 0.000000 0.000000 0.000000
# 2 -0.010788 0.020307 -0.003523 0.000000 0.000000 0.000000
# 3 -0.003523 -0.003523 0.009076 0.000000 0.000000 0.000000
# 4 0.000000 0.000000 0.000000 0.055849 0.000000 0.000000
# 5 0.000000 0.000000 0.000000 0.000000 0.055850 0.000000
# 6 0.000000 0.000000 0.000000 0.000000 0.000000 0.024196
#
#
# Mechanical properties :
#
#
# Convention : Reuss Voigt Hill
#
# Bulk Modulus (GPa) = 71.31051 75.35898 73.33475
# Shear Modulus (GPa) = 22.13107 26.23526 24.18316
#
# Velocity S-wave (km/s) = 2.93263 3.19300 3.06558
# Velocity P-wave (km/s) = 6.25931 6.54819 6.40538
#
# Compressibility (1/GPa) = 0.01402318
#
# Stress axis : x y z
#
# Youngs Moduli (GPa) = 49.24354 49.24346 110.18121
#
# Poissons Ratio (x) = 0.53123 0.38815
# Poissons Ratio (y) = 0.53123 0.38816
# Poissons Ratio (z) = 0.17348 0.17348
#
# Static dielectric constant tensor:
#      x y z
#    x 4.647170 0.000000 0.000000 
#    y 0.000000 4.647160 0.000000 
#    z 0.000000 0.000000 4.761390 
# 
# 
# High freq. dielectric constant tensor:
#      x y z
#    x 2.028290 0.000000 0.000000 
#    y 0.000000 2.028290 0.000000 
#    z 0.000000 0.000000 2.041810 
# 
# From -- ./inp_files/2445.got.cif
#   From: 2010.03.12/outbox.cif.g09.slc.cpg/sg96_2_cif.got.tgz:2445.got - 2010.04.08 20:56:49.
