data_PCOD8305210
_publ_section_title
;
Structure prediction by ZEFSAII (Michael W. Deem and Ramdas Pophale) SiO2 
 PCOD8305210
Probable space group: P 41 21 2
;
_chemical_formula_sum "Si O2"
_cell_formula_units_Z 56
_cell_length_a 14.705883
_cell_length_b 14.705883
_cell_length_c 13.315749
_cell_angle_alpha 90.000000
_cell_angle_beta 90.000000
_cell_angle_gamma 90.000000
_cell_volume 2879.703757
_symmetry_space_group_name_H-M "P 41 21 2"
_symmetry_group_IT_number 92
_symmetry_cell_setting 'tetragonal'
loop_
_space_group_symop_operation_xyz
x,y,z
1/2-y,1/2+x,1/4+z
-x,-y,1/2+z
1/2+y,1/2-x,3/4+z
1/2+x,1/2-y,3/4-z
1/2-x,1/2+y,1/4-z
y,x,-z
-y,-x,1/2-z
loop_
_atom_site_type_symbol
_atom_site_label
_atom_site_fract_x
_atom_site_fract_y
_atom_site_fract_z
Si Si1 0.339992 0.860614 0.435199
Si Si2 0.206701 0.058310 0.295804
Si Si3 0.801084 0.444241 0.247398
Si Si4 0.793388 0.932939 0.209803
Si Si5 0.232780 0.324796 0.228148
Si Si6 0.377061 0.235599 0.985599
Si Si7 0.620511 0.756931 0.050453
O O1 0.414999 0.789168 0.470395
O O2 0.240519 0.819339 0.460320
O O3 0.349533 0.878901 0.314193
O O4 0.351512 0.958220 0.491045
O O5 0.239686 0.080535 0.407450
O O6 0.110068 0.106264 0.279001
O O7 0.192071 0.952249 0.274379
O O8 0.731923 0.448702 0.155211
O O9 0.874797 0.363383 0.231553
O O10 0.727717 0.861267 0.261736
O O11 0.790090 0.028007 0.266502
O O12 0.214317 0.391018 0.132526
O O13 0.253197 0.380206 0.329225
O O14 0.277852 0.277852 0.000000
O O15 0.706257 0.706257 0.000000
#
# Coordination Sequence:
#
# PCOD8305210 Si02
#       7
#     8   8   8   8   8   8   8
#     4   9  18  34  56  76  97 134 177 216 259 308
#     4  10  19  33  55  79 103 135 178 217 254 309
#     4  10  18  33  55  78 103 133 172 216 263 308
#     4  10  20  33  52  77 106 140 171 209 263 314
#     4   9  19  36  52  72 104 138 172 212 263 309
#     4   9  19  35  53  73 103 139 173 214 261 310
#     4  11  21  34  54  79 109 139 171 214 263 314
#
# _framework density 19.446446000000002
#
# number of rings (size 3 to 8) (size 9 to 14) (size 15 to 20)
#    0.000    2.286    0.000    4.714    0.000    1.714 
#    0.000    7.857    0.000    0.000    0.000    0.000 
#    0.000    0.000    0.000    0.000    0.000    0.000 
#
# Total GULP energy -694022.566860 kJ/mol
# GULP energy per Si atom -12393.260123 kJ/mol
# Density = 1.940218 g / cm^3
# Si number density = 19.446446 Si / 1000 Ang^3
#
#
#
# Elastic Constant Matrix: (Units=GPa)
#
#
# Indices 1 2 3 4 5 6 
#
# 1 65.3794 4.1222 23.0985 0.0000 0.0000 0.0000
# 2 4.1222 65.3794 23.0985 0.0000 0.0000 0.0000
# 3 23.0985 23.0985 153.2107 0.0000 0.0000 0.0000
# 4 0.0000 0.0000 0.0000 23.4981 0.0000 0.0000
# 5 0.0000 0.0000 0.0000 0.0000 23.4981 0.0000
# 6 0.0000 0.0000 0.0000 0.0000 0.0000 13.3505
#
#
#
# Elastic Compliance Matrix: (Units=1/GPa)
#
#
# Indices 1 2 3 4 5 6 
#
# 1 0.016158 -0.000167 -0.002411 0.000000 0.000000 0.000000
# 2 -0.000167 0.016158 -0.002411 0.000000 0.000000 0.000000
# 3 -0.002411 -0.002411 0.007254 0.000000 0.000000 0.000000
# 4 0.000000 0.000000 0.000000 0.042557 0.000000 0.000000
# 5 0.000000 0.000000 0.000000 0.000000 0.042557 0.000000
# 6 0.000000 0.000000 0.000000 0.000000 0.000000 0.074904
#
#
# Mechanical properties :
#
#
# Convention : Reuss Voigt Hill
#
# Bulk Modulus (GPa) = 33.79303 42.73418 38.26361
# Shear Modulus (GPa) = 22.78663 27.64604 25.21634
#
# Velocity S-wave (km/s) = 3.42682 3.77457 3.60489
# Velocity P-wave (km/s) = 5.75088 6.40465 6.08655
#
# Compressibility (1/GPa) = 0.02959190
#
# Stress axis : x y z
#
# Youngs Moduli (GPa) = 61.89042 61.89042 137.85740
#
# Poissons Ratio (x) = 0.01034 0.33234
# Poissons Ratio (y) = 0.01034 0.33234
# Poissons Ratio (z) = 0.14920 0.14920
#
# Static dielectric constant tensor:
#      x y z
#    x 3.380470 0.000000 0.000000 
#    y 0.000000 3.380470 0.000000 
#    z 0.000000 0.000000 3.921120 
# 
# 
# High freq. dielectric constant tensor:
#      x y z
#    x 1.738310 0.000000 0.000000 
#    y 0.000000 1.738310 0.000000 
#    z 0.000000 0.000000 1.777260 
# 
# From -- ./inp_files/2763.got.cif
#   From: 2010.03.12/outbox.cif.g09.slc.cpg/sg92_2_cif.got.tgz:2763.got - 2010.04.08 20:41:11.
