data_PCOD8305250
_publ_section_title
;
Structure prediction by ZEFSAII (Michael W. Deem and Ramdas Pophale) SiO2 
 PCOD8305250
Probable space group: P 41 21 2
;
_chemical_formula_sum "Si O2"
_cell_formula_units_Z 40
_cell_length_a 20.068114
_cell_length_b 20.068114
_cell_length_c 5.011122
_cell_angle_alpha 90.000000
_cell_angle_beta 90.000000
_cell_angle_gamma 90.000000
_cell_volume 2018.125152
_symmetry_space_group_name_H-M "P 41 21 2"
_symmetry_group_IT_number 92
_symmetry_cell_setting 'tetragonal'
loop_
_space_group_symop_operation_xyz
x,y,z
1/2-y,1/2+x,1/4+z
-x,-y,1/2+z
1/2+y,1/2-x,3/4+z
1/2+x,1/2-y,3/4-z
1/2-x,1/2+y,1/4-z
y,x,-z
-y,-x,1/2-z
loop_
_atom_site_type_symbol
_atom_site_label
_atom_site_fract_x
_atom_site_fract_y
_atom_site_fract_z
Si Si1 0.861138 0.637787 0.991254
Si Si2 0.027371 0.229590 0.005173
Si Si3 0.828043 0.718076 0.485718
Si Si4 0.915581 0.027218 0.503147
Si Si5 0.995879 0.308293 0.491680
O O1 0.827728 0.690066 0.188958
O O2 0.848687 0.565906 0.121156
O O3 0.940835 0.642997 0.969778
O O4 0.829504 0.656947 0.701810
O O5 0.007227 0.154720 0.954001
O O6 0.003450 0.244575 0.303012
O O7 0.107196 0.235173 0.007929
O O8 0.991451 0.280272 0.794678
O O9 0.761365 0.761365 0.500000
O O10 0.924473 0.075528 0.250000
O O11 0.924089 0.075912 0.750000
O O12 0.969154 0.969154 0.500000
#
# Coordination Sequence:
#
# PCOD8305250 Si02
#       5
#     8   8   8   8   8
#     4  10  21  38  58  83 112 143 182 228 276 325
#     4  10  20  36  57  79 109 145 181 225 274 319
#     4  10  20  36  59  83 109 143 185 226 267 321
#     4  10  20  34  53  79 111 145 186 228 266 321
#     4  10  21  38  58  80 110 142 180 229 275 328
#
# _framework density 19.820377000000001
#
# number of rings (size 3 to 8) (size 9 to 14) (size 15 to 20)
#    0.000    2.000    0.000    3.600    0.000    0.000 
#    0.000   22.000    0.000    0.000    0.000    0.000 
#    0.000    0.000    0.000    0.000    0.000    0.000 
#
# Total GULP energy -495701.732711 kJ/mol
# GULP energy per Si atom -12392.543318 kJ/mol
# Density = 1.977527 g / cm^3
# Si number density = 19.820377 Si / 1000 Ang^3
#
#
#
# Elastic Constant Matrix: (Units=GPa)
#
#
# Indices 1 2 3 4 5 6 
#
# 1 62.2549 29.8297 20.1199 0.0000 0.0000 0.0000
# 2 29.8297 62.2559 20.1197 0.0000 0.0000 0.0000
# 3 20.1199 20.1197 92.6339 0.0000 0.0000 0.0000
# 4 0.0000 0.0000 0.0000 14.1223 0.0000 0.0000
# 5 0.0000 0.0000 0.0000 0.0000 14.1173 0.0000
# 6 0.0000 0.0000 0.0000 0.0000 0.0000 20.8347
#
#
#
# Elastic Compliance Matrix: (Units=1/GPa)
#
#
# Indices 1 2 3 4 5 6 
#
# 1 0.021419 -0.009421 -0.002606 0.000000 0.000000 0.000000
# 2 -0.009421 0.021419 -0.002606 0.000000 0.000000 0.000000
# 3 -0.002606 -0.002606 0.011927 0.000000 0.000000 0.000000
# 4 0.000000 0.000000 0.000000 0.070810 0.000000 0.000000
# 5 0.000000 0.000000 0.000000 0.000000 0.070835 0.000000
# 6 0.000000 0.000000 0.000000 0.000000 0.000000 0.047997
#
#
# Mechanical properties :
#
#
# Convention : Reuss Voigt Hill
#
# Bulk Modulus (GPa) = 39.21593 39.69812 39.45703
# Shear Modulus (GPa) = 17.71968 19.61990 18.66979
#
# Velocity S-wave (km/s) = 2.99325 3.14966 3.07245
# Velocity P-wave (km/s) = 5.63690 5.77058 5.70413
#
# Compressibility (1/GPa) = 0.02549984
#
# Stress axis : x y z
#
# Youngs Moduli (GPa) = 46.68704 46.68796 83.84189
#
# Poissons Ratio (x) = 0.43983 0.21850
# Poissons Ratio (y) = 0.43983 0.21848
# Poissons Ratio (z) = 0.12167 0.12166
#
# Static dielectric constant tensor:
#      x y z
#    x 3.488550 0.000000 0.000000 
#    y 0.000000 3.488550 0.000000 
#    z 0.000000 0.000000 4.008320 
# 
# 
# High freq. dielectric constant tensor:
#      x y z
#    x 1.762260 0.000000 0.000000 
#    y 0.000000 1.762260 0.000000 
#    z 0.000000 0.000000 1.797830 
# 
# From -- ./inp_files/412.got.cif
#   From: 2010.03.12/outbox.cif.g09.slc.cpg/sg92_1_cif.got.tgz:412.got - 2010.04.08 20:41:11.
