data_PCOD8305423
_publ_section_title
;
Structure prediction by ZEFSAII (Michael W. Deem and Ramdas Pophale) SiO2 
 PCOD8305423
Probable space group: P 41 21 2
;
_chemical_formula_sum "Si O2"
_cell_formula_units_Z 24
_cell_length_a 7.901465
_cell_length_b 7.901465
_cell_length_c 16.156605
_cell_angle_alpha 90.000000
_cell_angle_beta 90.000000
_cell_angle_gamma 90.000000
_cell_volume 1008.707730
_symmetry_space_group_name_H-M "P 41 21 2"
_symmetry_group_IT_number 92
_symmetry_cell_setting 'tetragonal'
loop_
_space_group_symop_operation_xyz
x,y,z
1/2-y,1/2+x,1/4+z
-x,-y,1/2+z
1/2+y,1/2-x,3/4+z
1/2+x,1/2-y,3/4-z
1/2-x,1/2+y,1/4-z
y,x,-z
-y,-x,1/2-z
loop_
_atom_site_type_symbol
_atom_site_label
_atom_site_fract_x
_atom_site_fract_y
_atom_site_fract_z
Si Si1 0.325176 0.588313 0.399284
Si Si2 0.261484 0.268960 0.304791
Si Si3 0.556459 0.705069 0.645319
O O1 0.218701 0.439931 0.354911
O O2 0.270713 0.599344 0.495977
O O3 0.291682 0.772980 0.357001
O O4 0.519431 0.541674 0.391807
O O5 0.427644 0.295585 0.245864
O O6 0.302500 0.112546 0.366257
#
# Coordination Sequence:
#
# PCOD8305423 Si02
#       3
#     8   8   8
#     4  10  24  47  76 104 149 189 248 298 370 432
#     4  10  24  48  76 102 150 192 246 302 366 436
#     4  10  24  47  76 104 149 189 248 298 370 432
#
# _framework density 23.792816999999999
#
# number of rings (size 3 to 8) (size 9 to 14) (size 15 to 20)
#    2.000    0.000    0.000    2.000    0.000    8.000 
#   12.000    3.333    0.000    0.000    0.000    0.000 
#    0.000    0.000    0.000    0.000    0.000    0.000 
#
# Total GULP energy -297380.165504 kJ/mol
# GULP energy per Si atom -12390.840229 kJ/mol
# Density = 2.373866 g / cm^3
# Si number density = 23.792817 Si / 1000 Ang^3
#
#
#
# Elastic Constant Matrix: (Units=GPa)
#
#
# Indices 1 2 3 4 5 6 
#
# 1 116.3562 4.5054 37.7112 0.0000 0.0000 0.0000
# 2 4.5054 116.3562 37.7112 0.0000 0.0000 0.0000
# 3 37.7112 37.7112 105.6212 0.0000 0.0000 0.0000
# 4 0.0000 0.0000 0.0000 29.8723 0.0000 0.0000
# 5 0.0000 0.0000 0.0000 0.0000 29.8723 0.0000
# 6 0.0000 0.0000 0.0000 0.0000 0.0000 9.7105
#
#
#
# Elastic Compliance Matrix: (Units=1/GPa)
#
#
# Indices 1 2 3 4 5 6 
#
# 1 0.009793 0.000853 -0.003801 0.000000 0.000000 0.000000
# 2 0.000853 0.009793 -0.003801 0.000000 0.000000 0.000000
# 3 -0.003801 -0.003801 0.012182 0.000000 0.000000 0.000000
# 4 0.000000 0.000000 0.000000 0.033476 0.000000 0.000000
# 5 0.000000 0.000000 0.000000 0.000000 0.033476 0.000000
# 6 0.000000 0.000000 0.000000 0.000000 0.000000 0.102981
#
#
# Mechanical properties :
#
#
# Convention : Reuss Voigt Hill
#
# Bulk Modulus (GPa) = 54.73531 55.35436 55.04483
# Shear Modulus (GPa) = 22.59478 31.11808 26.85643
#
# Velocity S-wave (km/s) = 3.08498 3.62038 3.36335
# Velocity P-wave (km/s) = 5.97866 6.38685 6.18612
#
# Compressibility (1/GPa) = 0.01826974
#
# Stress axis : x y z
#
# Youngs Moduli (GPa) = 102.11161 102.11161 82.08792
#
# Poissons Ratio (x) = -0.08707 0.31202
# Poissons Ratio (y) = -0.08707 0.31202
# Poissons Ratio (z) = 0.38813 0.38813
#
# Static dielectric constant tensor:
#      x y z
#    x 4.158600 0.000000 0.000000 
#    y 0.000000 4.158600 0.000000 
#    z 0.000000 0.000000 4.139110 
# 
# 
# High freq. dielectric constant tensor:
#      x y z
#    x 1.932020 0.000000 0.000000 
#    y 0.000000 1.932020 0.000000 
#    z 0.000000 0.000000 1.936030 
# 
# From -- ./inp_files/2455.got.cif
#   From: 2010.03.12/outbox.cif.g09.slc.cpg/sg92_2_cif.got.tgz:2455.got - 2010.04.08 20:41:11.
