data_PCOD8305549
_publ_section_title
;
Structure prediction by ZEFSAII (Michael W. Deem and Ramdas Pophale) SiO2 
 PCOD8305549
Probable space group: P 42 2 2
;
_chemical_formula_sum "Si O2"
_cell_formula_units_Z 32
_cell_length_a 9.183753
_cell_length_b 9.183753
_cell_length_c 18.104133
_cell_angle_alpha 90.000000
_cell_angle_beta 90.000000
_cell_angle_gamma 90.000000
_cell_volume 1526.926460
_symmetry_space_group_name_H-M "P 42 2 2"
_symmetry_group_IT_number 93
_symmetry_cell_setting 'tetragonal'
loop_
_space_group_symop_operation_xyz
x,y,z
-y,x,1/2+z
-x,-y,z
y,-x,1/2+z
x,-y,-z
-x,y,-z
y,x,1/2-z
-y,-x,1/2-z
loop_
_atom_site_type_symbol
_atom_site_label
_atom_site_fract_x
_atom_site_fract_y
_atom_site_fract_z
Si Si1 0.703184 0.344093 0.836413
Si Si2 0.324392 0.243896 0.670615
Si Si3 0.530613 0.836664 0.913837
Si Si4 0.043928 0.150490 0.170928
O O1 0.678982 0.321019 0.750000
O O2 0.745792 0.509240 0.857421
O O3 0.558023 0.294420 0.876709
O O4 0.826538 0.236103 0.869648
O O5 0.322570 0.322570 0.750000
O O6 0.210909 0.307201 0.609616
O O7 0.271143 0.080005 0.681773
O O8 0.500000 0.000000 0.882501
O O9 0.500000 0.834832 0.000000
O O10 0.100116 0.100116 0.250000
O O11 0.000000 0.000000 0.127729
#
# Coordination Sequence:
#
# PCOD8305549 Si02
#       4
#     8   8   8   8
#     4  11  23  36  64  97 129 169 219 281 334 396
#     4  12  22  37  63  98 132 169 223 280 335 404
#     4  11  26  45  65  93 136 183 223 272 348 427
#     4  10  20  36  58  94 130 170 215 276 336 392
#
# _framework density 20.957132999999999
#
# number of rings (size 3 to 8) (size 9 to 14) (size 15 to 20)
#    0.000    1.000    5.000    3.000    3.500    2.000 
#    0.000    1.250    0.000    7.500    0.000    0.000 
#    0.000    0.000    0.000    0.000    0.000    0.000 
#
# Total GULP energy -396594.644673 kJ/mol
# GULP energy per Si atom -12393.582646 kJ/mol
# Density = 2.090943 g / cm^3
# Si number density = 20.957133 Si / 1000 Ang^3
#
#
#
# Elastic Constant Matrix: (Units=GPa)
#
#
# Indices 1 2 3 4 5 6 
#
# 1 118.5956 35.1687 11.3645 0.0000 0.0000 0.0000
# 2 35.1687 118.5956 11.3645 0.0000 0.0000 0.0000
# 3 11.3645 11.3645 57.2084 0.0000 0.0000 0.0000
# 4 0.0000 0.0000 0.0000 18.3689 0.0000 0.0000
# 5 0.0000 0.0000 0.0000 0.0000 18.3690 0.0000
# 6 0.0000 0.0000 0.0000 0.0000 0.0000 52.9112
#
#
#
# Elastic Compliance Matrix: (Units=1/GPa)
#
#
# Indices 1 2 3 4 5 6 
#
# 1 0.009343 -0.002643 -0.001331 0.000000 0.000000 0.000000
# 2 -0.002643 0.009343 -0.001331 0.000000 0.000000 0.000000
# 3 -0.001331 -0.001331 0.018009 0.000000 0.000000 0.000000
# 4 0.000000 0.000000 0.000000 0.054440 0.000000 0.000000
# 5 0.000000 0.000000 0.000000 0.000000 0.054440 0.000000
# 6 0.000000 0.000000 0.000000 0.000000 0.000000 0.018900
#
#
# Mechanical properties :
#
#
# Convention : Reuss Voigt Hill
#
# Bulk Modulus (GPa) = 38.33596 45.57721 41.95659
# Shear Modulus (GPa) = 27.20646 33.69661 30.45154
#
# Velocity S-wave (km/s) = 3.60696 4.01419 3.81601
# Velocity P-wave (km/s) = 5.97320 6.57876 6.28328
#
# Compressibility (1/GPa) = 0.02608517
#
# Stress axis : x y z
#
# Youngs Moduli (GPa) = 107.02774 107.02768 55.52855
#
# Poissons Ratio (x) = 0.28289 0.07391
# Poissons Ratio (y) = 0.28289 0.07391
# Poissons Ratio (z) = 0.14245 0.14245
#
# Static dielectric constant tensor:
#      x y z
#    x 4.392100 0.000000 0.000000 
#    y 0.000000 4.392110 0.000000 
#    z 0.000000 0.000000 2.763690 
# 
# 
# High freq. dielectric constant tensor:
#      x y z
#    x 1.842150 0.000000 0.000000 
#    y 0.000000 1.842150 0.000000 
#    z 0.000000 0.000000 1.761500 
# 
# From -- ./inp_files/5894.got.cif
#   From: 2010.03.12/outbox.cif.g09.slc.cpg/sg93_3_cif.got.tgz:5894.got - 2010.04.08 20:44:19.
