data_PCOD8305977
_publ_section_title
;
Structure prediction by ZEFSAII (Michael W. Deem and Ramdas Pophale) SiO2 
 PCOD8305977
Probable space group: P 43 21 2
;
_chemical_formula_sum "Si O2"
_cell_formula_units_Z 60
_cell_length_a 17.913312
_cell_length_b 17.913312
_cell_length_c 8.276464
_cell_angle_alpha 90.000000
_cell_angle_beta 90.000000
_cell_angle_gamma 90.000000
_cell_volume 2655.807608
_symmetry_space_group_name_H-M "P 43 21 2"
_symmetry_group_IT_number 96
_symmetry_cell_setting 'tetragonal'
loop_
_space_group_symop_operation_xyz
x,y,z
1/2-y,1/2+x,3/4+z
-x,-y,1/2+z
1/2+y,1/2-x,1/4+z
1/2+x,1/2-y,1/4-z
1/2-x,1/2+y,3/4-z
y,x,-z
-y,-x,1/2-z
loop_
_atom_site_type_symbol
_atom_site_label
_atom_site_fract_x
_atom_site_fract_y
_atom_site_fract_z
Si Si1 0.447457 0.442109 0.309553
Si Si2 0.713452 0.732721 0.686103
Si Si3 0.067797 0.181725 0.948123
Si Si4 0.045304 0.722139 0.618528
Si Si5 0.793550 0.793550 0.000000
Si Si6 0.567069 0.717000 0.290444
Si Si7 0.064972 0.432105 0.737428
Si Si8 0.736194 0.930785 0.870824
O O1 0.435765 0.435765 0.500000
O O2 0.478695 0.521305 0.250000
O O3 0.504075 0.377827 0.260855
O O4 0.372298 0.434491 0.208335
O O5 0.744432 0.744432 0.500000
O O6 0.623563 0.742558 0.696599
O O7 0.749371 0.780263 0.830431
O O8 0.740662 0.651314 0.738086
O O9 0.086983 0.204695 0.768380
O O10 0.148036 0.148036 0.000000
O O11 0.032133 0.255474 0.029404
O O12 0.032966 0.748678 0.798880
O O13 0.047665 0.632535 0.607698
O O14 0.769575 0.880680 0.021077
O O15 0.518772 0.753698 0.149611
O O16 0.062819 0.487736 0.584682
O O17 0.083177 0.349833 0.669835
#
# Coordination Sequence:
#
# PCOD8305977 Si02
#       8
#     8   8   8   8   4   8   8   8
#     4  11  24  38  67 103 153 198 241 292 365 462
#     4  10  24  47  76 107 142 197 258 313 385 462
#     4  11  25  44  72 107 155 201 237 309 385 460
#     4  11  24  50  72 107 146 194 250 318 382 459
#     4  12  28  46  76 106 154 200 252 320 390 456
#     4  11  26  42  74 105 146 190 255 307 380 454
#     4  12  29  54  78 106 149 196 261 322 392 452
#     4  12  28  48  72 113 150 199 257 319 378 466
#
# _framework density 22.591998
#
# number of rings (size 3 to 8) (size 9 to 14) (size 15 to 20)
#    0.000    0.800    5.333    0.000   13.067    0.533 
#    4.800    0.000    0.000    0.000    0.000    0.000 
#    0.000    0.000    0.000    0.000    0.000    0.000 
#
# Total GULP energy -743355.046402 kJ/mol
# GULP energy per Si atom -12389.250773 kJ/mol
# Density = 2.254058 g / cm^3
# Si number density = 22.591998 Si / 1000 Ang^3
#
#
#
# Elastic Constant Matrix: (Units=GPa)
#
#
# Indices 1 2 3 4 5 6 
#
# 1 145.7419 -9.3236 37.8729 0.0000 0.0000 0.0000
# 2 -9.3236 145.7409 37.8731 0.0000 0.0000 0.0000
# 3 37.8729 37.8731 75.2618 0.0000 0.0000 0.0000
# 4 0.0000 0.0000 0.0000 143.8481 0.0000 0.0000
# 5 0.0000 0.0000 0.0000 0.0000 143.9215 0.0000
# 6 0.0000 0.0000 0.0000 0.0000 0.0000 30.0884
#
#
#
# Elastic Compliance Matrix: (Units=1/GPa)
#
#
# Indices 1 2 3 4 5 6 
#
# 1 0.008311 0.001862 -0.005119 0.000000 0.000000 0.000000
# 2 0.001862 0.008311 -0.005119 0.000000 0.000000 0.000000
# 3 -0.005119 -0.005119 0.018439 0.000000 0.000000 0.000000
# 4 0.000000 0.000000 0.000000 0.006952 0.000000 0.000000
# 5 0.000000 0.000000 0.000000 0.000000 0.006948 0.000000
# 6 0.000000 0.000000 0.000000 0.000000 0.000000 0.033235
#
#
# Mechanical properties :
#
#
# Convention : Reuss Voigt Hill
#
# Bulk Modulus (GPa) = 54.62056 55.50994 55.06525
# Shear Modulus (GPa) = 47.59572 83.59309 65.59440
#
# Velocity S-wave (km/s) = 4.59492 6.08946 5.39420
# Velocity P-wave (km/s) = 7.23743 8.60616 7.95130
#
# Compressibility (1/GPa) = 0.01830812
#
# Stress axis : x y z
#
# Youngs Moduli (GPa) = 120.32496 120.32383 54.23281
#
# Poissons Ratio (x) = -0.22404 0.27762
# Poissons Ratio (y) = -0.22404 0.27763
# Poissons Ratio (z) = 0.61596 0.61596
#
# Static dielectric constant tensor:
#      x y z
#    x 4.287780 0.000000 0.000000 
#    y 0.000000 4.287790 0.000000 
#    z 0.000000 0.000000 3.821720 
# 
# 
# High freq. dielectric constant tensor:
#      x y z
#    x 1.902790 0.000000 0.000000 
#    y 0.000000 1.902790 0.000000 
#    z 0.000000 0.000000 1.881900 
# 
# From -- ./inp_files/1608.got.cif
#   From: 2010.03.12/outbox.cif.g09.slc.cpg/sg96_1_cif.got.tgz:1608.got - 2010.04.08 20:56:49.
