data_PCOD8305480
_publ_section_title
;
Structure prediction by ZEFSAII (Michael W. Deem and Ramdas Pophale) SiO2 
 PCOD8305480
Probable space group: P 41 21 2
;
_chemical_formula_sum "Si O2"
_cell_formula_units_Z 32
_cell_length_a 10.480053
_cell_length_b 10.480053
_cell_length_c 12.068623
_cell_angle_alpha 90.000000
_cell_angle_beta 90.000000
_cell_angle_gamma 90.000000
_cell_volume 1325.515098
_symmetry_space_group_name_H-M "P 41 21 2"
_symmetry_group_IT_number 92
_symmetry_cell_setting 'tetragonal'
loop_
_space_group_symop_operation_xyz
x,y,z
1/2-y,1/2+x,1/4+z
-x,-y,1/2+z
1/2+y,1/2-x,3/4+z
1/2+x,1/2-y,3/4-z
1/2-x,1/2+y,1/4-z
y,x,-z
-y,-x,1/2-z
loop_
_atom_site_type_symbol
_atom_site_label
_atom_site_fract_x
_atom_site_fract_y
_atom_site_fract_z
Si Si1 0.965112 0.317904 0.715294
Si Si2 0.812810 0.886835 0.608437
Si Si3 0.787116 0.011025 0.238877
Si Si4 0.841863 0.456617 0.234769
O O1 0.815601 0.331066 0.696218
O O2 0.987443 0.219055 0.817954
O O3 0.033342 0.266995 0.602193
O O4 0.034592 0.451214 0.746050
O O5 0.906069 0.906069 0.500000
O O6 0.878740 0.785842 0.692400
O O7 0.927092 0.072909 0.250000
O O8 0.684020 0.106677 0.291647
O O9 0.756511 0.991541 0.110403
#
# Coordination Sequence:
#
# PCOD8305480 Si02
#       4
#     8   8   8   8
#     4   9  22  47  70 105 137 204 239 305 383 450
#     4  11  26  43  71 109 147 191 246 307 370 454
#     4  11  26  44  71 114 138 196 252 316 379 448
#     4   9  22  45  77  98 147 194 251 299 393 453
#
# _framework density 24.141560999999999
#
# number of rings (size 3 to 8) (size 9 to 14) (size 15 to 20)
#    0.000    2.000    0.000    0.000   21.000    1.000 
#    4.500    0.000    0.000    0.000    0.000    0.000 
#    0.000    0.000    0.000    0.000    0.000    0.000 
#
# Total GULP energy -396547.416762 kJ/mol
# GULP energy per Si atom -12392.106774 kJ/mol
# Density = 2.408661 g / cm^3
# Si number density = 24.141561 Si / 1000 Ang^3
#
#
#
# Elastic Constant Matrix: (Units=GPa)
#
#
# Indices 1 2 3 4 5 6 
#
# 1 69.9346 42.3241 57.3069 0.0000 0.0000 0.0000
# 2 42.3241 69.9361 57.3070 0.0000 0.0000 0.0000
# 3 57.3069 57.3070 182.6592 0.0000 0.0000 0.0000
# 4 0.0000 0.0000 0.0000 42.5159 0.0000 0.0000
# 5 0.0000 0.0000 0.0000 0.0000 42.5158 0.0000
# 6 0.0000 0.0000 0.0000 0.0000 0.0000 27.1261
#
#
#
# Elastic Compliance Matrix: (Units=1/GPa)
#
#
# Indices 1 2 3 4 5 6 
#
# 1 0.024662 -0.011556 -0.004112 0.000000 0.000000 0.000000
# 2 -0.011556 0.024661 -0.004112 0.000000 0.000000 0.000000
# 3 -0.004112 -0.004112 0.008055 0.000000 0.000000 0.000000
# 4 0.000000 0.000000 0.000000 0.023521 0.000000 0.000000
# 5 0.000000 0.000000 0.000000 0.000000 0.023521 0.000000
# 6 0.000000 0.000000 0.000000 0.000000 0.000000 0.036865
#
#
# Mechanical properties :
#
#
# Convention : Reuss Voigt Hill
#
# Bulk Modulus (GPa) = 56.11858 70.71177 63.41517
# Shear Modulus (GPa) = 26.76913 33.47103 30.12008
#
# Velocity S-wave (km/s) = 3.33354 3.72754 3.53603
# Velocity P-wave (km/s) = 6.17355 6.91955 6.55717
#
# Compressibility (1/GPa) = 0.01781941
#
# Stress axis : x y z
#
# Youngs Moduli (GPa) = 40.54832 40.54947 124.15035
#
# Poissons Ratio (x) = 0.46857 0.51050
# Poissons Ratio (y) = 0.46856 0.51048
# Poissons Ratio (z) = 0.16673 0.16673
#
# Static dielectric constant tensor:
#      x y z
#    x 4.098910 0.000000 0.000000 
#    y 0.000000 4.098900 0.000000 
#    z 0.000000 0.000000 4.993960 
# 
# 
# High freq. dielectric constant tensor:
#      x y z
#    x 1.936300 0.000000 0.000000 
#    y 0.000000 1.936300 0.000000 
#    z 0.000000 0.000000 1.988030 
# 
# From -- ./inp_files/1941.got.cif
#   From: 2010.03.12/outbox.cif.g09.slc.cpg/sg92_1_cif.got.tgz:1941.got - 2010.04.08 20:41:11.
