data_PCOD8305783
_publ_section_title
;
Structure prediction by ZEFSAII (Michael W. Deem and Ramdas Pophale) SiO2 
 PCOD8305783
Probable space group: P 42 21 2
;
_chemical_formula_sum "Si O2"
_cell_formula_units_Z 48
_cell_length_a 8.993214
_cell_length_b 8.993214
_cell_length_c 27.113228
_cell_angle_alpha 90.000000
_cell_angle_beta 90.000000
_cell_angle_gamma 90.000000
_cell_volume 2192.860890
_symmetry_space_group_name_H-M "P 42 21 2"
_symmetry_group_IT_number 94
_symmetry_cell_setting 'tetragonal'
loop_
_space_group_symop_operation_xyz
x,y,z
1/2-y,1/2+x,1/2+z
-x,-y,z
1/2+y,1/2-x,1/2+z
1/2+x,1/2-y,1/2-z
1/2-x,1/2+y,1/2-z
y,x,-z
-y,-x,-z
loop_
_atom_site_type_symbol
_atom_site_label
_atom_site_fract_x
_atom_site_fract_y
_atom_site_fract_z
Si Si1 0.985922 0.177254 0.785738
Si Si2 0.358333 0.778024 0.616678
Si Si3 0.772753 0.342882 0.191283
Si Si4 0.338898 0.557782 0.899859
Si Si5 0.855704 0.208064 0.945322
Si Si6 0.340258 0.007063 0.886109
O O1 0.818586 0.232632 0.785350
O O2 0.065986 0.259878 0.830559
O O3 0.042597 0.236833 0.733971
O O4 0.000000 0.000000 0.791600
O O5 0.478300 0.750733 0.572843
O O6 0.212328 0.675389 0.615058
O O7 0.288629 0.939120 0.611541
O O8 0.650150 0.367200 0.149408
O O9 0.935964 0.370365 0.167921
O O10 0.500000 0.500000 0.918797
O O11 0.262951 0.657571 0.942467
O O12 0.796744 0.078886 0.910168
O O13 0.859143 0.140858 0.000000
O O14 0.500000 0.000000 0.914949
#
# Coordination Sequence:
#
# PCOD8305783 Si02
#       6
#     8   8   8   8   8   8
#     4  12  25  43  64 102 141 188 246 298 349 419
#     4  12  23  45  73  99 141 184 235 298 356 429
#     4  11  26  42  65  97 140 192 239 292 347 427
#     4  11  25  46  69 102 145 184 231 298 370 431
#     4  11  25  47  72 102 135 179 239 298 367 446
#     4  11  24  44  66 101 139 180 230 294 357 424
#
# _framework density 21.889213000000002
#
# number of rings (size 3 to 8) (size 9 to 14) (size 15 to 20)
#    0.000    0.667    5.000    3.500    7.000    3.000 
#    0.000    1.667    0.000    0.000    0.000    0.000 
#    0.000    0.000    0.000    0.000    0.000    0.000 
#
# Total GULP energy -595114.906970 kJ/mol
# GULP energy per Si atom -12398.227229 kJ/mol
# Density = 2.183939 g / cm^3
# Si number density = 21.889213 Si / 1000 Ang^3
#
#
#
# Elastic Constant Matrix: (Units=GPa)
#
#
# Indices 1 2 3 4 5 6 
#
# 1 87.1193 8.5264 20.7366 0.0000 0.0000 0.0000
# 2 8.5264 87.1193 20.7366 0.0000 0.0000 0.0000
# 3 20.7366 20.7366 96.9814 0.0000 0.0000 0.0000
# 4 0.0000 0.0000 0.0000 29.8813 0.0000 0.0000
# 5 0.0000 0.0000 0.0000 0.0000 29.8814 0.0000
# 6 0.0000 0.0000 0.0000 0.0000 0.0000 37.6690
#
#
#
# Elastic Compliance Matrix: (Units=1/GPa)
#
#
# Indices 1 2 3 4 5 6 
#
# 1 0.012124 -0.000600 -0.002464 0.000000 0.000000 0.000000
# 2 -0.000600 0.012124 -0.002464 0.000000 0.000000 0.000000
# 3 -0.002464 -0.002464 0.011365 0.000000 0.000000 0.000000
# 4 0.000000 0.000000 0.000000 0.033466 0.000000 0.000000
# 5 0.000000 0.000000 0.000000 0.000000 0.033466 0.000000
# 6 0.000000 0.000000 0.000000 0.000000 0.000000 0.026547
#
#
# Mechanical properties :
#
#
# Convention : Reuss Voigt Hill
#
# Bulk Modulus (GPa) = 40.72272 41.24659 40.98466
# Shear Modulus (GPa) = 33.70806 34.23435 33.97120
#
# Velocity S-wave (km/s) = 3.92846 3.95901 3.94377
# Velocity P-wave (km/s) = 6.26271 6.30735 6.28507
#
# Compressibility (1/GPa) = 0.02455632
#
# Stress axis : x y z
#
# Youngs Moduli (GPa) = 82.48287 82.48283 87.98976
#
# Poissons Ratio (x) = 0.04949 0.21681
# Poissons Ratio (y) = 0.04949 0.21681
# Poissons Ratio (z) = 0.20324 0.20324
#
# Static dielectric constant tensor:
#      x y z
#    x 3.874430 0.000000 0.000000 
#    y 0.000000 3.874460 0.000000 
#    z 0.000000 0.000000 3.775100 
# 
# 
# High freq. dielectric constant tensor:
#      x y z
#    x 1.879410 0.000000 0.000000 
#    y 0.000000 1.879410 0.000000 
#    z 0.000000 0.000000 1.838630 
# 
# From -- ./inp_files/5576.got.cif
#   From: 2010.03.12/outbox.cif.g09.slc.cpg/sg94_3_cif.got.tgz:5576.got - 2010.04.08 20:48:32.
