data_PCOD8305301
_publ_section_title
;
Structure prediction by ZEFSAII (Michael W. Deem and Ramdas Pophale) SiO2 
 PCOD8305301
Probable space group: P 41 21 2
;
_chemical_formula_sum "Si O2"
_cell_formula_units_Z 48
_cell_length_a 21.723946
_cell_length_b 21.723946
_cell_length_c 5.538707
_cell_angle_alpha 90.000000
_cell_angle_beta 90.000000
_cell_angle_gamma 90.000000
_cell_volume 2613.881052
_symmetry_space_group_name_H-M "P 41 21 2"
_symmetry_group_IT_number 92
_symmetry_cell_setting 'tetragonal'
loop_
_space_group_symop_operation_xyz
x,y,z
1/2-y,1/2+x,1/4+z
-x,-y,1/2+z
1/2+y,1/2-x,3/4+z
1/2+x,1/2-y,3/4-z
1/2-x,1/2+y,1/4-z
y,x,-z
-y,-x,1/2-z
loop_
_atom_site_type_symbol
_atom_site_label
_atom_site_fract_x
_atom_site_fract_y
_atom_site_fract_z
Si Si1 0.131810 0.376282 0.157527
Si Si2 0.957381 0.577079 0.009371
Si Si3 0.809708 0.712477 0.032899
Si Si4 0.750724 0.058152 0.702085
Si Si5 0.290307 0.385887 0.562860
Si Si6 0.804359 0.432237 0.525740
O O1 0.095825 0.429375 0.306143
O O2 0.165444 0.319992 0.292916
O O3 0.183190 0.412387 0.001367
O O4 0.076777 0.345873 0.009555
O O5 0.028188 0.562606 0.958388
O O6 0.954467 0.648963 0.070397
O O7 0.758053 0.666912 0.139986
O O8 0.866006 0.725202 0.214379
O O9 0.779404 0.779404 0.000000
O O10 0.773071 0.078170 0.433976
O O11 0.747670 0.983887 0.689831
O O12 0.793486 0.073956 0.937361
O O13 0.356428 0.356428 0.500000
#
# Coordination Sequence:
#
# PCOD8305301 Si02
#       6
#     8   8   8   8   8   8
#     4  10  21  36  51  72 108 147 191 234 277 329
#     4  11  25  34  46  67 102 153 203 238 268 311
#     4   9  20  36  56  78 106 146 188 230 284 336
#     4  11  22  34  58  79 110 144 187 229 282 324
#     4  10  21  39  58  80 106 145 191 233 277 336
#     4  11  22  35  52  75 111 143 185 233 283 330
#
# _framework density 18.363499000000001
#
# number of rings (size 3 to 8) (size 9 to 14) (size 15 to 20)
#    0.000    1.667    1.667    2.500   14.000    0.667 
#    0.000    0.000    0.000    0.000    0.000    0.000 
#    0.000    2.667    0.000    0.000    0.000    0.000 
#
# Total GULP energy -594629.616371 kJ/mol
# GULP energy per Si atom -12388.117008 kJ/mol
# Density = 1.832170 g / cm^3
# Si number density = 18.363499 Si / 1000 Ang^3
#
#
#
# Elastic Constant Matrix: (Units=GPa)
#
#
# Indices 1 2 3 4 5 6 
#
# 1 61.7145 24.5022 8.4645 0.0000 0.0000 0.0000
# 2 24.5022 61.7145 8.4645 0.0000 0.0000 0.0000
# 3 8.4645 8.4645 68.6103 0.0000 0.0000 0.0000
# 4 0.0000 0.0000 0.0000 18.5419 0.0000 0.0000
# 5 0.0000 0.0000 0.0000 0.0000 18.5419 0.0000
# 6 0.0000 0.0000 0.0000 0.0000 0.0000 32.5463
#
#
#
# Elastic Compliance Matrix: (Units=1/GPa)
#
#
# Indices 1 2 3 4 5 6 
#
# 1 0.019380 -0.007493 -0.001466 0.000000 0.000000 0.000000
# 2 -0.007493 0.019380 -0.001466 0.000000 0.000000 0.000000
# 3 -0.001466 -0.001466 0.014937 0.000000 0.000000 0.000000
# 4 0.000000 0.000000 0.000000 0.053932 0.000000 0.000000
# 5 0.000000 0.000000 0.000000 0.000000 0.053932 0.000000
# 6 0.000000 0.000000 0.000000 0.000000 0.000000 0.030725
#
#
# Mechanical properties :
#
#
# Convention : Reuss Voigt Hill
#
# Bulk Modulus (GPa) = 30.44669 30.54465 30.49567
# Shear Modulus (GPa) = 22.31291 23.96658 23.13974
#
# Velocity S-wave (km/s) = 3.48956 3.61656 3.55363
# Velocity P-wave (km/s) = 5.73167 5.84028 5.78623
#
# Compressibility (1/GPa) = 0.03284430
#
# Stress axis : x y z
#
# Youngs Moduli (GPa) = 51.60034 51.60034 66.94829
#
# Poissons Ratio (x) = 0.38665 0.09818
# Poissons Ratio (y) = 0.38665 0.09818
# Poissons Ratio (z) = 0.07567 0.07567
#
# Static dielectric constant tensor:
#      x y z
#    x 3.287690 0.000000 0.000000 
#    y 0.000000 3.287690 0.000000 
#    z 0.000000 0.000000 3.485440 
# 
# 
# High freq. dielectric constant tensor:
#      x y z
#    x 1.684480 0.000000 0.000000 
#    y 0.000000 1.684480 0.000000 
#    z 0.000000 0.000000 1.721290 
# 
# From -- ./inp_files/630.got.cif
#   From: 2010.03.12/outbox.cif.g09.slc.cpg/sg92_1_cif.got.tgz:630.got - 2010.04.08 20:41:11.
