data_PCOD8305184
_publ_section_title
;
Structure prediction by ZEFSAII (Michael W. Deem and Ramdas Pophale) SiO2 
 PCOD8305184
Probable space group: P 41 2 2
;
_chemical_formula_sum "Si O2"
_cell_formula_units_Z 56
_cell_length_a 14.495146
_cell_length_b 14.495146
_cell_length_c 11.279423
_cell_angle_alpha 90.000000
_cell_angle_beta 90.000000
_cell_angle_gamma 90.000000
_cell_volume 2369.911192
_symmetry_space_group_name_H-M "P 41 2 2"
_symmetry_group_IT_number 91
_symmetry_cell_setting 'tetragonal'
loop_
_space_group_symop_operation_xyz
x,y,z
-y,x,1/4+z
-x,-y,1/2+z
y,-x,3/4+z
x,-y,1/2-z
-x,y,-z
y,x,3/4-z
-y,-x,1/4-z
loop_
_atom_site_type_symbol
_atom_site_label
_atom_site_fract_x
_atom_site_fract_y
_atom_site_fract_z
Si Si1 0.678607 0.465492 0.603844
Si Si2 0.243035 0.278936 0.749572
Si Si3 0.750281 0.037751 0.997126
Si Si4 0.680513 0.000000 0.750000
Si Si5 0.086979 0.322704 0.075214
Si Si6 0.567888 0.360796 0.892888
Si Si7 0.944521 0.944521 0.375000
Si Si8 0.476570 0.886034 0.126508
O O1 0.633273 0.366728 0.625000
O O2 0.621220 0.550009 0.661372
O O3 0.679777 0.492902 0.464025
O O4 0.780105 0.457189 0.655106
O O5 0.292432 0.292432 0.875000
O O6 0.135342 0.297921 0.773423
O O7 0.259643 0.176949 0.695113
O O8 0.281365 0.358266 0.666787
O O9 0.751690 0.032416 0.853058
O O10 0.843374 0.036472 0.073720
O O11 0.690050 0.949054 0.039156
O O12 0.610980 0.922673 0.800620
O O13 0.106980 0.429831 0.044918
O O14 0.000000 0.285495 0.000000
O O15 0.500000 0.387315 0.000000
O O16 0.000000 0.964530 0.500000
O O17 0.500000 0.935663 0.000000
#
# Coordination Sequence:
#
# PCOD8305184 Si02
#       8
#     8   8   8   4   8   8   4   8
#     4  12  25  44  69  95 138 191 246 303 372 448
#     4  12  24  43  70 105 143 191 249 304 391 470
#     4  12  25  49  74 112 157 196 258 325 399 491
#     4  12  28  46  74 114 154 202 258 332 404 482
#     4  12  23  44  79 104 145 201 246 319 387 466
#     4  12  25  42  64 101 139 187 244 310 366 441
#     4  12  28  54  86 122 156 208 264 330 422 508
#     4  12  25  47  69 106 148 194 256 313 387 465
#
# _framework density 23.629576
#
# number of rings (size 3 to 8) (size 9 to 14) (size 15 to 20)
#    0.000    0.000    5.714    5.571    1.000    0.000 
#    2.571    0.000    0.000    0.000    0.000    0.000 
#    0.000    0.000    0.000    0.000    0.000    0.000 
#
# Total GULP energy -693877.917514 kJ/mol
# GULP energy per Si atom -12390.677098 kJ/mol
# Density = 2.357579 g / cm^3
# Si number density = 23.629576 Si / 1000 Ang^3
#
#
#
# Elastic Constant Matrix: (Units=GPa)
#
#
# Indices 1 2 3 4 5 6 
#
# 1 98.2738 39.4154 22.4224 0.0000 0.0000 0.0000
# 2 39.4154 98.2742 22.4223 0.0000 0.0000 0.0000
# 3 22.4224 22.4223 138.6969 0.0000 0.0000 0.0000
# 4 0.0000 0.0000 0.0000 36.8665 0.0000 0.0000
# 5 0.0000 0.0000 0.0000 0.0000 36.8661 0.0000
# 6 0.0000 0.0000 0.0000 0.0000 0.0000 31.0502
#
#
#
# Elastic Compliance Matrix: (Units=1/GPa)
#
#
# Indices 1 2 3 4 5 6 
#
# 1 0.012328 -0.004662 -0.001239 0.000000 0.000000 0.000000
# 2 -0.004662 0.012328 -0.001239 0.000000 0.000000 0.000000
# 3 -0.001239 -0.001239 0.007611 0.000000 0.000000 0.000000
# 4 0.000000 0.000000 0.000000 0.027125 0.000000 0.000000
# 5 0.000000 0.000000 0.000000 0.000000 0.027125 0.000000
# 6 0.000000 0.000000 0.000000 0.000000 0.000000 0.032206
#
#
# Mechanical properties :
#
#
# Convention : Reuss Voigt Hill
#
# Bulk Modulus (GPa) = 55.59900 55.97390 55.78645
# Shear Modulus (GPa) = 35.97142 37.68889 36.83015
#
# Velocity S-wave (km/s) = 3.90591 3.99806 3.95225
# Velocity P-wave (km/s) = 6.62736 6.71209 6.66986
#
# Compressibility (1/GPa) = 0.01798594
#
# Stress axis : x y z
#
# Youngs Moduli (GPa) = 81.11516 81.11549 131.39405
#
# Poissons Ratio (x) = 0.37814 0.16285
# Poissons Ratio (y) = 0.37814 0.16285
# Poissons Ratio (z) = 0.10053 0.10053
#
# Static dielectric constant tensor:
#      x y z
#    x 4.151860 0.000000 0.000000 
#    y 0.000000 4.151860 0.000000 
#    z 0.000000 0.000000 4.724110 
# 
# 
# High freq. dielectric constant tensor:
#      x y z
#    x 1.929990 0.000000 0.000000 
#    y 0.000000 1.929990 0.000000 
#    z 0.000000 0.000000 1.962740 
# 
# From -- ./inp_files/10868.got.cif
#   From: 2010.03.12/outbox.cif.g09.slc.cpg/sg91_6_cif.got.tgz:10868.got - 2010.04.08 20:27:58.
