data_PCOD8305608
_publ_section_title
;
Structure prediction by ZEFSAII (Michael W. Deem and Ramdas Pophale) SiO2 
 PCOD8305608
Probable space group: P 42 2 2
;
_chemical_formula_sum "Si O2"
_cell_formula_units_Z 48
_cell_length_a 12.067379
_cell_length_b 12.067379
_cell_length_c 16.572141
_cell_angle_alpha 90.000000
_cell_angle_beta 90.000000
_cell_angle_gamma 90.000000
_cell_volume 2413.262283
_symmetry_space_group_name_H-M "P 42 2 2"
_symmetry_group_IT_number 93
_symmetry_cell_setting 'tetragonal'
loop_
_space_group_symop_operation_xyz
x,y,z
-y,x,1/2+z
-x,-y,z
y,-x,1/2+z
x,-y,-z
-x,y,-z
y,x,1/2-z
-y,-x,1/2-z
loop_
_atom_site_type_symbol
_atom_site_label
_atom_site_fract_x
_atom_site_fract_y
_atom_site_fract_z
Si Si1 0.762344 0.305027 0.339098
Si Si2 0.630884 0.491741 0.594777
Si Si3 0.765681 0.709919 0.341417
Si Si4 0.887340 0.374664 0.905785
Si Si5 0.368469 0.000519 0.905325
Si Si6 0.613439 0.127144 0.407340
O O1 0.741881 0.258120 0.250000
O O2 0.696468 0.417956 0.353506
O O3 0.710296 0.214744 0.397501
O O4 0.891940 0.319114 0.360153
O O5 0.500000 0.500000 0.610471
O O6 0.659048 0.500000 0.500000
O O7 0.676069 0.376605 0.626477
O O8 0.739082 0.739082 0.250000
O O9 0.737144 0.821433 0.388744
O O10 0.892164 0.677122 0.359144
O O11 0.833944 0.491987 0.872728
O O12 0.008982 0.358184 0.866007
O O13 0.896210 0.393741 0.999425
O O14 0.500000 0.000000 0.897238
O O15 0.334160 0.000000 0.000000
#
# Coordination Sequence:
#
# PCOD8305608 Si02
#       6
#     8   8   8   8   8   8
#     4  12  26  39  65  98 134 174 223 285 333 391
#     4  11  24  41  65  97 139 179 215 265 342 428
#     4  12  26  39  65  98 134 174 223 285 333 391
#     4   9  19  38  65  92 123 163 209 262 330 405
#     4  11  24  46  71  95 135 190 239 272 334 430
#     4   9  19  38  65  92 123 163 209 262 330 405
#
# _framework density 19.890089
#
# number of rings (size 3 to 8) (size 9 to 14) (size 15 to 20)
#    0.000    1.333    1.667    5.000    7.000    2.667 
#    0.000    0.833    0.000    3.000    0.000    0.000 
#    0.000    0.000    0.000    0.000    0.000    0.000 
#
# Total GULP energy -594728.373993 kJ/mol
# GULP energy per Si atom -12390.174458 kJ/mol
# Density = 1.984482 g / cm^3
# Si number density = 19.890089 Si / 1000 Ang^3
#
#
#
# Elastic Constant Matrix: (Units=GPa)
#
#
# Indices 1 2 3 4 5 6 
#
# 1 103.1467 45.0732 25.9715 0.0000 0.0000 0.0000
# 2 45.0732 103.1470 25.9717 0.0000 0.0000 0.0000
# 3 25.9715 25.9717 87.2146 0.0000 0.0000 0.0000
# 4 0.0000 0.0000 0.0000 42.1560 0.0000 0.0000
# 5 0.0000 0.0000 0.0000 0.0000 42.1562 0.0000
# 6 0.0000 0.0000 0.0000 0.0000 0.0000 23.0157
#
#
#
# Elastic Compliance Matrix: (Units=1/GPa)
#
#
# Indices 1 2 3 4 5 6 
#
# 1 0.012376 -0.004843 -0.002243 0.000000 0.000000 0.000000
# 2 -0.004843 0.012376 -0.002243 0.000000 0.000000 0.000000
# 3 -0.002243 -0.002243 0.012802 0.000000 0.000000 0.000000
# 4 0.000000 0.000000 0.000000 0.023721 0.000000 0.000000
# 5 0.000000 0.000000 0.000000 0.000000 0.023721 0.000000
# 6 0.000000 0.000000 0.000000 0.000000 0.000000 0.043449
#
#
# Mechanical properties :
#
#
# Convention : Reuss Voigt Hill
#
# Bulk Modulus (GPa) = 52.92444 54.17122 53.54783
# Shear Modulus (GPa) = 32.59378 34.56503 33.57940
#
# Velocity S-wave (km/s) = 4.05247 4.17322 4.11329
# Velocity P-wave (km/s) = 6.96871 7.10742 7.03841
#
# Compressibility (1/GPa) = 0.01889486
#
# Stress axis : x y z
#
# Youngs Moduli (GPa) = 80.80033 80.80047 78.11294
#
# Poissons Ratio (x) = 0.39134 0.17522
# Poissons Ratio (y) = 0.39134 0.17522
# Poissons Ratio (z) = 0.18125 0.18125
#
# Static dielectric constant tensor:
#      x y z
#    x 5.076950 0.000000 0.000000 
#    y 0.000000 5.076950 0.000000 
#    z 0.000000 0.000000 3.832750 
# 
# 
# High freq. dielectric constant tensor:
#      x y z
#    x 1.780430 0.000000 0.000000 
#    y 0.000000 1.780430 0.000000 
#    z 0.000000 0.000000 1.773950 
# 
# From -- ./inp_files/5445.got.cif
#   From: 2010.03.12/outbox.cif.g09.slc.cpg/sg93_3_cif.got.tgz:5445.got - 2010.04.08 20:44:19.
