data_PCOD8305966
_publ_section_title
;
Structure prediction by ZEFSAII (Michael W. Deem and Ramdas Pophale) SiO2 
 PCOD8305966
Probable space group: P 43 21 2
;
_chemical_formula_sum "Si O2"
_cell_formula_units_Z 60
_cell_length_a 18.492501
_cell_length_b 18.492501
_cell_length_c 8.722449
_cell_angle_alpha 90.000000
_cell_angle_beta 90.000000
_cell_angle_gamma 90.000000
_cell_volume 2982.838504
_symmetry_space_group_name_H-M "P 43 21 2"
_symmetry_group_IT_number 96
_symmetry_cell_setting 'tetragonal'
loop_
_space_group_symop_operation_xyz
x,y,z
1/2-y,1/2+x,3/4+z
-x,-y,1/2+z
1/2+y,1/2-x,1/4+z
1/2+x,1/2-y,1/4-z
1/2-x,1/2+y,3/4-z
y,x,-z
-y,-x,1/2-z
loop_
_atom_site_type_symbol
_atom_site_label
_atom_site_fract_x
_atom_site_fract_y
_atom_site_fract_z
Si Si1 0.069819 0.805431 0.439774
Si Si2 0.179812 0.229794 0.269624
Si Si3 0.571622 0.264842 0.463147
Si Si4 0.789767 0.962602 0.045783
Si Si5 0.460108 0.435481 0.822188
Si Si6 0.539231 0.799601 0.541459
Si Si7 0.166280 0.602965 0.795526
Si Si8 0.207179 0.792822 0.250000
O O1 0.090102 0.884996 0.497712
O O2 0.077814 0.746405 0.575039
O O3 0.123936 0.781940 0.302946
O O4 0.986741 0.810725 0.384249
O O5 0.196330 0.148756 0.216385
O O6 0.117153 0.222960 0.392780
O O7 0.156846 0.274467 0.119379
O O8 0.244713 0.272717 0.352261
O O9 0.537589 0.251895 0.629935
O O10 0.581766 0.188716 0.377292
O O11 0.874364 0.980529 0.036093
O O12 0.754589 0.022262 0.153754
O O13 0.490033 0.509968 0.750000
O O14 0.448401 0.448401 0.000000
O O15 0.589343 0.860036 0.467386
O O16 0.468055 0.840830 0.600279
#
# Coordination Sequence:
#
# PCOD8305966 Si02
#       8
#     8   8   8   8   8   8   8   4
#     4  11  26  40  66  96 139 174 224 284 334 409
#     4  11  23  41  67  96 132 175 229 276 336 408
#     4  11  22  42  64  96 131 175 219 273 335 403
#     4  11  23  42  63  92 132 175 218 280 329 402
#     4  12  27  42  62  93 137 187 222 267 336 417
#     4  10  23  46  65  94 132 169 226 275 359 402
#     4  10  24  42  69  95 129 174 217 291 337 418
#     4  12  24  40  68 108 128 172 242 284 340 398
#
# _framework density 20.115068000000001
#
# number of rings (size 3 to 8) (size 9 to 14) (size 15 to 20)
#    0.000    1.067    2.667    2.800    8.400    0.000 
#    0.000    1.333    0.000    0.000    0.000    0.000 
#    0.000    0.000    0.000    0.000    0.000    0.000 
#
# Total GULP energy -744120.374133 kJ/mol
# GULP energy per Si atom -12402.006236 kJ/mol
# Density = 2.006929 g / cm^3
# Si number density = 20.115068 Si / 1000 Ang^3
#
#
#
# Elastic Constant Matrix: (Units=GPa)
#
#
# Indices 1 2 3 4 5 6 
#
# 1 95.0497 49.9562 38.8768 0.0000 0.0000 0.0000
# 2 49.9562 95.0498 38.8774 0.0000 0.0000 0.0000
# 3 38.8768 38.8774 100.2392 0.0000 0.0000 0.0000
# 4 0.0000 0.0000 0.0000 22.9342 0.0000 0.0000
# 5 0.0000 0.0000 0.0000 0.0000 22.9355 0.0000
# 6 0.0000 0.0000 0.0000 0.0000 0.0000 32.4321
#
#
#
# Elastic Compliance Matrix: (Units=1/GPa)
#
#
# Indices 1 2 3 4 5 6 
#
# 1 0.015442 -0.006735 -0.003377 0.000000 0.000000 0.000000
# 2 -0.006735 0.015442 -0.003377 0.000000 0.000000 0.000000
# 3 -0.003377 -0.003377 0.012596 0.000000 0.000000 0.000000
# 4 0.000000 0.000000 0.000000 0.043603 0.000000 0.000000
# 5 0.000000 0.000000 0.000000 0.000000 0.043601 0.000000
# 6 0.000000 0.000000 0.000000 0.000000 0.000000 0.030834
#
#
# Mechanical properties :
#
#
# Convention : Reuss Voigt Hill
#
# Bulk Modulus (GPa) = 60.59936 60.63994 60.61965
# Shear Modulus (GPa) = 25.77406 26.50225 26.13816
#
# Velocity S-wave (km/s) = 3.58345 3.63372 3.60867
# Velocity P-wave (km/s) = 6.87846 6.91500 6.89675
#
# Compressibility (1/GPa) = 0.01650182
#
# Stress axis : x y z
#
# Youngs Moduli (GPa) = 64.76038 64.76011 79.39272
#
# Poissons Ratio (x) = 0.43613 0.26810
# Poissons Ratio (y) = 0.43613 0.26811
# Poissons Ratio (z) = 0.21869 0.21870
#
# Static dielectric constant tensor:
#      x y z
#    x 3.658250 0.000000 0.000000 
#    y 0.000000 3.658230 0.000000 
#    z 0.000000 0.000000 3.888490 
# 
# 
# High freq. dielectric constant tensor:
#      x y z
#    x 1.780670 0.000000 0.000000 
#    y 0.000000 1.780670 0.000000 
#    z 0.000000 0.000000 1.802900 
# 
# From -- ./inp_files/1623.got.cif
#   From: 2010.03.12/outbox.cif.g09.slc.cpg/sg96_1_cif.got.tgz:1623.got - 2010.04.08 20:56:49.
