data_PCOD8305847
_publ_section_title
;
Structure prediction by ZEFSAII (Michael W. Deem and Ramdas Pophale) SiO2 
 PCOD8305847
Probable space group: P 43 2 2
;
_chemical_formula_sum "Si O2"
_cell_formula_units_Z 28
_cell_length_a 7.822939
_cell_length_b 7.822939
_cell_length_c 20.726113
_cell_angle_alpha 90.000000
_cell_angle_beta 90.000000
_cell_angle_gamma 90.000000
_cell_volume 1268.404427
_symmetry_space_group_name_H-M "P 43 2 2"
_symmetry_group_IT_number 95
_symmetry_cell_setting 'tetragonal'
loop_
_space_group_symop_operation_xyz
x,y,z
-y,x,3/4+z
-x,-y,1/2+z
y,-x,1/4+z
x,-y,1/2-z
-x,y,-z
y,x,1/4-z
-y,-x,3/4-z
loop_
_atom_site_type_symbol
_atom_site_label
_atom_site_fract_x
_atom_site_fract_y
_atom_site_fract_z
Si Si1 0.512242 0.500000 0.750000
Si Si2 0.686004 0.981462 0.325185
Si Si3 0.158073 0.363044 0.043070
Si Si4 0.353431 0.353431 0.625000
Si Si5 0.945473 0.054528 0.875000
O O1 0.640299 0.339712 0.757982
O O2 0.395343 0.473555 0.686599
O O3 0.619412 0.158049 0.355153
O O4 0.738852 0.000000 0.250000
O O5 0.530809 0.845288 0.340557
O O6 0.855719 0.911585 0.360839
O O7 0.116710 0.174596 0.067081
O O8 0.000000 0.423700 0.000000
#
# Coordination Sequence:
#
# PCOD8305847 Si02
#       5
#     4   8   8   4   4
#     4  12  24  44  74 106 144 194 236 296 372 432
#     4  10  22  45  66 101 141 180 233 300 354 422
#     4  11  24  44  64  99 142 178 231 296 345 424
#     4  11  23  42  74 102 141 191 238 294 368 435
#     4  11  25  40  72 100 135 183 238 284 356 423
#
# _framework density 22.074977000000001
#
# number of rings (size 3 to 8) (size 9 to 14) (size 15 to 20)
#    0.000    1.143    5.714    1.714    4.000    2.286 
#    0.000    1.429    0.000    0.000    0.000    0.000 
#    0.000    0.000    0.000    0.000    0.000    0.000 
#
# Total GULP energy -346901.422108 kJ/mol
# GULP energy per Si atom -12389.336504 kJ/mol
# Density = 2.202473 g / cm^3
# Si number density = 22.074977 Si / 1000 Ang^3
#
#
#
# Elastic Constant Matrix: (Units=GPa)
#
#
# Indices 1 2 3 4 5 6 
#
# 1 123.2088 48.2500 30.8886 0.0000 0.0000 0.0000
# 2 48.2500 123.2078 30.8888 0.0000 0.0000 0.0000
# 3 30.8886 30.8888 104.9564 0.0000 0.0000 0.0000
# 4 0.0000 0.0000 0.0000 32.6025 0.0000 0.0000
# 5 0.0000 0.0000 0.0000 0.0000 32.6025 0.0000
# 6 0.0000 0.0000 0.0000 0.0000 0.0000 24.2413
#
#
#
# Elastic Compliance Matrix: (Units=1/GPa)
#
#
# Indices 1 2 3 4 5 6 
#
# 1 0.009932 -0.003408 -0.001920 0.000000 0.000000 0.000000
# 2 -0.003408 0.009932 -0.001920 0.000000 0.000000 0.000000
# 3 -0.001920 -0.001920 0.010658 0.000000 0.000000 0.000000
# 4 0.000000 0.000000 0.000000 0.030673 0.000000 0.000000
# 5 0.000000 0.000000 0.000000 0.000000 0.030672 0.000000
# 6 0.000000 0.000000 0.000000 0.000000 0.000000 0.041252
#
#
# Mechanical properties :
#
#
# Convention : Reuss Voigt Hill
#
# Bulk Modulus (GPa) = 62.39878 63.49198 62.94538
# Shear Modulus (GPa) = 32.68860 33.97896 33.33378
#
# Velocity S-wave (km/s) = 3.85229 3.92759 3.89012
# Velocity P-wave (km/s) = 6.93649 7.02797 6.98238
#
# Compressibility (1/GPa) = 0.01602595
#
# Stress axis : x y z
#
# Youngs Moduli (GPa) = 100.68066 100.67970 93.82697
#
# Poissons Ratio (x) = 0.34315 0.18015
# Poissons Ratio (y) = 0.34315 0.18016
# Poissons Ratio (z) = 0.19331 0.19331
#
# Static dielectric constant tensor:
#      x y z
#    x 4.382570 0.000000 0.000000 
#    y 0.000000 4.382560 0.000000 
#    z 0.000000 0.000000 10.835620 
# 
# 
# High freq. dielectric constant tensor:
#      x y z
#    x 1.879970 0.000000 0.000000 
#    y 0.000000 1.879970 0.000000 
#    z 0.000000 0.000000 1.850810 
# 
# From -- ./inp_files/5380.got.cif
#   From: 2010.03.12/outbox.cif.g09.slc.cpg/sg95_3_cif.got.tgz:5380.got - 2010.04.08 20:51:55.
