data_PCOD8305974
_publ_section_title
;
Structure prediction by ZEFSAII (Michael W. Deem and Ramdas Pophale) SiO2 
 PCOD8305974
Probable space group: P 43 21 2
;
_chemical_formula_sum "Si O2"
_cell_formula_units_Z 60
_cell_length_a 17.561502
_cell_length_b 17.561502
_cell_length_c 9.294148
_cell_angle_alpha 90.000000
_cell_angle_beta 90.000000
_cell_angle_gamma 90.000000
_cell_volume 2866.374284
_symmetry_space_group_name_H-M "P 43 21 2"
_symmetry_group_IT_number 96
_symmetry_cell_setting 'tetragonal'
loop_
_space_group_symop_operation_xyz
x,y,z
1/2-y,1/2+x,3/4+z
-x,-y,1/2+z
1/2+y,1/2-x,1/4+z
1/2+x,1/2-y,1/4-z
1/2-x,1/2+y,3/4-z
y,x,-z
-y,-x,1/2-z
loop_
_atom_site_type_symbol
_atom_site_label
_atom_site_fract_x
_atom_site_fract_y
_atom_site_fract_z
Si Si1 0.954074 0.734451 0.773746
Si Si2 0.304350 0.296758 0.829936
Si Si3 0.466229 0.345690 0.189695
Si Si4 0.990338 0.009663 0.250000
Si Si5 0.161837 0.023631 0.254382
Si Si6 0.948523 0.272638 0.546194
Si Si7 0.308734 0.702225 0.081386
Si Si8 0.938898 0.443777 0.536582
O O1 0.871026 0.769900 0.760525
O O2 0.954517 0.646552 0.726920
O O3 0.010020 0.780675 0.671000
O O4 0.982387 0.743310 0.936991
O O5 0.332904 0.378280 0.775393
O O6 0.368396 0.236396 0.784186
O O7 0.226038 0.275977 0.748411
O O8 0.292666 0.292666 0.000000
O O9 0.516331 0.339720 0.332724
O O10 0.476893 0.430055 0.126563
O O11 0.075518 0.018760 0.315024
O O12 0.200726 0.102197 0.299339
O O13 0.213697 0.956754 0.321826
O O14 0.950882 0.359409 0.602812
O O15 0.291679 0.708322 0.250000
O O16 0.959048 0.504805 0.656202
#
# Coordination Sequence:
#
# PCOD8305974 Si02
#       8
#     8   8   8   4   8   8   8   8
#     4  11  22  45  69  95 138 183 231 283 363 414
#     4  12  26  45  70 101 137 187 235 290 352 434
#     4  12  26  44  70 106 144 190 240 295 348 434
#     4  12  24  44  68 104 152 192 242 284 350 428
#     4  12  28  43  71 107 144 187 240 292 357 431
#     4  11  23  46  68  97 137 184 227 292 357 420
#     4  12  27  45  70 101 143 185 232 292 363 428
#     4  10  24  45  73  99 131 182 237 294 353 417
#
# _framework density 20.932365999999998
#
# number of rings (size 3 to 8) (size 9 to 14) (size 15 to 20)
#    0.000    0.533    6.000    1.200    3.733    3.200 
#    2.400    0.000    0.000    0.000    0.000    0.000 
#    0.000    0.000    0.000    0.000    0.000    0.000 
#
# Total GULP energy -744392.111575 kJ/mol
# GULP energy per Si atom -12406.535193 kJ/mol
# Density = 2.088472 g / cm^3
# Si number density = 20.932366 Si / 1000 Ang^3
#
#
#
# Elastic Constant Matrix: (Units=GPa)
#
#
# Indices 1 2 3 4 5 6 
#
# 1 101.9734 24.5437 29.7210 0.0000 0.0000 0.0000
# 2 24.5437 101.9725 29.7207 0.0000 0.0000 0.0000
# 3 29.7210 29.7207 95.4164 0.0000 0.0000 0.0000
# 4 0.0000 0.0000 0.0000 35.5378 0.0000 0.0000
# 5 0.0000 0.0000 0.0000 0.0000 35.5376 0.0000
# 6 0.0000 0.0000 0.0000 0.0000 0.0000 37.3677
#
#
#
# Elastic Compliance Matrix: (Units=1/GPa)
#
#
# Indices 1 2 3 4 5 6 
#
# 1 0.011087 -0.001828 -0.002884 0.000000 0.000000 0.000000
# 2 -0.001828 0.011087 -0.002884 0.000000 0.000000 0.000000
# 3 -0.002884 -0.002884 0.012277 0.000000 0.000000 0.000000
# 4 0.000000 0.000000 0.000000 0.028139 0.000000 0.000000
# 5 0.000000 0.000000 0.000000 0.000000 0.028139 0.000000
# 6 0.000000 0.000000 0.000000 0.000000 0.000000 0.026761
#
#
# Mechanical properties :
#
#
# Convention : Reuss Voigt Hill
#
# Bulk Modulus (GPa) = 51.92373 51.92586 51.92480
# Shear Modulus (GPa) = 35.94474 36.04710 35.99592
#
# Velocity S-wave (km/s) = 4.14839 4.15429 4.15134
# Velocity P-wave (km/s) = 6.91410 6.91890 6.91650
#
# Compressibility (1/GPa) = 0.01925902
#
# Stress axis : x y z
#
# Youngs Moduli (GPa) = 90.19545 90.19474 81.45262
#
# Poissons Ratio (x) = 0.16487 0.23492
# Poissons Ratio (y) = 0.16487 0.23492
# Poissons Ratio (z) = 0.26013 0.26013
#
# Static dielectric constant tensor:
#      x y z
#    x 3.919680 0.000000 0.000000 
#    y 0.000000 3.919680 0.000000 
#    z 0.000000 0.000000 3.636960 
# 
# 
# High freq. dielectric constant tensor:
#      x y z
#    x 1.831220 0.000000 0.000000 
#    y 0.000000 1.831220 0.000000 
#    z 0.000000 0.000000 1.812610 
# 
# From -- ./inp_files/1620.got.cif
#   From: 2010.03.12/outbox.cif.g09.slc.cpg/sg96_1_cif.got.tgz:1620.got - 2010.04.08 20:56:49.
