data_PCOD8305751
_publ_section_title
;
Structure prediction by ZEFSAII (Michael W. Deem and Ramdas Pophale) SiO2 
 PCOD8305751
Probable space group: P 42 21 2
;
_chemical_formula_sum "Si O2"
_cell_formula_units_Z 54
_cell_length_a 14.917025
_cell_length_b 14.917025
_cell_length_c 10.486658
_cell_angle_alpha 90.000000
_cell_angle_beta 90.000000
_cell_angle_gamma 90.000000
_cell_volume 2333.466336
_symmetry_space_group_name_H-M "P 42 21 2"
_symmetry_group_IT_number 94
_symmetry_cell_setting 'tetragonal'
loop_
_space_group_symop_operation_xyz
x,y,z
1/2-y,1/2+x,1/2+z
-x,-y,z
1/2+y,1/2-x,1/2+z
1/2+x,1/2-y,1/2-z
1/2-x,1/2+y,1/2-z
y,x,-z
-y,-x,-z
loop_
_atom_site_type_symbol
_atom_site_label
_atom_site_fract_x
_atom_site_fract_y
_atom_site_fract_z
Si Si1 0.694582 0.781420 0.207285
Si Si2 0.530605 0.829758 0.870183
Si Si3 0.301533 0.124972 0.720214
Si Si4 0.500000 0.000000 0.004778
Si Si5 0.724188 0.129609 0.978096
Si Si6 0.813830 0.462533 0.395025
Si Si7 0.000000 0.000000 0.500000
Si Si8 0.305127 0.467952 0.898837
O O1 0.796559 0.762497 0.234866
O O2 0.650506 0.816904 0.339652
O O3 0.698294 0.855656 0.094605
O O4 0.633025 0.697765 0.160422
O O5 0.624278 0.880875 0.832223
O O6 0.471865 0.912513 0.922832
O O7 0.490401 0.781742 0.746144
O O8 0.537568 0.748064 0.968716
O O9 0.343635 0.150486 0.583549
O O10 0.244606 0.034253 0.700985
O O11 0.580153 0.976426 0.098439
O O12 0.739807 0.021765 0.999104
O O13 0.817712 0.182289 0.000000
O O14 0.998792 0.091480 0.415999
#
# Coordination Sequence:
#
# PCOD8305751 Si02
#       8
#     8   8   8   4   8   8   2   8
#     4  11  23  42  68  99 134 171 233 288 343 414
#     4  11  23  40  67  98 145 169 223 283 355 433
#     4  10  24  43  68 100 133 185 227 282 357 408
#     4  12  22  36  60 106 142 172 212 278 378 426
#     4   9  21  40  63  97 132 177 217 267 345 426
#     4  11  22  35  64 101 136 176 214 283 349 421
#     4  12  32  48  68  92 142 196 258 286 332 426
#     4  12  26  47  70 102 138 191 240 297 349 415
#
# _framework density 23.141538000000001
#
# number of rings (size 3 to 8) (size 9 to 14) (size 15 to 20)
#    0.000    1.185    1.481    4.889    9.333    0.000 
#    0.000    0.000    0.000    0.000    0.000    0.000 
#    0.000    0.000    0.000    0.000    0.000    0.000 
#
# Total GULP energy -669187.074765 kJ/mol
# GULP energy per Si atom -12392.353236 kJ/mol
# Density = 2.308887 g / cm^3
# Si number density = 23.141538 Si / 1000 Ang^3
#
#
#
# Elastic Constant Matrix: (Units=GPa)
#
#
# Indices 1 2 3 4 5 6 
#
# 1 89.4934 20.4161 0.6253 0.0000 0.0000 0.0000
# 2 20.4161 89.4926 0.6252 0.0000 0.0000 0.0000
# 3 0.6253 0.6252 41.9684 0.0000 0.0000 0.0000
# 4 0.0000 0.0000 0.0000 33.4179 0.0000 0.0000
# 5 0.0000 0.0000 0.0000 0.0000 33.4178 0.0000
# 6 0.0000 0.0000 0.0000 0.0000 0.0000 32.1467
#
#
#
# Elastic Compliance Matrix: (Units=1/GPa)
#
#
# Indices 1 2 3 4 5 6 
#
# 1 0.011788 -0.002688 -0.000136 0.000000 0.000000 0.000000
# 2 -0.002688 0.011788 -0.000136 0.000000 0.000000 0.000000
# 3 -0.000136 -0.000136 0.023831 0.000000 0.000000 0.000000
# 4 0.000000 0.000000 0.000000 0.029924 0.000000 0.000000
# 5 0.000000 0.000000 0.000000 0.000000 0.029924 0.000000
# 6 0.000000 0.000000 0.000000 0.000000 0.000000 0.031107
#
#
# Mechanical properties :
#
#
# Convention : Reuss Voigt Hill
#
# Bulk Modulus (GPa) = 24.10271 29.36529 26.73400
# Shear Modulus (GPa) = 31.62310 33.08235 32.35272
#
# Velocity S-wave (km/s) = 3.70064 3.78506 3.74309
# Velocity P-wave (km/s) = 5.35702 5.64085 5.50077
#
# Compressibility (1/GPa) = 0.04148912
#
# Stress axis : x y z
#
# Youngs Moduli (GPa) = 84.83029 84.82953 41.96133
#
# Poissons Ratio (x) = 0.22805 0.00569
# Poissons Ratio (y) = 0.22805 0.00569
# Poissons Ratio (z) = 0.01150 0.01150
#
# Static dielectric constant tensor:
#      x y z
#    x 4.204900 0.000000 0.000000 
#    y 0.000000 4.204900 0.000000 
#    z 0.000000 0.000000 4.323000 
# 
# 
# High freq. dielectric constant tensor:
#      x y z
#    x 1.906040 0.000000 0.000000 
#    y 0.000000 1.906040 0.000000 
#    z 0.000000 0.000000 1.923910 
# 
# From -- ./inp_files/2742.got.cif
#   From: 2010.03.12/outbox.cif.g09.slc.cpg/sg94_2_cif.got.tgz:2742.got - 2010.04.08 20:48:32.
