data_PCOD8305011
_publ_section_title
;
Structure prediction by ZEFSAII (Michael W. Deem and Ramdas Pophale) SiO2 
 PCOD8305011
Probable space group: P 41 2 2
;
_chemical_formula_sum "Si O2"
_cell_formula_units_Z 40
_cell_length_a 9.272705
_cell_length_b 9.272705
_cell_length_c 20.028566
_cell_angle_alpha 90.000000
_cell_angle_beta 90.000000
_cell_angle_gamma 90.000000
_cell_volume 1722.117352
_symmetry_space_group_name_H-M "P 41 2 2"
_symmetry_group_IT_number 91
_symmetry_cell_setting 'tetragonal'
loop_
_space_group_symop_operation_xyz
x,y,z
-y,x,1/4+z
-x,-y,1/2+z
y,-x,3/4+z
x,-y,1/2-z
-x,y,-z
y,x,3/4-z
-y,-x,1/4-z
loop_
_atom_site_type_symbol
_atom_site_label
_atom_site_fract_x
_atom_site_fract_y
_atom_site_fract_z
Si Si1 0.915354 0.215740 0.563911
Si Si2 0.386917 0.667843 0.247537
Si Si3 0.853887 0.580541 0.123950
Si Si4 0.224601 0.687426 0.458177
Si Si5 0.069712 0.721670 0.597741
O O1 0.898735 0.101265 0.625000
O O2 0.755167 0.261608 0.540960
O O3 0.000000 0.145634 0.500000
O O4 0.002872 0.356843 0.588373
O O5 0.346358 0.500000 0.250000
O O6 0.400785 0.719996 0.323556
O O7 0.534386 0.694794 0.206435
O O8 0.813038 0.659346 0.193184
O O9 0.874379 0.412728 0.142067
O O10 0.139825 0.705815 0.525810
O O11 0.103016 0.710488 0.400850
O O12 0.124555 0.875446 0.625000
#
# Coordination Sequence:
#
# PCOD8305011 Si02
#       5
#     8   8   8   8   8
#     4  10  22  45  69  98 143 186 234 303 365 434
#     4  10  22  37  66 102 131 175 225 285 357 417
#     4  10  22  40  64  96 132 175 223 281 349 409
#     4  10  22  41  64  96 138 172 223 289 341 415
#     4  10  22  42  66  94 134 179 222 278 346 413
#
# _framework density 23.227219000000002
#
# number of rings (size 3 to 8) (size 9 to 14) (size 15 to 20)
#    0.000    2.000    2.000    0.000    8.400    0.800 
#   10.800    0.000    0.000    0.000    0.000    0.000 
#    0.000    0.000    0.000    0.000    0.000    0.000 
#
# Total GULP energy -495867.221935 kJ/mol
# GULP energy per Si atom -12396.680548 kJ/mol
# Density = 2.317435 g / cm^3
# Si number density = 23.227219 Si / 1000 Ang^3
#
#
#
# Elastic Constant Matrix: (Units=GPa)
#
#
# Indices 1 2 3 4 5 6 
#
# 1 122.1226 35.4544 31.2076 0.0000 0.0000 0.0000
# 2 35.4544 122.1219 31.2079 0.0000 0.0000 0.0000
# 3 31.2076 31.2079 49.6554 0.0000 0.0000 0.0000
# 4 0.0000 0.0000 0.0000 36.9060 0.0000 0.0000
# 5 0.0000 0.0000 0.0000 0.0000 36.9059 0.0000
# 6 0.0000 0.0000 0.0000 0.0000 0.0000 23.3867
#
#
#
# Elastic Compliance Matrix: (Units=1/GPa)
#
#
# Indices 1 2 3 4 5 6 
#
# 1 0.009994 -0.001544 -0.005310 0.000000 0.000000 0.000000
# 2 -0.001544 0.009994 -0.005311 0.000000 0.000000 0.000000
# 3 -0.005310 -0.005311 0.026814 0.000000 0.000000 0.000000
# 4 0.000000 0.000000 0.000000 0.027096 0.000000 0.000000
# 5 0.000000 0.000000 0.000000 0.000000 0.027096 0.000000
# 6 0.000000 0.000000 0.000000 0.000000 0.000000 0.042759
#
#
# Mechanical properties :
#
#
# Convention : Reuss Voigt Hill
#
# Bulk Modulus (GPa) = 44.50128 54.40441 49.45285
# Shear Modulus (GPa) = 28.47804 32.50838 30.49321
#
# Velocity S-wave (km/s) = 3.50532 3.74516 3.62722
# Velocity P-wave (km/s) = 5.96521 6.49424 6.23534
#
# Compressibility (1/GPa) = 0.02247126
#
# Stress axis : x y z
#
# Youngs Moduli (GPa) = 100.06129 100.06015 37.29409
#
# Poissons Ratio (x) = 0.15453 0.19805
# Poissons Ratio (y) = 0.15453 0.19805
# Poissons Ratio (z) = 0.53136 0.53137
#
# Static dielectric constant tensor:
#      x y z
#    x 4.267930 0.000000 0.000000 
#    y 0.000000 4.267920 0.000000 
#    z 0.000000 0.000000 4.052420 
# 
# 
# High freq. dielectric constant tensor:
#      x y z
#    x 1.914230 0.000000 0.000000 
#    y 0.000000 1.914230 0.000000 
#    z 0.000000 0.000000 1.902880 
# 
# From -- ./inp_files/6802.got.cif
#   From: 2010.03.12/outbox.cif.g09.slc.cpg/sg91_4_cif.got.tgz:6802.got - 2010.04.08 20:27:58.
