data_PCOD8305786
_publ_section_title
;
Structure prediction by ZEFSAII (Michael W. Deem and Ramdas Pophale) SiO2 
 PCOD8305786
Probable space group: P 42 21 2
;
_chemical_formula_sum "Si O2"
_cell_formula_units_Z 40
_cell_length_a 17.545058
_cell_length_b 17.545058
_cell_length_c 5.517163
_cell_angle_alpha 90.000000
_cell_angle_beta 90.000000
_cell_angle_gamma 90.000000
_cell_volume 1698.343101
_symmetry_space_group_name_H-M "P 42 21 2"
_symmetry_group_IT_number 94
_symmetry_cell_setting 'tetragonal'
loop_
_space_group_symop_operation_xyz
x,y,z
1/2-y,1/2+x,1/2+z
-x,-y,z
1/2+y,1/2-x,1/2+z
1/2+x,1/2-y,1/2-z
1/2-x,1/2+y,1/2-z
y,x,-z
-y,-x,-z
loop_
_atom_site_type_symbol
_atom_site_label
_atom_site_fract_x
_atom_site_fract_y
_atom_site_fract_z
Si Si1 0.383628 0.681864 0.747398
Si Si2 0.802629 0.540504 0.765703
Si Si3 0.159043 0.954240 0.067056
Si Si4 0.384307 0.833429 0.996303
Si Si5 0.741580 0.157633 0.349189
O O1 0.338525 0.661476 0.500000
O O2 0.469622 0.650383 0.724271
O O3 0.389312 0.774249 0.771045
O O4 0.352276 0.647724 0.000000
O O5 0.717874 0.529623 0.654864
O O6 0.861753 0.580420 0.580302
O O7 0.837407 0.460596 0.846571
O O8 0.801596 0.594257 0.997598
O O9 0.187961 0.882019 0.218388
O O10 0.073279 0.926722 0.000000
O O11 0.316016 0.802342 0.163452
O O12 0.771337 0.228664 0.500000
#
# Coordination Sequence:
#
# PCOD8305786 Si02
#       5
#     8   8   8   8   8
#     4  12  29  49  77 116 158 202 252 323 394 458
#     4  11  25  47  74 108 149 200 253 320 387 452
#     4  11  24  48  74 108 151 200 253 315 380 466
#     4  11  28  46  75 105 155 197 256 323 383 458
#     4  11  24  44  79 111 143 200 266 313 376 461
#
# _framework density 23.552368000000001
#
# number of rings (size 3 to 8) (size 9 to 14) (size 15 to 20)
#    0.000    0.800    4.000    1.200    8.400    0.400 
#    0.000    6.000    0.000    0.000    0.000    0.000 
#    0.000    0.000    0.000    0.000    0.000    0.000 
#
# Total GULP energy -495992.539455 kJ/mol
# GULP energy per Si atom -12399.813486 kJ/mol
# Density = 2.349876 g / cm^3
# Si number density = 23.552368 Si / 1000 Ang^3
#
#
#
# Elastic Constant Matrix: (Units=GPa)
#
#
# Indices 1 2 3 4 5 6 
#
# 1 105.5386 68.1846 49.2832 0.0000 0.0000 0.0000
# 2 68.1846 105.5324 49.2812 0.0000 0.0000 0.0000
# 3 49.2832 49.2812 124.2204 0.0000 0.0000 0.0000
# 4 0.0000 0.0000 0.0000 -2.4813 0.0000 0.0000
# 5 0.0000 0.0000 0.0000 0.0000 -2.4732 0.0000
# 6 0.0000 0.0000 0.0000 0.0000 0.0000 26.0038
#
#
#
# Elastic Compliance Matrix: (Units=1/GPa)
#
#
# Indices 1 2 3 4 5 6 
#
# 1 0.017100 -0.009672 -0.002947 0.000000 0.000000 0.000000
# 2 -0.009672 0.017101 -0.002947 0.000000 0.000000 0.000000
# 3 -0.002947 -0.002947 0.010389 0.000000 0.000000 0.000000
# 4 0.000000 0.000000 0.000000 -0.403023 0.000000 0.000000
# 5 0.000000 0.000000 0.000000 0.000000 -0.404333 0.000000
# 6 0.000000 0.000000 0.000000 0.000000 0.000000 0.038456
#
#
# Mechanical properties :
#
#
# Convention : Reuss Voigt Hill
#
# Bulk Modulus (GPa) = 74.30988 74.30992 74.30990
# Shear Modulus (GPa) = -7.26016 15.44602 4.09293
#
# Velocity S-wave (km/s) = -1.75763 2.56367 1.31969
# Velocity P-wave (km/s) = 5.24408 6.35473 5.82593
#
# Compressibility (1/GPa) = 0.01345716
#
# Stress axis : x y z
#
# Youngs Moduli (GPa) = 58.47833 58.47519 96.25885
#
# Poissons Ratio (x) = 0.56559 0.28369
# Poissons Ratio (y) = 0.56562 0.28368
# Poissons Ratio (z) = 0.17234 0.17233
#
# Static dielectric constant tensor:
#      x y z
#    x 4.463230 0.000000 0.000000 
#    y 0.000000 4.463070 0.000000 
#    z 0.000000 0.000000 4.503830 
# 
# 
# High freq. dielectric constant tensor:
#      x y z
#    x 1.931930 0.000000 0.000000 
#    y 0.000000 1.931930 0.000000 
#    z 0.000000 0.000000 1.942520 
# 
# From -- ./inp_files/334.got.cif
#   From: 2010.03.12/outbox.cif.g09.slc.cpg/sg94_1_cif.got.tgz:334.got - 2010.04.08 20:48:32.
