data_PCOD8305515
_publ_section_title
;
Structure prediction by ZEFSAII (Michael W. Deem and Ramdas Pophale) SiO2 
 PCOD8305515
Probable space group: P 42 2 2
;
_chemical_formula_sum "Si O2"
_cell_formula_units_Z 40
_cell_length_a 12.401995
_cell_length_b 12.401995
_cell_length_c 14.610413
_cell_angle_alpha 90.000000
_cell_angle_beta 90.000000
_cell_angle_gamma 90.000000
_cell_volume 2247.220026
_symmetry_space_group_name_H-M "P 42 2 2"
_symmetry_group_IT_number 93
_symmetry_cell_setting 'tetragonal'
loop_
_space_group_symop_operation_xyz
x,y,z
-y,x,1/2+z
-x,-y,z
y,-x,1/2+z
x,-y,-z
-x,y,-z
y,x,1/2-z
-y,-x,1/2-z
loop_
_atom_site_type_symbol
_atom_site_label
_atom_site_fract_x
_atom_site_fract_y
_atom_site_fract_z
Si Si1 0.702822 0.152965 0.300907
Si Si2 0.590301 0.583796 0.105183
Si Si3 0.610342 0.937083 0.336538
Si Si4 0.251745 0.491413 0.259903
Si Si5 0.376143 0.205355 0.499493
O O1 0.813988 0.186013 0.250000
O O2 0.613255 0.210930 0.238335
O O3 0.689043 0.188165 0.406980
O O4 0.694597 0.023580 0.296344
O O5 0.500000 0.500000 0.070280
O O6 0.662072 0.520746 0.178751
O O7 0.536242 0.692034 0.144709
O O8 0.666536 0.625368 0.022807
O O9 0.586952 0.849798 0.257354
O O10 0.669448 0.874254 0.420504
O O11 0.500000 0.000000 0.365379
O O12 0.500000 0.167983 0.500000
#
# Coordination Sequence:
#
# PCOD8305515 Si02
#       5
#     8   8   8   8   8
#     4  11  20  31  46  73 102 130 171 226 264 300
#     4  10  18  29  43  68 105 138 167 199 247 312
#     4   9  17  30  52  69  96 132 175 221 251 303
#     4   9  17  29  44  67  97 136 168 201 253 310
#     4  11  19  31  48  73  99 137 179 205 257 315
#
# _framework density 17.799769000000001
#
# number of rings (size 3 to 8) (size 9 to 14) (size 15 to 20)
#    0.000    2.000    6.000    3.000    0.000    0.400 
#    0.000    0.000    0.000    1.200    0.000   15.400 
#    0.000   12.800    0.000    0.000    0.000    0.000 
#
# Total GULP energy -495654.681657 kJ/mol
# GULP energy per Si atom -12391.367041 kJ/mol
# Density = 1.775926 g / cm^3
# Si number density = 17.799769 Si / 1000 Ang^3
#
#
#
# Elastic Constant Matrix: (Units=GPa)
#
#
# Indices 1 2 3 4 5 6 
#
# 1 98.9293 38.2365 38.5966 0.0000 0.0000 0.0000
# 2 38.2365 98.9302 38.5971 0.0000 0.0000 0.0000
# 3 38.5966 38.5971 64.8120 0.0000 0.0000 0.0000
# 4 0.0000 0.0000 0.0000 16.2516 0.0000 0.0000
# 5 0.0000 0.0000 0.0000 0.0000 16.2512 0.0000
# 6 0.0000 0.0000 0.0000 0.0000 0.0000 23.5762
#
#
#
# Elastic Compliance Matrix: (Units=1/GPa)
#
#
# Indices 1 2 3 4 5 6 
#
# 1 0.013721 -0.002755 -0.006530 0.000000 0.000000 0.000000
# 2 -0.002755 0.013721 -0.006530 0.000000 0.000000 0.000000
# 3 -0.006530 -0.006530 0.023207 0.000000 0.000000 0.000000
# 4 0.000000 0.000000 0.000000 0.061532 0.000000 0.000000
# 5 0.000000 0.000000 0.000000 0.000000 0.061534 0.000000
# 6 0.000000 0.000000 0.000000 0.000000 0.000000 0.042416
#
#
# Mechanical properties :
#
#
# Convention : Reuss Voigt Hill
#
# Bulk Modulus (GPa) = 52.58395 54.83689 53.71042
# Shear Modulus (GPa) = 19.67721 21.03188 20.35455
#
# Velocity S-wave (km/s) = 3.32848 3.44114 3.38528
# Velocity P-wave (km/s) = 6.66166 6.83104 6.74688
#
# Compressibility (1/GPa) = 0.01901721
#
# Stress axis : x y z
#
# Youngs Moduli (GPa) = 72.88153 72.88198 43.09067
#
# Poissons Ratio (x) = 0.20082 0.28139
# Poissons Ratio (y) = 0.20082 0.28139
# Poissons Ratio (z) = 0.47592 0.47593
#
# Static dielectric constant tensor:
#      x y z
#    x 3.339980 0.000000 0.000000 
#    y 0.000000 3.339970 0.000000 
#    z 0.000000 0.000000 3.446450 
# 
# 
# High freq. dielectric constant tensor:
#      x y z
#    x 1.663690 0.000000 0.000000 
#    y 0.000000 1.663690 0.000000 
#    z 0.000000 0.000000 1.679710 
# 
# From -- ./inp_files/4365.got.cif
#   From: 2010.03.12/outbox.cif.g09.slc.cpg/sg93_3_cif.got.tgz:4365.got - 2010.04.08 20:44:19.
