data_PCOD8305326
_publ_section_title
;
Structure prediction by ZEFSAII (Michael W. Deem and Ramdas Pophale) SiO2 
 PCOD8305326
Probable space group: P 41 21 2
;
_chemical_formula_sum "Si O2"
_cell_formula_units_Z 40
_cell_length_a 14.171473
_cell_length_b 14.171473
_cell_length_c 7.408482
_cell_angle_alpha 90.000000
_cell_angle_beta 90.000000
_cell_angle_gamma 90.000000
_cell_volume 1487.850233
_symmetry_space_group_name_H-M "P 41 21 2"
_symmetry_group_IT_number 92
_symmetry_cell_setting 'tetragonal'
loop_
_space_group_symop_operation_xyz
x,y,z
1/2-y,1/2+x,1/4+z
-x,-y,1/2+z
1/2+y,1/2-x,3/4+z
1/2+x,1/2-y,3/4-z
1/2-x,1/2+y,1/4-z
y,x,-z
-y,-x,1/2-z
loop_
_atom_site_type_symbol
_atom_site_label
_atom_site_fract_x
_atom_site_fract_y
_atom_site_fract_z
Si Si1 0.441462 0.284106 0.086502
Si Si2 0.171941 0.776150 0.550309
Si Si3 0.068338 0.596391 0.352876
Si Si4 0.342980 0.648752 0.959626
Si Si5 0.992915 0.271539 0.266121
O O1 0.357753 0.358843 0.149604
O O2 0.402784 0.204935 0.947108
O O3 0.538689 0.323122 0.998587
O O4 0.456048 0.230925 0.278937
O O5 0.176967 0.823034 0.750000
O O6 0.271267 0.732636 0.477273
O O7 0.082416 0.708626 0.602753
O O8 0.140628 0.564311 0.508736
O O9 0.961259 0.583166 0.417039
O O10 0.339623 0.660378 0.750000
O O11 0.446704 0.676362 0.033017
#
# Coordination Sequence:
#
# PCOD8305326 Si02
#       5
#     8   8   8   8   8
#     4  10  21  40  67  94 127 170 216 267 324 387
#     4   9  18  36  65  93 121 163 212 261 314 375
#     4  12  24  38  61  96 133 170 212 266 328 390
#     4   9  18  36  65  93 121 163 212 261 314 375
#     4  10  21  40  67  94 127 170 216 267 324 387
#
# _framework density 26.884426999999999
#
# number of rings (size 3 to 8) (size 9 to 14) (size 15 to 20)
#    0.000    2.000    0.000    3.600    0.000    6.400 
#    0.000    9.000    0.000   69.600    0.000    0.000 
#    0.000    0.000    0.000    0.000    0.000    0.000 
#
# Total GULP energy -495551.924351 kJ/mol
# GULP energy per Si atom -12388.798109 kJ/mol
# Density = 2.682324 g / cm^3
# Si number density = 26.884427 Si / 1000 Ang^3
#
#
#
# Elastic Constant Matrix: (Units=GPa)
#
#
# Indices 1 2 3 4 5 6 
#
# 1 131.6729 35.4449 13.7164 0.0000 0.0000 0.0000
# 2 35.4449 131.6718 13.7163 0.0000 0.0000 0.0000
# 3 13.7164 13.7163 95.8604 0.0000 0.0000 0.0000
# 4 0.0000 0.0000 0.0000 27.4830 0.0000 0.0000
# 5 0.0000 0.0000 0.0000 0.0000 27.4832 0.0000
# 6 0.0000 0.0000 0.0000 0.0000 0.0000 48.1262
#
#
#
# Elastic Compliance Matrix: (Units=1/GPa)
#
#
# Indices 1 2 3 4 5 6 
#
# 1 0.008260 -0.002132 -0.000877 0.000000 0.000000 0.000000
# 2 -0.002132 0.008260 -0.000877 0.000000 0.000000 0.000000
# 3 -0.000877 -0.000877 0.010683 0.000000 0.000000 0.000000
# 4 0.000000 0.000000 0.000000 0.036386 0.000000 0.000000
# 5 0.000000 0.000000 0.000000 0.000000 0.036386 0.000000
# 6 0.000000 0.000000 0.000000 0.000000 0.000000 0.020779
#
#
# Mechanical properties :
#
#
# Convention : Reuss Voigt Hill
#
# Bulk Modulus (GPa) = 51.46402 53.88449 52.67426
# Shear Modulus (GPa) = 37.03658 40.37367 38.70512
#
# Velocity S-wave (km/s) = 3.71566 3.87945 3.79844
# Velocity P-wave (km/s) = 6.13127 6.33666 6.23481
#
# Compressibility (1/GPa) = 0.01943105
#
# Stress axis : x y z
#
# Youngs Moduli (GPa) = 121.06742 121.06638 93.60886
#
# Poissons Ratio (x) = 0.25813 0.08208
# Poissons Ratio (y) = 0.25813 0.08208
# Poissons Ratio (z) = 0.10615 0.10615
#
# Static dielectric constant tensor:
#      x y z
#    x 5.712900 0.000000 0.000000 
#    y 0.000000 5.712750 0.000000 
#    z 0.000000 0.000000 5.304410 
# 
# 
# High freq. dielectric constant tensor:
#      x y z
#    x 2.083890 0.000000 0.000000 
#    y 0.000000 2.083890 0.000000 
#    z 0.000000 0.000000 2.122460 
# 
# From -- ./inp_files/1336.got.cif
#   From: 2010.03.12/outbox.cif.g09.slc.cpg/sg92_1_cif.got.tgz:1336.got - 2010.04.08 20:41:11.
