data_PCOD8305852
_publ_section_title
;
Structure prediction by ZEFSAII (Michael W. Deem and Ramdas Pophale) SiO2 
 PCOD8305852
Probable space group: P 43 2 2
;
_chemical_formula_sum "Si O2"
_cell_formula_units_Z 60
_cell_length_a 11.088817
_cell_length_b 11.088817
_cell_length_c 22.945195
_cell_angle_alpha 90.000000
_cell_angle_beta 90.000000
_cell_angle_gamma 90.000000
_cell_volume 2821.383912
_symmetry_space_group_name_H-M "P 43 2 2"
_symmetry_group_IT_number 95
_symmetry_cell_setting 'tetragonal'
loop_
_space_group_symop_operation_xyz
x,y,z
-y,x,3/4+z
-x,-y,1/2+z
y,-x,1/4+z
x,-y,1/2-z
-x,y,-z
y,x,1/4-z
-y,-x,3/4-z
loop_
_atom_site_type_symbol
_atom_site_label
_atom_site_fract_x
_atom_site_fract_y
_atom_site_fract_z
Si Si1 0.630189 0.865878 0.850069
Si Si2 0.889971 0.291245 0.848326
Si Si3 0.818243 0.552259 0.876180
Si Si4 0.709048 0.506697 0.186802
Si Si5 0.314319 0.742975 0.515400
Si Si6 0.528362 0.608837 0.685494
Si Si7 0.957947 0.629778 0.064911
Si Si8 0.250816 0.749185 0.875000
O O1 0.598054 0.759033 0.894924
O O2 0.715832 0.810855 0.799436
O O3 0.506487 0.907570 0.819220
O O4 0.705704 0.966646 0.886838
O O5 0.827916 0.172085 0.875000
O O6 0.844471 0.410152 0.880529
O O7 0.853759 0.294328 0.779602
O O8 0.776427 0.581226 0.810857
O O9 0.718886 0.567330 0.927222
O O10 0.929512 0.638217 0.891128
O O11 0.770015 0.500000 0.250000
O O12 0.561821 0.505094 0.193437
O O13 0.749626 0.636376 0.166900
O O14 0.367207 0.620561 0.487437
O O15 0.601355 0.601355 0.625000
O O16 0.868376 0.737127 0.085041
O O17 0.000000 0.657940 0.000000
#
# Coordination Sequence:
#
# PCOD8305852 Si02
#       8
#     8   8   8   8   8   8   8   4
#     4  10  25  42  62 100 132 175 230 266 339 417
#     4  11  23  41  63  97 129 169 222 279 336 392
#     4  11  22  39  63 100 128 173 226 262 333 405
#     4  11  25  38  63  95 143 178 208 273 345 409
#     4  12  23  39  68  92 137 175 212 284 334 406
#     4  12  23  37  60 102 139 170 215 272 347 412
#     4  10  23  42  68  94 135 180 224 270 328 412
#     4  10  24  44  60 102 134 172 234 274 320 406
#
# _framework density 21.266158000000001
#
# number of rings (size 3 to 8) (size 9 to 14) (size 15 to 20)
#    0.000    1.067    4.667    1.200    9.333    3.200 
#    0.000    0.000    1.467    0.000    3.467    0.000 
#    0.000    0.000    0.000    0.000    0.000    0.000 
#
# Total GULP energy -743578.550605 kJ/mol
# GULP energy per Si atom -12392.975843 kJ/mol
# Density = 2.121776 g / cm^3
# Si number density = 21.266158 Si / 1000 Ang^3
#
#
#
# Elastic Constant Matrix: (Units=GPa)
#
#
# Indices 1 2 3 4 5 6 
#
# 1 90.9795 40.7049 40.3908 0.0000 0.0000 0.0000
# 2 40.7049 90.9797 40.3911 0.0000 0.0000 0.0000
# 3 40.3908 40.3911 133.0916 0.0000 0.0000 0.0000
# 4 0.0000 0.0000 0.0000 35.5544 0.0000 0.0000
# 5 0.0000 0.0000 0.0000 0.0000 35.5544 0.0000
# 6 0.0000 0.0000 0.0000 0.0000 0.0000 27.8423
#
#
#
# Elastic Compliance Matrix: (Units=1/GPa)
#
#
# Indices 1 2 3 4 5 6 
#
# 1 0.014611 -0.005280 -0.002832 0.000000 0.000000 0.000000
# 2 -0.005280 0.014611 -0.002832 0.000000 0.000000 0.000000
# 3 -0.002832 -0.002832 0.009232 0.000000 0.000000 0.000000
# 4 0.000000 0.000000 0.000000 0.028126 0.000000 0.000000
# 5 0.000000 0.000000 0.000000 0.000000 0.028126 0.000000
# 6 0.000000 0.000000 0.000000 0.000000 0.000000 0.035917
#
#
# Mechanical properties :
#
#
# Convention : Reuss Voigt Hill
#
# Bulk Modulus (GPa) = 60.35976 62.00272 61.18124
# Shear Modulus (GPa) = 31.63917 32.69450 32.16684
#
# Velocity S-wave (km/s) = 3.86135 3.92522 3.89341
# Velocity P-wave (km/s) = 6.95159 7.05422 7.00309
#
# Compressibility (1/GPa) = 0.01656733
#
# Stress axis : x y z
#
# Youngs Moduli (GPa) = 68.44200 68.44204 108.31376
#
# Poissons Ratio (x) = 0.36136 0.30672
# Poissons Ratio (y) = 0.36136 0.30673
# Poissons Ratio (z) = 0.19381 0.19382
#
# Static dielectric constant tensor:
#      x y z
#    x 3.893930 0.000000 0.000000 
#    y 0.000000 3.893930 0.000000 
#    z 0.000000 0.000000 3.919270 
# 
# 
# High freq. dielectric constant tensor:
#      x y z
#    x 1.817740 0.000000 0.000000 
#    y 0.000000 1.817740 0.000000 
#    z 0.000000 0.000000 1.844850 
# 
# From -- ./inp_files/6500.got.cif
#   From: 2010.03.12/outbox.cif.g09.slc.cpg/sg95_4_cif.got.tgz:6500.got - 2010.04.08 20:51:55.
