data_PCOD8305400
_publ_section_title
;
Structure prediction by ZEFSAII (Michael W. Deem and Ramdas Pophale) SiO2 
 PCOD8305400
Probable space group: P 41 21 2
;
_chemical_formula_sum "Si O2"
_cell_formula_units_Z 36
_cell_length_a 8.883690
_cell_length_b 8.883690
_cell_length_c 19.587342
_cell_angle_alpha 90.000000
_cell_angle_beta 90.000000
_cell_angle_gamma 90.000000
_cell_volume 1545.832012
_symmetry_space_group_name_H-M "P 41 21 2"
_symmetry_group_IT_number 92
_symmetry_cell_setting 'tetragonal'
loop_
_space_group_symop_operation_xyz
x,y,z
1/2-y,1/2+x,1/4+z
-x,-y,1/2+z
1/2+y,1/2-x,3/4+z
1/2+x,1/2-y,3/4-z
1/2-x,1/2+y,1/4-z
y,x,-z
-y,-x,1/2-z
loop_
_atom_site_type_symbol
_atom_site_label
_atom_site_fract_x
_atom_site_fract_y
_atom_site_fract_z
Si Si1 0.760005 0.823361 0.922400
Si Si2 0.338258 0.064319 0.688657
Si Si3 0.438892 0.777864 0.286438
Si Si4 0.481386 0.481386 0.500000
Si Si5 0.619556 0.645192 0.616651
O O1 0.592019 0.874182 0.901047
O O2 0.811044 0.693596 0.869457
O O3 0.858355 0.971424 0.913623
O O4 0.765958 0.765958 0.000000
O O5 0.488607 0.110906 0.730113
O O6 0.190986 0.023535 0.733806
O O7 0.371592 0.628409 0.250000
O O8 0.304983 0.850984 0.330605
O O9 0.583873 0.750076 0.334535
O O10 0.595701 0.517268 0.560663
#
# Coordination Sequence:
#
# PCOD8305400 Si02
#       5
#     8   8   8   4   8
#     4  11  27  46  76 106 148 194 252 304 381 452
#     4  11  27  45  78 105 151 191 252 306 383 444
#     4  12  28  46  76 109 154 198 252 310 380 448
#     4  10  22  50  68 108 140 196 236 316 358 452
#     4  11  26  45  74 105 151 190 250 301 377 440
#
# _framework density 23.288429000000001
#
# number of rings (size 3 to 8) (size 9 to 14) (size 15 to 20)
#    0.000    0.889    2.222    2.000   15.556    1.778 
#    0.000    0.000    0.000    0.000    0.000    0.000 
#    0.000    0.000    0.000    0.000    0.000    0.000 
#
# Total GULP energy -446096.807392 kJ/mol
# GULP energy per Si atom -12391.577983 kJ/mol
# Density = 2.323542 g / cm^3
# Si number density = 23.288429 Si / 1000 Ang^3
#
#
#
# Elastic Constant Matrix: (Units=GPa)
#
#
# Indices 1 2 3 4 5 6 
#
# 1 97.1674 23.1069 48.4871 0.0000 0.0000 0.0000
# 2 23.1069 97.1677 48.4871 0.0000 0.0000 0.0000
# 3 48.4871 48.4871 110.7458 0.0000 0.0000 0.0000
# 4 0.0000 0.0000 0.0000 47.7729 0.0000 0.0000
# 5 0.0000 0.0000 0.0000 0.0000 47.7726 0.0000
# 6 0.0000 0.0000 0.0000 0.0000 0.0000 37.5123
#
#
#
# Elastic Compliance Matrix: (Units=1/GPa)
#
#
# Indices 1 2 3 4 5 6 
#
# 1 0.013177 -0.000326 -0.005626 0.000000 0.000000 0.000000
# 2 -0.000326 0.013177 -0.005626 0.000000 0.000000 0.000000
# 3 -0.005626 -0.005626 0.013956 0.000000 0.000000 0.000000
# 4 0.000000 0.000000 0.000000 0.020932 0.000000 0.000000
# 5 0.000000 0.000000 0.000000 0.000000 0.020932 0.000000
# 6 0.000000 0.000000 0.000000 0.000000 0.000000 0.026658
#
#
# Mechanical properties :
#
#
# Convention : Reuss Voigt Hill
#
# Bulk Modulus (GPa) = 58.30081 60.58254 59.44168
# Shear Modulus (GPa) = 36.30903 38.94489 37.62696
#
# Velocity S-wave (km/s) = 3.95283 4.09379 4.02393
# Velocity P-wave (km/s) = 6.77656 6.95816 6.86796
#
# Compressibility (1/GPa) = 0.01715242
#
# Stress axis : x y z
#
# Youngs Moduli (GPa) = 75.89223 75.89249 71.65197
#
# Poissons Ratio (x) = 0.02473 0.40314
# Poissons Ratio (y) = 0.02473 0.40314
# Poissons Ratio (z) = 0.42699 0.42699
#
# Static dielectric constant tensor:
#      x y z
#    x 4.233580 0.000000 0.000000 
#    y 0.000000 4.233580 0.000000 
#    z 0.000000 0.000000 4.307240 
# 
# 
# High freq. dielectric constant tensor:
#      x y z
#    x 1.926900 0.000000 0.000000 
#    y 0.000000 1.926900 0.000000 
#    z 0.000000 0.000000 1.927070 
# 
# From -- ./inp_files/3447.got.cif
#   From: 2010.03.12/outbox.cif.g09.slc.cpg/sg92_2_cif.got.tgz:3447.got - 2010.04.08 20:41:11.
