data_PCOD8305662
_publ_section_title
;
Structure prediction by ZEFSAII (Michael W. Deem and Ramdas Pophale) SiO2 
 PCOD8305662
Probable space group: P 42 21 2
;
_chemical_formula_sum "Si O2"
_cell_formula_units_Z 38
_cell_length_a 19.162220
_cell_length_b 19.162220
_cell_length_c 5.308300
_cell_angle_alpha 90.000000
_cell_angle_beta 90.000000
_cell_angle_gamma 90.000000
_cell_volume 1949.158262
_symmetry_space_group_name_H-M "P 42 21 2"
_symmetry_group_IT_number 94
_symmetry_cell_setting 'tetragonal'
loop_
_space_group_symop_operation_xyz
x,y,z
1/2-y,1/2+x,1/2+z
-x,-y,z
1/2+y,1/2-x,1/2+z
1/2+x,1/2-y,1/2-z
1/2-x,1/2+y,1/2-z
y,x,-z
-y,-x,-z
loop_
_atom_site_type_symbol
_atom_site_label
_atom_site_fract_x
_atom_site_fract_y
_atom_site_fract_z
Si Si1 0.054281 0.218431 0.335761
Si Si2 0.482994 0.650260 0.654166
Si Si3 0.414300 0.264513 0.374072
Si Si4 0.500000 0.500000 0.500000
Si Si5 0.307452 0.307452 0.000000
Si Si6 0.297324 0.192667 0.627057
O O1 0.056780 0.175284 0.595535
O O2 0.112455 0.278174 0.334332
O O3 0.979807 0.258252 0.301564
O O4 0.064450 0.165052 0.098423
O O5 0.555675 0.693314 0.617632
O O6 0.499843 0.568287 0.677889
O O7 0.364765 0.317872 0.218368
O O8 0.367669 0.198311 0.457625
O O9 0.228888 0.314849 0.107658
O O10 0.232386 0.232386 0.500000
#
# Coordination Sequence:
#
# PCOD8305662 Si02
#       6
#     8   8   8   2   4   8
#     4  10  24  40  61  90 129 157 213 264 312 366
#     4  10  26  40  60  90 128 171 209 259 300 380
#     4   9  22  37  63  87 127 158 212 257 317 376
#     4  12  28  40  64  82 128 186 214 242 316 366
#     4  10  20  37  62  95 116 167 219 254 320 374
#     4  10  22  36  64  90 122 170 209 268 315 375
#
# _framework density 19.495595000000002
#
# number of rings (size 3 to 8) (size 9 to 14) (size 15 to 20)
#    1.263    0.842    0.000    1.263   16.211    1.684 
#    0.000    0.000    0.000    0.000    0.000   20.632 
#    0.000    0.000    0.000    0.000    0.000    0.000 
#
# Total GULP energy -470862.337102 kJ/mol
# GULP energy per Si atom -12391.114134 kJ/mol
# Density = 1.945122 g / cm^3
# Si number density = 19.495595 Si / 1000 Ang^3
#
#
#
# Elastic Constant Matrix: (Units=GPa)
#
#
# Indices 1 2 3 4 5 6 
#
# 1 96.5085 51.9758 25.9599 0.0000 0.0000 0.0000
# 2 51.9758 96.5085 25.9599 0.0000 0.0000 0.0000
# 3 25.9599 25.9599 113.4729 0.0000 0.0000 0.0000
# 4 0.0000 0.0000 0.0000 20.4260 0.0000 0.0000
# 5 0.0000 0.0000 0.0000 0.0000 20.4260 0.0000
# 6 0.0000 0.0000 0.0000 0.0000 0.0000 21.4592
#
#
#
# Elastic Compliance Matrix: (Units=1/GPa)
#
#
# Indices 1 2 3 4 5 6 
#
# 1 0.014888 -0.007568 -0.001675 0.000000 0.000000 0.000000
# 2 -0.007568 0.014888 -0.001675 0.000000 0.000000 0.000000
# 3 -0.001675 -0.001675 0.009579 0.000000 0.000000 0.000000
# 4 0.000000 0.000000 0.000000 0.048957 0.000000 0.000000
# 5 0.000000 0.000000 0.000000 0.000000 0.048957 0.000000
# 6 0.000000 0.000000 0.000000 0.000000 0.000000 0.046600
#
#
# Mechanical properties :
#
#
# Convention : Reuss Voigt Hill
#
# Bulk Modulus (GPa) = 57.07531 57.14235 57.10883
# Shear Modulus (GPa) = 23.63581 25.96852 24.80216
#
# Velocity S-wave (km/s) = 3.48568 3.65364 3.57065
# Velocity P-wave (km/s) = 6.74830 6.86825 6.80854
#
# Compressibility (1/GPa) = 0.01752071
#
# Stress axis : x y z
#
# Youngs Moduli (GPa) = 67.16887 67.16887 104.39566
#
# Poissons Ratio (x) = 0.50830 0.17483
# Poissons Ratio (y) = 0.50830 0.17483
# Poissons Ratio (z) = 0.11249 0.11249
#
# Static dielectric constant tensor:
#      x y z
#    x 3.319380 0.000000 0.000000 
#    y 0.000000 3.319380 0.000000 
#    z 0.000000 0.000000 3.618540 
# 
# 
# High freq. dielectric constant tensor:
#      x y z
#    x 1.734590 0.000000 0.000000 
#    y 0.000000 1.734590 0.000000 
#    z 0.000000 0.000000 1.770040 
# 
# From -- ./inp_files/360.got.cif
#   From: 2010.03.12/outbox.cif.g09.slc.cpg/sg94_1_cif.got.tgz:360.got - 2010.04.08 20:48:32.
