data_PCOD8305139
_publ_section_title
;
Structure prediction by ZEFSAII (Michael W. Deem and Ramdas Pophale) SiO2 
 PCOD8305139
Probable space group: P 41 2 2
;
_chemical_formula_sum "Si O2"
_cell_formula_units_Z 48
_cell_length_a 11.518487
_cell_length_b 11.518487
_cell_length_c 17.480584
_cell_angle_alpha 90.000000
_cell_angle_beta 90.000000
_cell_angle_gamma 90.000000
_cell_volume 2319.245970
_symmetry_space_group_name_H-M "P 41 2 2"
_symmetry_group_IT_number 91
_symmetry_cell_setting 'tetragonal'
loop_
_space_group_symop_operation_xyz
x,y,z
-y,x,1/4+z
-x,-y,1/2+z
y,-x,3/4+z
x,-y,1/2-z
-x,y,-z
y,x,3/4-z
-y,-x,1/4-z
loop_
_atom_site_type_symbol
_atom_site_label
_atom_site_fract_x
_atom_site_fract_y
_atom_site_fract_z
Si Si1 0.774770 0.259630 0.036269
Si Si2 0.951427 0.048574 0.625000
Si Si3 0.366144 0.500000 0.250000
Si Si4 0.314776 0.519671 0.578360
Si Si5 0.940091 0.304104 0.576649
Si Si6 0.318337 0.681664 0.125000
Si Si7 0.406248 0.123211 0.062048
Si Si8 0.000000 0.137017 0.000000
O O1 0.742490 0.257511 0.125000
O O2 0.750747 0.395308 0.017155
O O3 0.906935 0.226958 0.030316
O O4 0.702795 0.174472 0.982871
O O5 0.961838 0.166661 0.578198
O O6 0.059981 0.046393 0.681315
O O7 0.431243 0.613337 0.278663
O O8 0.303729 0.564454 0.177912
O O9 0.411540 0.588461 0.625000
O O10 0.221553 0.455956 0.631997
O O11 0.801273 0.323874 0.575842
O O12 0.000000 0.353209 0.500000
O O13 0.004935 0.367515 0.646656
O O14 0.500000 0.084054 0.000000
#
# Coordination Sequence:
#
# PCOD8305139 Si02
#       8
#     8   4   4   8   8   4   8   4
#     4  11  23  40  64 104 130 175 237 282 343 414
#     4  11  22  40  75  94 136 180 223 276 352 411
#     4  12  24  48  70 100 134 184 236 292 338 414
#     4  11  22  42  67  96 138 179 232 281 353 406
#     4  11  25  47  68 102 140 183 231 282 354 423
#     4  11  28  46  73 104 136 184 243 284 346 419
#     4  12  23  42  70  97 141 189 224 292 353 411
#     4  12  22  42  68 104 132 176 228 290 334 424
#
# _framework density 20.696380999999999
#
# number of rings (size 3 to 8) (size 9 to 14) (size 15 to 20)
#    0.000    0.667    7.500    2.000    1.167    0.000 
#    4.500    0.000    0.000    0.000    0.000    0.000 
#    0.000    0.000    0.000    0.000    0.000    0.000 
#
# Total GULP energy -594764.765479 kJ/mol
# GULP energy per Si atom -12390.932614 kJ/mol
# Density = 2.064928 g / cm^3
# Si number density = 20.696381 Si / 1000 Ang^3
#
#
#
# Elastic Constant Matrix: (Units=GPa)
#
#
# Indices 1 2 3 4 5 6 
#
# 1 370.6911 -230.3030 31.8125 0.0000 0.0000 0.0000
# 2 -230.3030 370.7142 31.8132 0.0000 0.0000 0.0000
# 3 31.8125 31.8132 85.6395 0.0000 0.0000 0.0000
# 4 0.0000 0.0000 0.0000 48.0898 0.0000 0.0000
# 5 0.0000 0.0000 0.0000 0.0000 48.0848 0.0000
# 6 0.0000 0.0000 0.0000 0.0000 0.0000 37.8334
#
#
#
# Elastic Compliance Matrix: (Units=1/GPa)
#
#
# Indices 1 2 3 4 5 6 
#
# 1 0.005114 0.003450 -0.003181 0.000000 0.000000 0.000000
# 2 0.003450 0.005114 -0.003181 0.000000 0.000000 0.000000
# 3 -0.003181 -0.003181 0.014040 0.000000 0.000000 0.000000
# 4 0.000000 0.000000 0.000000 0.020794 0.000000 0.000000
# 5 0.000000 0.000000 0.000000 0.000000 0.020797 0.000000
# 6 0.000000 0.000000 0.000000 0.000000 0.000000 0.026432
#
#
# Mechanical properties :
#
#
# Convention : Reuss Voigt Hill
#
# Bulk Modulus (GPa) = 54.21997 54.85446 54.53721
# Shear Modulus (GPa) = 47.95504 93.04974 70.50239
#
# Velocity S-wave (km/s) = 4.81882 6.71245 5.84286
# Velocity P-wave (km/s) = 7.56413 9.30795 8.48098
#
# Compressibility (1/GPa) = 0.01844339
#
# Stress axis : x y z
#
# Youngs Moduli (GPa) = 195.53287 195.54516 71.22265
#
# Poissons Ratio (x) = -0.67467 0.22659
# Poissons Ratio (y) = -0.67463 0.22658
# Poissons Ratio (z) = 0.62208 0.62210
#
# Static dielectric constant tensor:
#      x y z
#    x 3.840010 0.000000 0.000000 
#    y 0.000000 3.840060 0.000000 
#    z 0.000000 0.000000 4.088570 
# 
# 
# High freq. dielectric constant tensor:
#      x y z
#    x 1.816060 0.000000 0.000000 
#    y 0.000000 1.816060 0.000000 
#    z 0.000000 0.000000 1.812510 
# 
# From -- ./inp_files/12008.got.cif
#   From: 2010.03.12/outbox.cif.g09.slc.cpg/sg91_7_cif.got.tgz:12008.got - 2010.04.08 20:27:58.
