data_PCOD8305207
_publ_section_title
;
Structure prediction by ZEFSAII (Michael W. Deem and Ramdas Pophale) SiO2 
 PCOD8305207
Probable space group: P 41 21 2
;
_chemical_formula_sum "Si O2"
_cell_formula_units_Z 48
_cell_length_a 16.543520
_cell_length_b 16.543520
_cell_length_c 10.212073
_cell_angle_alpha 90.000000
_cell_angle_beta 90.000000
_cell_angle_gamma 90.000000
_cell_volume 2794.922387
_symmetry_space_group_name_H-M "P 41 21 2"
_symmetry_group_IT_number 92
_symmetry_cell_setting 'tetragonal'
loop_
_space_group_symop_operation_xyz
x,y,z
1/2-y,1/2+x,1/4+z
-x,-y,1/2+z
1/2+y,1/2-x,3/4+z
1/2+x,1/2-y,3/4-z
1/2-x,1/2+y,1/4-z
y,x,-z
-y,-x,1/2-z
loop_
_atom_site_type_symbol
_atom_site_label
_atom_site_fract_x
_atom_site_fract_y
_atom_site_fract_z
Si Si1 0.585079 0.720343 0.998305
Si Si2 0.914293 0.789452 0.841024
Si Si3 0.339328 0.205289 0.738464
Si Si4 0.200631 0.337003 0.735912
Si Si5 0.600732 0.736220 0.505269
Si Si6 0.424520 0.716746 0.599847
O O1 0.493912 0.688452 0.991006
O O2 0.597368 0.778021 0.873448
O O3 0.643287 0.643287 0.000000
O O4 0.596027 0.775431 0.126074
O O5 0.880731 0.703886 0.785531
O O6 0.855936 0.864748 0.812579
O O7 0.933899 0.779338 0.994197
O O8 0.267265 0.268229 0.727786
O O9 0.387659 0.210691 0.874681
O O10 0.112806 0.300243 0.705110
O O11 0.202106 0.377360 0.878317
O O12 0.657549 0.657549 0.500000
O O13 0.509813 0.703939 0.526610
#
# Coordination Sequence:
#
# PCOD8305207 Si02
#       6
#     8   8   8   8   8   8
#     4  10  18  32  55  79 103 137 175 216 262 313
#     4  10  19  33  56  81 105 139 182 221 257 312
#     4   9  19  33  51  77 105 137 179 217 251 312
#     4   9  17  33  54  75 100 139 184 211 251 315
#     4  10  20  34  54  79 110 140 170 218 275 316
#     4  10  19  33  56  81 105 139 181 219 261 316
#
# _framework density 17.174001000000001
#
# number of rings (size 3 to 8) (size 9 to 14) (size 15 to 20)
#    0.000    2.333    3.333    0.000    0.000    2.000 
#    0.000    2.500    0.000    6.000    0.000    0.000 
#    0.000    0.000    0.000    0.000    0.000    0.000 
#
# Total GULP energy -595060.121725 kJ/mol
# GULP energy per Si atom -12397.085869 kJ/mol
# Density = 1.713491 g / cm^3
# Si number density = 17.174001 Si / 1000 Ang^3
#
#
#
# Elastic Constant Matrix: (Units=GPa)
#
#
# Indices 1 2 3 4 5 6 
#
# 1 75.7310 56.6162 45.2249 0.0000 0.0000 0.0000
# 2 56.6162 75.7310 45.2249 0.0000 0.0000 0.0000
# 3 45.2249 45.2249 122.6559 0.0000 0.0000 0.0000
# 4 0.0000 0.0000 0.0000 24.6238 0.0000 0.0000
# 5 0.0000 0.0000 0.0000 0.0000 24.6238 0.0000
# 6 0.0000 0.0000 0.0000 0.0000 0.0000 15.6846
#
#
#
# Elastic Compliance Matrix: (Units=1/GPa)
#
#
# Indices 1 2 3 4 5 6 
#
# 1 0.031208 -0.021107 -0.003724 0.000000 0.000000 0.000000
# 2 -0.021107 0.031208 -0.003724 0.000000 0.000000 0.000000
# 3 -0.003724 -0.003724 0.010899 0.000000 0.000000 0.000000
# 4 0.000000 0.000000 0.000000 0.040611 0.000000 0.000000
# 5 0.000000 0.000000 0.000000 0.000000 0.040611 0.000000
# 6 0.000000 0.000000 0.000000 0.000000 0.000000 0.063757
#
#
# Mechanical properties :
#
#
# Convention : Reuss Voigt Hill
#
# Bulk Modulus (GPa) = 61.71281 63.13885 62.42583
# Shear Modulus (GPa) = 17.80572 21.45658 19.63115
#
# Velocity S-wave (km/s) = 3.22341 3.53847 3.38461
# Velocity P-wave (km/s) = 7.06156 7.31699 7.19041
#
# Compressibility (1/GPa) = 0.01620409
#
# Stress axis : x y z
#
# Youngs Moduli (GPa) = 32.04269 32.04269 91.74789
#
# Poissons Ratio (x) = 0.67633 0.34171
# Poissons Ratio (y) = 0.67633 0.34171
# Poissons Ratio (z) = 0.11934 0.11934
#
# Static dielectric constant tensor:
#      x y z
#    x 3.080280 0.000000 0.000000 
#    y 0.000000 3.080280 0.000000 
#    z 0.000000 0.000000 3.363660 
# 
# 
# High freq. dielectric constant tensor:
#      x y z
#    x 1.646620 0.000000 0.000000 
#    y 0.000000 1.646620 0.000000 
#    z 0.000000 0.000000 1.671300 
# 
# From -- ./inp_files/1518.got.cif
#   From: 2010.03.12/outbox.cif.g09.slc.cpg/sg92_1_cif.got.tgz:1518.got - 2010.04.08 20:41:11.
