data_PCOD8305948
_publ_section_title
;
Structure prediction by ZEFSAII (Michael W. Deem and Ramdas Pophale) SiO2 
 PCOD8305948
Probable space group: P 43 21 2
;
_chemical_formula_sum "Si O2"
_cell_formula_units_Z 48
_cell_length_a 19.191274
_cell_length_b 19.191274
_cell_length_c 6.114953
_cell_angle_alpha 90.000000
_cell_angle_beta 90.000000
_cell_angle_gamma 90.000000
_cell_volume 2252.167751
_symmetry_space_group_name_H-M "P 43 21 2"
_symmetry_group_IT_number 96
_symmetry_cell_setting 'tetragonal'
loop_
_space_group_symop_operation_xyz
x,y,z
1/2-y,1/2+x,3/4+z
-x,-y,1/2+z
1/2+y,1/2-x,1/4+z
1/2+x,1/2-y,1/4-z
1/2-x,1/2+y,3/4-z
y,x,-z
-y,-x,1/2-z
loop_
_atom_site_type_symbol
_atom_site_label
_atom_site_fract_x
_atom_site_fract_y
_atom_site_fract_z
Si Si1 0.814200 0.814200 0.000000
Si Si2 0.098062 0.490356 0.210275
Si Si3 0.310100 0.787559 0.879889
Si Si4 0.038114 0.300243 0.798348
Si Si5 0.560093 0.779895 0.570906
Si Si6 0.025548 0.025548 0.500000
Si Si7 0.533485 0.316496 0.808460
O O1 0.740597 0.814085 0.876238
O O2 0.816014 0.885798 0.145119
O O3 0.064890 0.540798 0.032510
O O4 0.129017 0.537624 0.405354
O O5 0.161058 0.446101 0.111781
O O6 0.274658 0.725343 0.750000
O O7 0.390469 0.800498 0.809206
O O8 0.264790 0.857961 0.858458
O O9 0.030328 0.230090 0.658835
O O10 0.971785 0.306229 0.953666
O O11 0.518927 0.710816 0.495194
O O12 0.107081 0.008290 0.493627
O O13 0.999811 0.000189 0.250000
#
# Coordination Sequence:
#
# PCOD8305948 Si02
#       7
#     4   8   8   8   8   4   8
#     4   9  20  42  64  88 122 168 230 268 330 401
#     4  11  25  38  62  93 131 174 227 279 342 419
#     4  11  23  38  62  92 126 168 214 273 331 406
#     4  10  22  42  66  90 127 178 228 279 339 417
#     4  11  23  40  63  93 135 169 224 276 356 412
#     4  11  26  46  74 108 142 176 236 296 364 433
#     4   9  22  43  66  96 126 178 225 288 338 417
#
# _framework density 21.312801
#
# number of rings (size 3 to 8) (size 9 to 14) (size 15 to 20)
#    0.000    1.667    0.000    3.000    7.000    6.000 
#    3.000    0.000    0.000    0.000    0.000    0.000 
#    0.000    0.000    0.000    0.000    0.000    0.000 
#
# Total GULP energy -594824.204056 kJ/mol
# GULP energy per Si atom -12392.170918 kJ/mol
# Density = 2.126429 g / cm^3
# Si number density = 21.312801 Si / 1000 Ang^3
#
#
#
# Elastic Constant Matrix: (Units=GPa)
#
#
# Indices 1 2 3 4 5 6 
#
# 1 118.9837 23.3022 28.6057 0.0000 0.0000 0.0000
# 2 23.3022 118.9863 28.6050 0.0000 0.0000 0.0000
# 3 28.6057 28.6050 71.5927 0.0000 0.0000 0.0000
# 4 0.0000 0.0000 0.0000 32.8147 0.0000 0.0000
# 5 0.0000 0.0000 0.0000 0.0000 32.8146 0.0000
# 6 0.0000 0.0000 0.0000 0.0000 0.0000 31.0024
#
#
#
# Elastic Compliance Matrix: (Units=1/GPa)
#
#
# Indices 1 2 3 4 5 6 
#
# 1 0.009412 -0.001039 -0.003346 0.000000 0.000000 0.000000
# 2 -0.001039 0.009412 -0.003345 0.000000 0.000000 0.000000
# 3 -0.003346 -0.003345 0.016641 0.000000 0.000000 0.000000
# 4 0.000000 0.000000 0.000000 0.030474 0.000000 0.000000
# 5 0.000000 0.000000 0.000000 0.000000 0.030474 0.000000
# 6 0.000000 0.000000 0.000000 0.000000 0.000000 0.032256
#
#
# Mechanical properties :
#
#
# Convention : Reuss Voigt Hill
#
# Bulk Modulus (GPa) = 49.98616 52.28762 51.13689
# Shear Modulus (GPa) = 33.15680 34.59632 33.87656
#
# Velocity S-wave (km/s) = 3.94854 4.03335 3.99117
# Velocity P-wave (km/s) = 6.65526 6.80274 6.72940
#
# Compressibility (1/GPa) = 0.02000554
#
# Stress axis : x y z
#
# Youngs Moduli (GPa) = 106.24341 106.24651 60.09104
#
# Poissons Ratio (x) = 0.11039 0.20105
# Poissons Ratio (y) = 0.11039 0.20103
# Poissons Ratio (z) = 0.35546 0.35545
#
# Static dielectric constant tensor:
#      x y z
#    x 3.926710 0.000000 0.000000 
#    y 0.000000 3.926710 0.000000 
#    z 0.000000 0.000000 4.001030 
# 
# 
# High freq. dielectric constant tensor:
#      x y z
#    x 1.840610 0.000000 0.000000 
#    y 0.000000 1.840610 0.000000 
#    z 0.000000 0.000000 1.825210 
# 
# From -- ./inp_files/649.got.cif
#   From: 2010.03.12/outbox.cif.g09.slc.cpg/sg96_1_cif.got.tgz:649.got - 2010.04.08 20:56:49.
