data_PCOD8305098
_publ_section_title
;
Structure prediction by ZEFSAII (Michael W. Deem and Ramdas Pophale) SiO2 
 PCOD8305098
Probable space group: P 41 2 2
;
_chemical_formula_sum "Si O2"
_cell_formula_units_Z 60
_cell_length_a 18.216409
_cell_length_b 18.216409
_cell_length_c 8.397941
_cell_angle_alpha 90.000000
_cell_angle_beta 90.000000
_cell_angle_gamma 90.000000
_cell_volume 2786.752224
_symmetry_space_group_name_H-M "P 41 2 2"
_symmetry_group_IT_number 91
_symmetry_cell_setting 'tetragonal'
loop_
_space_group_symop_operation_xyz
x,y,z
-y,x,1/4+z
-x,-y,1/2+z
y,-x,3/4+z
x,-y,1/2-z
-x,y,-z
y,x,3/4-z
-y,-x,1/4-z
loop_
_atom_site_type_symbol
_atom_site_label
_atom_site_fract_x
_atom_site_fract_y
_atom_site_fract_z
Si Si1 0.293026 0.776269 0.473919
Si Si2 0.579062 0.874756 0.571327
Si Si3 0.364227 0.020777 0.566835
Si Si4 0.802026 0.024351 0.431656
Si Si5 0.314253 0.632428 0.283940
Si Si6 0.500000 0.407194 0.500000
Si Si7 0.576716 0.165021 0.558732
Si Si8 0.126649 0.162047 0.692666
O O1 0.249394 0.750607 0.625000
O O2 0.363093 0.824629 0.524843
O O3 0.325273 0.704821 0.388357
O O4 0.236046 0.831195 0.381444
O O5 0.500000 0.858153 0.500000
O O6 0.582274 0.853093 0.755580
O O7 0.601830 0.958995 0.547700
O O8 0.281298 0.039910 0.516013
O O9 0.411513 0.092995 0.545394
O O10 0.371618 0.000000 0.750000
O O11 0.851360 0.098212 0.433443
O O12 0.802385 0.000000 0.250000
O O13 0.831508 0.962315 0.554350
O O14 0.352769 0.557274 0.348373
O O15 0.227840 0.633090 0.242705
O O16 0.359785 0.640216 0.125000
O O17 0.539901 0.460100 0.625000
O O18 0.500000 0.197489 0.500000
O O19 0.148163 0.148163 0.875000
#
# Coordination Sequence:
#
# PCOD8305098 Si02
#       8
#     8   8   8   8   8   4   8   8
#     4  11  24  40  67  99 137 169 231 280 337 416
#     4  12  26  44  64 100 138 175 226 288 341 412
#     4  11  23  41  66  98 133 177 224 279 348 412
#     4   9  17  31  59  94 126 164 214 269 324 389
#     4  11  23  44  67  98 132 181 220 279 345 414
#     4  10  24  46  70  94 132 170 226 276 344 416
#     4  12  25  43  68  94 134 177 222 277 345 415
#     4   9  17  33  57  97 123 167 215 268 323 389
#
# _framework density 21.530441
#
# number of rings (size 3 to 8) (size 9 to 14) (size 15 to 20)
#    0.000    1.333    3.333    2.400    5.600    0.533 
#    1.200    0.000    0.000    0.000   34.667    0.000 
#    0.000    0.000    0.000    0.000    0.000    0.000 
#
# Total GULP energy -743571.859545 kJ/mol
# GULP energy per Si atom -12392.864326 kJ/mol
# Density = 2.148144 g / cm^3
# Si number density = 21.530441 Si / 1000 Ang^3
#
#
#
# Elastic Constant Matrix: (Units=GPa)
#
#
# Indices 1 2 3 4 5 6 
#
# 1 140.4152 62.6880 18.7726 0.0000 0.0000 0.0000
# 2 62.6880 140.4162 18.7741 0.0000 0.0000 0.0000
# 3 18.7726 18.7741 41.1998 0.0000 0.0000 0.0000
# 4 0.0000 0.0000 0.0000 22.6351 0.0000 0.0000
# 5 0.0000 0.0000 0.0000 0.0000 22.6347 0.0000
# 6 0.0000 0.0000 0.0000 0.0000 0.0000 45.4914
#
#
#
# Elastic Compliance Matrix: (Units=1/GPa)
#
#
# Indices 1 2 3 4 5 6 
#
# 1 0.009121 -0.003744 -0.002450 0.000000 0.000000 0.000000
# 2 -0.003744 0.009121 -0.002450 0.000000 0.000000 0.000000
# 3 -0.002450 -0.002450 0.026505 0.000000 0.000000 0.000000
# 4 0.000000 0.000000 0.000000 0.044179 0.000000 0.000000
# 5 0.000000 0.000000 0.000000 0.000000 0.044180 0.000000
# 6 0.000000 0.000000 0.000000 0.000000 0.000000 0.021982
#
#
# Mechanical properties :
#
#
# Convention : Reuss Voigt Hill
#
# Bulk Modulus (GPa) = 36.41918 58.05563 47.23741
# Shear Modulus (GPa) = 27.54382 32.93869 30.24125
#
# Velocity S-wave (km/s) = 3.58061 3.91559 3.75184
# Velocity P-wave (km/s) = 5.83492 6.88952 6.38403
#
# Compressibility (1/GPa) = 0.02745806
#
# Stress axis : x y z
#
# Youngs Moduli (GPa) = 109.63774 109.63750 37.72925
#
# Poissons Ratio (x) = 0.41053 0.09242
# Poissons Ratio (y) = 0.41053 0.09244
# Poissons Ratio (z) = 0.26857 0.26863
#
# Static dielectric constant tensor:
#      x y z
#    x 4.151520 0.000000 0.000000 
#    y 0.000000 4.151520 0.000000 
#    z 0.000000 0.000000 3.889000 
# 
# 
# High freq. dielectric constant tensor:
#      x y z
#    x 1.861410 0.000000 0.000000 
#    y 0.000000 1.861410 0.000000 
#    z 0.000000 0.000000 1.810490 
# 
# From -- ./inp_files/15307.got.cif
#   From: 2010.03.12/outbox.cif.g09.slc.cpg/sg91_8_cif.got.tgz:15307.got - 2010.04.08 20:27:58.
