data_PCOD8305144
_publ_section_title
;
Structure prediction by ZEFSAII (Michael W. Deem and Ramdas Pophale) SiO2 
 PCOD8305144
Probable space group: P 41 2 2
;
_chemical_formula_sum "Si O2"
_cell_formula_units_Z 56
_cell_length_a 14.386760
_cell_length_b 14.386760
_cell_length_c 12.508405
_cell_angle_alpha 90.000000
_cell_angle_beta 90.000000
_cell_angle_gamma 90.000000
_cell_volume 2588.975449
_symmetry_space_group_name_H-M "P 41 2 2"
_symmetry_group_IT_number 91
_symmetry_cell_setting 'tetragonal'
loop_
_space_group_symop_operation_xyz
x,y,z
-y,x,1/4+z
-x,-y,1/2+z
y,-x,3/4+z
x,-y,1/2-z
-x,y,-z
y,x,3/4-z
-y,-x,1/4-z
loop_
_atom_site_type_symbol
_atom_site_label
_atom_site_fract_x
_atom_site_fract_y
_atom_site_fract_z
Si Si1 0.398407 0.907816 0.308633
Si Si2 0.107081 0.879161 0.504376
Si Si3 0.290909 0.959804 0.508691
Si Si4 0.480221 0.667978 0.620759
Si Si5 0.144551 0.601764 0.566053
Si Si6 0.656504 0.712045 0.757467
Si Si7 0.853355 0.297530 0.857660
O O1 0.348585 0.902864 0.422092
O O2 0.506699 0.910047 0.337809
O O3 0.370653 0.820514 0.234521
O O4 0.365069 0.000000 0.250000
O O5 0.140953 0.859048 0.625000
O O6 0.182139 0.957918 0.472758
O O7 0.121478 0.794822 0.423541
O O8 0.000000 0.914429 0.500000
O O9 0.314743 0.906077 0.620001
O O10 0.315420 0.068766 0.517092
O O11 0.500000 0.696288 0.500000
O O12 0.432640 0.567361 0.625000
O O13 0.408122 0.746103 0.659895
O O14 0.574554 0.661257 0.691090
O O15 0.139358 0.618087 0.439625
O O16 0.753002 0.703614 0.695257
O O17 0.666507 0.666507 0.875000
#
# Coordination Sequence:
#
# PCOD8305144 Si02
#       7
#     8   8   8   8   8   8   8
#     4  11  23  42  65  98 138 182 234 287 359 437
#     4  12  23  40  64  98 139 180 237 294 349 414
#     4  12  23  40  68  97 138 179 226 300 349 420
#     4  11  25  44  70 101 133 178 234 290 351 432
#     4  11  23  39  69 104 131 168 229 299 363 425
#     4  11  25  46  67  98 142 188 231 287 357 431
#     4  12  23  42  69  99 134 185 232 287 367 413
#
# _framework density 21.630178999999998
#
# number of rings (size 3 to 8) (size 9 to 14) (size 15 to 20)
#    0.000    0.571    4.286    5.143    2.000    0.571 
#    0.000   12.143    0.000    0.000    0.000    0.000 
#    0.000    0.000    0.000    0.000    0.000    0.000 
#
# Total GULP energy -694180.461366 kJ/mol
# GULP energy per Si atom -12396.079667 kJ/mol
# Density = 2.158095 g / cm^3
# Si number density = 21.630179 Si / 1000 Ang^3
#
#
#
# Elastic Constant Matrix: (Units=GPa)
#
#
# Indices 1 2 3 4 5 6 
#
# 1 140.9915 57.7963 40.8093 0.0000 0.0000 0.0000
# 2 57.7963 140.9925 40.8091 0.0000 0.0000 0.0000
# 3 40.8093 40.8091 101.7212 0.0000 0.0000 0.0000
# 4 0.0000 0.0000 0.0000 35.0419 0.0000 0.0000
# 5 0.0000 0.0000 0.0000 0.0000 35.0414 0.0000
# 6 0.0000 0.0000 0.0000 0.0000 0.0000 28.2132
#
#
#
# Elastic Compliance Matrix: (Units=1/GPa)
#
#
# Indices 1 2 3 4 5 6 
#
# 1 0.009021 -0.002999 -0.002416 0.000000 0.000000 0.000000
# 2 -0.002999 0.009021 -0.002416 0.000000 0.000000 0.000000
# 3 -0.002416 -0.002416 0.011769 0.000000 0.000000 0.000000
# 4 0.000000 0.000000 0.000000 0.028537 0.000000 0.000000
# 5 0.000000 0.000000 0.000000 0.000000 0.028538 0.000000
# 6 0.000000 0.000000 0.000000 0.000000 0.000000 0.035444
#
#
# Mechanical properties :
#
#
# Convention : Reuss Voigt Hill
#
# Bulk Modulus (GPa) = 70.67210 73.61496 72.14353
# Shear Modulus (GPa) = 35.03614 35.94531 35.49073
#
# Velocity S-wave (km/s) = 4.02902 4.08096 4.05507
# Velocity P-wave (km/s) = 7.37481 7.50419 7.43978
#
# Compressibility (1/GPa) = 0.01414985
#
# Stress axis : x y z
#
# Youngs Moduli (GPa) = 110.84980 110.85076 84.96574
#
# Poissons Ratio (x) = 0.33241 0.20529
# Poissons Ratio (y) = 0.33240 0.20529
# Poissons Ratio (z) = 0.26783 0.26783
#
# Static dielectric constant tensor:
#      x y z
#    x 3.958210 0.000000 0.000000 
#    y 0.000000 3.958210 0.000000 
#    z 0.000000 0.000000 3.914690 
# 
# 
# High freq. dielectric constant tensor:
#      x y z
#    x 1.852220 0.000000 0.000000 
#    y 0.000000 1.852220 0.000000 
#    z 0.000000 0.000000 1.847230 
# 
# From -- ./inp_files/15980.got.cif
#   From: 2010.03.12/outbox.cif.g09.slc.cpg/sg91_8_cif.got.tgz:15980.got - 2010.04.08 20:27:58.
