data_PCOD8305679
_publ_section_title
;
Structure prediction by ZEFSAII (Michael W. Deem and Ramdas Pophale) SiO2 
 PCOD8305679
Probable space group: P 42 21 2
;
_chemical_formula_sum "Si O2"
_cell_formula_units_Z 40
_cell_length_a 8.524753
_cell_length_b 8.524753
_cell_length_c 26.466759
_cell_angle_alpha 90.000000
_cell_angle_beta 90.000000
_cell_angle_gamma 90.000000
_cell_volume 1923.376793
_symmetry_space_group_name_H-M "P 42 21 2"
_symmetry_group_IT_number 94
_symmetry_cell_setting 'tetragonal'
loop_
_space_group_symop_operation_xyz
x,y,z
1/2-y,1/2+x,1/2+z
-x,-y,z
1/2+y,1/2-x,1/2+z
1/2+x,1/2-y,1/2-z
1/2-x,1/2+y,1/2-z
y,x,-z
-y,-x,-z
loop_
_atom_site_type_symbol
_atom_site_label
_atom_site_fract_x
_atom_site_fract_y
_atom_site_fract_z
Si Si1 0.839676 0.071885 0.804227
Si Si2 0.000000 0.000000 0.500000
Si Si3 0.250708 0.485935 0.085132
Si Si4 0.936114 0.671092 0.280016
Si Si5 0.500000 0.500000 0.168844
Si Si6 0.498744 0.748872 0.413951
Si Si7 0.000000 0.000000 0.000000
O O1 0.827160 0.252975 0.789764
O O2 0.846755 0.048382 0.864282
O O3 0.690800 0.979201 0.779606
O O4 0.000000 0.000000 0.781164
O O5 0.003496 0.847411 0.534104
O O6 0.347710 0.525814 0.134870
O O7 0.115367 0.609742 0.078722
O O8 0.178510 0.312391 0.091720
O O9 0.000000 0.500000 0.299481
O O10 0.017606 0.831037 0.302464
O O11 0.505386 0.649964 0.464590
#
# Coordination Sequence:
#
# PCOD8305679 Si02
#       7
#     8   2   8   8   4   8   2
#     4  12  26  47  69 102 145 189 240 291 363 436
#     4  10  20  44  68  94 124 176 232 286 348 418
#     4  10  23  42  69  93 135 180 229 286 353 421
#     4  12  28  44  73 105 145 189 240 298 360 439
#     4  11  24  46  68 102 144 186 242 289 352 440
#     4  11  24  41  68  99 137 183 231 291 358 418
#     4  12  24  42  68 102 140 174 244 300 350 424
#
# _framework density 20.796759000000002
#
# number of rings (size 3 to 8) (size 9 to 14) (size 15 to 20)
#    0.000    0.800    4.000    2.400    8.400    0.000 
#    0.000    0.000    0.000    0.000    0.000    0.000 
#    0.000    0.000    0.000    0.000    0.000    0.000 
#
# Total GULP energy -495782.808900 kJ/mol
# GULP energy per Si atom -12394.570222 kJ/mol
# Density = 2.074942 g / cm^3
# Si number density = 20.796759 Si / 1000 Ang^3
#
#
#
# Elastic Constant Matrix: (Units=GPa)
#
#
# Indices 1 2 3 4 5 6 
#
# 1 188.5187 -17.5098 47.3031 0.0000 0.0000 0.0000
# 2 -17.5098 188.5187 47.3031 0.0000 0.0000 0.0000
# 3 47.3031 47.3031 112.9036 0.0000 0.0000 0.0000
# 4 0.0000 0.0000 0.0000 -42.6384 0.0000 0.0000
# 5 0.0000 0.0000 0.0000 0.0000 -42.6384 0.0000
# 6 0.0000 0.0000 0.0000 0.0000 0.0000 30.0974
#
#
#
# Elastic Compliance Matrix: (Units=1/GPa)
#
#
# Indices 1 2 3 4 5 6 
#
# 1 0.006233 0.001379 -0.003189 0.000000 0.000000 0.000000
# 2 0.001379 0.006233 -0.003189 0.000000 0.000000 0.000000
# 3 -0.003189 -0.003189 0.011529 0.000000 0.000000 0.000000
# 4 0.000000 0.000000 0.000000 -0.023453 0.000000 0.000000
# 5 0.000000 0.000000 0.000000 0.000000 -0.023453 0.000000
# 6 0.000000 0.000000 0.000000 0.000000 0.000000 0.033225
#
#
# Mechanical properties :
#
#
# Convention : Reuss Voigt Hill
#
# Bulk Modulus (GPa) = 71.44551 71.57041 71.50796
# Shear Modulus (GPa) = 200.17195 16.48709 108.32952
#
# Velocity S-wave (km/s) = 9.82143 2.81868 7.22514
# Velocity P-wave (km/s) = 12.76882 6.71433 10.20110
#
# Compressibility (1/GPa) = 0.01399668
#
# Stress axis : x y z
#
# Youngs Moduli (GPa) = 160.44060 160.44060 86.73445
#
# Poissons Ratio (x) = -0.22127 0.27661
# Poissons Ratio (y) = -0.22127 0.27661
# Poissons Ratio (z) = 0.51167 0.51167
#
# Static dielectric constant tensor:
#      x y z
#    x 4.022990 0.000000 0.000000 
#    y 0.000000 4.022990 0.000000 
#    z 0.000000 0.000000 3.733240 
# 
# 
# High freq. dielectric constant tensor:
#      x y z
#    x 1.823980 0.000000 0.000000 
#    y 0.000000 1.823980 0.000000 
#    z 0.000000 0.000000 1.821120 
# 
# From -- ./inp_files/5342.got.cif
#   From: 2010.03.12/outbox.cif.g09.slc.cpg/sg94_3_cif.got.tgz:5342.got - 2010.04.08 20:48:32.
