data_PCOD8305919
_publ_section_title
;
Structure prediction by ZEFSAII (Michael W. Deem and Ramdas Pophale) SiO2 
 PCOD8305919
Probable space group: P 43 21 2
;
_chemical_formula_sum "Si O2"
_cell_formula_units_Z 52
_cell_length_a 19.614167
_cell_length_b 19.614167
_cell_length_c 6.563892
_cell_angle_alpha 90.000000
_cell_angle_beta 90.000000
_cell_angle_gamma 90.000000
_cell_volume 2525.231302
_symmetry_space_group_name_H-M "P 43 21 2"
_symmetry_group_IT_number 96
_symmetry_cell_setting 'tetragonal'
loop_
_space_group_symop_operation_xyz
x,y,z
1/2-y,1/2+x,3/4+z
-x,-y,1/2+z
1/2+y,1/2-x,1/4+z
1/2+x,1/2-y,1/4-z
1/2-x,1/2+y,3/4-z
y,x,-z
-y,-x,1/2-z
loop_
_atom_site_type_symbol
_atom_site_label
_atom_site_fract_x
_atom_site_fract_y
_atom_site_fract_z
Si Si1 0.726255 0.534204 0.943818
Si Si2 0.782430 0.460056 0.564019
Si Si3 0.680052 0.680052 0.000000
Si Si4 0.662325 0.067320 0.489761
Si Si5 0.906409 0.802283 0.454606
Si Si6 0.709080 0.789414 0.663444
Si Si7 0.422958 0.049201 0.527889
O O1 0.682551 0.603089 0.909965
O O2 0.796037 0.556787 0.050128
O O3 0.689782 0.479209 0.094227
O O4 0.734888 0.499982 0.723430
O O5 0.823447 0.509850 0.419802
O O6 0.736880 0.410531 0.423349
O O7 0.845128 0.423884 0.680647
O O8 0.742718 0.693173 0.146498
O O9 0.675674 0.136902 0.364150
O O10 0.584921 0.059078 0.562857
O O11 0.877982 0.877982 0.500000
O O12 0.851501 0.763111 0.309326
O O13 0.736061 0.736061 0.500000
O O14 0.469038 0.070287 0.722528
#
# Coordination Sequence:
#
# PCOD8305919 Si02
#       7
#     8   8   4   8   8   8   8
#     4  10  21  43  64  92 126 165 209 270 335 385
#     4  11  23  39  61  84 124 171 206 262 325 371
#     4  10  22  40  70 100 128 166 222 274 326 396
#     4  10  22  37  55  84 124 158 212 265 305 372
#     4  10  24  40  63  94 128 167 216 272 323 394
#     4  10  21  36  61  92 123 163 215 266 318 377
#     4  12  24  37  56  89 126 177 221 256 309 387
#
# _framework density 20.592172999999999
#
# number of rings (size 3 to 8) (size 9 to 14) (size 15 to 20)
#    0.000    1.538    1.538    2.769    4.308    8.000 
#    0.000    0.000    3.385    0.000    0.000    0.000 
#    0.000    0.000    0.000    0.000    0.000    0.000 
#
# Total GULP energy -644366.707344 kJ/mol
# GULP energy per Si atom -12391.667449 kJ/mol
# Density = 2.054530 g / cm^3
# Si number density = 20.592173 Si / 1000 Ang^3
#
#
#
# Elastic Constant Matrix: (Units=GPa)
#
#
# Indices 1 2 3 4 5 6 
#
# 1 89.4801 23.0675 20.2409 0.0000 0.0000 0.0000
# 2 23.0675 89.4801 20.2409 0.0000 0.0000 0.0000
# 3 20.2409 20.2409 67.5332 0.0000 0.0000 0.0000
# 4 0.0000 0.0000 0.0000 30.2058 0.0000 0.0000
# 5 0.0000 0.0000 0.0000 0.0000 30.2058 0.0000
# 6 0.0000 0.0000 0.0000 0.0000 0.0000 31.3674
#
#
#
# Elastic Compliance Matrix: (Units=1/GPa)
#
#
# Indices 1 2 3 4 5 6 
#
# 1 0.012508 -0.002549 -0.002985 0.000000 0.000000 0.000000
# 2 -0.002549 0.012508 -0.002985 0.000000 0.000000 0.000000
# 3 -0.002985 -0.002985 0.016597 0.000000 0.000000 0.000000
# 4 0.000000 0.000000 0.000000 0.033106 0.000000 0.000000
# 5 0.000000 0.000000 0.000000 0.000000 0.033106 0.000000
# 6 0.000000 0.000000 0.000000 0.000000 0.000000 0.031880
#
#
# Mechanical properties :
#
#
# Convention : Reuss Voigt Hill
#
# Bulk Modulus (GPa) = 40.69186 41.51023 41.10105
# Shear Modulus (GPa) = 30.31494 30.55205 30.43349
#
# Velocity S-wave (km/s) = 3.84103 3.85603 3.84854
# Velocity P-wave (km/s) = 6.28292 6.32671 6.30486
#
# Compressibility (1/GPa) = 0.02457494
#
# Stress axis : x y z
#
# Youngs Moduli (GPa) = 79.94846 79.94846 60.25283
#
# Poissons Ratio (x) = 0.20381 0.17984
# Poissons Ratio (y) = 0.20381 0.17984
# Poissons Ratio (z) = 0.23863 0.23863
#
# Static dielectric constant tensor:
#      x y z
#    x 3.804050 0.000000 0.000000 
#    y 0.000000 3.804050 0.000000 
#    z 0.000000 0.000000 3.785580 
# 
# 
# High freq. dielectric constant tensor:
#      x y z
#    x 1.799520 0.000000 0.000000 
#    y 0.000000 1.799520 0.000000 
#    z 0.000000 0.000000 1.803600 
# 
# From -- ./inp_files/714.got.cif
#   From: 2010.03.12/outbox.cif.g09.slc.cpg/sg96_1_cif.got.tgz:714.got - 2010.04.08 20:56:49.
