data_PCOD8305814
_publ_section_title
;
Structure prediction by ZEFSAII (Michael W. Deem and Ramdas Pophale) SiO2 
 PCOD8305814
Probable space group: P 43 2 2
;
_chemical_formula_sum "Si O2"
_cell_formula_units_Z 40
_cell_length_a 15.694221
_cell_length_b 15.694221
_cell_length_c 8.313041
_cell_angle_alpha 90.000000
_cell_angle_beta 90.000000
_cell_angle_gamma 90.000000
_cell_volume 2047.573264
_symmetry_space_group_name_H-M "P 43 2 2"
_symmetry_group_IT_number 95
_symmetry_cell_setting 'tetragonal'
loop_
_space_group_symop_operation_xyz
x,y,z
-y,x,3/4+z
-x,-y,1/2+z
y,-x,1/4+z
x,-y,1/2-z
-x,y,-z
y,x,1/4-z
-y,-x,3/4-z
loop_
_atom_site_type_symbol
_atom_site_label
_atom_site_fract_x
_atom_site_fract_y
_atom_site_fract_z
Si Si1 0.392485 0.259304 0.833783
Si Si2 0.500000 0.116873 0.000000
Si Si3 0.767518 0.767518 0.125000
Si Si4 0.000000 0.897137 0.500000
Si Si5 0.576797 0.423204 0.375000
Si Si6 0.719968 0.280033 0.875000
Si Si7 0.118589 0.746335 0.590703
Si Si8 0.603775 0.000000 0.750000
O O1 0.315078 0.223247 0.733294
O O2 0.433692 0.335303 0.727204
O O3 0.451996 0.178849 0.873730
O O4 0.358431 0.294097 0.003973
O O5 0.448064 0.055471 0.120067
O O6 0.850119 0.766201 0.232439
O O7 0.922766 0.835659 0.453984
O O8 0.036751 0.963250 0.375000
O O9 0.572582 0.500000 0.250000
O O10 0.715768 0.190037 0.785113
O O11 0.056663 0.666142 0.608998
#
# Coordination Sequence:
#
# PCOD8305814 Si02
#       8
#     8   4   4   4   4   4   8   4
#     4  10  24  42  66  98 127 181 220 272 342 407
#     4  12  26  42  68  96 138 178 218 286 342 398
#     4   9  22  40  67  89 122 174 223 266 318 416
#     4  11  24  38  58  91 126 162 210 273 336 386
#     4  11  28  45  70 106 141 174 227 290 342 418
#     4  10  18  43  67  87 125 180 228 264 332 408
#     4  10  21  42  62  90 126 172 218 268 323 402
#     4  11  26  42  62  97 134 174 222 277 328 394
#
# _framework density 19.535321
#
# number of rings (size 3 to 8) (size 9 to 14) (size 15 to 20)
#    0.000    1.600    3.000    0.000    8.400    1.600 
#    0.000    2.000    0.000    0.000    0.000    0.000 
#    0.000    0.000    0.000    0.000    0.000    0.000 
#
# Total GULP energy -495567.780103 kJ/mol
# GULP energy per Si atom -12389.194503 kJ/mol
# Density = 1.949086 g / cm^3
# Si number density = 19.535321 Si / 1000 Ang^3
#
#
#
# Elastic Constant Matrix: (Units=GPa)
#
#
# Indices 1 2 3 4 5 6 
#
# 1 106.9387 57.7149 65.1600 0.0000 0.0000 0.0000
# 2 57.7149 106.9403 65.1611 0.0000 0.0000 0.0000
# 3 65.1600 65.1611 142.7791 0.0000 0.0000 0.0000
# 4 0.0000 0.0000 0.0000 25.7896 0.0000 0.0000
# 5 0.0000 0.0000 0.0000 0.0000 25.7895 0.0000
# 6 0.0000 0.0000 0.0000 0.0000 0.0000 15.2276
#
#
#
# Elastic Compliance Matrix: (Units=1/GPa)
#
#
# Indices 1 2 3 4 5 6 
#
# 1 0.014911 -0.005404 -0.004339 0.000000 0.000000 0.000000
# 2 -0.005404 0.014911 -0.004339 0.000000 0.000000 0.000000
# 3 -0.004339 -0.004339 0.010964 0.000000 0.000000 0.000000
# 4 0.000000 0.000000 0.000000 0.038775 0.000000 0.000000
# 5 0.000000 0.000000 0.000000 0.000000 0.038775 0.000000
# 6 0.000000 0.000000 0.000000 0.000000 0.000000 0.065670
#
#
# Mechanical properties :
#
#
# Convention : Reuss Voigt Hill
#
# Bulk Modulus (GPa) = 79.21814 81.41445 80.31629
# Shear Modulus (GPa) = 23.10757 24.60281 23.85519
#
# Velocity S-wave (km/s) = 3.44301 3.55265 3.49826
# Velocity P-wave (km/s) = 7.51299 7.65470 7.58418
#
# Compressibility (1/GPa) = 0.01262337
#
# Stress axis : x y z
#
# Youngs Moduli (GPa) = 67.06293 67.06348 91.20566
#
# Poissons Ratio (x) = 0.36239 0.39574
# Poissons Ratio (y) = 0.36239 0.39575
# Poissons Ratio (z) = 0.29098 0.29099
#
# Static dielectric constant tensor:
#      x y z
#    x 3.576680 0.000000 0.000000 
#    y 0.000000 3.576750 0.000000 
#    z 0.000000 0.000000 4.434500 
# 
# 
# High freq. dielectric constant tensor:
#      x y z
#    x 1.769290 0.000000 0.000000 
#    y 0.000000 1.769290 0.000000 
#    z 0.000000 0.000000 1.772390 
# 
# From -- ./inp_files/2510.got.cif
#   From: 2010.03.12/outbox.cif.g09.slc.cpg/sg95_2_cif.got.tgz:2510.got - 2010.04.08 20:51:55.
