data_PCOD8305382
_publ_section_title
;
Structure prediction by ZEFSAII (Michael W. Deem and Ramdas Pophale) SiO2 
 PCOD8305382
Probable space group: P 41 21 2
;
_chemical_formula_sum "Si O2"
_cell_formula_units_Z 36
_cell_length_a 8.579713
_cell_length_b 8.579713
_cell_length_c 23.954516
_cell_angle_alpha 90.000000
_cell_angle_beta 90.000000
_cell_angle_gamma 90.000000
_cell_volume 1763.327260
_symmetry_space_group_name_H-M "P 41 21 2"
_symmetry_group_IT_number 92
_symmetry_cell_setting 'tetragonal'
loop_
_space_group_symop_operation_xyz
x,y,z
1/2-y,1/2+x,1/4+z
-x,-y,1/2+z
1/2+y,1/2-x,3/4+z
1/2+x,1/2-y,3/4-z
1/2-x,1/2+y,1/4-z
y,x,-z
-y,-x,1/2-z
loop_
_atom_site_type_symbol
_atom_site_label
_atom_site_fract_x
_atom_site_fract_y
_atom_site_fract_z
Si Si1 0.783596 0.110981 0.359737
Si Si2 0.117853 0.691757 0.963439
Si Si3 0.928793 0.492869 0.644328
Si Si4 0.789561 0.789561 0.000000
Si Si5 0.715196 0.290303 0.570604
O O1 0.866860 0.192965 0.411009
O O2 0.788234 0.222635 0.306085
O O3 0.605727 0.068063 0.378890
O O4 0.867611 0.947746 0.341696
O O5 0.101788 0.511244 0.944569
O O6 0.267799 0.693586 0.003843
O O7 0.972673 0.753272 0.999561
O O8 0.862654 0.372766 0.599462
O O9 0.788529 0.604201 0.666242
#
# Coordination Sequence:
#
# PCOD8305382 Si02
#       5
#     8   8   8   4   8
#     4   9  23  40  65  96 127 167 221 260 326 386
#     4  11  22  39  69  90 134 169 216 269 324 388
#     4   9  23  42  61  95 129 166 213 264 321 389
#     4  10  22  42  66  94 128 176 218 266 318 388
#     4  10  23  43  64  94 131 166 218 269 323 385
#
# _framework density 20.415949999999999
#
# number of rings (size 3 to 8) (size 9 to 14) (size 15 to 20)
#    1.333    0.889    0.000    1.333    6.222    3.556 
#    4.000    2.222    0.000    0.000    0.000    0.000 
#    0.000    0.000    0.000    0.000    0.000    0.000 
#
# Total GULP energy -445975.010879 kJ/mol
# GULP energy per Si atom -12388.194747 kJ/mol
# Density = 2.036948 g / cm^3
# Si number density = 20.415950 Si / 1000 Ang^3
#
#
#
# Elastic Constant Matrix: (Units=GPa)
#
#
# Indices 1 2 3 4 5 6 
#
# 1 83.1033 51.0386 68.6887 0.0000 0.0000 0.0000
# 2 51.0386 83.1033 68.6887 0.0000 0.0000 0.0000
# 3 68.6887 68.6887 144.3178 0.0000 0.0000 0.0000
# 4 0.0000 0.0000 0.0000 37.5180 0.0000 0.0000
# 5 0.0000 0.0000 0.0000 0.0000 37.5180 0.0000
# 6 0.0000 0.0000 0.0000 0.0000 0.0000 32.1330
#
#
#
# Elastic Compliance Matrix: (Units=1/GPa)
#
#
# Indices 1 2 3 4 5 6 
#
# 1 0.022865 -0.008321 -0.006922 0.000000 0.000000 0.000000
# 2 -0.008321 0.022865 -0.006922 0.000000 0.000000 0.000000
# 3 -0.006922 -0.006922 0.013519 0.000000 0.000000 0.000000
# 4 0.000000 0.000000 0.000000 0.026654 0.000000 0.000000
# 5 0.000000 0.000000 0.000000 0.000000 0.026654 0.000000
# 6 0.000000 0.000000 0.000000 0.000000 0.000000 0.031121
#
#
# Mechanical properties :
#
#
# Convention : Reuss Voigt Hill
#
# Bulk Modulus (GPa) = 67.03563 76.37294 71.70429
# Shear Modulus (GPa) = 25.90909 29.57437 27.74173
#
# Velocity S-wave (km/s) = 3.56625 3.81017 3.69023
# Velocity P-wave (km/s) = 7.06143 7.53964 7.30445
#
# Compressibility (1/GPa) = 0.01491744
#
# Stress axis : x y z
#
# Youngs Moduli (GPa) = 43.73403 43.73403 73.97247
#
# Poissons Ratio (x) = 0.36393 0.51206
# Poissons Ratio (y) = 0.36393 0.51206
# Poissons Ratio (z) = 0.30274 0.30274
#
# Static dielectric constant tensor:
#      x y z
#    x 3.549490 0.000000 0.000000 
#    y 0.000000 3.549490 0.000000 
#    z 0.000000 0.000000 3.483270 
# 
# 
# High freq. dielectric constant tensor:
#      x y z
#    x 1.790220 0.000000 0.000000 
#    y 0.000000 1.790220 0.000000 
#    z 0.000000 0.000000 1.792770 
# 
# From -- ./inp_files/3451.got.cif
#   From: 2010.03.12/outbox.cif.g09.slc.cpg/sg92_2_cif.got.tgz:3451.got - 2010.04.08 20:41:11.
