data_PCOD8305356
_publ_section_title
;
Structure prediction by ZEFSAII (Michael W. Deem and Ramdas Pophale) SiO2 
 PCOD8305356
Probable space group: P 41 21 2
;
_chemical_formula_sum "Si O2"
_cell_formula_units_Z 48
_cell_length_a 11.476055
_cell_length_b 11.476055
_cell_length_c 17.119071
_cell_angle_alpha 90.000000
_cell_angle_beta 90.000000
_cell_angle_gamma 90.000000
_cell_volume 2254.578884
_symmetry_space_group_name_H-M "P 41 21 2"
_symmetry_group_IT_number 92
_symmetry_cell_setting 'tetragonal'
loop_
_space_group_symop_operation_xyz
x,y,z
1/2-y,1/2+x,1/4+z
-x,-y,1/2+z
1/2+y,1/2-x,3/4+z
1/2+x,1/2-y,3/4-z
1/2-x,1/2+y,1/4-z
y,x,-z
-y,-x,1/2-z
loop_
_atom_site_type_symbol
_atom_site_label
_atom_site_fract_x
_atom_site_fract_y
_atom_site_fract_z
Si Si1 0.775371 0.273803 0.468580
Si Si2 0.752153 0.525128 0.433418
Si Si3 0.014432 0.208238 0.509273
Si Si4 0.712533 0.416790 0.907130
Si Si5 0.490871 0.490871 0.000000
Si Si6 0.340185 0.209053 0.564190
Si Si7 0.722409 0.277592 0.750000
O O1 0.809497 0.411467 0.474930
O O2 0.889190 0.190716 0.468400
O O3 0.687228 0.239286 0.538461
O O4 0.716343 0.250677 0.385594
O O5 0.765849 0.521586 0.341346
O O6 0.614505 0.513148 0.440645
O O7 0.799521 0.644332 0.472189
O O8 0.083535 0.314399 0.471306
O O9 0.088436 0.088436 0.500000
O O10 0.800302 0.526382 0.906440
O O11 0.693582 0.366574 0.820193
O O12 0.600009 0.480377 0.942649
O O13 0.310621 0.310621 0.500000
#
# Coordination Sequence:
#
# PCOD8305356 Si02
#       7
#     8   8   8   8   4   8   4
#     4  11  24  44  70  99 139 185 237 299 361 427
#     4  10  21  45  67  98 135 183 229 293 359 430
#     4  11  23  42  71  97 132 184 233 285 363 431
#     4  11  24  45  68 103 144 182 239 301 352 427
#     4   9  22  38  70  94 135 178 228 289 346 414
#     4  11  24  41  68 102 137 178 239 294 354 427
#     4  11  24  48  68 104 143 190 238 289 380 438
#
# _framework density 21.290008
#
# number of rings (size 3 to 8) (size 9 to 14) (size 15 to 20)
#    0.000    1.333    5.833    0.000    4.667    1.333 
#    9.000    0.000    0.000    0.000    0.000    0.000 
#    0.000    0.000    0.000    0.000    0.000    0.000 
#
# Total GULP energy -594792.863406 kJ/mol
# GULP energy per Si atom -12391.517988 kJ/mol
# Density = 2.124155 g / cm^3
# Si number density = 21.290008 Si / 1000 Ang^3
#
#
#
# Elastic Constant Matrix: (Units=GPa)
#
#
# Indices 1 2 3 4 5 6 
#
# 1 120.4147 43.3494 46.4976 0.0000 0.0000 0.0000
# 2 43.3494 120.4140 46.4975 0.0000 0.0000 0.0000
# 3 46.4976 46.4975 149.5948 0.0000 0.0000 0.0000
# 4 0.0000 0.0000 0.0000 34.0639 0.0000 0.0000
# 5 0.0000 0.0000 0.0000 0.0000 34.0638 0.0000
# 6 0.0000 0.0000 0.0000 0.0000 0.0000 28.5628
#
#
#
# Elastic Compliance Matrix: (Units=1/GPa)
#
#
# Indices 1 2 3 4 5 6 
#
# 1 0.010196 -0.002780 -0.002305 0.000000 0.000000 0.000000
# 2 -0.002780 0.010196 -0.002305 0.000000 0.000000 0.000000
# 3 -0.002305 -0.002305 0.008118 0.000000 0.000000 0.000000
# 4 0.000000 0.000000 0.000000 0.029357 0.000000 0.000000
# 5 0.000000 0.000000 0.000000 0.000000 0.029357 0.000000
# 6 0.000000 0.000000 0.000000 0.000000 0.000000 0.035011
#
#
# Mechanical properties :
#
#
# Convention : Reuss Voigt Hill
#
# Bulk Modulus (GPa) = 72.84061 73.67918 73.25989
# Shear Modulus (GPa) = 35.31351 36.27671 35.79511
#
# Velocity S-wave (km/s) = 4.07712 4.13235 4.10483
# Velocity P-wave (km/s) = 7.51343 7.57964 7.54661
#
# Compressibility (1/GPa) = 0.01372861
#
# Stress axis : x y z
#
# Youngs Moduli (GPa) = 98.08168 98.08112 123.19059
#
# Poissons Ratio (x) = 0.27271 0.28393
# Poissons Ratio (y) = 0.27271 0.28393
# Poissons Ratio (z) = 0.22606 0.22606
#
# Static dielectric constant tensor:
#      x y z
#    x 3.660790 0.000000 0.000000 
#    y 0.000000 3.660810 0.000000 
#    z 0.000000 0.000000 3.934700 
# 
# 
# High freq. dielectric constant tensor:
#      x y z
#    x 1.827150 0.000000 0.000000 
#    y 0.000000 1.827150 0.000000 
#    z 0.000000 0.000000 1.846910 
# 
# From -- ./inp_files/3185.got.cif
#   From: 2010.03.12/outbox.cif.g09.slc.cpg/sg92_2_cif.got.tgz:3185.got - 2010.04.08 20:41:11.
