data_PCOD8305672
_publ_section_title
;
Structure prediction by ZEFSAII (Michael W. Deem and Ramdas Pophale) SiO2 
 PCOD8305672
Probable space group: P 42 21 2
;
_chemical_formula_sum "Si O2"
_cell_formula_units_Z 52
_cell_length_a 16.385711
_cell_length_b 16.385711
_cell_length_c 8.903285
_cell_angle_alpha 90.000000
_cell_angle_beta 90.000000
_cell_angle_gamma 90.000000
_cell_volume 2390.456567
_symmetry_space_group_name_H-M "P 42 21 2"
_symmetry_group_IT_number 94
_symmetry_cell_setting 'tetragonal'
loop_
_space_group_symop_operation_xyz
x,y,z
1/2-y,1/2+x,1/2+z
-x,-y,z
1/2+y,1/2-x,1/2+z
1/2+x,1/2-y,1/2-z
1/2-x,1/2+y,1/2-z
y,x,-z
-y,-x,-z
loop_
_atom_site_type_symbol
_atom_site_label
_atom_site_fract_x
_atom_site_fract_y
_atom_site_fract_z
Si Si1 0.811650 0.660637 0.750342
Si Si2 0.002004 0.374349 0.787788
Si Si3 0.891570 0.855863 0.244667
Si Si4 0.934448 0.160673 0.187887
Si Si5 0.500000 0.000000 0.959831
Si Si6 0.526221 0.689149 0.658066
Si Si7 0.791147 0.791147 0.500000
Si Si8 0.206164 0.206164 0.000000
O O1 0.901062 0.625871 0.768080
O O2 0.749602 0.585210 0.753704
O O3 0.797091 0.706286 0.590685
O O4 0.793073 0.716683 0.892656
O O5 0.970311 0.423225 0.641630
O O6 0.963070 0.284310 0.800035
O O7 0.975936 0.422740 0.937468
O O8 0.865330 0.801460 0.385432
O O9 0.876343 0.796830 0.100753
O O10 0.985995 0.876366 0.268891
O O11 0.838720 0.938465 0.222481
O O12 0.860773 0.100296 0.233628
O O13 0.960649 0.168017 0.015150
#
# Coordination Sequence:
#
# PCOD8305672 Si02
#       8
#     8   8   8   8   4   8   4   4
#     4  11  23  41  64  95 133 170 223 276 336 400
#     4  11  22  46  67  98 133 174 229 284 340 402
#     4  11  20  42  68  93 127 178 221 271 332 407
#     4  11  23  38  66 103 131 172 219 273 338 404
#     4  10  26  40  72  98 126 182 234 288 338 398
#     4  11  21  41  67  95 133 174 220 271 333 415
#     4  10  22  40  65  90 129 178 214 268 336 396
#     4  10  20  40  67  88 121 178 228 262 324 412
#
# _framework density 21.753167999999999
#
# number of rings (size 3 to 8) (size 9 to 14) (size 15 to 20)
#    0.000    1.231    4.615    2.308    0.000    3.692 
#    2.769    8.462    0.000    0.000    0.000    0.000 
#    0.000    0.000    0.000    0.000    0.000    0.000 
#
# Total GULP energy -644568.880828 kJ/mol
# GULP energy per Si atom -12395.555401 kJ/mol
# Density = 2.170366 g / cm^3
# Si number density = 21.753168 Si / 1000 Ang^3
#
#
#
# Elastic Constant Matrix: (Units=GPa)
#
#
# Indices 1 2 3 4 5 6 
#
# 1 102.2528 22.4869 31.8102 0.0000 0.0000 0.0000
# 2 22.4869 102.2528 31.8102 0.0000 0.0000 0.0000
# 3 31.8102 31.8102 109.6591 0.0000 0.0000 0.0000
# 4 0.0000 0.0000 0.0000 -0.3069 0.0000 0.0000
# 5 0.0000 0.0000 0.0000 0.0000 -0.3069 0.0000
# 6 0.0000 0.0000 0.0000 0.0000 0.0000 40.3885
#
#
#
# Elastic Compliance Matrix: (Units=1/GPa)
#
#
# Indices 1 2 3 4 5 6 
#
# 1 0.010973 -0.001564 -0.002729 0.000000 0.000000 0.000000
# 2 -0.001564 0.010973 -0.002729 0.000000 0.000000 0.000000
# 3 -0.002729 -0.002729 0.010703 0.000000 0.000000 0.000000
# 4 0.000000 0.000000 0.000000 -3.258869 0.000000 0.000000
# 5 0.000000 0.000000 0.000000 0.000000 -3.258869 0.000000
# 6 0.000000 0.000000 0.000000 0.000000 0.000000 0.024760
#
#
# Mechanical properties :
#
#
# Convention : Reuss Voigt Hill
#
# Bulk Modulus (GPa) = 53.75527 54.04213 53.89870
# Shear Modulus (GPa) = -0.77639 23.15878 11.19119
#
# Velocity S-wave (km/s) = -0.59807 3.26639 2.27064
# Velocity P-wave (km/s) = 4.92831 6.25484 5.63077
#
# Compressibility (1/GPa) = 0.01860283
#
# Stress axis : x y z
#
# Youngs Moduli (GPa) = 91.13528 91.13528 93.43510
#
# Poissons Ratio (x) = 0.14253 0.25501
# Poissons Ratio (y) = 0.14253 0.25501
# Poissons Ratio (z) = 0.24874 0.24874
#
# Static dielectric constant tensor:
#      x y z
#    x 3.997550 0.000000 0.000000 
#    y 0.000000 3.997550 0.000000 
#    z 0.000000 0.000000 4.599000 
# 
# 
# High freq. dielectric constant tensor:
#      x y z
#    x 1.854660 0.000000 0.000000 
#    y 0.000000 1.854660 0.000000 
#    z 0.000000 0.000000 1.852320 
# 
# From -- ./inp_files/1706.got.cif
#   From: 2010.03.12/outbox.cif.g09.slc.cpg/sg94_1_cif.got.tgz:1706.got - 2010.04.08 20:48:32.
