data_PCOD8305464
_publ_section_title
;
Structure prediction by ZEFSAII (Michael W. Deem and Ramdas Pophale) SiO2 
 PCOD8305464
Probable space group: P 41 21 2
;
_chemical_formula_sum "Si O2"
_cell_formula_units_Z 40
_cell_length_a 7.745603
_cell_length_b 7.745603
_cell_length_c 28.705040
_cell_angle_alpha 90.000000
_cell_angle_beta 90.000000
_cell_angle_gamma 90.000000
_cell_volume 1722.140671
_symmetry_space_group_name_H-M "P 41 21 2"
_symmetry_group_IT_number 92
_symmetry_cell_setting 'tetragonal'
loop_
_space_group_symop_operation_xyz
x,y,z
1/2-y,1/2+x,1/4+z
-x,-y,1/2+z
1/2+y,1/2-x,3/4+z
1/2+x,1/2-y,3/4-z
1/2-x,1/2+y,1/4-z
y,x,-z
-y,-x,1/2-z
loop_
_atom_site_type_symbol
_atom_site_label
_atom_site_fract_x
_atom_site_fract_y
_atom_site_fract_z
Si Si1 0.993065 0.746242 0.022417
Si Si2 0.527802 0.288744 0.634006
Si Si3 0.186708 0.686341 0.933023
Si Si4 0.568210 0.640999 0.952468
Si Si5 0.107205 0.592194 0.113443
O O1 0.089758 0.739266 0.072766
O O2 0.826351 0.630036 0.030181
O O3 0.124268 0.659761 0.985829
O O4 0.931015 0.931015 0.000000
O O5 0.377403 0.371409 0.665963
O O6 0.452606 0.291858 0.580891
O O7 0.702432 0.401218 0.635961
O O8 0.579147 0.102224 0.654714
O O9 0.390383 0.664508 0.925430
O O10 0.104959 0.538623 0.902147
O O11 0.533354 0.533354 0.000000
#
# Coordination Sequence:
#
# PCOD8305464 Si02
#       5
#     8   8   8   8   8
#     4  11  25  43  72 105 145 193 242 304 383 449
#     4  12  25  46  75 108 146 194 251 308 376 455
#     4  12  25  46  74 107 149 194 252 312 378 460
#     4  11  23  45  72  99 144 191 239 308 371 441
#     4  12  26  46  76 107 148 198 253 310 384 455
#
# _framework density 23.226904999999999
#
# number of rings (size 3 to 8) (size 9 to 14) (size 15 to 20)
#    0.000    0.400    4.000    4.800    5.600    0.000 
#    0.000    0.000    0.000    0.000    0.000    0.000 
#    0.000    0.000    0.000    0.000    0.000    0.000 
#
# Total GULP energy -495719.078411 kJ/mol
# GULP energy per Si atom -12392.976960 kJ/mol
# Density = 2.317404 g / cm^3
# Si number density = 23.226905 Si / 1000 Ang^3
#
#
#
# Elastic Constant Matrix: (Units=GPa)
#
#
# Indices 1 2 3 4 5 6 
#
# 1 95.5875 37.9301 31.2882 0.0000 0.0000 0.0000
# 2 37.9301 95.5875 31.2882 0.0000 0.0000 0.0000
# 3 31.2882 31.2882 89.0700 0.0000 0.0000 0.0000
# 4 0.0000 0.0000 0.0000 18.7127 0.0000 0.0000
# 5 0.0000 0.0000 0.0000 0.0000 18.7127 0.0000
# 6 0.0000 0.0000 0.0000 0.0000 0.0000 26.0246
#
#
#
# Elastic Compliance Matrix: (Units=1/GPa)
#
#
# Indices 1 2 3 4 5 6 
#
# 1 0.013155 -0.004189 -0.003149 0.000000 0.000000 0.000000
# 2 -0.004189 0.013155 -0.003149 0.000000 0.000000 0.000000
# 3 -0.003149 -0.003149 0.013440 0.000000 0.000000 0.000000
# 4 0.000000 0.000000 0.000000 0.053440 0.000000 0.000000
# 5 0.000000 0.000000 0.000000 0.000000 0.053440 0.000000
# 6 0.000000 0.000000 0.000000 0.000000 0.000000 0.038425
#
#
# Mechanical properties :
#
#
# Convention : Reuss Voigt Hill
#
# Bulk Modulus (GPa) = 53.26675 53.47309 53.36992
# Shear Modulus (GPa) = 23.55294 24.67255 24.11274
#
# Velocity S-wave (km/s) = 3.18785 3.26274 3.22551
# Velocity P-wave (km/s) = 6.04424 6.10459 6.07449
#
# Compressibility (1/GPa) = 0.01877344
#
# Stress axis : x y z
#
# Youngs Moduli (GPa) = 76.01806 76.01806 74.40596
#
# Poissons Ratio (x) = 0.31844 0.23434
# Poissons Ratio (y) = 0.31844 0.23434
# Poissons Ratio (z) = 0.23941 0.23941
#
# Static dielectric constant tensor:
#      x y z
#    x 4.308540 0.000000 0.000000 
#    y 0.000000 4.308540 0.000000 
#    z 0.000000 0.000000 4.635250 
# 
# 
# High freq. dielectric constant tensor:
#      x y z
#    x 1.916210 0.000000 0.000000 
#    y 0.000000 1.916210 0.000000 
#    z 0.000000 0.000000 1.920020 
# 
# From -- ./inp_files/4357.got.cif
#   From: 2010.03.12/outbox.cif.g09.slc.cpg/sg92_3_cif.got.tgz:4357.got - 2010.04.08 20:41:11.
