data_PCOD8305807
_publ_section_title
;
Structure prediction by ZEFSAII (Michael W. Deem and Ramdas Pophale) SiO2 
 PCOD8305807
Probable space group: P 43 2 2
;
_chemical_formula_sum "Si O2"
_cell_formula_units_Z 48
_cell_length_a 23.578691
_cell_length_b 23.578691
_cell_length_c 5.296043
_cell_angle_alpha 90.000000
_cell_angle_beta 90.000000
_cell_angle_gamma 90.000000
_cell_volume 2944.359835
_symmetry_space_group_name_H-M "P 43 2 2"
_symmetry_group_IT_number 95
_symmetry_cell_setting 'tetragonal'
loop_
_space_group_symop_operation_xyz
x,y,z
-y,x,3/4+z
-x,-y,1/2+z
y,-x,1/4+z
x,-y,1/2-z
-x,y,-z
y,x,1/4-z
-y,-x,3/4-z
loop_
_atom_site_type_symbol
_atom_site_label
_atom_site_fract_x
_atom_site_fract_y
_atom_site_fract_z
Si Si1 0.608017 0.761401 0.080243
Si Si2 0.500000 0.096812 0.000000
Si Si3 0.303569 0.138976 0.073680
Si Si4 0.500000 0.834686 0.000000
Si Si5 0.262159 0.353307 0.166721
Si Si6 0.728003 0.821788 0.079074
Si Si7 0.964820 0.385826 0.745984
O O1 0.551801 0.797915 0.103705
O O2 0.614512 0.720135 0.324597
O O3 0.663473 0.800627 0.055051
O O4 0.605873 0.724433 0.821810
O O5 0.519248 0.130723 0.748115
O O6 0.446460 0.059914 0.914094
O O7 0.342648 0.194999 0.055911
O O8 0.262011 0.142919 0.319485
O O9 0.264984 0.136983 0.820338
O O10 0.341549 0.083405 0.073761
O O11 0.293711 0.293711 0.125000
O O12 0.768900 0.768900 0.125000
O O13 0.000000 0.363998 0.500000
O O14 0.000000 0.393945 0.000000
#
# Coordination Sequence:
#
# PCOD8305807 Si02
#       7
#     8   4   8   4   8   8   8
#     4  10  18  28  42  66  93 114 140 173 218 284
#     4  12  22  37  50  60  80 116 170 218 247 270
#     4  10  18  30  45  63  85 108 136 184 240 288
#     4  12  22  33  50  70  92 124 156 194 245 292
#     4  10  18  31  50  70  87 108 142 186 237 285
#     4  10  17  29  48  70  88 107 139 184 240 290
#     4  12  24  37  48  62  84 119 165 211 251 278
#
# _framework density 16.302356
#
# number of rings (size 3 to 8) (size 9 to 14) (size 15 to 20)
#    0.000    1.333    0.000   12.500    0.000    0.000 
#    0.000    0.000    0.000    0.000    0.000    0.000 
#    0.000    0.000    0.000    0.000    0.000   60.000 
#
# Total GULP energy -594717.633719 kJ/mol
# GULP energy per Si atom -12389.950702 kJ/mol
# Density = 1.626525 g / cm^3
# Si number density = 16.302356 Si / 1000 Ang^3
#
#
#
# Elastic Constant Matrix: (Units=GPa)
#
#
# Indices 1 2 3 4 5 6 
#
# 1 45.8812 36.6917 21.7245 0.0000 0.0000 0.0000
# 2 36.6917 45.8812 21.7245 0.0000 0.0000 0.0000
# 3 21.7245 21.7245 171.5409 0.0000 0.0000 0.0000
# 4 0.0000 0.0000 0.0000 18.6019 0.0000 0.0000
# 5 0.0000 0.0000 0.0000 0.0000 18.6019 0.0000
# 6 0.0000 0.0000 0.0000 0.0000 0.0000 9.1395
#
#
#
# Elastic Compliance Matrix: (Units=1/GPa)
#
#
# Indices 1 2 3 4 5 6 
#
# 1 0.060897 -0.047922 -0.001643 0.000000 0.000000 0.000000
# 2 -0.047922 0.060897 -0.001643 0.000000 0.000000 0.000000
# 3 -0.001643 -0.001643 0.006246 0.000000 0.000000 0.000000
# 4 0.000000 0.000000 0.000000 0.053758 0.000000 0.000000
# 5 0.000000 0.000000 0.000000 0.000000 0.053758 0.000000
# 6 0.000000 0.000000 0.000000 0.000000 0.000000 0.109416
#
#
# Mechanical properties :
#
#
# Convention : Reuss Voigt Hill
#
# Bulk Modulus (GPa) = 39.02717 47.06495 43.04606
# Shear Modulus (GPa) = 10.96658 21.47947 16.22302
#
# Velocity S-wave (km/s) = 2.59646 3.63377 3.15800
# Velocity P-wave (km/s) = 5.74285 6.82191 6.30550
#
# Compressibility (1/GPa) = 0.02562317
#
# Stress axis : x y z
#
# Youngs Moduli (GPa) = 16.42105 16.42105 160.10967
#
# Poissons Ratio (x) = 0.78693 0.26309
# Poissons Ratio (y) = 0.78693 0.26309
# Poissons Ratio (z) = 0.02698 0.02698
#
# Static dielectric constant tensor:
#      x y z
#    x 2.760560 0.000000 0.000000 
#    y 0.000000 2.760560 0.000000 
#    z 0.000000 0.000000 4.950080 
# 
# 
# High freq. dielectric constant tensor:
#      x y z
#    x 1.577770 0.000000 0.000000 
#    y 0.000000 1.577770 0.000000 
#    z 0.000000 0.000000 1.680410 
# 
# From -- ./inp_files/1289.got.cif
#   From: 2010.03.12/outbox.cif.g09.slc.cpg/sg95_1_cif.got.tgz:1289.got - 2010.04.08 20:51:55.
