data_PCOD8305093
_publ_section_title
;
Structure prediction by ZEFSAII (Michael W. Deem and Ramdas Pophale) SiO2 
 PCOD8305093
Probable space group: P 41 2 2
;
_chemical_formula_sum "Si O2"
_cell_formula_units_Z 56
_cell_length_a 14.228310
_cell_length_b 14.228310
_cell_length_c 12.927915
_cell_angle_alpha 90.000000
_cell_angle_beta 90.000000
_cell_angle_gamma 90.000000
_cell_volume 2617.189237
_symmetry_space_group_name_H-M "P 41 2 2"
_symmetry_group_IT_number 91
_symmetry_cell_setting 'tetragonal'
loop_
_space_group_symop_operation_xyz
x,y,z
-y,x,1/4+z
-x,-y,1/2+z
y,-x,3/4+z
x,-y,1/2-z
-x,y,-z
y,x,3/4-z
-y,-x,1/4-z
loop_
_atom_site_type_symbol
_atom_site_label
_atom_site_fract_x
_atom_site_fract_y
_atom_site_fract_z
Si Si1 0.334551 0.931182 0.449485
Si Si2 0.583902 0.376883 0.425368
Si Si3 0.327121 0.500000 0.750000
Si Si4 0.500000 0.952354 0.000000
Si Si5 0.352182 0.200815 0.875555
Si Si6 0.209062 0.929558 0.156486
Si Si7 0.816767 0.542424 0.577998
Si Si8 0.204345 0.654063 0.986392
O O1 0.332699 0.897244 0.567557
O O2 0.326204 0.839033 0.377088
O O3 0.433268 0.983183 0.429325
O O4 0.254102 0.009682 0.435774
O O5 0.500000 0.416984 0.500000
O O6 0.606191 0.449621 0.333433
O O7 0.537929 0.287073 0.373235
O O8 0.681535 0.347966 0.483353
O O9 0.261310 0.568634 0.684164
O O10 0.561710 0.888965 0.078567
O O11 0.255534 0.255534 0.875000
O O12 0.377280 0.175482 0.758010
O O13 0.105614 0.894387 0.125000
O O14 0.267697 0.835658 0.185807
O O15 0.200803 0.000000 0.250000
O O16 0.838208 0.443390 0.525196
#
# Coordination Sequence:
#
# PCOD8305093 Si02
#       8
#     8   8   4   4   8   8   8   8
#     4  11  23  44  73 101 132 183 239 296 369 443
#     4  12  27  45  67 102 141 199 250 301 349 426
#     4  12  23  50  67  96 142 210 259 296 353 428
#     4  12  25  40  69 102 134 174 243 310 369 418
#     4  12  23  45  70  95 142 194 242 292 365 432
#     4  10  24  44  75 104 136 178 227 291 376 448
#     4  12  24  42  64 100 137 182 241 305 349 420
#     4  11  23  45  68  95 137 186 236 288 357 419
#
# _framework density 21.397000999999999
#
# number of rings (size 3 to 8) (size 9 to 14) (size 15 to 20)
#    0.000    0.571    6.429    1.286    4.000    1.714 
#    7.714    0.714    0.000    0.000    0.000    0.000 
#    0.000    0.000    0.000    0.000    0.000    0.000 
#
# Total GULP energy -694358.757415 kJ/mol
# GULP energy per Si atom -12399.263525 kJ/mol
# Density = 2.134830 g / cm^3
# Si number density = 21.397001 Si / 1000 Ang^3
#
#
#
# Elastic Constant Matrix: (Units=GPa)
#
#
# Indices 1 2 3 4 5 6 
#
# 1 141.7221 11.0117 39.9169 0.0000 0.0000 0.0000
# 2 11.0117 141.7439 39.9407 0.0000 0.0000 0.0000
# 3 39.9169 39.9407 103.3044 0.0000 0.0000 0.0000
# 4 0.0000 0.0000 0.0000 -188.2660 0.0000 0.0000
# 5 0.0000 0.0000 0.0000 0.0000 -187.5634 0.0000
# 6 0.0000 0.0000 0.0000 0.0000 0.0000 49.0595
#
#
#
# Elastic Compliance Matrix: (Units=1/GPa)
#
#
# Indices 1 2 3 4 5 6 
#
# 1 0.007927 0.000278 -0.003170 0.000000 0.000000 0.000000
# 2 0.000278 0.007927 -0.003172 0.000000 0.000000 0.000000
# 3 -0.003170 -0.003172 0.012132 0.000000 0.000000 0.000000
# 4 0.000000 0.000000 0.000000 -0.005312 0.000000 0.000000
# 5 0.000000 0.000000 0.000000 0.000000 -0.005332 0.000000
# 6 0.000000 0.000000 0.000000 0.000000 0.000000 0.020383
#
#
# Mechanical properties :
#
#
# Convention : Reuss Voigt Hill
#
# Bulk Modulus (GPa) = 63.06694 63.16764 63.11729
# Shear Modulus (GPa) = 90.67450 -45.62722 22.52364
#
# Velocity S-wave (km/s) = 6.51684 -4.62281 3.24798
# Velocity P-wave (km/s) = 9.28247 1.04495 6.60516
#
# Compressibility (1/GPa) = 0.01585617
#
# Stress axis : x y z
#
# Youngs Moduli (GPa) = 126.14344 126.14684 82.42893
#
# Poissons Ratio (x) = -0.03501 0.26134
# Poissons Ratio (y) = -0.03501 0.26148
# Poissons Ratio (z) = 0.39994 0.40016
#
# Static dielectric constant tensor:
#      x y z
#    x 4.978070 0.000000 0.000000 
#    y 0.000000 4.974700 0.000000 
#    z 0.000000 0.000000 4.229120 
# 
# 
# High freq. dielectric constant tensor:
#      x y z
#    x 1.831520 0.000000 0.000000 
#    y 0.000000 1.831520 0.000000 
#    z 0.000000 0.000000 1.848300 
# 
# From -- ./inp_files/3960.got.cif
#   From: 2010.03.12/outbox.cif.g09.slc.cpg/sg91_2_cif.got.tgz:3960.got - 2010.04.08 20:27:58.
