data_PCOD8305726
_publ_section_title
;
Structure prediction by ZEFSAII (Michael W. Deem and Ramdas Pophale) SiO2 
 PCOD8305726
Probable space group: P 42 21 2
;
_chemical_formula_sum "Si O2"
_cell_formula_units_Z 48
_cell_length_a 8.409861
_cell_length_b 8.409861
_cell_length_c 31.073615
_cell_angle_alpha 90.000000
_cell_angle_beta 90.000000
_cell_angle_gamma 90.000000
_cell_volume 2197.705100
_symmetry_space_group_name_H-M "P 42 21 2"
_symmetry_group_IT_number 94
_symmetry_cell_setting 'tetragonal'
loop_
_space_group_symop_operation_xyz
x,y,z
1/2-y,1/2+x,1/2+z
-x,-y,z
1/2+y,1/2-x,1/2+z
1/2+x,1/2-y,1/2-z
1/2-x,1/2+y,1/2-z
y,x,-z
-y,-x,-z
loop_
_atom_site_type_symbol
_atom_site_label
_atom_site_fract_x
_atom_site_fract_y
_atom_site_fract_z
Si Si1 0.719706 0.661170 0.636528
Si Si2 0.683165 0.516633 0.880726
Si Si3 0.344163 0.904691 0.700607
Si Si4 0.500000 0.000000 0.910326
Si Si5 0.232035 0.267683 0.048076
Si Si6 0.164870 0.036192 0.777560
Si Si7 0.000000 0.000000 0.074061
O O1 0.739163 0.848416 0.631177
O O2 0.873762 0.569177 0.621987
O O3 0.682173 0.591835 0.683693
O O4 0.576555 0.630762 0.604451
O O5 0.500000 0.500000 0.892896
O O6 0.708892 0.607864 0.836051
O O7 0.764051 0.618062 0.919820
O O8 0.357196 0.718824 0.709654
O O9 0.500000 0.000000 0.683099
O O10 0.302261 0.006592 0.743054
O O11 0.429464 0.141237 0.939249
O O12 0.101399 0.125810 0.046324
O O13 0.296025 0.296025 0.000000
O O14 0.000000 0.000000 0.753491
#
# Coordination Sequence:
#
# PCOD8305726 Si02
#       7
#     8   8   8   4   8   8   4
#     4  11  23  42  72 100 144 186 234 291 352 428
#     4  12  26  45  68 104 141 190 233 295 362 429
#     4  12  27  44  71 103 144 191 244 299 355 422
#     4  10  22  44  66 100 136 188 228 282 364 422
#     4  11  25  46  73 104 142 180 241 297 366 441
#     4  12  25  45  67 105 141 190 240 296 354 423
#     4  10  23  44  70 106 136 186 234 292 365 430
#
# _framework density 21.840965000000001
#
# number of rings (size 3 to 8) (size 9 to 14) (size 15 to 20)
#    0.000    0.667    2.500    5.750    3.500    1.667 
#    0.000    1.667    0.000    0.000    0.000    0.000 
#    0.000    0.000    0.000    0.000    0.000    0.000 
#
# Total GULP energy -594722.555999 kJ/mol
# GULP energy per Si atom -12390.053250 kJ/mol
# Density = 2.179125 g / cm^3
# Si number density = 21.840965 Si / 1000 Ang^3
#
#
#
# Elastic Constant Matrix: (Units=GPa)
#
#
# Indices 1 2 3 4 5 6 
#
# 1 104.0318 12.9626 28.3663 0.0000 0.0000 0.0000
# 2 12.9626 104.0318 28.3663 0.0000 0.0000 0.0000
# 3 28.3663 28.3663 123.8637 0.0000 0.0000 0.0000
# 4 0.0000 0.0000 0.0000 6.0395 0.0000 0.0000
# 5 0.0000 0.0000 0.0000 0.0000 6.0395 0.0000
# 6 0.0000 0.0000 0.0000 0.0000 0.0000 14.1618
#
#
#
# Elastic Compliance Matrix: (Units=1/GPa)
#
#
# Indices 1 2 3 4 5 6 
#
# 1 0.010298 -0.000683 -0.002202 0.000000 0.000000 0.000000
# 2 -0.000683 0.010298 -0.002202 0.000000 0.000000 0.000000
# 3 -0.002202 -0.002202 0.009082 0.000000 0.000000 0.000000
# 4 0.000000 0.000000 0.000000 0.165576 0.000000 0.000000
# 5 0.000000 0.000000 0.000000 0.000000 0.165576 0.000000
# 6 0.000000 0.000000 0.000000 0.000000 0.000000 0.070612
#
#
# Mechanical properties :
#
#
# Convention : Reuss Voigt Hill
#
# Bulk Modulus (GPa) = 51.27056 52.36864 51.81960
# Shear Modulus (GPa) = 11.15779 22.73030 16.94405
#
# Velocity S-wave (km/s) = 2.26269 3.22952 2.78833
# Velocity P-wave (km/s) = 5.50924 6.15919 5.84326
#
# Compressibility (1/GPa) = 0.01950437
#
# Stress axis : x y z
#
# Youngs Moduli (GPa) = 97.10682 97.10682 110.10834
#
# Poissons Ratio (x) = 0.06630 0.24246
# Poissons Ratio (y) = 0.06630 0.24246
# Poissons Ratio (z) = 0.21383 0.21383
#
# Static dielectric constant tensor:
#      x y z
#    x 4.307990 0.000000 0.000000 
#    y 0.000000 4.307990 0.000000 
#    z 0.000000 0.000000 3.793370 
# 
# 
# High freq. dielectric constant tensor:
#      x y z
#    x 1.873070 0.000000 0.000000 
#    y 0.000000 1.873070 0.000000 
#    z 0.000000 0.000000 1.851190 
# 
# From -- ./inp_files/5661.got.cif
#   From: 2010.03.12/outbox.cif.g09.slc.cpg/sg94_3_cif.got.tgz:5661.got - 2010.04.08 20:48:32.
