data_PCOD8305266
_publ_section_title
;
Structure prediction by ZEFSAII (Michael W. Deem and Ramdas Pophale) SiO2 
 PCOD8305266
Probable space group: P 41 21 2
;
_chemical_formula_sum "Si O2"
_cell_formula_units_Z 40
_cell_length_a 11.969637
_cell_length_b 11.969637
_cell_length_c 14.041144
_cell_angle_alpha 90.000000
_cell_angle_beta 90.000000
_cell_angle_gamma 90.000000
_cell_volume 2011.705731
_symmetry_space_group_name_H-M "P 41 21 2"
_symmetry_group_IT_number 92
_symmetry_cell_setting 'tetragonal'
loop_
_space_group_symop_operation_xyz
x,y,z
1/2-y,1/2+x,1/4+z
-x,-y,1/2+z
1/2+y,1/2-x,3/4+z
1/2+x,1/2-y,3/4-z
1/2-x,1/2+y,1/4-z
y,x,-z
-y,-x,1/2-z
loop_
_atom_site_type_symbol
_atom_site_label
_atom_site_fract_x
_atom_site_fract_y
_atom_site_fract_z
Si Si1 0.171109 0.580013 0.635278
Si Si2 0.907984 0.655184 0.107234
Si Si3 0.298220 0.322504 0.290402
Si Si4 0.993537 0.090521 0.347925
Si Si5 0.906916 0.176995 0.651238
O O1 0.084857 0.478400 0.619770
O O2 0.187495 0.604957 0.746775
O O3 0.120091 0.683935 0.576203
O O4 0.292151 0.557347 0.589475
O O5 0.799632 0.698097 0.162548
O O6 0.019711 0.709387 0.152143
O O7 0.400888 0.400789 0.320421
O O8 0.307980 0.312704 0.176402
O O9 0.076366 0.990574 0.374155
O O10 0.930409 0.069592 0.250000
O O11 0.843728 0.156273 0.750000
#
# Coordination Sequence:
#
# PCOD8305266 Si02
#       5
#     8   8   8   8   8
#     4  11  22  38  68 101 128 166 223 281 333 379
#     4  11  21  40  66  93 129 170 217 278 332 393
#     4  11  21  37  66  95 130 169 225 278 325 397
#     4  10  20  36  67  98 129 163 222 276 328 396
#     4  11  23  41  63  93 134 184 218 266 344 409
#
# _framework density 19.883626
#
# number of rings (size 3 to 8) (size 9 to 14) (size 15 to 20)
#    0.000    1.200    6.000    3.600    0.000    0.000 
#    3.600    0.000    4.400    0.000    0.000    0.000 
#    0.000    0.000    0.000    0.000    0.000    0.000 
#
# Total GULP energy -495982.114644 kJ/mol
# GULP energy per Si atom -12399.552866 kJ/mol
# Density = 1.983837 g / cm^3
# Si number density = 19.883626 Si / 1000 Ang^3
#
#
#
# Elastic Constant Matrix: (Units=GPa)
#
#
# Indices 1 2 3 4 5 6 
#
# 1 95.7789 27.8597 57.6767 0.0000 0.0000 0.0000
# 2 27.8597 95.7806 57.6775 0.0000 0.0000 0.0000
# 3 57.6767 57.6775 149.5325 0.0000 0.0000 0.0000
# 4 0.0000 0.0000 0.0000 28.6250 0.0000 0.0000
# 5 0.0000 0.0000 0.0000 0.0000 28.6245 0.0000
# 6 0.0000 0.0000 0.0000 0.0000 0.0000 19.2053
#
#
#
# Elastic Compliance Matrix: (Units=1/GPa)
#
#
# Indices 1 2 3 4 5 6 
#
# 1 0.013679 -0.001044 -0.004874 0.000000 0.000000 0.000000
# 2 -0.001044 0.013679 -0.004874 0.000000 0.000000 0.000000
# 3 -0.004874 -0.004874 0.010447 0.000000 0.000000 0.000000
# 4 0.000000 0.000000 0.000000 0.034935 0.000000 0.000000
# 5 0.000000 0.000000 0.000000 0.000000 0.034935 0.000000
# 6 0.000000 0.000000 0.000000 0.000000 0.000000 0.052069
#
#
# Mechanical properties :
#
#
# Convention : Reuss Voigt Hill
#
# Bulk Modulus (GPa) = 61.64099 69.72445 65.68272
# Shear Modulus (GPa) = 26.77608 28.48282 27.62945
#
# Velocity S-wave (km/s) = 3.67364 3.78891 3.73172
# Velocity P-wave (km/s) = 7.00445 7.36774 7.18839
#
# Compressibility (1/GPa) = 0.01622297
#
# Stress axis : x y z
#
# Youngs Moduli (GPa) = 73.10383 73.10490 95.72044
#
# Poissons Ratio (x) = 0.07633 0.46649
# Poissons Ratio (y) = 0.07633 0.46649
# Poissons Ratio (z) = 0.35627 0.35628
#
# Static dielectric constant tensor:
#      x y z
#    x 3.689870 0.000000 0.000000 
#    y 0.000000 3.689870 0.000000 
#    z 0.000000 0.000000 3.639670 
# 
# 
# High freq. dielectric constant tensor:
#      x y z
#    x 1.766020 0.000000 0.000000 
#    y 0.000000 1.766020 0.000000 
#    z 0.000000 0.000000 1.778130 
# 
# From -- ./inp_files/2642.got.cif
#   From: 2010.03.12/outbox.cif.g09.slc.cpg/sg92_2_cif.got.tgz:2642.got - 2010.04.08 20:41:11.
