data_PCOD8305815
_publ_section_title
;
Structure prediction by ZEFSAII (Michael W. Deem and Ramdas Pophale) SiO2 
 PCOD8305815
Probable space group: P 43 2 2
;
_chemical_formula_sum "Si O2"
_cell_formula_units_Z 36
_cell_length_a 11.746181
_cell_length_b 11.746181
_cell_length_c 14.359478
_cell_angle_alpha 90.000000
_cell_angle_beta 90.000000
_cell_angle_gamma 90.000000
_cell_volume 1981.216928
_symmetry_space_group_name_H-M "P 43 2 2"
_symmetry_group_IT_number 95
_symmetry_cell_setting 'tetragonal'
loop_
_space_group_symop_operation_xyz
x,y,z
-y,x,3/4+z
-x,-y,1/2+z
y,-x,1/4+z
x,-y,1/2-z
-x,y,-z
y,x,1/4-z
-y,-x,3/4-z
loop_
_atom_site_type_symbol
_atom_site_label
_atom_site_fract_x
_atom_site_fract_y
_atom_site_fract_z
Si Si1 0.766845 0.496319 0.437454
Si Si2 0.609709 0.925048 0.434785
Si Si3 0.330646 0.706241 0.652899
Si Si4 0.845008 0.289347 0.308548
Si Si5 0.000000 0.499704 0.500000
O O1 0.675147 0.583267 0.396106
O O2 0.710712 0.439976 0.528967
O O3 0.796411 0.402430 0.359477
O O4 0.886076 0.564903 0.463639
O O5 0.500000 0.928296 0.500000
O O6 0.662722 0.798615 0.431261
O O7 0.583260 0.953866 0.328722
O O8 0.700119 0.021182 0.466668
O O9 0.215930 0.727856 0.710302
O O10 0.819326 0.180675 0.375000
#
# Coordination Sequence:
#
# PCOD8305815 Si02
#       5
#     8   8   8   8   4
#     4   9  17  31  50  74 101 135 174 216 268 319
#     4  10  19  33  53  78 106 140 178 214 258 317
#     4  10  19  32  51  76 105 138 174 215 263 317
#     4   9  17  31  54  78  99 130 175 227 271 307
#     4   8  16  32  54  72  96 132 178 222 254 302
#
# _framework density 18.170649000000001
#
# number of rings (size 3 to 8) (size 9 to 14) (size 15 to 20)
#    0.000    2.667    0.000    4.667    0.000    0.000 
#    0.000   13.333    0.000    2.667    0.000    0.000 
#    0.000    0.000    0.000    0.000    0.000    0.000 
#
# Total GULP energy -445975.742055 kJ/mol
# GULP energy per Si atom -12388.215057 kJ/mol
# Density = 1.812929 g / cm^3
# Si number density = 18.170649 Si / 1000 Ang^3
#
#
#
# Elastic Constant Matrix: (Units=GPa)
#
#
# Indices 1 2 3 4 5 6 
#
# 1 80.6352 34.4699 20.9064 0.0000 0.0000 0.0000
# 2 34.4699 80.6363 20.9065 0.0000 0.0000 0.0000
# 3 20.9064 20.9065 49.3911 0.0000 0.0000 0.0000
# 4 0.0000 0.0000 0.0000 19.1444 0.0000 0.0000
# 5 0.0000 0.0000 0.0000 0.0000 19.1445 0.0000
# 6 0.0000 0.0000 0.0000 0.0000 0.0000 27.3560
#
#
#
# Elastic Compliance Matrix: (Units=1/GPa)
#
#
# Indices 1 2 3 4 5 6 
#
# 1 0.015964 -0.005697 -0.004346 0.000000 0.000000 0.000000
# 2 -0.005697 0.015964 -0.004346 0.000000 0.000000 0.000000
# 3 -0.004346 -0.004346 0.023925 0.000000 0.000000 0.000000
# 4 0.000000 0.000000 0.000000 0.052235 0.000000 0.000000
# 5 0.000000 0.000000 0.000000 0.000000 0.052234 0.000000
# 6 0.000000 0.000000 0.000000 0.000000 0.000000 0.036555
#
#
# Mechanical properties :
#
#
# Convention : Reuss Voigt Hill
#
# Bulk Modulus (GPa) = 36.93352 40.35870 38.64611
# Shear Modulus (GPa) = 21.30572 22.08763 21.69668
#
# Velocity S-wave (km/s) = 3.42794 3.49028 3.45925
# Velocity P-wave (km/s) = 6.00315 6.20499 6.10490
#
# Compressibility (1/GPa) = 0.02707567
#
# Stress axis : x y z
#
# Youngs Moduli (GPa) = 62.64203 62.64287 41.79670
#
# Poissons Ratio (x) = 0.35690 0.18163
# Poissons Ratio (y) = 0.35690 0.18163
# Poissons Ratio (z) = 0.27221 0.27222
#
# Static dielectric constant tensor:
#      x y z
#    x 3.464790 0.000000 0.000000 
#    y 0.000000 3.464780 0.000000 
#    z 0.000000 0.000000 3.313600 
# 
# 
# High freq. dielectric constant tensor:
#      x y z
#    x 1.680050 0.000000 0.000000 
#    y 0.000000 1.680050 0.000000 
#    z 0.000000 0.000000 1.705350 
# 
# From -- ./inp_files/4641.got.cif
#   From: 2010.03.12/outbox.cif.g09.slc.cpg/sg95_3_cif.got.tgz:4641.got - 2010.04.08 20:51:55.
