data_PCOD8305434
_publ_section_title
;
Structure prediction by ZEFSAII (Michael W. Deem and Ramdas Pophale) SiO2 
 PCOD8305434
Probable space group: P 41 21 2
;
_chemical_formula_sum "Si O2"
_cell_formula_units_Z 40
_cell_length_a 14.195787
_cell_length_b 14.195787
_cell_length_c 9.555255
_cell_angle_alpha 90.000000
_cell_angle_beta 90.000000
_cell_angle_gamma 90.000000
_cell_volume 1925.578509
_symmetry_space_group_name_H-M "P 41 21 2"
_symmetry_group_IT_number 92
_symmetry_cell_setting 'tetragonal'
loop_
_space_group_symop_operation_xyz
x,y,z
1/2-y,1/2+x,1/4+z
-x,-y,1/2+z
1/2+y,1/2-x,3/4+z
1/2+x,1/2-y,3/4-z
1/2-x,1/2+y,1/4-z
y,x,-z
-y,-x,1/2-z
loop_
_atom_site_type_symbol
_atom_site_label
_atom_site_fract_x
_atom_site_fract_y
_atom_site_fract_z
Si Si1 0.607318 0.607318 0.500000
Si Si2 0.839612 0.759232 0.860312
Si Si3 0.489189 0.899103 0.816459
Si Si4 0.741784 0.633908 0.239190
Si Si5 0.893768 0.106233 0.250000
Si Si6 0.413426 0.597072 0.100068
O O1 0.682250 0.615866 0.376962
O O2 0.627352 0.503495 0.557937
O O3 0.898181 0.664570 0.892858
O O4 0.746600 0.746020 0.767552
O O5 0.903793 0.827498 0.770861
O O6 0.813885 0.813885 0.000000
O O7 0.576262 0.839644 0.749467
O O8 0.455629 0.975162 0.702113
O O9 0.701418 0.599850 0.089460
O O10 0.973720 0.093214 0.131714
O O11 0.370896 0.629105 0.250000
#
# Coordination Sequence:
#
# PCOD8305434 Si02
#       6
#     4   8   8   8   4   8
#     4  11  26  40  68 106 146 179 244 308 362 435
#     4  12  25  46  76 103 142 197 251 305 385 454
#     4  12  27  50  76 107 150 204 254 311 383 460
#     4  12  24  46  70 103 140 197 244 306 368 456
#     4  11  20  42  68  92 140 181 240 284 374 431
#     4  11  24  40  66 105 140 178 233 308 365 434
#
# _framework density 20.77298
#
# number of rings (size 3 to 8) (size 9 to 14) (size 15 to 20)
#    0.000    0.400    7.000    1.200    1.400    1.600 
#    0.000    0.000    0.000    0.000    0.000    0.000 
#    0.000    0.000    0.000    0.000    0.000    0.000 
#
# Total GULP energy -495790.145350 kJ/mol
# GULP energy per Si atom -12394.753634 kJ/mol
# Density = 2.072570 g / cm^3
# Si number density = 20.772980 Si / 1000 Ang^3
#
#
#
# Elastic Constant Matrix: (Units=GPa)
#
#
# Indices 1 2 3 4 5 6 
#
# 1 99.2296 47.7722 47.6886 0.0000 0.0000 0.0000
# 2 47.7722 99.2303 47.6878 0.0000 0.0000 0.0000
# 3 47.6886 47.6878 144.8309 0.0000 0.0000 0.0000
# 4 0.0000 0.0000 0.0000 38.3755 0.0000 0.0000
# 5 0.0000 0.0000 0.0000 0.0000 38.3752 0.0000
# 6 0.0000 0.0000 0.0000 0.0000 0.0000 38.4658
#
#
#
# Elastic Compliance Matrix: (Units=1/GPa)
#
#
# Indices 1 2 3 4 5 6 
#
# 1 0.014042 -0.005391 -0.002848 0.000000 0.000000 0.000000
# 2 -0.005391 0.014042 -0.002848 0.000000 0.000000 0.000000
# 3 -0.002848 -0.002848 0.008780 0.000000 0.000000 0.000000
# 4 0.000000 0.000000 0.000000 0.026058 0.000000 0.000000
# 5 0.000000 0.000000 0.000000 0.000000 0.026058 0.000000
# 6 0.000000 0.000000 0.000000 0.000000 0.000000 0.025997
#
#
# Mechanical properties :
#
#
# Convention : Reuss Voigt Hill
#
# Bulk Modulus (GPa) = 68.08200 69.95421 69.01811
# Shear Modulus (GPa) = 35.19870 36.38613 35.79241
#
# Velocity S-wave (km/s) = 4.12083 4.18976 4.15544
# Velocity P-wave (km/s) = 7.44897 7.56004 7.50471
#
# Compressibility (1/GPa) = 0.01468817
#
# Stress axis : x y z
#
# Youngs Moduli (GPa) = 71.21411 71.21522 113.89033
#
# Poissons Ratio (x) = 0.38395 0.32441
# Poissons Ratio (y) = 0.38394 0.32439
# Poissons Ratio (z) = 0.20285 0.20284
#
# Static dielectric constant tensor:
#      x y z
#    x 4.241760 0.000000 0.000000 
#    y 0.000000 4.241620 0.000000 
#    z 0.000000 0.000000 3.833960 
# 
# 
# High freq. dielectric constant tensor:
#      x y z
#    x 1.816740 0.000000 0.000000 
#    y 0.000000 1.816740 0.000000 
#    z 0.000000 0.000000 1.824390 
# 
# From -- ./inp_files/1389.got.cif
#   From: 2010.03.12/outbox.cif.g09.slc.cpg/sg92_1_cif.got.tgz:1389.got - 2010.04.08 20:41:11.
