data_PCOD8305387
_publ_section_title
;
Structure prediction by ZEFSAII (Michael W. Deem and Ramdas Pophale) SiO2 
 PCOD8305387
Probable space group: P 41 21 2
;
_chemical_formula_sum "Si O2"
_cell_formula_units_Z 48
_cell_length_a 11.725727
_cell_length_b 11.725727
_cell_length_c 17.289874
_cell_angle_alpha 90.000000
_cell_angle_beta 90.000000
_cell_angle_gamma 90.000000
_cell_volume 2377.231004
_symmetry_space_group_name_H-M "P 41 21 2"
_symmetry_group_IT_number 92
_symmetry_cell_setting 'tetragonal'
loop_
_space_group_symop_operation_xyz
x,y,z
1/2-y,1/2+x,1/4+z
-x,-y,1/2+z
1/2+y,1/2-x,3/4+z
1/2+x,1/2-y,3/4-z
1/2-x,1/2+y,1/4-z
y,x,-z
-y,-x,1/2-z
loop_
_atom_site_type_symbol
_atom_site_label
_atom_site_fract_x
_atom_site_fract_y
_atom_site_fract_z
Si Si1 0.664392 0.044280 0.874937
Si Si2 0.090266 0.440282 0.045322
Si Si3 0.479809 0.484309 0.660026
Si Si4 0.239796 0.403953 0.319471
Si Si5 0.326629 0.690329 0.658637
Si Si6 0.383221 0.306412 0.857378
O O1 0.597804 0.071180 0.796323
O O2 0.571955 0.061479 0.941541
O O3 0.759584 0.139309 0.885419
O O4 0.714186 0.917301 0.882502
O O5 0.209300 0.399712 0.080165
O O6 0.992533 0.361930 0.082725
O O7 0.498095 0.501906 0.750000
O O8 0.450813 0.354323 0.638971
O O9 0.375131 0.565816 0.635440
O O10 0.598738 0.521200 0.620706
O O11 0.206626 0.286261 0.359084
O O12 0.257999 0.391911 0.228529
O O13 0.300203 0.699798 0.750000
#
# Coordination Sequence:
#
# PCOD8305387 Si02
#       6
#     8   8   8   8   8   8
#     4  11  25  43  67  93 131 168 213 273 320 392
#     4  12  25  40  67  98 129 166 215 269 327 386
#     4   8  19  40  64  86 122 167 209 260 319 382
#     4  11  23  40  66  94 129 170 216 272 317 395
#     4  10  23  42  67  93 128 176 217 264 330 386
#     4  10  22  43  65  92 125 169 212 261 335 384
#
# _framework density 20.191558000000001
#
# number of rings (size 3 to 8) (size 9 to 14) (size 15 to 20)
#    0.000    1.667    1.667    2.500    7.000    1.333 
#    0.000    1.667    0.000    0.000    0.000    0.000 
#    0.000    0.000    0.000    0.000    0.000    0.000 
#
# Total GULP energy -595275.135726 kJ/mol
# GULP energy per Si atom -12401.565328 kJ/mol
# Density = 2.014560 g / cm^3
# Si number density = 20.191558 Si / 1000 Ang^3
#
#
#
# Elastic Constant Matrix: (Units=GPa)
#
#
# Indices 1 2 3 4 5 6 
#
# 1 113.5305 61.7855 11.2498 0.0000 0.0000 0.0000
# 2 61.7855 113.5308 11.2501 0.0000 0.0000 0.0000
# 3 11.2498 11.2501 44.7477 0.0000 0.0000 0.0000
# 4 0.0000 0.0000 0.0000 2.8127 0.0000 0.0000
# 5 0.0000 0.0000 0.0000 0.0000 2.8194 0.0000
# 6 0.0000 0.0000 0.0000 0.0000 0.0000 24.2750
#
#
#
# Elastic Compliance Matrix: (Units=1/GPa)
#
#
# Indices 1 2 3 4 5 6 
#
# 1 0.012610 -0.006716 -0.001482 0.000000 0.000000 0.000000
# 2 -0.006716 0.012610 -0.001482 0.000000 0.000000 0.000000
# 3 -0.001482 -0.001482 0.023093 0.000000 0.000000 0.000000
# 4 0.000000 0.000000 0.000000 0.355526 0.000000 0.000000
# 5 0.000000 0.000000 0.000000 0.000000 0.354679 0.000000
# 6 0.000000 0.000000 0.000000 0.000000 0.000000 0.041195
#
#
# Mechanical properties :
#
#
# Convention : Reuss Voigt Hill
#
# Bulk Modulus (GPa) = 34.53808 48.93109 41.73459
# Shear Modulus (GPa) = 6.03339 18.48302 12.25820
#
# Velocity S-wave (km/s) = 1.73048 3.02881 2.46660
# Velocity P-wave (km/s) = 4.59729 6.04298 5.36902
#
# Compressibility (1/GPa) = 0.02895355
#
# Stress axis : x y z
#
# Youngs Moduli (GPa) = 79.30327 79.30340 43.30394
#
# Poissons Ratio (x) = 0.53257 0.06417
# Poissons Ratio (y) = 0.53257 0.06417
# Poissons Ratio (z) = 0.11751 0.11752
#
# Static dielectric constant tensor:
#      x y z
#    x 3.944380 0.000000 0.000000 
#    y 0.000000 3.944360 0.000000 
#    z 0.000000 0.000000 3.590570 
# 
# 
# High freq. dielectric constant tensor:
#      x y z
#    x 1.801290 0.000000 0.000000 
#    y 0.000000 1.801290 0.000000 
#    z 0.000000 0.000000 1.777200 
# 
# From -- ./inp_files/3088.got.cif
#   From: 2010.03.12/outbox.cif.g09.slc.cpg/sg92_2_cif.got.tgz:3088.got - 2010.04.08 20:41:11.
