data_PCOD8305664
_publ_section_title
;
Structure prediction by ZEFSAII (Michael W. Deem and Ramdas Pophale) SiO2 
 PCOD8305664
Probable space group: P 42 21 2
;
_chemical_formula_sum "Si O2"
_cell_formula_units_Z 54
_cell_length_a 11.064565
_cell_length_b 11.064565
_cell_length_c 22.065545
_cell_angle_alpha 90.000000
_cell_angle_beta 90.000000
_cell_angle_gamma 90.000000
_cell_volume 2701.365490
_symmetry_space_group_name_H-M "P 42 21 2"
_symmetry_group_IT_number 94
_symmetry_cell_setting 'tetragonal'
loop_
_space_group_symop_operation_xyz
x,y,z
1/2-y,1/2+x,1/2+z
-x,-y,z
1/2+y,1/2-x,1/2+z
1/2+x,1/2-y,1/2-z
1/2-x,1/2+y,1/2-z
y,x,-z
-y,-x,-z
loop_
_atom_site_type_symbol
_atom_site_label
_atom_site_fract_x
_atom_site_fract_y
_atom_site_fract_z
Si Si1 0.179681 0.371282 0.161752
Si Si2 0.335544 0.858851 0.654272
Si Si3 0.422093 0.751867 0.926118
Si Si4 0.000720 0.355651 0.065541
Si Si5 0.500000 0.000000 0.746691
Si Si6 0.006513 0.746090 0.940382
Si Si7 0.432122 0.772252 0.062543
Si Si8 0.000000 0.000000 0.000000
O O1 0.280598 0.274545 0.183185
O O2 0.248010 0.476530 0.125210
O O3 0.088169 0.300934 0.116639
O O4 0.101700 0.428087 0.215857
O O5 0.424950 0.769462 0.618900
O O6 0.401880 0.928292 0.707885
O O7 0.290465 0.955817 0.605937
O O8 0.356880 0.624087 0.920503
O O9 0.321866 0.860817 0.919825
O O10 0.479783 0.770496 0.993303
O O11 0.000000 0.500000 0.070514
O O12 0.050788 0.312672 0.000956
O O13 0.130875 0.675073 0.927979
O O14 0.013464 0.888192 0.953949
#
# Coordination Sequence:
#
# PCOD8305664 Si02
#       8
#     8   8   8   8   4   8   8   2
#     4  11  23  42  66  91 117 169 222 266 323 384
#     4  12  25  42  68  90 123 169 218 269 325 389
#     4   9  18  35  65  99 133 167 201 254 317 398
#     4   9  16  34  65  93 127 167 201 247 317 396
#     4  12  26  50  60  90 124 172 228 278 324 370
#     4  11  20  38  59  99 138 163 201 253 330 390
#     4  10  20  37  64  98 136 169 199 257 334 387
#     4  12  24  32  60 104 140 168 204 256 320 414
#
# _framework density 19.989892000000001
#
# number of rings (size 3 to 8) (size 9 to 14) (size 15 to 20)
#    0.000    1.481    3.704    5.333    0.000    3.556 
#    0.000    1.481    0.000    0.000    0.000    0.000 
#    0.000    0.000    0.000    0.000    0.000    0.000 
#
# Total GULP energy -669139.724228 kJ/mol
# GULP energy per Si atom -12391.476375 kJ/mol
# Density = 1.994439 g / cm^3
# Si number density = 19.989892 Si / 1000 Ang^3
#
#
#
# Elastic Constant Matrix: (Units=GPa)
#
#
# Indices 1 2 3 4 5 6 
#
# 1 97.4285 57.8849 54.4535 0.0000 0.0000 0.0000
# 2 57.8849 97.4285 54.4535 0.0000 0.0000 0.0000
# 3 54.4535 54.4535 112.2238 0.0000 0.0000 0.0000
# 4 0.0000 0.0000 0.0000 118.5218 0.0000 0.0000
# 5 0.0000 0.0000 0.0000 0.0000 118.5218 0.0000
# 6 0.0000 0.0000 0.0000 0.0000 0.0000 42.6515
#
#
#
# Elastic Compliance Matrix: (Units=1/GPa)
#
#
# Indices 1 2 3 4 5 6 
#
# 1 0.017524 -0.007765 -0.004735 0.000000 0.000000 0.000000
# 2 -0.007765 0.017524 -0.004735 0.000000 0.000000 0.000000
# 3 -0.004735 -0.004735 0.013506 0.000000 0.000000 0.000000
# 4 0.000000 0.000000 0.000000 0.008437 0.000000 0.000000
# 5 0.000000 0.000000 0.000000 0.000000 0.008437 0.000000
# 6 0.000000 0.000000 0.000000 0.000000 0.000000 0.023446
#
#
# Mechanical properties :
#
#
# Convention : Reuss Voigt Hill
#
# Bulk Modulus (GPa) = 71.00774 71.18494 71.09634
# Shear Modulus (GPa) = 39.05057 65.29161 52.17109
#
# Velocity S-wave (km/s) = 4.42465 5.72130 5.11423
# Velocity P-wave (km/s) = 7.85509 8.90686 8.39745
#
# Compressibility (1/GPa) = 0.01408297
#
# Stress axis : x y z
#
# Youngs Moduli (GPa) = 57.06527 57.06527 74.04066
#
# Poissons Ratio (x) = 0.44310 0.35060
# Poissons Ratio (y) = 0.44310 0.35060
# Poissons Ratio (z) = 0.27022 0.27022
#
# Static dielectric constant tensor:
#      x y z
#    x 3.405590 0.000000 0.000000 
#    y 0.000000 3.405590 0.000000 
#    z 0.000000 0.000000 3.505230 
# 
# 
# High freq. dielectric constant tensor:
#      x y z
#    x 1.780400 0.000000 0.000000 
#    y 0.000000 1.780400 0.000000 
#    z 0.000000 0.000000 1.759200 
# 
# From -- ./inp_files/4774.got.cif
#   From: 2010.03.12/outbox.cif.g09.slc.cpg/sg94_3_cif.got.tgz:4774.got - 2010.04.08 20:48:32.
