data_PCOD8305572
_publ_section_title
;
Structure prediction by ZEFSAII (Michael W. Deem and Ramdas Pophale) SiO2 
 PCOD8305572
Probable space group: P 42 2 2
;
_chemical_formula_sum "Si O2"
_cell_formula_units_Z 28
_cell_length_a 17.597015
_cell_length_b 17.597015
_cell_length_c 4.955088
_cell_angle_alpha 90.000000
_cell_angle_beta 90.000000
_cell_angle_gamma 90.000000
_cell_volume 1534.367462
_symmetry_space_group_name_H-M "P 42 2 2"
_symmetry_group_IT_number 93
_symmetry_cell_setting 'tetragonal'
loop_
_space_group_symop_operation_xyz
x,y,z
-y,x,1/2+z
-x,-y,z
y,-x,1/2+z
x,-y,-z
-x,y,-z
y,x,1/2-z
-y,-x,1/2-z
loop_
_atom_site_type_symbol
_atom_site_label
_atom_site_fract_x
_atom_site_fract_y
_atom_site_fract_z
Si Si1 0.419788 0.691001 0.865122
Si Si2 0.088432 0.586131 0.446745
Si Si3 0.174117 0.634101 0.932884
Si Si4 0.283412 0.283412 0.750000
O O1 0.389269 0.610732 0.750000
O O2 0.422529 0.753759 0.624181
O O3 0.500000 0.675799 0.000000
O O4 0.361974 0.723822 0.087131
O O5 0.115068 0.500000 0.500000
O O6 0.130458 0.644792 0.649293
O O7 0.000000 0.596390 0.500000
O O8 0.111769 0.601763 0.139539
O O9 0.210744 0.713711 0.045944
#
# Coordination Sequence:
#
# PCOD8305572 Si02
#       4
#     8   8   8   4
#     4  10  22  37  56  78 101 139 190 241 294 339
#     4  11  23  35  54  83 110 140 176 223 289 342
#     4  11  21  36  55  77 108 138 181 231 270 335
#     4  10  22  36  55  82 100 142 194 227 282 346
#
# _framework density 18.248563999999998
#
# number of rings (size 3 to 8) (size 9 to 14) (size 15 to 20)
#    0.000    1.429    2.857    2.571    4.000    5.714 
#    0.000    2.143    0.000    1.714    0.000    0.000 
#    0.000    0.000    0.000    0.000    0.000   20.000 
#
# Total GULP energy -346923.543913 kJ/mol
# GULP energy per Si atom -12390.126568 kJ/mol
# Density = 1.820703 g / cm^3
# Si number density = 18.248564 Si / 1000 Ang^3
#
#
#
# Elastic Constant Matrix: (Units=GPa)
#
#
# Indices 1 2 3 4 5 6 
#
# 1 75.6733 26.8358 33.3137 0.0000 0.0000 0.0000
# 2 26.8358 75.6744 33.3138 0.0000 0.0000 0.0000
# 3 33.3137 33.3138 103.2149 0.0000 0.0000 0.0000
# 4 0.0000 0.0000 0.0000 33.0745 0.0000 0.0000
# 5 0.0000 0.0000 0.0000 0.0000 33.0742 0.0000
# 6 0.0000 0.0000 0.0000 0.0000 0.0000 11.0114
#
#
#
# Elastic Compliance Matrix: (Units=1/GPa)
#
#
# Indices 1 2 3 4 5 6 
#
# 1 0.016411 -0.004065 -0.003984 0.000000 0.000000 0.000000
# 2 -0.004065 0.016410 -0.003984 0.000000 0.000000 0.000000
# 3 -0.003984 -0.003984 0.012261 0.000000 0.000000 0.000000
# 4 0.000000 0.000000 0.000000 0.030235 0.000000 0.000000
# 5 0.000000 0.000000 0.000000 0.000000 0.030235 0.000000
# 6 0.000000 0.000000 0.000000 0.000000 0.000000 0.090815
#
#
# Mechanical properties :
#
#
# Convention : Reuss Voigt Hill
#
# Bulk Modulus (GPa) = 47.59050 49.05435 48.32242
# Shear Modulus (GPa) = 21.98389 26.17197 24.07793
#
# Velocity S-wave (km/s) = 3.47463 3.79118 3.63635
# Velocity P-wave (km/s) = 6.49870 6.78997 6.64593
#
# Compressibility (1/GPa) = 0.02101260
#
# Stress axis : x y z
#
# Youngs Moduli (GPa) = 60.93650 60.93752 81.56221
#
# Poissons Ratio (x) = 0.24774 0.32498
# Poissons Ratio (y) = 0.24773 0.32498
# Poissons Ratio (z) = 0.24280 0.24280
#
# Static dielectric constant tensor:
#      x y z
#    x 3.215270 0.000000 0.000000 
#    y 0.000000 3.215270 0.000000 
#    z 0.000000 0.000000 3.871790 
# 
# 
# High freq. dielectric constant tensor:
#      x y z
#    x 1.669420 0.000000 0.000000 
#    y 0.000000 1.669420 0.000000 
#    z 0.000000 0.000000 1.745260 
# 
# From -- ./inp_files/342.got.cif
#   From: 2010.03.12/outbox.cif.g09.slc.cpg/sg93_1_cif.got.tgz:342.got - 2010.04.08 20:44:19.
