data_PCOD8305749
_publ_section_title
;
Structure prediction by ZEFSAII (Michael W. Deem and Ramdas Pophale) SiO2 
 PCOD8305749
Probable space group: P 42 21 2
;
_chemical_formula_sum "Si O2"
_cell_formula_units_Z 36
_cell_length_a 8.717925
_cell_length_b 8.717925
_cell_length_c 22.912165
_cell_angle_alpha 90.000000
_cell_angle_beta 90.000000
_cell_angle_gamma 90.000000
_cell_volume 1741.375320
_symmetry_space_group_name_H-M "P 42 21 2"
_symmetry_group_IT_number 94
_symmetry_cell_setting 'tetragonal'
loop_
_space_group_symop_operation_xyz
x,y,z
1/2-y,1/2+x,1/2+z
-x,-y,z
1/2+y,1/2-x,1/2+z
1/2+x,1/2-y,1/2-z
1/2-x,1/2+y,1/2-z
y,x,-z
-y,-x,-z
loop_
_atom_site_type_symbol
_atom_site_label
_atom_site_fract_x
_atom_site_fract_y
_atom_site_fract_z
Si Si1 0.747152 0.505939 0.502214
Si Si2 0.000000 0.500000 0.907645
Si Si3 0.327411 0.991568 0.869521
Si Si4 0.312145 0.825458 0.175988
Si Si5 0.642430 0.390984 0.284992
O O1 0.680245 0.680245 0.500000
O O2 0.605266 0.394735 0.500000
O O3 0.839495 0.478463 0.561760
O O4 0.854506 0.462533 0.447879
O O5 0.149327 0.544324 0.867965
O O6 0.240949 0.831396 0.859359
O O7 0.500000 0.000000 0.843668
O O8 0.226454 0.123410 0.838715
O O9 0.346134 0.705191 0.226154
O O10 0.285183 0.997372 0.202129
O O11 0.500000 0.500000 0.275843
#
# Coordination Sequence:
#
# PCOD8305749 Si02
#       5
#     8   4   8   8   8
#     4  11  23  43  66  93 129 174 223 267 326 405
#     4  12  24  40  68 100 132 166 222 282 334 392
#     4  11  22  41  67  93 127 172 221 272 330 407
#     4  11  24  41  65  97 133 170 222 282 345 399
#     4  10  24  41  64  95 127 175 222 270 336 405
#
# _framework density 20.673316
#
# number of rings (size 3 to 8) (size 9 to 14) (size 15 to 20)
#    0.000    1.111    3.333    2.667   14.000    0.000 
#    4.000    0.000    0.000    1.333    0.000    0.000 
#    0.000    0.000    0.000    0.000    0.000    0.000 
#
# Total GULP energy -446265.694649 kJ/mol
# GULP energy per Si atom -12396.269296 kJ/mol
# Density = 2.062626 g / cm^3
# Si number density = 20.673316 Si / 1000 Ang^3
#
#
#
# Elastic Constant Matrix: (Units=GPa)
#
#
# Indices 1 2 3 4 5 6 
#
# 1 100.0971 31.3820 46.3825 0.0000 0.0000 0.0000
# 2 31.3820 100.0950 46.3823 0.0000 0.0000 0.0000
# 3 46.3825 46.3823 139.7376 0.0000 0.0000 0.0000
# 4 0.0000 0.0000 0.0000 30.5246 0.0000 0.0000
# 5 0.0000 0.0000 0.0000 0.0000 30.5226 0.0000
# 6 0.0000 0.0000 0.0000 0.0000 0.0000 15.3470
#
#
#
# Elastic Compliance Matrix: (Units=1/GPa)
#
#
# Indices 1 2 3 4 5 6 
#
# 1 0.012242 -0.002311 -0.003297 0.000000 0.000000 0.000000
# 2 -0.002311 0.012243 -0.003297 0.000000 0.000000 0.000000
# 3 -0.003297 -0.003297 0.009345 0.000000 0.000000 0.000000
# 4 0.000000 0.000000 0.000000 0.032760 0.000000 0.000000
# 5 0.000000 0.000000 0.000000 0.000000 0.032763 0.000000
# 6 0.000000 0.000000 0.000000 0.000000 0.000000 0.065159
#
#
# Mechanical properties :
#
#
# Convention : Reuss Voigt Hill
#
# Bulk Modulus (GPa) = 62.41480 65.35815 63.88647
# Shear Modulus (GPa) = 26.64387 29.66436 28.15411
#
# Velocity S-wave (km/s) = 3.59389 3.79213 3.69434
# Velocity P-wave (km/s) = 6.89042 7.13141 7.01195
#
# Compressibility (1/GPa) = 0.01602184
#
# Stress axis : x y z
#
# Youngs Moduli (GPa) = 81.68415 81.68232 107.01228
#
# Poissons Ratio (x) = 0.18874 0.35277
# Poissons Ratio (y) = 0.18874 0.35278
# Poissons Ratio (z) = 0.26928 0.26928
#
# Static dielectric constant tensor:
#      x y z
#    x 3.909840 0.000000 0.000000 
#    y 0.000000 3.909830 0.000000 
#    z 0.000000 0.000000 3.904750 
# 
# 
# High freq. dielectric constant tensor:
#      x y z
#    x 1.803360 0.000000 0.000000 
#    y 0.000000 1.803360 0.000000 
#    z 0.000000 0.000000 1.825600 
# 
# From -- ./inp_files/4553.got.cif
#   From: 2010.03.12/outbox.cif.g09.slc.cpg/sg94_3_cif.got.tgz:4553.got - 2010.04.08 20:48:32.
