data_PCOD8305034
_publ_section_title
;
Structure prediction by ZEFSAII (Michael W. Deem and Ramdas Pophale) SiO2 
 PCOD8305034
Probable space group: P 41 2 2
;
_chemical_formula_sum "Si O2"
_cell_formula_units_Z 32
_cell_length_a 9.412628
_cell_length_b 9.412628
_cell_length_c 16.882075
_cell_angle_alpha 90.000000
_cell_angle_beta 90.000000
_cell_angle_gamma 90.000000
_cell_volume 1495.710752
_symmetry_space_group_name_H-M "P 41 2 2"
_symmetry_group_IT_number 91
_symmetry_cell_setting 'tetragonal'
loop_
_space_group_symop_operation_xyz
x,y,z
-y,x,1/4+z
-x,-y,1/2+z
y,-x,3/4+z
x,-y,1/2-z
-x,y,-z
y,x,3/4-z
-y,-x,1/4-z
loop_
_atom_site_type_symbol
_atom_site_label
_atom_site_fract_x
_atom_site_fract_y
_atom_site_fract_z
Si Si1 0.500000 0.877902 0.500000
Si Si2 0.900262 0.699765 0.673560
Si Si3 0.844755 0.155246 0.125000
Si Si4 0.262290 0.662703 0.483170
Si Si5 0.653798 0.654091 0.780601
O O1 0.389028 0.770113 0.458259
O O2 0.578072 0.982502 0.440001
O O3 0.833384 0.645395 0.593019
O O4 0.783094 0.742862 0.740178
O O5 0.995933 0.839478 0.659761
O O6 0.723825 0.177643 0.191870
O O7 0.311927 0.502129 0.503711
O O8 0.696886 0.500000 0.750000
O O9 0.664581 0.664581 0.875000
#
# Coordination Sequence:
#
# PCOD8305034 Si02
#       5
#     4   8   4   8   8
#     4  10  22  40  68 102 136 180 232 302 356 430
#     4  11  23  44  69  97 145 181 238 297 367 431
#     4  10  26  44  70  94 136 196 234 296 352 450
#     4  11  23  40  73 102 136 185 246 292 364 431
#     4  12  23  39  69 114 144 177 232 312 367 418
#
# _framework density 21.394508999999999
#
# number of rings (size 3 to 8) (size 9 to 14) (size 15 to 20)
#    0.000    1.000    5.000    0.750    8.750    0.000 
#    0.000    0.000   57.750    0.000    0.000    0.000 
#    0.000    0.000    0.000    0.000    0.000    0.000 
#
# Total GULP energy -396523.714633 kJ/mol
# GULP energy per Si atom -12391.366082 kJ/mol
# Density = 2.134581 g / cm^3
# Si number density = 21.394509 Si / 1000 Ang^3
#
#
#
# Elastic Constant Matrix: (Units=GPa)
#
#
# Indices 1 2 3 4 5 6 
#
# 1 137.7373 54.8249 51.2060 0.0000 0.0000 0.0000
# 2 54.8249 137.7362 51.2059 0.0000 0.0000 0.0000
# 3 51.2060 51.2059 137.3115 0.0000 0.0000 0.0000
# 4 0.0000 0.0000 0.0000 26.6926 0.0000 0.0000
# 5 0.0000 0.0000 0.0000 0.0000 26.6927 0.0000
# 6 0.0000 0.0000 0.0000 0.0000 0.0000 17.6587
#
#
#
# Elastic Compliance Matrix: (Units=1/GPa)
#
#
# Indices 1 2 3 4 5 6 
#
# 1 0.009269 -0.002792 -0.002416 0.000000 0.000000 0.000000
# 2 -0.002792 0.009270 -0.002416 0.000000 0.000000 0.000000
# 3 -0.002416 -0.002416 0.009084 0.000000 0.000000 0.000000
# 4 0.000000 0.000000 0.000000 0.037464 0.000000 0.000000
# 5 0.000000 0.000000 0.000000 0.000000 0.037463 0.000000
# 6 0.000000 0.000000 0.000000 0.000000 0.000000 0.056629
#
#
# Mechanical properties :
#
#
# Convention : Reuss Voigt Hill
#
# Bulk Modulus (GPa) = 80.79265 80.80651 80.79958
# Shear Modulus (GPa) = 28.00313 31.24535 29.62424
#
# Velocity S-wave (km/s) = 3.62179 3.82571 3.72515
# Velocity P-wave (km/s) = 7.43875 7.57407 7.50672
#
# Compressibility (1/GPa) = 0.01237736
#
# Stress axis : x y z
#
# Youngs Moduli (GPa) = 107.88161 107.88067 110.07815
#
# Poissons Ratio (x) = 0.30115 0.26592
# Poissons Ratio (y) = 0.30116 0.26592
# Poissons Ratio (z) = 0.26061 0.26061
#
# Static dielectric constant tensor:
#      x y z
#    x 4.150800 0.000000 0.000000 
#    y 0.000000 4.150810 0.000000 
#    z 0.000000 0.000000 3.983600 
# 
# 
# High freq. dielectric constant tensor:
#      x y z
#    x 1.840240 0.000000 0.000000 
#    y 0.000000 1.840240 0.000000 
#    z 0.000000 0.000000 1.840460 
# 
# From -- ./inp_files/17154.got.cif
#   From: 2010.03.12/outbox.cif.g09.slc.cpg/sg91_9_cif.got.tgz:17154.got - 2010.04.08 20:27:58.
