data_PCOD8305723
_publ_section_title
;
Structure prediction by ZEFSAII (Michael W. Deem and Ramdas Pophale) SiO2 
 PCOD8305723
Probable space group: P 42 21 2
;
_chemical_formula_sum "Si O2"
_cell_formula_units_Z 48
_cell_length_a 8.991967
_cell_length_b 8.991967
_cell_length_c 28.068832
_cell_angle_alpha 90.000000
_cell_angle_beta 90.000000
_cell_angle_gamma 90.000000
_cell_volume 2269.518619
_symmetry_space_group_name_H-M "P 42 21 2"
_symmetry_group_IT_number 94
_symmetry_cell_setting 'tetragonal'
loop_
_space_group_symop_operation_xyz
x,y,z
1/2-y,1/2+x,1/2+z
-x,-y,z
1/2+y,1/2-x,1/2+z
1/2+x,1/2-y,1/2-z
1/2-x,1/2+y,1/2-z
y,x,-z
-y,-x,-z
loop_
_atom_site_type_symbol
_atom_site_label
_atom_site_fract_x
_atom_site_fract_y
_atom_site_fract_z
Si Si1 0.834507 0.971916 0.782724
Si Si2 0.278226 0.075902 0.526890
Si Si3 0.698973 0.195375 0.199802
Si Si4 0.669088 0.479326 0.873802
Si Si5 0.729097 0.923621 0.030353
Si Si6 0.896109 0.733552 0.857473
O O1 0.715442 0.885765 0.749973
O O2 0.850838 0.888363 0.833267
O O3 0.764200 0.130649 0.792871
O O4 0.000000 0.000000 0.759941
O O5 0.129681 0.129681 0.500000
O O6 0.259892 0.092357 0.583135
O O7 0.415329 0.180094 0.511398
O O8 0.308728 0.902694 0.516702
O O9 0.641256 0.330563 0.167701
O O10 0.668683 0.036603 0.173229
O O11 0.500000 0.500000 0.889999
O O12 0.754565 0.624675 0.853993
O O13 0.761872 0.932287 0.086907
O O14 0.873006 0.873006 0.000000
#
# Coordination Sequence:
#
# PCOD8305723 Si02
#       6
#     8   8   8   8   8   8
#     4  10  23  40  67  97 131 171 225 273 334 400
#     4  10  23  40  63  99 128 173 220 271 331 391
#     4  11  21  41  65  96 131 172 221 271 335 400
#     4  11  23  39  65  93 130 172 220 266 332 394
#     4  10  22  42  68  97 134 178 222 271 336 398
#     4  10  22  44  67  95 133 177 218 275 335 402
#
# _framework density 21.149858999999999
#
# number of rings (size 3 to 8) (size 9 to 14) (size 15 to 20)
#    0.000    1.667    1.667    2.000    4.667    4.333 
#    3.000    4.167    0.000    0.000    0.000    0.000 
#    0.000    0.000    0.000    0.000    0.000    0.000 
#
# Total GULP energy -594931.523482 kJ/mol
# GULP energy per Si atom -12394.406739 kJ/mol
# Density = 2.110172 g / cm^3
# Si number density = 21.149859 Si / 1000 Ang^3
#
#
#
# Elastic Constant Matrix: (Units=GPa)
#
#
# Indices 1 2 3 4 5 6 
#
# 1 89.6044 47.3883 42.0751 0.0000 0.0000 0.0000
# 2 47.3883 89.6044 42.0751 0.0000 0.0000 0.0000
# 3 42.0751 42.0751 85.7791 0.0000 0.0000 0.0000
# 4 0.0000 0.0000 0.0000 38.3097 0.0000 0.0000
# 5 0.0000 0.0000 0.0000 0.0000 38.3097 0.0000
# 6 0.0000 0.0000 0.0000 0.0000 0.0000 39.6337
#
#
#
# Elastic Compliance Matrix: (Units=1/GPa)
#
#
# Indices 1 2 3 4 5 6 
#
# 1 0.017068 -0.006620 -0.005125 0.000000 0.000000 0.000000
# 2 -0.006620 0.017068 -0.005125 0.000000 0.000000 0.000000
# 3 -0.005125 -0.005125 0.016685 0.000000 0.000000 0.000000
# 4 0.000000 0.000000 0.000000 0.026103 0.000000 0.000000
# 5 0.000000 0.000000 0.000000 0.000000 0.026103 0.000000
# 6 0.000000 0.000000 0.000000 0.000000 0.000000 0.025231
#
#
# Mechanical properties :
#
#
# Convention : Reuss Voigt Hill
#
# Bulk Modulus (GPa) = 58.54157 58.67389 58.60773
# Shear Modulus (GPa) = 29.81698 32.14725 30.98212
#
# Velocity S-wave (km/s) = 3.75880 3.90292 3.83153
# Velocity P-wave (km/s) = 6.82478 6.93632 6.88077
#
# Compressibility (1/GPa) = 0.01708188
#
# Stress axis : x y z
#
# Youngs Moduli (GPa) = 58.59067 58.59067 59.93374
#
# Poissons Ratio (x) = 0.38787 0.30713
# Poissons Ratio (y) = 0.38787 0.30713
# Poissons Ratio (z) = 0.30025 0.30025
#
# Static dielectric constant tensor:
#      x y z
#    x 3.852400 0.000000 0.000000 
#    y 0.000000 3.852400 0.000000 
#    z 0.000000 0.000000 3.771140 
# 
# 
# High freq. dielectric constant tensor:
#      x y z
#    x 1.827590 0.000000 0.000000 
#    y 0.000000 1.827590 0.000000 
#    z 0.000000 0.000000 1.827970 
# 
# From -- ./inp_files/5558.got.cif
#   From: 2010.03.12/outbox.cif.g09.slc.cpg/sg94_3_cif.got.tgz:5558.got - 2010.04.08 20:48:32.
