data_PCOD8305110
_publ_section_title
;
Structure prediction by ZEFSAII (Michael W. Deem and Ramdas Pophale) SiO2 
 PCOD8305110
Probable space group: P 41 2 2
;
_chemical_formula_sum "Si O2"
_cell_formula_units_Z 64
_cell_length_a 18.168959
_cell_length_b 18.168959
_cell_length_c 12.078301
_cell_angle_alpha 90.000000
_cell_angle_beta 90.000000
_cell_angle_gamma 90.000000
_cell_volume 3987.180881
_symmetry_space_group_name_H-M "P 41 2 2"
_symmetry_group_IT_number 91
_symmetry_cell_setting 'tetragonal'
loop_
_space_group_symop_operation_xyz
x,y,z
-y,x,1/4+z
-x,-y,1/2+z
y,-x,3/4+z
x,-y,1/2-z
-x,y,-z
y,x,3/4-z
-y,-x,1/4-z
loop_
_atom_site_type_symbol
_atom_site_label
_atom_site_fract_x
_atom_site_fract_y
_atom_site_fract_z
Si Si1 0.165338 0.282216 0.377997
Si Si2 0.816210 0.078161 0.260022
Si Si3 0.072114 0.366238 0.759473
Si Si4 0.084546 0.401239 0.520215
Si Si5 0.914626 0.567536 0.487597
Si Si6 0.952850 0.161117 0.608958
Si Si7 0.918480 0.794815 0.256184
Si Si8 0.912164 0.676386 0.662896
O O1 0.249862 0.249862 0.375000
O O2 0.146508 0.348426 0.464858
O O3 0.112926 0.216523 0.414660
O O4 0.149499 0.308580 0.253872
O O5 0.791231 0.095424 0.136470
O O6 0.868217 0.143560 0.303951
O O7 0.748634 0.066705 0.342894
O O8 0.859650 0.000000 0.250000
O O9 0.091057 0.413878 0.652129
O O10 0.110160 0.406537 0.864422
O O11 0.105649 0.287050 0.722697
O O12 0.984686 0.355922 0.777719
O O13 0.100209 0.483575 0.477242
O O14 0.000000 0.373820 0.500000
O O15 0.874569 0.617651 0.579690
O O16 0.000000 0.587145 0.500000
O O17 0.920800 0.079201 0.625000
O O18 0.000000 0.161794 0.500000
O O19 0.997867 0.187233 0.717984
#
# Coordination Sequence:
#
# PCOD8305110 Si02
#       8
#     8   8   8   8   8   8   8   8
#     4  11  23  35  51  70  96 131 163 200 248 304
#     4  11  21  34  50  67  88 122 173 215 261 296
#     4  11  18  33  51  72  95 123 158 210 260 307
#     4  11  20  34  50  75  99 126 162 202 254 306
#     4   9  20  32  53  75  96 121 155 209 258 305
#     4  11  24  36  47  63  88 123 163 209 261 301
#     4  11  22  33  50  66  87 126 165 220 261 301
#     4  11  19  36  52  69  97 122 161 206 253 308
#
# _framework density 16.051441000000001
#
# number of rings (size 3 to 8) (size 9 to 14) (size 15 to 20)
#    0.000    1.250    5.000    1.875    7.000    1.000 
#    0.000    0.000    0.000    0.000    0.000    0.000 
#    0.000    0.000    0.000    0.000    0.000   10.000 
#
# Total GULP energy -793023.266368 kJ/mol
# GULP energy per Si atom -12390.988537 kJ/mol
# Density = 1.601491 g / cm^3
# Si number density = 16.051441 Si / 1000 Ang^3
#
#
#
# Elastic Constant Matrix: (Units=GPa)
#
#
# Indices 1 2 3 4 5 6 
#
# 1 60.9749 28.0831 24.0443 0.0000 0.0000 0.0000
# 2 28.0831 60.9760 24.0445 0.0000 0.0000 0.0000
# 3 24.0443 24.0445 101.3069 0.0000 0.0000 0.0000
# 4 0.0000 0.0000 0.0000 16.8644 0.0000 0.0000
# 5 0.0000 0.0000 0.0000 0.0000 16.8633 0.0000
# 6 0.0000 0.0000 0.0000 0.0000 0.0000 11.7555
#
#
#
# Elastic Compliance Matrix: (Units=1/GPa)
#
#
# Indices 1 2 3 4 5 6 
#
# 1 0.021641 -0.008762 -0.003057 0.000000 0.000000 0.000000
# 2 -0.008762 0.021640 -0.003057 0.000000 0.000000 0.000000
# 3 -0.003057 -0.003057 0.011322 0.000000 0.000000 0.000000
# 4 0.000000 0.000000 0.000000 0.059296 0.000000 0.000000
# 5 0.000000 0.000000 0.000000 0.000000 0.059300 0.000000
# 6 0.000000 0.000000 0.000000 0.000000 0.000000 0.085066
#
#
# Mechanical properties :
#
#
# Convention : Reuss Voigt Hill
#
# Bulk Modulus (GPa) = 40.23627 41.73352 40.98489
# Shear Modulus (GPa) = 16.87473 18.90238 17.88855
#
# Velocity S-wave (km/s) = 3.24588 3.43536 3.34196
# Velocity P-wave (km/s) = 6.25852 6.46466 6.36243
#
# Compressibility (1/GPa) = 0.02485320
#
# Stress axis : x y z
#
# Youngs Moduli (GPa) = 46.20891 46.20970 88.32372
#
# Poissons Ratio (x) = 0.40487 0.26998
# Poissons Ratio (y) = 0.40486 0.26998
# Poissons Ratio (z) = 0.14125 0.14125
#
# Static dielectric constant tensor:
#      x y z
#    x 2.983150 0.000000 0.000000 
#    y 0.000000 2.983140 0.000000 
#    z 0.000000 0.000000 3.293470 
# 
# 
# High freq. dielectric constant tensor:
#      x y z
#    x 1.578240 0.000000 0.000000 
#    y 0.000000 1.578240 0.000000 
#    z 0.000000 0.000000 1.643930 
# 
# From -- ./inp_files/4043.got.cif
#   From: 2010.03.12/outbox.cif.g09.slc.cpg/sg91_3_cif.got.tgz:4043.got - 2010.04.08 20:27:58.
