data_PCOD8305463
_publ_section_title
;
Structure prediction by ZEFSAII (Michael W. Deem and Ramdas Pophale) SiO2 
 PCOD8305463
Probable space group: P 41 21 2
;
_chemical_formula_sum "Si O2"
_cell_formula_units_Z 48
_cell_length_a 11.499431
_cell_length_b 11.499431
_cell_length_c 17.383063
_cell_angle_alpha 90.000000
_cell_angle_beta 90.000000
_cell_angle_gamma 90.000000
_cell_volume 2298.682595
_symmetry_space_group_name_H-M "P 41 21 2"
_symmetry_group_IT_number 92
_symmetry_cell_setting 'tetragonal'
loop_
_space_group_symop_operation_xyz
x,y,z
1/2-y,1/2+x,1/4+z
-x,-y,1/2+z
1/2+y,1/2-x,3/4+z
1/2+x,1/2-y,3/4-z
1/2-x,1/2+y,1/4-z
y,x,-z
-y,-x,1/2-z
loop_
_atom_site_type_symbol
_atom_site_label
_atom_site_fract_x
_atom_site_fract_y
_atom_site_fract_z
Si Si1 0.469750 0.469750 0.500000
Si Si2 0.297188 0.016718 0.751634
Si Si3 0.095686 0.095686 0.500000
Si Si4 0.835077 0.446837 0.171027
Si Si5 0.624873 0.574996 0.379105
Si Si6 0.469032 0.124343 0.050864
Si Si7 0.080479 0.658292 0.372910
O O1 0.497695 0.336719 0.486355
O O2 0.512423 0.540232 0.426927
O O3 0.352648 0.064987 0.671510
O O4 0.321861 0.098512 0.824279
O O5 0.349426 0.893679 0.776158
O O6 0.080084 0.201335 0.439908
O O7 0.976610 0.107705 0.545386
O O8 0.899238 0.569673 0.194402
O O9 0.744726 0.528713 0.417021
O O10 0.619303 0.710788 0.369578
O O11 0.375876 0.047738 0.097718
O O12 0.417118 0.120637 0.965464
#
# Coordination Sequence:
#
# PCOD8305463 Si02
#       7
#     4   8   4   8   8   8   8
#     4  12  25  46  61  98 146 176 216 296 349 399
#     4  11  24  43  71  99 138 178 232 285 344 406
#     4  12  25  44  69 102 132 184 230 278 347 417
#     4  11  23  45  70 101 133 179 231 280 342 410
#     4  12  26  45  66  99 139 181 229 281 351 407
#     4  11  23  45  70  99 136 181 230 284 337 410
#     4  11  24  43  72 100 133 183 233 279 340 414
#
# _framework density 20.881526999999998
#
# number of rings (size 3 to 8) (size 9 to 14) (size 15 to 20)
#    0.000    0.667    3.333    6.500    2.333    4.000 
#    3.000    0.000    0.000    0.000    0.000    0.000 
#    0.000    0.000    0.000    0.000    0.000    0.000 
#
# Total GULP energy -594714.153449 kJ/mol
# GULP energy per Si atom -12389.878197 kJ/mol
# Density = 2.083400 g / cm^3
# Si number density = 20.881527 Si / 1000 Ang^3
#
#
#
# Elastic Constant Matrix: (Units=GPa)
#
#
# Indices 1 2 3 4 5 6 
#
# 1 59.6219 34.4947 22.1298 0.0000 0.0000 0.0000
# 2 34.4947 59.6219 22.1298 0.0000 0.0000 0.0000
# 3 22.1298 22.1298 138.5176 0.0000 0.0000 0.0000
# 4 0.0000 0.0000 0.0000 56.9882 0.0000 0.0000
# 5 0.0000 0.0000 0.0000 0.0000 56.9882 0.0000
# 6 0.0000 0.0000 0.0000 0.0000 0.0000 14.2674
#
#
#
# Elastic Compliance Matrix: (Units=1/GPa)
#
#
# Indices 1 2 3 4 5 6 
#
# 1 0.025643 -0.014155 -0.001835 0.000000 0.000000 0.000000
# 2 -0.014155 0.025643 -0.001835 0.000000 0.000000 0.000000
# 3 -0.001835 -0.001835 0.007806 0.000000 0.000000 0.000000
# 4 0.000000 0.000000 0.000000 0.017547 0.000000 0.000000
# 5 0.000000 0.000000 0.000000 0.000000 0.017547 0.000000
# 6 0.000000 0.000000 0.000000 0.000000 0.000000 0.070090
#
#
# Mechanical properties :
#
#
# Convention : Reuss Voigt Hill
#
# Bulk Modulus (GPa) = 42.66084 46.14110 44.40097
# Shear Modulus (GPa) = 24.06843 37.58257 30.82550
#
# Velocity S-wave (km/s) = 3.39871 4.24701 3.84631
# Velocity P-wave (km/s) = 5.98965 6.79662 6.40585
#
# Compressibility (1/GPa) = 0.02344070
#
# Stress axis : x y z
#
# Youngs Moduli (GPa) = 38.99716 38.99716 128.11077
#
# Poissons Ratio (x) = 0.55199 0.23513
# Poissons Ratio (y) = 0.55199 0.23513
# Poissons Ratio (z) = 0.07157 0.07157
#
# Static dielectric constant tensor:
#      x y z
#    x 3.777340 0.000000 0.000000 
#    y 0.000000 3.777340 0.000000 
#    z 0.000000 0.000000 3.997850 
# 
# 
# High freq. dielectric constant tensor:
#      x y z
#    x 1.818610 0.000000 0.000000 
#    y 0.000000 1.818610 0.000000 
#    z 0.000000 0.000000 1.841870 
# 
# From -- ./inp_files/3163.got.cif
#   From: 2010.03.12/outbox.cif.g09.slc.cpg/sg92_2_cif.got.tgz:3163.got - 2010.04.08 20:41:11.
