data_PCOD8305579
_publ_section_title
;
Structure prediction by ZEFSAII (Michael W. Deem and Ramdas Pophale) SiO2 
 PCOD8305579
Probable space group: P 42 2 2
;
_chemical_formula_sum "Si O2"
_cell_formula_units_Z 36
_cell_length_a 9.016653
_cell_length_b 9.016653
_cell_length_c 20.171398
_cell_angle_alpha 90.000000
_cell_angle_beta 90.000000
_cell_angle_gamma 90.000000
_cell_volume 1639.935289
_symmetry_space_group_name_H-M "P 42 2 2"
_symmetry_group_IT_number 93
_symmetry_cell_setting 'tetragonal'
loop_
_space_group_symop_operation_xyz
x,y,z
-y,x,1/2+z
-x,-y,z
y,-x,1/2+z
x,-y,-z
-x,y,-z
y,x,1/2-z
-y,-x,1/2-z
loop_
_atom_site_type_symbol
_atom_site_label
_atom_site_fract_x
_atom_site_fract_y
_atom_site_fract_z
Si Si1 0.669055 0.951558 0.648170
Si Si2 0.713307 0.713307 0.750000
Si Si3 0.821484 0.259178 0.441882
Si Si4 0.219489 0.849056 0.903991
Si Si5 0.673168 0.498986 0.373405
O O1 0.698757 0.877912 0.719639
O O2 0.687230 0.829416 0.591415
O O3 0.500000 0.000000 0.643885
O O4 0.795126 0.072573 0.633041
O O5 0.584975 0.693622 0.804072
O O6 0.825259 0.210032 0.517313
O O7 0.769616 0.428803 0.433656
O O8 0.973226 0.238819 0.398728
O O9 0.340125 0.747082 0.867186
O O10 0.500000 0.500000 0.392485
#
# Coordination Sequence:
#
# PCOD8305579 Si02
#       5
#     8   4   8   8   8
#     4  11  24  42  65  93 125 169 219 271 324 390
#     4  10  25  46  59  86 130 166 214 268 320 376
#     4  10  23  41  63  98 135 163 206 266 337 405
#     4  11  22  41  68  96 130 170 209 265 334 398
#     4  11  23  41  65  92 127 173 220 270 325 388
#
# _framework density 21.952086000000001
#
# number of rings (size 3 to 8) (size 9 to 14) (size 15 to 20)
#    0.000    1.333    0.000    5.667    0.000   12.444 
#    0.000   15.556    0.000    0.000    0.000    0.000 
#    0.000    0.000    0.000    0.000    0.000    0.000 
#
# Total GULP energy -446181.758011 kJ/mol
# GULP energy per Si atom -12393.937723 kJ/mol
# Density = 2.190212 g / cm^3
# Si number density = 21.952086 Si / 1000 Ang^3
#
#
#
# Elastic Constant Matrix: (Units=GPa)
#
#
# Indices 1 2 3 4 5 6 
#
# 1 96.8131 45.1881 44.0322 0.0000 0.0000 0.0000
# 2 45.1881 96.8131 44.0322 0.0000 0.0000 0.0000
# 3 44.0322 44.0322 72.3958 0.0000 0.0000 0.0000
# 4 0.0000 0.0000 0.0000 32.7089 0.0000 0.0000
# 5 0.0000 0.0000 0.0000 0.0000 32.7089 0.0000
# 6 0.0000 0.0000 0.0000 0.0000 0.0000 48.6974
#
#
#
# Elastic Compliance Matrix: (Units=1/GPa)
#
#
# Indices 1 2 3 4 5 6 
#
# 1 0.015339 -0.004032 -0.006877 0.000000 0.000000 0.000000
# 2 -0.004032 0.015339 -0.006877 0.000000 0.000000 0.000000
# 3 -0.006877 -0.006877 0.022179 0.000000 0.000000 0.000000
# 4 0.000000 0.000000 0.000000 0.030573 0.000000 0.000000
# 5 0.000000 0.000000 0.000000 0.000000 0.030573 0.000000
# 6 0.000000 0.000000 0.000000 0.000000 0.000000 0.020535
#
#
# Mechanical properties :
#
#
# Convention : Reuss Voigt Hill
#
# Bulk Modulus (GPa) = 57.85641 59.16967 58.51304
# Shear Modulus (GPa) = 28.43006 31.67433 30.05219
#
# Velocity S-wave (km/s) = 3.60265 3.80265 3.70400
# Velocity P-wave (km/s) = 6.61199 6.80388 6.70862
#
# Compressibility (1/GPa) = 0.01728417
#
# Stress axis : x y z
#
# Youngs Moduli (GPa) = 65.19401 65.19401 45.08849
#
# Poissons Ratio (x) = 0.26284 0.31008
# Poissons Ratio (y) = 0.26284 0.31008
# Poissons Ratio (z) = 0.44835 0.44835
#
# Static dielectric constant tensor:
#      x y z
#    x 4.221390 0.000000 0.000000 
#    y 0.000000 4.221390 0.000000 
#    z 0.000000 0.000000 3.854680 
# 
# 
# High freq. dielectric constant tensor:
#      x y z
#    x 1.877520 0.000000 0.000000 
#    y 0.000000 1.877520 0.000000 
#    z 0.000000 0.000000 1.857190 
# 
# From -- ./inp_files/6039.got.cif
#   From: 2010.03.12/outbox.cif.g09.slc.cpg/sg93_4_cif.got.tgz:6039.got - 2010.04.08 20:44:19.
