data_PCOD8305410
_publ_section_title
;
Structure prediction by ZEFSAII (Michael W. Deem and Ramdas Pophale) SiO2 
 PCOD8305410
Probable space group: P 41 21 2
;
_chemical_formula_sum "Si O2"
_cell_formula_units_Z 60
_cell_length_a 18.644002
_cell_length_b 18.644002
_cell_length_c 7.545270
_cell_angle_alpha 90.000000
_cell_angle_beta 90.000000
_cell_angle_gamma 90.000000
_cell_volume 2622.726877
_symmetry_space_group_name_H-M "P 41 21 2"
_symmetry_group_IT_number 92
_symmetry_cell_setting 'tetragonal'
loop_
_space_group_symop_operation_xyz
x,y,z
1/2-y,1/2+x,1/4+z
-x,-y,1/2+z
1/2+y,1/2-x,3/4+z
1/2+x,1/2-y,3/4-z
1/2-x,1/2+y,1/4-z
y,x,-z
-y,-x,1/2-z
loop_
_atom_site_type_symbol
_atom_site_label
_atom_site_fract_x
_atom_site_fract_y
_atom_site_fract_z
Si Si1 0.667199 0.656497 0.698820
Si Si2 0.521320 0.613046 0.784260
Si Si3 0.493086 0.493086 0.000000
Si Si4 0.236599 0.220938 0.698964
Si Si5 0.261225 0.977948 0.990676
Si Si6 0.804360 0.429195 0.088420
Si Si7 0.578823 0.042957 0.539594
Si Si8 0.217604 0.070887 0.316169
O O1 0.641208 0.641208 0.500000
O O2 0.592413 0.662200 0.810919
O O3 0.711961 0.730731 0.693305
O O4 0.715506 0.593866 0.781510
O O5 0.487513 0.581173 0.967263
O O6 0.546108 0.540947 0.672582
O O7 0.458224 0.648652 0.670059
O O8 0.246417 0.246417 0.500000
O O9 0.280214 0.148172 0.736110
O O10 0.153318 0.208110 0.740687
O O11 0.225474 0.030782 0.131417
O O12 0.337095 0.957811 0.079043
O O13 0.268904 0.012344 0.794442
O O14 0.890293 0.437384 0.091515
O O15 0.782137 0.440419 0.292893
O O16 0.534102 0.055036 0.717034
#
# Coordination Sequence:
#
# PCOD8305410 Si02
#       8
#     8   8   4   8   8   8   8   8
#     4  12  24  44  66 103 142 178 230 288 341 433
#     4  11  24  44  67 103 136 182 233 285 346 426
#     4  10  24  40  68  94 138 180 226 284 350 402
#     4  10  25  44  70  99 139 177 235 281 349 412
#     4  11  24  44  68  97 142 174 233 278 359 405
#     4  10  24  45  67  99 136 181 225 290 341 421
#     4  10  23  43  67  97 134 175 231 291 344 415
#     4  11  25  45  69 103 133 182 231 290 341 420
#
# _framework density 22.876954000000001
#
# number of rings (size 3 to 8) (size 9 to 14) (size 15 to 20)
#    0.000    1.333    3.333    0.000   12.133    0.000 
#    2.400    0.000    0.000    0.000    0.000    0.000 
#    0.000    0.000    0.000    0.000    0.000    0.000 
#
# Total GULP energy -743389.371790 kJ/mol
# GULP energy per Si atom -12389.822863 kJ/mol
# Density = 2.282489 g / cm^3
# Si number density = 22.876954 Si / 1000 Ang^3
#
#
#
# Elastic Constant Matrix: (Units=GPa)
#
#
# Indices 1 2 3 4 5 6 
#
# 1 104.1846 36.8211 -1.6809 0.0000 0.0000 0.0000
# 2 36.8211 104.1846 -1.6809 0.0000 0.0000 0.0000
# 3 -1.6809 -1.6809 33.0880 0.0000 0.0000 0.0000
# 4 0.0000 0.0000 0.0000 30.8837 0.0000 0.0000
# 5 0.0000 0.0000 0.0000 0.0000 30.8837 0.0000
# 6 0.0000 0.0000 0.0000 0.0000 0.0000 34.9157
#
#
#
# Elastic Compliance Matrix: (Units=1/GPa)
#
#
# Indices 1 2 3 4 5 6 
#
# 1 0.010973 -0.003872 0.000361 0.000000 0.000000 0.000000
# 2 -0.003872 0.010973 0.000361 0.000000 0.000000 0.000000
# 3 0.000361 0.000361 0.030259 0.000000 0.000000 0.000000
# 4 0.000000 0.000000 0.000000 0.032380 0.000000 0.000000
# 5 0.000000 0.000000 0.000000 0.000000 0.032380 0.000000
# 6 0.000000 0.000000 0.000000 0.000000 0.000000 0.028640
#
#
# Mechanical properties :
#
#
# Convention : Reuss Voigt Hill
#
# Bulk Modulus (GPa) = 21.78507 34.26396 28.02451
# Shear Modulus (GPa) = 29.90316 33.20315 31.55315
#
# Velocity S-wave (km/s) = 3.61935 3.81383 3.71786
# Velocity P-wave (km/s) = 5.19708 5.86547 5.54136
#
# Compressibility (1/GPa) = 0.04590301
#
# Stress axis : x y z
#
# Youngs Moduli (GPa) = 91.13553 91.13553 33.04790
#
# Poissons Ratio (x) = 0.35289 -0.01192
# Poissons Ratio (y) = 0.35289 -0.01192
# Poissons Ratio (z) = -0.03287 -0.03287
#
# Static dielectric constant tensor:
#      x y z
#    x 4.247670 0.000000 0.000000 
#    y 0.000000 4.247670 0.000000 
#    z 0.000000 0.000000 3.948990 
# 
# 
# High freq. dielectric constant tensor:
#      x y z
#    x 1.909410 0.000000 0.000000 
#    y 0.000000 1.909410 0.000000 
#    z 0.000000 0.000000 1.887780 
# 
# From -- ./inp_files/1649.got.cif
#   From: 2010.03.12/outbox.cif.g09.slc.cpg/sg92_1_cif.got.tgz:1649.got - 2010.04.08 20:41:11.
