data_PCOD8305497
_publ_section_title
;
Structure prediction by ZEFSAII (Michael W. Deem and Ramdas Pophale) SiO2 
 PCOD8305497
Probable space group: P 41 21 2
;
_chemical_formula_sum "Si O2"
_cell_formula_units_Z 36
_cell_length_a 12.135122
_cell_length_b 12.135122
_cell_length_c 10.935614
_cell_angle_alpha 90.000000
_cell_angle_beta 90.000000
_cell_angle_gamma 90.000000
_cell_volume 1610.391487
_symmetry_space_group_name_H-M "P 41 21 2"
_symmetry_group_IT_number 92
_symmetry_cell_setting 'tetragonal'
loop_
_space_group_symop_operation_xyz
x,y,z
1/2-y,1/2+x,1/4+z
-x,-y,1/2+z
1/2+y,1/2-x,3/4+z
1/2+x,1/2-y,3/4-z
1/2-x,1/2+y,1/4-z
y,x,-z
-y,-x,1/2-z
loop_
_atom_site_type_symbol
_atom_site_label
_atom_site_fract_x
_atom_site_fract_y
_atom_site_fract_z
Si Si1 0.251645 0.656879 0.966583
Si Si2 0.394818 0.605183 0.750000
Si Si3 0.510943 0.919648 0.452188
Si Si4 0.869019 0.130634 0.392020
Si Si5 0.762579 0.903485 0.410253
O O1 0.286297 0.607504 0.835409
O O2 0.168233 0.759050 0.959892
O O3 0.190258 0.563863 0.047104
O O4 0.366638 0.696982 0.025959
O O5 0.394505 0.495249 0.670324
O O6 0.475905 0.998770 0.337529
O O7 0.633906 0.883304 0.424442
O O8 0.851212 0.148789 0.250000
O O9 0.793111 0.029742 0.437297
O O10 0.820608 0.820608 0.500000
#
# Coordination Sequence:
#
# PCOD8305497 Si02
#       5
#     8   4   8   8   8
#     4  12  27  48  74 110 149 201 255 312 384 454
#     4  12  26  46  74 112 152 198 260 316 382 460
#     4  12  28  48  76 112 155 200 254 323 385 464
#     4  12  26  46  75 108 154 195 246 313 378 457
#     4  12  26  49  72 108 147 199 252 308 380 454
#
# _framework density 22.354813
#
# number of rings (size 3 to 8) (size 9 to 14) (size 15 to 20)
#    0.000    0.000    6.667    2.667    3.111    3.556 
#    0.000    0.000    0.000    0.000    0.000    0.000 
#    0.000    0.000    0.000    0.000    0.000    0.000 
#
# Total GULP energy -446560.459350 kJ/mol
# GULP energy per Si atom -12404.457204 kJ/mol
# Density = 2.230393 g / cm^3
# Si number density = 22.354813 Si / 1000 Ang^3
#
#
#
# Elastic Constant Matrix: (Units=GPa)
#
#
# Indices 1 2 3 4 5 6 
#
# 1 123.1201 69.8745 27.4610 0.0000 0.0000 0.0000
# 2 69.8745 123.1217 27.4608 0.0000 0.0000 0.0000
# 3 27.4610 27.4608 103.9787 0.0000 0.0000 0.0000
# 4 0.0000 0.0000 0.0000 39.3942 0.0000 0.0000
# 5 0.0000 0.0000 0.0000 0.0000 39.3941 0.0000
# 6 0.0000 0.0000 0.0000 0.0000 0.0000 32.8107
#
#
#
# Elastic Compliance Matrix: (Units=1/GPa)
#
#
# Indices 1 2 3 4 5 6 
#
# 1 0.012192 -0.006589 -0.001480 0.000000 0.000000 0.000000
# 2 -0.006589 0.012191 -0.001480 0.000000 0.000000 0.000000
# 3 -0.001480 -0.001480 0.010399 0.000000 0.000000 0.000000
# 4 0.000000 0.000000 0.000000 0.025384 0.000000 0.000000
# 5 0.000000 0.000000 0.000000 0.000000 0.025385 0.000000
# 6 0.000000 0.000000 0.000000 0.000000 0.000000 0.030478
#
#
# Mechanical properties :
#
#
# Convention : Reuss Voigt Hill
#
# Bulk Modulus (GPa) = 63.75343 66.64591 65.19967
# Shear Modulus (GPa) = 35.62419 37.34805 36.48612
#
# Velocity S-wave (km/s) = 3.99630 4.09185 4.04435
# Velocity P-wave (km/s) = 7.06220 7.22508 7.14410
#
# Compressibility (1/GPa) = 0.01568543
#
# Stress axis : x y z
#
# Youngs Moduli (GPa) = 82.02323 82.02444 96.16397
#
# Poissons Ratio (x) = 0.54046 0.14229
# Poissons Ratio (y) = 0.54045 0.14228
# Poissons Ratio (z) = 0.12137 0.12136
#
# Static dielectric constant tensor:
#      x y z
#    x 4.025580 0.000000 0.000000 
#    y 0.000000 4.025600 0.000000 
#    z 0.000000 0.000000 4.382170 
# 
# 
# High freq. dielectric constant tensor:
#      x y z
#    x 1.884850 0.000000 0.000000 
#    y 0.000000 1.884850 0.000000 
#    z 0.000000 0.000000 1.897070 
# 
# From -- ./inp_files/1976.got.cif
#   From: 2010.03.12/outbox.cif.g09.slc.cpg/sg92_1_cif.got.tgz:1976.got - 2010.04.08 20:41:11.
