data_PCOD8305354
_publ_section_title
;
Structure prediction by ZEFSAII (Michael W. Deem and Ramdas Pophale) SiO2 
 PCOD8305354
Probable space group: P 41 21 2
;
_chemical_formula_sum "Si O2"
_cell_formula_units_Z 32
_cell_length_a 9.129827
_cell_length_b 9.129827
_cell_length_c 18.293615
_cell_angle_alpha 90.000000
_cell_angle_beta 90.000000
_cell_angle_gamma 90.000000
_cell_volume 1524.841248
_symmetry_space_group_name_H-M "P 41 21 2"
_symmetry_group_IT_number 92
_symmetry_cell_setting 'tetragonal'
loop_
_space_group_symop_operation_xyz
x,y,z
1/2-y,1/2+x,1/4+z
-x,-y,1/2+z
1/2+y,1/2-x,3/4+z
1/2+x,1/2-y,3/4-z
1/2-x,1/2+y,1/4-z
y,x,-z
-y,-x,1/2-z
loop_
_atom_site_type_symbol
_atom_site_label
_atom_site_fract_x
_atom_site_fract_y
_atom_site_fract_z
Si Si1 0.906245 0.991413 0.077610
Si Si2 0.685998 0.814831 0.162934
Si Si3 0.292645 0.636824 0.167513
Si Si4 0.619631 0.905192 0.322892
O O1 0.808082 0.140142 0.073737
O O2 0.069785 0.032856 0.101945
O O3 0.841668 0.876828 0.136218
O O4 0.909688 0.909688 0.000000
O O5 0.641747 0.898942 0.236327
O O6 0.568793 0.853650 0.100174
O O7 0.306086 0.693915 0.250000
O O8 0.289915 0.771225 0.111717
O O9 0.143698 0.545698 0.158088
#
# Coordination Sequence:
#
# PCOD8305354 Si02
#       4
#     8   8   8   8
#     4  10  22  44  63  92 136 171 213 274 328 380
#     4  11  25  39  69  98 133 174 221 276 327 401
#     4  10  21  45  64  89 133 171 214 276 325 387
#     4  11  22  44  65  98 130 174 223 272 329 392
#
# _framework density 20.985789
#
# number of rings (size 3 to 8) (size 9 to 14) (size 15 to 20)
#    0.000    1.500    7.500    0.000    3.500    7.000 
#    4.500    0.000    0.000    0.000    0.000    0.000 
#    0.000    0.000    0.000    0.000    0.000    0.000 
#
# Total GULP energy -396835.042867 kJ/mol
# GULP energy per Si atom -12401.095090 kJ/mol
# Density = 2.093802 g / cm^3
# Si number density = 20.985789 Si / 1000 Ang^3
#
#
#
# Elastic Constant Matrix: (Units=GPa)
#
#
# Indices 1 2 3 4 5 6 
#
# 1 52.3559 10.0203 26.6272 0.0000 0.0000 0.0000
# 2 10.0203 52.3558 26.6272 0.0000 0.0000 0.0000
# 3 26.6272 26.6272 87.9629 0.0000 0.0000 0.0000
# 4 0.0000 0.0000 0.0000 35.7154 0.0000 0.0000
# 5 0.0000 0.0000 0.0000 0.0000 35.7154 0.0000
# 6 0.0000 0.0000 0.0000 0.0000 0.0000 40.7659
#
#
#
# Elastic Compliance Matrix: (Units=1/GPa)
#
#
# Indices 1 2 3 4 5 6 
#
# 1 0.022620 -0.001001 -0.006544 0.000000 0.000000 0.000000
# 2 -0.001001 0.022620 -0.006544 0.000000 0.000000 0.000000
# 3 -0.006544 -0.006544 0.015330 0.000000 0.000000 0.000000
# 4 0.000000 0.000000 0.000000 0.027999 0.000000 0.000000
# 5 0.000000 0.000000 0.000000 0.000000 0.027999 0.000000
# 6 0.000000 0.000000 0.000000 0.000000 0.000000 0.024530
#
#
# Mechanical properties :
#
#
# Convention : Reuss Voigt Hill
#
# Bulk Modulus (GPa) = 30.87242 35.46934 33.17088
# Shear Modulus (GPa) = 27.76622 31.06599 29.41611
#
# Velocity S-wave (km/s) = 3.64139 3.85169 3.74801
# Velocity P-wave (km/s) = 5.69409 6.05962 5.87969
#
# Compressibility (1/GPa) = 0.03239137
#
# Stress axis : x y z
#
# Youngs Moduli (GPa) = 44.20891 44.20878 65.22959
#
# Poissons Ratio (x) = 0.04425 0.42688
# Poissons Ratio (y) = 0.04425 0.42688
# Poissons Ratio (z) = 0.28932 0.28932
#
# Static dielectric constant tensor:
#      x y z
#    x 3.750910 0.000000 0.000000 
#    y 0.000000 3.750910 0.000000 
#    z 0.000000 0.000000 3.723640 
# 
# 
# High freq. dielectric constant tensor:
#      x y z
#    x 1.815490 0.000000 0.000000 
#    y 0.000000 1.815490 0.000000 
#    z 0.000000 0.000000 1.823370 
# 
# From -- ./inp_files/3364.got.cif
#   From: 2010.03.12/outbox.cif.g09.slc.cpg/sg92_2_cif.got.tgz:3364.got - 2010.04.08 20:41:11.
