data_PCOD8305248
_publ_section_title
;
Structure prediction by ZEFSAII (Michael W. Deem and Ramdas Pophale) SiO2 
 PCOD8305248
Probable space group: P 41 21 2
;
_chemical_formula_sum "Si O2"
_cell_formula_units_Z 64
_cell_length_a 28.011905
_cell_length_b 28.011905
_cell_length_c 5.401577
_cell_angle_alpha 90.000000
_cell_angle_beta 90.000000
_cell_angle_gamma 90.000000
_cell_volume 4238.438257
_symmetry_space_group_name_H-M "P 41 21 2"
_symmetry_group_IT_number 92
_symmetry_cell_setting 'tetragonal'
loop_
_space_group_symop_operation_xyz
x,y,z
1/2-y,1/2+x,1/4+z
-x,-y,1/2+z
1/2+y,1/2-x,3/4+z
1/2+x,1/2-y,3/4-z
1/2-x,1/2+y,1/4-z
y,x,-z
-y,-x,1/2-z
loop_
_atom_site_type_symbol
_atom_site_label
_atom_site_fract_x
_atom_site_fract_y
_atom_site_fract_z
Si Si1 0.458570 0.195184 0.179532
Si Si2 0.194536 0.840357 0.998562
Si Si3 0.239823 0.725315 0.497017
Si Si4 0.555262 0.152343 0.215623
Si Si5 0.531999 0.060157 0.468607
Si Si6 0.650218 0.162764 0.461309
Si Si7 0.397608 0.908395 0.331313
Si Si8 0.412917 0.226969 0.662882
O O1 0.516283 0.193374 0.168328
O O2 0.438028 0.142062 0.234560
O O3 0.444772 0.229496 0.411480
O O4 0.441906 0.212172 0.908316
O O5 0.162701 0.837299 0.750000
O O6 0.221711 0.890867 0.980900
O O7 0.162397 0.837604 0.250000
O O8 0.231514 0.797196 0.005784
O O9 0.272277 0.727724 0.250000
O O10 0.212987 0.674655 0.473734
O O11 0.271231 0.728770 0.750000
O O12 0.536689 0.116825 0.428166
O O13 0.606568 0.175447 0.278847
O O14 0.561755 0.117277 0.987174
O O15 0.476541 0.048728 0.508820
O O16 0.572081 0.051823 0.681188
O O17 0.630699 0.133975 0.694380
O O18 0.690017 0.128892 0.335575
#
# Coordination Sequence:
#
# PCOD8305248 Si02
#       8
#     8   8   8   8   8   8   8   8
#     4  11  22  32  48  60  85 111 143 180 225 262
#     4   9  16  28  48  68  87 105 127 157 209 274
#     4   9  18  29  47  70  91 105 128 164 215 274
#     4  11  22  34  47  58  81 111 152 180 226 279
#     4  11  25  34  44  59  75 100 142 201 248 278
#     4   9  20  32  49  64  84 112 138 175 223 275
#     4  10  21  35  47  58  80 107 147 184 232 282
#     4  10  20  34  46  67  87 108 135 176 222 268
#
# _framework density 15.099900999999999
#
# number of rings (size 3 to 8) (size 9 to 14) (size 15 to 20)
#    0.000    2.000    1.250    2.250   12.250    3.000 
#    0.000    0.000    0.000    0.000    0.000    0.000 
#    0.000    0.000    0.000    0.000    0.000    0.000 
#
# Total GULP energy -792942.375038 kJ/mol
# GULP energy per Si atom -12389.724610 kJ/mol
# Density = 1.506553 g / cm^3
# Si number density = 15.099901 Si / 1000 Ang^3
#
#
#
# Elastic Constant Matrix: (Units=GPa)
#
#
# Indices 1 2 3 4 5 6 
#
# 1 38.5622 25.5571 12.4459 0.0000 0.0000 0.0000
# 2 25.5571 38.5621 12.4458 0.0000 0.0000 0.0000
# 3 12.4459 12.4458 77.4108 0.0000 0.0000 0.0000
# 4 0.0000 0.0000 0.0000 15.5705 0.0000 0.0000
# 5 0.0000 0.0000 0.0000 0.0000 15.5705 0.0000
# 6 0.0000 0.0000 0.0000 0.0000 0.0000 27.6601
#
#
#
# Elastic Compliance Matrix: (Units=1/GPa)
#
#
# Indices 1 2 3 4 5 6 
#
# 1 0.046764 -0.030129 -0.002674 0.000000 0.000000 0.000000
# 2 -0.030129 0.046764 -0.002674 0.000000 0.000000 0.000000
# 3 -0.002674 -0.002674 0.013778 0.000000 0.000000 0.000000
# 4 0.000000 0.000000 0.000000 0.064224 0.000000 0.000000
# 5 0.000000 0.000000 0.000000 0.000000 0.064224 0.000000
# 6 0.000000 0.000000 0.000000 0.000000 0.000000 0.036153
#
#
# Mechanical properties :
#
#
# Convention : Reuss Voigt Hill
#
# Bulk Modulus (GPa) = 27.51121 28.38142 27.94632
# Shear Modulus (GPa) = 14.08534 18.69931 16.39233
#
# Velocity S-wave (km/s) = 3.05751 3.52287 3.29841
# Velocity P-wave (km/s) = 5.54288 5.94845 5.74924
#
# Compressibility (1/GPa) = 0.03634882
#
# Stress axis : x y z
#
# Youngs Moduli (GPa) = 21.38418 21.38414 72.57918
#
# Poissons Ratio (x) = 0.64429 0.19411
# Poissons Ratio (y) = 0.64429 0.19410
# Poissons Ratio (z) = 0.05719 0.05719
#
# Static dielectric constant tensor:
#      x y z
#    x 2.727240 0.000000 0.000000 
#    y 0.000000 2.727240 0.000000 
#    z 0.000000 0.000000 3.079600 
# 
# 
# High freq. dielectric constant tensor:
#      x y z
#    x 1.537360 0.000000 0.000000 
#    y 0.000000 1.537360 0.000000 
#    z 0.000000 0.000000 1.595590 
# 
# From -- ./inp_files/871.got.cif
#   From: 2010.03.12/outbox.cif.g09.slc.cpg/sg92_1_cif.got.tgz:871.got - 2010.04.08 20:41:11.
