data_PCOD8305896
_publ_section_title
;
Structure prediction by ZEFSAII (Michael W. Deem and Ramdas Pophale) SiO2 
 PCOD8305896
Probable space group: P 43 21 2
;
_chemical_formula_sum "Si O2"
_cell_formula_units_Z 40
_cell_length_a 15.090927
_cell_length_b 15.090927
_cell_length_c 8.813307
_cell_angle_alpha 90.000000
_cell_angle_beta 90.000000
_cell_angle_gamma 90.000000
_cell_volume 2007.107968
_symmetry_space_group_name_H-M "P 43 21 2"
_symmetry_group_IT_number 96
_symmetry_cell_setting 'tetragonal'
loop_
_space_group_symop_operation_xyz
x,y,z
1/2-y,1/2+x,3/4+z
-x,-y,1/2+z
1/2+y,1/2-x,1/4+z
1/2+x,1/2-y,1/4-z
1/2-x,1/2+y,3/4-z
y,x,-z
-y,-x,1/2-z
loop_
_atom_site_type_symbol
_atom_site_label
_atom_site_fract_x
_atom_site_fract_y
_atom_site_fract_z
Si Si1 0.910832 0.009724 0.618076
Si Si2 0.811030 0.044828 0.028544
Si Si3 0.816060 0.333033 0.979521
Si Si4 0.156477 0.156477 0.500000
Si Si5 0.022097 0.722201 0.267656
Si Si6 0.695771 0.695771 0.500000
O O1 0.985911 0.014090 0.750000
O O2 0.903204 0.105447 0.540989
O O3 0.818880 0.983885 0.692522
O O4 0.933663 0.933663 0.500000
O O5 0.788023 0.097622 0.181402
O O6 0.729131 0.053892 0.908390
O O7 0.832960 0.942657 0.068223
O O8 0.727432 0.327476 0.880757
O O9 0.900436 0.305864 0.879188
O O10 0.838487 0.434151 0.031536
O O11 0.797036 0.270647 0.122008
#
# Coordination Sequence:
#
# PCOD8305896 Si02
#       6
#     8   8   8   4   8   4
#     4  10  20  33  58  90 126 154 191 249 315 375
#     4  10  21  37  61  94 125 160 196 252 328 378
#     4  11  24  41  62  89 125 167 216 254 309 366
#     4  10  22  42  65  93 126 168 204 246 320 394
#     4  10  23  43  61  85 123 174 211 253 308 371
#     4  12  24  36  63  95 128 162 200 268 312 374
#
# _framework density 19.929172000000001
#
# number of rings (size 3 to 8) (size 9 to 14) (size 15 to 20)
#    0.000    1.600    3.000    1.200    4.200    1.600 
#    0.000    4.000    0.000    0.000    0.000    0.000 
#    0.000    0.000    0.000    0.000    0.000    0.000 
#
# Total GULP energy -495849.925038 kJ/mol
# GULP energy per Si atom -12396.248126 kJ/mol
# Density = 1.988381 g / cm^3
# Si number density = 19.929172 Si / 1000 Ang^3
#
#
#
# Elastic Constant Matrix: (Units=GPa)
#
#
# Indices 1 2 3 4 5 6 
#
# 1 98.7291 49.0636 61.3282 0.0000 0.0000 0.0000
# 2 49.0636 98.7289 61.3281 0.0000 0.0000 0.0000
# 3 61.3282 61.3281 120.9782 0.0000 0.0000 0.0000
# 4 0.0000 0.0000 0.0000 29.2887 0.0000 0.0000
# 5 0.0000 0.0000 0.0000 0.0000 29.2888 0.0000
# 6 0.0000 0.0000 0.0000 0.0000 0.0000 26.4719
#
#
#
# Elastic Compliance Matrix: (Units=1/GPa)
#
#
# Indices 1 2 3 4 5 6 
#
# 1 0.015908 -0.004227 -0.005921 0.000000 0.000000 0.000000
# 2 -0.004227 0.015908 -0.005921 0.000000 0.000000 0.000000
# 3 -0.005921 -0.005921 0.014269 0.000000 0.000000 0.000000
# 4 0.000000 0.000000 0.000000 0.034143 0.000000 0.000000
# 5 0.000000 0.000000 0.000000 0.000000 0.034143 0.000000
# 6 0.000000 0.000000 0.000000 0.000000 0.000000 0.037776
#
#
# Mechanical properties :
#
#
# Convention : Reuss Voigt Hill
#
# Bulk Modulus (GPa) = 71.70904 73.54176 72.62540
# Shear Modulus (GPa) = 26.46434 26.79096 26.62765
#
# Velocity S-wave (km/s) = 3.64802 3.67046 3.65925
# Velocity P-wave (km/s) = 7.33513 7.41247 7.37390
#
# Compressibility (1/GPa) = 0.01394524
#
# Stress axis : x y z
#
# Youngs Moduli (GPa) = 62.86323 62.86317 70.08060
#
# Poissons Ratio (x) = 0.26573 0.41496
# Poissons Ratio (y) = 0.26573 0.41496
# Poissons Ratio (z) = 0.37223 0.37222
#
# Static dielectric constant tensor:
#      x y z
#    x 3.600130 0.000000 0.000000 
#    y 0.000000 3.600130 0.000000 
#    z 0.000000 0.000000 3.359240 
# 
# 
# High freq. dielectric constant tensor:
#      x y z
#    x 1.766380 0.000000 0.000000 
#    y 0.000000 1.766380 0.000000 
#    z 0.000000 0.000000 1.787630 
# 
# From -- ./inp_files/1361.got.cif
#   From: 2010.03.12/outbox.cif.g09.slc.cpg/sg96_1_cif.got.tgz:1361.got - 2010.04.08 20:56:49.
