data_PCOD8305693
_publ_section_title
;
Structure prediction by ZEFSAII (Michael W. Deem and Ramdas Pophale) SiO2 
 PCOD8305693
Probable space group: P 42 21 2
;
_chemical_formula_sum "Si O2"
_cell_formula_units_Z 48
_cell_length_a 13.607888
_cell_length_b 13.607888
_cell_length_c 12.990127
_cell_angle_alpha 90.000000
_cell_angle_beta 90.000000
_cell_angle_gamma 90.000000
_cell_volume 2405.441777
_symmetry_space_group_name_H-M "P 42 21 2"
_symmetry_group_IT_number 94
_symmetry_cell_setting 'tetragonal'
loop_
_space_group_symop_operation_xyz
x,y,z
1/2-y,1/2+x,1/2+z
-x,-y,z
1/2+y,1/2-x,1/2+z
1/2+x,1/2-y,1/2-z
1/2-x,1/2+y,1/2-z
y,x,-z
-y,-x,-z
loop_
_atom_site_type_symbol
_atom_site_label
_atom_site_fract_x
_atom_site_fract_y
_atom_site_fract_z
Si Si1 0.141331 0.315396 0.130943
Si Si2 0.065121 0.365157 0.343640
Si Si3 0.940042 0.636921 0.917470
Si Si4 0.161022 0.032063 0.577128
Si Si5 0.401078 0.638662 0.614411
Si Si6 0.176261 0.823740 0.500000
Si Si7 0.500000 0.500000 0.759469
O O1 0.113340 0.379426 0.230520
O O2 0.102731 0.205443 0.154866
O O3 0.089940 0.371271 0.036341
O O4 0.256395 0.298920 0.099741
O O5 0.121446 0.442889 0.415196
O O6 0.090862 0.255920 0.383285
O O7 0.947301 0.386622 0.347743
O O8 0.910873 0.744173 0.877380
O O9 0.100225 0.100225 0.500000
O O10 0.199781 0.937253 0.517809
O O11 0.095500 0.989916 0.669788
O O12 0.406631 0.593370 0.500000
O O13 0.486972 0.594752 0.686165
#
# Coordination Sequence:
#
# PCOD8305693 Si02
#       7
#     8   8   8   8   8   4   4
#     4  11  21  41  68  90 127 173 216 260 324 399
#     4  11  24  42  64  98 128 170 222 260 322 393
#     4  10  23  43  63  91 132 167 215 266 318 386
#     4  12  24  42  62  99 130 163 214 271 324 379
#     4  10  21  42  64  94 125 167 212 264 319 389
#     4  12  21  42  68  85 130 176 204 262 332 387
#     4  12  22  38  66  90 128 158 214 268 316 382
#
# _framework density 19.954754000000001
#
# number of rings (size 3 to 8) (size 9 to 14) (size 15 to 20)
#    0.000    1.000    7.500    0.250    2.333    2.667 
#    3.000    3.333    0.000    0.000    0.000    0.000 
#    0.000    0.000    0.000    0.000    0.000    0.000 
#
# Total GULP energy -594874.374376 kJ/mol
# GULP energy per Si atom -12393.216133 kJ/mol
# Density = 1.990934 g / cm^3
# Si number density = 19.954754 Si / 1000 Ang^3
#
#
#
# Elastic Constant Matrix: (Units=GPa)
#
#
# Indices 1 2 3 4 5 6 
#
# 1 114.4992 32.9456 55.7231 0.0000 0.0000 0.0000
# 2 32.9456 114.5000 55.7233 0.0000 0.0000 0.0000
# 3 55.7231 55.7233 98.4274 0.0000 0.0000 0.0000
# 4 0.0000 0.0000 0.0000 31.3432 0.0000 0.0000
# 5 0.0000 0.0000 0.0000 0.0000 31.3433 0.0000
# 6 0.0000 0.0000 0.0000 0.0000 0.0000 25.4130
#
#
#
# Elastic Compliance Matrix: (Units=1/GPa)
#
#
# Indices 1 2 3 4 5 6 
#
# 1 0.012059 -0.000203 -0.006712 0.000000 0.000000 0.000000
# 2 -0.000203 0.012058 -0.006712 0.000000 0.000000 0.000000
# 3 -0.006712 -0.006712 0.017759 0.000000 0.000000 0.000000
# 4 0.000000 0.000000 0.000000 0.031905 0.000000 0.000000
# 5 0.000000 0.000000 0.000000 0.000000 0.031905 0.000000
# 6 0.000000 0.000000 0.000000 0.000000 0.000000 0.039350
#
#
# Mechanical properties :
#
#
# Convention : Reuss Voigt Hill
#
# Bulk Modulus (GPa) = 68.38555 68.46785 68.42670
# Shear Modulus (GPa) = 28.22257 29.82220 29.02239
#
# Velocity S-wave (km/s) = 3.76484 3.87006 3.81781
# Velocity P-wave (km/s) = 7.29680 7.37264 7.33482
#
# Compressibility (1/GPa) = 0.01462297
#
# Stress axis : x y z
#
# Youngs Moduli (GPa) = 82.92886 82.92948 56.30904
#
# Poissons Ratio (x) = 0.01686 0.37793
# Poissons Ratio (y) = 0.01686 0.37792
# Poissons Ratio (z) = 0.55659 0.55659
#
# Static dielectric constant tensor:
#      x y z
#    x 3.716610 0.000000 0.000000 
#    y 0.000000 3.716600 0.000000 
#    z 0.000000 0.000000 3.689060 
# 
# 
# High freq. dielectric constant tensor:
#      x y z
#    x 1.779930 0.000000 0.000000 
#    y 0.000000 1.779930 0.000000 
#    z 0.000000 0.000000 1.770960 
# 
# From -- ./inp_files/2684.got.cif
#   From: 2010.03.12/outbox.cif.g09.slc.cpg/sg94_2_cif.got.tgz:2684.got - 2010.04.08 20:48:32.
