data_PCOD8305744
_publ_section_title
;
Structure prediction by ZEFSAII (Michael W. Deem and Ramdas Pophale) SiO2 
 PCOD8305744
Probable space group: P 42 21 2
;
_chemical_formula_sum "Si O2"
_cell_formula_units_Z 28
_cell_length_a 8.486043
_cell_length_b 8.486043
_cell_length_c 16.641683
_cell_angle_alpha 90.000000
_cell_angle_beta 90.000000
_cell_angle_gamma 90.000000
_cell_volume 1198.416283
_symmetry_space_group_name_H-M "P 42 21 2"
_symmetry_group_IT_number 94
_symmetry_cell_setting 'tetragonal'
loop_
_space_group_symop_operation_xyz
x,y,z
1/2-y,1/2+x,1/2+z
-x,-y,z
1/2+y,1/2-x,1/2+z
1/2+x,1/2-y,1/2-z
1/2-x,1/2+y,1/2-z
y,x,-z
-y,-x,-z
loop_
_atom_site_type_symbol
_atom_site_label
_atom_site_fract_x
_atom_site_fract_y
_atom_site_fract_z
Si Si1 0.245623 0.245623 0.000000
Si Si2 0.364935 0.274052 0.700837
Si Si3 0.326248 0.555891 0.919993
Si Si4 0.207546 0.121567 0.838103
O O1 0.228324 0.402116 0.946130
O O2 0.236492 0.106388 0.934091
O O3 0.266489 0.150665 0.647449
O O4 0.347283 0.216748 0.793232
O O5 0.546750 0.281469 0.677310
O O6 0.291026 0.446321 0.695415
O O7 0.500000 0.500000 0.889260
O O8 0.338802 0.661198 0.000000
#
# Coordination Sequence:
#
# PCOD8305744 Si02
#       4
#     4   8   8   8
#     4  10  23  45  66 104 138 180 244 292 356 436
#     4  11  26  46  72  99 147 188 240 300 358 437
#     4   9  22  43  70  96 137 182 232 291 360 420
#     4  11  27  45  70 105 143 188 244 293 368 418
#
# _framework density 23.364170999999999
#
# number of rings (size 3 to 8) (size 9 to 14) (size 15 to 20)
#    0.000    2.000    0.000    1.714   16.000    5.714 
#    5.143    0.000    0.000    0.000    0.000    0.000 
#    0.000    0.000    0.000    0.000    0.000    0.000 
#
# Total GULP energy -347159.175273 kJ/mol
# GULP energy per Si atom -12398.541974 kJ/mol
# Density = 2.331099 g / cm^3
# Si number density = 23.364171 Si / 1000 Ang^3
#
#
#
# Elastic Constant Matrix: (Units=GPa)
#
#
# Indices 1 2 3 4 5 6 
#
# 1 76.3894 49.0239 31.9287 0.0000 0.0000 0.0000
# 2 49.0239 76.3894 31.9287 0.0000 0.0000 0.0000
# 3 31.9287 31.9287 128.3085 0.0000 0.0000 0.0000
# 4 0.0000 0.0000 0.0000 37.2664 0.0000 0.0000
# 5 0.0000 0.0000 0.0000 0.0000 37.2664 0.0000
# 6 0.0000 0.0000 0.0000 0.0000 0.0000 40.4243
#
#
#
# Elastic Compliance Matrix: (Units=1/GPa)
#
#
# Indices 1 2 3 4 5 6 
#
# 1 0.022836 -0.013706 -0.002272 0.000000 0.000000 0.000000
# 2 -0.013706 0.022836 -0.002272 0.000000 0.000000 0.000000
# 3 -0.002272 -0.002272 0.008924 0.000000 0.000000 0.000000
# 4 0.000000 0.000000 0.000000 0.026834 0.000000 0.000000
# 5 0.000000 0.000000 0.000000 0.000000 0.026834 0.000000
# 6 0.000000 0.000000 0.000000 0.000000 0.000000 0.024738
#
#
# Mechanical properties :
#
#
# Convention : Reuss Voigt Hill
#
# Bulk Modulus (GPa) = 55.25698 56.31665 55.78682
# Shear Modulus (GPa) = 28.48432 34.20514 31.34473
#
# Velocity S-wave (km/s) = 3.49541 3.83038 3.66672
# Velocity P-wave (km/s) = 6.32394 6.61200 6.46957
#
# Compressibility (1/GPa) = 0.01809726
#
# Stress axis : x y z
#
# Youngs Moduli (GPa) = 43.78967 43.78967 112.05123
#
# Poissons Ratio (x) = 0.60018 0.25459
# Poissons Ratio (y) = 0.60018 0.25459
# Poissons Ratio (z) = 0.09949 0.09949
#
# Static dielectric constant tensor:
#      x y z
#    x 4.124290 0.000000 0.000000 
#    y 0.000000 4.124290 0.000000 
#    z 0.000000 0.000000 4.485160 
# 
# 
# High freq. dielectric constant tensor:
#      x y z
#    x 1.917550 0.000000 0.000000 
#    y 0.000000 1.917550 0.000000 
#    z 0.000000 0.000000 1.942620 
# 
# From -- ./inp_files/3820.got.cif
#   From: 2010.03.12/outbox.cif.g09.slc.cpg/sg94_2_cif.got.tgz:3820.got - 2010.04.08 20:48:32.
