data_PCOD8305052
_publ_section_title
;
Structure prediction by ZEFSAII (Michael W. Deem and Ramdas Pophale) SiO2 
 PCOD8305052
Probable space group: P 41 2 2
;
_chemical_formula_sum "Si O2"
_cell_formula_units_Z 32
_cell_length_a 9.369932
_cell_length_b 9.369932
_cell_length_c 17.439479
_cell_angle_alpha 90.000000
_cell_angle_beta 90.000000
_cell_angle_gamma 90.000000
_cell_volume 1531.109970
_symmetry_space_group_name_H-M "P 41 2 2"
_symmetry_group_IT_number 91
_symmetry_cell_setting 'tetragonal'
loop_
_space_group_symop_operation_xyz
x,y,z
-y,x,1/4+z
-x,-y,1/2+z
y,-x,3/4+z
x,-y,1/2-z
-x,y,-z
y,x,3/4-z
-y,-x,1/4-z
loop_
_atom_site_type_symbol
_atom_site_label
_atom_site_fract_x
_atom_site_fract_y
_atom_site_fract_z
Si Si1 0.638370 0.023322 0.337054
Si Si2 0.836784 0.243285 0.408006
Si Si3 0.737717 0.478780 0.159256
Si Si4 0.671489 0.138445 0.668139
O O1 0.767982 0.093195 0.384356
O O2 0.499367 0.125003 0.332296
O O3 0.691222 0.000000 0.250000
O O4 0.605422 0.878412 0.381954
O O5 0.733510 0.363437 0.374451
O O6 0.846631 0.265007 0.497974
O O7 0.999019 0.259356 0.376263
O O8 0.731372 0.500000 0.250000
O O9 0.601253 0.398748 0.125000
O O10 0.717661 0.282340 0.625000
#
# Coordination Sequence:
#
# PCOD8305052 Si02
#       4
#     8   8   8   8
#     4  11  22  44  65  93 129 168 212 262 318 381
#     4  10  23  42  63  91 126 164 209 261 316 371
#     4  11  24  42  64  93 129 164 210 264 317 381
#     4  10  22  43  63  92 130 162 211 264 312 381
#
# _framework density 20.89987
#
# number of rings (size 3 to 8) (size 9 to 14) (size 15 to 20)
#    0.000    1.500    5.000    1.500    7.000    2.000 
#    4.500    0.000    0.000    0.000    0.000    0.000 
#    0.000    0.000    0.000    0.000    0.000    0.000 
#
# Total GULP energy -396722.808731 kJ/mol
# GULP energy per Si atom -12397.587773 kJ/mol
# Density = 2.085230 g / cm^3
# Si number density = 20.899870 Si / 1000 Ang^3
#
#
#
# Elastic Constant Matrix: (Units=GPa)
#
#
# Indices 1 2 3 4 5 6 
#
# 1 50.0887 26.9174 34.8590 0.0000 0.0000 0.0000
# 2 26.9174 50.0846 34.8583 0.0000 0.0000 0.0000
# 3 34.8590 34.8583 119.2581 0.0000 0.0000 0.0000
# 4 0.0000 0.0000 0.0000 86.0830 0.0000 0.0000
# 5 0.0000 0.0000 0.0000 0.0000 85.9575 0.0000
# 6 0.0000 0.0000 0.0000 0.0000 0.0000 44.3030
#
#
#
# Elastic Compliance Matrix: (Units=1/GPa)
#
#
# Indices 1 2 3 4 5 6 
#
# 1 0.030409 -0.012750 -0.005162 0.000000 0.000000 0.000000
# 2 -0.012750 0.030412 -0.005162 0.000000 0.000000 0.000000
# 3 -0.005162 -0.005162 0.011403 0.000000 0.000000 0.000000
# 4 0.000000 0.000000 0.000000 0.011617 0.000000 0.000000
# 5 0.000000 0.000000 0.000000 0.000000 0.011634 0.000000
# 6 0.000000 0.000000 0.000000 0.000000 0.000000 0.022572
#
#
# Mechanical properties :
#
#
# Convention : Reuss Voigt Hill
#
# Bulk Modulus (GPa) = 38.35128 45.85566 42.10347
# Shear Modulus (GPa) = 28.92091 51.45514 40.18803
#
# Velocity S-wave (km/s) = 3.72396 4.96722 4.38983
# Velocity P-wave (km/s) = 6.07292 7.40851 6.77371
#
# Compressibility (1/GPa) = 0.02607475
#
# Stress axis : x y z
#
# Youngs Moduli (GPa) = 32.88523 32.88222 87.69808
#
# Poissons Ratio (x) = 0.41926 0.45266
# Poissons Ratio (y) = 0.41930 0.45271
# Poissons Ratio (z) = 0.16974 0.16974
#
# Static dielectric constant tensor:
#      x y z
#    x 3.099990 0.000000 0.000000 
#    y 0.000000 3.101910 0.000000 
#    z 0.000000 0.000000 3.704620 
# 
# 
# High freq. dielectric constant tensor:
#      x y z
#    x 1.816310 0.000000 0.000000 
#    y 0.000000 1.816310 0.000000 
#    z 0.000000 0.000000 1.823860 
# 
# From -- ./inp_files/5960.got.cif
#   From: 2010.03.12/outbox.cif.g09.slc.cpg/sg91_3_cif.got.tgz:5960.got - 2010.04.08 20:27:58.
