data_PCOD8305385
_publ_section_title
;
Structure prediction by ZEFSAII (Michael W. Deem and Ramdas Pophale) SiO2 
 PCOD8305385
Probable space group: P 41 21 2
;
_chemical_formula_sum "Si O2"
_cell_formula_units_Z 40
_cell_length_a 13.740816
_cell_length_b 13.740816
_cell_length_c 9.210534
_cell_angle_alpha 90.000000
_cell_angle_beta 90.000000
_cell_angle_gamma 90.000000
_cell_volume 1739.041149
_symmetry_space_group_name_H-M "P 41 21 2"
_symmetry_group_IT_number 92
_symmetry_cell_setting 'tetragonal'
loop_
_space_group_symop_operation_xyz
x,y,z
1/2-y,1/2+x,1/4+z
-x,-y,1/2+z
1/2+y,1/2-x,3/4+z
1/2+x,1/2-y,3/4-z
1/2-x,1/2+y,1/4-z
y,x,-z
-y,-x,1/2-z
loop_
_atom_site_type_symbol
_atom_site_label
_atom_site_fract_x
_atom_site_fract_y
_atom_site_fract_z
Si Si1 0.901987 0.547656 0.113828
Si Si2 0.448829 0.715473 0.014038
Si Si3 0.015654 0.984347 0.750000
Si Si4 0.020878 0.827733 0.413384
Si Si5 0.647491 0.235018 0.977223
Si Si6 0.792964 0.207037 0.750000
O O1 0.940313 0.493730 0.257574
O O2 0.852549 0.652240 0.149384
O O3 0.819470 0.481974 0.041269
O O4 0.501504 0.624558 0.932503
O O5 0.482144 0.701888 0.180257
O O6 0.332215 0.710769 0.986981
O O7 0.941139 0.000197 0.617570
O O8 0.964260 0.764853 0.292771
O O9 0.133615 0.805485 0.385457
O O10 0.687749 0.193359 0.824012
#
# Coordination Sequence:
#
# PCOD8305385 Si02
#       6
#     8   8   4   8   8   4
#     4  12  32  51  75 111 155 208 259 328 392 478
#     4  11  25  45  75 106 151 196 254 319 389 461
#     4   9  20  42  66 110 142 179 246 312 382 443
#     4  10  22  42  71 106 142 192 245 309 377 452
#     4  11  23  48  71 109 140 201 251 306 383 458
#     4  11  22  38  78 102 146 191 246 316 376 459
#
# _framework density 23.001180999999999
#
# number of rings (size 3 to 8) (size 9 to 14) (size 15 to 20)
#    0.000    1.200    2.000    3.000    8.400    0.800 
#    7.200    0.000    0.000    0.000    0.000    0.000 
#    0.000    0.000    0.000    0.000    0.000    0.000 
#
# Total GULP energy -495769.905123 kJ/mol
# GULP energy per Si atom -12394.247628 kJ/mol
# Density = 2.294883 g / cm^3
# Si number density = 23.001181 Si / 1000 Ang^3
#
#
#
# Elastic Constant Matrix: (Units=GPa)
#
#
# Indices 1 2 3 4 5 6 
#
# 1 115.6559 62.5679 46.8777 0.0000 0.0000 0.0000
# 2 62.5679 115.6567 46.8774 0.0000 0.0000 0.0000
# 3 46.8777 46.8774 102.6705 0.0000 0.0000 0.0000
# 4 0.0000 0.0000 0.0000 39.9208 0.0000 0.0000
# 5 0.0000 0.0000 0.0000 0.0000 39.9204 0.0000
# 6 0.0000 0.0000 0.0000 0.0000 0.0000 36.5818
#
#
#
# Elastic Compliance Matrix: (Units=1/GPa)
#
#
# Indices 1 2 3 4 5 6 
#
# 1 0.013111 -0.005726 -0.003372 0.000000 0.000000 0.000000
# 2 -0.005726 0.013110 -0.003372 0.000000 0.000000 0.000000
# 3 -0.003372 -0.003372 0.012819 0.000000 0.000000 0.000000
# 4 0.000000 0.000000 0.000000 0.025050 0.000000 0.000000
# 5 0.000000 0.000000 0.000000 0.000000 0.025050 0.000000
# 6 0.000000 0.000000 0.000000 0.000000 0.000000 0.027336
#
#
# Mechanical properties :
#
#
# Convention : Reuss Voigt Hill
#
# Bulk Modulus (GPa) = 70.91562 71.84769 71.38165
# Shear Modulus (GPa) = 34.21976 35.12859 34.67418
#
# Velocity S-wave (km/s) = 3.86131 3.91225 3.88686
# Velocity P-wave (km/s) = 7.12586 7.19110 7.15855
#
# Compressibility (1/GPa) = 0.01410127
#
# Stress axis : x y z
#
# Youngs Moduli (GPa) = 76.27407 76.27486 78.01053
#
# Poissons Ratio (x) = 0.43675 0.26303
# Poissons Ratio (y) = 0.43674 0.26302
# Poissons Ratio (z) = 0.25718 0.25717
#
# Static dielectric constant tensor:
#      x y z
#    x 4.437530 0.000000 0.000000 
#    y 0.000000 4.437510 0.000000 
#    z 0.000000 0.000000 3.842010 
# 
# 
# High freq. dielectric constant tensor:
#      x y z
#    x 1.919340 0.000000 0.000000 
#    y 0.000000 1.919340 0.000000 
#    z 0.000000 0.000000 1.890680 
# 
# From -- ./inp_files/1388.got.cif
#   From: 2010.03.12/outbox.cif.g09.slc.cpg/sg92_1_cif.got.tgz:1388.got - 2010.04.08 20:41:11.
