data_PCOD8305049
_publ_section_title
;
Structure prediction by ZEFSAII (Michael W. Deem and Ramdas Pophale) SiO2 
 PCOD8305049
Probable space group: P 41 2 2
;
_chemical_formula_sum "Si O2"
_cell_formula_units_Z 36
_cell_length_a 13.030619
_cell_length_b 13.030619
_cell_length_c 9.942758
_cell_angle_alpha 90.000000
_cell_angle_beta 90.000000
_cell_angle_gamma 90.000000
_cell_volume 1688.250794
_symmetry_space_group_name_H-M "P 41 2 2"
_symmetry_group_IT_number 91
_symmetry_cell_setting 'tetragonal'
loop_
_space_group_symop_operation_xyz
x,y,z
-y,x,1/4+z
-x,-y,1/2+z
y,-x,3/4+z
x,-y,1/2-z
-x,y,-z
y,x,3/4-z
-y,-x,1/4-z
loop_
_atom_site_type_symbol
_atom_site_label
_atom_site_fract_x
_atom_site_fract_y
_atom_site_fract_z
Si Si1 0.711615 0.711615 0.875000
Si Si2 0.247535 0.000000 0.750000
Si Si3 0.876620 0.628102 0.682047
Si Si4 0.572001 0.428000 0.125000
Si Si5 0.512844 0.772570 0.734509
Si Si6 0.935047 0.500000 0.250000
Si Si7 0.053982 0.946019 0.625000
O O1 0.816584 0.699463 0.789048
O O2 0.619065 0.712517 0.766432
O O3 0.310508 0.899654 0.794516
O O4 0.176262 0.034023 0.875817
O O5 0.812654 0.528265 0.630139
O O6 0.989729 0.598084 0.736349
O O7 0.542459 0.500000 0.250000
O O8 0.562160 0.309577 0.166758
O O9 0.524116 0.867098 0.631524
O O10 0.000000 0.001035 0.500000
#
# Coordination Sequence:
#
# PCOD8305049 Si02
#       7
#     4   4   8   4   8   4   4
#     4  12  27  45  72 112 144 198 252 312 385 459
#     4  10  22  42  72  98 142 192 250 308 378 458
#     4  12  25  45  75 107 148 197 252 322 378 461
#     4  12  25  43  70 108 152 200 246 318 377 473
#     4  12  25  47  72 108 151 197 251 304 388 462
#     4  12  24  48  74 102 154 200 248 312 386 450
#     4   8  20  42  68  98 144 190 240 320 378 446
#
# _framework density 21.323847000000001
#
# number of rings (size 3 to 8) (size 9 to 14) (size 15 to 20)
#    0.667    0.000    5.556    2.000    0.000    3.556 
#    0.000    0.000    0.000    0.000    0.000    0.000 
#    0.000    0.000    0.000    0.000    0.000    0.000 
#
# Total GULP energy -446149.168260 kJ/mol
# GULP energy per Si atom -12393.032452 kJ/mol
# Density = 2.127531 g / cm^3
# Si number density = 21.323847 Si / 1000 Ang^3
#
#
#
# Elastic Constant Matrix: (Units=GPa)
#
#
# Indices 1 2 3 4 5 6 
#
# 1 125.4957 58.7971 58.8569 0.0000 0.0000 0.0000
# 2 58.7971 125.4934 58.8576 0.0000 0.0000 0.0000
# 3 58.8569 58.8576 135.9667 0.0000 0.0000 0.0000
# 4 0.0000 0.0000 0.0000 48.7089 0.0000 0.0000
# 5 0.0000 0.0000 0.0000 0.0000 48.7092 0.0000
# 6 0.0000 0.0000 0.0000 0.0000 0.0000 37.0998
#
#
#
# Elastic Compliance Matrix: (Units=1/GPa)
#
#
# Indices 1 2 3 4 5 6 
#
# 1 0.011246 -0.003747 -0.003246 0.000000 0.000000 0.000000
# 2 -0.003747 0.011247 -0.003247 0.000000 0.000000 0.000000
# 3 -0.003246 -0.003247 0.010165 0.000000 0.000000 0.000000
# 4 0.000000 0.000000 0.000000 0.020530 0.000000 0.000000
# 5 0.000000 0.000000 0.000000 0.000000 0.020530 0.000000
# 6 0.000000 0.000000 0.000000 0.000000 0.000000 0.026954
#
#
# Mechanical properties :
#
#
# Convention : Reuss Voigt Hill
#
# Bulk Modulus (GPa) = 82.10823 82.21988 82.16406
# Shear Modulus (GPa) = 39.93228 40.93318 40.43273
#
# Velocity S-wave (km/s) = 4.33212 4.38607 4.35918
# Velocity P-wave (km/s) = 7.97571 8.01820 7.99698
#
# Compressibility (1/GPa) = 0.01217905
#
# Stress axis : x y z
#
# Youngs Moduli (GPa) = 88.91804 88.91546 98.37225
#
# Poissons Ratio (x) = 0.33313 0.31936
# Poissons Ratio (y) = 0.33314 0.31938
# Poissons Ratio (z) = 0.28867 0.28868
#
# Static dielectric constant tensor:
#      x y z
#    x 3.803500 0.000000 0.000000 
#    y 0.000000 3.803530 0.000000 
#    z 0.000000 0.000000 3.913820 
# 
# 
# High freq. dielectric constant tensor:
#      x y z
#    x 1.833350 0.000000 0.000000 
#    y 0.000000 1.833350 0.000000 
#    z 0.000000 0.000000 1.848100 
# 
# From -- ./inp_files/15708.got.cif
#   From: 2010.03.12/outbox.cif.g09.slc.cpg/sg91_8_cif.got.tgz:15708.got - 2010.04.08 20:27:58.
