data_PCOD8305028
_publ_section_title
;
Structure prediction by ZEFSAII (Michael W. Deem and Ramdas Pophale) SiO2 
 PCOD8305028
Probable space group: P 41 2 2
;
_chemical_formula_sum "Si O2"
_cell_formula_units_Z 32
_cell_length_a 10.713259
_cell_length_b 10.713259
_cell_length_c 11.561208
_cell_angle_alpha 90.000000
_cell_angle_beta 90.000000
_cell_angle_gamma 90.000000
_cell_volume 1326.925144
_symmetry_space_group_name_H-M "P 41 2 2"
_symmetry_group_IT_number 91
_symmetry_cell_setting 'tetragonal'
loop_
_space_group_symop_operation_xyz
x,y,z
-y,x,1/4+z
-x,-y,1/2+z
y,-x,3/4+z
x,-y,1/2-z
-x,y,-z
y,x,3/4-z
-y,-x,1/4-z
loop_
_atom_site_type_symbol
_atom_site_label
_atom_site_fract_x
_atom_site_fract_y
_atom_site_fract_z
Si Si1 0.811519 0.572341 0.042026
Si Si2 0.954593 0.363298 0.676291
Si Si3 0.862692 0.105694 0.000060
Si Si4 0.653171 0.213903 0.366655
O O1 0.689551 0.647046 0.087712
O O2 0.919518 0.557362 0.141486
O O3 0.865069 0.650647 0.933953
O O4 0.771031 0.436129 0.995224
O O5 0.875511 0.416350 0.788496
O O6 0.995068 0.225799 0.711312
O O7 0.833928 0.166073 0.125000
O O8 0.856836 0.219619 0.911409
O O9 0.000000 0.046350 0.000000
#
# Coordination Sequence:
#
# PCOD8305028 Si02
#       4
#     8   8   8   8
#     4  10  24  42  72 102 138 186 240 295 354 425
#     4  10  22  40  63 104 138 185 233 288 353 433
#     4  11  23  39  64 103 145 186 226 285 356 422
#     4  11  23  44  69 101 143 183 243 287 355 421
#
# _framework density 24.115902999999999
#
# number of rings (size 3 to 8) (size 9 to 14) (size 15 to 20)
#    0.000    1.500    2.500    1.500    3.500    4.000 
#    0.000    3.750    0.000   18.000    0.000    0.000 
#    0.000    0.000    0.000    0.000    0.000    0.000 
#
# Total GULP energy -396590.921229 kJ/mol
# GULP energy per Si atom -12393.466288 kJ/mol
# Density = 2.406101 g / cm^3
# Si number density = 24.115903 Si / 1000 Ang^3
#
#
#
# Elastic Constant Matrix: (Units=GPa)
#
#
# Indices 1 2 3 4 5 6 
#
# 1 89.0057 38.3732 20.0119 0.0000 0.0000 0.0000
# 2 38.3732 89.0056 20.0119 0.0000 0.0000 0.0000
# 3 20.0119 20.0119 87.2251 0.0000 0.0000 0.0000
# 4 0.0000 0.0000 0.0000 46.7531 0.0000 0.0000
# 5 0.0000 0.0000 0.0000 0.0000 46.7531 0.0000
# 6 0.0000 0.0000 0.0000 0.0000 0.0000 24.5006
#
#
#
# Elastic Compliance Matrix: (Units=1/GPa)
#
#
# Indices 1 2 3 4 5 6 
#
# 1 0.014105 -0.005645 -0.001941 0.000000 0.000000 0.000000
# 2 -0.005645 0.014105 -0.001941 0.000000 0.000000 0.000000
# 3 -0.001941 -0.001941 0.012355 0.000000 0.000000 0.000000
# 4 0.000000 0.000000 0.000000 0.021389 0.000000 0.000000
# 5 0.000000 0.000000 0.000000 0.000000 0.021389 0.000000
# 6 0.000000 0.000000 0.000000 0.000000 0.000000 0.040815
#
#
# Mechanical properties :
#
#
# Convention : Reuss Voigt Hill
#
# Bulk Modulus (GPa) = 46.48578 46.89228 46.68903
# Shear Modulus (GPa) = 33.24826 36.05733 34.65279
#
# Velocity S-wave (km/s) = 3.71709 3.87094 3.79479
# Velocity P-wave (km/s) = 6.14331 6.28217 6.21312
#
# Compressibility (1/GPa) = 0.02151195
#
# Stress axis : x y z
#
# Youngs Moduli (GPa) = 70.89512 70.89505 80.93717
#
# Poissons Ratio (x) = 0.40019 0.15711
# Poissons Ratio (y) = 0.40019 0.15711
# Poissons Ratio (z) = 0.13761 0.13761
#
# Static dielectric constant tensor:
#      x y z
#    x 4.121720 0.000000 0.000000 
#    y 0.000000 4.121720 0.000000 
#    z 0.000000 0.000000 5.027570 
# 
# 
# High freq. dielectric constant tensor:
#      x y z
#    x 1.947300 0.000000 0.000000 
#    y 0.000000 1.947300 0.000000 
#    z 0.000000 0.000000 1.976870 
# 
# From -- ./inp_files/3388.got.cif
#   From: 2010.03.12/outbox.cif.g09.slc.cpg/sg91_2_cif.got.tgz:3388.got - 2010.04.08 20:27:58.
