data_PCOD8305425
_publ_section_title
;
Structure prediction by ZEFSAII (Michael W. Deem and Ramdas Pophale) SiO2 
 PCOD8305425
Probable space group: P 41 21 2
;
_chemical_formula_sum "Si O2"
_cell_formula_units_Z 24
_cell_length_a 9.666288
_cell_length_b 9.666288
_cell_length_c 9.703672
_cell_angle_alpha 90.000000
_cell_angle_beta 90.000000
_cell_angle_gamma 90.000000
_cell_volume 906.683201
_symmetry_space_group_name_H-M "P 41 21 2"
_symmetry_group_IT_number 92
_symmetry_cell_setting 'tetragonal'
loop_
_space_group_symop_operation_xyz
x,y,z
1/2-y,1/2+x,1/4+z
-x,-y,1/2+z
1/2+y,1/2-x,3/4+z
1/2+x,1/2-y,3/4-z
1/2-x,1/2+y,1/4-z
y,x,-z
-y,-x,1/2-z
loop_
_atom_site_type_symbol
_atom_site_label
_atom_site_fract_x
_atom_site_fract_y
_atom_site_fract_z
Si Si1 0.476374 0.764097 0.113170
Si Si2 0.056924 0.264860 0.432057
Si Si3 0.144544 0.833354 0.397042
O O1 0.579985 0.896589 0.106619
O O2 0.519828 0.665429 0.241287
O O3 0.320553 0.809847 0.141348
O O4 0.484790 0.690763 0.962794
O O5 0.183815 0.183815 0.500000
O O6 0.924571 0.267335 0.533820
O O7 0.099263 0.900738 0.250000
#
# Coordination Sequence:
#
# PCOD8305425 Si02
#       3
#     8   8   8
#     4  10  24  48  73 105 150 196 251 309 372 451
#     4  11  24  46  77 109 153 206 249 309 381 454
#     4  11  26  44  72 110 148 194 249 310 376 449
#
# _framework density 26.470103999999999
#
# number of rings (size 3 to 8) (size 9 to 14) (size 15 to 20)
#    0.000    1.333    0.000    5.000    0.000   22.667 
#    0.000    0.000    0.000    0.000    0.000    0.000 
#    0.000    0.000    0.000    0.000    0.000    0.000 
#
# Total GULP energy -297367.554977 kJ/mol
# GULP energy per Si atom -12390.314791 kJ/mol
# Density = 2.640986 g / cm^3
# Si number density = 26.470104 Si / 1000 Ang^3
#
#
#
# Elastic Constant Matrix: (Units=GPa)
#
#
# Indices 1 2 3 4 5 6 
#
# 1 103.9520 58.3440 39.2538 0.0000 0.0000 0.0000
# 2 58.3440 103.9514 39.2536 0.0000 0.0000 0.0000
# 3 39.2538 39.2536 250.9967 0.0000 0.0000 0.0000
# 4 0.0000 0.0000 0.0000 39.3481 0.0000 0.0000
# 5 0.0000 0.0000 0.0000 0.0000 39.3483 0.0000
# 6 0.0000 0.0000 0.0000 0.0000 0.0000 33.8388
#
#
#
# Elastic Compliance Matrix: (Units=1/GPa)
#
#
# Indices 1 2 3 4 5 6 
#
# 1 0.014296 -0.007630 -0.001042 0.000000 0.000000 0.000000
# 2 -0.007630 0.014296 -0.001042 0.000000 0.000000 0.000000
# 3 -0.001042 -0.001042 0.004310 0.000000 0.000000 0.000000
# 4 0.000000 0.000000 0.000000 0.025414 0.000000 0.000000
# 5 0.000000 0.000000 0.000000 0.000000 0.025414 0.000000
# 6 0.000000 0.000000 0.000000 0.000000 0.000000 0.029552
#
#
# Mechanical properties :
#
#
# Convention : Reuss Voigt Hill
#
# Bulk Modulus (GPa) = 74.22804 81.40032 77.81418
# Shear Modulus (GPa) = 36.44232 43.97695 40.20963
#
# Velocity S-wave (km/s) = 3.71446 4.08043 3.90174
# Velocity P-wave (km/s) = 6.81905 7.28137 7.05400
#
# Compressibility (1/GPa) = 0.01347200
#
# Stress axis : x y z
#
# Youngs Moduli (GPa) = 69.94992 69.94952 232.00851
#
# Poissons Ratio (x) = 0.53372 0.24187
# Poissons Ratio (y) = 0.53373 0.24187
# Poissons Ratio (z) = 0.07292 0.07292
#
# Static dielectric constant tensor:
#      x y z
#    x 4.501420 0.000000 0.000000 
#    y 0.000000 4.501420 0.000000 
#    z 0.000000 0.000000 5.908100 
# 
# 
# High freq. dielectric constant tensor:
#      x y z
#    x 2.044000 0.000000 0.000000 
#    y 0.000000 2.044000 0.000000 
#    z 0.000000 0.000000 2.103990 
# 
# From -- ./inp_files/1014.got.cif
#   From: 2010.03.12/outbox.cif.g09.slc.cpg/sg92_1_cif.got.tgz:1014.got - 2010.04.08 20:41:11.
