data_PCOD8305748
_publ_section_title
;
Structure prediction by ZEFSAII (Michael W. Deem and Ramdas Pophale) SiO2 
 PCOD8305748
Probable space group: P 42 21 2
;
_chemical_formula_sum "Si O2"
_cell_formula_units_Z 32
_cell_length_a 13.836056
_cell_length_b 13.836056
_cell_length_c 9.089205
_cell_angle_alpha 90.000000
_cell_angle_beta 90.000000
_cell_angle_gamma 90.000000
_cell_volume 1740.005099
_symmetry_space_group_name_H-M "P 42 21 2"
_symmetry_group_IT_number 94
_symmetry_cell_setting 'tetragonal'
loop_
_space_group_symop_operation_xyz
x,y,z
1/2-y,1/2+x,1/2+z
-x,-y,z
1/2+y,1/2-x,1/2+z
1/2+x,1/2-y,1/2-z
1/2-x,1/2+y,1/2-z
y,x,-z
-y,-x,-z
loop_
_atom_site_type_symbol
_atom_site_label
_atom_site_fract_x
_atom_site_fract_y
_atom_site_fract_z
Si Si1 0.823047 0.176954 0.500000
Si Si2 0.500000 0.000000 0.769655
Si Si3 0.392218 0.104714 0.019269
Si Si4 0.921373 0.073364 0.761607
Si Si5 0.812672 0.965420 0.992010
O O1 0.711494 0.151537 0.523191
O O2 0.882869 0.144570 0.639942
O O3 0.416600 0.954393 0.665970
O O4 0.544402 0.915661 0.873036
O O5 0.301495 0.032351 0.016613
O O6 0.834110 0.011625 0.832312
O O7 0.000000 0.000000 0.692749
O O8 0.970121 0.137945 0.885204
O O9 0.857024 0.857024 0.000000
#
# Coordination Sequence:
#
# PCOD8305748 Si02
#       5
#     4   4   8   8   8
#     4  12  21  32  56  83 104 132 180 222 254 313
#     4  10  24  38  56  74 112 146 176 218 272 314
#     4  11  21  38  55  79 107 143 181 217 262 315
#     4   9  19  33  55  79 108 134 167 214 269 309
#     4   9  17  35  56  78 103 140 172 208 259 320
#
# _framework density 18.390750000000001
#
# number of rings (size 3 to 8) (size 9 to 14) (size 15 to 20)
#    0.000    2.000    1.250    4.875    0.000    0.000 
#    0.000    0.000    0.000    0.000    0.000    0.000 
#    0.000    0.000    0.000    0.000    0.000    0.000 
#
# Total GULP energy -396725.081970 kJ/mol
# GULP energy per Si atom -12397.658812 kJ/mol
# Density = 1.834889 g / cm^3
# Si number density = 18.390750 Si / 1000 Ang^3
#
#
#
# Elastic Constant Matrix: (Units=GPa)
#
#
# Indices 1 2 3 4 5 6 
#
# 1 83.5927 33.4894 33.2361 0.0000 0.0000 0.0000
# 2 33.4894 83.5903 33.2348 0.0000 0.0000 0.0000
# 3 33.2361 33.2348 88.1955 0.0000 0.0000 0.0000
# 4 0.0000 0.0000 0.0000 19.4977 0.0000 0.0000
# 5 0.0000 0.0000 0.0000 0.0000 19.4977 0.0000
# 6 0.0000 0.0000 0.0000 0.0000 0.0000 28.1818
#
#
#
# Elastic Compliance Matrix: (Units=1/GPa)
#
#
# Indices 1 2 3 4 5 6 
#
# 1 0.015412 -0.004547 -0.004095 0.000000 0.000000 0.000000
# 2 -0.004547 0.015413 -0.004095 0.000000 0.000000 0.000000
# 3 -0.004095 -0.004095 0.014424 0.000000 0.000000 0.000000
# 4 0.000000 0.000000 0.000000 0.051288 0.000000 0.000000
# 5 0.000000 0.000000 0.000000 0.000000 0.051288 0.000000
# 6 0.000000 0.000000 0.000000 0.000000 0.000000 0.035484
#
#
# Mechanical properties :
#
#
# Convention : Reuss Voigt Hill
#
# Bulk Modulus (GPa) = 50.56260 50.58880 50.57570
# Shear Modulus (GPa) = 23.21541 23.79665 23.50603
#
# Velocity S-wave (km/s) = 3.55680 3.60105 3.57899
# Velocity P-wave (km/s) = 6.66490 6.69758 6.68126
#
# Compressibility (1/GPa) = 0.01977746
#
# Stress axis : x y z
#
# Youngs Moduli (GPa) = 64.88298 64.88175 69.32660
#
# Poissons Ratio (x) = 0.29500 0.28387
# Poissons Ratio (y) = 0.29501 0.28386
# Poissons Ratio (z) = 0.26568 0.26566
#
# Static dielectric constant tensor:
#      x y z
#    x 3.421090 0.000000 0.000000 
#    y 0.000000 3.421060 0.000000 
#    z 0.000000 0.000000 3.658420 
# 
# 
# High freq. dielectric constant tensor:
#      x y z
#    x 1.713540 0.000000 0.000000 
#    y 0.000000 1.713540 0.000000 
#    z 0.000000 0.000000 1.713900 
# 
# From -- ./inp_files/1219.got.cif
#   From: 2010.03.12/outbox.cif.g09.slc.cpg/sg94_1_cif.got.tgz:1219.got - 2010.04.08 20:48:32.
