data_PCOD8305898
_publ_section_title
;
Structure prediction by ZEFSAII (Michael W. Deem and Ramdas Pophale) SiO2 
 PCOD8305898
Probable space group: P 43 21 2
;
_chemical_formula_sum "Si O2"
_cell_formula_units_Z 40
_cell_length_a 19.958926
_cell_length_b 19.958926
_cell_length_c 5.023471
_cell_angle_alpha 90.000000
_cell_angle_beta 90.000000
_cell_angle_gamma 90.000000
_cell_volume 2001.143513
_symmetry_space_group_name_H-M "P 43 21 2"
_symmetry_group_IT_number 96
_symmetry_cell_setting 'tetragonal'
loop_
_space_group_symop_operation_xyz
x,y,z
1/2-y,1/2+x,3/4+z
-x,-y,1/2+z
1/2+y,1/2-x,1/4+z
1/2+x,1/2-y,1/4-z
1/2-x,1/2+y,3/4-z
y,x,-z
-y,-x,1/2-z
loop_
_atom_site_type_symbol
_atom_site_label
_atom_site_fract_x
_atom_site_fract_y
_atom_site_fract_z
Si Si1 0.755659 0.862797 0.517348
Si Si2 0.585844 0.525007 0.748972
Si Si3 0.602357 0.886189 0.603892
Si Si4 0.477686 0.145394 0.588214
Si Si5 0.048809 0.221694 0.497375
O O1 0.789006 0.789006 0.500000
O O2 0.675940 0.855865 0.552052
O O3 0.772168 0.908414 0.267364
O O4 0.789910 0.899300 0.765423
O O5 0.571353 0.571353 0.500000
O O6 0.541776 0.458225 0.750000
O O7 0.662199 0.503740 0.734894
O O8 0.571474 0.571474 0.000000
O O9 0.563501 0.891513 0.322902
O O10 0.601593 0.959758 0.736466
O O11 0.567514 0.839176 0.826717
O O12 0.503448 0.213684 0.712644
#
# Coordination Sequence:
#
# PCOD8305898 Si02
#       5
#     8   8   8   8   8
#     4  11  22  39  64  89 115 152 200 244 286 342
#     4  10  20  34  55  85 118 151 192 236 282 346
#     4  11  23  41  62  89 118 153 192 241 295 346
#     4  11  23  41  62  85 119 152 194 244 293 351
#     4  11  22  39  61  86 119 156 194 243 296 343
#
# _framework density 19.988572000000001
#
# number of rings (size 3 to 8) (size 9 to 14) (size 15 to 20)
#    0.000    1.200    0.000    9.000    0.000    3.200 
#    0.000    5.000    0.000    0.000    0.000    0.000 
#    0.000    0.000    0.000    0.000    0.000    0.000 
#
# Total GULP energy -496082.583587 kJ/mol
# GULP energy per Si atom -12402.064590 kJ/mol
# Density = 1.994308 g / cm^3
# Si number density = 19.988572 Si / 1000 Ang^3
#
#
#
# Elastic Constant Matrix: (Units=GPa)
#
#
# Indices 1 2 3 4 5 6 
#
# 1 89.2503 71.1922 50.9335 0.0000 0.0000 0.0000
# 2 71.1922 89.2513 50.9355 0.0000 0.0000 0.0000
# 3 50.9335 50.9355 175.7022 0.0000 0.0000 0.0000
# 4 0.0000 0.0000 0.0000 97.3265 0.0000 0.0000
# 5 0.0000 0.0000 0.0000 0.0000 97.3435 0.0000
# 6 0.0000 0.0000 0.0000 0.0000 0.0000 31.3234
#
#
#
# Elastic Compliance Matrix: (Units=1/GPa)
#
#
# Indices 1 2 3 4 5 6 
#
# 1 0.031507 -0.023868 -0.002214 0.000000 0.000000 0.000000
# 2 -0.023868 0.031507 -0.002215 0.000000 0.000000 0.000000
# 3 -0.002214 -0.002215 0.006975 0.000000 0.000000 0.000000
# 4 0.000000 0.000000 0.000000 0.010275 0.000000 0.000000
# 5 0.000000 0.000000 0.000000 0.000000 0.010273 0.000000
# 6 0.000000 0.000000 0.000000 0.000000 0.000000 0.031925
#
#
# Mechanical properties :
#
#
# Convention : Reuss Voigt Hill
#
# Bulk Modulus (GPa) = 74.65382 77.81402 76.23392
# Shear Modulus (GPa) = 27.24480 57.27485 42.25982
#
# Velocity S-wave (km/s) = 3.69591 5.35873 4.60303
# Velocity P-wave (km/s) = 7.45938 8.79214 8.15304
#
# Compressibility (1/GPa) = 0.01339516
#
# Stress axis : x y z
#
# Youngs Moduli (GPa) = 31.73895 31.73893 143.36269
#
# Poissons Ratio (x) = 0.75756 0.31742
# Poissons Ratio (y) = 0.75756 0.31751
# Poissons Ratio (z) = 0.07027 0.07029
#
# Static dielectric constant tensor:
#      x y z
#    x 3.587660 0.000000 0.000000 
#    y 0.000000 3.587690 0.000000 
#    z 0.000000 0.000000 4.018090 
# 
# 
# High freq. dielectric constant tensor:
#      x y z
#    x 1.773530 0.000000 0.000000 
#    y 0.000000 1.773530 0.000000 
#    z 0.000000 0.000000 1.811280 
# 
# From -- ./inp_files/533.got.cif
#   From: 2010.03.12/outbox.cif.g09.slc.cpg/sg96_1_cif.got.tgz:533.got - 2010.04.08 20:56:49.
