data_PCOD8305587
_publ_section_title
;
Structure prediction by ZEFSAII (Michael W. Deem and Ramdas Pophale) SiO2 
 PCOD8305587
Probable space group: P 42 2 2
;
_chemical_formula_sum "Si O2"
_cell_formula_units_Z 44
_cell_length_a 8.512720
_cell_length_b 8.512720
_cell_length_c 26.711107
_cell_angle_alpha 90.000000
_cell_angle_beta 90.000000
_cell_angle_gamma 90.000000
_cell_volume 1935.657812
_symmetry_space_group_name_H-M "P 42 2 2"
_symmetry_group_IT_number 93
_symmetry_cell_setting 'tetragonal'
loop_
_space_group_symop_operation_xyz
x,y,z
-y,x,1/2+z
-x,-y,z
y,-x,1/2+z
x,-y,-z
-x,y,-z
y,x,1/2-z
-y,-x,1/2-z
loop_
_atom_site_type_symbol
_atom_site_label
_atom_site_fract_x
_atom_site_fract_y
_atom_site_fract_z
Si Si1 0.384259 0.626949 0.857381
Si Si2 0.821920 0.549169 0.554325
Si Si3 0.321984 0.944168 0.815689
Si Si4 0.196881 0.196881 0.750000
Si Si5 0.604197 0.135894 0.340269
Si Si6 0.139026 0.892020 0.096659
O O1 0.500000 0.500000 0.831806
O O2 0.469096 0.710676 0.904297
O O3 0.325135 0.754064 0.816264
O O4 0.238637 0.516184 0.873898
O O5 0.758495 0.500000 0.500000
O O6 0.821252 0.740075 0.555912
O O7 0.000000 0.500000 0.563447
O O8 0.500000 0.000000 0.813546
O O9 0.223206 0.016816 0.768982
O O10 0.240892 0.000572 0.866494
O O11 0.235542 0.315631 0.795439
O O12 0.743330 0.063748 0.374419
O O13 0.500000 0.000000 0.315432
O O14 0.000000 0.000000 0.073169
#
# Coordination Sequence:
#
# PCOD8305587 Si02
#       6
#     8   8   8   4   8   8
#     4  12  21  41  71 101 140 186 228 297 365 426
#     4  11  23  44  75 107 134 183 242 287 354 449
#     4  11  20  42  69  91 139 189 243 295 355 428
#     4  10  24  44  64  96 140 188 255 297 346 436
#     4  11  24  41  65 100 135 182 237 295 362 418
#     4  11  21  42  71  98 138 185 229 286 363 437
#
# _framework density 22.731289
#
# number of rings (size 3 to 8) (size 9 to 14) (size 15 to 20)
#    0.000    0.909    5.455    2.727    0.000    0.364 
#    0.000   29.545    0.000    1.091    0.000    0.000 
#    0.000    0.000    0.000    0.000    0.000    0.000 
#
# Total GULP energy -545129.881254 kJ/mol
# GULP energy per Si atom -12389.315483 kJ/mol
# Density = 2.267955 g / cm^3
# Si number density = 22.731289 Si / 1000 Ang^3
#
#
#
# Elastic Constant Matrix: (Units=GPa)
#
#
# Indices 1 2 3 4 5 6 
#
# 1 144.6644 57.5170 47.4767 0.0000 0.0000 0.0000
# 2 57.5170 144.6644 47.4767 0.0000 0.0000 0.0000
# 3 47.4767 47.4767 84.5163 0.0000 0.0000 0.0000
# 4 0.0000 0.0000 0.0000 19.9919 0.0000 0.0000
# 5 0.0000 0.0000 0.0000 0.0000 19.9919 0.0000
# 6 0.0000 0.0000 0.0000 0.0000 0.0000 56.1994
#
#
#
# Elastic Compliance Matrix: (Units=1/GPa)
#
#
# Indices 1 2 3 4 5 6 
#
# 1 0.009097 -0.002378 -0.003774 0.000000 0.000000 0.000000
# 2 -0.002378 0.009097 -0.003774 0.000000 0.000000 0.000000
# 3 -0.003774 -0.003774 0.016072 0.000000 0.000000 0.000000
# 4 0.000000 0.000000 0.000000 0.050020 0.000000 0.000000
# 5 0.000000 0.000000 0.000000 0.000000 0.050020 0.000000
# 6 0.000000 0.000000 0.000000 0.000000 0.000000 0.017794
#
#
# Mechanical properties :
#
#
# Convention : Reuss Voigt Hill
#
# Bulk Modulus (GPa) = 69.38249 75.42063 72.40156
# Shear Modulus (GPa) = 28.28746 33.99496 31.14121
#
# Velocity S-wave (km/s) = 3.53147 3.87138 3.70533
# Velocity P-wave (km/s) = 6.87150 7.29621 7.08704
#
# Compressibility (1/GPa) = 0.01441286
#
# Stress axis : x y z
#
# Youngs Moduli (GPa) = 109.93022 109.93022 62.21913
#
# Poissons Ratio (x) = 0.26143 0.23482
# Poissons Ratio (y) = 0.26143 0.23482
# Poissons Ratio (z) = 0.41489 0.41489
#
# Static dielectric constant tensor:
#      x y z
#    x 4.596640 0.000000 0.000000 
#    y 0.000000 4.596640 0.000000 
#    z 0.000000 0.000000 3.766810 
# 
# 
# High freq. dielectric constant tensor:
#      x y z
#    x 1.909160 0.000000 0.000000 
#    y 0.000000 1.909160 0.000000 
#    z 0.000000 0.000000 1.847100 
# 
# From -- ./inp_files/7657.got.cif
#   From: 2010.03.12/outbox.cif.g09.slc.cpg/sg93_4_cif.got.tgz:7657.got - 2010.04.08 20:44:19.
