data_PCOD8305347
_publ_section_title
;
Structure prediction by ZEFSAII (Michael W. Deem and Ramdas Pophale) SiO2 
 PCOD8305347
Probable space group: P 41 21 2
;
_chemical_formula_sum "Si O2"
_cell_formula_units_Z 40
_cell_length_a 14.761560
_cell_length_b 14.761560
_cell_length_c 7.875563
_cell_angle_alpha 90.000000
_cell_angle_beta 90.000000
_cell_angle_gamma 90.000000
_cell_volume 1716.113952
_symmetry_space_group_name_H-M "P 41 21 2"
_symmetry_group_IT_number 92
_symmetry_cell_setting 'tetragonal'
loop_
_space_group_symop_operation_xyz
x,y,z
1/2-y,1/2+x,1/4+z
-x,-y,1/2+z
1/2+y,1/2-x,3/4+z
1/2+x,1/2-y,3/4-z
1/2-x,1/2+y,1/4-z
y,x,-z
-y,-x,1/2-z
loop_
_atom_site_type_symbol
_atom_site_label
_atom_site_fract_x
_atom_site_fract_y
_atom_site_fract_z
Si Si1 0.516533 0.885407 0.399589
Si Si2 0.202277 0.068960 0.183003
Si Si3 0.521681 0.478320 0.750000
Si Si4 0.101417 0.898584 0.750000
Si Si5 0.218808 0.357250 0.320192
Si Si6 0.817143 0.817143 0.000000
Si Si7 0.256818 0.743183 0.250000
O O1 0.435478 0.942021 0.313678
O O2 0.497883 0.784831 0.475293
O O3 0.582034 0.865111 0.239935
O O4 0.161955 0.115506 0.348773
O O5 0.252132 0.138424 0.054220
O O6 0.115234 0.019078 0.106901
O O7 0.426974 0.472441 0.645271
O O8 0.088121 0.796372 0.677561
O O9 0.170427 0.286690 0.443862
O O10 0.266207 0.308271 0.158214
#
# Coordination Sequence:
#
# PCOD8305347 Si02
#       7
#     8   8   4   4   8   4   4
#     4  12  26  44  68 104 145 189 236 297 355 424
#     4  10  21  44  66  97 137 185 233 291 355 430
#     4  11  24  43  66  98 138 177 239 308 364 424
#     4  11  24  43  66 102 136 179 233 306 356 430
#     4  10  21  43  67  99 140 183 240 289 357 435
#     4   9  22  39  72  98 126 195 241 278 356 432
#     4   9  18  41  70  90 132 195 233 274 360 430
#
# _framework density 23.308475999999999
#
# number of rings (size 3 to 8) (size 9 to 14) (size 15 to 20)
#    0.000    1.600    4.000    0.000    2.800    1.600 
#    3.600    0.000    0.000    0.000    0.000    0.000 
#    0.000    0.000    0.000    0.000    0.000    0.000 
#
# Total GULP energy -495548.770171 kJ/mol
# GULP energy per Si atom -12388.719254 kJ/mol
# Density = 2.325542 g / cm^3
# Si number density = 23.308476 Si / 1000 Ang^3
#
#
#
# Elastic Constant Matrix: (Units=GPa)
#
#
# Indices 1 2 3 4 5 6 
#
# 1 47.5407 17.2250 13.5063 0.0000 0.0000 0.0000
# 2 17.2250 47.5378 13.5072 0.0000 0.0000 0.0000
# 3 13.5063 13.5072 83.4061 0.0000 0.0000 0.0000
# 4 0.0000 0.0000 0.0000 32.9643 0.0000 0.0000
# 5 0.0000 0.0000 0.0000 0.0000 32.9645 0.0000
# 6 0.0000 0.0000 0.0000 0.0000 0.0000 31.5953
#
#
#
# Elastic Compliance Matrix: (Units=1/GPa)
#
#
# Indices 1 2 3 4 5 6 
#
# 1 0.024773 -0.008214 -0.002681 0.000000 0.000000 0.000000
# 2 -0.008214 0.024774 -0.002682 0.000000 0.000000 0.000000
# 3 -0.002681 -0.002682 0.012858 0.000000 0.000000 0.000000
# 4 0.000000 0.000000 0.000000 0.030336 0.000000 0.000000
# 5 0.000000 0.000000 0.000000 0.000000 0.030336 0.000000
# 6 0.000000 0.000000 0.000000 0.000000 0.000000 0.031650
#
#
# Mechanical properties :
#
#
# Convention : Reuss Voigt Hill
#
# Bulk Modulus (GPa) = 28.36883 29.66241 29.01562
# Shear Modulus (GPa) = 25.82224 28.45457 27.13841
#
# Velocity S-wave (km/s) = 3.33205 3.49776 3.41591
# Velocity P-wave (km/s) = 5.19623 5.39130 5.29466
#
# Compressibility (1/GPa) = 0.03524995
#
# Stress axis : x y z
#
# Youngs Moduli (GPa) = 40.36726 40.36445 77.77233
#
# Poissons Ratio (x) = 0.33157 0.20853
# Poissons Ratio (y) = 0.33159 0.20858
# Poissons Ratio (z) = 0.10824 0.10825
#
# Static dielectric constant tensor:
#      x y z
#    x 4.112990 0.000000 0.000000 
#    y 0.000000 4.113020 0.000000 
#    z 0.000000 0.000000 4.318160 
# 
# 
# High freq. dielectric constant tensor:
#      x y z
#    x 1.914260 0.000000 0.000000 
#    y 0.000000 1.914260 0.000000 
#    z 0.000000 0.000000 1.924990 
# 
# From -- ./inp_files/1400.got.cif
#   From: 2010.03.12/outbox.cif.g09.slc.cpg/sg92_1_cif.got.tgz:1400.got - 2010.04.08 20:41:11.
