data_PCOD8305304
_publ_section_title
;
Structure prediction by ZEFSAII (Michael W. Deem and Ramdas Pophale) SiO2 
 PCOD8305304
Probable space group: P 41 21 2
;
_chemical_formula_sum "Si O2"
_cell_formula_units_Z 48
_cell_length_a 9.174987
_cell_length_b 9.174987
_cell_length_c 30.066237
_cell_angle_alpha 90.000000
_cell_angle_beta 90.000000
_cell_angle_gamma 90.000000
_cell_volume 2530.987450
_symmetry_space_group_name_H-M "P 41 21 2"
_symmetry_group_IT_number 92
_symmetry_cell_setting 'tetragonal'
loop_
_space_group_symop_operation_xyz
x,y,z
1/2-y,1/2+x,1/4+z
-x,-y,1/2+z
1/2+y,1/2-x,3/4+z
1/2+x,1/2-y,3/4-z
1/2-x,1/2+y,1/4-z
y,x,-z
-y,-x,1/2-z
loop_
_atom_site_type_symbol
_atom_site_label
_atom_site_fract_x
_atom_site_fract_y
_atom_site_fract_z
Si Si1 0.062255 0.697747 0.635852
Si Si2 0.808586 0.831621 0.950779
Si Si3 0.556300 0.031272 0.916148
Si Si4 0.003691 0.665530 0.420538
Si Si5 0.132434 0.349243 0.011582
Si Si6 0.920049 0.983531 0.433534
O O1 0.199348 0.706792 0.667393
O O2 0.086422 0.567445 0.599440
O O3 0.912025 0.660648 0.662835
O O4 0.042044 0.852808 0.612442
O O5 0.697048 0.956548 0.936376
O O6 0.772888 0.772888 0.000000
O O7 0.972910 0.892872 0.951864
O O8 0.599479 0.126305 0.872303
O O9 0.482275 0.134780 0.953747
O O10 0.940513 0.596839 0.465897
O O11 0.015471 0.839099 0.424125
O O12 0.047160 0.207830 0.031111
O O13 0.297671 0.297671 0.000000
#
# Coordination Sequence:
#
# PCOD8305304 Si02
#       6
#     8   8   8   8   8   8
#     4   9  21  38  56  81 119 153 188 244 294 342
#     4  12  22  35  58  88 119 155 196 238 297 365
#     4   9  21  34  58  85 116 153 195 239 291 347
#     4   9  19  35  60  79 111 150 194 242 284 342
#     4   9  17  36  56  85 112 150 190 245 289 335
#     4  10  21  36  59  86 113 153 199 241 284 352
#
# _framework density 18.964929999999999
#
# number of rings (size 3 to 8) (size 9 to 14) (size 15 to 20)
#    1.000    1.333    0.000    3.500    2.333    0.000 
#    0.000    0.000    0.000    3.000    0.000    0.000 
#    0.000    0.000    0.000    0.000    0.000    0.000 
#
# Total GULP energy -594746.351887 kJ/mol
# GULP energy per Si atom -12390.548998 kJ/mol
# Density = 1.892176 g / cm^3
# Si number density = 18.964930 Si / 1000 Ang^3
#
#
#
# Elastic Constant Matrix: (Units=GPa)
#
#
# Indices 1 2 3 4 5 6 
#
# 1 59.2384 24.8337 34.7681 0.0000 0.0000 0.0000
# 2 24.8337 59.2384 34.7681 0.0000 0.0000 0.0000
# 3 34.7681 34.7681 141.9383 0.0000 0.0000 0.0000
# 4 0.0000 0.0000 0.0000 24.3709 0.0000 0.0000
# 5 0.0000 0.0000 0.0000 0.0000 24.3709 0.0000
# 6 0.0000 0.0000 0.0000 0.0000 0.0000 27.3829
#
#
#
# Elastic Compliance Matrix: (Units=1/GPa)
#
#
# Indices 1 2 3 4 5 6 
#
# 1 0.021991 -0.007075 -0.003654 0.000000 0.000000 0.000000
# 2 -0.007075 0.021991 -0.003654 0.000000 0.000000 0.000000
# 3 -0.003654 -0.003654 0.008835 0.000000 0.000000 0.000000
# 4 0.000000 0.000000 0.000000 0.041033 0.000000 0.000000
# 5 0.000000 0.000000 0.000000 0.000000 0.041033 0.000000
# 6 0.000000 0.000000 0.000000 0.000000 0.000000 0.036519
#
#
# Mechanical properties :
#
#
# Convention : Reuss Voigt Hill
#
# Bulk Modulus (GPa) = 41.57445 49.90608 45.74026
# Shear Modulus (GPa) = 24.01715 26.29460 25.15587
#
# Velocity S-wave (km/s) = 3.56251 3.72759 3.64599
# Velocity P-wave (km/s) = 6.23629 6.70065 6.47263
#
# Compressibility (1/GPa) = 0.02405324
#
# Stress axis : x y z
#
# Youngs Moduli (GPa) = 45.47267 45.47267 113.18152
#
# Poissons Ratio (x) = 0.32170 0.41355
# Poissons Ratio (y) = 0.32170 0.41355
# Poissons Ratio (z) = 0.16615 0.16615
#
# Static dielectric constant tensor:
#      x y z
#    x 3.224410 0.000000 0.000000 
#    y 0.000000 3.224410 0.000000 
#    z 0.000000 0.000000 3.695000 
# 
# 
# High freq. dielectric constant tensor:
#      x y z
#    x 1.713800 0.000000 0.000000 
#    y 0.000000 1.713800 0.000000 
#    z 0.000000 0.000000 1.756600 
# 
# From -- ./inp_files/4481.got.cif
#   From: 2010.03.12/outbox.cif.g09.slc.cpg/sg92_3_cif.got.tgz:4481.got - 2010.04.08 20:41:11.
