data_PCOD8305892
_publ_section_title
;
Structure prediction by ZEFSAII (Michael W. Deem and Ramdas Pophale) SiO2 
 PCOD8305892
Probable space group: P 43 21 2
;
_chemical_formula_sum "Si O2"
_cell_formula_units_Z 60
_cell_length_a 10.958094
_cell_length_b 10.958094
_cell_length_c 23.210960
_cell_angle_alpha 90.000000
_cell_angle_beta 90.000000
_cell_angle_gamma 90.000000
_cell_volume 2787.167994
_symmetry_space_group_name_H-M "P 43 21 2"
_symmetry_group_IT_number 96
_symmetry_cell_setting 'tetragonal'
loop_
_space_group_symop_operation_xyz
x,y,z
1/2-y,1/2+x,3/4+z
-x,-y,1/2+z
1/2+y,1/2-x,1/4+z
1/2+x,1/2-y,1/4-z
1/2-x,1/2+y,3/4-z
y,x,-z
-y,-x,1/2-z
loop_
_atom_site_type_symbol
_atom_site_label
_atom_site_fract_x
_atom_site_fract_y
_atom_site_fract_z
Si Si1 0.531923 0.468078 0.750000
Si Si2 0.042541 0.372744 0.351467
Si Si3 0.196372 0.396929 0.776086
Si Si4 0.198811 0.019378 0.075758
Si Si5 0.424429 0.796625 0.280202
Si Si6 0.149538 0.439188 0.569768
Si Si7 0.405258 0.764206 0.634827
Si Si8 0.186091 0.643491 0.986861
O O1 0.523342 0.568607 0.800573
O O2 0.526571 0.339950 0.781843
O O3 0.123490 0.327710 0.405984
O O4 0.071522 0.516459 0.348072
O O5 0.084712 0.285999 0.298772
O O6 0.897897 0.346577 0.356923
O O7 0.201595 0.497782 0.724779
O O8 0.243246 0.463144 0.834441
O O9 0.287073 0.287681 0.761078
O O10 0.061936 0.343429 0.782033
O O11 0.189123 0.162792 0.090947
O O12 0.243724 0.941968 0.131865
O O13 0.331573 0.827151 0.226473
O O14 0.542272 0.882735 0.270969
O O15 0.420788 0.741146 0.565916
#
# Coordination Sequence:
#
# PCOD8305892 Si02
#       8
#     4   8   8   8   8   8   8   8
#     4  12  24  40  66  88 130 180 214 264 340 400
#     4   9  21  39  65  93 127 174 211 272 331 401
#     4  11  20  36  63  93 128 174 206 279 327 393
#     4  12  21  38  65 101 128 175 222 273 339 401
#     4  10  21  42  60  92 126 171 218 262 331 400
#     4  10  22  38  67  97 126 165 223 276 322 395
#     4  10  20  36  59  98 129 164 221 273 328 400
#     4  10  19  39  63  90 129 166 215 266 332 393
#
# _framework density 21.527228999999998
#
# number of rings (size 3 to 8) (size 9 to 14) (size 15 to 20)
#    0.000    1.600    4.000    0.800    0.000    4.267 
#    2.400    0.000    0.000    0.000    0.000    0.000 
#    0.000    0.000    0.000    0.000    0.000    0.000 
#
# Total GULP energy -743436.231366 kJ/mol
# GULP energy per Si atom -12390.603856 kJ/mol
# Density = 2.147823 g / cm^3
# Si number density = 21.527229 Si / 1000 Ang^3
#
#
#
# Elastic Constant Matrix: (Units=GPa)
#
#
# Indices 1 2 3 4 5 6 
#
# 1 77.8850 20.3714 65.7429 0.0000 0.0000 0.0000
# 2 20.3714 77.8852 65.7428 0.0000 0.0000 0.0000
# 3 65.7429 65.7428 204.7908 0.0000 0.0000 0.0000
# 4 0.0000 0.0000 0.0000 34.7968 0.0000 0.0000
# 5 0.0000 0.0000 0.0000 0.0000 34.7965 0.0000
# 6 0.0000 0.0000 0.0000 0.0000 0.0000 20.5008
#
#
#
# Elastic Compliance Matrix: (Units=1/GPa)
#
#
# Indices 1 2 3 4 5 6 
#
# 1 0.017615 0.000228 -0.005728 0.000000 0.000000 0.000000
# 2 0.000228 0.017615 -0.005728 0.000000 0.000000 0.000000
# 3 -0.005728 -0.005728 0.008561 0.000000 0.000000 0.000000
# 4 0.000000 0.000000 0.000000 0.028738 0.000000 0.000000
# 5 0.000000 0.000000 0.000000 0.000000 0.028739 0.000000
# 6 0.000000 0.000000 0.000000 0.000000 0.000000 0.048779
#
#
# Mechanical properties :
#
#
# Convention : Reuss Voigt Hill
#
# Bulk Modulus (GPa) = 46.87357 73.80834 60.34095
# Shear Modulus (GPa) = 27.83762 31.93240 29.88501
#
# Velocity S-wave (km/s) = 3.59992 3.85561 3.72995
# Velocity P-wave (km/s) = 6.25305 7.36080 6.82942
#
# Compressibility (1/GPa) = 0.02133398
#
# Stress axis : x y z
#
# Youngs Moduli (GPa) = 56.77039 56.77073 116.81446
#
# Poissons Ratio (x) = -0.01292 0.66910
# Poissons Ratio (y) = -0.01292 0.66909
# Poissons Ratio (z) = 0.32517 0.32517
#
# Static dielectric constant tensor:
#      x y z
#    x 3.772760 0.000000 0.000000 
#    y 0.000000 3.772770 0.000000 
#    z 0.000000 0.000000 4.342420 
# 
# 
# High freq. dielectric constant tensor:
#      x y z
#    x 1.827270 0.000000 0.000000 
#    y 0.000000 1.827270 0.000000 
#    z 0.000000 0.000000 1.859560 
# 
# From -- ./inp_files/3644.got.cif
#   From: 2010.03.12/outbox.cif.g09.slc.cpg/sg96_2_cif.got.tgz:3644.got - 2010.04.08 20:56:49.
