data_PCOD8305982
_publ_section_title
;
Structure prediction by ZEFSAII (Michael W. Deem and Ramdas Pophale) SiO2 
 PCOD8305982
Probable space group: P 43 21 2
;
_chemical_formula_sum "Si O2"
_cell_formula_units_Z 60
_cell_length_a 11.825521
_cell_length_b 11.825521
_cell_length_c 19.689099
_cell_angle_alpha 90.000000
_cell_angle_beta 90.000000
_cell_angle_gamma 90.000000
_cell_volume 2753.381626
_symmetry_space_group_name_H-M "P 43 21 2"
_symmetry_group_IT_number 96
_symmetry_cell_setting 'tetragonal'
loop_
_space_group_symop_operation_xyz
x,y,z
1/2-y,1/2+x,3/4+z
-x,-y,1/2+z
1/2+y,1/2-x,1/4+z
1/2+x,1/2-y,1/4-z
1/2-x,1/2+y,3/4-z
y,x,-z
-y,-x,1/2-z
loop_
_atom_site_type_symbol
_atom_site_label
_atom_site_fract_x
_atom_site_fract_y
_atom_site_fract_z
Si Si1 0.528687 0.748187 0.662092
Si Si2 0.868956 0.486891 0.728923
Si Si3 0.268000 0.171012 0.245391
Si Si4 0.606388 0.686800 0.188132
Si Si5 0.252791 0.416342 0.465076
Si Si6 0.113536 0.460147 0.073442
Si Si7 0.676447 0.498393 0.485872
Si Si8 0.966872 0.966872 0.500000
O O1 0.651133 0.798295 0.682445
O O2 0.426576 0.832443 0.675867
O O3 0.549428 0.722162 0.583708
O O4 0.483412 0.642211 0.704041
O O5 0.760716 0.559774 0.749243
O O6 0.843006 0.353830 0.741390
O O7 0.895891 0.494027 0.649489
O O8 0.973295 0.530519 0.773202
O O9 0.310054 0.256768 0.305066
O O10 0.136266 0.181603 0.227331
O O11 0.283111 0.042367 0.265886
O O12 0.578698 0.736038 0.115414
O O13 0.540586 0.568283 0.195282
O O14 0.366355 0.366355 0.500000
O O15 0.242587 0.465828 0.047888
O O16 0.550995 0.550995 0.500000
#
# Coordination Sequence:
#
# PCOD8305982 Si02
#       8
#     8   8   8   8   8   8   8   4
#     4  11  26  48  71 107 144 192 237 304 366 441
#     4  12  24  48  74 104 142 191 248 295 366 442
#     4  11  25  49  68 103 148 181 242 295 362 432
#     4  11  26  48  72 104 142 198 238 301 366 439
#     4  12  28  44  74 111 144 191 244 309 366 438
#     4  12  24  47  73 104 142 191 248 294 363 442
#     4  12  28  43  75 104 143 193 241 302 360 438
#     4  10  28  44  72 100 148 188 236 298 368 436
#
# _framework density 21.791385999999999
#
# number of rings (size 3 to 8) (size 9 to 14) (size 15 to 20)
#    0.000    0.533    5.333    0.400   13.067    0.000 
#    2.400    0.000    0.000    0.000    0.000    0.000 
#    0.000    0.000    0.000    0.000    0.000    0.000 
#
# Total GULP energy -743711.554846 kJ/mol
# GULP energy per Si atom -12395.192581 kJ/mol
# Density = 2.174179 g / cm^3
# Si number density = 21.791386 Si / 1000 Ang^3
#
#
#
# Elastic Constant Matrix: (Units=GPa)
#
#
# Indices 1 2 3 4 5 6 
#
# 1 119.5712 42.4225 30.4772 0.0000 0.0000 0.0000
# 2 42.4225 119.5712 30.4772 0.0000 0.0000 0.0000
# 3 30.4772 30.4772 132.6508 0.0000 0.0000 0.0000
# 4 0.0000 0.0000 0.0000 55.8540 0.0000 0.0000
# 5 0.0000 0.0000 0.0000 0.0000 55.8540 0.0000
# 6 0.0000 0.0000 0.0000 0.0000 0.0000 39.7283
#
#
#
# Elastic Compliance Matrix: (Units=1/GPa)
#
#
# Indices 1 2 3 4 5 6 
#
# 1 0.009860 -0.003102 -0.001553 0.000000 0.000000 0.000000
# 2 -0.003102 0.009860 -0.001553 0.000000 0.000000 0.000000
# 3 -0.001553 -0.001553 0.008252 0.000000 0.000000 0.000000
# 4 0.000000 0.000000 0.000000 0.017904 0.000000 0.000000
# 5 0.000000 0.000000 0.000000 0.000000 0.017904 0.000000
# 6 0.000000 0.000000 0.000000 0.000000 0.000000 0.025171
#
#
# Mechanical properties :
#
#
# Convention : Reuss Voigt Hill
#
# Bulk Modulus (GPa) = 64.28208 64.28302 64.28255
# Shear Modulus (GPa) = 46.92628 48.18167 47.55397
#
# Velocity S-wave (km/s) = 4.64554 4.70727 4.67651
# Velocity P-wave (km/s) = 7.63791 7.68816 7.66308
#
# Compressibility (1/GPa) = 0.01555644
#
# Stress axis : x y z
#
# Youngs Moduli (GPa) = 101.42383 101.42383 121.18295
#
# Poissons Ratio (x) = 0.31465 0.18814
# Poissons Ratio (y) = 0.31465 0.18814
# Poissons Ratio (z) = 0.15746 0.15746
#
# Static dielectric constant tensor:
#      x y z
#    x 4.026590 0.000000 0.000000 
#    y 0.000000 4.026590 0.000000 
#    z 0.000000 0.000000 4.085330 
# 
# 
# High freq. dielectric constant tensor:
#      x y z
#    x 1.868580 0.000000 0.000000 
#    y 0.000000 1.868580 0.000000 
#    z 0.000000 0.000000 1.859340 
# 
# From -- ./inp_files/3610.got.cif
#   From: 2010.03.12/outbox.cif.g09.slc.cpg/sg96_2_cif.got.tgz:3610.got - 2010.04.08 20:56:49.
