data_PCOD8305944
_publ_section_title
;
Structure prediction by ZEFSAII (Michael W. Deem and Ramdas Pophale) SiO2 
 PCOD8305944
Probable space group: P 43 21 2
;
_chemical_formula_sum "Si O2"
_cell_formula_units_Z 40
_cell_length_a 7.722149
_cell_length_b 7.722149
_cell_length_c 29.620977
_cell_angle_alpha 90.000000
_cell_angle_beta 90.000000
_cell_angle_gamma 90.000000
_cell_volume 1766.345813
_symmetry_space_group_name_H-M "P 43 21 2"
_symmetry_group_IT_number 96
_symmetry_cell_setting 'tetragonal'
loop_
_space_group_symop_operation_xyz
x,y,z
1/2-y,1/2+x,3/4+z
-x,-y,1/2+z
1/2+y,1/2-x,1/4+z
1/2+x,1/2-y,1/4-z
1/2-x,1/2+y,3/4-z
y,x,-z
-y,-x,1/2-z
loop_
_atom_site_type_symbol
_atom_site_label
_atom_site_fract_x
_atom_site_fract_y
_atom_site_fract_z
Si Si1 0.265788 0.637158 0.933562
Si Si2 0.150669 0.628114 0.029221
Si Si3 0.994572 0.862368 0.175448
Si Si4 0.859872 0.752274 0.086114
Si Si5 0.891785 0.517908 0.344195
O O1 0.454630 0.560710 0.944079
O O2 0.193540 0.564459 0.887398
O O3 0.264189 0.845616 0.929742
O O4 0.141774 0.592844 0.975840
O O5 0.339567 0.706613 0.042364
O O6 0.993085 0.758853 0.043470
O O7 0.127519 0.447264 0.057111
O O8 0.156725 0.725168 0.177164
O O9 0.918547 0.887721 0.124547
O O10 0.875482 0.562722 0.109966
#
# Coordination Sequence:
#
# PCOD8305944 Si02
#       5
#     8   8   8   8   8
#     4  11  22  40  65  93 135 177 236 286 367 419
#     4  10  22  40  64  98 132 179 234 289 345 438
#     4  11  19  38  65  94 131 176 224 287 353 415
#     4   9  20  38  62  95 128 174 225 281 349 414
#     4   9  22  40  63  94 132 177 220 293 348 414
#
# _framework density 22.645623000000001
#
# number of rings (size 3 to 8) (size 9 to 14) (size 15 to 20)
#    1.200    0.800    2.000    1.800    0.000    1.600 
#    3.600    0.000    0.000    0.000    0.000    0.000 
#    0.000    0.000    0.000    0.000    0.000    0.000 
#
# Total GULP energy -495642.372498 kJ/mol
# GULP energy per Si atom -12391.059312 kJ/mol
# Density = 2.259408 g / cm^3
# Si number density = 22.645623 Si / 1000 Ang^3
#
#
#
# Elastic Constant Matrix: (Units=GPa)
#
#
# Indices 1 2 3 4 5 6 
#
# 1 97.5511 11.2791 40.2151 0.0000 0.0000 0.0000
# 2 11.2791 97.5511 40.2151 0.0000 0.0000 0.0000
# 3 40.2151 40.2151 147.2301 0.0000 0.0000 0.0000
# 4 0.0000 0.0000 0.0000 32.2398 0.0000 0.0000
# 5 0.0000 0.0000 0.0000 0.0000 32.2398 0.0000
# 6 0.0000 0.0000 0.0000 0.0000 0.0000 23.9755
#
#
#
# Elastic Compliance Matrix: (Units=1/GPa)
#
#
# Indices 1 2 3 4 5 6 
#
# 1 0.011552 -0.000039 -0.003145 0.000000 0.000000 0.000000
# 2 -0.000039 0.011552 -0.003145 0.000000 0.000000 0.000000
# 3 -0.003145 -0.003145 0.008510 0.000000 0.000000 0.000000
# 4 0.000000 0.000000 0.000000 0.031018 0.000000 0.000000
# 5 0.000000 0.000000 0.000000 0.000000 0.031018 0.000000
# 6 0.000000 0.000000 0.000000 0.000000 0.000000 0.041709
#
#
# Mechanical properties :
#
#
# Convention : Reuss Voigt Hill
#
# Bulk Modulus (GPa) = 52.75162 58.41677 55.58419
# Shear Modulus (GPa) = 32.39723 34.39921 33.39822
#
# Velocity S-wave (km/s) = 3.78645 3.90169 3.84450
# Velocity P-wave (km/s) = 6.51623 6.79335 6.65624
#
# Compressibility (1/GPa) = 0.01895676
#
# Stress axis : x y z
#
# Youngs Moduli (GPa) = 86.56554 86.56554 117.50943
#
# Poissons Ratio (x) = 0.00340 0.36952
# Poissons Ratio (y) = 0.00340 0.36952
# Poissons Ratio (z) = 0.27221 0.27221
#
# Static dielectric constant tensor:
#      x y z
#    x 4.032930 0.000000 0.000000 
#    y 0.000000 4.032930 0.000000 
#    z 0.000000 0.000000 3.742670 
# 
# 
# High freq. dielectric constant tensor:
#      x y z
#    x 1.877650 0.000000 0.000000 
#    y 0.000000 1.877650 0.000000 
#    z 0.000000 0.000000 1.880560 
# 
# From -- ./inp_files/4312.got.cif
#   From: 2010.03.12/outbox.cif.g09.slc.cpg/sg96_3_cif.got.tgz:4312.got - 2010.04.08 20:56:49.
