data_PCOD8305675
_publ_section_title
;
Structure prediction by ZEFSAII (Michael W. Deem and Ramdas Pophale) SiO2 
 PCOD8305675
Probable space group: P 42 21 2
;
_chemical_formula_sum "Si O2"
_cell_formula_units_Z 48
_cell_length_a 8.071825
_cell_length_b 8.071825
_cell_length_c 31.379749
_cell_angle_alpha 90.000000
_cell_angle_beta 90.000000
_cell_angle_gamma 90.000000
_cell_volume 2044.527426
_symmetry_space_group_name_H-M "P 42 21 2"
_symmetry_group_IT_number 94
_symmetry_cell_setting 'tetragonal'
loop_
_space_group_symop_operation_xyz
x,y,z
1/2-y,1/2+x,1/2+z
-x,-y,z
1/2+y,1/2-x,1/2+z
1/2+x,1/2-y,1/2-z
1/2-x,1/2+y,1/2-z
y,x,-z
-y,-x,-z
loop_
_atom_site_type_symbol
_atom_site_label
_atom_site_fract_x
_atom_site_fract_y
_atom_site_fract_z
Si Si1 0.310584 0.349391 0.549818
Si Si2 0.185031 0.040048 0.594098
Si Si3 0.377790 0.809725 0.187421
Si Si4 0.681392 0.051958 0.769119
Si Si5 0.325246 0.700106 0.582112
Si Si6 0.843792 0.894423 0.172831
O O1 0.342500 0.342500 0.500000
O O2 0.185763 0.205000 0.564563
O O3 0.242749 0.536497 0.560121
O O4 0.478918 0.309397 0.574761
O O5 0.269928 0.077844 0.639137
O O6 0.261898 0.882939 0.567466
O O7 0.000000 0.000000 0.605770
O O8 0.540306 0.786684 0.217753
O O9 0.227052 0.707652 0.208328
O O10 0.316096 0.999789 0.187458
O O11 0.794546 0.903291 0.786468
O O12 0.500000 0.000000 0.781681
O O13 0.280824 0.701917 0.632370
O O14 0.000000 0.000000 0.155878
#
# Coordination Sequence:
#
# PCOD8305675 Si02
#       6
#     8   8   8   8   8   8
#     4  11  24  51  81 114 143 189 255 308 383 470
#     4  12  29  47  72 113 153 200 246 316 381 453
#     4  11  25  44  64  98 144 195 251 302 376 443
#     4  11  25  39  65 101 136 190 252 314 366 432
#     4  11  22  47  80 103 144 198 244 301 381 454
#     4  10  20  41  68  94 139 184 247 301 366 442
#
# _framework density 23.477307
#
# number of rings (size 3 to 8) (size 9 to 14) (size 15 to 20)
#    0.000    1.000    3.333    3.500    7.000    3.000 
#    9.000    0.000    0.000    0.000    0.000    0.000 
#    0.000    0.000    0.000    0.000    0.000    0.000 
#
# Total GULP energy -594816.801207 kJ/mol
# GULP energy per Si atom -12392.016692 kJ/mol
# Density = 2.342387 g / cm^3
# Si number density = 23.477307 Si / 1000 Ang^3
#
#
#
# Elastic Constant Matrix: (Units=GPa)
#
#
# Indices 1 2 3 4 5 6 
#
# 1 116.0279 32.0638 31.7077 0.0000 0.0000 0.0000
# 2 32.0638 116.0279 31.7077 0.0000 0.0000 0.0000
# 3 31.7077 31.7077 114.2701 0.0000 0.0000 0.0000
# 4 0.0000 0.0000 0.0000 19.7775 0.0000 0.0000
# 5 0.0000 0.0000 0.0000 0.0000 19.7775 0.0000
# 6 0.0000 0.0000 0.0000 0.0000 0.0000 36.8302
#
#
#
# Elastic Compliance Matrix: (Units=1/GPa)
#
#
# Indices 1 2 3 4 5 6 
#
# 1 0.009786 -0.002123 -0.002126 0.000000 0.000000 0.000000
# 2 -0.002123 0.009786 -0.002126 0.000000 0.000000 0.000000
# 3 -0.002126 -0.002126 0.009931 0.000000 0.000000 0.000000
# 4 0.000000 0.000000 0.000000 0.050563 0.000000 0.000000
# 5 0.000000 0.000000 0.000000 0.000000 0.050563 0.000000
# 6 0.000000 0.000000 0.000000 0.000000 0.000000 0.027152
#
#
# Mechanical properties :
#
#
# Convention : Reuss Voigt Hill
#
# Bulk Modulus (GPa) = 59.69426 59.69823 59.69625
# Shear Modulus (GPa) = 28.39020 32.00015 30.19517
#
# Velocity S-wave (km/s) = 3.48122 3.69592 3.59017
# Velocity P-wave (km/s) = 6.45291 6.61032 6.53209
#
# Compressibility (1/GPa) = 0.01675203
#
# Stress axis : x y z
#
# Youngs Moduli (GPa) = 102.18177 102.18177 100.69236
#
# Poissons Ratio (x) = 0.21697 0.21411
# Poissons Ratio (y) = 0.21697 0.21411
# Poissons Ratio (z) = 0.21728 0.21728
#
# Static dielectric constant tensor:
#      x y z
#    x 4.443170 0.000000 0.000000 
#    y 0.000000 4.443170 0.000000 
#    z 0.000000 0.000000 4.079330 
# 
# 
# High freq. dielectric constant tensor:
#      x y z
#    x 1.931720 0.000000 0.000000 
#    y 0.000000 1.931720 0.000000 
#    z 0.000000 0.000000 1.928160 
# 
# From -- ./inp_files/5567.got.cif
#   From: 2010.03.12/outbox.cif.g09.slc.cpg/sg94_3_cif.got.tgz:5567.got - 2010.04.08 20:48:32.
