data_PCOD8305038
_publ_section_title
;
Structure prediction by ZEFSAII (Michael W. Deem and Ramdas Pophale) SiO2 
 PCOD8305038
Probable space group: P 41 2 2
;
_chemical_formula_sum "Si O2"
_cell_formula_units_Z 56
_cell_length_a 15.055102
_cell_length_b 15.055102
_cell_length_c 11.700465
_cell_angle_alpha 90.000000
_cell_angle_beta 90.000000
_cell_angle_gamma 90.000000
_cell_volume 2651.981721
_symmetry_space_group_name_H-M "P 41 2 2"
_symmetry_group_IT_number 91
_symmetry_cell_setting 'tetragonal'
loop_
_space_group_symop_operation_xyz
x,y,z
-y,x,1/4+z
-x,-y,1/2+z
y,-x,3/4+z
x,-y,1/2-z
-x,y,-z
y,x,3/4-z
-y,-x,1/4-z
loop_
_atom_site_type_symbol
_atom_site_label
_atom_site_fract_x
_atom_site_fract_y
_atom_site_fract_z
Si Si1 0.000000 0.663089 0.500000
Si Si2 0.500000 0.208867 0.500000
Si Si3 0.835991 0.645496 0.142945
Si Si4 0.255493 0.694905 0.250811
Si Si5 0.952422 0.186289 0.378663
Si Si6 0.077872 0.212592 0.180573
Si Si7 0.718091 0.576495 0.334210
Si Si8 0.146956 0.482924 0.001973
O O1 0.010507 0.728800 0.393038
O O2 0.085122 0.601715 0.519516
O O3 0.411364 0.268839 0.512373
O O4 0.491594 0.148514 0.386144
O O5 0.912181 0.717704 0.146493
O O6 0.803698 0.619332 0.269928
O O7 0.744634 0.676165 0.082776
O O8 0.884875 0.566520 0.073424
O O9 0.273235 0.726766 0.125000
O O10 0.154873 0.720552 0.280147
O O11 0.872171 0.116538 0.362949
O O12 0.000000 0.181460 0.500000
O O13 0.027653 0.167905 0.286317
O O14 0.678372 0.500000 0.250000
O O15 0.643855 0.643855 0.375000
O O16 0.754497 0.538254 0.454161
#
# Coordination Sequence:
#
# PCOD8305038 Si02
#       8
#     4   4   8   8   8   8   8   8
#     4  12  26  44  64 100 140 166 226 274 346 398
#     4  12  22  38  68  98 138 174 218 278 326 398
#     4  10  22  41  70  98 132 179 220 273 342 409
#     4  11  21  40  68  99 136 178 224 268 340 405
#     4  11  24  44  70  95 128 174 228 275 337 405
#     4  11  25  45  65  96 130 175 225 281 335 406
#     4  10  22  42  69  93 133 176 228 269 334 400
#     4  11  24  41  65 101 134 175 213 281 333 398
#
# _framework density 21.116285000000001
#
# number of rings (size 3 to 8) (size 9 to 14) (size 15 to 20)
#    0.000    1.143    2.857    3.857    3.000    0.571 
#    7.714    0.000   14.143    0.000    0.000    0.000 
#    0.000    0.000    0.000    0.000    0.000    0.000 
#
# Total GULP energy -694297.471684 kJ/mol
# GULP energy per Si atom -12398.169137 kJ/mol
# Density = 2.106822 g / cm^3
# Si number density = 21.116285 Si / 1000 Ang^3
#
#
#
# Elastic Constant Matrix: (Units=GPa)
#
#
# Indices 1 2 3 4 5 6 
#
# 1 99.5060 10.5158 32.9657 0.0000 0.0000 0.0000
# 2 10.5158 99.5082 32.9668 0.0000 0.0000 0.0000
# 3 32.9657 32.9668 113.9000 0.0000 0.0000 0.0000
# 4 0.0000 0.0000 0.0000 10.3026 0.0000 0.0000
# 5 0.0000 0.0000 0.0000 0.0000 10.3019 0.0000
# 6 0.0000 0.0000 0.0000 0.0000 0.0000 -207.1277
#
#
#
# Elastic Compliance Matrix: (Units=1/GPa)
#
#
# Indices 1 2 3 4 5 6 
#
# 1 0.011117 -0.000120 -0.003183 0.000000 0.000000 0.000000
# 2 -0.000120 0.011117 -0.003183 0.000000 0.000000 0.000000
# 3 -0.003183 -0.003183 0.010622 0.000000 0.000000 0.000000
# 4 0.000000 0.000000 0.000000 0.097063 0.000000 0.000000
# 5 0.000000 0.000000 0.000000 0.000000 0.097069 0.000000
# 6 0.000000 0.000000 0.000000 0.000000 0.000000 -0.004828
#
#
# Mechanical properties :
#
#
# Convention : Reuss Voigt Hill
#
# Bulk Modulus (GPa) = 50.29211 51.75674 51.02442
# Shear Modulus (GPa) = 20.68177 -21.54024 -0.42923
#
# Velocity S-wave (km/s) = 3.13297 -3.19733 -0.45134
# Velocity P-wave (km/s) = 6.07913 3.30651 4.89330
#
# Compressibility (1/GPa) = 0.01988383
#
# Stress axis : x y z
#
# Youngs Moduli (GPa) = 89.95428 89.95588 94.14462
#
# Poissons Ratio (x) = 0.01083 0.29963
# Poissons Ratio (y) = 0.01083 0.29963
# Poissons Ratio (z) = 0.28629 0.28630
#
# Static dielectric constant tensor:
#      x y z
#    x 3.726040 0.000000 0.000000 
#    y 0.000000 3.726050 0.000000 
#    z 0.000000 0.000000 3.908290 
# 
# 
# High freq. dielectric constant tensor:
#      x y z
#    x 1.825030 0.000000 0.000000 
#    y 0.000000 1.825030 0.000000 
#    z 0.000000 0.000000 1.840200 
# 
# From -- ./inp_files/16010.got.cif
#   From: 2010.03.12/outbox.cif.g09.slc.cpg/sg91_9_cif.got.tgz:16010.got - 2010.04.08 20:27:58.
