data_PCOD8305246
_publ_section_title
;
Structure prediction by ZEFSAII (Michael W. Deem and Ramdas Pophale) SiO2 
 PCOD8305246
Probable space group: P 41 21 2
;
_chemical_formula_sum "Si O2"
_cell_formula_units_Z 48
_cell_length_a 12.786598
_cell_length_b 12.786598
_cell_length_c 16.707086
_cell_angle_alpha 90.000000
_cell_angle_beta 90.000000
_cell_angle_gamma 90.000000
_cell_volume 2731.559917
_symmetry_space_group_name_H-M "P 41 21 2"
_symmetry_group_IT_number 92
_symmetry_cell_setting 'tetragonal'
loop_
_space_group_symop_operation_xyz
x,y,z
1/2-y,1/2+x,1/4+z
-x,-y,1/2+z
1/2+y,1/2-x,3/4+z
1/2+x,1/2-y,3/4-z
1/2-x,1/2+y,1/4-z
y,x,-z
-y,-x,1/2-z
loop_
_atom_site_type_symbol
_atom_site_label
_atom_site_fract_x
_atom_site_fract_y
_atom_site_fract_z
Si Si1 0.526917 0.649585 0.561058
Si Si2 0.609545 0.812510 0.300065
Si Si3 0.705995 0.349667 0.558743
Si Si4 0.929231 0.364143 0.629460
Si Si5 0.938284 0.460480 0.801033
Si Si6 0.901979 0.985619 0.579367
O O1 0.625066 0.625066 0.500000
O O2 0.419172 0.674729 0.517272
O O3 0.547894 0.741533 0.625861
O O4 0.515430 0.545890 0.614329
O O5 0.730476 0.792616 0.281336
O O6 0.888161 0.684277 0.343866
O O7 0.559595 0.864957 0.220088
O O8 0.554569 0.702689 0.318722
O O9 0.607289 0.103289 0.624278
O O10 0.624309 0.373667 0.630207
O O11 0.938470 0.387034 0.723538
O O12 0.001039 0.444183 0.576652
O O13 0.964319 0.964319 0.500000
#
# Coordination Sequence:
#
# PCOD8305246 Si02
#       6
#     8   8   8   8   8   8
#     4  10  21  37  53  84 116 147 188 239 288 343
#     4  11  21  36  55  84 118 149 186 238 297 335
#     4  11  21  33  57  83 115 150 186 234 295 340
#     4  11  18  32  55  82 110 144 183 235 286 334
#     4  10  20  33  52  86 114 140 188 239 281 341
#     4  11  21  35  58  86 114 146 193 243 285 342
#
# _framework density 17.572376999999999
#
# number of rings (size 3 to 8) (size 9 to 14) (size 15 to 20)
#    0.000    1.333    6.667    2.000    0.000    0.000 
#    0.000    5.000    0.000    0.000    0.000    0.000 
#    0.000    0.000    0.000    0.000    0.000    0.000 
#
# Total GULP energy -594677.353563 kJ/mol
# GULP energy per Si atom -12389.111533 kJ/mol
# Density = 1.753238 g / cm^3
# Si number density = 17.572377 Si / 1000 Ang^3
#
#
#
# Elastic Constant Matrix: (Units=GPa)
#
#
# Indices 1 2 3 4 5 6 
#
# 1 80.6395 26.3186 42.0176 0.0000 0.0000 0.0000
# 2 26.3186 80.6395 42.0176 0.0000 0.0000 0.0000
# 3 42.0176 42.0176 96.4431 0.0000 0.0000 0.0000
# 4 0.0000 0.0000 0.0000 32.6011 0.0000 0.0000
# 5 0.0000 0.0000 0.0000 0.0000 32.6011 0.0000
# 6 0.0000 0.0000 0.0000 0.0000 0.0000 22.3647
#
#
#
# Elastic Compliance Matrix: (Units=1/GPa)
#
#
# Indices 1 2 3 4 5 6 
#
# 1 0.016312 -0.002097 -0.006193 0.000000 0.000000 0.000000
# 2 -0.002097 0.016312 -0.006193 0.000000 0.000000 0.000000
# 3 -0.006193 -0.006193 0.015765 0.000000 0.000000 0.000000
# 4 0.000000 0.000000 0.000000 0.030674 0.000000 0.000000
# 5 0.000000 0.000000 0.000000 0.000000 0.030674 0.000000
# 6 0.000000 0.000000 0.000000 0.000000 0.000000 0.044713
#
#
# Mechanical properties :
#
#
# Convention : Reuss Voigt Hill
#
# Bulk Modulus (GPa) = 51.48527 53.15887 52.32207
# Shear Modulus (GPa) = 26.33075 27.33790 26.83433
#
# Velocity S-wave (km/s) = 3.87514 3.94856 3.91202
# Velocity P-wave (km/s) = 7.02744 7.14879 7.08837
#
# Compressibility (1/GPa) = 0.01942303
#
# Stress axis : x y z
#
# Youngs Moduli (GPa) = 61.30351 61.30351 63.43045
#
# Poissons Ratio (x) = 0.12855 0.39284
# Poissons Ratio (y) = 0.12855 0.39284
# Poissons Ratio (z) = 0.37967 0.37967
#
# Static dielectric constant tensor:
#      x y z
#    x 3.282380 0.000000 0.000000 
#    y 0.000000 3.282380 0.000000 
#    z 0.000000 0.000000 3.348020 
# 
# 
# High freq. dielectric constant tensor:
#      x y z
#    x 1.670380 0.000000 0.000000 
#    y 0.000000 1.670380 0.000000 
#    z 0.000000 0.000000 1.672480 
# 
# From -- ./inp_files/3120.got.cif
#   From: 2010.03.12/outbox.cif.g09.slc.cpg/sg92_2_cif.got.tgz:3120.got - 2010.04.08 20:41:11.
