data_PCOD8305652
_publ_section_title
;
Structure prediction by ZEFSAII (Michael W. Deem and Ramdas Pophale) SiO2 
 PCOD8305652
Probable space group: P 42 21 2
;
_chemical_formula_sum "Si O2"
_cell_formula_units_Z 40
_cell_length_a 8.488048
_cell_length_b 8.488048
_cell_length_c 24.316194
_cell_angle_alpha 90.000000
_cell_angle_beta 90.000000
_cell_angle_gamma 90.000000
_cell_volume 1751.907829
_symmetry_space_group_name_H-M "P 42 21 2"
_symmetry_group_IT_number 94
_symmetry_cell_setting 'tetragonal'
loop_
_space_group_symop_operation_xyz
x,y,z
1/2-y,1/2+x,1/2+z
-x,-y,z
1/2+y,1/2-x,1/2+z
1/2+x,1/2-y,1/2-z
1/2-x,1/2+y,1/2-z
y,x,-z
-y,-x,-z
loop_
_atom_site_type_symbol
_atom_site_label
_atom_site_fract_x
_atom_site_fract_y
_atom_site_fract_z
Si Si1 0.606099 0.767058 0.549284
Si Si2 0.390685 0.240300 0.051084
Si Si3 0.834942 0.414005 0.759198
Si Si4 0.168713 0.935839 0.163349
Si Si5 0.754027 0.185185 0.670096
O O1 0.658675 0.658675 0.500000
O O2 0.421903 0.798799 0.541142
O O3 0.642332 0.660542 0.603367
O O4 0.709347 0.923893 0.553540
O O5 0.339767 0.326963 0.108896
O O6 0.355414 0.355414 0.000000
O O7 0.820478 0.245942 0.791561
O O8 0.796183 0.356317 0.696949
O O9 0.713005 0.534614 0.789383
O O10 0.000000 0.500000 0.754609
O O11 0.305718 0.067683 0.158850
O O12 0.000000 0.000000 0.183564
#
# Coordination Sequence:
#
# PCOD8305652 Si02
#       5
#     8   8   8   8   8
#     4  10  22  39  63  92 119 164 217 262 319 397
#     4  10  22  42  62  89 130 166 208 272 334 383
#     4  10  20  38  62  91 125 166 215 263 330 400
#     4  10  20  35  61  91 122 159 209 268 325 377
#     4  10  20  38  61  87 127 165 206 271 331 390
#
# _framework density 22.832253999999999
#
# number of rings (size 3 to 8) (size 9 to 14) (size 15 to 20)
#    0.000    2.000    2.000    1.200    5.600    0.400 
#    3.600    2.000    8.800    0.000    0.000    0.000 
#    0.000    0.000    0.000    0.000    0.000    0.000 
#
# Total GULP energy -495540.999863 kJ/mol
# GULP energy per Si atom -12388.524997 kJ/mol
# Density = 2.278029 g / cm^3
# Si number density = 22.832254 Si / 1000 Ang^3
#
#
#
# Elastic Constant Matrix: (Units=GPa)
#
#
# Indices 1 2 3 4 5 6 
#
# 1 64.7730 18.2304 43.5397 0.0000 0.0000 0.0000
# 2 18.2304 64.7730 43.5397 0.0000 0.0000 0.0000
# 3 43.5397 43.5397 173.3576 0.0000 0.0000 0.0000
# 4 0.0000 0.0000 0.0000 35.3319 0.0000 0.0000
# 5 0.0000 0.0000 0.0000 0.0000 35.3319 0.0000
# 6 0.0000 0.0000 0.0000 0.0000 0.0000 31.7737
#
#
#
# Elastic Compliance Matrix: (Units=1/GPa)
#
#
# Indices 1 2 3 4 5 6 
#
# 1 0.018922 -0.002564 -0.004108 0.000000 0.000000 0.000000
# 2 -0.002564 0.018922 -0.004108 0.000000 0.000000 0.000000
# 3 -0.004108 -0.004108 0.007832 0.000000 0.000000 0.000000
# 4 0.000000 0.000000 0.000000 0.028303 0.000000 0.000000
# 5 0.000000 0.000000 0.000000 0.000000 0.028303 0.000000
# 6 0.000000 0.000000 0.000000 0.000000 0.000000 0.031473
#
#
# Mechanical properties :
#
#
# Convention : Reuss Voigt Hill
#
# Bulk Modulus (GPa) = 41.46921 57.05813 49.26367
# Shear Modulus (GPa) = 30.60845 33.66043 32.13444
#
# Velocity S-wave (km/s) = 3.66536 3.84376 3.75562
# Velocity P-wave (km/s) = 6.00959 6.68907 6.35842
#
# Compressibility (1/GPa) = 0.02411428
#
# Stress axis : x y z
#
# Youngs Moduli (GPa) = 52.84924 52.84924 127.67985
#
# Poissons Ratio (x) = 0.13550 0.52455
# Poissons Ratio (y) = 0.13550 0.52455
# Poissons Ratio (z) = 0.21712 0.21712
#
# Static dielectric constant tensor:
#      x y z
#    x 3.845240 0.000000 0.000000 
#    y 0.000000 3.845240 0.000000 
#    z 0.000000 0.000000 4.433480 
# 
# 
# High freq. dielectric constant tensor:
#      x y z
#    x 1.880260 0.000000 0.000000 
#    y 0.000000 1.880260 0.000000 
#    z 0.000000 0.000000 1.919320 
# 
# From -- ./inp_files/4963.got.cif
#   From: 2010.03.12/outbox.cif.g09.slc.cpg/sg94_3_cif.got.tgz:4963.got - 2010.04.08 20:48:32.
