data_PCOD8305026
_publ_section_title
;
Structure prediction by ZEFSAII (Michael W. Deem and Ramdas Pophale) SiO2 
 PCOD8305026
Probable space group: P 41 2 2
;
_chemical_formula_sum "Si O2"
_cell_formula_units_Z 48
_cell_length_a 9.601426
_cell_length_b 9.601426
_cell_length_c 26.120327
_cell_angle_alpha 90.000000
_cell_angle_beta 90.000000
_cell_angle_gamma 90.000000
_cell_volume 2407.964543
_symmetry_space_group_name_H-M "P 41 2 2"
_symmetry_group_IT_number 91
_symmetry_cell_setting 'tetragonal'
loop_
_space_group_symop_operation_xyz
x,y,z
-y,x,1/4+z
-x,-y,1/2+z
y,-x,3/4+z
x,-y,1/2-z
-x,y,-z
y,x,3/4-z
-y,-x,1/4-z
loop_
_atom_site_type_symbol
_atom_site_label
_atom_site_fract_x
_atom_site_fract_y
_atom_site_fract_z
Si Si1 0.473262 0.204487 0.689536
Si Si2 0.648787 0.997843 0.026076
Si Si3 0.693328 0.662765 0.743552
Si Si4 0.069955 0.419762 0.886004
Si Si5 0.572195 0.340498 0.866372
Si Si6 0.751351 0.148254 0.229195
O O1 0.621199 0.268730 0.706580
O O2 0.397743 0.293586 0.645675
O O3 0.379297 0.206505 0.739764
O O4 0.498856 0.046972 0.670086
O O5 0.641198 0.990414 0.087374
O O6 0.748450 0.122710 0.010404
O O7 0.718959 0.851689 0.008926
O O8 0.500000 0.022954 0.000000
O O9 0.702804 0.500000 0.750000
O O10 0.604985 0.689207 0.692724
O O11 0.188225 0.524009 0.864142
O O12 0.138893 0.295388 0.919713
O O13 0.446825 0.446825 0.875000
O O14 0.801274 0.000000 0.250000
#
# Coordination Sequence:
#
# PCOD8305026 Si02
#       6
#     8   8   8   8   8   8
#     4  11  23  42  62  92 132 160 215 269 315 385
#     4  11  23  41  62  90 126 165 210 262 320 379
#     4  11  23  40  63  93 126 167 211 267 318 376
#     4  11  23  39  66  95 124 166 215 267 318 382
#     4  12  22  38  66  93 123 168 212 259 320 379
#     4  10  22  40  61  90 127 166 209 263 314 375
#
# _framework density 19.933848000000001
#
# number of rings (size 3 to 8) (size 9 to 14) (size 15 to 20)
#    0.000    1.000    5.000    2.500    0.000    0.667 
#    3.000    0.000    0.000    0.000    0.000    0.000 
#    0.000    0.000    0.000    0.000    0.000    0.000 
#
# Total GULP energy -595225.883704 kJ/mol
# GULP energy per Si atom -12400.539244 kJ/mol
# Density = 1.988848 g / cm^3
# Si number density = 19.933848 Si / 1000 Ang^3
#
#
#
# Elastic Constant Matrix: (Units=GPa)
#
#
# Indices 1 2 3 4 5 6 
#
# 1 104.2787 53.6634 23.6081 0.0000 0.0000 0.0000
# 2 53.6634 104.2787 23.6081 0.0000 0.0000 0.0000
# 3 23.6081 23.6081 77.3668 0.0000 0.0000 0.0000
# 4 0.0000 0.0000 0.0000 26.6178 0.0000 0.0000
# 5 0.0000 0.0000 0.0000 0.0000 26.6178 0.0000
# 6 0.0000 0.0000 0.0000 0.0000 0.0000 22.4482
#
#
#
# Elastic Compliance Matrix: (Units=1/GPa)
#
#
# Indices 1 2 3 4 5 6 
#
# 1 0.013362 -0.006395 -0.002126 0.000000 0.000000 0.000000
# 2 -0.006395 0.013362 -0.002126 0.000000 0.000000 0.000000
# 3 -0.002126 -0.002126 0.014223 0.000000 0.000000 0.000000
# 4 0.000000 0.000000 0.000000 0.037569 0.000000 0.000000
# 5 0.000000 0.000000 0.000000 0.000000 0.037569 0.000000
# 6 0.000000 0.000000 0.000000 0.000000 0.000000 0.044547
#
#
# Mechanical properties :
#
#
# Convention : Reuss Voigt Hill
#
# Bulk Modulus (GPa) = 50.88263 54.18705 52.53484
# Shear Modulus (GPa) = 26.52854 27.47305 27.00080
#
# Velocity S-wave (km/s) = 3.65201 3.71645 3.68437
# Velocity P-wave (km/s) = 6.58514 6.75711 6.67168
#
# Compressibility (1/GPa) = 0.01965307
#
# Stress axis : x y z
#
# Youngs Moduli (GPa) = 74.83958 74.83958 70.30924
#
# Poissons Ratio (x) = 0.47859 0.14947
# Poissons Ratio (y) = 0.47859 0.14947
# Poissons Ratio (z) = 0.15910 0.15910
#
# Static dielectric constant tensor:
#      x y z
#    x 3.733390 0.000000 0.000000 
#    y 0.000000 3.733390 0.000000 
#    z 0.000000 0.000000 3.689160 
# 
# 
# High freq. dielectric constant tensor:
#      x y z
#    x 1.774860 0.000000 0.000000 
#    y 0.000000 1.774860 0.000000 
#    z 0.000000 0.000000 1.788380 
# 
# From -- ./inp_files/18170.got.cif
#   From: 2010.03.12/outbox.cif.g09.slc.cpg/sg91_10_cif.got.tgz:18170.got - 2010.04.08 20:27:58.
