data_PCOD8305310
_publ_section_title
;
Structure prediction by ZEFSAII (Michael W. Deem and Ramdas Pophale) SiO2 
 PCOD8305310
Probable space group: P 41 21 2
;
_chemical_formula_sum "Si O2"
_cell_formula_units_Z 48
_cell_length_a 12.976206
_cell_length_b 12.976206
_cell_length_c 15.127814
_cell_angle_alpha 90.000000
_cell_angle_beta 90.000000
_cell_angle_gamma 90.000000
_cell_volume 2547.250399
_symmetry_space_group_name_H-M "P 41 21 2"
_symmetry_group_IT_number 92
_symmetry_cell_setting 'tetragonal'
loop_
_space_group_symop_operation_xyz
x,y,z
1/2-y,1/2+x,1/4+z
-x,-y,1/2+z
1/2+y,1/2-x,3/4+z
1/2+x,1/2-y,3/4-z
1/2-x,1/2+y,1/4-z
y,x,-z
-y,-x,1/2-z
loop_
_atom_site_type_symbol
_atom_site_label
_atom_site_fract_x
_atom_site_fract_y
_atom_site_fract_z
Si Si1 0.063642 0.437829 0.520202
Si Si2 0.061524 0.153149 0.083879
Si Si3 0.299952 0.659228 0.519311
Si Si4 0.896983 0.984831 0.086357
Si Si5 0.894896 0.307912 0.442174
Si Si6 0.068046 0.649863 0.581547
O O1 0.135181 0.405477 0.600033
O O2 0.013521 0.551134 0.535738
O O3 0.139525 0.434652 0.436836
O O4 0.969538 0.358922 0.514270
O O5 0.128291 0.186248 0.167701
O O6 0.984943 0.244402 0.053669
O O7 0.135344 0.135344 0.000000
O O8 0.000280 0.048729 0.107889
O O9 0.373184 0.590618 0.581981
O O10 0.323917 0.779550 0.524976
O O11 0.184507 0.641808 0.549614
O O12 0.810028 0.071164 0.069692
O O13 0.913728 0.913728 0.000000
#
# Coordination Sequence:
#
# PCOD8305310 Si02
#       6
#     8   8   8   8   8   8
#     4  10  21  37  62  96 125 158 204 272 317 373
#     4  11  25  43  62  88 131 178 207 254 318 389
#     4  12  23  39  66  94 124 166 219 253 322 382
#     4  11  22  40  66  96 131 159 211 271 322 375
#     4  11  22  38  61  96 130 162 207 268 327 367
#     4  11  20  38  65  89 121 162 214 254 317 377
#
# _framework density 18.843848999999999
#
# number of rings (size 3 to 8) (size 9 to 14) (size 15 to 20)
#    0.000    1.000    6.667    1.500    0.000    2.667 
#    0.000    0.000    0.000    0.000    0.000    0.000 
#    0.000    0.000    0.000    0.000    0.000    0.000 
#
# Total GULP energy -595247.604645 kJ/mol
# GULP energy per Si atom -12400.991763 kJ/mol
# Density = 1.880096 g / cm^3
# Si number density = 18.843849 Si / 1000 Ang^3
#
#
#
# Elastic Constant Matrix: (Units=GPa)
#
#
# Indices 1 2 3 4 5 6 
#
# 1 86.6102 11.2566 48.2808 0.0000 0.0000 0.0000
# 2 11.2566 86.6102 48.2808 0.0000 0.0000 0.0000
# 3 48.2808 48.2808 133.2770 0.0000 0.0000 0.0000
# 4 0.0000 0.0000 0.0000 17.9248 0.0000 0.0000
# 5 0.0000 0.0000 0.0000 0.0000 17.9248 0.0000
# 6 0.0000 0.0000 0.0000 0.0000 0.0000 -74.9779
#
#
#
# Elastic Compliance Matrix: (Units=1/GPa)
#
#
# Indices 1 2 3 4 5 6 
#
# 1 0.014586 0.001315 -0.005761 0.000000 0.000000 0.000000
# 2 0.001315 0.014586 -0.005761 0.000000 0.000000 0.000000
# 3 -0.005761 -0.005761 0.011677 0.000000 0.000000 0.000000
# 4 0.000000 0.000000 0.000000 0.055788 0.000000 0.000000
# 5 0.000000 0.000000 0.000000 0.000000 0.055788 0.000000
# 6 0.000000 0.000000 0.000000 0.000000 0.000000 -0.013337
#
#
# Mechanical properties :
#
#
# Convention : Reuss Voigt Hill
#
# Bulk Modulus (GPa) = 48.92839 58.01484 53.47162
# Shear Modulus (GPa) = 30.06384 5.41964 17.74174
#
# Velocity S-wave (km/s) = 3.99860 1.69774 3.07174
# Velocity P-wave (km/s) = 6.88041 5.89042 6.40457
#
# Compressibility (1/GPa) = 0.02043803
#
# Stress axis : x y z
#
# Youngs Moduli (GPa) = 68.55786 68.55786 85.64014
#
# Poissons Ratio (x) = -0.09018 0.49333
# Poissons Ratio (y) = -0.09018 0.49333
# Poissons Ratio (z) = 0.39493 0.39493
#
# Static dielectric constant tensor:
#      x y z
#    x 3.824970 0.000000 0.000000 
#    y 0.000000 3.824970 0.000000 
#    z 0.000000 0.000000 3.489320 
# 
# 
# High freq. dielectric constant tensor:
#      x y z
#    x 1.737970 0.000000 0.000000 
#    y 0.000000 1.737970 0.000000 
#    z 0.000000 0.000000 1.732400 
# 
# From -- ./inp_files/3114.got.cif
#   From: 2010.03.12/outbox.cif.g09.slc.cpg/sg92_2_cif.got.tgz:3114.got - 2010.04.08 20:41:11.
