data_PCOD8305636
_publ_section_title
;
Structure prediction by ZEFSAII (Michael W. Deem and Ramdas Pophale) SiO2 
 PCOD8305636
Probable space group: P 42 21 2
;
_chemical_formula_sum "Si O2"
_cell_formula_units_Z 64
_cell_length_a 11.475011
_cell_length_b 11.475011
_cell_length_c 22.015938
_cell_angle_alpha 90.000000
_cell_angle_beta 90.000000
_cell_angle_gamma 90.000000
_cell_volume 2898.967954
_symmetry_space_group_name_H-M "P 42 21 2"
_symmetry_group_IT_number 94
_symmetry_cell_setting 'tetragonal'
loop_
_space_group_symop_operation_xyz
x,y,z
1/2-y,1/2+x,1/2+z
-x,-y,z
1/2+y,1/2-x,1/2+z
1/2+x,1/2-y,1/2-z
1/2-x,1/2+y,1/2-z
y,x,-z
-y,-x,-z
loop_
_atom_site_type_symbol
_atom_site_label
_atom_site_fract_x
_atom_site_fract_y
_atom_site_fract_z
Si Si1 0.846155 0.665676 0.980854
Si Si2 0.270612 0.113157 0.637025
Si Si3 0.531801 0.871572 0.422794
Si Si4 0.925219 0.892254 0.720017
Si Si5 0.895564 0.726299 0.184822
Si Si6 0.180018 0.354376 0.844939
Si Si7 0.419407 0.758826 0.001247
Si Si8 0.458341 0.175231 0.728253
O O1 0.879211 0.664219 0.910399
O O2 0.762143 0.558763 0.001048
O O3 0.784383 0.784383 0.000000
O O4 0.967526 0.654967 0.014497
O O5 0.147170 0.163532 0.662891
O O6 0.302890 0.127118 0.566702
O O7 0.373574 0.181984 0.670399
O O8 0.251830 0.976092 0.654880
O O9 0.488199 0.780693 0.371103
O O10 0.667270 0.863979 0.444360
O O11 0.500000 0.000000 0.399000
O O12 0.836311 0.930321 0.774010
O O13 0.020102 0.802455 0.744893
O O14 0.000000 0.000000 0.696742
O O15 0.758958 0.739129 0.165792
O O16 0.905161 0.604238 0.221175
O O17 0.082470 0.374794 0.793219
O O18 0.374786 0.625215 0.000000
#
# Coordination Sequence:
#
# PCOD8305636 Si02
#       8
#     8   8   8   8   8   8   8   8
#     4  10  19  37  64  86 114 154 206 257 306 367
#     4  10  21  39  60  84 118 163 200 256 318 369
#     4  10  21  37  60  89 120 156 204 261 309 376
#     4  10  22  38  56  86 123 162 205 253 308 379
#     4  10  21  36  58  87 117 158 200 250 316 364
#     4  10  19  36  60  85 115 152 203 256 303 373
#     4  10  23  40  57  90 123 158 201 254 321 377
#     4  10  21  36  59  87 119 157 209 248 304 378
#
# _framework density 22.076823000000001
#
# number of rings (size 3 to 8) (size 9 to 14) (size 15 to 20)
#    0.000    2.000    1.250    1.875    0.000    7.250 
#    4.500    1.250    0.000    0.000    0.000    0.000 
#    0.000    0.000    0.000    0.000    0.000    0.000 
#
# Total GULP energy -792991.133001 kJ/mol
# GULP energy per Si atom -12390.486453 kJ/mol
# Density = 2.202657 g / cm^3
# Si number density = 22.076823 Si / 1000 Ang^3
#
#
#
# Elastic Constant Matrix: (Units=GPa)
#
#
# Indices 1 2 3 4 5 6 
#
# 1 44.1727 13.8133 8.3303 0.0000 0.0000 0.0000
# 2 13.8133 44.1737 8.3301 0.0000 0.0000 0.0000
# 3 8.3303 8.3301 97.3968 0.0000 0.0000 0.0000
# 4 0.0000 0.0000 0.0000 21.9509 0.0000 0.0000
# 5 0.0000 0.0000 0.0000 0.0000 21.9505 0.0000
# 6 0.0000 0.0000 0.0000 0.0000 0.0000 31.0718
#
#
#
# Elastic Compliance Matrix: (Units=1/GPa)
#
#
# Indices 1 2 3 4 5 6 
#
# 1 0.025309 -0.007629 -0.001512 0.000000 0.000000 0.000000
# 2 -0.007629 0.025309 -0.001512 0.000000 0.000000 0.000000
# 3 -0.001512 -0.001512 0.010526 0.000000 0.000000 0.000000
# 4 0.000000 0.000000 0.000000 0.045556 0.000000 0.000000
# 5 0.000000 0.000000 0.000000 0.000000 0.045557 0.000000
# 6 0.000000 0.000000 0.000000 0.000000 0.000000 0.032184
#
#
# Mechanical properties :
#
#
# Convention : Reuss Voigt Hill
#
# Bulk Modulus (GPa) = 25.10222 27.41007 26.25614
# Shear Modulus (GPa) = 22.82826 25.34593 24.08710
#
# Velocity S-wave (km/s) = 3.21913 3.39201 3.30670
# Velocity P-wave (km/s) = 5.02117 5.27102 5.14761
#
# Compressibility (1/GPa) = 0.03983712
#
# Stress axis : x y z
#
# Youngs Moduli (GPa) = 39.51113 39.51211 95.00342
#
# Poissons Ratio (x) = 0.30144 0.14366
# Poissons Ratio (y) = 0.30144 0.14365
# Poissons Ratio (z) = 0.05975 0.05975
#
# Static dielectric constant tensor:
#      x y z
#    x 3.819450 0.000000 0.000000 
#    y 0.000000 3.819450 0.000000 
#    z 0.000000 0.000000 4.138530 
# 
# 
# High freq. dielectric constant tensor:
#      x y z
#    x 1.852450 0.000000 0.000000 
#    y 0.000000 1.852450 0.000000 
#    z 0.000000 0.000000 1.881180 
# 
# From -- ./inp_files/5179.got.cif
#   From: 2010.03.12/outbox.cif.g09.slc.cpg/sg94_3_cif.got.tgz:5179.got - 2010.04.08 20:48:32.
