data_PCOD8305866
_publ_section_title
;
Structure prediction by ZEFSAII (Michael W. Deem and Ramdas Pophale) SiO2 
 PCOD8305866
Probable space group: P 43 2 2
;
_chemical_formula_sum "Si O2"
_cell_formula_units_Z 36
_cell_length_a 8.909949
_cell_length_b 8.909949
_cell_length_c 20.715428
_cell_angle_alpha 90.000000
_cell_angle_beta 90.000000
_cell_angle_gamma 90.000000
_cell_volume 1644.539643
_symmetry_space_group_name_H-M "P 43 2 2"
_symmetry_group_IT_number 95
_symmetry_cell_setting 'tetragonal'
loop_
_space_group_symop_operation_xyz
x,y,z
-y,x,3/4+z
-x,-y,1/2+z
y,-x,1/4+z
x,-y,1/2-z
-x,y,-z
y,x,1/4-z
-y,-x,3/4-z
loop_
_atom_site_type_symbol
_atom_site_label
_atom_site_fract_x
_atom_site_fract_y
_atom_site_fract_z
Si Si1 0.868572 0.933621 0.552766
Si Si2 0.283239 0.328436 0.269670
Si Si3 0.802000 0.802000 0.125000
Si Si4 0.148673 0.758665 0.095605
Si Si5 0.674610 0.623323 0.012157
O O1 0.931972 0.931972 0.625000
O O2 0.762780 0.791175 0.539714
O O3 0.000000 0.940097 0.500000
O O4 0.784250 0.094395 0.557611
O O5 0.259629 0.500000 0.250000
O O6 0.196119 0.272066 0.331872
O O7 0.454762 0.290283 0.285744
O O8 0.702867 0.751981 0.064534
O O9 0.969047 0.767786 0.099730
O O10 0.218392 0.628898 0.051050
O O11 0.500000 0.639049 0.000000
#
# Coordination Sequence:
#
# PCOD8305866 Si02
#       5
#     8   8   4   8   8
#     4  12  24  46  71 103 142 179 232 294 353 415
#     4  11  27  45  68 103 142 184 233 291 353 425
#     4  12  24  46  68 102 136 180 240 284 352 418
#     4  12  24  45  72 101 138 186 232 296 350 416
#     4  11  26  46  69  99 144 186 232 291 354 420
#
# _framework density 21.890623000000001
#
# number of rings (size 3 to 8) (size 9 to 14) (size 15 to 20)
#    0.000    0.444    3.333    4.667    3.111    8.889 
#    0.000    0.000    0.000    0.000    0.000    0.000 
#    0.000    0.000    0.000    0.000    0.000    0.000 
#
# Total GULP energy -445995.501147 kJ/mol
# GULP energy per Si atom -12388.763921 kJ/mol
# Density = 2.184080 g / cm^3
# Si number density = 21.890623 Si / 1000 Ang^3
#
#
#
# Elastic Constant Matrix: (Units=GPa)
#
#
# Indices 1 2 3 4 5 6 
#
# 1 89.8552 70.3850 38.2708 0.0000 0.0000 0.0000
# 2 70.3850 89.8552 38.2708 0.0000 0.0000 0.0000
# 3 38.2708 38.2708 125.5647 0.0000 0.0000 0.0000
# 4 0.0000 0.0000 0.0000 32.6039 0.0000 0.0000
# 5 0.0000 0.0000 0.0000 0.0000 32.6039 0.0000
# 6 0.0000 0.0000 0.0000 0.0000 0.0000 45.0487
#
#
#
# Elastic Compliance Matrix: (Units=1/GPa)
#
#
# Indices 1 2 3 4 5 6 
#
# 1 0.029332 -0.022028 -0.002226 0.000000 0.000000 0.000000
# 2 -0.022028 0.029332 -0.002226 0.000000 0.000000 0.000000
# 3 -0.002226 -0.002226 0.009321 0.000000 0.000000 0.000000
# 4 0.000000 0.000000 0.000000 0.030671 0.000000 0.000000
# 5 0.000000 0.000000 0.000000 0.000000 0.030671 0.000000
# 6 0.000000 0.000000 0.000000 0.000000 0.000000 0.022198
#
#
# Mechanical properties :
#
#
# Convention : Reuss Voigt Hill
#
# Bulk Modulus (GPa) = 66.55868 66.56980 66.56424
# Shear Modulus (GPa) = 23.86691 32.60787 28.23739
#
# Velocity S-wave (km/s) = 3.30552 3.86370 3.59546
# Velocity P-wave (km/s) = 6.71117 7.09792 6.90725
#
# Compressibility (1/GPa) = 0.01502434
#
# Stress axis : x y z
#
# Youngs Moduli (GPa) = 34.09228 34.09228 107.28405
#
# Poissons Ratio (x) = 0.75099 0.23883
# Poissons Ratio (y) = 0.75099 0.23883
# Poissons Ratio (z) = 0.07590 0.07590
#
# Static dielectric constant tensor:
#      x y z
#    x 4.316150 0.000000 0.000000 
#    y 0.000000 4.316150 0.000000 
#    z 0.000000 0.000000 3.960490 
# 
# 
# High freq. dielectric constant tensor:
#      x y z
#    x 1.865970 0.000000 0.000000 
#    y 0.000000 1.865970 0.000000 
#    z 0.000000 0.000000 1.882000 
# 
# From -- ./inp_files/6205.got.cif
#   From: 2010.03.12/outbox.cif.g09.slc.cpg/sg95_4_cif.got.tgz:6205.got - 2010.04.08 20:51:55.
