data_PCOD8305719
_publ_section_title
;
Structure prediction by ZEFSAII (Michael W. Deem and Ramdas Pophale) SiO2 
 PCOD8305719
Probable space group: P 42 21 2
;
_chemical_formula_sum "Si O2"
_cell_formula_units_Z 48
_cell_length_a 8.595325
_cell_length_b 8.595325
_cell_length_c 31.488085
_cell_angle_alpha 90.000000
_cell_angle_beta 90.000000
_cell_angle_gamma 90.000000
_cell_volume 2326.327498
_symmetry_space_group_name_H-M "P 42 21 2"
_symmetry_group_IT_number 94
_symmetry_cell_setting 'tetragonal'
loop_
_space_group_symop_operation_xyz
x,y,z
1/2-y,1/2+x,1/2+z
-x,-y,z
1/2+y,1/2-x,1/2+z
1/2+x,1/2-y,1/2-z
1/2-x,1/2+y,1/2-z
y,x,-z
-y,-x,-z
loop_
_atom_site_type_symbol
_atom_site_label
_atom_site_fract_x
_atom_site_fract_y
_atom_site_fract_z
Si Si1 0.243365 0.807950 0.367787
Si Si2 0.752964 0.284708 0.047654
Si Si3 0.966637 0.180754 0.884159
Si Si4 0.500000 0.500000 0.920700
Si Si5 0.124534 0.718967 0.793731
Si Si6 0.500000 0.000000 0.409075
Si Si7 0.620388 0.777752 0.218689
O O1 0.228009 0.629967 0.383538
O O2 0.215832 0.815280 0.317334
O O3 0.115712 0.908856 0.390715
O O4 0.411624 0.879421 0.378344
O O5 0.751429 0.133485 0.077389
O O6 0.589574 0.375744 0.050192
O O7 0.890122 0.401873 0.060096
O O8 0.776513 0.223488 0.000000
O O9 0.870959 0.211909 0.841064
O O10 0.000000 0.000000 0.890256
O O11 0.195239 0.851529 0.763594
O O12 0.228123 0.562744 0.792021
O O13 0.952145 0.682293 0.778266
#
# Coordination Sequence:
#
# PCOD8305719 Si02
#       7
#     8   8   8   4   8   4   8
#     4  10  22  42  66  93 130 171 217 258 327 386
#     4  11  24  42  67  98 131 170 223 268 335 391
#     4  11  23  43  67  93 130 175 211 277 327 384
#     4  10  23  42  66  96 134 172 210 274 327 394
#     4  10  24  39  61  89 127 163 214 259 325 376
#     4  10  22  42  64  96 130 172 216 268 324 392
#     4  10  23  40  60  93 123 168 212 264 311 391
#
# _framework density 20.633382000000001
#
# number of rings (size 3 to 8) (size 9 to 14) (size 15 to 20)
#    0.000    1.667    1.667    1.250    4.667    9.000 
#    0.000    1.667    0.000    0.000    0.000    0.000 
#    0.000    0.000    0.000    0.000    0.000    0.000 
#
# Total GULP energy -595458.552817 kJ/mol
# GULP energy per Si atom -12405.386517 kJ/mol
# Density = 2.058642 g / cm^3
# Si number density = 20.633382 Si / 1000 Ang^3
#
#
#
# Elastic Constant Matrix: (Units=GPa)
#
#
# Indices 1 2 3 4 5 6 
#
# 1 85.3962 31.5006 51.4612 0.0000 0.0000 0.0000
# 2 31.5006 85.3963 51.4613 0.0000 0.0000 0.0000
# 3 51.4612 51.4613 154.2668 0.0000 0.0000 0.0000
# 4 0.0000 0.0000 0.0000 25.4402 0.0000 0.0000
# 5 0.0000 0.0000 0.0000 0.0000 25.4402 0.0000
# 6 0.0000 0.0000 0.0000 0.0000 0.0000 30.9249
#
#
#
# Elastic Compliance Matrix: (Units=1/GPa)
#
#
# Indices 1 2 3 4 5 6 
#
# 1 0.015333 -0.003221 -0.004040 0.000000 0.000000 0.000000
# 2 -0.003221 0.015333 -0.004040 0.000000 0.000000 0.000000
# 3 -0.004040 -0.004040 0.009178 0.000000 0.000000 0.000000
# 4 0.000000 0.000000 0.000000 0.039308 0.000000 0.000000
# 5 0.000000 0.000000 0.000000 0.000000 0.039308 0.000000
# 6 0.000000 0.000000 0.000000 0.000000 0.000000 0.032336
#
#
# Mechanical properties :
#
#
# Convention : Reuss Voigt Hill
#
# Bulk Modulus (GPa) = 58.00374 65.98947 61.99661
# Shear Modulus (GPa) = 27.91003 29.07013 28.49008
#
# Velocity S-wave (km/s) = 3.68185 3.75759 3.71991
# Velocity P-wave (km/s) = 6.80054 7.13283 6.96867
#
# Compressibility (1/GPa) = 0.01724027
#
# Stress axis : x y z
#
# Youngs Moduli (GPa) = 65.21818 65.21825 108.95747
#
# Poissons Ratio (x) = 0.21008 0.44023
# Poissons Ratio (y) = 0.21008 0.44023
# Poissons Ratio (z) = 0.26351 0.26351
#
# Static dielectric constant tensor:
#      x y z
#    x 3.926240 0.000000 0.000000 
#    y 0.000000 3.926240 0.000000 
#    z 0.000000 0.000000 3.575150 
# 
# 
# High freq. dielectric constant tensor:
#      x y z
#    x 1.816460 0.000000 0.000000 
#    y 0.000000 1.816460 0.000000 
#    z 0.000000 0.000000 1.800480 
# 
# From -- ./inp_files/5640.got.cif
#   From: 2010.03.12/outbox.cif.g09.slc.cpg/sg94_3_cif.got.tgz:5640.got - 2010.04.08 20:48:32.
