data_PCOD8305637
_publ_section_title
;
Structure prediction by ZEFSAII (Michael W. Deem and Ramdas Pophale) SiO2 
 PCOD8305637
Probable space group: P 42 21 2
;
_chemical_formula_sum "Si O2"
_cell_formula_units_Z 54
_cell_length_a 14.516738
_cell_length_b 14.516738
_cell_length_c 12.702798
_cell_angle_alpha 90.000000
_cell_angle_beta 90.000000
_cell_angle_gamma 90.000000
_cell_volume 2676.932802
_symmetry_space_group_name_H-M "P 42 21 2"
_symmetry_group_IT_number 94
_symmetry_cell_setting 'tetragonal'
loop_
_space_group_symop_operation_xyz
x,y,z
1/2-y,1/2+x,1/2+z
-x,-y,z
1/2+y,1/2-x,1/2+z
1/2+x,1/2-y,1/2-z
1/2-x,1/2+y,1/2-z
y,x,-z
-y,-x,-z
loop_
_atom_site_type_symbol
_atom_site_label
_atom_site_fract_x
_atom_site_fract_y
_atom_site_fract_z
Si Si1 0.000000 0.000000 0.000000
Si Si2 0.797446 0.276390 0.643276
Si Si3 0.678883 0.173324 0.128300
Si Si4 0.349885 0.650116 0.000000
Si Si5 0.008710 0.781081 0.629627
Si Si6 0.603701 0.986082 0.493969
Si Si7 0.317736 0.130586 0.066622
Si Si8 0.186029 0.978588 0.131802
O O1 0.910406 0.000497 0.074772
O O2 0.822200 0.336629 0.746022
O O3 0.882092 0.209115 0.610477
O O4 0.706010 0.213833 0.654049
O O5 0.780541 0.347197 0.549696
O O6 0.603202 0.112287 0.068142
O O7 0.781545 0.127909 0.115424
O O8 0.674582 0.278325 0.091762
O O9 0.452596 0.657418 0.953853
O O10 0.988997 0.818486 0.746617
O O11 0.980328 0.673397 0.606381
O O12 0.500000 0.000000 0.450181
O O13 0.627680 0.071911 0.569636
O O14 0.272253 0.033032 0.086018
#
# Coordination Sequence:
#
# PCOD8305637 Si02
#       8
#     2   8   8   4   8   8   8   8
#     4  12  26  40  64  82 118 164 228 244 320 358
#     4   9  19  36  55  84 117 163 194 246 292 375
#     4  10  20  37  59  86 126 150 205 246 318 366
#     4  10  19  36  60  86 117 164 192 258 306 364
#     4   9  21  38  60  84 125 155 210 254 306 369
#     4  10  19  38  62  96 119 162 196 259 325 380
#     4  10  19  37  61  83 125 155 202 251 315 357
#     4  11  22  41  58  90 117 165 204 273 295 378
#
# _framework density 20.172342
#
# number of rings (size 3 to 8) (size 9 to 14) (size 15 to 20)
#    0.000    2.074    1.481    2.222    0.000    0.000 
#    8.000   20.741    0.000    0.889    0.000    0.000 
#    0.000    0.000    0.000    0.000    0.000    0.000 
#
# Total GULP energy -669075.416326 kJ/mol
# GULP energy per Si atom -12390.285488 kJ/mol
# Density = 2.012643 g / cm^3
# Si number density = 20.172342 Si / 1000 Ang^3
#
#
#
# Elastic Constant Matrix: (Units=GPa)
#
#
# Indices 1 2 3 4 5 6 
#
# 1 69.0670 14.8627 24.6566 0.0000 0.0000 0.0000
# 2 14.8627 69.0671 24.6566 0.0000 0.0000 0.0000
# 3 24.6566 24.6566 98.3745 0.0000 0.0000 0.0000
# 4 0.0000 0.0000 0.0000 24.7199 0.0000 0.0000
# 5 0.0000 0.0000 0.0000 0.0000 24.7199 0.0000
# 6 0.0000 0.0000 0.0000 0.0000 0.0000 29.0119
#
#
#
# Elastic Compliance Matrix: (Units=1/GPa)
#
#
# Indices 1 2 3 4 5 6 
#
# 1 0.016211 -0.002238 -0.003502 0.000000 0.000000 0.000000
# 2 -0.002238 0.016211 -0.003502 0.000000 0.000000 0.000000
# 3 -0.003502 -0.003502 0.011921 0.000000 0.000000 0.000000
# 4 0.000000 0.000000 0.000000 0.040453 0.000000 0.000000
# 5 0.000000 0.000000 0.000000 0.000000 0.040453 0.000000
# 6 0.000000 0.000000 0.000000 0.000000 0.000000 0.034469
#
#
# Mechanical properties :
#
#
# Convention : Reuss Voigt Hill
#
# Bulk Modulus (GPa) = 38.67378 40.54006 39.60692
# Shear Modulus (GPa) = 26.76365 27.17918 26.97142
#
# Velocity S-wave (km/s) = 3.64641 3.67461 3.66054
# Velocity P-wave (km/s) = 6.07797 6.17609 6.12723
#
# Compressibility (1/GPa) = 0.02585731
#
# Stress axis : x y z
#
# Youngs Moduli (GPa) = 61.68828 61.68828 83.88742
#
# Poissons Ratio (x) = 0.13807 0.29378
# Poissons Ratio (y) = 0.13807 0.29378
# Poissons Ratio (z) = 0.21603 0.21603
#
# Static dielectric constant tensor:
#      x y z
#    x 3.752230 0.000000 0.000000 
#    y 0.000000 3.752230 0.000000 
#    z 0.000000 0.000000 3.663210 
# 
# 
# High freq. dielectric constant tensor:
#      x y z
#    x 1.785080 0.000000 0.000000 
#    y 0.000000 1.785080 0.000000 
#    z 0.000000 0.000000 1.779670 
# 
# From -- ./inp_files/2755.got.cif
#   From: 2010.03.12/outbox.cif.g09.slc.cpg/sg94_2_cif.got.tgz:2755.got - 2010.04.08 20:48:32.
