data_PCOD8305604
_publ_section_title
;
Structure prediction by ZEFSAII (Michael W. Deem and Ramdas Pophale) SiO2 
 PCOD8305604
Probable space group: P 42 2 2
;
_chemical_formula_sum "Si O2"
_cell_formula_units_Z 34
_cell_length_a 9.642621
_cell_length_b 9.642621
_cell_length_c 17.060275
_cell_angle_alpha 90.000000
_cell_angle_beta 90.000000
_cell_angle_gamma 90.000000
_cell_volume 1586.266754
_symmetry_space_group_name_H-M "P 42 2 2"
_symmetry_group_IT_number 93
_symmetry_cell_setting 'tetragonal'
loop_
_space_group_symop_operation_xyz
x,y,z
-y,x,1/2+z
-x,-y,z
y,-x,1/2+z
x,-y,-z
-x,y,-z
y,x,1/2-z
-y,-x,1/2-z
loop_
_atom_site_type_symbol
_atom_site_label
_atom_site_fract_x
_atom_site_fract_y
_atom_site_fract_z
Si Si1 0.244174 0.935290 0.599034
Si Si2 0.249233 0.750768 0.750000
Si Si3 0.000000 0.000000 0.500000
Si Si4 0.839482 0.466755 0.288602
Si Si5 0.182350 0.500000 0.000000
Si Si6 0.686378 0.763145 0.630891
O O1 0.242129 0.872678 0.686116
O O2 0.102698 0.899006 0.551475
O O3 0.388099 0.907424 0.551868
O O4 0.229037 0.100374 0.608588
O O5 0.390475 0.756450 0.799558
O O6 0.796690 0.406151 0.205600
O O7 0.794260 0.361521 0.356777
O O8 0.000000 0.500000 0.294809
O O9 0.279574 0.584240 0.059746
#
# Coordination Sequence:
#
# PCOD8305604 Si02
#       6
#     8   4   2   8   4   8
#     4  12  25  44  72 105 141 184 240 290 358 426
#     4  12  26  44  70 102 146 184 230 290 352 424
#     4  12  28  36  68 110 140 176 244 302 348 412
#     4  11  24  43  67 106 141 178 229 290 353 409
#     4  12  21  48  79 100 133 192 243 284 343 448
#     4  11  22  42  75  98 137 183 238 282 346 422
#
# _framework density 21.433973999999999
#
# number of rings (size 3 to 8) (size 9 to 14) (size 15 to 20)
#    0.000    0.471    7.059    1.412    3.294    2.353 
#    0.000    2.353    0.000    2.824    0.000    0.000 
#    0.000    0.000    0.000    0.000    0.000    0.000 
#
# Total GULP energy -421376.604716 kJ/mol
# GULP energy per Si atom -12393.429550 kJ/mol
# Density = 2.138519 g / cm^3
# Si number density = 21.433974 Si / 1000 Ang^3
#
#
#
# Elastic Constant Matrix: (Units=GPa)
#
#
# Indices 1 2 3 4 5 6 
#
# 1 119.9709 70.2999 53.0550 0.0000 0.0000 0.0000
# 2 70.2999 119.9694 53.0547 0.0000 0.0000 0.0000
# 3 53.0550 53.0547 135.3894 0.0000 0.0000 0.0000
# 4 0.0000 0.0000 0.0000 52.4769 0.0000 0.0000
# 5 0.0000 0.0000 0.0000 0.0000 52.4782 0.0000
# 6 0.0000 0.0000 0.0000 0.0000 0.0000 31.4949
#
#
#
# Elastic Compliance Matrix: (Units=1/GPa)
#
#
# Indices 1 2 3 4 5 6 
#
# 1 0.013429 -0.006704 -0.002635 0.000000 0.000000 0.000000
# 2 -0.006704 0.013429 -0.002635 0.000000 0.000000 0.000000
# 3 -0.002635 -0.002635 0.009452 0.000000 0.000000 0.000000
# 4 0.000000 0.000000 0.000000 0.019056 0.000000 0.000000
# 5 0.000000 0.000000 0.000000 0.000000 0.019056 0.000000
# 6 0.000000 0.000000 0.000000 0.000000 0.000000 0.031751
#
#
# Mechanical properties :
#
#
# Convention : Reuss Voigt Hill
#
# Bulk Modulus (GPa) = 80.90245 80.90543 80.90394
# Shear Modulus (GPa) = 37.24614 40.55133 38.89874
#
# Velocity S-wave (km/s) = 4.17311 4.35434 4.26469
# Velocity P-wave (km/s) = 7.81324 7.94409 7.87894
#
# Compressibility (1/GPa) = 0.01236057
#
# Stress axis : x y z
#
# Youngs Moduli (GPa) = 74.46553 74.46463 105.80179
#
# Poissons Ratio (x) = 0.49919 0.27884
# Poissons Ratio (y) = 0.49919 0.27884
# Poissons Ratio (z) = 0.19625 0.19625
#
# Static dielectric constant tensor:
#      x y z
#    x 4.027210 0.000000 0.000000 
#    y 0.000000 4.027200 0.000000 
#    z 0.000000 0.000000 5.813010 
# 
# 
# High freq. dielectric constant tensor:
#      x y z
#    x 1.833490 0.000000 0.000000 
#    y 0.000000 1.833490 0.000000 
#    z 0.000000 0.000000 1.851760 
# 
# From -- ./inp_files/6114.got.cif
#   From: 2010.03.12/outbox.cif.g09.slc.cpg/sg93_4_cif.got.tgz:6114.got - 2010.04.08 20:44:19.
