data_PCOD8305891
_publ_section_title
;
Structure prediction by ZEFSAII (Michael W. Deem and Ramdas Pophale) SiO2 
 PCOD8305891
Probable space group: P 43 21 2
;
_chemical_formula_sum "Si O2"
_cell_formula_units_Z 64
_cell_length_a 11.740438
_cell_length_b 11.740438
_cell_length_c 21.362607
_cell_angle_alpha 90.000000
_cell_angle_beta 90.000000
_cell_angle_gamma 90.000000
_cell_volume 2944.576555
_symmetry_space_group_name_H-M "P 43 21 2"
_symmetry_group_IT_number 96
_symmetry_cell_setting 'tetragonal'
loop_
_space_group_symop_operation_xyz
x,y,z
1/2-y,1/2+x,3/4+z
-x,-y,1/2+z
1/2+y,1/2-x,1/4+z
1/2+x,1/2-y,1/4-z
1/2-x,1/2+y,3/4-z
y,x,-z
-y,-x,1/2-z
loop_
_atom_site_type_symbol
_atom_site_label
_atom_site_fract_x
_atom_site_fract_y
_atom_site_fract_z
Si Si1 0.515256 0.337043 0.495187
Si Si2 0.215907 0.110841 0.665335
Si Si3 0.914128 0.951918 0.613288
Si Si4 0.846050 0.588621 0.534212
Si Si5 0.507348 0.635704 0.297725
Si Si6 0.708087 0.220207 0.338406
Si Si7 0.818317 0.163710 0.550648
Si Si8 0.109087 0.622915 0.536269
O O1 0.384880 0.384880 0.500000
O O2 0.588517 0.372484 0.556407
O O3 0.573054 0.404475 0.437058
O O4 0.521363 0.200217 0.481553
O O5 0.215900 0.059059 0.595808
O O6 0.279304 0.230134 0.658521
O O7 0.293726 0.036413 0.711097
O O8 0.826965 0.873741 0.575493
O O9 0.883652 0.082979 0.598804
O O10 0.039641 0.924559 0.587750
O O11 0.774443 0.665657 0.583676
O O12 0.820918 0.628849 0.464368
O O13 0.981488 0.578625 0.549571
O O14 0.418286 0.581715 0.250000
O O15 0.600065 0.703720 0.256712
O O16 0.690605 0.159068 0.404464
O O17 0.707785 0.101170 0.522310
#
# Coordination Sequence:
#
# PCOD8305891 Si02
#       8
#     8   8   8   8   8   8   8   8
#     4  10  21  39  64  97 126 173 219 266 325 381
#     4  11  24  40  62  97 140 165 214 279 326 403
#     4  10  19  38  65  94 122 164 226 268 308 396
#     4  11  23  38  59  96 132 169 210 269 346 386
#     4  10  21  38  68  90 120 172 222 267 318 382
#     4  10  22  34  60  93 125 169 213 267 329 400
#     4  10  21  39  63  90 127 172 217 266 318 384
#     4  10  21  39  61  90 132 172 207 269 330 393
#
# _framework density 21.734874999999999
#
# number of rings (size 3 to 8) (size 9 to 14) (size 15 to 20)
#    0.000    1.750    2.500    1.500    5.250    5.000 
#    0.000    8.125    0.000    0.000    0.000    0.000 
#    0.000    0.000    0.000    0.000    0.000    0.000 
#
# Total GULP energy -793386.262100 kJ/mol
# GULP energy per Si atom -12396.660345 kJ/mol
# Density = 2.168541 g / cm^3
# Si number density = 21.734875 Si / 1000 Ang^3
#
#
#
# Elastic Constant Matrix: (Units=GPa)
#
#
# Indices 1 2 3 4 5 6 
#
# 1 70.7679 20.3065 -3.8401 0.0000 0.0000 0.0000
# 2 20.3065 70.7682 -3.8397 0.0000 0.0000 0.0000
# 3 -3.8401 -3.8397 57.7451 0.0000 0.0000 0.0000
# 4 0.0000 0.0000 0.0000 17.9450 0.0000 0.0000
# 5 0.0000 0.0000 0.0000 0.0000 17.9441 0.0000
# 6 0.0000 0.0000 0.0000 0.0000 0.0000 28.7218
#
#
#
# Elastic Compliance Matrix: (Units=1/GPa)
#
#
# Indices 1 2 3 4 5 6 
#
# 1 0.015430 -0.004388 0.000734 0.000000 0.000000 0.000000
# 2 -0.004388 0.015429 0.000734 0.000000 0.000000 0.000000
# 3 0.000734 0.000734 0.017415 0.000000 0.000000 0.000000
# 4 0.000000 0.000000 0.000000 0.055726 0.000000 0.000000
# 5 0.000000 0.000000 0.000000 0.000000 0.055729 0.000000
# 6 0.000000 0.000000 0.000000 0.000000 0.000000 0.034817
#
#
# Mechanical properties :
#
#
# Convention : Reuss Voigt Hill
#
# Bulk Modulus (GPa) = 23.56487 24.94828 24.25658
# Shear Modulus (GPa) = 23.30691 25.36582 24.33636
#
# Velocity S-wave (km/s) = 3.27819 3.41993 3.34981
# Velocity P-wave (km/s) = 5.01939 5.20556 5.11332
#
# Compressibility (1/GPa) = 0.04243605
#
# Stress axis : x y z
#
# Youngs Moduli (GPa) = 64.81076 64.81108 57.42130
#
# Poissons Ratio (x) = 0.28436 -0.04217
# Poissons Ratio (y) = 0.28436 -0.04216
# Poissons Ratio (z) = -0.04759 -0.04758
#
# Static dielectric constant tensor:
#      x y z
#    x 3.818330 0.000000 0.000000 
#    y 0.000000 3.818330 0.000000 
#    z 0.000000 0.000000 3.854140 
# 
# 
# High freq. dielectric constant tensor:
#      x y z
#    x 1.841930 0.000000 0.000000 
#    y 0.000000 1.841930 0.000000 
#    z 0.000000 0.000000 1.857360 
# 
# From -- ./inp_files/3967.got.cif
#   From: 2010.03.12/outbox.cif.g09.slc.cpg/sg96_2_cif.got.tgz:3967.got - 2010.04.08 20:56:49.
