data_PCOD8305412
_publ_section_title
;
Structure prediction by ZEFSAII (Michael W. Deem and Ramdas Pophale) SiO2 
 PCOD8305412
Probable space group: P 41 21 2
;
_chemical_formula_sum "Si O2"
_cell_formula_units_Z 48
_cell_length_a 8.894886
_cell_length_b 8.894886
_cell_length_c 28.172069
_cell_angle_alpha 90.000000
_cell_angle_beta 90.000000
_cell_angle_gamma 90.000000
_cell_volume 2228.945841
_symmetry_space_group_name_H-M "P 41 21 2"
_symmetry_group_IT_number 92
_symmetry_cell_setting 'tetragonal'
loop_
_space_group_symop_operation_xyz
x,y,z
1/2-y,1/2+x,1/4+z
-x,-y,1/2+z
1/2+y,1/2-x,3/4+z
1/2+x,1/2-y,3/4-z
1/2-x,1/2+y,1/4-z
y,x,-z
-y,-x,1/2-z
loop_
_atom_site_type_symbol
_atom_site_label
_atom_site_fract_x
_atom_site_fract_y
_atom_site_fract_z
Si Si1 0.244191 0.339580 0.448198
Si Si2 0.184465 0.188328 0.946438
Si Si3 0.763929 0.439208 0.361367
Si Si4 0.542999 0.450379 0.609208
Si Si5 0.024226 0.425217 0.699098
Si Si6 0.669013 0.961398 0.696569
O O1 0.308629 0.308629 0.500000
O O2 0.191236 0.186988 0.422330
O O3 0.379528 0.396975 0.415059
O O4 0.104782 0.454403 0.452089
O O5 0.111692 0.066913 0.911937
O O6 0.114605 0.352071 0.935474
O O7 0.361237 0.172744 0.938083
O O8 0.142463 0.142463 0.000000
O O9 0.629551 0.534045 0.385206
O O10 0.858788 0.374377 0.406238
O O11 0.880036 0.534515 0.330168
O O12 0.675586 0.398293 0.573759
O O13 0.074287 0.344611 0.747613
#
# Coordination Sequence:
#
# PCOD8305412 Si02
#       6
#     8   8   8   8   8   8
#     4  12  28  47  67 106 146 197 233 296 377 435
#     4  10  23  43  72 105 129 183 235 289 356 413
#     4  12  25  46  70 103 144 190 236 299 361 434
#     4  12  25  43  72 105 139 183 250 290 366 431
#     4  11  23  45  72  97 145 181 237 301 352 433
#     4  11  22  44  75 100 138 179 242 297 356 426
#
# _framework density 21.534845000000001
#
# number of rings (size 3 to 8) (size 9 to 14) (size 15 to 20)
#    0.000    0.667    5.000    2.000    4.667    0.667 
#    3.000    0.000    0.000    0.000    0.000    0.000 
#    0.000    0.000    0.000    0.000    0.000    0.000 
#
# Total GULP energy -595213.477790 kJ/mol
# GULP energy per Si atom -12400.280787 kJ/mol
# Density = 2.148583 g / cm^3
# Si number density = 21.534845 Si / 1000 Ang^3
#
#
#
# Elastic Constant Matrix: (Units=GPa)
#
#
# Indices 1 2 3 4 5 6 
#
# 1 92.3894 42.4770 49.3516 0.0000 0.0000 0.0000
# 2 42.4770 92.3894 49.3516 0.0000 0.0000 0.0000
# 3 49.3516 49.3516 148.8121 0.0000 0.0000 0.0000
# 4 0.0000 0.0000 0.0000 34.4035 0.0000 0.0000
# 5 0.0000 0.0000 0.0000 0.0000 34.4035 0.0000
# 6 0.0000 0.0000 0.0000 0.0000 0.0000 32.8215
#
#
#
# Elastic Compliance Matrix: (Units=1/GPa)
#
#
# Indices 1 2 3 4 5 6 
#
# 1 0.014913 -0.005122 -0.003247 0.000000 0.000000 0.000000
# 2 -0.005122 0.014913 -0.003247 0.000000 0.000000 0.000000
# 3 -0.003247 -0.003247 0.008874 0.000000 0.000000 0.000000
# 4 0.000000 0.000000 0.000000 0.029067 0.000000 0.000000
# 5 0.000000 0.000000 0.000000 0.000000 0.029067 0.000000
# 6 0.000000 0.000000 0.000000 0.000000 0.000000 0.030468
#
#
# Mechanical properties :
#
#
# Convention : Reuss Voigt Hill
#
# Bulk Modulus (GPa) = 64.65170 68.43904 66.54537
# Shear Modulus (GPa) = 32.11519 33.15308 32.63413
#
# Velocity S-wave (km/s) = 3.86594 3.92791 3.89705
# Velocity P-wave (km/s) = 7.07209 7.24023 7.15665
#
# Compressibility (1/GPa) = 0.01546750
#
# Stress axis : x y z
#
# Youngs Moduli (GPa) = 67.05496 67.05496 112.69368
#
# Poissons Ratio (x) = 0.34345 0.36593
# Poissons Ratio (y) = 0.34345 0.36593
# Poissons Ratio (z) = 0.21774 0.21774
#
# Static dielectric constant tensor:
#      x y z
#    x 3.739630 0.000000 0.000000 
#    y 0.000000 3.739630 0.000000 
#    z 0.000000 0.000000 4.237030 
# 
# 
# High freq. dielectric constant tensor:
#      x y z
#    x 1.838680 0.000000 0.000000 
#    y 0.000000 1.838680 0.000000 
#    z 0.000000 0.000000 1.873180 
# 
# From -- ./inp_files/4480.got.cif
#   From: 2010.03.12/outbox.cif.g09.slc.cpg/sg92_3_cif.got.tgz:4480.got - 2010.04.08 20:41:11.
