data_PCOD8305183
_publ_section_title
;
Structure prediction by ZEFSAII (Michael W. Deem and Ramdas Pophale) SiO2 
 PCOD8305183
Probable space group: P 41 2 2
;
_chemical_formula_sum "Si O2"
_cell_formula_units_Z 24
_cell_length_a 13.792242
_cell_length_b 13.792242
_cell_length_c 4.970140
_cell_angle_alpha 90.000000
_cell_angle_beta 90.000000
_cell_angle_gamma 90.000000
_cell_volume 945.449550
_symmetry_space_group_name_H-M "P 41 2 2"
_symmetry_group_IT_number 91
_symmetry_cell_setting 'tetragonal'
loop_
_space_group_symop_operation_xyz
x,y,z
-y,x,1/4+z
-x,-y,1/2+z
y,-x,3/4+z
x,-y,1/2-z
-x,y,-z
y,x,3/4-z
-y,-x,1/4-z
loop_
_atom_site_type_symbol
_atom_site_label
_atom_site_fract_x
_atom_site_fract_y
_atom_site_fract_z
Si Si1 0.896004 0.103997 0.125000
Si Si2 0.305743 0.694258 0.125000
Si Si3 0.567217 0.000000 0.250000
Si Si4 0.102805 0.303041 0.632315
Si Si5 0.394846 0.394846 0.875000
O O1 0.883695 0.187907 0.341576
O O2 0.883169 0.000000 0.250000
O O3 0.333189 0.803858 0.212068
O O4 0.321631 0.623516 0.378899
O O5 0.500000 0.033550 0.500000
O O6 0.636055 0.907525 0.337312
O O7 0.000000 0.327685 0.500000
O O8 0.379415 0.500000 0.750000
#
# Coordination Sequence:
#
# PCOD8305183 Si02
#       5
#     4   4   4   8   4
#     4  12  23  43  78 119 159 220 270 326 408 472
#     4  12  29  49  88 127 161 218 276 332 414 506
#     4  12  28  52  80 108 164 228 274 332 402 476
#     4  12  27  51  78 120 173 216 268 339 391 497
#     4  12  28  58  90 122 160 206 276 364 434 492
#
# _framework density 25.384746
#
# number of rings (size 3 to 8) (size 9 to 14) (size 15 to 20)
#    0.000    0.000    3.333    6.000    4.667    1.333 
#    6.000    1.667    0.000    0.000    0.000    0.000 
#    0.000    0.000    0.000    0.000    0.000    0.000 
#
# Total GULP energy -297449.279975 kJ/mol
# GULP energy per Si atom -12393.719999 kJ/mol
# Density = 2.532697 g / cm^3
# Si number density = 25.384746 Si / 1000 Ang^3
#
#
#
# Elastic Constant Matrix: (Units=GPa)
#
#
# Indices 1 2 3 4 5 6 
#
# 1 155.4523 96.6480 88.9793 0.0000 0.0000 0.0000
# 2 96.6480 155.4514 88.9811 0.0000 0.0000 0.0000
# 3 88.9793 88.9811 191.0873 0.0000 0.0000 0.0000
# 4 0.0000 0.0000 0.0000 52.2301 0.0000 0.0000
# 5 0.0000 0.0000 0.0000 0.0000 52.2328 0.0000
# 6 0.0000 0.0000 0.0000 0.0000 0.0000 31.2507
#
#
#
# Elastic Compliance Matrix: (Units=1/GPa)
#
#
# Indices 1 2 3 4 5 6 
#
# 1 0.011457 -0.005548 -0.002751 0.000000 0.000000 0.000000
# 2 -0.005548 0.011457 -0.002752 0.000000 0.000000 0.000000
# 3 -0.002751 -0.002752 0.007796 0.000000 0.000000 0.000000
# 4 0.000000 0.000000 0.000000 0.019146 0.000000 0.000000
# 5 0.000000 0.000000 0.000000 0.000000 0.019145 0.000000
# 6 0.000000 0.000000 0.000000 0.000000 0.000000 0.031999
#
#
# Mechanical properties :
#
#
# Convention : Reuss Voigt Hill
#
# Bulk Modulus (GPa) = 116.17641 116.80087 116.48864
# Shear Modulus (GPa) = 39.69106 42.30157 40.99632
#
# Velocity S-wave (km/s) = 3.95850 4.08661 4.02306
# Velocity P-wave (km/s) = 8.17059 8.26917 8.22003
#
# Compressibility (1/GPa) = 0.00860760
#
# Stress axis : x y z
#
# Youngs Moduli (GPa) = 87.28113 87.27912 128.27507
#
# Poissons Ratio (x) = 0.48425 0.35294
# Poissons Ratio (y) = 0.48426 0.35297
# Poissons Ratio (z) = 0.24015 0.24017
#
# Static dielectric constant tensor:
#      x y z
#    x 4.427990 0.000000 0.000000 
#    y 0.000000 4.427860 0.000000 
#    z 0.000000 0.000000 5.245750 
# 
# 
# High freq. dielectric constant tensor:
#      x y z
#    x 2.020600 0.000000 0.000000 
#    y 0.000000 2.020600 0.000000 
#    z 0.000000 0.000000 2.028880 
# 
# From -- ./inp_files/13871.got.cif
#   From: 2010.03.12/outbox.cif.g09.slc.cpg/sg91_7_cif.got.tgz:13871.got - 2010.04.08 20:27:58.
