data_PCOD8305530
_publ_section_title
;
Structure prediction by ZEFSAII (Michael W. Deem and Ramdas Pophale) SiO2 
 PCOD8305530
Probable space group: P 42 2 2
;
_chemical_formula_sum "Si O2"
_cell_formula_units_Z 38
_cell_length_a 11.792278
_cell_length_b 11.792278
_cell_length_c 14.264350
_cell_angle_alpha 90.000000
_cell_angle_beta 90.000000
_cell_angle_gamma 90.000000
_cell_volume 1983.569421
_symmetry_space_group_name_H-M "P 42 2 2"
_symmetry_group_IT_number 93
_symmetry_cell_setting 'tetragonal'
loop_
_space_group_symop_operation_xyz
x,y,z
-y,x,1/2+z
-x,-y,z
y,-x,1/2+z
x,-y,-z
-x,y,-z
y,x,1/2-z
-y,-x,1/2-z
loop_
_atom_site_type_symbol
_atom_site_label
_atom_site_fract_x
_atom_site_fract_y
_atom_site_fract_z
Si Si1 0.655655 0.892045 0.612698
Si Si2 0.129826 0.026960 0.100905
Si Si3 0.702540 0.524679 0.104137
Si Si4 0.862346 0.284278 0.906303
Si Si5 0.500000 0.500000 0.250000
Si Si6 0.839106 0.839106 0.750000
O O1 0.538173 0.824429 0.610537
O O2 0.725763 0.875569 0.517626
O O3 0.726451 0.830461 0.691240
O O4 0.646229 0.027393 0.632990
O O5 0.145676 0.157061 0.133373
O O6 0.172751 0.951233 0.186654
O O7 0.000000 0.000000 0.086664
O O8 0.190803 0.000000 0.000000
O O9 0.742926 0.654467 0.118239
O O10 0.610866 0.495138 0.183722
O O11 0.650560 0.500000 0.000000
#
# Coordination Sequence:
#
# PCOD8305530 Si02
#       6
#     8   8   8   8   2   4
#     4  10  19  34  54  84 111 148 192 238 285 337
#     4  11  19  32  48  84 127 158 188 225 277 351
#     4  10  23  40  63  81 108 149 191 249 298 338
#     4  10  19  36  55  81 121 150 189 233 284 341
#     4  12  24  44  58  86 110 138 202 252 290 362
#     4  12  20  28  53  81 120 158 190 229 285 350
#
# _framework density 19.157382999999999
#
# number of rings (size 3 to 8) (size 9 to 14) (size 15 to 20)
#    0.000    1.474    4.211    3.158    0.000    4.211 
#    0.000    0.000    0.000    0.000    0.000    0.000 
#    0.000    0.000    0.000    0.000    0.000    0.000 
#
# Total GULP energy -470851.058563 kJ/mol
# GULP energy per Si atom -12390.817331 kJ/mol
# Density = 1.911378 g / cm^3
# Si number density = 19.157383 Si / 1000 Ang^3
#
#
#
# Elastic Constant Matrix: (Units=GPa)
#
#
# Indices 1 2 3 4 5 6 
#
# 1 74.9714 27.0170 37.5787 0.0000 0.0000 0.0000
# 2 27.0170 74.9714 37.5787 0.0000 0.0000 0.0000
# 3 37.5787 37.5787 88.7974 0.0000 0.0000 0.0000
# 4 0.0000 0.0000 0.0000 13.3167 0.0000 0.0000
# 5 0.0000 0.0000 0.0000 0.0000 13.3167 0.0000
# 6 0.0000 0.0000 0.0000 0.0000 0.0000 16.5451
#
#
#
# Elastic Compliance Matrix: (Units=1/GPa)
#
#
# Indices 1 2 3 4 5 6 
#
# 1 0.017551 -0.003302 -0.006030 0.000000 0.000000 0.000000
# 2 -0.003302 0.017551 -0.006030 0.000000 0.000000 0.000000
# 3 -0.006030 -0.006030 0.016365 0.000000 0.000000 0.000000
# 4 0.000000 0.000000 0.000000 0.075094 0.000000 0.000000
# 5 0.000000 0.000000 0.000000 0.000000 0.075094 0.000000
# 6 0.000000 0.000000 0.000000 0.000000 0.000000 0.060441
#
#
# Mechanical properties :
#
#
# Convention : Reuss Voigt Hill
#
# Bulk Modulus (GPa) = 48.20965 49.23209 48.72087
# Shear Modulus (GPa) = 16.68143 17.74007 17.21075
#
# Velocity S-wave (km/s) = 2.95406 3.04635 3.00056
# Velocity P-wave (km/s) = 6.07083 6.17481 6.12304
#
# Compressibility (1/GPa) = 0.02074273
#
# Stress axis : x y z
#
# Youngs Moduli (GPa) = 56.97713 56.97713 61.10486
#
# Poissons Ratio (x) = 0.18815 0.36846
# Poissons Ratio (y) = 0.18815 0.36846
# Poissons Ratio (z) = 0.34357 0.34357
#
# Static dielectric constant tensor:
#      x y z
#    x 3.349510 0.000000 0.000000 
#    y 0.000000 3.349510 0.000000 
#    z 0.000000 0.000000 3.972120 
# 
# 
# High freq. dielectric constant tensor:
#      x y z
#    x 1.729780 0.000000 0.000000 
#    y 0.000000 1.729780 0.000000 
#    z 0.000000 0.000000 1.748780 
# 
# From -- ./inp_files/4388.got.cif
#   From: 2010.03.12/outbox.cif.g09.slc.cpg/sg93_3_cif.got.tgz:4388.got - 2010.04.08 20:44:19.
