data_PCOD8305864
_publ_section_title
;
Structure prediction by ZEFSAII (Michael W. Deem and Ramdas Pophale) SiO2 
 PCOD8305864
Probable space group: P 43 2 2
;
_chemical_formula_sum "Si O2"
_cell_formula_units_Z 40
_cell_length_a 8.684373
_cell_length_b 8.684373
_cell_length_c 24.164381
_cell_angle_alpha 90.000000
_cell_angle_beta 90.000000
_cell_angle_gamma 90.000000
_cell_volume 1822.437367
_symmetry_space_group_name_H-M "P 43 2 2"
_symmetry_group_IT_number 95
_symmetry_cell_setting 'tetragonal'
loop_
_space_group_symop_operation_xyz
x,y,z
-y,x,3/4+z
-x,-y,1/2+z
y,-x,1/4+z
x,-y,1/2-z
-x,y,-z
y,x,1/4-z
-y,-x,3/4-z
loop_
_atom_site_type_symbol
_atom_site_label
_atom_site_fract_x
_atom_site_fract_y
_atom_site_fract_z
Si Si1 0.437287 0.000000 0.250000
Si Si2 0.316349 0.519181 0.158346
Si Si3 0.164992 0.835008 0.875000
Si Si4 0.769133 0.709036 0.742789
Si Si5 0.112060 0.694451 0.072207
Si Si6 0.322904 0.127210 0.514786
O O1 0.315927 0.867283 0.257044
O O2 0.553051 0.996334 0.302146
O O3 0.471745 0.471745 0.125000
O O4 0.233933 0.362438 0.180625
O O5 0.339779 0.614188 0.214600
O O6 0.216118 0.626537 0.119802
O O7 0.181910 0.703108 0.828094
O O8 0.997576 0.826903 0.903632
O O9 0.946707 0.719534 0.761249
O O10 0.214711 0.769297 0.024111
O O11 0.500000 0.156169 0.500000
#
# Coordination Sequence:
#
# PCOD8305864 Si02
#       6
#     4   8   4   8   8   8
#     4  12  26  44  72 108 138 186 234 294 350 428
#     4  11  23  47  72 103 143 184 237 291 353 425
#     4  12  24  50  74 102 148 186 244 298 354 432
#     4  11  25  46  74 103 144 185 240 292 353 424
#     4  12  26  47  71 106 144 189 238 291 361 422
#     4  12  26  49  73 107 144 188 242 297 360 432
#
# _framework density 21.948626999999998
#
# number of rings (size 3 to 8) (size 9 to 14) (size 15 to 20)
#    0.000    0.400    8.000    0.000    2.800    4.800 
#    5.400    0.000    0.000    0.000    0.000    0.000 
#    0.000    0.000    0.000    0.000    0.000    0.000 
#
# Total GULP energy -495554.327919 kJ/mol
# GULP energy per Si atom -12388.858198 kJ/mol
# Density = 2.189867 g / cm^3
# Si number density = 21.948627 Si / 1000 Ang^3
#
#
#
# Elastic Constant Matrix: (Units=GPa)
#
#
# Indices 1 2 3 4 5 6 
#
# 1 101.7159 50.5420 43.8489 0.0000 0.0000 0.0000
# 2 50.5420 101.7159 43.8487 0.0000 0.0000 0.0000
# 3 43.8489 43.8487 135.9472 0.0000 0.0000 0.0000
# 4 0.0000 0.0000 0.0000 28.9559 0.0000 0.0000
# 5 0.0000 0.0000 0.0000 0.0000 28.9558 0.0000
# 6 0.0000 0.0000 0.0000 0.0000 0.0000 -132.5208
#
#
#
# Elastic Compliance Matrix: (Units=1/GPa)
#
#
# Indices 1 2 3 4 5 6 
#
# 1 0.013804 -0.005737 -0.002602 0.000000 0.000000 0.000000
# 2 -0.005737 0.013804 -0.002602 0.000000 0.000000 0.000000
# 3 -0.002602 -0.002602 0.009034 0.000000 0.000000 0.000000
# 4 0.000000 0.000000 0.000000 0.034535 0.000000 0.000000
# 5 0.000000 0.000000 0.000000 0.000000 0.034535 0.000000
# 6 0.000000 0.000000 0.000000 0.000000 0.000000 -0.007546
#
#
# Mechanical properties :
#
#
# Convention : Reuss Voigt Hill
#
# Bulk Modulus (GPa) = 67.75124 68.42869 68.08997
# Shear Modulus (GPa) = 40.01018 -1.51252 19.24883
#
# Velocity S-wave (km/s) = 4.27418 -0.83103 2.96462
# Velocity P-wave (km/s) = 7.43594 5.50669 6.54281
#
# Compressibility (1/GPa) = 0.01475988
#
# Stress axis : x y z
#
# Youngs Moduli (GPa) = 72.44380 72.44399 110.69118
#
# Poissons Ratio (x) = 0.41564 0.28799
# Poissons Ratio (y) = 0.41564 0.28799
# Poissons Ratio (z) = 0.18848 0.18848
#
# Static dielectric constant tensor:
#      x y z
#    x 4.305580 0.000000 0.000000 
#    y 0.000000 4.305580 0.000000 
#    z 0.000000 0.000000 4.526560 
# 
# 
# High freq. dielectric constant tensor:
#      x y z
#    x 1.861360 0.000000 0.000000 
#    y 0.000000 1.861360 0.000000 
#    z 0.000000 0.000000 1.884710 
# 
# From -- ./inp_files/6912.got.cif
#   From: 2010.03.12/outbox.cif.g09.slc.cpg/sg95_4_cif.got.tgz:6912.got - 2010.04.08 20:51:55.
