data_PCOD8305771
_publ_section_title
;
Structure prediction by ZEFSAII (Michael W. Deem and Ramdas Pophale) SiO2 
 PCOD8305771
Probable space group: P 42 21 2
;
_chemical_formula_sum "Si O2"
_cell_formula_units_Z 48
_cell_length_a 10.996318
_cell_length_b 10.996318
_cell_length_c 18.303920
_cell_angle_alpha 90.000000
_cell_angle_beta 90.000000
_cell_angle_gamma 90.000000
_cell_volume 2213.291877
_symmetry_space_group_name_H-M "P 42 21 2"
_symmetry_group_IT_number 94
_symmetry_cell_setting 'tetragonal'
loop_
_space_group_symop_operation_xyz
x,y,z
1/2-y,1/2+x,1/2+z
-x,-y,z
1/2+y,1/2-x,1/2+z
1/2+x,1/2-y,1/2-z
1/2-x,1/2+y,1/2-z
y,x,-z
-y,-x,-z
loop_
_atom_site_type_symbol
_atom_site_label
_atom_site_fract_x
_atom_site_fract_y
_atom_site_fract_z
Si Si1 0.767077 0.437623 0.832260
Si Si2 0.074093 0.250062 0.673868
Si Si3 0.829933 0.664745 0.093188
Si Si4 0.864524 0.637770 0.933039
Si Si5 0.759482 0.041000 0.175343
Si Si6 0.047875 0.765531 0.181392
O O1 0.645439 0.366886 0.859753
O O2 0.837741 0.506291 0.897275
O O3 0.857815 0.337233 0.798062
O O4 0.731855 0.531701 0.768822
O O5 0.150448 0.371160 0.660387
O O6 0.946409 0.272473 0.636619
O O7 0.057079 0.224247 0.760306
O O8 0.713919 0.743230 0.074226
O O9 0.921038 0.749147 0.139662
O O10 0.895311 0.619210 0.018691
O O11 0.977009 0.709014 0.897114
O O12 0.887608 0.107929 0.157913
#
# Coordination Sequence:
#
# PCOD8305771 Si02
#       6
#     8   8   8   8   8   8
#     4  11  23  40  65  95 127 167 218 270 320 380
#     4  11  23  40  65  95 127 167 218 270 320 380
#     4  11  25  43  63  93 131 170 215 265 323 389
#     4  11  25  43  63  93 131 170 215 265 323 389
#     4  11  23  40  65  95 127 167 218 270 320 380
#     4  11  23  40  65  95 127 167 218 270 320 380
#
# _framework density 21.687152999999999
#
# number of rings (size 3 to 8) (size 9 to 14) (size 15 to 20)
#    0.000    1.000    3.333    3.000    0.000    8.667 
#    0.000    6.667    0.000    0.000    0.000    0.000 
#    0.000    0.000    0.000    0.000    0.000    0.000 
#
# Total GULP energy -595337.730255 kJ/mol
# GULP energy per Si atom -12402.869380 kJ/mol
# Density = 2.163779 g / cm^3
# Si number density = 21.687153 Si / 1000 Ang^3
#
#
#
# Elastic Constant Matrix: (Units=GPa)
#
#
# Indices 1 2 3 4 5 6 
#
# 1 36.8049 60.6053 10.9806 0.0000 0.0000 0.0000
# 2 60.6053 36.8049 10.9806 0.0000 0.0000 0.0000
# 3 10.9806 10.9806 95.1096 0.0000 0.0000 0.0000
# 4 0.0000 0.0000 0.0000 25.3254 0.0000 0.0000
# 5 0.0000 0.0000 0.0000 0.0000 25.3254 0.0000
# 6 0.0000 0.0000 0.0000 0.0000 0.0000 46.7885
#
#
#
# Elastic Compliance Matrix: (Units=1/GPa)
#
#
# Indices 1 2 3 4 5 6 
#
# 1 -0.015738 0.026278 -0.001217 0.000000 0.000000 0.000000
# 2 0.026278 -0.015738 -0.001217 0.000000 0.000000 0.000000
# 3 -0.001217 -0.001217 0.010795 0.000000 0.000000 0.000000
# 4 0.000000 0.000000 0.000000 0.039486 0.000000 0.000000
# 5 0.000000 0.000000 0.000000 0.000000 0.039486 0.000000
# 6 0.000000 0.000000 0.000000 0.000000 0.000000 0.021373
#
#
# Mechanical properties :
#
#
# Convention : Reuss Voigt Hill
#
# Bulk Modulus (GPa) = 37.02601 37.09471 37.06036
# Shear Modulus (GPa) = 122.01552 25.23136 73.62344
#
# Velocity S-wave (km/s) = 7.50891 3.41460 5.83281
# Velocity P-wave (km/s) = 9.60668 5.71731 7.90493
#
# Compressibility (1/GPa) = 0.02700804
#
# Stress axis : x y z
#
# Youngs Moduli (GPa) = -63.54089 -63.54089 92.63397
#
# Poissons Ratio (x) = 1.66973 0.11273
# Poissons Ratio (y) = 1.66973 0.11273
# Poissons Ratio (z) = -0.07732 -0.07732
#
# Static dielectric constant tensor:
#      x y z
#    x 3.949640 0.000000 0.000000 
#    y 0.000000 3.949640 0.000000 
#    z 0.000000 0.000000 3.914080 
# 
# 
# High freq. dielectric constant tensor:
#      x y z
#    x 1.862480 0.000000 0.000000 
#    y 0.000000 1.862480 0.000000 
#    z 0.000000 0.000000 1.832270 
# 
# From -- ./inp_files/4123.got.cif
#   From: 2010.03.12/outbox.cif.g09.slc.cpg/sg94_3_cif.got.tgz:4123.got - 2010.04.08 20:48:32.
