data_PCOD8305431
_publ_section_title
;
Structure prediction by ZEFSAII (Michael W. Deem and Ramdas Pophale) SiO2 
 PCOD8305431
Probable space group: P 41 21 2
;
_chemical_formula_sum "Si O2"
_cell_formula_units_Z 40
_cell_length_a 15.011508
_cell_length_b 15.011508
_cell_length_c 7.848647
_cell_angle_alpha 90.000000
_cell_angle_beta 90.000000
_cell_angle_gamma 90.000000
_cell_volume 1768.656281
_symmetry_space_group_name_H-M "P 41 21 2"
_symmetry_group_IT_number 92
_symmetry_cell_setting 'tetragonal'
loop_
_space_group_symop_operation_xyz
x,y,z
1/2-y,1/2+x,1/4+z
-x,-y,1/2+z
1/2+y,1/2-x,3/4+z
1/2+x,1/2-y,3/4-z
1/2-x,1/2+y,1/4-z
y,x,-z
-y,-x,1/2-z
loop_
_atom_site_type_symbol
_atom_site_label
_atom_site_fract_x
_atom_site_fract_y
_atom_site_fract_z
Si Si1 0.216890 0.619527 0.605443
Si Si2 0.784579 0.542118 0.846053
Si Si3 0.100164 0.543706 0.066793
Si Si4 0.126715 0.229800 0.718271
Si Si5 0.889425 0.014555 0.598159
O O1 0.202774 0.534288 0.486873
O O2 0.130791 0.672600 0.674060
O O3 0.271173 0.590462 0.773704
O O4 0.273677 0.694121 0.505419
O O5 0.850360 0.525815 0.688218
O O6 0.681676 0.557826 0.786014
O O7 0.007408 0.580265 0.140083
O O8 0.169075 0.624429 0.038208
O O9 0.067547 0.162404 0.823615
O O10 0.977366 0.977366 0.500000
O O11 0.917976 0.082025 0.750000
#
# Coordination Sequence:
#
# PCOD8305431 Si02
#       5
#     8   8   8   8   8
#     4  11  24  47  71 102 140 188 233 302 353 432
#     4  11  24  45  71 101 143 180 240 288 360 419
#     4  11  25  40  68 104 142 190 232 295 351 425
#     4  10  26  46  69 102 142 185 233 293 364 416
#     4  11  25  47  74 102 139 187 235 295 345 421
#
# _framework density 22.616039000000001
#
# number of rings (size 3 to 8) (size 9 to 14) (size 15 to 20)
#    0.000    1.200    4.000    0.000    8.400    3.200 
#    7.200    0.000    0.000    0.000    0.000    0.000 
#    0.000    0.000    0.000    0.000    0.000    0.000 
#
# Total GULP energy -495824.849802 kJ/mol
# GULP energy per Si atom -12395.621245 kJ/mol
# Density = 2.256456 g / cm^3
# Si number density = 22.616039 Si / 1000 Ang^3
#
#
#
# Elastic Constant Matrix: (Units=GPa)
#
#
# Indices 1 2 3 4 5 6 
#
# 1 87.0666 40.5477 22.8958 0.0000 0.0000 0.0000
# 2 40.5477 87.0666 22.8955 0.0000 0.0000 0.0000
# 3 22.8958 22.8955 77.4298 0.0000 0.0000 0.0000
# 4 0.0000 0.0000 0.0000 38.1261 0.0000 0.0000
# 5 0.0000 0.0000 0.0000 0.0000 38.1264 0.0000
# 6 0.0000 0.0000 0.0000 0.0000 0.0000 25.4422
#
#
#
# Elastic Compliance Matrix: (Units=1/GPa)
#
#
# Indices 1 2 3 4 5 6 
#
# 1 0.015131 -0.006365 -0.002592 0.000000 0.000000 0.000000
# 2 -0.006365 0.015131 -0.002592 0.000000 0.000000 0.000000
# 3 -0.002592 -0.002592 0.014448 0.000000 0.000000 0.000000
# 4 0.000000 0.000000 0.000000 0.026229 0.000000 0.000000
# 5 0.000000 0.000000 0.000000 0.000000 0.026229 0.000000
# 6 0.000000 0.000000 0.000000 0.000000 0.000000 0.039305
#
#
# Mechanical properties :
#
#
# Convention : Reuss Voigt Hill
#
# Bulk Modulus (GPa) = 46.27099 47.13789 46.70444
# Shear Modulus (GPa) = 29.98039 31.35389 30.66714
#
# Velocity S-wave (km/s) = 3.64486 3.72742 3.68637
# Velocity P-wave (km/s) = 6.18200 6.27796 6.23017
#
# Compressibility (1/GPa) = 0.02161182
#
# Stress axis : x y z
#
# Youngs Moduli (GPa) = 66.08754 66.08762 69.21428
#
# Poissons Ratio (x) = 0.42066 0.17942
# Poissons Ratio (y) = 0.42066 0.17941
# Poissons Ratio (z) = 0.17131 0.17131
#
# Static dielectric constant tensor:
#      x y z
#    x 4.133020 0.000000 0.000000 
#    y 0.000000 4.133020 0.000000 
#    z 0.000000 0.000000 4.291640 
# 
# 
# High freq. dielectric constant tensor:
#      x y z
#    x 1.888110 0.000000 0.000000 
#    y 0.000000 1.888110 0.000000 
#    z 0.000000 0.000000 1.900190 
# 
# From -- ./inp_files/1280.got.cif
#   From: 2010.03.12/outbox.cif.g09.slc.cpg/sg92_1_cif.got.tgz:1280.got - 2010.04.08 20:41:11.
