data_PCOD8305286
_publ_section_title
;
Structure prediction by ZEFSAII (Michael W. Deem and Ramdas Pophale) SiO2 
 PCOD8305286
Probable space group: P 41 21 2
;
_chemical_formula_sum "Si O2"
_cell_formula_units_Z 36
_cell_length_a 14.150370
_cell_length_b 14.150370
_cell_length_c 8.128695
_cell_angle_alpha 90.000000
_cell_angle_beta 90.000000
_cell_angle_gamma 90.000000
_cell_volume 1627.632751
_symmetry_space_group_name_H-M "P 41 21 2"
_symmetry_group_IT_number 92
_symmetry_cell_setting 'tetragonal'
loop_
_space_group_symop_operation_xyz
x,y,z
1/2-y,1/2+x,1/4+z
-x,-y,1/2+z
1/2+y,1/2-x,3/4+z
1/2+x,1/2-y,3/4-z
1/2-x,1/2+y,1/4-z
y,x,-z
-y,-x,1/2-z
loop_
_atom_site_type_symbol
_atom_site_label
_atom_site_fract_x
_atom_site_fract_y
_atom_site_fract_z
Si Si1 0.308318 0.450464 0.080453
Si Si2 0.304107 0.079619 0.780135
Si Si3 0.234712 0.376085 0.415632
Si Si4 0.139229 0.139229 0.000000
Si Si5 0.532487 0.895314 0.533280
O O1 0.268150 0.390964 0.230507
O O2 0.358250 0.545665 0.139804
O O3 0.219110 0.472003 0.960375
O O4 0.389704 0.389704 0.000000
O O5 0.331706 0.129443 0.606896
O O6 0.390318 0.065009 0.905201
O O7 0.265438 0.974932 0.735623
O O8 0.226507 0.143266 0.874392
O O9 0.302873 0.302873 0.500000
O O10 0.433255 0.939642 0.465510
#
# Coordination Sequence:
#
# PCOD8305286 Si02
#       5
#     8   8   8   4   8
#     4  10  23  42  68  94 123 173 217 258 323 390
#     4  10  20  40  64  89 129 167 205 257 330 366
#     4  10  22  42  66  91 130 166 208 269 318 385
#     4  10  20  40  64  94 130 166 212 264 314 386
#     4  11  21  41  65  94 127 167 208 261 321 387
#
# _framework density 22.118010999999999
#
# number of rings (size 3 to 8) (size 9 to 14) (size 15 to 20)
#    0.000    1.778    6.667    0.000    6.222    3.556 
#   12.000    0.000    0.000    0.000    0.000    0.000 
#    0.000    0.000    0.000    0.000    0.000    0.000 
#
# Total GULP energy -446362.553782 kJ/mol
# GULP energy per Si atom -12398.959827 kJ/mol
# Density = 2.206767 g / cm^3
# Si number density = 22.118011 Si / 1000 Ang^3
#
#
#
# Elastic Constant Matrix: (Units=GPa)
#
#
# Indices 1 2 3 4 5 6 
#
# 1 113.7790 73.3201 24.2437 0.0000 0.0000 0.0000
# 2 73.3201 113.7790 24.2437 0.0000 0.0000 0.0000
# 3 24.2437 24.2437 21.0184 0.0000 0.0000 0.0000
# 4 0.0000 0.0000 0.0000 27.1609 0.0000 0.0000
# 5 0.0000 0.0000 0.0000 0.0000 27.1609 0.0000
# 6 0.0000 0.0000 0.0000 0.0000 0.0000 37.6992
#
#
#
# Elastic Compliance Matrix: (Units=1/GPa)
#
#
# Indices 1 2 3 4 5 6 
#
# 1 0.016170 -0.008546 -0.008793 0.000000 0.000000 0.000000
# 2 -0.008546 0.016170 -0.008793 0.000000 0.000000 0.000000
# 3 -0.008793 -0.008793 0.067863 0.000000 0.000000 0.000000
# 4 0.000000 0.000000 0.000000 0.036818 0.000000 0.000000
# 5 0.000000 0.000000 0.000000 0.000000 0.036818 0.000000
# 6 0.000000 0.000000 0.000000 0.000000 0.000000 0.026526
#
#
# Mechanical properties :
#
#
# Convention : Reuss Voigt Hill
#
# Bulk Modulus (GPa) = 20.86101 54.68794 37.77448
# Shear Modulus (GPa) = 18.61438 26.85547 22.73493
#
# Velocity S-wave (km/s) = 2.90417 3.48830 3.20955
# Velocity P-wave (km/s) = 4.54948 6.40340 5.55434
#
# Compressibility (1/GPa) = 0.04793632
#
# Stress axis : x y z
#
# Youngs Moduli (GPa) = 61.84276 61.84276 14.73557
#
# Poissons Ratio (x) = 0.52853 0.12958
# Poissons Ratio (y) = 0.52853 0.12958
# Poissons Ratio (z) = 0.54381 0.54381
#
# Static dielectric constant tensor:
#      x y z
#    x 4.258270 0.000000 0.000000 
#    y 0.000000 4.258270 0.000000 
#    z 0.000000 0.000000 3.694480 
# 
# 
# High freq. dielectric constant tensor:
#      x y z
#    x 1.880130 0.000000 0.000000 
#    y 0.000000 1.880130 0.000000 
#    z 0.000000 0.000000 1.838170 
# 
# From -- ./inp_files/1253.got.cif
#   From: 2010.03.12/outbox.cif.g09.slc.cpg/sg92_1_cif.got.tgz:1253.got - 2010.04.08 20:41:11.
