data_PCOD8305261
_publ_section_title
;
Structure prediction by ZEFSAII (Michael W. Deem and Ramdas Pophale) SiO2 
 PCOD8305261
Probable space group: P 41 21 2
;
_chemical_formula_sum "Si O2"
_cell_formula_units_Z 40
_cell_length_a 8.788256
_cell_length_b 8.788256
_cell_length_c 26.003589
_cell_angle_alpha 90.000000
_cell_angle_beta 90.000000
_cell_angle_gamma 90.000000
_cell_volume 2008.346722
_symmetry_space_group_name_H-M "P 41 21 2"
_symmetry_group_IT_number 92
_symmetry_cell_setting 'tetragonal'
loop_
_space_group_symop_operation_xyz
x,y,z
1/2-y,1/2+x,1/4+z
-x,-y,1/2+z
1/2+y,1/2-x,3/4+z
1/2+x,1/2-y,3/4-z
1/2-x,1/2+y,1/4-z
y,x,-z
-y,-x,1/2-z
loop_
_atom_site_type_symbol
_atom_site_label
_atom_site_fract_x
_atom_site_fract_y
_atom_site_fract_z
Si Si1 0.903644 0.901189 0.282322
Si Si2 0.496470 0.683420 0.788195
Si Si3 0.148572 0.502169 0.957583
Si Si4 0.742831 0.095190 0.533483
Si Si5 0.098273 0.971613 0.375914
O O1 0.984077 0.753181 0.257744
O O2 0.722707 0.887539 0.279250
O O3 0.960755 0.914376 0.340435
O O4 0.949086 0.050915 0.250000
O O5 0.355055 0.644946 0.750000
O O6 0.523930 0.863293 0.792642
O O7 0.648007 0.597934 0.766514
O O8 0.458630 0.622953 0.845029
O O9 0.250084 0.510262 0.906144
O O10 0.066627 0.339239 0.961503
O O11 0.840803 0.136186 0.583488
#
# Coordination Sequence:
#
# PCOD8305261 Si02
#       5
#     8   8   8   8   8
#     4   9  20  36  53  80 112 140 179 226 272 326
#     4   9  21  39  56  81 116 149 186 231 281 335
#     4  10  21  37  57  82 111 145 186 230 277 332
#     4  10  20  36  58  81 108 147 185 225 276 328
#     4  10  20  36  56  82 112 143 184 228 273 329
#
# _framework density 19.916878000000001
#
# number of rings (size 3 to 8) (size 9 to 14) (size 15 to 20)
#    0.000    2.400    0.000    1.200    0.000   11.200 
#    0.000   20.000    0.000    0.000    0.000    0.000 
#    0.000    0.000    0.000    0.000    0.000    0.000 
#
# Total GULP energy -496031.691782 kJ/mol
# GULP energy per Si atom -12400.792295 kJ/mol
# Density = 1.987155 g / cm^3
# Si number density = 19.916878 Si / 1000 Ang^3
#
#
#
# Elastic Constant Matrix: (Units=GPa)
#
#
# Indices 1 2 3 4 5 6 
#
# 1 50.2302 18.2249 18.0978 0.0000 0.0000 0.0000
# 2 18.2249 50.2287 18.0980 0.0000 0.0000 0.0000
# 3 18.0978 18.0980 91.9855 0.0000 0.0000 0.0000
# 4 0.0000 0.0000 0.0000 24.8000 0.0000 0.0000
# 5 0.0000 0.0000 0.0000 0.0000 24.8001 0.0000
# 6 0.0000 0.0000 0.0000 0.0000 0.0000 44.1084
#
#
#
# Elastic Compliance Matrix: (Units=1/GPa)
#
#
# Indices 1 2 3 4 5 6 
#
# 1 0.023775 -0.007471 -0.003208 0.000000 0.000000 0.000000
# 2 -0.007471 0.023775 -0.003208 0.000000 0.000000 0.000000
# 3 -0.003208 -0.003208 0.012134 0.000000 0.000000 0.000000
# 4 0.000000 0.000000 0.000000 0.040323 0.000000 0.000000
# 5 0.000000 0.000000 0.000000 0.000000 0.040322 0.000000
# 6 0.000000 0.000000 0.000000 0.000000 0.000000 0.022671
#
#
# Mechanical properties :
#
#
# Convention : Reuss Voigt Hill
#
# Bulk Modulus (GPa) = 31.33714 33.47620 32.40667
# Shear Modulus (GPa) = 24.82505 27.94328 26.38416
#
# Velocity S-wave (km/s) = 3.53432 3.74972 3.64361
# Velocity P-wave (km/s) = 5.69415 5.96587 5.83159
#
# Compressibility (1/GPa) = 0.03191102
#
# Stress axis : x y z
#
# Youngs Moduli (GPa) = 42.06172 42.06030 82.41608
#
# Poissons Ratio (x) = 0.31421 0.26437
# Poissons Ratio (y) = 0.31422 0.26439
# Poissons Ratio (z) = 0.13492 0.13493
#
# Static dielectric constant tensor:
#      x y z
#    x 3.564890 0.000000 0.000000 
#    y 0.000000 3.564890 0.000000 
#    z 0.000000 0.000000 3.637250 
# 
# 
# High freq. dielectric constant tensor:
#      x y z
#    x 1.773070 0.000000 0.000000 
#    y 0.000000 1.773070 0.000000 
#    z 0.000000 0.000000 1.779250 
# 
# From -- ./inp_files/3784.got.cif
#   From: 2010.03.12/outbox.cif.g09.slc.cpg/sg92_2_cif.got.tgz:3784.got - 2010.04.08 20:41:11.
