data_PCOD8305018
_publ_section_title
;
Structure prediction by ZEFSAII (Michael W. Deem and Ramdas Pophale) SiO2 
 PCOD8305018
Probable space group: P 41 2 2
;
_chemical_formula_sum "Si O2"
_cell_formula_units_Z 32
_cell_length_a 8.815788
_cell_length_b 8.815788
_cell_length_c 19.525021
_cell_angle_alpha 90.000000
_cell_angle_beta 90.000000
_cell_angle_gamma 90.000000
_cell_volume 1517.447887
_symmetry_space_group_name_H-M "P 41 2 2"
_symmetry_group_IT_number 91
_symmetry_cell_setting 'tetragonal'
loop_
_space_group_symop_operation_xyz
x,y,z
-y,x,1/4+z
-x,-y,1/2+z
y,-x,3/4+z
x,-y,1/2-z
-x,y,-z
y,x,3/4-z
-y,-x,1/4-z
loop_
_atom_site_type_symbol
_atom_site_label
_atom_site_fract_x
_atom_site_fract_y
_atom_site_fract_z
Si Si1 0.529023 0.529023 0.875000
Si Si2 0.185786 0.597801 0.840834
Si Si3 0.951576 0.862333 0.076371
Si Si4 0.971816 0.323046 0.205196
Si Si5 0.500000 0.748003 0.000000
O O1 0.360977 0.553892 0.845738
O O2 0.645597 0.557923 0.813158
O O3 0.137007 0.714468 0.898718
O O4 0.150082 0.672826 0.766962
O O5 0.085307 0.444975 0.850879
O O6 0.843226 0.011945 0.076750
O O7 0.094460 0.905541 0.125000
O O8 0.000000 0.824252 0.000000
O O9 0.142501 0.360914 0.230471
#
# Coordination Sequence:
#
# PCOD8305018 Si02
#       5
#     4   8   8   8   4
#     4  12  22  42  66 100 130 180 220 276 348 400
#     4  10  23  43  65  96 135 175 221 283 338 411
#     4  12  24  44  69  97 134 180 229 285 345 415
#     4  10  23  46  62  98 136 174 226 287 339 407
#     4  10  22  38  70  88 134 168 220 276 334 394
#
# _framework density 21.088037
#
# number of rings (size 3 to 8) (size 9 to 14) (size 15 to 20)
#    0.000    1.500    5.000    1.500    1.750    4.000 
#    0.000    1.250    0.000    0.000    0.000    0.000 
#    0.000    0.000    0.000    0.000    0.000    0.000 
#
# Total GULP energy -396657.665074 kJ/mol
# GULP energy per Si atom -12395.552034 kJ/mol
# Density = 2.104004 g / cm^3
# Si number density = 21.088037 Si / 1000 Ang^3
#
#
#
# Elastic Constant Matrix: (Units=GPa)
#
#
# Indices 1 2 3 4 5 6 
#
# 1 101.6687 48.3604 48.9478 0.0000 0.0000 0.0000
# 2 48.3604 101.6700 48.9483 0.0000 0.0000 0.0000
# 3 48.9478 48.9483 116.6411 0.0000 0.0000 0.0000
# 4 0.0000 0.0000 0.0000 28.9171 0.0000 0.0000
# 5 0.0000 0.0000 0.0000 0.0000 28.9168 0.0000
# 6 0.0000 0.0000 0.0000 0.0000 0.0000 34.5408
#
#
#
# Elastic Compliance Matrix: (Units=1/GPa)
#
#
# Indices 1 2 3 4 5 6 
#
# 1 0.013969 -0.004790 -0.003852 0.000000 0.000000 0.000000
# 2 -0.004790 0.013969 -0.003852 0.000000 0.000000 0.000000
# 3 -0.003852 -0.003852 0.011806 0.000000 0.000000 0.000000
# 4 0.000000 0.000000 0.000000 0.034582 0.000000 0.000000
# 5 0.000000 0.000000 0.000000 0.000000 0.034582 0.000000
# 6 0.000000 0.000000 0.000000 0.000000 0.000000 0.028951
#
#
# Mechanical properties :
#
#
# Convention : Reuss Voigt Hill
#
# Bulk Modulus (GPa) = 67.76786 68.05476 67.91131
# Shear Modulus (GPa) = 29.80376 30.05650 29.93013
#
# Velocity S-wave (km/s) = 3.76347 3.77939 3.77144
# Velocity P-wave (km/s) = 7.14775 7.16846 7.15812
#
# Compressibility (1/GPa) = 0.01475626
#
# Stress axis : x y z
#
# Youngs Moduli (GPa) = 71.58854 71.58934 84.70196
#
# Poissons Ratio (x) = 0.34291 0.32626
# Poissons Ratio (y) = 0.34291 0.32626
# Poissons Ratio (z) = 0.27574 0.27575
#
# Static dielectric constant tensor:
#      x y z
#    x 3.899910 0.000000 0.000000 
#    y 0.000000 3.899910 0.000000 
#    z 0.000000 0.000000 3.757450 
# 
# 
# High freq. dielectric constant tensor:
#      x y z
#    x 1.830610 0.000000 0.000000 
#    y 0.000000 1.830610 0.000000 
#    z 0.000000 0.000000 1.819840 
# 
# From -- ./inp_files/12251.got.cif
#   From: 2010.03.12/outbox.cif.g09.slc.cpg/sg91_7_cif.got.tgz:12251.got - 2010.04.08 20:27:58.
