data_PCOD8305556
_publ_section_title
;
Structure prediction by ZEFSAII (Michael W. Deem and Ramdas Pophale) SiO2 
 PCOD8305556
Probable space group: P 42 2 2
;
_chemical_formula_sum "Si O2"
_cell_formula_units_Z 40
_cell_length_a 14.789349
_cell_length_b 14.789349
_cell_length_c 8.830688
_cell_angle_alpha 90.000000
_cell_angle_beta 90.000000
_cell_angle_gamma 90.000000
_cell_volume 1931.490854
_symmetry_space_group_name_H-M "P 42 2 2"
_symmetry_group_IT_number 93
_symmetry_cell_setting 'tetragonal'
loop_
_space_group_symop_operation_xyz
x,y,z
-y,x,1/2+z
-x,-y,z
y,-x,1/2+z
x,-y,-z
-x,y,-z
y,x,1/2-z
-y,-x,1/2-z
loop_
_atom_site_type_symbol
_atom_site_label
_atom_site_fract_x
_atom_site_fract_y
_atom_site_fract_z
Si Si1 0.408243 0.615587 0.575396
Si Si2 0.248346 0.096499 0.920356
Si Si3 0.178517 0.410480 0.077956
Si Si4 0.410874 0.203531 0.065562
Si Si5 0.236852 0.093264 0.570435
O O1 0.500000 0.572721 0.500000
O O2 0.410661 0.589340 0.750000
O O3 0.405752 0.718897 0.524652
O O4 0.310060 0.581653 0.519076
O O5 0.267286 0.082197 0.743558
O O6 0.156006 0.149741 0.948312
O O7 0.325306 0.159396 0.988071
O O8 0.243744 0.000000 0.000000
O O9 0.180233 0.410481 0.258348
O O10 0.134247 0.500000 0.000000
O O11 0.126271 0.322629 0.024082
O O12 0.500000 0.155840 0.000000
O O13 0.203772 0.000000 0.500000
#
# Coordination Sequence:
#
# PCOD8305556 Si02
#       5
#     8   8   8   8   8
#     4   9  19  37  61  91 129 175 218 259 312 367
#     4  11  25  44  67  97 128 162 209 263 318 381
#     4  10  20  39  64  94 129 170 215 259 314 374
#     4  11  22  39  64  94 131 172 215 265 313 369
#     4  11  24  43  69  96 127 167 206 258 322 383
#
# _framework density 20.709394
#
# number of rings (size 3 to 8) (size 9 to 14) (size 15 to 20)
#    0.000    1.600    2.000    2.400    0.000    4.000 
#    0.000    9.000    0.000    0.000    0.000    0.000 
#    0.000    0.000    0.000    0.000    0.000    0.000 
#
# Total GULP energy -495692.461649 kJ/mol
# GULP energy per Si atom -12392.311541 kJ/mol
# Density = 2.066226 g / cm^3
# Si number density = 20.709394 Si / 1000 Ang^3
#
#
#
# Elastic Constant Matrix: (Units=GPa)
#
#
# Indices 1 2 3 4 5 6 
#
# 1 126.4614 54.3845 69.1499 0.0000 0.0000 0.0000
# 2 54.3845 126.4621 69.1491 0.0000 0.0000 0.0000
# 3 69.1499 69.1491 115.0835 0.0000 0.0000 0.0000
# 4 0.0000 0.0000 0.0000 32.1376 0.0000 0.0000
# 5 0.0000 0.0000 0.0000 0.0000 32.1386 0.0000
# 6 0.0000 0.0000 0.0000 0.0000 0.0000 101.7871
#
#
#
# Elastic Compliance Matrix: (Units=1/GPa)
#
#
# Indices 1 2 3 4 5 6 
#
# 1 0.012052 -0.001822 -0.006147 0.000000 0.000000 0.000000
# 2 -0.001822 0.012052 -0.006147 0.000000 0.000000 0.000000
# 3 -0.006147 -0.006147 0.016077 0.000000 0.000000 0.000000
# 4 0.000000 0.000000 0.000000 0.031116 0.000000 0.000000
# 5 0.000000 0.000000 0.000000 0.000000 0.031115 0.000000
# 6 0.000000 0.000000 0.000000 0.000000 0.000000 0.009824
#
#
# Mechanical properties :
#
#
# Convention : Reuss Voigt Hill
#
# Bulk Modulus (GPa) = 83.68926 83.70822 83.69874
# Shear Modulus (GPa) = 34.61363 44.90090 39.75727
#
# Velocity S-wave (km/s) = 4.09271 4.66138 4.38627
# Velocity P-wave (km/s) = 7.92671 8.33544 8.13364
#
# Compressibility (1/GPa) = 0.01194896
#
# Stress axis : x y z
#
# Youngs Moduli (GPa) = 82.97139 82.97302 62.20258
#
# Poissons Ratio (x) = 0.15116 0.38237
# Poissons Ratio (y) = 0.15116 0.38236
# Poissons Ratio (z) = 0.51004 0.51003
#
# Static dielectric constant tensor:
#      x y z
#    x 3.853870 0.000000 0.000000 
#    y 0.000000 3.853880 0.000000 
#    z 0.000000 0.000000 3.742480 
# 
# 
# High freq. dielectric constant tensor:
#      x y z
#    x 1.817650 0.000000 0.000000 
#    y 0.000000 1.817650 0.000000 
#    z 0.000000 0.000000 1.817710 
# 
# From -- ./inp_files/1818.got.cif
#   From: 2010.03.12/outbox.cif.g09.slc.cpg/sg93_1_cif.got.tgz:1818.got - 2010.04.08 20:44:19.
