data_PCOD8305741
_publ_section_title
;
Structure prediction by ZEFSAII (Michael W. Deem and Ramdas Pophale) SiO2 
 PCOD8305741
Probable space group: P 42 21 2
;
_chemical_formula_sum "Si O2"
_cell_formula_units_Z 48
_cell_length_a 8.726431
_cell_length_b 8.726431
_cell_length_c 28.912116
_cell_angle_alpha 90.000000
_cell_angle_beta 90.000000
_cell_angle_gamma 90.000000
_cell_volume 2201.674923
_symmetry_space_group_name_H-M "P 42 21 2"
_symmetry_group_IT_number 94
_symmetry_cell_setting 'tetragonal'
loop_
_space_group_symop_operation_xyz
x,y,z
1/2-y,1/2+x,1/2+z
-x,-y,z
1/2+y,1/2-x,1/2+z
1/2+x,1/2-y,1/2-z
1/2-x,1/2+y,1/2-z
y,x,-z
-y,-x,-z
loop_
_atom_site_type_symbol
_atom_site_label
_atom_site_fract_x
_atom_site_fract_y
_atom_site_fract_z
Si Si1 0.771021 0.860791 0.393593
Si Si2 0.761841 0.087918 0.718081
Si Si3 0.334600 0.242278 0.951831
Si Si4 0.565093 0.832905 0.117869
Si Si5 0.232841 0.084572 0.289678
Si Si6 0.935886 0.167533 0.046882
O O1 0.715251 0.913976 0.343115
O O2 0.667327 0.719329 0.410097
O O3 0.945026 0.804562 0.390271
O O4 0.757923 0.998747 0.429589
O O5 0.677303 0.128516 0.669997
O O6 0.643111 0.125166 0.759067
O O7 0.912947 0.190213 0.724489
O O8 0.801795 0.909034 0.719621
O O9 0.200035 0.299019 0.917726
O O10 0.293774 0.066584 0.962014
O O11 0.335441 0.335441 0.000000
O O12 0.500000 0.000000 0.107305
O O13 0.835988 0.164013 0.000000
O O14 0.000000 0.000000 0.058492
#
# Coordination Sequence:
#
# PCOD8305741 Si02
#       6
#     8   8   8   8   8   8
#     4  11  25  45  70  99 141 182 237 296 351 424
#     4  10  23  44  69  97 140 174 232 286 351 419
#     4  12  25  44  71 104 138 183 237 293 354 429
#     4  11  25  43  70 100 136 184 233 289 353 426
#     4  10  23  45  66 103 136 180 230 295 350 429
#     4  11  24  47  66  98 142 179 229 289 349 428
#
# _framework density 21.801586
#
# number of rings (size 3 to 8) (size 9 to 14) (size 15 to 20)
#    0.000    1.167    3.333    2.000    7.000    2.000 
#    6.000    0.000    0.000    0.000    0.000    0.000 
#    0.000    0.000    0.000    0.000    0.000    0.000 
#
# Total GULP energy -595492.509933 kJ/mol
# GULP energy per Si atom -12406.093957 kJ/mol
# Density = 2.175196 g / cm^3
# Si number density = 21.801586 Si / 1000 Ang^3
#
#
#
# Elastic Constant Matrix: (Units=GPa)
#
#
# Indices 1 2 3 4 5 6 
#
# 1 77.3015 15.8177 37.8286 0.0000 0.0000 0.0000
# 2 15.8177 77.3012 37.8287 0.0000 0.0000 0.0000
# 3 37.8286 37.8287 140.1828 0.0000 0.0000 0.0000
# 4 0.0000 0.0000 0.0000 39.1471 0.0000 0.0000
# 5 0.0000 0.0000 0.0000 0.0000 39.1471 0.0000
# 6 0.0000 0.0000 0.0000 0.0000 0.0000 38.7410
#
#
#
# Elastic Compliance Matrix: (Units=1/GPa)
#
#
# Indices 1 2 3 4 5 6 
#
# 1 0.015010 -0.001255 -0.003712 0.000000 0.000000 0.000000
# 2 -0.001255 0.015010 -0.003712 0.000000 0.000000 0.000000
# 3 -0.003712 -0.003712 0.009137 0.000000 0.000000 0.000000
# 4 0.000000 0.000000 0.000000 0.025545 0.000000 0.000000
# 5 0.000000 0.000000 0.000000 0.000000 0.025545 0.000000
# 6 0.000000 0.000000 0.000000 0.000000 0.000000 0.025812
#
#
# Mechanical properties :
#
#
# Convention : Reuss Voigt Hill
#
# Bulk Modulus (GPa) = 45.87329 53.08170 49.47749
# Shear Modulus (GPa) = 35.54145 36.96107 36.25126
#
# Velocity S-wave (km/s) = 4.04198 4.12192 4.08214
# Velocity P-wave (km/s) = 6.54755 6.85960 6.70539
#
# Compressibility (1/GPa) = 0.02179918
#
# Stress axis : x y z
#
# Youngs Moduli (GPa) = 66.62432 66.62404 109.44777
#
# Poissons Ratio (x) = 0.08361 0.40624
# Poissons Ratio (y) = 0.08361 0.40624
# Poissons Ratio (z) = 0.24729 0.24729
#
# Static dielectric constant tensor:
#      x y z
#    x 3.836570 0.000000 0.000000 
#    y 0.000000 3.836570 0.000000 
#    z 0.000000 0.000000 4.028360 
# 
# 
# High freq. dielectric constant tensor:
#      x y z
#    x 1.857840 0.000000 0.000000 
#    y 0.000000 1.857840 0.000000 
#    z 0.000000 0.000000 1.863310 
# 
# From -- ./inp_files/5586.got.cif
#   From: 2010.03.12/outbox.cif.g09.slc.cpg/sg94_3_cif.got.tgz:5586.got - 2010.04.08 20:48:32.
