data_PCOD8305514
_publ_section_title
;
Structure prediction by ZEFSAII (Michael W. Deem and Ramdas Pophale) SiO2 
 PCOD8305514
Probable space group: P 42 2 2
;
_chemical_formula_sum "Si O2"
_cell_formula_units_Z 36
_cell_length_a 14.026105
_cell_length_b 14.026105
_cell_length_c 9.146721
_cell_angle_alpha 90.000000
_cell_angle_beta 90.000000
_cell_angle_gamma 90.000000
_cell_volume 1799.449253
_symmetry_space_group_name_H-M "P 42 2 2"
_symmetry_group_IT_number 93
_symmetry_cell_setting 'tetragonal'
loop_
_space_group_symop_operation_xyz
x,y,z
-y,x,1/2+z
-x,-y,z
y,-x,1/2+z
x,-y,-z
-x,y,-z
y,x,1/2-z
-y,-x,1/2-z
loop_
_atom_site_type_symbol
_atom_site_label
_atom_site_fract_x
_atom_site_fract_y
_atom_site_fract_z
Si Si1 0.500000 0.000000 0.806618
Si Si2 0.090671 0.313692 0.279401
Si Si3 0.595629 0.819660 0.951857
Si Si4 0.188654 0.000000 0.000000
Si Si5 0.889731 0.794263 0.002528
Si Si6 0.749994 0.250007 0.250000
O O1 0.416721 0.945554 0.715638
O O2 0.559241 0.923812 0.901964
O O3 0.164504 0.330307 0.414221
O O4 0.145802 0.255063 0.153477
O O5 0.002969 0.252504 0.351335
O O6 0.648301 0.757654 0.829496
O O7 0.500000 0.761825 0.000000
O O8 0.121807 0.907715 0.998317
O O9 0.836610 0.751087 0.863918
O O10 0.000000 0.766101 0.000000
#
# Coordination Sequence:
#
# PCOD8305514 Si02
#       6
#     4   8   8   4   8   4
#     4  10  17  36  65  90 119 162 213 268 335 392
#     4  11  20  37  61  83 117 171 219 263 323 388
#     4  10  20  38  64  88 121 166 211 268 342 396
#     4  12  21  37  54  80 124 182 219 252 305 392
#     4  12  25  36  55  84 126 176 224 270 310 376
#     4  12  24  42  59  90 132 167 222 284 328 392
#
# _framework density 20.006121
#
# number of rings (size 3 to 8) (size 9 to 14) (size 15 to 20)
#    0.000    0.889    4.444    6.000    0.000    0.000 
#    0.000   13.889    0.000    0.000    0.000    0.000 
#    0.000   55.111    0.000    0.000    0.000    0.000 
#
# Total GULP energy -446043.555038 kJ/mol
# GULP energy per Si atom -12390.098751 kJ/mol
# Density = 1.996059 g / cm^3
# Si number density = 20.006121 Si / 1000 Ang^3
#
#
#
# Elastic Constant Matrix: (Units=GPa)
#
#
# Indices 1 2 3 4 5 6 
#
# 1 102.9110 32.7637 59.6202 0.0000 0.0000 0.0000
# 2 32.7637 102.9114 59.6203 0.0000 0.0000 0.0000
# 3 59.6202 59.6203 129.8726 0.0000 0.0000 0.0000
# 4 0.0000 0.0000 0.0000 23.0233 0.0000 0.0000
# 5 0.0000 0.0000 0.0000 0.0000 23.0230 0.0000
# 6 0.0000 0.0000 0.0000 0.0000 0.0000 17.9906
#
#
#
# Elastic Compliance Matrix: (Units=1/GPa)
#
#
# Indices 1 2 3 4 5 6 
#
# 1 0.013306 -0.000950 -0.005672 0.000000 0.000000 0.000000
# 2 -0.000950 0.013306 -0.005672 0.000000 0.000000 0.000000
# 3 -0.005672 -0.005672 0.012908 0.000000 0.000000 0.000000
# 4 0.000000 0.000000 0.000000 0.043434 0.000000 0.000000
# 5 0.000000 0.000000 0.000000 0.000000 0.043435 0.000000
# 6 0.000000 0.000000 0.000000 0.000000 0.000000 0.055585
#
#
# Mechanical properties :
#
#
# Convention : Reuss Voigt Hill
#
# Bulk Modulus (GPa) = 66.97695 71.07815 69.02755
# Shear Modulus (GPa) = 23.63648 25.05343 24.34495
#
# Velocity S-wave (km/s) = 3.44097 3.54261 3.49216
# Velocity P-wave (km/s) = 7.02410 7.23455 7.13010
#
# Compressibility (1/GPa) = 0.01493051
#
# Stress axis : x y z
#
# Youngs Moduli (GPa) = 75.15625 75.15642 77.47418
#
# Poissons Ratio (x) = 0.07140 0.43943
# Poissons Ratio (y) = 0.07140 0.43943
# Poissons Ratio (z) = 0.42629 0.42629
#
# Static dielectric constant tensor:
#      x y z
#    x 3.739300 0.000000 0.000000 
#    y 0.000000 3.739290 0.000000 
#    z 0.000000 0.000000 3.708520 
# 
# 
# High freq. dielectric constant tensor:
#      x y z
#    x 1.762180 0.000000 0.000000 
#    y 0.000000 1.762180 0.000000 
#    z 0.000000 0.000000 1.775350 
# 
# From -- ./inp_files/1755.got.cif
#   From: 2010.03.12/outbox.cif.g09.slc.cpg/sg93_1_cif.got.tgz:1755.got - 2010.04.08 20:44:19.
