data_PCOD8305392
_publ_section_title
;
Structure prediction by ZEFSAII (Michael W. Deem and Ramdas Pophale) SiO2 
 PCOD8305392
Probable space group: P 41 21 2
;
_chemical_formula_sum "Si O2"
_cell_formula_units_Z 56
_cell_length_a 15.444055
_cell_length_b 15.444055
_cell_length_c 10.655966
_cell_angle_alpha 90.000000
_cell_angle_beta 90.000000
_cell_angle_gamma 90.000000
_cell_volume 2541.648594
_symmetry_space_group_name_H-M "P 41 21 2"
_symmetry_group_IT_number 92
_symmetry_cell_setting 'tetragonal'
loop_
_space_group_symop_operation_xyz
x,y,z
1/2-y,1/2+x,1/4+z
-x,-y,1/2+z
1/2+y,1/2-x,3/4+z
1/2+x,1/2-y,3/4-z
1/2-x,1/2+y,1/4-z
y,x,-z
-y,-x,1/2-z
loop_
_atom_site_type_symbol
_atom_site_label
_atom_site_fract_x
_atom_site_fract_y
_atom_site_fract_z
Si Si1 0.173340 0.886259 0.967224
Si Si2 0.453076 0.702841 0.073796
Si Si3 0.049225 0.559665 0.913991
Si Si4 0.511259 0.400711 0.907417
Si Si5 0.532720 0.740456 0.832773
Si Si6 0.728297 0.011711 0.801579
Si Si7 0.197414 0.314822 0.077766
O O1 0.122280 0.811230 0.892444
O O2 0.223980 0.949415 0.871655
O O3 0.241277 0.840678 0.057904
O O4 0.102473 0.946330 0.039614
O O5 0.423458 0.609804 0.127106
O O6 0.394069 0.781846 0.120549
O O7 0.457542 0.700369 0.921871
O O8 0.028578 0.506364 0.785911
O O9 0.035872 0.659190 0.880899
O O10 0.149405 0.554620 0.954332
O O11 0.472499 0.472499 0.000000
O O12 0.515501 0.302496 0.956653
O O13 0.510305 0.727775 0.687626
O O14 0.687242 0.105077 0.767479
O O15 0.236587 0.236587 0.000000
#
# Coordination Sequence:
#
# PCOD8305392 Si02
#       7
#     8   8   8   8   8   8   8
#     4  11  22  43  68  96 140 185 222 287 349 412
#     4  12  28  38  69 107 141 173 233 294 353 412
#     4  10  25  43  71  99 138 186 246 295 350 428
#     4  11  21  42  70 103 136 184 238 286 344 425
#     4  11  23  45  62  97 142 183 217 286 364 408
#     4  10  22  43  74  95 133 189 233 286 352 415
#     4  11  23  45  72  99 132 182 238 288 334 426
#
# _framework density 22.032944000000001
#
# number of rings (size 3 to 8) (size 9 to 14) (size 15 to 20)
#    0.000    1.143    2.857    3.429    4.000    7.429 
#    0.000    0.000    0.000    0.000    0.000    0.000 
#    0.000    0.000    0.000    0.000    0.000    0.000 
#
# Total GULP energy -694252.197932 kJ/mol
# GULP energy per Si atom -12397.360677 kJ/mol
# Density = 2.198280 g / cm^3
# Si number density = 22.032944 Si / 1000 Ang^3
#
#
#
# Elastic Constant Matrix: (Units=GPa)
#
#
# Indices 1 2 3 4 5 6 
#
# 1 84.1235 25.3472 36.7499 0.0000 0.0000 0.0000
# 2 25.3472 84.1235 36.7499 0.0000 0.0000 0.0000
# 3 36.7499 36.7499 107.5686 0.0000 0.0000 0.0000
# 4 0.0000 0.0000 0.0000 30.3769 0.0000 0.0000
# 5 0.0000 0.0000 0.0000 0.0000 30.3769 0.0000
# 6 0.0000 0.0000 0.0000 0.0000 0.0000 42.7926
#
#
#
# Elastic Compliance Matrix: (Units=1/GPa)
#
#
# Indices 1 2 3 4 5 6 
#
# 1 0.014434 -0.002580 -0.004050 0.000000 0.000000 0.000000
# 2 -0.002580 0.014434 -0.004050 0.000000 0.000000 0.000000
# 3 -0.004050 -0.004050 0.012064 0.000000 0.000000 0.000000
# 4 0.000000 0.000000 0.000000 0.032920 0.000000 0.000000
# 5 0.000000 0.000000 0.000000 0.000000 0.032920 0.000000
# 6 0.000000 0.000000 0.000000 0.000000 0.000000 0.023368
#
#
# Mechanical properties :
#
#
# Convention : Reuss Voigt Hill
#
# Bulk Modulus (GPa) = 51.09277 52.61218 51.85247
# Shear Modulus (GPa) = 31.64111 32.50718 32.07414
#
# Velocity S-wave (km/s) = 3.79368 3.84525 3.81955
# Velocity P-wave (km/s) = 6.51375 6.60646 6.56027
#
# Compressibility (1/GPa) = 0.01957224
#
# Stress axis : x y z
#
# Youngs Moduli (GPa) = 69.28175 69.28175 82.89423
#
# Poissons Ratio (x) = 0.17874 0.33571
# Poissons Ratio (y) = 0.17874 0.33571
# Poissons Ratio (z) = 0.28058 0.28058
#
# Static dielectric constant tensor:
#      x y z
#    x 3.921310 0.000000 0.000000 
#    y 0.000000 3.921310 0.000000 
#    z 0.000000 0.000000 4.221430 
# 
# 
# High freq. dielectric constant tensor:
#      x y z
#    x 1.863440 0.000000 0.000000 
#    y 0.000000 1.863440 0.000000 
#    z 0.000000 0.000000 1.879370 
# 
# From -- ./inp_files/2262.got.cif
#   From: 2010.03.12/outbox.cif.g09.slc.cpg/sg92_2_cif.got.tgz:2262.got - 2010.04.08 20:41:11.
