data_PCOD8305626
_publ_section_title
;
Structure prediction by ZEFSAII (Michael W. Deem and Ramdas Pophale) SiO2 
 PCOD8305626
Probable space group: P 42 21 2
;
_chemical_formula_sum "Si O2"
_cell_formula_units_Z 48
_cell_length_a 9.220249
_cell_length_b 9.220249
_cell_length_c 27.280916
_cell_angle_alpha 90.000000
_cell_angle_beta 90.000000
_cell_angle_gamma 90.000000
_cell_volume 2319.232283
_symmetry_space_group_name_H-M "P 42 21 2"
_symmetry_group_IT_number 94
_symmetry_cell_setting 'tetragonal'
loop_
_space_group_symop_operation_xyz
x,y,z
1/2-y,1/2+x,1/2+z
-x,-y,z
1/2+y,1/2-x,1/2+z
1/2+x,1/2-y,1/2-z
1/2-x,1/2+y,1/2-z
y,x,-z
-y,-x,-z
loop_
_atom_site_type_symbol
_atom_site_label
_atom_site_fract_x
_atom_site_fract_y
_atom_site_fract_z
Si Si1 0.772809 0.184830 0.948112
Si Si2 0.642159 0.232614 0.453765
Si Si3 0.161445 0.508087 0.115249
Si Si4 0.970440 0.831732 0.881737
Si Si5 0.655000 0.924661 0.214575
Si Si6 0.154464 0.922109 0.295325
O O1 0.667846 0.208452 0.901576
O O2 0.924358 0.231746 0.923939
O O3 0.784091 0.019064 0.966456
O O4 0.734079 0.265922 0.000000
O O5 0.745158 0.254843 0.500000
O O6 0.651802 0.066332 0.438281
O O7 0.693246 0.312411 0.404135
O O8 0.282248 0.439305 0.150090
O O9 0.000000 0.500000 0.140003
O O10 0.980285 0.742280 0.832224
O O11 0.000000 0.000000 0.868997
O O12 0.643352 0.748847 0.218371
O O13 0.500000 0.000000 0.212160
O O14 0.736695 0.987842 0.261437
O O15 0.000000 0.000000 0.291784
#
# Coordination Sequence:
#
# PCOD8305626 Si02
#       6
#     8   8   8   8   8   8
#     4  10  20  35  62  96 129 174 226 273 325 386
#     4  10  18  38  61  90 127 178 223 274 319 391
#     4  10  23  42  65  94 134 175 219 274 335 392
#     4  10  21  38  69  95 131 171 227 270 325 391
#     4  12  27  47  71 103 132 174 220 275 339 406
#     4  12  27  48  72  98 135 172 221 277 340 406
#
# _framework density 20.696504999999998
#
# number of rings (size 3 to 8) (size 9 to 14) (size 15 to 20)
#    0.000    1.333    3.333    2.000    4.667    0.000 
#    6.000    0.000    0.000    0.000    0.000    0.000 
#    0.000    0.000    0.000    0.000    0.000    0.000 
#
# Total GULP energy -594875.062812 kJ/mol
# GULP energy per Si atom -12393.230475 kJ/mol
# Density = 2.064940 g / cm^3
# Si number density = 20.696505 Si / 1000 Ang^3
#
#
#
# Elastic Constant Matrix: (Units=GPa)
#
#
# Indices 1 2 3 4 5 6 
#
# 1 87.5181 56.5588 37.4338 0.0000 0.0000 0.0000
# 2 56.5588 87.5184 37.4346 0.0000 0.0000 0.0000
# 3 37.4338 37.4346 99.9644 0.0000 0.0000 0.0000
# 4 0.0000 0.0000 0.0000 19.1165 0.0000 0.0000
# 5 0.0000 0.0000 0.0000 0.0000 19.1164 0.0000
# 6 0.0000 0.0000 0.0000 0.0000 0.0000 29.9544
#
#
#
# Elastic Compliance Matrix: (Units=1/GPa)
#
#
# Indices 1 2 3 4 5 6 
#
# 1 0.020459 -0.011841 -0.003227 0.000000 0.000000 0.000000
# 2 -0.011841 0.020459 -0.003227 0.000000 0.000000 0.000000
# 3 -0.003227 -0.003227 0.012421 0.000000 0.000000 0.000000
# 4 0.000000 0.000000 0.000000 0.052311 0.000000 0.000000
# 5 0.000000 0.000000 0.000000 0.000000 0.052311 0.000000
# 6 0.000000 0.000000 0.000000 0.000000 0.000000 0.033384
#
#
# Mechanical properties :
#
#
# Convention : Reuss Voigt Hill
#
# Bulk Modulus (GPa) = 59.71069 59.76171 59.73620
# Shear Modulus (GPa) = 21.41164 23.20905 22.31035
#
# Velocity S-wave (km/s) = 3.21994 3.35236 3.28682
# Velocity P-wave (km/s) = 6.53737 6.62740 6.58254
#
# Compressibility (1/GPa) = 0.01674742
#
# Stress axis : x y z
#
# Youngs Moduli (GPa) = 48.87838 48.87814 80.51197
#
# Poissons Ratio (x) = 0.57878 0.25981
# Poissons Ratio (y) = 0.57878 0.25983
# Poissons Ratio (z) = 0.15773 0.15774
#
# Static dielectric constant tensor:
#      x y z
#    x 3.729710 0.000000 0.000000 
#    y 0.000000 3.729710 0.000000 
#    z 0.000000 0.000000 3.691080 
# 
# 
# High freq. dielectric constant tensor:
#      x y z
#    x 1.805260 0.000000 0.000000 
#    y 0.000000 1.805260 0.000000 
#    z 0.000000 0.000000 1.819850 
# 
# From -- ./inp_files/5570.got.cif
#   From: 2010.03.12/outbox.cif.g09.slc.cpg/sg94_3_cif.got.tgz:5570.got - 2010.04.08 20:48:32.
