data_PCOD8305148
_publ_section_title
;
Structure prediction by ZEFSAII (Michael W. Deem and Ramdas Pophale) SiO2 
 PCOD8305148
Probable space group: P 41 2 2
;
_chemical_formula_sum "Si O2"
_cell_formula_units_Z 48
_cell_length_a 9.295544
_cell_length_b 9.295544
_cell_length_c 25.051996
_cell_angle_alpha 90.000000
_cell_angle_beta 90.000000
_cell_angle_gamma 90.000000
_cell_volume 2164.671282
_symmetry_space_group_name_H-M "P 41 2 2"
_symmetry_group_IT_number 91
_symmetry_cell_setting 'tetragonal'
loop_
_space_group_symop_operation_xyz
x,y,z
-y,x,1/4+z
-x,-y,1/2+z
y,-x,3/4+z
x,-y,1/2-z
-x,y,-z
y,x,3/4-z
-y,-x,1/4-z
loop_
_atom_site_type_symbol
_atom_site_label
_atom_site_fract_x
_atom_site_fract_y
_atom_site_fract_z
Si Si1 0.018279 0.788227 0.365713
Si Si2 0.859957 0.495756 0.107660
Si Si3 0.844796 0.939831 0.996772
Si Si4 0.101007 0.372631 0.454151
Si Si5 0.193475 0.716165 0.808418
Si Si6 0.539814 0.668064 0.254730
O O1 0.942041 0.942041 0.375000
O O2 0.900352 0.665653 0.376595
O O3 0.086176 0.782376 0.306161
O O4 0.147398 0.762352 0.406339
O O5 0.786752 0.569389 0.158703
O O6 0.005912 0.591587 0.098074
O O7 0.738663 0.500852 0.061455
O O8 0.731499 0.032492 0.963697
O O9 0.000000 0.021056 0.000000
O O10 0.873719 0.795753 0.963061
O O11 0.255317 0.450219 0.456714
O O12 0.000000 0.440921 0.500000
O O13 0.293596 0.701528 0.756480
O O14 0.501292 0.500000 0.250000
#
# Coordination Sequence:
#
# PCOD8305148 Si02
#       6
#     8   8   8   8   8   8
#     4  12  24  42  72 101 135 180 234 290 346 422
#     4  11  26  45  69 104 139 182 236 288 357 417
#     4  11  23  42  72 103 136 176 234 293 347 416
#     4   9  20  45  70  92 135 181 222 285 343 411
#     4  12  26  44  71 104 138 185 230 289 359 412
#     4  11  25  46  69  97 139 191 235 280 349 430
#
# _framework density 22.174265999999999
#
# number of rings (size 3 to 8) (size 9 to 14) (size 15 to 20)
#    0.000    1.000    3.333    4.000    4.667    0.000 
#    6.000    1.667    0.000    0.000    0.000    0.000 
#    0.000    0.000    0.000    0.000    0.000    0.000 
#
# Total GULP energy -595139.806897 kJ/mol
# GULP energy per Si atom -12398.745977 kJ/mol
# Density = 2.212380 g / cm^3
# Si number density = 22.174266 Si / 1000 Ang^3
#
#
#
# Elastic Constant Matrix: (Units=GPa)
#
#
# Indices 1 2 3 4 5 6 
#
# 1 105.6876 26.6094 27.8118 0.0000 0.0000 0.0000
# 2 26.6094 105.6876 27.8118 0.0000 0.0000 0.0000
# 3 27.8118 27.8118 81.8120 0.0000 0.0000 0.0000
# 4 0.0000 0.0000 0.0000 34.4938 0.0000 0.0000
# 5 0.0000 0.0000 0.0000 0.0000 34.4938 0.0000
# 6 0.0000 0.0000 0.0000 0.0000 0.0000 30.1248
#
#
#
# Elastic Compliance Matrix: (Units=1/GPa)
#
#
# Indices 1 2 3 4 5 6 
#
# 1 0.010732 -0.001913 -0.002998 0.000000 0.000000 0.000000
# 2 -0.001913 0.010732 -0.002998 0.000000 0.000000 0.000000
# 3 -0.002998 -0.002998 0.014262 0.000000 0.000000 0.000000
# 4 0.000000 0.000000 0.000000 0.028991 0.000000 0.000000
# 5 0.000000 0.000000 0.000000 0.000000 0.028991 0.000000
# 6 0.000000 0.000000 0.000000 0.000000 0.000000 0.033195
#
#
# Mechanical properties :
#
#
# Convention : Reuss Voigt Hill
#
# Bulk Modulus (GPa) = 50.23175 50.85036 50.54106
# Shear Modulus (GPa) = 33.47662 33.88608 33.68135
#
# Velocity S-wave (km/s) = 3.88971 3.91342 3.90158
# Velocity P-wave (km/s) = 6.54794 6.58800 6.56800
#
# Compressibility (1/GPa) = 0.01990773
#
# Stress axis : x y z
#
# Youngs Moduli (GPa) = 93.17500 93.17500 70.11876
#
# Poissons Ratio (x) = 0.17826 0.21022
# Poissons Ratio (y) = 0.17826 0.21022
# Poissons Ratio (z) = 0.27935 0.27935
#
# Static dielectric constant tensor:
#      x y z
#    x 3.931630 0.000000 0.000000 
#    y 0.000000 3.931630 0.000000 
#    z 0.000000 0.000000 3.962670 
# 
# 
# High freq. dielectric constant tensor:
#      x y z
#    x 1.870210 0.000000 0.000000 
#    y 0.000000 1.870210 0.000000 
#    z 0.000000 0.000000 1.867330 
# 
# From -- ./inp_files/18190.got.cif
#   From: 2010.03.12/outbox.cif.g09.slc.cpg/sg91_10_cif.got.tgz:18190.got - 2010.04.08 20:27:58.
