data_PCOD8305789
_publ_section_title
;
Structure prediction by ZEFSAII (Michael W. Deem and Ramdas Pophale) SiO2 
 PCOD8305789
Probable space group: P 42 21 2
;
_chemical_formula_sum "Si O2"
_cell_formula_units_Z 48
_cell_length_a 8.724499
_cell_length_b 8.724499
_cell_length_c 27.464796
_cell_angle_alpha 90.000000
_cell_angle_beta 90.000000
_cell_angle_gamma 90.000000
_cell_volume 2090.534658
_symmetry_space_group_name_H-M "P 42 21 2"
_symmetry_group_IT_number 94
_symmetry_cell_setting 'tetragonal'
loop_
_space_group_symop_operation_xyz
x,y,z
1/2-y,1/2+x,1/2+z
-x,-y,z
1/2+y,1/2-x,1/2+z
1/2+x,1/2-y,1/2-z
1/2-x,1/2+y,1/2-z
y,x,-z
-y,-x,-z
loop_
_atom_site_type_symbol
_atom_site_label
_atom_site_fract_x
_atom_site_fract_y
_atom_site_fract_z
Si Si1 0.722237 0.092032 0.207036
Si Si2 0.103699 0.742427 0.287716
Si Si3 0.823095 0.517474 0.461776
Si Si4 0.228734 0.810380 0.887686
Si Si5 0.387438 0.759075 0.434844
Si Si6 0.957223 0.165257 0.619779
O O1 0.857256 0.150618 0.241981
O O2 0.574376 0.200198 0.214269
O O3 0.773381 0.097165 0.151005
O O4 0.697156 0.914077 0.217170
O O5 0.149337 0.836506 0.336281
O O6 0.765964 0.680555 0.439957
O O7 0.709234 0.394588 0.438301
O O8 0.803640 0.494757 0.519343
O O9 0.000000 0.500000 0.445999
O O10 0.385735 0.746611 0.864480
O O11 0.242792 0.993764 0.890835
O O12 0.265932 0.892741 0.424710
O O13 0.000000 0.000000 0.598136
#
# Coordination Sequence:
#
# PCOD8305789 Si02
#       6
#     8   8   8   8   8   8
#     4  11  26  46  73 105 149 192 245 310 378 447
#     4  11  26  47  70 105 145 195 251 310 374 461
#     4  11  24  46  71 102 146 192 249 308 371 456
#     4  12  24  42  72 103 143 193 239 309 378 443
#     4  11  26  45  70 106 143 192 251 310 377 452
#     4  12  24  45  71 103 147 194 257 312 379 452
#
# _framework density 22.960633000000001
#
# number of rings (size 3 to 8) (size 9 to 14) (size 15 to 20)
#    0.000    0.667    1.667    5.500    4.667    1.333 
#    0.000    5.000    0.000    0.000    0.000    0.000 
#    0.000    0.000    0.000    0.000    0.000    0.000 
#
# Total GULP energy -595137.069607 kJ/mol
# GULP energy per Si atom -12398.688950 kJ/mol
# Density = 2.290837 g / cm^3
# Si number density = 22.960633 Si / 1000 Ang^3
#
#
#
# Elastic Constant Matrix: (Units=GPa)
#
#
# Indices 1 2 3 4 5 6 
#
# 1 130.3883 41.8662 38.0624 0.0000 0.0000 0.0000
# 2 41.8662 130.3883 38.0624 0.0000 0.0000 0.0000
# 3 38.0624 38.0624 102.9375 0.0000 0.0000 0.0000
# 4 0.0000 0.0000 0.0000 25.7273 0.0000 0.0000
# 5 0.0000 0.0000 0.0000 0.0000 25.7273 0.0000
# 6 0.0000 0.0000 0.0000 0.0000 0.0000 41.9279
#
#
#
# Elastic Compliance Matrix: (Units=1/GPa)
#
#
# Indices 1 2 3 4 5 6 
#
# 1 0.009118 -0.002179 -0.002566 0.000000 0.000000 0.000000
# 2 -0.002179 0.009118 -0.002566 0.000000 0.000000 0.000000
# 3 -0.002566 -0.002566 0.011612 0.000000 0.000000 0.000000
# 4 0.000000 0.000000 0.000000 0.038869 0.000000 0.000000
# 5 0.000000 0.000000 0.000000 0.000000 0.038869 0.000000
# 6 0.000000 0.000000 0.000000 0.000000 0.000000 0.023850
#
#
# Mechanical properties :
#
#
# Convention : Reuss Voigt Hill
#
# Bulk Modulus (GPa) = 65.67188 66.63291 66.15239
# Shear Modulus (GPa) = 33.08327 35.05801 34.07064
#
# Velocity S-wave (km/s) = 3.80000 3.91176 3.85628
# Velocity P-wave (km/s) = 6.92223 7.03463 6.97866
#
# Compressibility (1/GPa) = 0.01522722
#
# Stress axis : x y z
#
# Youngs Moduli (GPa) = 109.67357 109.67357 86.11642
#
# Poissons Ratio (x) = 0.23894 0.22097
# Poissons Ratio (y) = 0.23894 0.22097
# Poissons Ratio (z) = 0.28141 0.28141
#
# Static dielectric constant tensor:
#      x y z
#    x 4.300020 0.000000 0.000000 
#    y 0.000000 4.300020 0.000000 
#    z 0.000000 0.000000 3.944130 
# 
# 
# High freq. dielectric constant tensor:
#      x y z
#    x 1.920920 0.000000 0.000000 
#    y 0.000000 1.920920 0.000000 
#    z 0.000000 0.000000 1.896760 
# 
# From -- ./inp_files/5551.got.cif
#   From: 2010.03.12/outbox.cif.g09.slc.cpg/sg94_3_cif.got.tgz:5551.got - 2010.04.08 20:48:32.
