data_PCOD8305409
_publ_section_title
;
Structure prediction by ZEFSAII (Michael W. Deem and Ramdas Pophale) SiO2 
 PCOD8305409
Probable space group: P 41 21 2
;
_chemical_formula_sum "Si O2"
_cell_formula_units_Z 60
_cell_length_a 11.911160
_cell_length_b 11.911160
_cell_length_c 20.153884
_cell_angle_alpha 90.000000
_cell_angle_beta 90.000000
_cell_angle_gamma 90.000000
_cell_volume 2859.347056
_symmetry_space_group_name_H-M "P 41 21 2"
_symmetry_group_IT_number 92
_symmetry_cell_setting 'tetragonal'
loop_
_space_group_symop_operation_xyz
x,y,z
1/2-y,1/2+x,1/4+z
-x,-y,1/2+z
1/2+y,1/2-x,3/4+z
1/2+x,1/2-y,3/4-z
1/2-x,1/2+y,1/4-z
y,x,-z
-y,-x,1/2-z
loop_
_atom_site_type_symbol
_atom_site_label
_atom_site_fract_x
_atom_site_fract_y
_atom_site_fract_z
Si Si1 0.692439 0.149927 0.003309
Si Si2 0.628533 0.628533 0.000000
Si Si3 0.372741 0.955038 0.056952
Si Si4 0.952163 0.872841 0.428349
Si Si5 0.144893 0.027779 0.441200
Si Si6 0.300021 0.609053 0.447378
Si Si7 0.180292 0.334527 0.598226
Si Si8 0.987323 0.512413 0.310765
O O1 0.709024 0.118982 0.079807
O O2 0.787575 0.082451 0.964050
O O3 0.697031 0.283303 0.995042
O O4 0.571237 0.111623 0.979524
O O5 0.497031 0.646256 0.014952
O O6 0.700218 0.674474 0.062110
O O7 0.410616 0.828529 0.068947
O O8 0.242518 0.978143 0.069685
O O9 0.451273 0.011981 0.112550
O O10 0.397953 0.994637 0.981090
O O11 0.897145 0.897145 0.500000
O O12 0.858116 0.864135 0.372655
O O13 0.034453 0.975454 0.406447
O O14 0.218064 0.109431 0.394245
O O15 0.109241 0.109241 0.500000
O O16 0.104709 0.420699 0.556030
#
# Coordination Sequence:
#
# PCOD8305409 Si02
#       8
#     8   4   8   8   8   8   8   8
#     4  11  24  43  70 100 138 179 221 283 345 416
#     4  12  28  46  68 104 146 176 234 294 348 428
#     4  12  23  46  72 101 136 184 235 291 340 420
#     4  11  25  45  67 100 137 186 228 283 348 417
#     4  10  23  43  67  97 133 178 230 275 340 416
#     4  12  27  45  66 106 139 177 233 288 353 409
#     4  11  24  44  68 102 135 179 226 282 352 407
#     4  11  23  44  71 100 137 180 231 281 341 411
#
# _framework density 20.983810999999999
#
# number of rings (size 3 to 8) (size 9 to 14) (size 15 to 20)
#    0.000    0.800    6.000    0.800    5.600    1.067 
#    0.000    0.000    0.000    0.000    0.000    0.000 
#    0.000    0.000    0.000    0.000    0.000    0.000 
#
# Total GULP energy -743834.860005 kJ/mol
# GULP energy per Si atom -12397.247667 kJ/mol
# Density = 2.093605 g / cm^3
# Si number density = 20.983811 Si / 1000 Ang^3
#
#
#
# Elastic Constant Matrix: (Units=GPa)
#
#
# Indices 1 2 3 4 5 6 
#
# 1 -894.9416 998.1047 14.3750 0.0000 0.0000 0.0000
# 2 998.1047 -894.9416 14.3750 0.0000 0.0000 0.0000
# 3 14.3750 14.3750 87.4473 0.0000 0.0000 0.0000
# 4 0.0000 0.0000 0.0000 29.4664 0.0000 0.0000
# 5 0.0000 0.0000 0.0000 0.0000 29.4664 0.0000
# 6 0.0000 0.0000 0.0000 0.0000 0.0000 28.7009
#
#
#
# Elastic Compliance Matrix: (Units=1/GPa)
#
#
# Indices 1 2 3 4 5 6 
#
# 1 0.004815 0.005344 -0.001670 0.000000 0.000000 0.000000
# 2 0.005344 0.004815 -0.001670 0.000000 0.000000 0.000000
# 3 -0.001670 -0.001670 0.011984 0.000000 0.000000 0.000000
# 4 0.000000 0.000000 0.000000 0.033937 0.000000 0.000000
# 5 0.000000 0.000000 0.000000 0.000000 0.033937 0.000000
# 6 0.000000 0.000000 0.000000 0.000000 0.000000 0.034842
#
#
# Mechanical properties :
#
#
# Convention : Reuss Voigt Hill
#
# Bulk Modulus (GPa) = 39.02862 39.03043 39.02952
# Shear Modulus (GPa) = 38.80039 -164.42599 -62.81280
#
# Velocity S-wave (km/s) = 4.30474 -8.86164 -5.47713
# Velocity P-wave (km/s) = 6.58388 9.27708 4.62151
#
# Compressibility (1/GPa) = 0.02562223
#
# Stress axis : x y z
#
# Youngs Moduli (GPa) = 207.67299 207.67299 83.44119
#
# Poissons Ratio (x) = -1.10970 0.13934
# Poissons Ratio (y) = -1.10970 0.13934
# Poissons Ratio (z) = 0.34680 0.34680
#
# Static dielectric constant tensor:
#      x y z
#    x 3.876410 0.000000 0.000000 
#    y 0.000000 3.876410 0.000000 
#    z 0.000000 0.000000 4.069060 
# 
# 
# High freq. dielectric constant tensor:
#      x y z
#    x 1.831170 0.000000 0.000000 
#    y 0.000000 1.831170 0.000000 
#    z 0.000000 0.000000 1.815300 
# 
# From -- ./inp_files/3619.got.cif
#   From: 2010.03.12/outbox.cif.g09.slc.cpg/sg92_2_cif.got.tgz:3619.got - 2010.04.08 20:41:11.
