data_PCOD8305738
_publ_section_title
;
Structure prediction by ZEFSAII (Michael W. Deem and Ramdas Pophale) SiO2 
 PCOD8305738
Probable space group: P 42 21 2
;
_chemical_formula_sum "Si O2"
_cell_formula_units_Z 48
_cell_length_a 8.662984
_cell_length_b 8.662984
_cell_length_c 27.898250
_cell_angle_alpha 90.000000
_cell_angle_beta 90.000000
_cell_angle_gamma 90.000000
_cell_volume 2093.688108
_symmetry_space_group_name_H-M "P 42 21 2"
_symmetry_group_IT_number 94
_symmetry_cell_setting 'tetragonal'
loop_
_space_group_symop_operation_xyz
x,y,z
1/2-y,1/2+x,1/2+z
-x,-y,z
1/2+y,1/2-x,1/2+z
1/2+x,1/2-y,1/2-z
1/2-x,1/2+y,1/2-z
y,x,-z
-y,-x,-z
loop_
_atom_site_type_symbol
_atom_site_label
_atom_site_fract_x
_atom_site_fract_y
_atom_site_fract_z
Si Si1 0.085967 0.745959 0.283231
Si Si2 0.235315 0.416221 0.293920
Si Si3 0.041170 0.326742 0.549522
Si Si4 0.186628 0.613755 0.943818
Si Si5 0.517981 0.326836 0.604626
Si Si6 0.157857 0.810872 0.385008
O O1 0.187205 0.589891 0.280558
O O2 0.121792 0.854795 0.237908
O O3 0.130832 0.851747 0.329348
O O4 0.906592 0.700534 0.285459
O O5 0.297078 0.412688 0.348446
O O6 0.012228 0.310080 0.492448
O O7 0.216808 0.274829 0.556501
O O8 0.000000 0.500000 0.566974
O O9 0.951780 0.198535 0.580411
O O10 0.019493 0.689911 0.933929
O O11 0.234515 0.502294 0.901108
O O12 0.500000 0.500000 0.584643
O O13 0.697983 0.304616 0.614220
#
# Coordination Sequence:
#
# PCOD8305738 Si02
#       6
#     8   8   8   8   8   8
#     4  10  23  42  63  95 130 176 224 282 344 413
#     4  10  23  42  65  94 133 175 226 280 345 415
#     4  11  24  42  65  99 135 171 227 283 341 414
#     4  11  23  43  68  96 133 177 223 284 349 413
#     4  11  23  41  68  95 133 178 232 285 348 418
#     4  11  22  42  65  93 131 178 223 281 348 412
#
# _framework density 22.92605
#
# number of rings (size 3 to 8) (size 9 to 14) (size 15 to 20)
#    0.000    1.333    1.667    3.500    4.667    2.667 
#    6.000    5.000    0.000    0.000    0.000    0.000 
#    0.000    0.000    0.000    0.000    0.000    0.000 
#
# Total GULP energy -594929.315426 kJ/mol
# GULP energy per Si atom -12394.360738 kJ/mol
# Density = 2.287387 g / cm^3
# Si number density = 22.926050 Si / 1000 Ang^3
#
#
#
# Elastic Constant Matrix: (Units=GPa)
#
#
# Indices 1 2 3 4 5 6 
#
# 1 69.5135 13.9926 19.5209 0.0000 0.0000 0.0000
# 2 13.9926 69.5135 19.5209 0.0000 0.0000 0.0000
# 3 19.5209 19.5209 111.7084 0.0000 0.0000 0.0000
# 4 0.0000 0.0000 0.0000 34.5051 0.0000 0.0000
# 5 0.0000 0.0000 0.0000 0.0000 34.5051 0.0000
# 6 0.0000 0.0000 0.0000 0.0000 0.0000 43.0476
#
#
#
# Elastic Compliance Matrix: (Units=1/GPa)
#
#
# Indices 1 2 3 4 5 6 
#
# 1 0.015526 -0.002485 -0.002279 0.000000 0.000000 0.000000
# 2 -0.002485 0.015526 -0.002279 0.000000 0.000000 0.000000
# 3 -0.002279 -0.002279 0.009748 0.000000 0.000000 0.000000
# 4 0.000000 0.000000 0.000000 0.028981 0.000000 0.000000
# 5 0.000000 0.000000 0.000000 0.000000 0.028981 0.000000
# 6 0.000000 0.000000 0.000000 0.000000 0.000000 0.023230
#
#
# Mechanical properties :
#
#
# Convention : Reuss Voigt Hill
#
# Bulk Modulus (GPa) = 37.43326 39.64490 38.53908
# Shear Modulus (GPa) = 34.48669 35.59161 35.03915
#
# Velocity S-wave (km/s) = 3.88268 3.94439 3.91366
# Velocity P-wave (km/s) = 6.03851 6.17044 6.10483
#
# Compressibility (1/GPa) = 0.02671421
#
# Stress axis : x y z
#
# Youngs Moduli (GPa) = 64.40843 64.40843 102.58174
#
# Poissons Ratio (x) = 0.16008 0.23377
# Poissons Ratio (y) = 0.16008 0.23377
# Poissons Ratio (z) = 0.14678 0.14678
#
# Static dielectric constant tensor:
#      x y z
#    x 4.005700 0.000000 0.000000 
#    y 0.000000 4.005700 0.000000 
#    z 0.000000 0.000000 4.092580 
# 
# 
# High freq. dielectric constant tensor:
#      x y z
#    x 1.904560 0.000000 0.000000 
#    y 0.000000 1.904560 0.000000 
#    z 0.000000 0.000000 1.901470 
# 
# From -- ./inp_files/5571.got.cif
#   From: 2010.03.12/outbox.cif.g09.slc.cpg/sg94_3_cif.got.tgz:5571.got - 2010.04.08 20:48:32.
