data_PCOD8305068
_publ_section_title
;
Structure prediction by ZEFSAII (Michael W. Deem and Ramdas Pophale) SiO2 
 PCOD8305068
Probable space group: P 41 2 2
;
_chemical_formula_sum "Si O2"
_cell_formula_units_Z 40
_cell_length_a 11.387009
_cell_length_b 11.387009
_cell_length_c 14.939987
_cell_angle_alpha 90.000000
_cell_angle_beta 90.000000
_cell_angle_gamma 90.000000
_cell_volume 1937.178085
_symmetry_space_group_name_H-M "P 41 2 2"
_symmetry_group_IT_number 91
_symmetry_cell_setting 'tetragonal'
loop_
_space_group_symop_operation_xyz
x,y,z
-y,x,1/4+z
-x,-y,1/2+z
y,-x,3/4+z
x,-y,1/2-z
-x,y,-z
y,x,3/4-z
-y,-x,1/4-z
loop_
_atom_site_type_symbol
_atom_site_label
_atom_site_fract_x
_atom_site_fract_y
_atom_site_fract_z
Si Si1 0.321669 0.701287 0.316158
Si Si2 0.520214 0.611907 0.199802
Si Si3 0.947747 0.229038 0.402481
Si Si4 0.077749 0.638064 0.250275
Si Si5 0.184304 0.999575 0.851770
O O1 0.448292 0.689668 0.270288
O O2 0.313276 0.625295 0.407448
O O3 0.312291 0.835616 0.342329
O O4 0.217948 0.654903 0.252271
O O5 0.576001 0.500000 0.250000
O O6 0.428547 0.571454 0.125000
O O7 0.912270 0.103144 0.362669
O O8 0.000000 0.206985 0.500000
O O9 0.040195 0.296059 0.340249
O O10 0.044228 0.500000 0.250000
O O11 0.018656 0.702097 0.335454
O O12 0.229757 0.000000 0.750000
O O13 0.123433 0.123433 0.875000
#
# Coordination Sequence:
#
# PCOD8305068 Si02
#       5
#     8   8   8   8   8
#     4  10  23  39  66  94 130 168 222 269 343 390
#     4   9  18  37  66  94 120 165 215 270 323 403
#     4  11  26  40  64  98 132 175 221 277 330 392
#     4  11  25  43  64 100 139 171 219 277 339 401
#     4  11  22  44  73  95 129 178 227 272 327 396
#
# _framework density 20.648589999999999
#
# number of rings (size 3 to 8) (size 9 to 14) (size 15 to 20)
#    0.000    1.600    2.000    2.400    8.400    1.600 
#    3.600    0.000    0.000    0.000    0.000    0.000 
#    0.000    0.000    0.000    0.000    0.000    0.000 
#
# Total GULP energy -496074.225844 kJ/mol
# GULP energy per Si atom -12401.855646 kJ/mol
# Density = 2.060159 g / cm^3
# Si number density = 20.648590 Si / 1000 Ang^3
#
#
#
# Elastic Constant Matrix: (Units=GPa)
#
#
# Indices 1 2 3 4 5 6 
#
# 1 97.0450 40.8894 41.6021 0.0000 0.0000 0.0000
# 2 40.8894 97.0454 41.6029 0.0000 0.0000 0.0000
# 3 41.6021 41.6029 135.0204 0.0000 0.0000 0.0000
# 4 0.0000 0.0000 0.0000 36.7686 0.0000 0.0000
# 5 0.0000 0.0000 0.0000 0.0000 36.7679 0.0000
# 6 0.0000 0.0000 0.0000 0.0000 0.0000 19.6805
#
#
#
# Elastic Compliance Matrix: (Units=1/GPa)
#
#
# Indices 1 2 3 4 5 6 
#
# 1 0.013356 -0.004451 -0.002744 0.000000 0.000000 0.000000
# 2 -0.004451 0.013356 -0.002744 0.000000 0.000000 0.000000
# 3 -0.002744 -0.002744 0.009097 0.000000 0.000000 0.000000
# 4 0.000000 0.000000 0.000000 0.027197 0.000000 0.000000
# 5 0.000000 0.000000 0.000000 0.000000 0.027198 0.000000
# 6 0.000000 0.000000 0.000000 0.000000 0.000000 0.050812
#
#
# Mechanical properties :
#
#
# Convention : Reuss Voigt Hill
#
# Bulk Modulus (GPa) = 62.76746 64.14440 63.45593
# Shear Modulus (GPa) = 30.08341 32.31115 31.19728
#
# Velocity S-wave (km/s) = 3.82111 3.96006 3.89120
# Velocity P-wave (km/s) = 7.06624 7.21399 7.14050
#
# Compressibility (1/GPa) = 0.01593182
#
# Stress axis : x y z
#
# Youngs Moduli (GPa) = 74.87130 74.87120 109.92492
#
# Poissons Ratio (x) = 0.33328 0.30160
# Poissons Ratio (y) = 0.33328 0.30162
# Poissons Ratio (z) = 0.20543 0.20543
#
# Static dielectric constant tensor:
#      x y z
#    x 3.698970 0.000000 0.000000 
#    y 0.000000 3.698960 0.000000 
#    z 0.000000 0.000000 4.274360 
# 
# 
# High freq. dielectric constant tensor:
#      x y z
#    x 1.802350 0.000000 0.000000 
#    y 0.000000 1.802350 0.000000 
#    z 0.000000 0.000000 1.818550 
# 
# From -- ./inp_files/4719.got.cif
#   From: 2010.03.12/outbox.cif.g09.slc.cpg/sg91_3_cif.got.tgz:4719.got - 2010.04.08 20:27:58.
