data_PCOD8305829
_publ_section_title
;
Structure prediction by ZEFSAII (Michael W. Deem and Ramdas Pophale) SiO2 
 PCOD8305829
Probable space group: P 43 2 2
;
_chemical_formula_sum "Si O2"
_cell_formula_units_Z 40
_cell_length_a 13.851752
_cell_length_b 13.851752
_cell_length_c 9.118859
_cell_angle_alpha 90.000000
_cell_angle_beta 90.000000
_cell_angle_gamma 90.000000
_cell_volume 1749.644900
_symmetry_space_group_name_H-M "P 43 2 2"
_symmetry_group_IT_number 95
_symmetry_cell_setting 'tetragonal'
loop_
_space_group_symop_operation_xyz
x,y,z
-y,x,3/4+z
-x,-y,1/2+z
y,-x,1/4+z
x,-y,1/2-z
-x,y,-z
y,x,1/4-z
-y,-x,3/4-z
loop_
_atom_site_type_symbol
_atom_site_label
_atom_site_fract_x
_atom_site_fract_y
_atom_site_fract_z
Si Si1 0.249416 0.452240 0.523958
Si Si2 0.784222 0.076604 0.968567
Si Si3 0.417536 0.938036 0.603982
Si Si4 0.858375 0.182738 0.208030
Si Si5 0.725715 0.641255 0.323051
O O1 0.161455 0.458334 0.413494
O O2 0.222138 0.403380 0.679480
O O3 0.280713 0.563108 0.547096
O O4 0.332964 0.386262 0.453809
O O5 0.838543 0.161458 0.875000
O O6 0.800156 0.968645 0.911782
O O7 0.669776 0.086696 0.992806
O O8 0.830346 0.082856 0.130545
O O9 0.500000 0.987214 0.500000
O O10 0.389945 0.000000 0.750000
O O11 0.829796 0.170205 0.375000
O O12 0.792326 0.267118 0.135475
#
# Coordination Sequence:
#
# PCOD8305829 Si02
#       5
#     8   8   8   8   8
#     4  10  21  41  71 102 138 189 237 299 368 452
#     4  12  28  45  69 104 146 190 245 308 374 442
#     4  12  28  45  71 110 146 192 250 313 384 458
#     4  12  23  45  72 102 144 196 242 302 369 446
#     4  10  20  40  76 101 142 188 243 296 373 444
#
# _framework density 22.861782000000002
#
# number of rings (size 3 to 8) (size 9 to 14) (size 15 to 20)
#    0.000    0.800    4.000    3.600    8.400    2.400 
#    0.000    0.000   17.600    0.000    0.000    0.000 
#    0.000    0.000    0.000    0.000    0.000    0.000 
#
# Total GULP energy -495549.036175 kJ/mol
# GULP energy per Si atom -12388.725904 kJ/mol
# Density = 2.280975 g / cm^3
# Si number density = 22.861782 Si / 1000 Ang^3
#
#
#
# Elastic Constant Matrix: (Units=GPa)
#
#
# Indices 1 2 3 4 5 6 
#
# 1 194.6687 -11.6974 41.7108 0.0000 0.0000 0.0000
# 2 -11.6974 194.6594 41.7200 0.0000 0.0000 0.0000
# 3 41.7108 41.7200 46.8230 0.0000 0.0000 0.0000
# 4 0.0000 0.0000 0.0000 39.8587 0.0000 0.0000
# 5 0.0000 0.0000 0.0000 0.0000 39.8590 0.0000
# 6 0.0000 0.0000 0.0000 0.0000 0.0000 23.8098
#
#
#
# Elastic Compliance Matrix: (Units=1/GPa)
#
#
# Indices 1 2 3 4 5 6 
#
# 1 0.007025 0.002180 -0.008200 0.000000 0.000000 0.000000
# 2 0.002180 0.007026 -0.008202 0.000000 0.000000 0.000000
# 3 -0.008200 -0.008202 0.035970 0.000000 0.000000 0.000000
# 4 0.000000 0.000000 0.000000 0.025089 0.000000 0.000000
# 5 0.000000 0.000000 0.000000 0.000000 0.025088 0.000000
# 6 0.000000 0.000000 0.000000 0.000000 0.000000 0.042000
#
#
# Mechanical properties :
#
#
# Convention : Reuss Voigt Hill
#
# Bulk Modulus (GPa) = 46.34760 64.40197 55.37478
# Shear Modulus (GPa) = 28.11619 45.00001 36.55810
#
# Velocity S-wave (km/s) = 3.51070 4.44142 4.00320
# Velocity P-wave (km/s) = 6.06221 7.38464 6.75586
#
# Compressibility (1/GPa) = 0.02157609
#
# Stress axis : x y z
#
# Youngs Moduli (GPa) = 142.35163 142.32853 27.80123
#
# Poissons Ratio (x) = -0.31021 0.22797
# Poissons Ratio (y) = -0.31026 0.22802
# Poissons Ratio (z) = 1.16727 1.16736
#
# Static dielectric constant tensor:
#      x y z
#    x 4.190290 0.000000 0.000000 
#    y 0.000000 4.190280 0.000000 
#    z 0.000000 0.000000 4.266670 
# 
# 
# High freq. dielectric constant tensor:
#      x y z
#    x 1.902820 0.000000 0.000000 
#    y 0.000000 1.902820 0.000000 
#    z 0.000000 0.000000 1.900940 
# 
# From -- ./inp_files/2390.got.cif
#   From: 2010.03.12/outbox.cif.g09.slc.cpg/sg95_2_cif.got.tgz:2390.got - 2010.04.08 20:51:55.
