data_PCOD8305767
_publ_section_title
;
Structure prediction by ZEFSAII (Michael W. Deem and Ramdas Pophale) SiO2 
 PCOD8305767
Probable space group: P 42 21 2
;
_chemical_formula_sum "Si O2"
_cell_formula_units_Z 40
_cell_length_a 13.828788
_cell_length_b 13.828788
_cell_length_c 9.641746
_cell_angle_alpha 90.000000
_cell_angle_beta 90.000000
_cell_angle_gamma 90.000000
_cell_volume 1843.842937
_symmetry_space_group_name_H-M "P 42 21 2"
_symmetry_group_IT_number 94
_symmetry_cell_setting 'tetragonal'
loop_
_space_group_symop_operation_xyz
x,y,z
1/2-y,1/2+x,1/2+z
-x,-y,z
1/2+y,1/2-x,1/2+z
1/2+x,1/2-y,1/2-z
1/2-x,1/2+y,1/2-z
y,x,-z
-y,-x,-z
loop_
_atom_site_type_symbol
_atom_site_label
_atom_site_fract_x
_atom_site_fract_y
_atom_site_fract_z
Si Si1 0.967362 0.100421 0.849257
Si Si2 0.242770 0.633490 0.309417
Si Si3 0.229299 0.340615 0.290888
Si Si4 0.106859 0.396801 0.048922
Si Si5 0.608290 0.111330 0.951003
O O1 0.876419 0.158291 0.781499
O O2 0.057927 0.173375 0.848439
O O3 0.932931 0.067070 0.000000
O O4 0.000000 0.000000 0.770425
O O5 0.289505 0.733270 0.262406
O O6 0.180225 0.654317 0.446110
O O7 0.174124 0.597970 0.186922
O O8 0.191129 0.347613 0.448360
O O9 0.165438 0.407742 0.192015
O O10 0.111107 0.502609 0.976960
O O11 0.998334 0.363537 0.086127
#
# Coordination Sequence:
#
# PCOD8305767 Si02
#       5
#     8   8   8   8   8
#     4  11  26  46  70 101 148 201 248 293 367 453
#     4  12  25  43  70 105 140 194 244 294 368 449
#     4  12  25  43  72 106 144 190 246 302 363 447
#     4  11  23  41  72 105 139 174 240 311 372 427
#     4  11  22  44  71 103 140 177 236 317 370 416
#
# _framework density 21.693822999999998
#
# number of rings (size 3 to 8) (size 9 to 14) (size 15 to 20)
#    0.000    0.600    4.000    3.600    5.600    4.800 
#    0.000    0.000    0.000    0.000    0.000    0.000 
#    0.000    0.000    0.000    0.000    0.000    0.000 
#
# Total GULP energy -495802.070630 kJ/mol
# GULP energy per Si atom -12395.051766 kJ/mol
# Density = 2.164445 g / cm^3
# Si number density = 21.693823 Si / 1000 Ang^3
#
#
#
# Elastic Constant Matrix: (Units=GPa)
#
#
# Indices 1 2 3 4 5 6 
#
# 1 133.2090 34.7141 42.2110 0.0000 0.0000 0.0000
# 2 34.7141 133.2092 42.2110 0.0000 0.0000 0.0000
# 3 42.2110 42.2110 89.1590 0.0000 0.0000 0.0000
# 4 0.0000 0.0000 0.0000 36.8453 0.0000 0.0000
# 5 0.0000 0.0000 0.0000 0.0000 36.8455 0.0000
# 6 0.0000 0.0000 0.0000 0.0000 0.0000 40.2803
#
#
#
# Elastic Compliance Matrix: (Units=1/GPa)
#
#
# Indices 1 2 3 4 5 6 
#
# 1 0.008984 -0.001169 -0.003700 0.000000 0.000000 0.000000
# 2 -0.001169 0.008984 -0.003700 0.000000 0.000000 0.000000
# 3 -0.003700 -0.003700 0.014719 0.000000 0.000000 0.000000
# 4 0.000000 0.000000 0.000000 0.027140 0.000000 0.000000
# 5 0.000000 0.000000 0.000000 0.000000 0.027140 0.000000
# 6 0.000000 0.000000 0.000000 0.000000 0.000000 0.024826
#
#
# Mechanical properties :
#
#
# Convention : Reuss Voigt Hill
#
# Bulk Modulus (GPa) = 64.30951 65.98327 65.14639
# Shear Modulus (GPa) = 37.28139 38.55696 37.91917
#
# Velocity S-wave (km/s) = 4.15001 4.22041 4.18535
# Velocity P-wave (km/s) = 7.25754 7.36416 7.31104
#
# Compressibility (1/GPa) = 0.01554980
#
# Stress axis : x y z
#
# Youngs Moduli (GPa) = 111.30855 111.30873 67.93779
#
# Poissons Ratio (x) = 0.13009 0.25137
# Poissons Ratio (y) = 0.13009 0.25137
# Poissons Ratio (z) = 0.41184 0.41184
#
# Static dielectric constant tensor:
#      x y z
#    x 4.175620 0.000000 0.000000 
#    y 0.000000 4.175620 0.000000 
#    z 0.000000 0.000000 3.755880 
# 
# 
# High freq. dielectric constant tensor:
#      x y z
#    x 1.866960 0.000000 0.000000 
#    y 0.000000 1.866960 0.000000 
#    z 0.000000 0.000000 1.831050 
# 
# From -- ./inp_files/1413.got.cif
#   From: 2010.03.12/outbox.cif.g09.slc.cpg/sg94_1_cif.got.tgz:1413.got - 2010.04.08 20:48:32.
