data_PCOD8305989
_publ_section_title
;
Structure prediction by ZEFSAII (Michael W. Deem and Ramdas Pophale) SiO2 
 PCOD8305989
Probable space group: P 43 21 2
;
_chemical_formula_sum "Si O2"
_cell_formula_units_Z 48
_cell_length_a 10.668121
_cell_length_b 10.668121
_cell_length_c 19.081811
_cell_angle_alpha 90.000000
_cell_angle_beta 90.000000
_cell_angle_gamma 90.000000
_cell_volume 2171.678120
_symmetry_space_group_name_H-M "P 43 21 2"
_symmetry_group_IT_number 96
_symmetry_cell_setting 'tetragonal'
loop_
_space_group_symop_operation_xyz
x,y,z
1/2-y,1/2+x,3/4+z
-x,-y,1/2+z
1/2+y,1/2-x,1/4+z
1/2+x,1/2-y,1/4-z
1/2-x,1/2+y,3/4-z
y,x,-z
-y,-x,1/2-z
loop_
_atom_site_type_symbol
_atom_site_label
_atom_site_fract_x
_atom_site_fract_y
_atom_site_fract_z
Si Si1 0.684686 0.840858 0.255901
Si Si2 0.895369 0.048185 0.049960
Si Si3 0.827913 0.728030 0.904127
Si Si4 0.052813 0.069800 0.181293
Si Si5 0.937838 0.499816 0.971182
Si Si6 0.801688 0.553910 0.105199
O O1 0.657041 0.693158 0.268226
O O2 0.730040 0.858634 0.177432
O O3 0.796775 0.886318 0.304269
O O4 0.568902 0.929423 0.274175
O O5 0.940505 0.090862 0.126659
O O6 0.810473 0.926250 0.054857
O O7 0.013756 0.013756 0.000000
O O8 0.835262 0.583345 0.929357
O O9 0.696771 0.794405 0.921259
O O10 0.158731 0.990584 0.140856
O O11 0.001751 0.998250 0.250000
O O12 0.956129 0.367851 0.931152
O O13 0.882658 0.474349 0.048716
#
# Coordination Sequence:
#
# PCOD8305989 Si02
#       6
#     8   8   8   8   8   8
#     4  11  24  45  70  96 145 188 232 286 355 427
#     4  11  25  44  70 105 138 183 238 295 355 416
#     4  11  21  43  70 100 135 178 231 298 346 413
#     4  12  26  46  70 102 139 192 241 294 356 426
#     4  11  24  43  67 103 139 181 234 288 360 414
#     4  12  25  40  72 103 138 178 238 298 352 418
#
# _framework density 22.102720999999999
#
# number of rings (size 3 to 8) (size 9 to 14) (size 15 to 20)
#    0.000    0.667    3.333    5.500    4.667    0.000 
#    0.000    0.833    0.000    0.000    0.000    0.000 
#    0.000    0.000    0.000    0.000    0.000    0.000 
#
# Total GULP energy -595360.981358 kJ/mol
# GULP energy per Si atom -12403.353778 kJ/mol
# Density = 2.205241 g / cm^3
# Si number density = 22.102721 Si / 1000 Ang^3
#
#
#
# Elastic Constant Matrix: (Units=GPa)
#
#
# Indices 1 2 3 4 5 6 
#
# 1 75.6701 18.9526 15.8978 0.0000 0.0000 0.0000
# 2 18.9526 75.6704 15.8981 0.0000 0.0000 0.0000
# 3 15.8978 15.8981 85.0528 0.0000 0.0000 0.0000
# 4 0.0000 0.0000 0.0000 27.1433 0.0000 0.0000
# 5 0.0000 0.0000 0.0000 0.0000 27.1433 0.0000
# 6 0.0000 0.0000 0.0000 0.0000 0.0000 23.1145
#
#
#
# Elastic Compliance Matrix: (Units=1/GPa)
#
#
# Indices 1 2 3 4 5 6 
#
# 1 0.014454 -0.003177 -0.002108 0.000000 0.000000 0.000000
# 2 -0.003177 0.014454 -0.002108 0.000000 0.000000 0.000000
# 3 -0.002108 -0.002108 0.012545 0.000000 0.000000 0.000000
# 4 0.000000 0.000000 0.000000 0.036841 0.000000 0.000000
# 5 0.000000 0.000000 0.000000 0.000000 0.036841 0.000000
# 6 0.000000 0.000000 0.000000 0.000000 0.000000 0.043263
#
#
# Mechanical properties :
#
#
# Convention : Reuss Voigt Hill
#
# Bulk Modulus (GPa) = 37.49912 37.54336 37.52124
# Shear Modulus (GPa) = 27.46139 27.85655 27.65897
#
# Velocity S-wave (km/s) = 3.52866 3.55395 3.54133
# Velocity P-wave (km/s) = 5.79694 5.81924 5.80810
#
# Compressibility (1/GPa) = 0.02666729
#
# Stress axis : x y z
#
# Youngs Moduli (GPa) = 69.18556 69.18567 79.71062
#
# Poissons Ratio (x) = 0.21983 0.16801
# Poissons Ratio (y) = 0.21982 0.16802
# Poissons Ratio (z) = 0.14583 0.14583
#
# Static dielectric constant tensor:
#      x y z
#    x 3.969810 0.000000 0.000000 
#    y 0.000000 3.969810 0.000000 
#    z 0.000000 0.000000 3.938650 
# 
# 
# High freq. dielectric constant tensor:
#      x y z
#    x 1.867220 0.000000 0.000000 
#    y 0.000000 1.867220 0.000000 
#    z 0.000000 0.000000 1.879340 
# 
# From -- ./inp_files/3126.got.cif
#   From: 2010.03.12/outbox.cif.g09.slc.cpg/sg96_2_cif.got.tgz:3126.got - 2010.04.08 20:56:49.
