data_PCOD8305386
_publ_section_title
;
Structure prediction by ZEFSAII (Michael W. Deem and Ramdas Pophale) SiO2 
 PCOD8305386
Probable space group: P 41 21 2
;
_chemical_formula_sum "Si O2"
_cell_formula_units_Z 40
_cell_length_a 8.698399
_cell_length_b 8.698399
_cell_length_c 23.550805
_cell_angle_alpha 90.000000
_cell_angle_beta 90.000000
_cell_angle_gamma 90.000000
_cell_volume 1781.904427
_symmetry_space_group_name_H-M "P 41 21 2"
_symmetry_group_IT_number 92
_symmetry_cell_setting 'tetragonal'
loop_
_space_group_symop_operation_xyz
x,y,z
1/2-y,1/2+x,1/4+z
-x,-y,1/2+z
1/2+y,1/2-x,3/4+z
1/2+x,1/2-y,3/4-z
1/2-x,1/2+y,1/4-z
y,x,-z
-y,-x,1/2-z
loop_
_atom_site_type_symbol
_atom_site_label
_atom_site_fract_x
_atom_site_fract_y
_atom_site_fract_z
Si Si1 0.430651 0.452924 0.343404
Si Si2 0.780757 0.357087 0.697062
Si Si3 0.233150 0.314989 0.246942
Si Si4 0.035478 0.724424 0.090837
Si Si5 0.259231 0.419146 0.547800
O O1 0.361756 0.623376 0.338894
O O2 0.357926 0.344286 0.295787
O O3 0.612164 0.454203 0.332635
O O4 0.391019 0.387521 0.404730
O O5 0.759905 0.240096 0.750000
O O6 0.824587 0.526066 0.719096
O O7 0.916024 0.297951 0.656387
O O8 0.315430 0.208926 0.199594
O O9 0.089666 0.222680 0.272279
O O10 0.911597 0.595680 0.073634
O O11 0.291337 0.291337 0.500000
#
# Coordination Sequence:
#
# PCOD8305386 Si02
#       5
#     8   8   8   8   8
#     4  10  22  43  64  88 124 167 212 263 314 374
#     4   9  21  41  65  91 125 168 210 254 316 384
#     4  10  23  42  63  91 130 168 207 260 323 382
#     4  11  23  41  66  92 128 167 211 266 321 380
#     4  12  25  39  64  96 126 162 213 265 317 378
#
# _framework density 22.447890999999998
#
# number of rings (size 3 to 8) (size 9 to 14) (size 15 to 20)
#    0.000    1.600    0.000    5.400    0.000   13.600 
#    0.000    0.000    0.000    0.000    0.000    0.000 
#    0.000    0.000    0.000    0.000    0.000    0.000 
#
# Total GULP energy -496228.537187 kJ/mol
# GULP energy per Si atom -12405.713430 kJ/mol
# Density = 2.239680 g / cm^3
# Si number density = 22.447891 Si / 1000 Ang^3
#
#
#
# Elastic Constant Matrix: (Units=GPa)
#
#
# Indices 1 2 3 4 5 6 
#
# 1 66.9259 31.2213 52.1194 0.0000 0.0000 0.0000
# 2 31.2213 66.9260 52.1194 0.0000 0.0000 0.0000
# 3 52.1194 52.1194 161.4462 0.0000 0.0000 0.0000
# 4 0.0000 0.0000 0.0000 40.2267 0.0000 0.0000
# 5 0.0000 0.0000 0.0000 0.0000 40.2268 0.0000
# 6 0.0000 0.0000 0.0000 0.0000 0.0000 17.4382
#
#
#
# Elastic Compliance Matrix: (Units=1/GPa)
#
#
# Indices 1 2 3 4 5 6 
#
# 1 0.021756 -0.006251 -0.005005 0.000000 0.000000 0.000000
# 2 -0.006251 0.021756 -0.005005 0.000000 0.000000 0.000000
# 3 -0.005005 -0.005005 0.009426 0.000000 0.000000 0.000000
# 4 0.000000 0.000000 0.000000 0.024859 0.000000 0.000000
# 5 0.000000 0.000000 0.000000 0.000000 0.024859 0.000000
# 6 0.000000 0.000000 0.000000 0.000000 0.000000 0.057345
#
#
# Mechanical properties :
#
#
# Convention : Reuss Voigt Hill
#
# Bulk Modulus (GPa) = 48.98634 62.91315 55.94974
# Shear Modulus (GPa) = 25.08396 30.23421 27.65909
#
# Velocity S-wave (km/s) = 3.34643 3.67394 3.51400
# Velocity P-wave (km/s) = 6.06639 6.78854 6.43760
#
# Compressibility (1/GPa) = 0.02041385
#
# Stress axis : x y z
#
# Youngs Moduli (GPa) = 45.96389 45.96398 106.09193
#
# Poissons Ratio (x) = 0.28734 0.53103
# Poissons Ratio (y) = 0.28734 0.53103
# Poissons Ratio (z) = 0.23007 0.23007
#
# Static dielectric constant tensor:
#      x y z
#    x 3.793470 0.000000 0.000000 
#    y 0.000000 3.793470 0.000000 
#    z 0.000000 0.000000 4.250890 
# 
# 
# High freq. dielectric constant tensor:
#      x y z
#    x 1.873270 0.000000 0.000000 
#    y 0.000000 1.873270 0.000000 
#    z 0.000000 0.000000 1.902490 
# 
# From -- ./inp_files/3760.got.cif
#   From: 2010.03.12/outbox.cif.g09.slc.cpg/sg92_2_cif.got.tgz:3760.got - 2010.04.08 20:41:11.
