data_PCOD8305175
_publ_section_title
;
Structure prediction by ZEFSAII (Michael W. Deem and Ramdas Pophale) SiO2 
 PCOD8305175
Probable space group: P 41 2 2
;
_chemical_formula_sum "Si O2"
_cell_formula_units_Z 60
_cell_length_a 11.479795
_cell_length_b 11.479795
_cell_length_c 19.936808
_cell_angle_alpha 90.000000
_cell_angle_beta 90.000000
_cell_angle_gamma 90.000000
_cell_volume 2627.386063
_symmetry_space_group_name_H-M "P 41 2 2"
_symmetry_group_IT_number 91
_symmetry_cell_setting 'tetragonal'
loop_
_space_group_symop_operation_xyz
x,y,z
-y,x,1/4+z
-x,-y,1/2+z
y,-x,3/4+z
x,-y,1/2-z
-x,y,-z
y,x,3/4-z
-y,-x,1/4-z
loop_
_atom_site_type_symbol
_atom_site_label
_atom_site_fract_x
_atom_site_fract_y
_atom_site_fract_z
Si Si1 0.443060 0.799395 0.313425
Si Si2 0.073448 0.000000 0.250000
Si Si3 0.090819 0.792637 0.772351
Si Si4 0.698788 0.053106 0.318674
Si Si5 0.716088 0.006289 0.655471
Si Si6 0.666009 0.840289 0.396336
Si Si7 0.459531 0.400119 0.577293
Si Si8 0.480534 0.812785 0.163913
O O1 0.532193 0.841729 0.371822
O O2 0.381073 0.678840 0.333517
O O3 0.505098 0.775894 0.241531
O O4 0.346069 0.899664 0.305373
O O5 0.154656 0.022394 0.314603
O O6 0.991119 0.111795 0.236244
O O7 0.198178 0.856185 0.808592
O O8 0.139689 0.689375 0.724982
O O9 0.017911 0.723809 0.827102
O O10 0.589918 0.108501 0.358443
O O11 0.648623 0.000000 0.250000
O O12 0.742203 0.942271 0.361119
O O13 0.643044 0.123903 0.661519
O O14 0.715406 0.715406 0.375000
O O15 0.500000 0.415747 0.500000
O O16 0.489468 0.510533 0.625000
O O17 0.526675 0.292687 0.611735
#
# Coordination Sequence:
#
# PCOD8305175 Si02
#       8
#     8   4   8   8   8   8   8   8
#     4  12  24  48  73 103 143 194 246 301 367 440
#     4  12  24  48  72 106 154 196 240 308 376 456
#     4  12  26  42  69 115 147 184 246 307 370 443
#     4  12  21  43  72 100 143 196 233 286 370 451
#     4  12  26  46  74 104 145 198 246 303 372 448
#     4  12  23  41  72 104 143 186 239 300 365 439
#     4  12  28  50  78 108 147 193 253 315 373 439
#     4  12  24  48  77 102 144 195 249 292 368 449
#
# _framework density 22.836383999999999
#
# number of rings (size 3 to 8) (size 9 to 14) (size 15 to 20)
#    0.000    0.000    7.333    2.400    0.000    3.733 
#    2.400    0.000    0.000    0.000    0.000    0.000 
#    0.000    0.000    0.000    0.000    0.000    0.000 
#
# Total GULP energy -744045.658181 kJ/mol
# GULP energy per Si atom -12400.760970 kJ/mol
# Density = 2.278441 g / cm^3
# Si number density = 22.836384 Si / 1000 Ang^3
#
#
#
# Elastic Constant Matrix: (Units=GPa)
#
#
# Indices 1 2 3 4 5 6 
#
# 1 93.5646 14.2302 20.1652 0.0000 0.0000 0.0000
# 2 14.2302 93.5639 20.1650 0.0000 0.0000 0.0000
# 3 20.1652 20.1650 109.0347 0.0000 0.0000 0.0000
# 4 0.0000 0.0000 0.0000 31.4125 0.0000 0.0000
# 5 0.0000 0.0000 0.0000 0.0000 31.4127 0.0000
# 6 0.0000 0.0000 0.0000 0.0000 0.0000 23.2449
#
#
#
# Elastic Compliance Matrix: (Units=1/GPa)
#
#
# Indices 1 2 3 4 5 6 
#
# 1 0.011286 -0.001319 -0.001843 0.000000 0.000000 0.000000
# 2 -0.001319 0.011286 -0.001843 0.000000 0.000000 0.000000
# 3 -0.001843 -0.001843 0.009853 0.000000 0.000000 0.000000
# 4 0.000000 0.000000 0.000000 0.031834 0.000000 0.000000
# 5 0.000000 0.000000 0.000000 0.000000 0.031834 0.000000
# 6 0.000000 0.000000 0.000000 0.000000 0.000000 0.043020
#
#
# Mechanical properties :
#
#
# Convention : Reuss Voigt Hill
#
# Bulk Modulus (GPa) = 44.61631 45.03155 44.82393
# Shear Modulus (GPa) = 31.92930 33.32088 32.62509
#
# Velocity S-wave (km/s) = 3.74328 3.82398 3.78384
# Velocity P-wave (km/s) = 6.18568 6.26571 6.22582
#
# Compressibility (1/GPa) = 0.02241333
#
# Stress axis : x y z
#
# Youngs Moduli (GPa) = 88.60776 88.60712 101.49011
#
# Poissons Ratio (x) = 0.11689 0.18707
# Poissons Ratio (y) = 0.11689 0.18707
# Poissons Ratio (z) = 0.16333 0.16332
#
# Static dielectric constant tensor:
#      x y z
#    x 4.047600 0.000000 0.000000 
#    y 0.000000 4.047610 0.000000 
#    z 0.000000 0.000000 4.200290 
# 
# 
# High freq. dielectric constant tensor:
#      x y z
#    x 1.902950 0.000000 0.000000 
#    y 0.000000 1.902950 0.000000 
#    z 0.000000 0.000000 1.900080 
# 
# From -- ./inp_files/12508.got.cif
#   From: 2010.03.12/outbox.cif.g09.slc.cpg/sg91_7_cif.got.tgz:12508.got - 2010.04.08 20:27:58.
