data_PCOD8305507
_publ_section_title
;
Structure prediction by ZEFSAII (Michael W. Deem and Ramdas Pophale) SiO2 
 PCOD8305507
Probable space group: P 41 21 2
;
_chemical_formula_sum "Si O2"
_cell_formula_units_Z 64
_cell_length_a 14.131264
_cell_length_b 14.131264
_cell_length_c 19.424570
_cell_angle_alpha 90.000000
_cell_angle_beta 90.000000
_cell_angle_gamma 90.000000
_cell_volume 3878.943319
_symmetry_space_group_name_H-M "P 41 21 2"
_symmetry_group_IT_number 92
_symmetry_cell_setting 'tetragonal'
loop_
_space_group_symop_operation_xyz
x,y,z
1/2-y,1/2+x,1/4+z
-x,-y,1/2+z
1/2+y,1/2-x,3/4+z
1/2+x,1/2-y,3/4-z
1/2-x,1/2+y,1/4-z
y,x,-z
-y,-x,1/2-z
loop_
_atom_site_type_symbol
_atom_site_label
_atom_site_fract_x
_atom_site_fract_y
_atom_site_fract_z
Si Si1 0.877769 0.488292 0.980926
Si Si2 0.470996 0.146871 0.668535
Si Si3 0.046149 0.960185 0.563149
Si Si4 0.285654 0.664090 0.467970
Si Si5 0.974305 0.904918 0.794110
Si Si6 0.309696 0.615293 0.319058
Si Si7 0.133763 0.746887 0.796018
Si Si8 0.310536 0.298235 0.684990
O O1 0.959090 0.432203 0.022201
O O2 0.851128 0.585032 0.021867
O O3 0.909492 0.514797 0.903386
O O4 0.788835 0.420172 0.972429
O O5 0.560695 0.210507 0.689244
O O6 0.379487 0.214196 0.659185
O O7 0.131397 0.890515 0.542782
O O8 0.955074 0.897106 0.580970
O O9 0.068467 0.030989 0.625690
O O10 0.029252 0.029252 0.500000
O O11 0.372964 0.627817 0.514992
O O12 0.310115 0.681258 0.387460
O O13 0.248488 0.762774 0.499048
O O14 0.054409 0.826059 0.786587
O O15 0.003823 0.996178 0.750000
O O16 0.322928 0.677073 0.250000
O O17 0.224478 0.775523 0.750000
O O18 0.171650 0.739200 0.874056
#
# Coordination Sequence:
#
# PCOD8305507 Si02
#       8
#     8   8   8   8   8   8   8   8
#     4   9  16  26  45  66  88 113 149 185 222 258
#     4   9  16  27  44  69  88 110 149 192 218 260
#     4   9  16  26  43  66  89 117 150 186 224 263
#     4   9  16  26  43  69  89 114 146 186 224 262
#     4   9  14  24  42  64  91 114 143 181 219 262
#     4   9  16  27  45  68  87 111 154 192 222 254
#     4   9  14  24  43  64  88 116 142 175 217 265
#     4   9  16  26  43  66  90 115 147 183 222 266
#
# _framework density 16.499338999999999
#
# number of rings (size 3 to 8) (size 9 to 14) (size 15 to 20)
#    0.000    3.000    2.500    0.000    0.000    0.000 
#    0.000    0.625    5.500    0.750    3.250    0.000 
#    0.000    0.000    0.000    0.000    0.000    0.000 
#
# Total GULP energy -793118.672093 kJ/mol
# GULP energy per Si atom -12392.479251 kJ/mol
# Density = 1.646179 g / cm^3
# Si number density = 16.499339 Si / 1000 Ang^3
#
#
#
# Elastic Constant Matrix: (Units=GPa)
#
#
# Indices 1 2 3 4 5 6 
#
# 1 42.7361 28.3864 56.5347 0.0000 0.0000 0.0000
# 2 28.3864 42.7359 56.5349 0.0000 0.0000 0.0000
# 3 56.5347 56.5349 165.3924 0.0000 0.0000 0.0000
# 4 0.0000 0.0000 0.0000 23.8842 0.0000 0.0000
# 5 0.0000 0.0000 0.0000 0.0000 23.8843 0.0000
# 6 0.0000 0.0000 0.0000 0.0000 0.0000 17.6703
#
#
#
# Elastic Compliance Matrix: (Units=1/GPa)
#
#
# Indices 1 2 3 4 5 6 
#
# 1 0.050241 -0.019447 -0.010526 0.000000 0.000000 0.000000
# 2 -0.019447 0.050242 -0.010527 0.000000 0.000000 0.000000
# 3 -0.010526 -0.010527 0.013243 0.000000 0.000000 0.000000
# 4 0.000000 0.000000 0.000000 0.041869 0.000000 0.000000
# 5 0.000000 0.000000 0.000000 0.000000 0.041869 0.000000
# 6 0.000000 0.000000 0.000000 0.000000 0.000000 0.056592
#
#
# Mechanical properties :
#
#
# Convention : Reuss Voigt Hill
#
# Bulk Modulus (GPa) = 30.55582 59.30848 44.93215
# Shear Modulus (GPa) = 14.45240 20.38166 17.41703
#
# Velocity S-wave (km/s) = 2.96284 3.51850 3.25256
# Velocity P-wave (km/s) = 5.50129 7.24779 6.43407
#
# Compressibility (1/GPa) = 0.03272699
#
# Stress axis : x y z
#
# Youngs Moduli (GPa) = 19.90388 19.90371 75.51403
#
# Poissons Ratio (x) = 0.38706 0.79489
# Poissons Ratio (y) = 0.38706 0.79490
# Poissons Ratio (z) = 0.20952 0.20952
#
# Static dielectric constant tensor:
#      x y z
#    x 2.858360 0.000000 0.000000 
#    y 0.000000 2.858360 0.000000 
#    z 0.000000 0.000000 3.288170 
# 
# 
# High freq. dielectric constant tensor:
#      x y z
#    x 1.595600 0.000000 0.000000 
#    y 0.000000 1.595600 0.000000 
#    z 0.000000 0.000000 1.646640 
# 
# From -- ./inp_files/3242.got.cif
#   From: 2010.03.12/outbox.cif.g09.slc.cpg/sg92_2_cif.got.tgz:3242.got - 2010.04.08 20:41:11.
