data_PCOD8305990
_publ_section_title
;
Structure prediction by ZEFSAII (Michael W. Deem and Ramdas Pophale) SiO2 
 PCOD8305990
Probable space group: P 43 21 2
;
_chemical_formula_sum "Si O2"
_cell_formula_units_Z 44
_cell_length_a 7.937590
_cell_length_b 7.937590
_cell_length_c 26.715932
_cell_angle_alpha 90.000000
_cell_angle_beta 90.000000
_cell_angle_gamma 90.000000
_cell_volume 1683.246246
_symmetry_space_group_name_H-M "P 43 21 2"
_symmetry_group_IT_number 96
_symmetry_cell_setting 'tetragonal'
loop_
_space_group_symop_operation_xyz
x,y,z
1/2-y,1/2+x,3/4+z
-x,-y,1/2+z
1/2+y,1/2-x,1/4+z
1/2+x,1/2-y,1/4-z
1/2-x,1/2+y,3/4-z
y,x,-z
-y,-x,1/2-z
loop_
_atom_site_type_symbol
_atom_site_label
_atom_site_fract_x
_atom_site_fract_y
_atom_site_fract_z
Si Si1 0.872128 0.594243 0.176557
Si Si2 0.802235 0.271082 0.655912
Si Si3 0.949575 0.972288 0.306704
Si Si4 0.263558 0.850659 0.966875
Si Si5 0.287356 0.746829 0.690582
Si Si6 0.382533 0.617468 0.250000
O O1 0.789656 0.752792 0.147158
O O2 0.887111 0.635545 0.235359
O O3 0.760465 0.430281 0.165045
O O4 0.066948 0.571170 0.157658
O O5 0.667221 0.275280 0.701042
O O6 0.921946 0.109266 0.661500
O O7 0.808178 0.822651 0.311839
O O8 0.881725 0.150539 0.329411
O O9 0.002174 0.997827 0.250000
O O10 0.076388 0.846988 0.988788
O O11 0.289860 0.014835 0.930328
O O12 0.268142 0.731859 0.750000
#
# Coordination Sequence:
#
# PCOD8305990 Si02
#       6
#     8   8   8   8   8   4
#     4  11  22  44  61  99 134 172 227 287 343 414
#     4  12  25  42  67  98 137 177 229 285 350 419
#     4  11  22  43  68 100 131 176 235 286 343 427
#     4  11  21  43  74  96 133 180 233 284 354 420
#     4   9  21  42  68  94 130 177 222 283 348 413
#     4  12  22  42  70  98 128 188 230 276 350 438
#
# _framework density 26.139963999999999
#
# number of rings (size 3 to 8) (size 9 to 14) (size 15 to 20)
#    0.000    1.091    5.455    2.182    0.000    2.909 
#    6.545    0.000    0.000    0.000    0.000    0.000 
#    0.000    0.000    0.000    0.000    0.000    0.000 
#
# Total GULP energy -545417.148302 kJ/mol
# GULP energy per Si atom -12395.844280 kJ/mol
# Density = 2.608047 g / cm^3
# Si number density = 26.139964 Si / 1000 Ang^3
#
#
#
# Elastic Constant Matrix: (Units=GPa)
#
#
# Indices 1 2 3 4 5 6 
#
# 1 118.8787 65.1756 7.6127 0.0000 0.0000 0.0000
# 2 65.1756 118.8780 7.6126 0.0000 0.0000 0.0000
# 3 7.6127 7.6126 22.7283 0.0000 0.0000 0.0000
# 4 0.0000 0.0000 0.0000 24.4274 0.0000 0.0000
# 5 0.0000 0.0000 0.0000 0.0000 24.4272 0.0000
# 6 0.0000 0.0000 0.0000 0.0000 0.0000 48.4651
#
#
#
# Elastic Compliance Matrix: (Units=1/GPa)
#
#
# Indices 1 2 3 4 5 6 
#
# 1 0.012104 -0.006517 -0.001872 0.000000 0.000000 0.000000
# 2 -0.006517 0.012105 -0.001872 0.000000 0.000000 0.000000
# 3 -0.001872 -0.001872 0.045252 0.000000 0.000000 0.000000
# 4 0.000000 0.000000 0.000000 0.040938 0.000000 0.000000
# 5 0.000000 0.000000 0.000000 0.000000 0.040938 0.000000
# 6 0.000000 0.000000 0.000000 0.000000 0.000000 0.020633
#
#
# Mechanical properties :
#
#
# Convention : Reuss Voigt Hill
#
# Bulk Modulus (GPa) = 20.43267 46.80964 33.62115
# Shear Modulus (GPa) = 23.94599 31.46954 27.70776
#
# Velocity S-wave (km/s) = 3.02995 3.47347 3.25926
# Velocity P-wave (km/s) = 4.48044 5.83377 5.20131
#
# Compressibility (1/GPa) = 0.04894123
#
# Stress axis : x y z
#
# Youngs Moduli (GPa) = 82.61400 82.61353 22.09856
#
# Poissons Ratio (x) = 0.53835 0.04136
# Poissons Ratio (y) = 0.53835 0.04136
# Poissons Ratio (z) = 0.15463 0.15462
#
# Static dielectric constant tensor:
#      x y z
#    x 5.150350 0.000000 0.000000 
#    y 0.000000 5.150360 0.000000 
#    z 0.000000 0.000000 4.392110 
# 
# 
# High freq. dielectric constant tensor:
#      x y z
#    x 2.052060 0.000000 0.000000 
#    y 0.000000 2.052060 0.000000 
#    z 0.000000 0.000000 2.024830 
# 
# From -- ./inp_files/4422.got.cif
#   From: 2010.03.12/outbox.cif.g09.slc.cpg/sg96_3_cif.got.tgz:4422.got - 2010.04.08 20:56:49.
