data_PCOD8305205
_publ_section_title
;
Structure prediction by ZEFSAII (Michael W. Deem and Ramdas Pophale) SiO2 
 PCOD8305205
Probable space group: P 41 21 2
;
_chemical_formula_sum "Si O2"
_cell_formula_units_Z 64
_cell_length_a 20.117753
_cell_length_b 20.117753
_cell_length_c 9.921815
_cell_angle_alpha 90.000000
_cell_angle_beta 90.000000
_cell_angle_gamma 90.000000
_cell_volume 4015.596513
_symmetry_space_group_name_H-M "P 41 21 2"
_symmetry_group_IT_number 92
_symmetry_cell_setting 'tetragonal'
loop_
_space_group_symop_operation_xyz
x,y,z
1/2-y,1/2+x,1/4+z
-x,-y,1/2+z
1/2+y,1/2-x,3/4+z
1/2+x,1/2-y,3/4-z
1/2-x,1/2+y,1/4-z
y,x,-z
-y,-x,1/2-z
loop_
_atom_site_type_symbol
_atom_site_label
_atom_site_fract_x
_atom_site_fract_y
_atom_site_fract_z
Si Si1 0.269676 0.846044 0.906813
Si Si2 0.322020 0.567483 0.760809
Si Si3 0.824066 0.075339 0.909940
Si Si4 0.627353 0.255755 0.481508
Si Si5 0.567522 0.686753 0.346589
Si Si6 0.744210 0.360534 0.488815
Si Si7 0.345201 0.237310 0.351807
Si Si8 0.581294 0.307961 0.754610
O O1 0.274098 0.873556 0.753143
O O2 0.214523 0.789333 0.903361
O O3 0.341353 0.817600 0.956932
O O4 0.249117 0.903510 0.012265
O O5 0.385456 0.614545 0.750000
O O6 0.349881 0.493737 0.779169
O O7 0.274504 0.574225 0.632168
O O8 0.275047 0.581020 0.887891
O O9 0.798313 0.069190 0.756204
O O10 0.887236 0.122581 0.928950
O O11 0.761592 0.097738 0.000661
O O12 0.689820 0.303767 0.472867
O O13 0.586729 0.265018 0.619039
O O14 0.493772 0.671574 0.291668
O O15 0.817006 0.332600 0.453902
O O16 0.743898 0.389384 0.638308
O O17 0.623830 0.376171 0.750000
#
# Coordination Sequence:
#
# PCOD8305205 Si02
#       8
#     8   8   8   8   8   8   8   8
#     4   9  17  31  47  68  94 119 153 200 250 289
#     4  10  18  32  50  68  92 128 168 203 231 271
#     4  10  21  33  47  67  97 136 166 193 235 285
#     4   9  18  29  49  71  88 118 159 205 249 281
#     4  10  21  34  45  66 102 134 162 196 234 286
#     4   9  16  31  49  67  90 119 159 205 245 276
#     4   9  17  30  49  68  90 121 157 198 246 291
#     4  10  20  32  48  69  97 130 165 199 235 280
#
# _framework density 15.937856999999999
#
# number of rings (size 3 to 8) (size 9 to 14) (size 15 to 20)
#    0.000    2.500    2.500    0.000    3.500    0.500 
#    0.000    0.000    0.000    0.000    0.000    0.000 
#    0.000    6.000    0.000    0.000    0.000    0.000 
#
# Total GULP energy -793208.375352 kJ/mol
# GULP energy per Si atom -12393.880865 kJ/mol
# Density = 1.590158 g / cm^3
# Si number density = 15.937857 Si / 1000 Ang^3
#
#
#
# Elastic Constant Matrix: (Units=GPa)
#
#
# Indices 1 2 3 4 5 6 
#
# 1 58.9921 51.7972 48.7454 0.0000 0.0000 0.0000
# 2 51.7972 58.9925 48.7459 0.0000 0.0000 0.0000
# 3 48.7454 48.7459 133.4822 0.0000 0.0000 0.0000
# 4 0.0000 0.0000 0.0000 21.1753 0.0000 0.0000
# 5 0.0000 0.0000 0.0000 0.0000 21.1756 0.0000
# 6 0.0000 0.0000 0.0000 0.0000 0.0000 14.2209
#
#
#
# Elastic Compliance Matrix: (Units=1/GPa)
#
#
# Indices 1 2 3 4 5 6 
#
# 1 0.076142 -0.062841 -0.004857 0.000000 0.000000 0.000000
# 2 -0.062841 0.076142 -0.004857 0.000000 0.000000 0.000000
# 3 -0.004857 -0.004857 0.011039 0.000000 0.000000 0.000000
# 4 0.000000 0.000000 0.000000 0.047225 0.000000 0.000000
# 5 0.000000 0.000000 0.000000 0.000000 0.047224 0.000000
# 6 0.000000 0.000000 0.000000 0.000000 0.000000 0.070319
#
#
# Mechanical properties :
#
#
# Convention : Reuss Voigt Hill
#
# Bulk Modulus (GPa) = 54.91094 61.11595 58.01345
# Shear Modulus (GPa) = 10.43249 18.12625 14.27937
#
# Velocity S-wave (km/s) = 2.56124 3.37606 2.99647
# Velocity P-wave (km/s) = 6.57834 7.32302 6.96065
#
# Compressibility (1/GPa) = 0.01821131
#
# Stress axis : x y z
#
# Youngs Moduli (GPa) = 13.13342 13.13342 90.58748
#
# Poissons Ratio (x) = 0.82532 0.43996
# Poissons Ratio (y) = 0.82532 0.44001
# Poissons Ratio (z) = 0.06379 0.06379
#
# Static dielectric constant tensor:
#      x y z
#    x 2.849620 0.000000 0.000000 
#    y 0.000000 2.849630 0.000000 
#    z 0.000000 0.000000 3.341050 
# 
# 
# High freq. dielectric constant tensor:
#      x y z
#    x 1.581740 0.000000 0.000000 
#    y 0.000000 1.581740 0.000000 
#    z 0.000000 0.000000 1.635410 
# 
# From -- ./inp_files/1742.got.cif
#   From: 2010.03.12/outbox.cif.g09.slc.cpg/sg92_1_cif.got.tgz:1742.got - 2010.04.08 20:41:11.
