data_PCOD8305665
_publ_section_title
;
Structure prediction by ZEFSAII (Michael W. Deem and Ramdas Pophale) SiO2 
 PCOD8305665
Probable space group: P 42 21 2
;
_chemical_formula_sum "Si O2"
_cell_formula_units_Z 64
_cell_length_a 12.786989
_cell_length_b 12.786989
_cell_length_c 21.478969
_cell_angle_alpha 90.000000
_cell_angle_beta 90.000000
_cell_angle_gamma 90.000000
_cell_volume 3511.963668
_symmetry_space_group_name_H-M "P 42 21 2"
_symmetry_group_IT_number 94
_symmetry_cell_setting 'tetragonal'
loop_
_space_group_symop_operation_xyz
x,y,z
1/2-y,1/2+x,1/2+z
-x,-y,z
1/2+y,1/2-x,1/2+z
1/2+x,1/2-y,1/2-z
1/2-x,1/2+y,1/2-z
y,x,-z
-y,-x,-z
loop_
_atom_site_type_symbol
_atom_site_label
_atom_site_fract_x
_atom_site_fract_y
_atom_site_fract_z
Si Si1 0.888262 0.047241 0.066202
Si Si2 0.385776 0.046102 0.925055
Si Si3 0.276854 0.128876 0.039511
Si Si4 0.112895 0.703482 0.683509
Si Si5 0.900906 0.237106 0.148199
Si Si6 0.251028 0.554069 0.759354
Si Si7 0.750832 0.880857 0.279437
Si Si8 0.292001 0.859455 0.667270
O O1 0.856211 0.130432 0.118872
O O2 0.804717 0.954521 0.066450
O O3 0.894637 0.105364 0.000000
O O4 0.000000 0.000000 0.084120
O O5 0.376156 0.149495 0.883417
O O6 0.500000 0.000000 0.917119
O O7 0.300853 0.960927 0.904994
O O8 0.363227 0.074240 0.996366
O O9 0.341596 0.179385 0.095726
O O10 0.216163 0.216163 0.000000
O O11 0.151911 0.623159 0.736878
O O12 0.181023 0.807885 0.683607
O O13 0.996544 0.740495 0.695326
O O14 0.802998 0.302410 0.172219
O O15 0.978648 0.210305 0.204395
O O16 0.348955 0.627564 0.776229
O O17 0.215413 0.483674 0.818381
O O18 0.695384 0.877445 0.211953
#
# Coordination Sequence:
#
# PCOD8305665 Si02
#       8
#     8   8   8   8   8   8   8   8
#     4  11  21  34  57  88 118 152 185 244 307 354
#     4  11  20  36  62  87 108 160 204 232 280 364
#     4  12  22  39  61  87 121 155 201 244 298 361
#     4  10  20  38  65  84 114 157 202 237 295 358
#     4  10  20  38  57  83 121 150 194 243 291 360
#     4   9  22  39  57  88 118 150 200 246 296 351
#     4  10  21  39  62  84 116 159 195 245 299 351
#     4  10  23  39  58  89 120 153 194 254 297 347
#
# _framework density 18.223424000000001
#
# number of rings (size 3 to 8) (size 9 to 14) (size 15 to 20)
#    0.000    1.625    5.000    0.000    3.500    3.500 
#    4.500    0.000    0.000    0.000    0.000    0.000 
#    0.000    0.000    0.000    0.000    0.000    0.000 
#
# Total GULP energy -793751.239276 kJ/mol
# GULP energy per Si atom -12402.363114 kJ/mol
# Density = 1.818195 g / cm^3
# Si number density = 18.223424 Si / 1000 Ang^3
#
#
#
# Elastic Constant Matrix: (Units=GPa)
#
#
# Indices 1 2 3 4 5 6 
#
# 1 86.1871 36.8320 40.8204 0.0000 0.0000 0.0000
# 2 36.8320 86.1871 40.8203 0.0000 0.0000 0.0000
# 3 40.8204 40.8203 103.9974 0.0000 0.0000 0.0000
# 4 0.0000 0.0000 0.0000 37.2448 0.0000 0.0000
# 5 0.0000 0.0000 0.0000 0.0000 37.2451 0.0000
# 6 0.0000 0.0000 0.0000 0.0000 0.0000 24.5103
#
#
#
# Elastic Compliance Matrix: (Units=1/GPa)
#
#
# Indices 1 2 3 4 5 6 
#
# 1 0.015627 -0.004635 -0.004315 0.000000 0.000000 0.000000
# 2 -0.004635 0.015627 -0.004315 0.000000 0.000000 0.000000
# 3 -0.004315 -0.004315 0.013003 0.000000 0.000000 0.000000
# 4 0.000000 0.000000 0.000000 0.026849 0.000000 0.000000
# 5 0.000000 0.000000 0.000000 0.000000 0.026849 0.000000
# 6 0.000000 0.000000 0.000000 0.000000 0.000000 0.040799
#
#
# Mechanical properties :
#
#
# Convention : Reuss Voigt Hill
#
# Bulk Modulus (GPa) = 56.40567 57.03522 56.72045
# Shear Modulus (GPa) = 29.20715 30.32662 29.76688
#
# Velocity S-wave (km/s) = 4.00775 4.08383 4.04597
# Velocity P-wave (km/s) = 7.24124 7.32138 7.28142
#
# Compressibility (1/GPa) = 0.01772871
#
# Stress axis : x y z
#
# Youngs Moduli (GPa) = 63.99286 63.99288 76.90721
#
# Poissons Ratio (x) = 0.29658 0.33182
# Poissons Ratio (y) = 0.29658 0.33182
# Poissons Ratio (z) = 0.27610 0.27610
#
# Static dielectric constant tensor:
#      x y z
#    x 3.332710 0.000000 0.000000 
#    y 0.000000 3.332700 0.000000 
#    z 0.000000 0.000000 3.411990 
# 
# 
# High freq. dielectric constant tensor:
#      x y z
#    x 1.702600 0.000000 0.000000 
#    y 0.000000 1.702600 0.000000 
#    z 0.000000 0.000000 1.703780 
# 
# From -- ./inp_files/5178.got.cif
#   From: 2010.03.12/outbox.cif.g09.slc.cpg/sg94_3_cif.got.tgz:5178.got - 2010.04.08 20:48:32.
