data_PCOD8305705
_publ_section_title
;
Structure prediction by ZEFSAII (Michael W. Deem and Ramdas Pophale) SiO2 
 PCOD8305705
Probable space group: P 42 21 2
;
_chemical_formula_sum "Si O2"
_cell_formula_units_Z 48
_cell_length_a 9.238224
_cell_length_b 9.238224
_cell_length_c 28.632441
_cell_angle_alpha 90.000000
_cell_angle_beta 90.000000
_cell_angle_gamma 90.000000
_cell_volume 2443.629455
_symmetry_space_group_name_H-M "P 42 21 2"
_symmetry_group_IT_number 94
_symmetry_cell_setting 'tetragonal'
loop_
_space_group_symop_operation_xyz
x,y,z
1/2-y,1/2+x,1/2+z
-x,-y,z
1/2+y,1/2-x,1/2+z
1/2+x,1/2-y,1/2-z
1/2-x,1/2+y,1/2-z
y,x,-z
-y,-x,-z
loop_
_atom_site_type_symbol
_atom_site_label
_atom_site_fract_x
_atom_site_fract_y
_atom_site_fract_z
Si Si1 0.480888 0.834967 0.732498
Si Si2 0.098762 0.867292 0.171940
Si Si3 0.325346 0.674654 0.000000
Si Si4 0.846590 0.323131 0.087814
Si Si5 0.648682 0.818990 0.908451
Si Si6 0.787101 0.323263 0.695984
Si Si7 0.661886 0.661886 0.000000
O O1 0.580557 0.731819 0.701992
O O2 0.315133 0.781627 0.727275
O O3 0.547311 0.817024 0.785055
O O4 0.500000 0.000000 0.715318
O O5 0.177961 0.785217 0.130170
O O6 0.991932 0.761317 0.201439
O O7 0.000000 0.000000 0.153241
O O8 0.239479 0.740214 0.043794
O O9 0.494956 0.702410 0.005817
O O10 0.779918 0.480509 0.099158
O O11 0.015609 0.333460 0.077052
O O12 0.724593 0.780652 0.858897
O O13 0.719972 0.732394 0.951745
#
# Coordination Sequence:
#
# PCOD8305705 Si02
#       7
#     8   8   4   8   8   8   4
#     4  11  23  37  59  86 115 153 195 245 288 339
#     4   9  20  39  55  80 120 152 189 241 288 348
#     4   9  18  34  55  84 108 142 187 236 288 327
#     4   9  18  35  58  82 107 153 189 224 286 356
#     4   9  19  35  60  82 110 152 193 225 294 351
#     4  10  22  38  61  85 116 157 194 239 294 348
#     4   9  18  36  58  79 116 140 184 247 280 344
#
# _framework density 19.642914000000001
#
# number of rings (size 3 to 8) (size 9 to 14) (size 15 to 20)
#    0.000    2.500    0.000    1.000    7.000    1.333 
#    9.000    0.000   11.000    0.000    0.000    0.000 
#    0.000    0.000    0.000    0.000    0.000    0.000 
#
# Total GULP energy -594914.677465 kJ/mol
# GULP energy per Si atom -12394.055781 kJ/mol
# Density = 1.959821 g / cm^3
# Si number density = 19.642914 Si / 1000 Ang^3
#
#
#
# Elastic Constant Matrix: (Units=GPa)
#
#
# Indices 1 2 3 4 5 6 
#
# 1 62.5576 23.2209 46.7512 0.0000 0.0000 0.0000
# 2 23.2209 62.5571 46.7512 0.0000 0.0000 0.0000
# 3 46.7512 46.7512 114.3356 0.0000 0.0000 0.0000
# 4 0.0000 0.0000 0.0000 33.9312 0.0000 0.0000
# 5 0.0000 0.0000 0.0000 0.0000 33.9311 0.0000
# 6 0.0000 0.0000 0.0000 0.0000 0.0000 24.5221
#
#
#
# Elastic Compliance Matrix: (Units=1/GPa)
#
#
# Indices 1 2 3 4 5 6 
#
# 1 0.023227 -0.002195 -0.008600 0.000000 0.000000 0.000000
# 2 -0.002195 0.023227 -0.008600 0.000000 0.000000 0.000000
# 3 -0.008600 -0.008600 0.015779 0.000000 0.000000 0.000000
# 4 0.000000 0.000000 0.000000 0.029471 0.000000 0.000000
# 5 0.000000 0.000000 0.000000 0.000000 0.029471 0.000000
# 6 0.000000 0.000000 0.000000 0.000000 0.000000 0.040779
#
#
# Mechanical properties :
#
#
# Convention : Reuss Voigt Hill
#
# Bulk Modulus (GPa) = 42.65504 52.54410 47.59957
# Shear Modulus (GPa) = 23.97394 26.65870 25.31632
#
# Velocity S-wave (km/s) = 3.49734 3.68797 3.59392
# Velocity P-wave (km/s) = 6.17016 6.70392 6.44257
#
# Compressibility (1/GPa) = 0.02344389
#
# Stress axis : x y z
#
# Youngs Moduli (GPa) = 43.05345 43.05298 63.37448
#
# Poissons Ratio (x) = 0.09448 0.54502
# Poissons Ratio (y) = 0.09449 0.54503
# Poissons Ratio (z) = 0.37026 0.37026
#
# Static dielectric constant tensor:
#      x y z
#    x 3.627250 0.000000 0.000000 
#    y 0.000000 3.627260 0.000000 
#    z 0.000000 0.000000 3.647960 
# 
# 
# High freq. dielectric constant tensor:
#      x y z
#    x 1.760190 0.000000 0.000000 
#    y 0.000000 1.760190 0.000000 
#    z 0.000000 0.000000 1.762360 
# 
# From -- ./inp_files/5633.got.cif
#   From: 2010.03.12/outbox.cif.g09.slc.cpg/sg94_3_cif.got.tgz:5633.got - 2010.04.08 20:48:32.
