data_PCOD8305957
_publ_section_title
;
Structure prediction by ZEFSAII (Michael W. Deem and Ramdas Pophale) SiO2 
 PCOD8305957
Probable space group: P 43 21 2
;
_chemical_formula_sum "Si O2"
_cell_formula_units_Z 48
_cell_length_a 8.819005
_cell_length_b 8.819005
_cell_length_c 30.272939
_cell_angle_alpha 90.000000
_cell_angle_beta 90.000000
_cell_angle_gamma 90.000000
_cell_volume 2354.473265
_symmetry_space_group_name_H-M "P 43 21 2"
_symmetry_group_IT_number 96
_symmetry_cell_setting 'tetragonal'
loop_
_space_group_symop_operation_xyz
x,y,z
1/2-y,1/2+x,3/4+z
-x,-y,1/2+z
1/2+y,1/2-x,1/4+z
1/2+x,1/2-y,1/4-z
1/2-x,1/2+y,3/4-z
y,x,-z
-y,-x,1/2-z
loop_
_atom_site_type_symbol
_atom_site_label
_atom_site_fract_x
_atom_site_fract_y
_atom_site_fract_z
Si Si1 0.416764 0.427737 0.870517
Si Si2 0.417906 0.932334 0.046614
Si Si3 0.933883 0.915402 0.209745
Si Si4 0.418028 0.434776 0.291093
Si Si5 0.082709 0.571461 0.034699
Si Si6 0.902286 0.425105 0.373532
O O1 0.480627 0.475996 0.918121
O O2 0.540629 0.467676 0.833822
O O3 0.262234 0.514750 0.860354
O O4 0.384899 0.251007 0.867027
O O5 0.466344 0.758299 0.053052
O O6 0.239221 0.948177 0.052288
O O7 0.494379 0.037113 0.082976
O O8 0.466463 0.990277 0.998613
O O9 0.761363 0.943381 0.224819
O O10 0.042532 0.957469 0.250000
O O11 0.521893 0.478108 0.250000
O O12 0.244312 0.469531 0.279001
O O13 0.042691 0.518506 0.083983
#
# Coordination Sequence:
#
# PCOD8305957 Si02
#       6
#     8   8   8   8   8   8
#     4  11  23  40  62  88 119 156 196 242 294 350
#     4  11  23  39  61  88 118 154 196 242 292 348
#     4  10  23  40  60  86 118 155 195 241 292 348
#     4  11  23  40  61  88 120 155 197 243 293 348
#     4  10  23  41  60  86 120 156 196 242 293 349
#     4  11  23  40  62  88 119 156 197 242 295 351
#
# _framework density 20.386723
#
# number of rings (size 3 to 8) (size 9 to 14) (size 15 to 20)
#    0.000    1.333    0.000    5.000    0.000   10.667 
#    0.000    0.000    0.000    0.000    0.000    0.000 
#    0.000    0.000    0.000    0.000    0.000    0.000 
#
# Total GULP energy -595605.895656 kJ/mol
# GULP energy per Si atom -12408.456160 kJ/mol
# Density = 2.034032 g / cm^3
# Si number density = 20.386723 Si / 1000 Ang^3
#
#
#
# Elastic Constant Matrix: (Units=GPa)
#
#
# Indices 1 2 3 4 5 6 
#
# 1 57.5824 42.1141 25.7488 0.0000 0.0000 0.0000
# 2 42.1141 57.5855 25.7484 0.0000 0.0000 0.0000
# 3 25.7488 25.7484 86.7501 0.0000 0.0000 0.0000
# 4 0.0000 0.0000 0.0000 34.7729 0.0000 0.0000
# 5 0.0000 0.0000 0.0000 0.0000 34.7728 0.0000
# 6 0.0000 0.0000 0.0000 0.0000 0.0000 32.2471
#
#
#
# Elastic Compliance Matrix: (Units=1/GPa)
#
#
# Indices 1 2 3 4 5 6 
#
# 1 0.038245 -0.026398 -0.003517 0.000000 0.000000 0.000000
# 2 -0.026398 0.038243 -0.003516 0.000000 0.000000 0.000000
# 3 -0.003517 -0.003516 0.013615 0.000000 0.000000 0.000000
# 4 0.000000 0.000000 0.000000 0.028758 0.000000 0.000000
# 5 0.000000 0.000000 0.000000 0.000000 0.028758 0.000000
# 6 0.000000 0.000000 0.000000 0.000000 0.000000 0.031011
#
#
# Mechanical properties :
#
#
# Convention : Reuss Voigt Hill
#
# Bulk Modulus (GPa) = 43.02392 43.23785 43.13088
# Shear Modulus (GPa) = 19.74431 27.57901 23.66166
#
# Velocity S-wave (km/s) = 3.11543 3.68202 3.41051
# Velocity P-wave (km/s) = 5.83874 6.27146 6.05897
#
# Compressibility (1/GPa) = 0.02324289
#
# Stress axis : x y z
#
# Youngs Moduli (GPa) = 26.14689 26.14863 73.45009
#
# Poissons Ratio (x) = 0.69026 0.25830
# Poissons Ratio (y) = 0.69022 0.25823
# Poissons Ratio (z) = 0.09195 0.09193
#
# Static dielectric constant tensor:
#      x y z
#    x 3.744250 0.000000 0.000000 
#    y 0.000000 3.744250 0.000000 
#    z 0.000000 0.000000 3.680750 
# 
# 
# High freq. dielectric constant tensor:
#      x y z
#    x 1.806920 0.000000 0.000000 
#    y 0.000000 1.806920 0.000000 
#    z 0.000000 0.000000 1.808220 
# 
# From -- ./inp_files/4483.got.cif
#   From: 2010.03.12/outbox.cif.g09.slc.cpg/sg96_3_cif.got.tgz:4483.got - 2010.04.08 20:56:49.
