data_PCOD8305057
_publ_section_title
;
Structure prediction by ZEFSAII (Michael W. Deem and Ramdas Pophale) SiO2 
 PCOD8305057
Probable space group: P 41 2 2
;
_chemical_formula_sum "Si O2"
_cell_formula_units_Z 36
_cell_length_a 8.475827
_cell_length_b 8.475827
_cell_length_c 19.935128
_cell_angle_alpha 90.000000
_cell_angle_beta 90.000000
_cell_angle_gamma 90.000000
_cell_volume 1432.132485
_symmetry_space_group_name_H-M "P 41 2 2"
_symmetry_group_IT_number 91
_symmetry_cell_setting 'tetragonal'
loop_
_space_group_symop_operation_xyz
x,y,z
-y,x,1/4+z
-x,-y,1/2+z
y,-x,3/4+z
x,-y,1/2-z
-x,y,-z
y,x,3/4-z
-y,-x,1/4-z
loop_
_atom_site_type_symbol
_atom_site_label
_atom_site_fract_x
_atom_site_fract_y
_atom_site_fract_z
Si Si1 0.129363 0.952706 0.324741
Si Si2 0.649138 0.008689 0.127492
Si Si3 0.740022 0.560677 0.072706
Si Si4 0.619204 0.695423 0.199214
Si Si5 0.101498 0.500000 0.750000
O O1 0.003264 0.827530 0.352710
O O2 0.303829 0.875450 0.323924
O O3 0.080992 0.000000 0.250000
O O4 0.105195 0.105195 0.375000
O O5 0.611701 0.880075 0.184038
O O6 0.607250 0.178424 0.159320
O O7 0.538742 0.986218 0.061692
O O8 0.606615 0.599937 0.128424
O O9 0.658844 0.527653 0.000120
O O10 0.785982 0.649061 0.232886
#
# Coordination Sequence:
#
# PCOD8305057 Si02
#       5
#     8   8   8   8   4
#     4  11  26  41  69 108 143 185 240 307 371 435
#     4  10  23  40  70  98 143 188 242 304 369 436
#     4  10  23  46  71 105 139 194 242 307 366 449
#     4  10  22  43  72  99 142 190 245 303 372 442
#     4  10  24  42  66 102 140 186 254 302 368 456
#
# _framework density 25.137342
#
# number of rings (size 3 to 8) (size 9 to 14) (size 15 to 20)
#    0.000    1.778    0.000    2.000   12.444    2.667 
#    0.000    8.889    9.778    0.000    0.000    0.000 
#    0.000    0.000    0.000    0.000    0.000    0.000 
#
# Total GULP energy -445995.161708 kJ/mol
# GULP energy per Si atom -12388.754492 kJ/mol
# Density = 2.508013 g / cm^3
# Si number density = 25.137342 Si / 1000 Ang^3
#
#
#
# Elastic Constant Matrix: (Units=GPa)
#
#
# Indices 1 2 3 4 5 6 
#
# 1 78.5223 54.6037 56.5652 0.0000 0.0000 0.0000
# 2 54.6037 78.5223 56.5652 0.0000 0.0000 0.0000
# 3 56.5652 56.5652 210.4219 0.0000 0.0000 0.0000
# 4 0.0000 0.0000 0.0000 47.0035 0.0000 0.0000
# 5 0.0000 0.0000 0.0000 0.0000 47.0035 0.0000
# 6 0.0000 0.0000 0.0000 0.0000 0.0000 18.3568
#
#
#
# Elastic Compliance Matrix: (Units=1/GPa)
#
#
# Indices 1 2 3 4 5 6 
#
# 1 0.025772 -0.016036 -0.002617 0.000000 0.000000 0.000000
# 2 -0.016036 0.025772 -0.002617 0.000000 0.000000 0.000000
# 3 -0.002617 -0.002617 0.006159 0.000000 0.000000 0.000000
# 4 0.000000 0.000000 0.000000 0.021275 0.000000 0.000000
# 5 0.000000 0.000000 0.000000 0.000000 0.021275 0.000000
# 6 0.000000 0.000000 0.000000 0.000000 0.000000 0.054476
#
#
# Mechanical properties :
#
#
# Convention : Reuss Voigt Hill
#
# Bulk Modulus (GPa) = 65.95297 78.10387 72.02842
# Shear Modulus (GPa) = 24.71276 35.78824 30.25050
#
# Velocity S-wave (km/s) = 3.13886 3.77730 3.47278
# Velocity P-wave (km/s) = 6.27938 7.08253 6.69301
#
# Compressibility (1/GPa) = 0.01516232
#
# Stress axis : x y z
#
# Youngs Moduli (GPa) = 38.80175 38.80175 162.35270
#
# Poissons Ratio (x) = 0.62224 0.42490
# Poissons Ratio (y) = 0.62224 0.42490
# Poissons Ratio (z) = 0.10155 0.10155
#
# Static dielectric constant tensor:
#      x y z
#    x 4.311440 0.000000 0.000000 
#    y 0.000000 4.311440 0.000000 
#    z 0.000000 0.000000 5.195330 
# 
# 
# High freq. dielectric constant tensor:
#      x y z
#    x 1.983790 0.000000 0.000000 
#    y 0.000000 1.983790 0.000000 
#    z 0.000000 0.000000 2.029570 
# 
# From -- ./inp_files/17205.got.cif
#   From: 2010.03.12/outbox.cif.g09.slc.cpg/sg91_9_cif.got.tgz:17205.got - 2010.04.08 20:27:58.
