data_PCOD8305145
_publ_section_title
;
Structure prediction by ZEFSAII (Michael W. Deem and Ramdas Pophale) SiO2 
 PCOD8305145
Probable space group: P 41 2 2
;
_chemical_formula_sum "Si O2"
_cell_formula_units_Z 24
_cell_length_a 15.172304
_cell_length_b 15.172304
_cell_length_c 4.939386
_cell_angle_alpha 90.000000
_cell_angle_beta 90.000000
_cell_angle_gamma 90.000000
_cell_volume 1137.040773
_symmetry_space_group_name_H-M "P 41 2 2"
_symmetry_group_IT_number 91
_symmetry_cell_setting 'tetragonal'
loop_
_space_group_symop_operation_xyz
x,y,z
-y,x,1/4+z
-x,-y,1/2+z
y,-x,3/4+z
x,-y,1/2-z
-x,y,-z
y,x,3/4-z
-y,-x,1/4-z
loop_
_atom_site_type_symbol
_atom_site_label
_atom_site_fract_x
_atom_site_fract_y
_atom_site_fract_z
Si Si1 0.557737 0.692104 0.753882
Si Si2 0.280538 0.191365 0.129472
Si Si3 0.133936 0.000000 0.750000
Si Si4 0.000000 0.243967 0.500000
O O1 0.500000 0.659678 0.500000
O O2 0.622611 0.766651 0.638944
O O3 0.500000 0.732585 0.000000
O O4 0.608542 0.608542 0.875000
O O5 0.221886 0.221886 0.375000
O O6 0.296823 0.085030 0.133878
O O7 0.224606 0.224606 0.875000
O O8 0.188847 0.039436 0.501111
O O9 0.078205 0.921796 0.625000
#
# Coordination Sequence:
#
# PCOD8305145 Si02
#       4
#     8   8   4   4
#     4  11  23  42  66  94 126 157 195 250 315 382
#     4  11  23  41  62  88 125 165 206 256 308 361
#     4  12  23  34  52  83 120 154 204 272 320 353
#     4  12  23  38  60  85 116 168 216 248 302 375
#
# _framework density 21.107420999999999
#
# number of rings (size 3 to 8) (size 9 to 14) (size 15 to 20)
#    0.000    0.667    0.000   12.000    0.000    1.333 
#    0.000    3.333    0.000    0.000    0.000    0.000 
#    0.000    0.000    0.000    0.000    0.000    0.000 
#
# Total GULP energy -297505.984856 kJ/mol
# GULP energy per Si atom -12396.082702 kJ/mol
# Density = 2.105938 g / cm^3
# Si number density = 21.107421 Si / 1000 Ang^3
#
#
#
# Elastic Constant Matrix: (Units=GPa)
#
#
# Indices 1 2 3 4 5 6 
#
# 1 132.9049 59.8610 54.1347 0.0000 0.0000 0.0000
# 2 59.8610 132.9054 54.1347 0.0000 0.0000 0.0000
# 3 54.1347 54.1347 174.2268 0.0000 0.0000 0.0000
# 4 0.0000 0.0000 0.0000 32.4221 0.0000 0.0000
# 5 0.0000 0.0000 0.0000 0.0000 32.3966 0.0000
# 6 0.0000 0.0000 0.0000 0.0000 0.0000 5.2301
#
#
#
# Elastic Compliance Matrix: (Units=1/GPa)
#
#
# Indices 1 2 3 4 5 6 
#
# 1 0.009987 -0.003703 -0.001953 0.000000 0.000000 0.000000
# 2 -0.003703 0.009987 -0.001953 0.000000 0.000000 0.000000
# 3 -0.001953 -0.001953 0.006953 0.000000 0.000000 0.000000
# 4 0.000000 0.000000 0.000000 0.030843 0.000000 0.000000
# 5 0.000000 0.000000 0.000000 0.000000 0.030867 0.000000
# 6 0.000000 0.000000 0.000000 0.000000 0.000000 0.191200
#
#
# Mechanical properties :
#
#
# Convention : Reuss Voigt Hill
#
# Bulk Modulus (GPa) = 85.38811 86.25530 85.82171
# Shear Modulus (GPa) = 16.72472 32.13689 24.43080
#
# Velocity S-wave (km/s) = 2.81795 3.90621 3.40582
# Velocity P-wave (km/s) = 7.15050 7.82932 7.49760
#
# Compressibility (1/GPa) = 0.01171123
#
# Stress axis : x y z
#
# Youngs Moduli (GPa) = 100.12648 100.12685 143.82144
#
# Poissons Ratio (x) = 0.37077 0.28083
# Poissons Ratio (y) = 0.37077 0.28083
# Poissons Ratio (z) = 0.19551 0.19551
#
# Static dielectric constant tensor:
#      x y z
#    x 3.850110 0.000000 0.000000 
#    y 0.000000 3.850360 0.000000 
#    z 0.000000 0.000000 4.092910 
# 
# 
# High freq. dielectric constant tensor:
#      x y z
#    x 1.813360 0.000000 0.000000 
#    y 0.000000 1.813360 0.000000 
#    z 0.000000 0.000000 1.862230 
# 
# From -- ./inp_files/8281.got.cif
#   From: 2010.03.12/outbox.cif.g09.slc.cpg/sg91_5_cif.got.tgz:8281.got - 2010.04.08 20:27:58.
