data_PCOD8305951
_publ_section_title
;
Structure prediction by ZEFSAII (Michael W. Deem and Ramdas Pophale) SiO2 
 PCOD8305951
Probable space group: P 43 21 2
;
_chemical_formula_sum "Si O2"
_cell_formula_units_Z 56
_cell_length_a 14.210407
_cell_length_b 14.210407
_cell_length_c 11.606139
_cell_angle_alpha 90.000000
_cell_angle_beta 90.000000
_cell_angle_gamma 90.000000
_cell_volume 2343.693421
_symmetry_space_group_name_H-M "P 43 21 2"
_symmetry_group_IT_number 96
_symmetry_cell_setting 'tetragonal'
loop_
_space_group_symop_operation_xyz
x,y,z
1/2-y,1/2+x,3/4+z
-x,-y,1/2+z
1/2+y,1/2-x,1/4+z
1/2+x,1/2-y,1/4-z
1/2-x,1/2+y,3/4-z
y,x,-z
-y,-x,1/2-z
loop_
_atom_site_type_symbol
_atom_site_label
_atom_site_fract_x
_atom_site_fract_y
_atom_site_fract_z
Si Si1 0.438688 0.109505 0.069085
Si Si2 0.639286 0.424102 0.495124
Si Si3 0.162852 0.636501 0.911165
Si Si4 0.675883 0.064117 0.564422
Si Si5 0.689764 0.548633 0.699346
Si Si6 0.873005 0.760429 0.080554
Si Si7 0.953841 0.115942 0.865608
O O1 0.548552 0.107425 0.028349
O O2 0.435527 0.182173 0.175474
O O3 0.406372 0.005612 0.109180
O O4 0.366718 0.143609 0.972302
O O5 0.726799 0.382657 0.424200
O O6 0.662950 0.520076 0.566817
O O7 0.603121 0.346199 0.584705
O O8 0.553206 0.439134 0.405176
O O9 0.137411 0.739151 0.961734
O O10 0.649327 0.167383 0.601930
O O11 0.774269 0.027527 0.613250
O O12 0.751019 0.462758 0.748844
O O13 0.596940 0.570426 0.773463
O O14 0.783562 0.783562 0.000000
O O15 0.891506 0.108495 0.750000
#
# Coordination Sequence:
#
# PCOD8305951 Si02
#       7
#     8   8   8   8   8   8   8
#     4  10  25  46  71 115 149 193 259 317 412 453
#     4  11  24  50  75 107 157 200 264 330 391 482
#     4  11  23  50  80 110 152 202 256 331 400 479
#     4  11  24  45  72 110 154 195 253 328 385 479
#     4  11  25  46  79 110 147 203 268 320 403 476
#     4  10  22  42  71 106 146 195 253 314 387 465
#     4  12  26  50  75 106 154 209 264 325 398 478
#
# _framework density 23.893909000000001
#
# number of rings (size 3 to 8) (size 9 to 14) (size 15 to 20)
#    0.000    1.143    2.857    2.143    4.000    1.143 
#   10.286    8.571    0.000    0.000    0.000    0.000 
#    0.000    0.000    0.000    0.000    0.000    0.000 
#
# Total GULP energy -694282.394364 kJ/mol
# GULP energy per Si atom -12397.899899 kJ/mol
# Density = 2.383953 g / cm^3
# Si number density = 23.893909 Si / 1000 Ang^3
#
#
#
# Elastic Constant Matrix: (Units=GPa)
#
#
# Indices 1 2 3 4 5 6 
#
# 1 133.3849 30.1670 43.1190 0.0000 0.0000 0.0000
# 2 30.1670 133.3847 43.1190 0.0000 0.0000 0.0000
# 3 43.1190 43.1190 107.3807 0.0000 0.0000 0.0000
# 4 0.0000 0.0000 0.0000 38.0336 0.0000 0.0000
# 5 0.0000 0.0000 0.0000 0.0000 38.0336 0.0000
# 6 0.0000 0.0000 0.0000 0.0000 0.0000 34.8847
#
#
#
# Elastic Compliance Matrix: (Units=1/GPa)
#
#
# Indices 1 2 3 4 5 6 
#
# 1 0.008722 -0.000966 -0.003115 0.000000 0.000000 0.000000
# 2 -0.000966 0.008722 -0.003115 0.000000 0.000000 0.000000
# 3 -0.003115 -0.003115 0.011814 0.000000 0.000000 0.000000
# 4 0.000000 0.000000 0.000000 0.026293 0.000000 0.000000
# 5 0.000000 0.000000 0.000000 0.000000 0.026293 0.000000
# 6 0.000000 0.000000 0.000000 0.000000 0.000000 0.028666
#
#
# Mechanical properties :
#
#
# Convention : Reuss Voigt Hill
#
# Bulk Modulus (GPa) = 67.25613 67.44005 67.34809
# Shear Modulus (GPa) = 38.50407 39.37340 38.93874
#
# Velocity S-wave (km/s) = 4.01865 4.06377 4.04127
# Velocity P-wave (km/s) = 7.05278 7.09260 7.07272
#
# Compressibility (1/GPa) = 0.01486853
#
# Stress axis : x y z
#
# Youngs Moduli (GPa) = 114.64720 114.64699 84.64480
#
# Poissons Ratio (x) = 0.11073 0.26364
# Poissons Ratio (y) = 0.11073 0.26364
# Poissons Ratio (z) = 0.35709 0.35709
#
# Static dielectric constant tensor:
#      x y z
#    x 4.439840 0.000000 0.000000 
#    y 0.000000 4.439850 0.000000 
#    z 0.000000 0.000000 4.343840 
# 
# 
# High freq. dielectric constant tensor:
#      x y z
#    x 1.949380 0.000000 0.000000 
#    y 0.000000 1.949380 0.000000 
#    z 0.000000 0.000000 1.945660 
# 
# From -- ./inp_files/2278.got.cif
#   From: 2010.03.12/outbox.cif.g09.slc.cpg/sg96_2_cif.got.tgz:2278.got - 2010.04.08 20:56:49.
