data_PCOD8305383
_publ_section_title
;
Structure prediction by ZEFSAII (Michael W. Deem and Ramdas Pophale) SiO2 
 PCOD8305383
Probable space group: P 41 21 2
;
_chemical_formula_sum "Si O2"
_cell_formula_units_Z 56
_cell_length_a 11.416610
_cell_length_b 11.416610
_cell_length_c 19.269307
_cell_angle_alpha 90.000000
_cell_angle_beta 90.000000
_cell_angle_gamma 90.000000
_cell_volume 2511.541895
_symmetry_space_group_name_H-M "P 41 21 2"
_symmetry_group_IT_number 92
_symmetry_cell_setting 'tetragonal'
loop_
_space_group_symop_operation_xyz
x,y,z
1/2-y,1/2+x,1/4+z
-x,-y,1/2+z
1/2+y,1/2-x,3/4+z
1/2+x,1/2-y,3/4-z
1/2-x,1/2+y,1/4-z
y,x,-z
-y,-x,1/2-z
loop_
_atom_site_type_symbol
_atom_site_label
_atom_site_fract_x
_atom_site_fract_y
_atom_site_fract_z
Si Si1 0.199120 0.195320 0.134996
Si Si2 0.595081 0.959727 0.412612
Si Si3 0.718474 0.169823 0.353553
Si Si4 0.167499 0.037357 0.551482
Si Si5 0.975458 0.070460 0.174559
Si Si6 0.827976 0.320981 0.471251
Si Si7 0.609720 0.078465 0.815313
O O1 0.136232 0.315533 0.115981
O O2 0.250656 0.199362 0.211565
O O3 0.303395 0.185043 0.077889
O O4 0.101135 0.090700 0.135978
O O5 0.467689 0.924458 0.384972
O O6 0.595910 0.965493 0.495823
O O7 0.616605 0.090264 0.386411
O O8 0.662633 0.270156 0.307473
O O9 0.803827 0.084816 0.309922
O O10 0.786944 0.230173 0.414664
O O11 0.057288 0.057288 0.500000
O O12 0.112398 0.001706 0.625527
O O13 0.269987 0.958330 0.516877
O O14 0.991966 0.008035 0.250000
O O15 0.819651 0.456135 0.444550
#
# Coordination Sequence:
#
# PCOD8305383 Si02
#       7
#     8   8   8   8   8   8   8
#     4  11  25  45  66 101 139 186 231 285 353 422
#     4  11  24  45  73  97 140 184 232 293 354 421
#     4  10  22  42  69  99 133 178 233 294 353 404
#     4  11  24  41  69 103 132 178 229 297 347 408
#     4  10  23  44  67  99 139 181 229 285 351 419
#     4  11  24  44  68 103 138 181 238 292 349 426
#     4  12  24  45  68 103 138 185 234 284 353 432
#
# _framework density 22.297058
#
# number of rings (size 3 to 8) (size 9 to 14) (size 15 to 20)
#    0.000    1.143    2.857    2.571    2.000    5.714 
#    2.571    0.000    0.000    0.000    0.000    0.000 
#    0.000    0.000    0.000    0.000    0.000    0.000 
#
# Total GULP energy -694055.061858 kJ/mol
# GULP energy per Si atom -12393.840390 kJ/mol
# Density = 2.224631 g / cm^3
# Si number density = 22.297058 Si / 1000 Ang^3
#
#
#
# Elastic Constant Matrix: (Units=GPa)
#
#
# Indices 1 2 3 4 5 6 
#
# 1 76.3247 8.4365 26.8417 0.0000 0.0000 0.0000
# 2 8.4365 76.3250 26.8418 0.0000 0.0000 0.0000
# 3 26.8417 26.8418 56.4712 0.0000 0.0000 0.0000
# 4 0.0000 0.0000 0.0000 24.9349 0.0000 0.0000
# 5 0.0000 0.0000 0.0000 0.0000 24.9348 0.0000
# 6 0.0000 0.0000 0.0000 0.0000 0.0000 27.0929
#
#
#
# Elastic Compliance Matrix: (Units=1/GPa)
#
#
# Indices 1 2 3 4 5 6 
#
# 1 0.015805 0.001075 -0.008023 0.000000 0.000000 0.000000
# 2 0.001075 0.015805 -0.008023 0.000000 0.000000 0.000000
# 3 -0.008023 -0.008023 0.025335 0.000000 0.000000 0.000000
# 4 0.000000 0.000000 0.000000 0.040104 0.000000 0.000000
# 5 0.000000 0.000000 0.000000 0.000000 0.040105 0.000000
# 6 0.000000 0.000000 0.000000 0.000000 0.000000 0.036910
#
#
# Mechanical properties :
#
#
# Convention : Reuss Voigt Hill
#
# Bulk Modulus (GPa) = 37.03495 37.04011 37.03753
# Shear Modulus (GPa) = 23.47345 25.19258 24.33302
#
# Velocity S-wave (km/s) = 3.24815 3.36499 3.30708
# Velocity P-wave (km/s) = 5.54194 5.63433 5.58833
#
# Compressibility (1/GPa) = 0.02700152
#
# Stress axis : x y z
#
# Youngs Moduli (GPa) = 63.27257 63.27272 39.47100
#
# Poissons Ratio (x) = -0.06799 0.31667
# Poissons Ratio (y) = -0.06799 0.31667
# Poissons Ratio (z) = 0.50763 0.50763
#
# Static dielectric constant tensor:
#      x y z
#    x 4.104760 0.000000 0.000000 
#    y 0.000000 4.104760 0.000000 
#    z 0.000000 0.000000 3.868250 
# 
# 
# High freq. dielectric constant tensor:
#      x y z
#    x 1.880680 0.000000 0.000000 
#    y 0.000000 1.880680 0.000000 
#    z 0.000000 0.000000 1.880940 
# 
# From -- ./inp_files/3572.got.cif
#   From: 2010.03.12/outbox.cif.g09.slc.cpg/sg92_2_cif.got.tgz:3572.got - 2010.04.08 20:41:11.
