data_PCOD8305554
_publ_section_title
;
Structure prediction by ZEFSAII (Michael W. Deem and Ramdas Pophale) SiO2 
 PCOD8305554
Probable space group: P 42 2 2
;
_chemical_formula_sum "Si O2"
_cell_formula_units_Z 48
_cell_length_a 8.392796
_cell_length_b 8.392796
_cell_length_c 30.661838
_cell_angle_alpha 90.000000
_cell_angle_beta 90.000000
_cell_angle_gamma 90.000000
_cell_volume 2159.789964
_symmetry_space_group_name_H-M "P 42 2 2"
_symmetry_group_IT_number 93
_symmetry_cell_setting 'tetragonal'
loop_
_space_group_symop_operation_xyz
x,y,z
-y,x,1/2+z
-x,-y,z
y,-x,1/2+z
x,-y,-z
-x,y,-z
y,x,1/2-z
-y,-x,1/2-z
loop_
_atom_site_type_symbol
_atom_site_label
_atom_site_fract_x
_atom_site_fract_y
_atom_site_fract_z
Si Si1 0.101540 0.655548 0.907505
Si Si2 0.249953 0.942099 0.219364
Si Si3 0.533338 0.779152 0.253838
Si Si4 0.810999 0.850499 0.874129
Si Si5 0.820512 0.053041 0.954908
Si Si6 0.317244 0.468663 0.846006
O O1 0.180244 0.754160 0.947862
O O2 0.248949 0.604681 0.877662
O O3 0.000000 0.500000 0.922998
O O4 0.989671 0.783466 0.882081
O O5 0.100658 0.899343 0.250000
O O6 0.382898 0.799457 0.221541
O O7 0.192234 0.959242 0.169637
O O8 0.329349 0.098230 0.239732
O O9 0.601756 0.601756 0.250000
O O10 0.474867 0.799872 0.303716
O O11 0.692895 0.701902 0.869302
O O12 0.745046 0.959107 0.913661
O O13 0.000000 0.000000 0.959568
O O14 0.731324 0.000000 0.000000
O O15 0.500000 0.500000 0.834566
#
# Coordination Sequence:
#
# PCOD8305554 Si02
#       6
#     8   8   8   8   8   8
#     4   9  20  38  65  92 121 160 201 258 314 388
#     4  11  22  39  56  82 123 162 202 257 303 376
#     4  11  25  37  55  86 116 164 212 256 305 371
#     4  10  20  38  62  87 121 162 202 259 325 368
#     4   9  19  39  66  97 125 153 206 269 326 381
#     4  11  22  38  60  86 122 166 215 256 311 383
#
# _framework density 22.224385999999999
#
# number of rings (size 3 to 8) (size 9 to 14) (size 15 to 20)
#    0.000    1.833    1.667    2.000    7.000    0.333 
#    3.000   14.167    0.000    3.000    0.000    0.000 
#    0.000    0.000    0.000    0.000    0.000    0.000 
#
# Total GULP energy -594875.888609 kJ/mol
# GULP energy per Si atom -12393.247679 kJ/mol
# Density = 2.217380 g / cm^3
# Si number density = 22.224386 Si / 1000 Ang^3
#
#
#
# Elastic Constant Matrix: (Units=GPa)
#
#
# Indices 1 2 3 4 5 6 
#
# 1 75.5689 38.0555 52.8155 0.0000 0.0000 0.0000
# 2 38.0555 75.5680 52.8156 0.0000 0.0000 0.0000
# 3 52.8155 52.8156 185.7594 0.0000 0.0000 0.0000
# 4 0.0000 0.0000 0.0000 20.6965 0.0000 0.0000
# 5 0.0000 0.0000 0.0000 0.0000 20.6964 0.0000
# 6 0.0000 0.0000 0.0000 0.0000 0.0000 39.4148
#
#
#
# Elastic Compliance Matrix: (Units=1/GPa)
#
#
# Indices 1 2 3 4 5 6 
#
# 1 0.019310 -0.007347 -0.003401 0.000000 0.000000 0.000000
# 2 -0.007347 0.019310 -0.003401 0.000000 0.000000 0.000000
# 3 -0.003401 -0.003401 0.007317 0.000000 0.000000 0.000000
# 4 0.000000 0.000000 0.000000 0.048317 0.000000 0.000000
# 5 0.000000 0.000000 0.000000 0.000000 0.048317 0.000000
# 6 0.000000 0.000000 0.000000 0.000000 0.000000 0.025371
#
#
# Mechanical properties :
#
#
# Convention : Reuss Voigt Hill
#
# Bulk Modulus (GPa) = 56.69534 69.36329 63.02932
# Shear Modulus (GPa) = 24.73737 29.04218 26.88978
#
# Velocity S-wave (km/s) = 3.33989 3.61885 3.48217
# Velocity P-wave (km/s) = 6.35917 6.98138 6.67752
#
# Compressibility (1/GPa) = 0.01763813
#
# Stress axis : x y z
#
# Youngs Moduli (GPa) = 51.78634 51.78549 136.65915
#
# Poissons Ratio (x) = 0.38048 0.46482
# Poissons Ratio (y) = 0.38049 0.46483
# Poissons Ratio (z) = 0.17614 0.17614
#
# Static dielectric constant tensor:
#      x y z
#    x 4.068210 0.000000 0.000000 
#    y 0.000000 4.068210 0.000000 
#    z 0.000000 0.000000 4.566060 
# 
# 
# High freq. dielectric constant tensor:
#      x y z
#    x 1.871340 0.000000 0.000000 
#    y 0.000000 1.871340 0.000000 
#    z 0.000000 0.000000 1.858130 
# 
# From -- ./inp_files/7740.got.cif
#   From: 2010.03.12/outbox.cif.g09.slc.cpg/sg93_4_cif.got.tgz:7740.got - 2010.04.08 20:44:19.
