data_PCOD8305867
_publ_section_title
;
Structure prediction by ZEFSAII (Michael W. Deem and Ramdas Pophale) SiO2 
 PCOD8305867
Probable space group: P 43 2 2
;
_chemical_formula_sum "Si O2"
_cell_formula_units_Z 60
_cell_length_a 16.523748
_cell_length_b 16.523748
_cell_length_c 9.208822
_cell_angle_alpha 90.000000
_cell_angle_beta 90.000000
_cell_angle_gamma 90.000000
_cell_volume 2514.323789
_symmetry_space_group_name_H-M "P 43 2 2"
_symmetry_group_IT_number 95
_symmetry_cell_setting 'tetragonal'
loop_
_space_group_symop_operation_xyz
x,y,z
-y,x,3/4+z
-x,-y,1/2+z
y,-x,1/4+z
x,-y,1/2-z
-x,y,-z
y,x,1/4-z
-y,-x,3/4-z
loop_
_atom_site_type_symbol
_atom_site_label
_atom_site_fract_x
_atom_site_fract_y
_atom_site_fract_z
Si Si1 0.608545 0.733219 0.642755
Si Si2 0.307321 0.307321 0.625000
Si Si3 0.573005 0.969940 0.908496
Si Si4 0.428584 0.233208 0.817147
Si Si5 0.925313 0.652316 0.890747
Si Si6 0.304754 0.174766 0.389590
Si Si7 0.181244 0.909302 0.497265
Si Si8 0.912765 0.851843 0.279470
O O1 0.639815 0.639815 0.625000
O O2 0.596483 0.770160 0.484915
O O3 0.521440 0.745012 0.719777
O O4 0.676020 0.778588 0.739560
O O5 0.381672 0.306195 0.737023
O O6 0.320030 0.225973 0.533864
O O7 0.643675 0.906257 0.892325
O O8 0.542772 0.000000 0.750000
O O9 0.500000 0.929919 0.000000
O O10 0.602662 0.047644 0.999051
O O11 0.399249 0.142814 0.769414
O O12 0.886331 0.736183 0.832501
O O13 0.000000 0.670470 0.000000
O O14 0.211108 0.151812 0.399161
O O15 0.156802 0.843199 0.375000
O O16 0.104202 0.923754 0.606803
O O17 0.190255 0.001420 0.443376
O O18 0.882924 0.882924 0.125000
#
# Coordination Sequence:
#
# PCOD8305867 Si02
#       8
#     8   4   8   8   8   8   8   8
#     4  11  26  51  76 112 156 202 246 309 382 472
#     4  12  24  46  78 114 144 194 260 316 376 464
#     4  12  29  47  75 115 160 198 245 312 399 480
#     4  11  27  47  80 113 155 200 253 311 385 472
#     4  12  26  49  75 111 160 204 252 325 407 471
#     4  12  26  46  76 109 151 197 257 314 385 473
#     4  12  29  46  74 103 149 199 264 328 383 457
#     4  12  26  49  73 106 144 200 260 326 392 445
#
# _framework density 23.863275000000002
#
# number of rings (size 3 to 8) (size 9 to 14) (size 15 to 20)
#    0.000    0.267    3.333    4.400   11.200    1.600 
#    0.000    0.000    5.867    0.000    0.000    0.000 
#    0.000    0.000    0.000    0.000    0.000    0.000 
#
# Total GULP energy -743480.864219 kJ/mol
# GULP energy per Si atom -12391.347737 kJ/mol
# Density = 2.380896 g / cm^3
# Si number density = 23.863275 Si / 1000 Ang^3
#
#
#
# Elastic Constant Matrix: (Units=GPa)
#
#
# Indices 1 2 3 4 5 6 
#
# 1 96.8514 60.3884 19.8763 0.0000 0.0000 0.0000
# 2 60.3884 96.8523 19.8769 0.0000 0.0000 0.0000
# 3 19.8763 19.8769 113.5270 0.0000 0.0000 0.0000
# 4 0.0000 0.0000 0.0000 37.1378 0.0000 0.0000
# 5 0.0000 0.0000 0.0000 0.0000 37.1378 0.0000
# 6 0.0000 0.0000 0.0000 0.0000 0.0000 33.9466
#
#
#
# Elastic Compliance Matrix: (Units=1/GPa)
#
#
# Indices 1 2 3 4 5 6 
#
# 1 0.017040 -0.010385 -0.001165 0.000000 0.000000 0.000000
# 2 -0.010385 0.017039 -0.001165 0.000000 0.000000 0.000000
# 3 -0.001165 -0.001165 0.009216 0.000000 0.000000 0.000000
# 4 0.000000 0.000000 0.000000 0.026927 0.000000 0.000000
# 5 0.000000 0.000000 0.000000 0.000000 0.026927 0.000000
# 6 0.000000 0.000000 0.000000 0.000000 0.000000 0.029458
#
#
# Mechanical properties :
#
#
# Convention : Reuss Voigt Hill
#
# Bulk Modulus (GPa) = 55.97618 56.39045 56.18331
# Shear Modulus (GPa) = 31.64709 35.45038 33.54873
#
# Velocity S-wave (km/s) = 3.64563 3.85848 3.75356
# Velocity P-wave (km/s) = 6.42097 6.59791 6.51004
#
# Compressibility (1/GPa) = 0.01786474
#
# Stress axis : x y z
#
# Youngs Moduli (GPa) = 58.68706 58.68748 108.50179
#
# Poissons Ratio (x) = 0.60948 0.12640
# Poissons Ratio (y) = 0.60948 0.12642
# Poissons Ratio (z) = 0.06837 0.06838
#
# Static dielectric constant tensor:
#      x y z
#    x 4.409870 0.000000 0.000000 
#    y 0.000000 4.409870 0.000000 
#    z 0.000000 0.000000 4.651740 
# 
# 
# High freq. dielectric constant tensor:
#      x y z
#    x 1.942130 0.000000 0.000000 
#    y 0.000000 1.942130 0.000000 
#    z 0.000000 0.000000 1.964590 
# 
# From -- ./inp_files/2802.got.cif
#   From: 2010.03.12/outbox.cif.g09.slc.cpg/sg95_2_cif.got.tgz:2802.got - 2010.04.08 20:51:55.
