data_PCOD8305794
_publ_section_title
;
Structure prediction by ZEFSAII (Michael W. Deem and Ramdas Pophale) SiO2 
 PCOD8305794
Probable space group: P 42 21 2
;
_chemical_formula_sum "Si O2"
_cell_formula_units_Z 48
_cell_length_a 8.384687
_cell_length_b 8.384687
_cell_length_c 28.382761
_cell_angle_alpha 90.000000
_cell_angle_beta 90.000000
_cell_angle_gamma 90.000000
_cell_volume 1995.392568
_symmetry_space_group_name_H-M "P 42 21 2"
_symmetry_group_IT_number 94
_symmetry_cell_setting 'tetragonal'
loop_
_space_group_symop_operation_xyz
x,y,z
1/2-y,1/2+x,1/2+z
-x,-y,z
1/2+y,1/2-x,1/2+z
1/2+x,1/2-y,1/2-z
1/2-x,1/2+y,1/2-z
y,x,-z
-y,-x,-z
loop_
_atom_site_type_symbol
_atom_site_label
_atom_site_fract_x
_atom_site_fract_y
_atom_site_fract_z
Si Si1 0.637918 0.796049 0.545008
Si Si2 0.897359 0.212805 0.703401
Si Si3 0.357185 0.218112 0.043195
Si Si4 0.116979 0.243207 0.283781
Si Si5 0.623765 0.882478 0.887128
Si Si6 0.140747 0.878112 0.856385
O O1 0.730050 0.730050 0.500000
O O2 0.460383 0.823846 0.525970
O O3 0.629975 0.679065 0.589326
O O4 0.724909 0.960735 0.562014
O O5 0.830431 0.360560 0.733784
O O6 0.949334 0.257681 0.650026
O O7 0.061703 0.161933 0.726634
O O8 0.762783 0.070604 0.702004
O O9 0.221314 0.262043 0.080474
O O10 0.340600 0.340600 0.000000
O O11 0.226210 0.338253 0.322053
O O12 0.500000 0.000000 0.915406
O O13 0.709543 0.006918 0.852784
O O14 0.000000 0.000000 0.842286
#
# Coordination Sequence:
#
# PCOD8305794 Si02
#       6
#     8   8   8   8   8   8
#     4  11  26  46  70 101 140 182 237 291 350 426
#     4  11  26  46  70 103 141 186 237 294 359 430
#     4  11  26  45  71 102 137 185 233 288 357 421
#     4  11  26  45  72 102 141 186 238 296 360 428
#     4  12  25  46  72 100 143 184 234 294 356 425
#     4  12  25  45  71 100 137 185 236 291 353 423
#
# _framework density 24.055420000000002
#
# number of rings (size 3 to 8) (size 9 to 14) (size 15 to 20)
#    0.000    0.667    3.333    3.000    9.333    0.333 
#    0.000    0.000    0.000    0.000    0.000    0.000 
#    0.000    0.000    0.000    0.000    0.000    0.000 
#
# Total GULP energy -594652.361317 kJ/mol
# GULP energy per Si atom -12388.590861 kJ/mol
# Density = 2.400067 g / cm^3
# Si number density = 24.055420 Si / 1000 Ang^3
#
#
#
# Elastic Constant Matrix: (Units=GPa)
#
#
# Indices 1 2 3 4 5 6 
#
# 1 109.4771 38.1329 30.6327 0.0000 0.0000 0.0000
# 2 38.1329 109.4771 30.6327 0.0000 0.0000 0.0000
# 3 30.6327 30.6327 93.0434 0.0000 0.0000 0.0000
# 4 0.0000 0.0000 0.0000 48.8582 0.0000 0.0000
# 5 0.0000 0.0000 0.0000 0.0000 48.8582 0.0000
# 6 0.0000 0.0000 0.0000 0.0000 0.0000 47.8221
#
#
#
# Elastic Compliance Matrix: (Units=1/GPa)
#
#
# Indices 1 2 3 4 5 6 
#
# 1 0.010932 -0.003085 -0.002583 0.000000 0.000000 0.000000
# 2 -0.003085 0.010932 -0.002583 0.000000 0.000000 0.000000
# 3 -0.002583 -0.002583 0.012449 0.000000 0.000000 0.000000
# 4 0.000000 0.000000 0.000000 0.020467 0.000000 0.000000
# 5 0.000000 0.000000 0.000000 0.000000 0.020467 0.000000
# 6 0.000000 0.000000 0.000000 0.000000 0.000000 0.020911
#
#
# Mechanical properties :
#
#
# Convention : Reuss Voigt Hill
#
# Bulk Modulus (GPa) = 56.15210 56.75492 56.45351
# Shear Modulus (GPa) = 42.15941 43.28097 42.72019
#
# Velocity S-wave (km/s) = 4.19094 4.24632 4.21872
# Velocity P-wave (km/s) = 6.84194 6.90553 6.87381
#
# Compressibility (1/GPa) = 0.01780877
#
# Stress axis : x y z
#
# Youngs Moduli (GPa) = 91.47697 91.47697 80.32935
#
# Poissons Ratio (x) = 0.28219 0.20752
# Poissons Ratio (y) = 0.28219 0.20752
# Poissons Ratio (z) = 0.23632 0.23632
#
# Static dielectric constant tensor:
#      x y z
#    x 2.270920 0.000000 0.000000 
#    y 0.000000 2.270920 0.000000 
#    z 0.000000 0.000000 4.030080 
# 
# 
# High freq. dielectric constant tensor:
#      x y z
#    x 1.964270 0.000000 0.000000 
#    y 0.000000 1.964270 0.000000 
#    z 0.000000 0.000000 1.945330 
# 
# From -- ./inp_files/5606.got.cif
#   From: 2010.03.12/outbox.cif.g09.slc.cpg/sg94_3_cif.got.tgz:5606.got - 2010.04.08 20:48:32.
