data_PCOD8305993
_publ_section_title
;
Structure prediction by ZEFSAII (Michael W. Deem and Ramdas Pophale) SiO2 
 PCOD8305993
Probable space group: P 43 21 2
;
_chemical_formula_sum "Si O2"
_cell_formula_units_Z 48
_cell_length_a 10.950328
_cell_length_b 10.950328
_cell_length_c 19.245254
_cell_angle_alpha 90.000000
_cell_angle_beta 90.000000
_cell_angle_gamma 90.000000
_cell_volume 2307.692312
_symmetry_space_group_name_H-M "P 43 21 2"
_symmetry_group_IT_number 96
_symmetry_cell_setting 'tetragonal'
loop_
_space_group_symop_operation_xyz
x,y,z
1/2-y,1/2+x,3/4+z
-x,-y,1/2+z
1/2+y,1/2-x,1/4+z
1/2+x,1/2-y,1/4-z
1/2-x,1/2+y,3/4-z
y,x,-z
-y,-x,1/2-z
loop_
_atom_site_type_symbol
_atom_site_label
_atom_site_fract_x
_atom_site_fract_y
_atom_site_fract_z
Si Si1 0.042062 0.105710 0.922962
Si Si2 0.926275 0.108015 0.322345
Si Si3 0.573335 0.154324 0.936471
Si Si4 0.979259 0.491228 0.936844
Si Si5 0.263427 0.830002 0.027978
Si Si6 0.318067 0.830553 0.874274
O O1 0.141809 0.189188 0.883406
O O2 0.911986 0.172136 0.926670
O O3 0.024104 0.976640 0.884614
O O4 0.090371 0.090371 0.000000
O O5 0.960027 0.039974 0.250000
O O6 0.779512 0.122044 0.318609
O O7 0.969375 0.246756 0.326012
O O8 0.692262 0.234814 0.951911
O O9 0.585030 0.092739 0.860679
O O10 0.545294 0.055313 0.997448
O O11 0.065850 0.417043 0.884377
O O12 0.868061 0.404416 0.960559
O O13 0.244654 0.848090 0.945998
#
# Coordination Sequence:
#
# PCOD8305993 Si02
#       6
#     8   8   8   8   8   8
#     4  11  25  42  66 100 140 176 231 291 352 425
#     4  12  24  39  70 101 131 172 235 292 356 417
#     4  12  26  45  71  99 138 186 233 290 350 428
#     4  11  25  45  70 102 136 181 234 288 351 419
#     4  11  25  45  68  97 142 184 230 284 358 420
#     4  11  22  42  70  98 136 174 225 299 348 412
#
# _framework density 20.800001999999999
#
# number of rings (size 3 to 8) (size 9 to 14) (size 15 to 20)
#    0.000    0.667    5.000    2.500    7.000    0.000 
#    0.000    0.833    0.000    0.000    0.000    0.000 
#    0.000    0.000    0.000    0.000    0.000    0.000 
#
# Total GULP energy -595018.252370 kJ/mol
# GULP energy per Si atom -12396.213591 kJ/mol
# Density = 2.075266 g / cm^3
# Si number density = 20.800002 Si / 1000 Ang^3
#
#
#
# Elastic Constant Matrix: (Units=GPa)
#
#
# Indices 1 2 3 4 5 6 
#
# 1 90.2591 34.5060 45.0084 0.0000 0.0000 0.0000
# 2 34.5060 90.2593 45.0084 0.0000 0.0000 0.0000
# 3 45.0084 45.0084 117.5997 0.0000 0.0000 0.0000
# 4 0.0000 0.0000 0.0000 29.4238 0.0000 0.0000
# 5 0.0000 0.0000 0.0000 0.0000 29.4237 0.0000
# 6 0.0000 0.0000 0.0000 0.0000 0.0000 36.0894
#
#
#
# Elastic Compliance Matrix: (Units=1/GPa)
#
#
# Indices 1 2 3 4 5 6 
#
# 1 0.014504 -0.003432 -0.004238 0.000000 0.000000 0.000000
# 2 -0.003432 0.014504 -0.004238 0.000000 0.000000 0.000000
# 3 -0.004238 -0.004238 0.011747 0.000000 0.000000 0.000000
# 4 0.000000 0.000000 0.000000 0.033986 0.000000 0.000000
# 5 0.000000 0.000000 0.000000 0.000000 0.033986 0.000000
# 6 0.000000 0.000000 0.000000 0.000000 0.000000 0.027709
#
#
# Mechanical properties :
#
#
# Convention : Reuss Voigt Hill
#
# Bulk Modulus (GPa) = 59.02728 60.79597 59.91162
# Shear Modulus (GPa) = 30.13881 30.56038 30.34960
#
# Velocity S-wave (km/s) = 3.81068 3.83724 3.82398
# Velocity P-wave (km/s) = 6.91388 6.99463 6.95437
#
# Compressibility (1/GPa) = 0.01694132
#
# Stress axis : x y z
#
# Youngs Moduli (GPa) = 68.94469 68.94479 85.12656
#
# Poissons Ratio (x) = 0.23661 0.36075
# Poissons Ratio (y) = 0.23661 0.36074
# Poissons Ratio (z) = 0.29217 0.29217
#
# Static dielectric constant tensor:
#      x y z
#    x 3.706860 0.000000 0.000000 
#    y 0.000000 3.706860 0.000000 
#    z 0.000000 0.000000 3.837510 
# 
# 
# High freq. dielectric constant tensor:
#      x y z
#    x 1.811860 0.000000 0.000000 
#    y 0.000000 1.811860 0.000000 
#    z 0.000000 0.000000 1.824260 
# 
# From -- ./inp_files/3122.got.cif
#   From: 2010.03.12/outbox.cif.g09.slc.cpg/sg96_2_cif.got.tgz:3122.got - 2010.04.08 20:56:49.
