data_PCOD8305427
_publ_section_title
;
Structure prediction by ZEFSAII (Michael W. Deem and Ramdas Pophale) SiO2 
 PCOD8305427
Probable space group: P 41 21 2
;
_chemical_formula_sum "Si O2"
_cell_formula_units_Z 36
_cell_length_a 12.087133
_cell_length_b 12.087133
_cell_length_c 10.512481
_cell_angle_alpha 90.000000
_cell_angle_beta 90.000000
_cell_angle_gamma 90.000000
_cell_volume 1535.860693
_symmetry_space_group_name_H-M "P 41 21 2"
_symmetry_group_IT_number 92
_symmetry_cell_setting 'tetragonal'
loop_
_space_group_symop_operation_xyz
x,y,z
1/2-y,1/2+x,1/4+z
-x,-y,1/2+z
1/2+y,1/2-x,3/4+z
1/2+x,1/2-y,3/4-z
1/2-x,1/2+y,1/4-z
y,x,-z
-y,-x,1/2-z
loop_
_atom_site_type_symbol
_atom_site_label
_atom_site_fract_x
_atom_site_fract_y
_atom_site_fract_z
Si Si1 0.729566 0.862204 0.658356
Si Si2 0.214647 0.039346 0.897040
Si Si3 0.250566 0.997847 0.401369
Si Si4 0.987039 0.987039 0.000000
Si Si5 0.570669 0.060001 0.306611
O O1 0.741060 0.944887 0.540016
O O2 0.842268 0.791369 0.674407
O O3 0.631675 0.775350 0.635983
O O4 0.702835 0.935642 0.780904
O O5 0.297830 0.960151 0.820815
O O6 0.092792 0.985082 0.905634
O O7 0.119786 0.012986 0.410549
O O8 0.310936 0.048413 0.526432
O O9 0.508830 0.022666 0.435733
#
# Coordination Sequence:
#
# PCOD8305427 Si02
#       5
#     8   8   8   4   8
#     4  10  25  45  72 106 147 200 252 309 394 448
#     4  10  27  47  72 108 142 204 254 314 380 471
#     4  12  25  46  73 109 152 198 249 325 378 461
#     4  10  28  48  68 106 154 198 250 314 392 460
#     4  12  27  48  79 113 150 197 258 318 379 459
#
# _framework density 23.439627000000002
#
# number of rings (size 3 to 8) (size 9 to 14) (size 15 to 20)
#    0.000    1.333    2.222    1.333    9.333    8.889 
#    0.000    0.000    0.000    0.000    0.000    0.000 
#    0.000    0.000    0.000    0.000    0.000    0.000 
#
# Total GULP energy -446570.362339 kJ/mol
# GULP energy per Si atom -12404.732287 kJ/mol
# Density = 2.338628 g / cm^3
# Si number density = 23.439627 Si / 1000 Ang^3
#
#
#
# Elastic Constant Matrix: (Units=GPa)
#
#
# Indices 1 2 3 4 5 6 
#
# 1 121.2251 53.0766 42.2932 0.0000 0.0000 0.0000
# 2 53.0766 121.2251 42.2932 0.0000 0.0000 0.0000
# 3 42.2932 42.2932 100.5497 0.0000 0.0000 0.0000
# 4 0.0000 0.0000 0.0000 33.3377 0.0000 0.0000
# 5 0.0000 0.0000 0.0000 0.0000 33.3377 0.0000
# 6 0.0000 0.0000 0.0000 0.0000 0.0000 38.1071
#
#
#
# Elastic Compliance Matrix: (Units=1/GPa)
#
#
# Indices 1 2 3 4 5 6 
#
# 1 0.010941 -0.003733 -0.003032 0.000000 0.000000 0.000000
# 2 -0.003733 0.010941 -0.003032 0.000000 0.000000 0.000000
# 3 -0.003032 -0.003032 0.012496 0.000000 0.000000 0.000000
# 4 0.000000 0.000000 0.000000 0.029996 0.000000 0.000000
# 5 0.000000 0.000000 0.000000 0.000000 0.029996 0.000000
# 6 0.000000 0.000000 0.000000 0.000000 0.000000 0.026242
#
#
# Mechanical properties :
#
#
# Convention : Reuss Voigt Hill
#
# Bulk Modulus (GPa) = 67.63645 68.70286 68.16966
# Shear Modulus (GPa) = 34.45084 34.64563 34.54823
#
# Velocity S-wave (km/s) = 3.83792 3.84875 3.84334
# Velocity P-wave (km/s) = 6.96834 7.00890 6.98865
#
# Compressibility (1/GPa) = 0.01478493
#
# Stress axis : x y z
#
# Youngs Moduli (GPa) = 91.39752 91.39752 80.02534
#
# Poissons Ratio (x) = 0.34115 0.24264
# Poissons Ratio (y) = 0.34115 0.24264
# Poissons Ratio (z) = 0.27712 0.27712
#
# Static dielectric constant tensor:
#      x y z
#    x 4.206980 0.000000 0.000000 
#    y 0.000000 4.206980 0.000000 
#    z 0.000000 0.000000 4.078300 
# 
# 
# High freq. dielectric constant tensor:
#      x y z
#    x 1.929320 0.000000 0.000000 
#    y 0.000000 1.929320 0.000000 
#    z 0.000000 0.000000 1.923730 
# 
# From -- ./inp_files/1983.got.cif
#   From: 2010.03.12/outbox.cif.g09.slc.cpg/sg92_1_cif.got.tgz:1983.got - 2010.04.08 20:41:11.
