data_PCOD8305424
_publ_section_title
;
Structure prediction by ZEFSAII (Michael W. Deem and Ramdas Pophale) SiO2 
 PCOD8305424
Probable space group: P 41 21 2
;
_chemical_formula_sum "Si O2"
_cell_formula_units_Z 32
_cell_length_a 9.107562
_cell_length_b 9.107562
_cell_length_c 17.748959
_cell_angle_alpha 90.000000
_cell_angle_beta 90.000000
_cell_angle_gamma 90.000000
_cell_volume 1472.235071
_symmetry_space_group_name_H-M "P 41 21 2"
_symmetry_group_IT_number 92
_symmetry_cell_setting 'tetragonal'
loop_
_space_group_symop_operation_xyz
x,y,z
1/2-y,1/2+x,1/4+z
-x,-y,1/2+z
1/2+y,1/2-x,3/4+z
1/2+x,1/2-y,3/4-z
1/2-x,1/2+y,1/4-z
y,x,-z
-y,-x,1/2-z
loop_
_atom_site_type_symbol
_atom_site_label
_atom_site_fract_x
_atom_site_fract_y
_atom_site_fract_z
Si Si1 0.262167 0.428505 0.676823
Si Si2 0.788847 0.293867 0.951236
Si Si3 0.899283 0.328824 0.264736
Si Si4 0.940223 0.895028 0.417107
O O1 0.237975 0.272664 0.718405
O O2 0.156711 0.429239 0.604013
O O3 0.218460 0.553711 0.736096
O O4 0.430937 0.454199 0.652027
O O5 0.654473 0.312288 0.894921
O O6 0.902215 0.182457 0.912699
O O7 0.857976 0.452446 0.968411
O O8 0.833779 0.166222 0.250000
O O9 0.870078 0.870078 0.500000
#
# Coordination Sequence:
#
# PCOD8305424 Si02
#       4
#     8   8   8   8
#     4  11  26  47  71 104 145 188 241 301 352 435
#     4  11  25  44  71 101 140 185 231 296 357 418
#     4  12  24  46  74 103 142 189 240 290 363 431
#     4  10  24  48  65 103 143 181 234 296 352 426
#
# _framework density 21.735657
#
# number of rings (size 3 to 8) (size 9 to 14) (size 15 to 20)
#    0.000    1.000    2.500    3.750    7.000    0.000 
#    4.500    0.000    0.000    0.000    0.000    0.000 
#    0.000    0.000    0.000    0.000    0.000    0.000 
#
# Total GULP energy -396844.131356 kJ/mol
# GULP energy per Si atom -12401.379105 kJ/mol
# Density = 2.168619 g / cm^3
# Si number density = 21.735657 Si / 1000 Ang^3
#
#
#
# Elastic Constant Matrix: (Units=GPa)
#
#
# Indices 1 2 3 4 5 6 
#
# 1 89.5889 40.7528 50.5252 0.0000 0.0000 0.0000
# 2 40.7528 89.5893 50.5250 0.0000 0.0000 0.0000
# 3 50.5252 50.5250 100.6121 0.0000 0.0000 0.0000
# 4 0.0000 0.0000 0.0000 38.5711 0.0000 0.0000
# 5 0.0000 0.0000 0.0000 0.0000 38.5710 0.0000
# 6 0.0000 0.0000 0.0000 0.0000 0.0000 35.7669
#
#
#
# Elastic Compliance Matrix: (Units=1/GPa)
#
#
# Indices 1 2 3 4 5 6 
#
# 1 0.016520 -0.003957 -0.006309 0.000000 0.000000 0.000000
# 2 -0.003957 0.016520 -0.006309 0.000000 0.000000 0.000000
# 3 -0.006309 -0.006309 0.016276 0.000000 0.000000 0.000000
# 4 0.000000 0.000000 0.000000 0.025926 0.000000 0.000000
# 5 0.000000 0.000000 0.000000 0.000000 0.025926 0.000000
# 6 0.000000 0.000000 0.000000 0.000000 0.000000 0.027959
#
#
# Mechanical properties :
#
#
# Convention : Reuss Voigt Hill
#
# Bulk Modulus (GPa) = 61.85732 62.59960 62.22846
# Shear Modulus (GPa) = 29.82143 31.78097 30.80120
#
# Velocity S-wave (km/s) = 3.70808 3.82797 3.76850
# Velocity P-wave (km/s) = 6.84498 6.95706 6.90125
#
# Compressibility (1/GPa) = 0.01616624
#
# Stress axis : x y z
#
# Youngs Moduli (GPa) = 60.53264 60.53321 61.44147
#
# Poissons Ratio (x) = 0.23951 0.38764
# Poissons Ratio (y) = 0.23950 0.38763
# Poissons Ratio (z) = 0.38191 0.38190
#
# Static dielectric constant tensor:
#      x y z
#    x 3.920050 0.000000 0.000000 
#    y 0.000000 3.920050 0.000000 
#    z 0.000000 0.000000 4.102500 
# 
# 
# High freq. dielectric constant tensor:
#      x y z
#    x 1.851790 0.000000 0.000000 
#    y 0.000000 1.851790 0.000000 
#    z 0.000000 0.000000 1.865280 
# 
# From -- ./inp_files/3361.got.cif
#   From: 2010.03.12/outbox.cif.g09.slc.cpg/sg92_2_cif.got.tgz:3361.got - 2010.04.08 20:41:11.
