data_PCOD8305734
_publ_section_title
;
Structure prediction by ZEFSAII (Michael W. Deem and Ramdas Pophale) SiO2 
 PCOD8305734
Probable space group: P 42 21 2
;
_chemical_formula_sum "Si O2"
_cell_formula_units_Z 28
_cell_length_a 9.957196
_cell_length_b 9.957196
_cell_length_c 13.638457
_cell_angle_alpha 90.000000
_cell_angle_beta 90.000000
_cell_angle_gamma 90.000000
_cell_volume 1352.195078
_symmetry_space_group_name_H-M "P 42 21 2"
_symmetry_group_IT_number 94
_symmetry_cell_setting 'tetragonal'
loop_
_space_group_symop_operation_xyz
x,y,z
1/2-y,1/2+x,1/2+z
-x,-y,z
1/2+y,1/2-x,1/2+z
1/2+x,1/2-y,1/2-z
1/2-x,1/2+y,1/2-z
y,x,-z
-y,-x,-z
loop_
_atom_site_type_symbol
_atom_site_label
_atom_site_fract_x
_atom_site_fract_y
_atom_site_fract_z
Si Si1 0.153969 0.657374 0.446165
Si Si2 0.000000 0.500000 0.094608
Si Si3 0.340903 0.514076 0.825894
Si Si4 0.686253 0.841993 0.268209
O O1 0.277356 0.722645 0.500000
O O2 0.117529 0.541273 0.521523
O O3 0.199068 0.594335 0.341432
O O4 0.033544 0.766497 0.426395
O O5 0.125428 0.544667 0.160961
O O6 0.500000 0.500000 0.835810
O O7 0.297670 0.667310 0.805291
O O8 0.286836 0.414960 0.738557
#
# Coordination Sequence:
#
# PCOD8305734 Si02
#       4
#     8   4   8   8
#     4  10  23  40  66  97 133 179 224 282 340 420
#     4  12  22  40  66  96 138 172 234 278 350 414
#     4  10  23  41  66  95 134 177 230 281 353 417
#     4  10  24  40  66  98 135 176 227 293 342 412
#
# _framework density 20.707073000000001
#
# number of rings (size 3 to 8) (size 9 to 14) (size 15 to 20)
#    1.714    0.000    0.000    4.286    4.000    4.000 
#    0.000    0.000    0.000    6.000    0.000    0.000 
#    0.000    0.000    0.000    0.000    0.000    0.000 
#
# Total GULP energy -346895.485886 kJ/mol
# GULP energy per Si atom -12389.124496 kJ/mol
# Density = 2.065994 g / cm^3
# Si number density = 20.707073 Si / 1000 Ang^3
#
#
#
# Elastic Constant Matrix: (Units=GPa)
#
#
# Indices 1 2 3 4 5 6 
#
# 1 59.8332 22.0983 9.8853 0.0000 0.0000 0.0000
# 2 22.0983 59.8298 9.8851 0.0000 0.0000 0.0000
# 3 9.8853 9.8851 111.2186 0.0000 0.0000 0.0000
# 4 0.0000 0.0000 0.0000 27.0873 0.0000 0.0000
# 5 0.0000 0.0000 0.0000 0.0000 27.0858 0.0000
# 6 0.0000 0.0000 0.0000 0.0000 0.0000 37.8225
#
#
#
# Elastic Compliance Matrix: (Units=1/GPa)
#
#
# Indices 1 2 3 4 5 6 
#
# 1 0.019487 -0.007014 -0.001109 0.000000 0.000000 0.000000
# 2 -0.007014 0.019488 -0.001109 0.000000 0.000000 0.000000
# 3 -0.001109 -0.001109 0.009188 0.000000 0.000000 0.000000
# 4 0.000000 0.000000 0.000000 0.036918 0.000000 0.000000
# 5 0.000000 0.000000 0.000000 0.000000 0.036920 0.000000
# 6 0.000000 0.000000 0.000000 0.000000 0.000000 0.026439
#
#
# Mechanical properties :
#
#
# Convention : Reuss Voigt Hill
#
# Bulk Modulus (GPa) = 33.66993 34.95766 34.31380
# Shear Modulus (GPa) = 28.28002 30.99999 29.64000
#
# Velocity S-wave (km/s) = 3.69957 3.87340 3.78748
# Velocity P-wave (km/s) = 5.87746 6.07642 5.97777
#
# Compressibility (1/GPa) = 0.02970009
#
# Stress axis : x y z
#
# Youngs Moduli (GPa) = 51.31644 51.31354 108.83325
#
# Poissons Ratio (x) = 0.35993 0.12065
# Poissons Ratio (y) = 0.35995 0.12066
# Poissons Ratio (z) = 0.05689 0.05689
#
# Static dielectric constant tensor:
#      x y z
#    x 3.429530 0.000000 0.000000 
#    y 0.000000 3.429530 0.000000 
#    z 0.000000 0.000000 3.785200 
# 
# 
# High freq. dielectric constant tensor:
#      x y z
#    x 1.798730 0.000000 0.000000 
#    y 0.000000 1.798730 0.000000 
#    z 0.000000 0.000000 1.811600 
# 
# From -- ./inp_files/3858.got.cif
#   From: 2010.03.12/outbox.cif.g09.slc.cpg/sg94_2_cif.got.tgz:3858.got - 2010.04.08 20:48:32.
