data_PCOD8305654
_publ_section_title
;
Structure prediction by ZEFSAII (Michael W. Deem and Ramdas Pophale) SiO2 
 PCOD8305654
Probable space group: P 42 21 2
;
_chemical_formula_sum "Si O2"
_cell_formula_units_Z 40
_cell_length_a 15.799264
_cell_length_b 15.799264
_cell_length_c 7.486037
_cell_angle_alpha 90.000000
_cell_angle_beta 90.000000
_cell_angle_gamma 90.000000
_cell_volume 1868.640173
_symmetry_space_group_name_H-M "P 42 21 2"
_symmetry_group_IT_number 94
_symmetry_cell_setting 'tetragonal'
loop_
_space_group_symop_operation_xyz
x,y,z
1/2-y,1/2+x,1/2+z
-x,-y,z
1/2+y,1/2-x,1/2+z
1/2+x,1/2-y,1/2-z
1/2-x,1/2+y,1/2-z
y,x,-z
-y,-x,-z
loop_
_atom_site_type_symbol
_atom_site_label
_atom_site_fract_x
_atom_site_fract_y
_atom_site_fract_z
Si Si1 0.421058 0.055334 0.180738
Si Si2 0.279909 0.012660 0.758515
Si Si3 0.109644 0.648347 0.662968
Si Si4 0.317591 0.444676 0.077113
Si Si5 0.363699 0.500014 0.454664
O O1 0.452666 0.137522 0.293566
O O2 0.500000 0.000000 0.107702
O O3 0.361687 0.990585 0.290129
O O4 0.370273 0.094852 0.016429
O O5 0.318032 0.106871 0.713186
O O6 0.226112 0.995998 0.581590
O O7 0.222394 0.002075 0.933043
O O8 0.125151 0.748770 0.644996
O O9 0.344295 0.503658 0.242846
O O10 0.400385 0.400385 0.000000
O O11 0.414185 0.414185 0.500000
O O12 0.417525 0.582476 0.500000
#
# Coordination Sequence:
#
# PCOD8305654 Si02
#       5
#     8   8   8   8   8
#     4   9  17  32  57  90 125 165 209 250 313 399
#     4  10  21  39  64  95 131 165 210 271 325 388
#     4  10  20  35  62  94 131 168 210 262 332 402
#     4  11  23  41  64  93 127 167 219 270 325 380
#     4  11  24  43  67  91 122 174 225 273 320 379
#
# _framework density 21.405940999999999
#
# number of rings (size 3 to 8) (size 9 to 14) (size 15 to 20)
#    0.000    1.800    2.000    3.000    0.000    4.800 
#    0.000    0.000    4.400    0.000    0.000    0.000 
#    0.000    0.000    0.000    0.000    0.000    0.000 
#
# Total GULP energy -495610.249193 kJ/mol
# GULP energy per Si atom -12390.256230 kJ/mol
# Density = 2.135722 g / cm^3
# Si number density = 21.405941 Si / 1000 Ang^3
#
#
#
# Elastic Constant Matrix: (Units=GPa)
#
#
# Indices 1 2 3 4 5 6 
#
# 1 93.4998 45.0605 51.5796 0.0000 0.0000 0.0000
# 2 45.0605 93.4980 51.5791 0.0000 0.0000 0.0000
# 3 51.5796 51.5791 120.8936 0.0000 0.0000 0.0000
# 4 0.0000 0.0000 0.0000 31.9605 0.0000 0.0000
# 5 0.0000 0.0000 0.0000 0.0000 31.9595 0.0000
# 6 0.0000 0.0000 0.0000 0.0000 0.0000 23.9780
#
#
#
# Elastic Compliance Matrix: (Units=1/GPa)
#
#
# Indices 1 2 3 4 5 6 
#
# 1 0.015611 -0.005034 -0.004513 0.000000 0.000000 0.000000
# 2 -0.005034 0.015611 -0.004513 0.000000 0.000000 0.000000
# 3 -0.004513 -0.004513 0.012122 0.000000 0.000000 0.000000
# 4 0.000000 0.000000 0.000000 0.031289 0.000000 0.000000
# 5 0.000000 0.000000 0.000000 0.000000 0.031290 0.000000
# 6 0.000000 0.000000 0.000000 0.000000 0.000000 0.041705
#
#
# Mechanical properties :
#
#
# Convention : Reuss Voigt Hill
#
# Bulk Modulus (GPa) = 65.67910 67.14773 66.41342
# Shear Modulus (GPa) = 27.65173 28.22443 27.93808
#
# Velocity S-wave (km/s) = 3.59803 3.63510 3.61661
# Velocity P-wave (km/s) = 6.92895 7.00396 6.96656
#
# Compressibility (1/GPa) = 0.01522554
#
# Stress axis : x y z
#
# Youngs Moduli (GPa) = 64.05889 64.05769 82.49233
#
# Poissons Ratio (x) = 0.32247 0.37225
# Poissons Ratio (y) = 0.32247 0.37226
# Poissons Ratio (z) = 0.28907 0.28907
#
# Static dielectric constant tensor:
#      x y z
#    x 3.936180 0.000000 0.000000 
#    y 0.000000 3.936180 0.000000 
#    z 0.000000 0.000000 3.954310 
# 
# 
# High freq. dielectric constant tensor:
#      x y z
#    x 1.826820 0.000000 0.000000 
#    y 0.000000 1.826820 0.000000 
#    z 0.000000 0.000000 1.847740 
# 
# From -- ./inp_files/1448.got.cif
#   From: 2010.03.12/outbox.cif.g09.slc.cpg/sg94_1_cif.got.tgz:1448.got - 2010.04.08 20:48:32.
