data_PCOD8305930
_publ_section_title
;
Structure prediction by ZEFSAII (Michael W. Deem and Ramdas Pophale) SiO2 
 PCOD8305930
Probable space group: P 43 21 2
;
_chemical_formula_sum "Si O2"
_cell_formula_units_Z 40
_cell_length_a 15.540920
_cell_length_b 15.540920
_cell_length_c 7.287748
_cell_angle_alpha 90.000000
_cell_angle_beta 90.000000
_cell_angle_gamma 90.000000
_cell_volume 1760.138314
_symmetry_space_group_name_H-M "P 43 21 2"
_symmetry_group_IT_number 96
_symmetry_cell_setting 'tetragonal'
loop_
_space_group_symop_operation_xyz
x,y,z
1/2-y,1/2+x,3/4+z
-x,-y,1/2+z
1/2+y,1/2-x,1/4+z
1/2+x,1/2-y,1/4-z
1/2-x,1/2+y,3/4-z
y,x,-z
-y,-x,1/2-z
loop_
_atom_site_type_symbol
_atom_site_label
_atom_site_fract_x
_atom_site_fract_y
_atom_site_fract_z
Si Si1 0.490939 0.228550 0.627288
Si Si2 0.405258 0.545654 0.546637
Si Si3 0.162583 0.715938 0.845472
Si Si4 0.627777 0.279757 0.889375
Si Si5 0.936718 0.587947 0.385929
O O1 0.505544 0.310645 0.493902
O O2 0.398046 0.232980 0.727223
O O3 0.557711 0.219145 0.794938
O O4 0.506765 0.143680 0.507107
O O5 0.476021 0.476021 0.500000
O O6 0.418931 0.581070 0.750000
O O7 0.418563 0.628355 0.418706
O O8 0.195054 0.804947 0.750000
O O9 0.124291 0.657558 0.683423
O O10 0.244221 0.663043 0.919931
O O11 0.707945 0.292055 0.750000
O O12 0.919908 0.491724 0.318958
#
# Coordination Sequence:
#
# PCOD8305930 Si02
#       5
#     8   8   8   8   8
#     4  11  24  40  66  97 128 169 224 284 334 398
#     4  11  23  41  65  93 130 178 224 272 339 416
#     4  12  25  42  66  99 134 169 216 281 343 396
#     4  10  21  42  63  88 127 170 211 262 333 403
#     4  12  25  45  69  95 131 180 228 273 333 409
#
# _framework density 22.725486
#
# number of rings (size 3 to 8) (size 9 to 14) (size 15 to 20)
#    0.000    0.800    0.000    9.600    0.000    4.800 
#    0.000    0.000    0.000    0.000    0.000    0.000 
#    0.000    0.000    0.000    0.000    0.000    0.000 
#
# Total GULP energy -495923.226178 kJ/mol
# GULP energy per Si atom -12398.080654 kJ/mol
# Density = 2.267376 g / cm^3
# Si number density = 22.725486 Si / 1000 Ang^3
#
#
#
# Elastic Constant Matrix: (Units=GPa)
#
#
# Indices 1 2 3 4 5 6 
#
# 1 81.5951 43.5388 34.5219 0.0000 0.0000 0.0000
# 2 43.5388 81.5940 34.5220 0.0000 0.0000 0.0000
# 3 34.5219 34.5220 103.1571 0.0000 0.0000 0.0000
# 4 0.0000 0.0000 0.0000 53.6885 0.0000 0.0000
# 5 0.0000 0.0000 0.0000 0.0000 53.6880 0.0000
# 6 0.0000 0.0000 0.0000 0.0000 0.0000 40.1115
#
#
#
# Elastic Compliance Matrix: (Units=1/GPa)
#
#
# Indices 1 2 3 4 5 6 
#
# 1 0.018039 -0.008238 -0.003280 0.000000 0.000000 0.000000
# 2 -0.008238 0.018039 -0.003280 0.000000 0.000000 0.000000
# 3 -0.003280 -0.003280 0.011889 0.000000 0.000000 0.000000
# 4 0.000000 0.000000 0.000000 0.018626 0.000000 0.000000
# 5 0.000000 0.000000 0.000000 0.000000 0.018626 0.000000
# 6 0.000000 0.000000 0.000000 0.000000 0.000000 0.024931
#
#
# Mechanical properties :
#
#
# Convention : Reuss Voigt Hill
#
# Bulk Modulus (GPa) = 54.43151 54.61240 54.52196
# Shear Modulus (GPa) = 34.27700 39.74849 37.01275
#
# Velocity S-wave (km/s) = 3.88791 4.18673 4.04008
# Velocity P-wave (km/s) = 6.64516 6.88877 6.76806
#
# Compressibility (1/GPa) = 0.01837171
#
# Stress axis : x y z
#
# Youngs Moduli (GPa) = 55.43518 55.43427 84.10911
#
# Poissons Ratio (x) = 0.45666 0.27588
# Poissons Ratio (y) = 0.45667 0.27589
# Poissons Ratio (z) = 0.18183 0.18183
#
# Static dielectric constant tensor:
#      x y z
#    x 4.147900 0.000000 0.000000 
#    y 0.000000 4.147900 0.000000 
#    z 0.000000 0.000000 4.467540 
# 
# 
# High freq. dielectric constant tensor:
#      x y z
#    x 1.896990 0.000000 0.000000 
#    y 0.000000 1.896990 0.000000 
#    z 0.000000 0.000000 1.911690 
# 
# From -- ./inp_files/394.got.cif
#   From: 2010.03.12/outbox.cif.g09.slc.cpg/sg96_1_cif.got.tgz:394.got - 2010.04.08 20:56:49.
