data_PCOD8305351
_publ_section_title
;
Structure prediction by ZEFSAII (Michael W. Deem and Ramdas Pophale) SiO2 
 PCOD8305351
Probable space group: P 41 21 2
;
_chemical_formula_sum "Si O2"
_cell_formula_units_Z 48
_cell_length_a 11.128660
_cell_length_b 11.128660
_cell_length_c 19.236574
_cell_angle_alpha 90.000000
_cell_angle_beta 90.000000
_cell_angle_gamma 90.000000
_cell_volume 2382.393392
_symmetry_space_group_name_H-M "P 41 21 2"
_symmetry_group_IT_number 92
_symmetry_cell_setting 'tetragonal'
loop_
_space_group_symop_operation_xyz
x,y,z
1/2-y,1/2+x,1/4+z
-x,-y,1/2+z
1/2+y,1/2-x,3/4+z
1/2+x,1/2-y,3/4-z
1/2-x,1/2+y,1/4-z
y,x,-z
-y,-x,1/2-z
loop_
_atom_site_type_symbol
_atom_site_label
_atom_site_fract_x
_atom_site_fract_y
_atom_site_fract_z
Si Si1 0.479994 0.377461 0.431690
Si Si2 0.306869 0.482106 0.184582
Si Si3 0.150050 0.040816 0.431751
Si Si4 0.516283 0.310051 0.658415
Si Si5 0.060723 0.543693 0.410690
Si Si6 0.073436 0.602799 0.800677
O O1 0.464638 0.464638 0.500000
O O2 0.607409 0.394134 0.390493
O O3 0.380914 0.404704 0.373684
O O4 0.458838 0.242342 0.455363
O O5 0.397374 0.370164 0.169539
O O6 0.366349 0.605714 0.159149
O O7 0.268822 0.482233 0.264925
O O8 0.181381 0.473437 0.144481
O O9 0.069491 0.069491 0.500000
O O10 0.284146 0.079271 0.451264
O O11 0.536208 0.198755 0.608972
O O12 0.039165 0.497786 0.488568
O O13 0.974711 0.454067 0.370463
#
# Coordination Sequence:
#
# PCOD8305351 Si02
#       6
#     8   8   8   8   8   8
#     4  11  22  42  68  98 128 169 218 271 336 396
#     4  10  22  44  68  88 126 179 217 261 331 393
#     4  11  23  45  69  95 129 171 220 271 334 391
#     4  10  21  44  67  89 126 174 219 260 328 399
#     4  12  25  43  64  98 133 174 219 270 333 387
#     4  12  27  41  66 101 133 167 222 280 330 392
#
# _framework density 20.147807
#
# number of rings (size 3 to 8) (size 9 to 14) (size 15 to 20)
#    0.000    1.000    6.667    1.500    4.667    0.000 
#    6.000    0.000    0.000    0.000    0.000    0.000 
#    0.000    0.000    0.000    0.000    0.000    0.000 
#
# Total GULP energy -595017.393959 kJ/mol
# GULP energy per Si atom -12396.195707 kJ/mol
# Density = 2.010195 g / cm^3
# Si number density = 20.147807 Si / 1000 Ang^3
#
#
#
# Elastic Constant Matrix: (Units=GPa)
#
#
# Indices 1 2 3 4 5 6 
#
# 1 100.2305 10.8776 20.4688 0.0000 0.0000 0.0000
# 2 10.8776 100.2305 20.4688 0.0000 0.0000 0.0000
# 3 20.4688 20.4688 67.4555 0.0000 0.0000 0.0000
# 4 0.0000 0.0000 0.0000 33.2603 0.0000 0.0000
# 5 0.0000 0.0000 0.0000 0.0000 33.2603 0.0000
# 6 0.0000 0.0000 0.0000 0.0000 0.0000 16.5723
#
#
#
# Elastic Compliance Matrix: (Units=1/GPa)
#
#
# Indices 1 2 3 4 5 6 
#
# 1 0.010662 -0.000529 -0.003075 0.000000 0.000000 0.000000
# 2 -0.000529 0.010662 -0.003075 0.000000 0.000000 0.000000
# 3 -0.003075 -0.003075 0.016691 0.000000 0.000000 0.000000
# 4 0.000000 0.000000 0.000000 0.030066 0.000000 0.000000
# 5 0.000000 0.000000 0.000000 0.000000 0.030066 0.000000
# 6 0.000000 0.000000 0.000000 0.000000 0.000000 0.060342
#
#
# Mechanical properties :
#
#
# Convention : Reuss Voigt Hill
#
# Bulk Modulus (GPa) = 40.55532 41.28298 40.91915
# Shear Modulus (GPa) = 27.76765 31.02533 29.39649
#
# Velocity S-wave (km/s) = 3.71644 3.92840 3.82388
# Velocity P-wave (km/s) = 6.21196 6.41178 6.31266
#
# Compressibility (1/GPa) = 0.02465768
#
# Stress axis : x y z
#
# Youngs Moduli (GPa) = 93.78778 93.78778 59.91384
#
# Poissons Ratio (x) = 0.04963 0.18422
# Poissons Ratio (y) = 0.04963 0.18422
# Poissons Ratio (z) = 0.28838 0.28838
#
# Static dielectric constant tensor:
#      x y z
#    x 3.430990 0.000000 0.000000 
#    y 0.000000 3.430990 0.000000 
#    z 0.000000 0.000000 3.390140 
# 
# 
# High freq. dielectric constant tensor:
#      x y z
#    x 1.782830 0.000000 0.000000 
#    y 0.000000 1.782830 0.000000 
#    z 0.000000 0.000000 1.797950 
# 
# From -- ./inp_files/3157.got.cif
#   From: 2010.03.12/outbox.cif.g09.slc.cpg/sg92_2_cif.got.tgz:3157.got - 2010.04.08 20:41:11.
