data_PCOD8305591
_publ_section_title
;
Structure prediction by ZEFSAII (Michael W. Deem and Ramdas Pophale) SiO2 
 PCOD8305591
Probable space group: P 42 2 2
;
_chemical_formula_sum "Si O2"
_cell_formula_units_Z 22
_cell_length_a 5.149048
_cell_length_b 5.149048
_cell_length_c 31.420712
_cell_angle_alpha 90.000000
_cell_angle_beta 90.000000
_cell_angle_gamma 90.000000
_cell_volume 833.047764
_symmetry_space_group_name_H-M "P 42 2 2"
_symmetry_group_IT_number 93
_symmetry_cell_setting 'tetragonal'
loop_
_space_group_symop_operation_xyz
x,y,z
-y,x,1/2+z
-x,-y,z
y,-x,1/2+z
x,-y,-z
-x,y,-z
y,x,1/2-z
-y,-x,1/2-z
loop_
_atom_site_type_symbol
_atom_site_label
_atom_site_fract_x
_atom_site_fract_y
_atom_site_fract_z
Si Si1 0.329507 0.756663 0.296632
Si Si2 0.000000 0.500000 0.500000
Si Si3 0.000000 0.500000 0.361640
Si Si4 0.176171 0.756507 0.928258
O O1 0.500000 0.500000 0.296757
O O2 0.202163 0.797838 0.250000
O O3 0.103068 0.731415 0.331500
O O4 0.500000 0.000000 0.310276
O O5 0.803126 0.678562 0.472973
O O6 0.760430 0.606895 0.390833
O O7 0.000000 0.500000 0.929685
O O8 0.000000 0.000000 0.917625
#
# Coordination Sequence:
#
# PCOD8305591 Si02
#       4
#     8   2   4   8
#     4  11  26  49  79 116 164 223 293 358 425 501
#     4  10  26  54  84 120 164 214 282 350 422 522
#     4  11  28  47  80 118 172 216 286 352 433 502
#     4  11  28  50  82 121 165 219 275 349 430 514
#
# _framework density 26.409046
#
# number of rings (size 3 to 8) (size 9 to 14) (size 15 to 20)
#    0.000    1.091    1.818    0.545   10.182    8.727 
#    0.000    5.455    0.000    0.000    0.000    0.000 
#    0.000    0.000    0.000    0.000    0.000    0.000 
#
# Total GULP energy -272860.002074 kJ/mol
# GULP energy per Si atom -12402.727367 kJ/mol
# Density = 2.634894 g / cm^3
# Si number density = 26.409046 Si / 1000 Ang^3
#
#
#
# Elastic Constant Matrix: (Units=GPa)
#
#
# Indices 1 2 3 4 5 6 
#
# 1 163.9373 76.5868 74.6855 0.0000 0.0000 0.0000
# 2 76.5868 163.9370 74.6855 0.0000 0.0000 0.0000
# 3 74.6855 74.6855 222.1298 0.0000 0.0000 0.0000
# 4 0.0000 0.0000 0.0000 -11.4991 0.0000 0.0000
# 5 0.0000 0.0000 0.0000 0.0000 -11.4987 0.0000
# 6 0.0000 0.0000 0.0000 0.0000 0.0000 75.5757
#
#
#
# Elastic Compliance Matrix: (Units=1/GPa)
#
#
# Indices 1 2 3 4 5 6 
#
# 1 0.008351 -0.003097 -0.001767 0.000000 0.000000 0.000000
# 2 -0.003097 0.008351 -0.001767 0.000000 0.000000 0.000000
# 3 -0.001767 -0.001767 0.005690 0.000000 0.000000 0.000000
# 4 0.000000 0.000000 0.000000 -0.086963 0.000000 0.000000
# 5 0.000000 0.000000 0.000000 0.000000 -0.086966 0.000000
# 6 0.000000 0.000000 0.000000 0.000000 0.000000 0.013232
#
#
# Mechanical properties :
#
#
# Convention : Reuss Voigt Hill
#
# Bulk Modulus (GPa) = 109.50038 111.32443 110.41241
# Shear Modulus (GPa) = -40.98354 32.11867 -4.43243
#
# Velocity S-wave (km/s) = -3.94366 3.49119 -1.29693
# Velocity P-wave (km/s) = 4.56253 7.64831 6.29735
#
# Compressibility (1/GPa) = 0.00913239
#
# Stress axis : x y z
#
# Youngs Moduli (GPa) = 119.73933 119.73913 175.74837
#
# Poissons Ratio (x) = 0.37079 0.31051
# Poissons Ratio (y) = 0.37079 0.31051
# Poissons Ratio (z) = 0.21155 0.21155
#
# Static dielectric constant tensor:
#      x y z
#    x 4.882770 0.000000 0.000000 
#    y 0.000000 4.882770 0.000000 
#    z 0.000000 0.000000 5.306090 
# 
# 
# High freq. dielectric constant tensor:
#      x y z
#    x 2.060060 0.000000 0.000000 
#    y 0.000000 2.060060 0.000000 
#    z 0.000000 0.000000 2.082800 
# 
# From -- ./inp_files/7526.got.cif
#   From: 2010.03.12/outbox.cif.g09.slc.cpg/sg93_4_cif.got.tgz:7526.got - 2010.04.08 20:44:19.
