data_PCOD8305824
_publ_section_title
;
Structure prediction by ZEFSAII (Michael W. Deem and Ramdas Pophale) SiO2 
 PCOD8305824
Probable space group: P 43 2 2
;
_chemical_formula_sum "Si O2"
_cell_formula_units_Z 36
_cell_length_a 12.034890
_cell_length_b 12.034890
_cell_length_c 11.605690
_cell_angle_alpha 90.000000
_cell_angle_beta 90.000000
_cell_angle_gamma 90.000000
_cell_volume 1680.951628
_symmetry_space_group_name_H-M "P 43 2 2"
_symmetry_group_IT_number 95
_symmetry_cell_setting 'tetragonal'
loop_
_space_group_symop_operation_xyz
x,y,z
-y,x,3/4+z
-x,-y,1/2+z
y,-x,1/4+z
x,-y,1/2-z
-x,y,-z
y,x,1/4-z
-y,-x,3/4-z
loop_
_atom_site_type_symbol
_atom_site_label
_atom_site_fract_x
_atom_site_fract_y
_atom_site_fract_z
Si Si1 0.732146 0.579235 0.509450
Si Si2 0.500000 0.663064 0.500000
Si Si3 0.203010 0.202472 0.899173
Si Si4 0.796377 0.046083 0.441844
Si Si5 0.646823 0.805157 0.191805
O O1 0.604185 0.585002 0.465091
O O2 0.738209 0.545605 0.644359
O O3 0.793359 0.697443 0.491359
O O4 0.795458 0.486131 0.434019
O O5 0.096764 0.217537 0.817937
O O6 0.316379 0.203339 0.825112
O O7 0.192617 0.084495 0.962354
O O8 0.904404 0.095597 0.375000
O O9 0.688341 0.078806 0.364458
O O10 0.702968 0.702968 0.125000
#
# Coordination Sequence:
#
# PCOD8305824 Si02
#       5
#     8   4   8   8   8
#     4  11  21  39  63  98 126 180 214 271 338 404
#     4  10  24  38  62  88 142 172 206 276 332 398
#     4  10  20  39  69  93 134 172 227 274 341 398
#     4   9  19  38  69  97 126 180 223 291 330 394
#     4   9  19  33  61  99 130 169 227 275 323 397
#
# _framework density 21.416440999999999
#
# number of rings (size 3 to 8) (size 9 to 14) (size 15 to 20)
#    0.000    2.667    2.222    2.667    3.111    3.556 
#    0.000    2.222   19.556    0.000    0.000    0.000 
#    0.000    0.000    0.000    0.000    0.000    0.000 
#
# Total GULP energy -446184.772961 kJ/mol
# GULP energy per Si atom -12394.021471 kJ/mol
# Density = 2.136770 g / cm^3
# Si number density = 21.416441 Si / 1000 Ang^3
#
#
#
# Elastic Constant Matrix: (Units=GPa)
#
#
# Indices 1 2 3 4 5 6 
#
# 1 148.5609 50.9132 46.0057 0.0000 0.0000 0.0000
# 2 50.9132 148.5615 46.0056 0.0000 0.0000 0.0000
# 3 46.0057 46.0056 99.7429 0.0000 0.0000 0.0000
# 4 0.0000 0.0000 0.0000 18.0997 0.0000 0.0000
# 5 0.0000 0.0000 0.0000 0.0000 18.0998 0.0000
# 6 0.0000 0.0000 0.0000 0.0000 0.0000 10.7613
#
#
#
# Elastic Compliance Matrix: (Units=1/GPa)
#
#
# Indices 1 2 3 4 5 6 
#
# 1 0.008304 -0.001936 -0.002937 0.000000 0.000000 0.000000
# 2 -0.001936 0.008304 -0.002937 0.000000 0.000000 0.000000
# 3 -0.002937 -0.002937 0.012735 0.000000 0.000000 0.000000
# 4 0.000000 0.000000 0.000000 0.055250 0.000000 0.000000
# 5 0.000000 0.000000 0.000000 0.000000 0.055249 0.000000
# 6 0.000000 0.000000 0.000000 0.000000 0.000000 0.092925
#
#
# Mechanical properties :
#
#
# Convention : Reuss Voigt Hill
#
# Bulk Modulus (GPa) = 72.87287 75.85717 74.36502
# Shear Modulus (GPa) = 19.76565 26.32155 23.04360
#
# Velocity S-wave (km/s) = 3.04126 3.50956 3.28377
# Velocity P-wave (km/s) = 6.81416 7.20553 7.01258
#
# Compressibility (1/GPa) = 0.01372253
#
# Stress axis : x y z
#
# Youngs Moduli (GPa) = 120.41727 120.41787 78.52197
#
# Poissons Ratio (x) = 0.23318 0.23064
# Poissons Ratio (y) = 0.23318 0.23063
# Poissons Ratio (z) = 0.35369 0.35369
#
# Static dielectric constant tensor:
#      x y z
#    x 3.741810 0.000000 0.000000 
#    y 0.000000 3.741800 0.000000 
#    z 0.000000 0.000000 3.721610 
# 
# 
# High freq. dielectric constant tensor:
#      x y z
#    x 1.823780 0.000000 0.000000 
#    y 0.000000 1.823780 0.000000 
#    z 0.000000 0.000000 1.830050 
# 
# From -- ./inp_files/3571.got.cif
#   From: 2010.03.12/outbox.cif.g09.slc.cpg/sg95_2_cif.got.tgz:3571.got - 2010.04.08 20:51:55.
