data_PCOD8305588
_publ_section_title
;
Structure prediction by ZEFSAII (Michael W. Deem and Ramdas Pophale) SiO2 
 PCOD8305588
Probable space group: P 42 2 2
;
_chemical_formula_sum "Si O2"
_cell_formula_units_Z 58
_cell_length_a 16.881990
_cell_length_b 16.881990
_cell_length_c 9.410408
_cell_angle_alpha 90.000000
_cell_angle_beta 90.000000
_cell_angle_gamma 90.000000
_cell_volume 2681.981208
_symmetry_space_group_name_H-M "P 42 2 2"
_symmetry_group_IT_number 93
_symmetry_cell_setting 'tetragonal'
loop_
_space_group_symop_operation_xyz
x,y,z
-y,x,1/2+z
-x,-y,z
y,-x,1/2+z
x,-y,-z
-x,y,-z
y,x,1/2-z
-y,-x,1/2-z
loop_
_atom_site_type_symbol
_atom_site_label
_atom_site_fract_x
_atom_site_fract_y
_atom_site_fract_z
Si Si1 0.190773 0.679469 0.778517
Si Si2 0.621160 0.885644 0.836138
Si Si3 0.798799 0.092021 0.154629
Si Si4 0.583675 0.198608 0.440731
Si Si5 0.803030 0.914826 0.169031
Si Si6 0.747754 0.588700 0.474036
Si Si7 0.422622 0.620384 0.405498
Si Si8 0.000000 0.500000 0.500000
O O1 0.246546 0.753455 0.750000
O O2 0.104710 0.713119 0.728585
O O3 0.226954 0.607096 0.687640
O O4 0.191432 0.653013 0.942033
O O5 0.706308 0.924047 0.818806
O O6 0.594960 0.866091 0.678430
O O7 0.638674 0.803752 0.921702
O O8 0.556921 0.944624 0.905271
O O9 0.840353 0.159648 0.250000
O O10 0.831169 0.005039 0.188599
O O11 0.810089 0.115394 0.991940
O O12 0.500000 0.174073 0.500000
O O13 0.579735 0.286453 0.374014
O O14 0.869967 0.869967 0.250000
O O15 0.773599 0.500000 0.500000
O O16 0.654220 0.599404 0.500462
O O17 0.500000 0.596100 0.500000
O O18 0.422750 0.577251 0.250000
#
# Coordination Sequence:
#
# PCOD8305588 Si02
#       8
#     8   8   8   8   8   8   8   2
#     4  11  23  41  69 102 143 187 236 299 364 435
#     4  12  26  45  78 104 146 192 246 300 362 445
#     4  11  26  44  73 109 143 187 247 300 361 446
#     4  11  25  43  69 107 143 186 243 303 365 434
#     4  10  24  47  71 102 145 189 231 296 372 438
#     4  12  24  41  72  98 137 195 243 294 368 435
#     4  11  25  45  71 104 148 189 251 311 376 438
#     4  12  28  52  74 112 150 202 246 304 376 452
#
# _framework density 21.625805
#
# number of rings (size 3 to 8) (size 9 to 14) (size 15 to 20)
#    0.000    0.828    4.828    1.655    7.724    1.103 
#    0.000    3.793    0.000    0.000    0.000    0.000 
#    0.000    0.000    0.000    0.000    0.000    0.000 
#
# Total GULP energy -718952.405606 kJ/mol
# GULP energy per Si atom -12395.731131 kJ/mol
# Density = 2.157658 g / cm^3
# Si number density = 21.625805 Si / 1000 Ang^3
#
#
#
# Elastic Constant Matrix: (Units=GPa)
#
#
# Indices 1 2 3 4 5 6 
#
# 1 104.4080 51.2437 64.7503 0.0000 0.0000 0.0000
# 2 51.2437 104.4072 64.7484 0.0000 0.0000 0.0000
# 3 64.7503 64.7484 158.3426 0.0000 0.0000 0.0000
# 4 0.0000 0.0000 0.0000 44.9360 0.0000 0.0000
# 5 0.0000 0.0000 0.0000 0.0000 44.9358 0.0000
# 6 0.0000 0.0000 0.0000 0.0000 0.0000 28.5144
#
#
#
# Elastic Compliance Matrix: (Units=1/GPa)
#
#
# Indices 1 2 3 4 5 6 
#
# 1 0.014274 -0.004536 -0.003982 0.000000 0.000000 0.000000
# 2 -0.004536 0.014274 -0.003982 0.000000 0.000000 0.000000
# 3 -0.003982 -0.003982 0.009572 0.000000 0.000000 0.000000
# 4 0.000000 0.000000 0.000000 0.022254 0.000000 0.000000
# 5 0.000000 0.000000 0.000000 0.000000 0.022254 0.000000
# 6 0.000000 0.000000 0.000000 0.000000 0.000000 0.035070
#
#
# Mechanical properties :
#
#
# Convention : Reuss Voigt Hill
#
# Bulk Modulus (GPa) = 76.22268 80.96030 78.59149
# Shear Modulus (GPa) = 33.99747 36.10491 35.05119
#
# Velocity S-wave (km/s) = 3.96925 4.09042 4.03029
# Velocity P-wave (km/s) = 7.50528 7.73478 7.62090
#
# Compressibility (1/GPa) = 0.01311945
#
# Stress axis : x y z
#
# Youngs Moduli (GPa) = 70.05914 70.05981 104.47246
#
# Poissons Ratio (x) = 0.31780 0.41600
# Poissons Ratio (y) = 0.31780 0.41598
# Poissons Ratio (z) = 0.27897 0.27896
#
# Static dielectric constant tensor:
#      x y z
#    x 3.975200 0.000000 0.000000 
#    y 0.000000 3.975200 0.000000 
#    z 0.000000 0.000000 2.416250 
# 
# 
# High freq. dielectric constant tensor:
#      x y z
#    x 1.852510 0.000000 0.000000 
#    y 0.000000 1.852510 0.000000 
#    z 0.000000 0.000000 1.856030 
# 
# From -- ./inp_files/2156.got.cif
#   From: 2010.03.12/outbox.cif.g09.slc.cpg/sg93_2_cif.got.tgz:2156.got - 2010.04.08 20:44:19.
