data_PCOD8305436
_publ_section_title
;
Structure prediction by ZEFSAII (Michael W. Deem and Ramdas Pophale) SiO2 
 PCOD8305436
Probable space group: P 41 21 2
;
_chemical_formula_sum "Si O2"
_cell_formula_units_Z 36
_cell_length_a 11.265149
_cell_length_b 11.265149
_cell_length_c 13.822670
_cell_angle_alpha 90.000000
_cell_angle_beta 90.000000
_cell_angle_gamma 90.000000
_cell_volume 1754.146336
_symmetry_space_group_name_H-M "P 41 21 2"
_symmetry_group_IT_number 92
_symmetry_cell_setting 'tetragonal'
loop_
_space_group_symop_operation_xyz
x,y,z
1/2-y,1/2+x,1/4+z
-x,-y,1/2+z
1/2+y,1/2-x,3/4+z
1/2+x,1/2-y,3/4-z
1/2-x,1/2+y,1/4-z
y,x,-z
-y,-x,1/2-z
loop_
_atom_site_type_symbol
_atom_site_label
_atom_site_fract_x
_atom_site_fract_y
_atom_site_fract_z
Si Si1 0.000671 0.633618 0.525026
Si Si2 0.790227 0.209774 0.250000
Si Si3 0.748702 0.854765 0.819138
Si Si4 0.554863 0.248439 0.534977
Si Si5 0.070978 0.622686 0.095025
O O1 0.137307 0.639102 0.493201
O O2 0.969578 0.738603 0.600247
O O3 0.908898 0.654691 0.436658
O O4 0.991883 0.501156 0.568867
O O5 0.743556 0.271608 0.152189
O O6 0.927958 0.241128 0.266643
O O7 0.867208 0.861098 0.751525
O O8 0.640321 0.824626 0.746605
O O9 0.724272 0.978620 0.873232
#
# Coordination Sequence:
#
# PCOD8305436 Si02
#       5
#     8   4   8   8   8
#     4   9  18  37  64  87 118 156 223 246 293 381
#     4  12  24  36  60  94 126 158 208 266 310 354
#     4  11  23  38  65  92 126 159 210 264 310 365
#     4  11  21  38  60  96 121 164 205 266 308 371
#     4   9  20  39  63  92 116 164 209 259 304 369
#
# _framework density 20.522804000000001
#
# number of rings (size 3 to 8) (size 9 to 14) (size 15 to 20)
#    0.000    1.778    4.444    0.000    3.111    0.889 
#    0.000    6.667    4.889    0.000    0.000    0.000 
#    0.000    0.000    0.000    0.000    0.000    0.000 
#
# Total GULP energy -446093.823952 kJ/mol
# GULP energy per Si atom -12391.495110 kJ/mol
# Density = 2.047609 g / cm^3
# Si number density = 20.522804 Si / 1000 Ang^3
#
#
#
# Elastic Constant Matrix: (Units=GPa)
#
#
# Indices 1 2 3 4 5 6 
#
# 1 47.5374 15.4341 27.8118 0.0000 0.0000 0.0000
# 2 15.4341 47.5364 27.8117 0.0000 0.0000 0.0000
# 3 27.8118 27.8117 123.8169 0.0000 0.0000 0.0000
# 4 0.0000 0.0000 0.0000 35.2406 0.0000 0.0000
# 5 0.0000 0.0000 0.0000 0.0000 35.2405 0.0000
# 6 0.0000 0.0000 0.0000 0.0000 0.0000 19.6108
#
#
#
# Elastic Compliance Matrix: (Units=1/GPa)
#
#
# Indices 1 2 3 4 5 6 
#
# 1 0.025480 -0.005669 -0.004450 0.000000 0.000000 0.000000
# 2 -0.005669 0.025481 -0.004450 0.000000 0.000000 0.000000
# 3 -0.004450 -0.004450 0.010076 0.000000 0.000000 0.000000
# 4 0.000000 0.000000 0.000000 0.028376 0.000000 0.000000
# 5 0.000000 0.000000 0.000000 0.000000 0.028376 0.000000
# 6 0.000000 0.000000 0.000000 0.000000 0.000000 0.050992
#
#
# Mechanical properties :
#
#
# Convention : Reuss Voigt Hill
#
# Bulk Modulus (GPa) = 31.35010 40.11178 35.73094
# Shear Modulus (GPa) = 23.97473 27.87392 25.92433
#
# Velocity S-wave (km/s) = 3.42160 3.68936 3.55800
# Velocity P-wave (km/s) = 5.56046 6.14296 5.85895
#
# Compressibility (1/GPa) = 0.03189783
#
# Stress axis : x y z
#
# Youngs Moduli (GPa) = 39.24615 39.24525 99.25014
#
# Poissons Ratio (x) = 0.22250 0.44165
# Poissons Ratio (y) = 0.22250 0.44167
# Poissons Ratio (z) = 0.17464 0.17464
#
# Static dielectric constant tensor:
#      x y z
#    x 3.407270 0.000000 0.000000 
#    y 0.000000 3.407280 0.000000 
#    z 0.000000 0.000000 4.095050 
# 
# 
# High freq. dielectric constant tensor:
#      x y z
#    x 1.771150 0.000000 0.000000 
#    y 0.000000 1.771150 0.000000 
#    z 0.000000 0.000000 1.828150 
# 
# From -- ./inp_files/2556.got.cif
#   From: 2010.03.12/outbox.cif.g09.slc.cpg/sg92_2_cif.got.tgz:2556.got - 2010.04.08 20:41:11.
