data_PCOD8305370
_publ_section_title
;
Structure prediction by ZEFSAII (Michael W. Deem and Ramdas Pophale) SiO2 
 PCOD8305370
Probable space group: P 41 21 2
;
_chemical_formula_sum "Si O2"
_cell_formula_units_Z 48
_cell_length_a 12.213759
_cell_length_b 12.213759
_cell_length_c 16.086559
_cell_angle_alpha 90.000000
_cell_angle_beta 90.000000
_cell_angle_gamma 90.000000
_cell_volume 2399.727060
_symmetry_space_group_name_H-M "P 41 21 2"
_symmetry_group_IT_number 92
_symmetry_cell_setting 'tetragonal'
loop_
_space_group_symop_operation_xyz
x,y,z
1/2-y,1/2+x,1/4+z
-x,-y,1/2+z
1/2+y,1/2-x,3/4+z
1/2+x,1/2-y,3/4-z
1/2-x,1/2+y,1/4-z
y,x,-z
-y,-x,1/2-z
loop_
_atom_site_type_symbol
_atom_site_label
_atom_site_fract_x
_atom_site_fract_y
_atom_site_fract_z
Si Si1 0.151440 0.984898 0.130730
Si Si2 0.029618 0.447545 0.406309
Si Si3 0.217457 0.541065 0.515358
Si Si4 0.539346 0.539346 0.000000
Si Si5 0.768502 0.247524 0.905856
Si Si6 0.671657 0.328344 0.750000
Si Si7 0.862014 0.445931 0.546122
O O1 0.162738 0.867226 0.090026
O O2 0.178799 0.060467 0.051878
O O3 0.242507 0.996040 0.204333
O O4 0.032417 0.006584 0.169319
O O5 0.915410 0.431988 0.455746
O O6 0.018423 0.555642 0.350784
O O7 0.135929 0.464691 0.462865
O O8 0.051919 0.336186 0.356062
O O9 0.334094 0.480758 0.521994
O O10 0.232297 0.663298 0.479384
O O11 0.767435 0.315693 0.818792
O O12 0.670648 0.161093 0.912326
#
# Coordination Sequence:
#
# PCOD8305370 Si02
#       7
#     8   8   8   4   8   4   8
#     4  11  24  38  68  93 136 166 215 278 328 396
#     4  10  24  42  65  95 126 180 220 270 320 407
#     4  11  24  42  67  92 136 174 225 265 337 398
#     4  12  25  46  58 101 134 178 206 278 331 402
#     4  11  23  38  68  99 128 170 213 285 329 390
#     4  10  23  40  58 103 124 168 214 262 341 382
#     4  10  22  40  63  97 126 160 223 274 325 379
#
# _framework density 20.002275000000001
#
# number of rings (size 3 to 8) (size 9 to 14) (size 15 to 20)
#    0.000    1.333    5.000    0.500    9.333    2.667 
#    0.000    0.000    0.000    0.000    0.000    0.000 
#    0.000    0.000    0.000    0.000    0.000    0.000 
#
# Total GULP energy -594918.551896 kJ/mol
# GULP energy per Si atom -12394.136498 kJ/mol
# Density = 1.995675 g / cm^3
# Si number density = 20.002275 Si / 1000 Ang^3
#
#
#
# Elastic Constant Matrix: (Units=GPa)
#
#
# Indices 1 2 3 4 5 6 
#
# 1 102.6547 40.3871 19.8262 0.0000 0.0000 0.0000
# 2 40.3871 102.6551 19.8271 0.0000 0.0000 0.0000
# 3 19.8262 19.8271 80.5286 0.0000 0.0000 0.0000
# 4 0.0000 0.0000 0.0000 22.5646 0.0000 0.0000
# 5 0.0000 0.0000 0.0000 0.0000 22.5643 0.0000
# 6 0.0000 0.0000 0.0000 0.0000 0.0000 22.6344
#
#
#
# Elastic Compliance Matrix: (Units=1/GPa)
#
#
# Indices 1 2 3 4 5 6 
#
# 1 0.011781 -0.004278 -0.001847 0.000000 0.000000 0.000000
# 2 -0.004278 0.011781 -0.001847 0.000000 0.000000 0.000000
# 3 -0.001847 -0.001847 0.013328 0.000000 0.000000 0.000000
# 4 0.000000 0.000000 0.000000 0.044317 0.000000 0.000000
# 5 0.000000 0.000000 0.000000 0.000000 0.044318 0.000000
# 6 0.000000 0.000000 0.000000 0.000000 0.000000 0.044180
#
#
# Mechanical properties :
#
#
# Convention : Reuss Voigt Hill
#
# Bulk Modulus (GPa) = 47.74524 49.54657 48.64590
# Shear Modulus (GPa) = 25.95608 27.27253 26.61431
#
# Velocity S-wave (km/s) = 3.60621 3.69653 3.65165
# Velocity P-wave (km/s) = 6.42350 6.56074 6.49248
#
# Compressibility (1/GPa) = 0.02094450
#
# Stress axis : x y z
#
# Youngs Moduli (GPa) = 84.87988 84.87985 75.03235
#
# Poissons Ratio (x) = 0.36314 0.13860
# Poissons Ratio (y) = 0.36314 0.13861
# Poissons Ratio (z) = 0.15679 0.15681
#
# Static dielectric constant tensor:
#      x y z
#    x 3.690130 0.000000 0.000000 
#    y 0.000000 3.690120 0.000000 
#    z 0.000000 0.000000 3.696410 
# 
# 
# High freq. dielectric constant tensor:
#      x y z
#    x 1.786270 0.000000 0.000000 
#    y 0.000000 1.786270 0.000000 
#    z 0.000000 0.000000 1.769780 
# 
# From -- ./inp_files/3189.got.cif
#   From: 2010.03.12/outbox.cif.g09.slc.cpg/sg92_2_cif.got.tgz:3189.got - 2010.04.08 20:41:11.
