data_PCOD8305651
_publ_section_title
;
Structure prediction by ZEFSAII (Michael W. Deem and Ramdas Pophale) SiO2 
 PCOD8305651
Probable space group: P 42 21 2
;
_chemical_formula_sum "Si O2"
_cell_formula_units_Z 48
_cell_length_a 11.433661
_cell_length_b 11.433661
_cell_length_c 19.229522
_cell_angle_alpha 90.000000
_cell_angle_beta 90.000000
_cell_angle_gamma 90.000000
_cell_volume 2513.848564
_symmetry_space_group_name_H-M "P 42 21 2"
_symmetry_group_IT_number 94
_symmetry_cell_setting 'tetragonal'
loop_
_space_group_symop_operation_xyz
x,y,z
1/2-y,1/2+x,1/2+z
-x,-y,z
1/2+y,1/2-x,1/2+z
1/2+x,1/2-y,1/2-z
1/2-x,1/2+y,1/2-z
y,x,-z
-y,-x,-z
loop_
_atom_site_type_symbol
_atom_site_label
_atom_site_fract_x
_atom_site_fract_y
_atom_site_fract_z
Si Si1 0.978387 0.183379 0.045020
Si Si2 0.490099 0.138032 0.573195
Si Si3 0.190658 0.777178 0.846737
Si Si4 0.126359 0.116976 0.710456
Si Si5 0.133608 0.858455 0.698737
Si Si6 0.297755 0.673443 0.361605
O O1 0.892676 0.208531 0.108398
O O2 0.109100 0.160190 0.075038
O O3 0.926682 0.073319 0.000000
O O4 0.987312 0.302637 0.002196
O O5 0.372632 0.172593 0.612953
O O6 0.595870 0.186349 0.619381
O O7 0.500000 0.000000 0.563849
O O8 0.315030 0.725326 0.827507
O O9 0.123952 0.811829 0.777067
O O10 0.126725 0.137248 0.793399
O O11 0.999205 0.123450 0.675702
O O12 0.188389 0.990356 0.696424
O O13 0.198891 0.761585 0.650823
#
# Coordination Sequence:
#
# PCOD8305651 Si02
#       6
#     8   8   8   8   8   8
#     4  10  23  39  62  85 117 161 206 256 299 370
#     4  11  23  38  57  82 117 157 198 247 295 355
#     4  10  20  37  55  85 113 152 193 241 309 352
#     4  10  20  36  59  85 119 156 192 248 306 374
#     4  10  20  35  58  84 118 153 190 248 299 377
#     4  11  21  37  58  89 117 154 205 250 310 364
#
# _framework density 19.094228000000001
#
# number of rings (size 3 to 8) (size 9 to 14) (size 15 to 20)
#    0.000    1.667    3.333    1.500    0.000    6.000 
#    0.000    0.000    0.000    0.000    0.000   10.500 
#    0.000    0.000    0.000    0.000    0.000    0.000 
#
# Total GULP energy -594829.448139 kJ/mol
# GULP energy per Si atom -12392.280170 kJ/mol
# Density = 1.905077 g / cm^3
# Si number density = 19.094228 Si / 1000 Ang^3
#
#
#
# Elastic Constant Matrix: (Units=GPa)
#
#
# Indices 1 2 3 4 5 6 
#
# 1 108.5949 40.6149 30.9815 0.0000 0.0000 0.0000
# 2 40.6149 108.5947 30.9811 0.0000 0.0000 0.0000
# 3 30.9815 30.9811 71.4008 0.0000 0.0000 0.0000
# 4 0.0000 0.0000 0.0000 20.2120 0.0000 0.0000
# 5 0.0000 0.0000 0.0000 0.0000 20.2118 0.0000
# 6 0.0000 0.0000 0.0000 0.0000 0.0000 31.2811
#
#
#
# Elastic Compliance Matrix: (Units=1/GPa)
#
#
# Indices 1 2 3 4 5 6 
#
# 1 0.011443 -0.003268 -0.003547 0.000000 0.000000 0.000000
# 2 -0.003268 0.011443 -0.003547 0.000000 0.000000 0.000000
# 3 -0.003547 -0.003547 0.017084 0.000000 0.000000 0.000000
# 4 0.000000 0.000000 0.000000 0.049475 0.000000 0.000000
# 5 0.000000 0.000000 0.000000 0.000000 0.049476 0.000000
# 6 0.000000 0.000000 0.000000 0.000000 0.000000 0.031968
#
#
# Mechanical properties :
#
#
# Convention : Reuss Voigt Hill
#
# Bulk Modulus (GPa) = 51.96152 54.86059 53.41106
# Shear Modulus (GPa) = 25.24897 26.74184 25.99541
#
# Velocity S-wave (km/s) = 3.64034 3.74641 3.69376
# Velocity P-wave (km/s) = 6.70386 6.89261 6.79889
#
# Compressibility (1/GPa) = 0.01924501
#
# Stress axis : x y z
#
# Youngs Moduli (GPa) = 87.39237 87.39257 58.53512
#
# Poissons Ratio (x) = 0.28556 0.20764
# Poissons Ratio (y) = 0.28556 0.20763
# Poissons Ratio (z) = 0.31000 0.30999
#
# Static dielectric constant tensor:
#      x y z
#    x 3.643490 0.000000 0.000000 
#    y 0.000000 3.643490 0.000000 
#    z 0.000000 0.000000 3.444910 
# 
# 
# High freq. dielectric constant tensor:
#      x y z
#    x 1.746090 0.000000 0.000000 
#    y 0.000000 1.746090 0.000000 
#    z 0.000000 0.000000 1.734440 
# 
# From -- ./inp_files/4112.got.cif
#   From: 2010.03.12/outbox.cif.g09.slc.cpg/sg94_3_cif.got.tgz:4112.got - 2010.04.08 20:48:32.
