data_PCOD8305888
_publ_section_title
;
Structure prediction by ZEFSAII (Michael W. Deem and Ramdas Pophale) SiO2 
 PCOD8305888
Probable space group: P 43 21 2
;
_chemical_formula_sum "Si O2"
_cell_formula_units_Z 48
_cell_length_a 15.099784
_cell_length_b 15.099784
_cell_length_c 9.804391
_cell_angle_alpha 90.000000
_cell_angle_beta 90.000000
_cell_angle_gamma 90.000000
_cell_volume 2235.435236
_symmetry_space_group_name_H-M "P 43 21 2"
_symmetry_group_IT_number 96
_symmetry_cell_setting 'tetragonal'
loop_
_space_group_symop_operation_xyz
x,y,z
1/2-y,1/2+x,3/4+z
-x,-y,1/2+z
1/2+y,1/2-x,1/4+z
1/2+x,1/2-y,1/4-z
1/2-x,1/2+y,3/4-z
y,x,-z
-y,-x,1/2-z
loop_
_atom_site_type_symbol
_atom_site_label
_atom_site_fract_x
_atom_site_fract_y
_atom_site_fract_z
Si Si1 0.762831 0.496125 0.557142
Si Si2 0.669828 0.349314 0.407901
Si Si3 0.826768 0.214454 0.401196
Si Si4 0.931757 0.558244 0.896949
Si Si5 0.702627 0.954922 0.716125
Si Si6 0.073848 0.701560 0.529619
O O1 0.680994 0.441354 0.490289
O O2 0.734097 0.568039 0.674397
O O3 0.836471 0.431036 0.619655
O O4 0.809109 0.551447 0.437764
O O5 0.639064 0.360937 0.250000
O O6 0.765184 0.301150 0.413039
O O7 0.593690 0.296166 0.492383
O O8 0.823478 0.176523 0.250000
O O9 0.788074 0.136563 0.498608
O O10 0.963270 0.501388 0.767367
O O11 0.828442 0.537924 0.940675
O O12 0.626097 0.886637 0.755956
O O13 0.706688 0.984612 0.558211
#
# Coordination Sequence:
#
# PCOD8305888 Si02
#       6
#     8   8   8   8   8   8
#     4  11  21  35  61  96 124 170 226 271 323 399
#     4  10  19  36  61  96 128 170 225 269 338 402
#     4   8  18  33  53  91 127 161 209 267 325 388
#     4  12  25  37  61 100 138 169 215 276 346 397
#     4  11  21  36  59 100 131 167 213 275 342 397
#     4  10  20  34  62  95 133 162 214 280 326 393
#
# _framework density 21.472329999999999
#
# number of rings (size 3 to 8) (size 9 to 14) (size 15 to 20)
#    0.000    1.667    3.333    3.000    2.333    0.000 
#    0.000    0.833    3.667    0.000   69.333    0.000 
#    0.000    0.000    0.000    0.000    0.000    0.000 
#
# Total GULP energy -594628.743881 kJ/mol
# GULP energy per Si atom -12388.098831 kJ/mol
# Density = 2.142346 g / cm^3
# Si number density = 21.472330 Si / 1000 Ang^3
#
#
#
# Elastic Constant Matrix: (Units=GPa)
#
#
# Indices 1 2 3 4 5 6 
#
# 1 82.1098 44.9559 25.5015 0.0000 0.0000 0.0000
# 2 44.9559 82.1101 25.5016 0.0000 0.0000 0.0000
# 3 25.5015 25.5016 56.8644 0.0000 0.0000 0.0000
# 4 0.0000 0.0000 0.0000 28.0906 0.0000 0.0000
# 5 0.0000 0.0000 0.0000 0.0000 28.0906 0.0000
# 6 0.0000 0.0000 0.0000 0.0000 0.0000 25.9885
#
#
#
# Elastic Compliance Matrix: (Units=1/GPa)
#
#
# Indices 1 2 3 4 5 6 
#
# 1 0.018256 -0.008659 -0.004304 0.000000 0.000000 0.000000
# 2 -0.008659 0.018256 -0.004304 0.000000 0.000000 0.000000
# 3 -0.004304 -0.004304 0.021446 0.000000 0.000000 0.000000
# 4 0.000000 0.000000 0.000000 0.035599 0.000000 0.000000
# 5 0.000000 0.000000 0.000000 0.000000 0.035599 0.000000
# 6 0.000000 0.000000 0.000000 0.000000 0.000000 0.038479
#
#
# Mechanical properties :
#
#
# Convention : Reuss Voigt Hill
#
# Bulk Modulus (GPa) = 42.68991 45.88914 44.28952
# Shear Modulus (GPa) = 23.81204 24.77562 24.29383
#
# Velocity S-wave (km/s) = 3.33372 3.40051 3.36728
# Velocity P-wave (km/s) = 5.89430 6.06923 5.98241
#
# Compressibility (1/GPa) = 0.02342474
#
# Stress axis : x y z
#
# Youngs Moduli (GPa) = 54.77556 54.77580 46.62834
#
# Poissons Ratio (x) = 0.47429 0.20070
# Poissons Ratio (y) = 0.47428 0.20070
# Poissons Ratio (z) = 0.23576 0.23576
#
# Static dielectric constant tensor:
#      x y z
#    x 3.997430 0.000000 0.000000 
#    y 0.000000 3.997420 0.000000 
#    z 0.000000 0.000000 3.626890 
# 
# 
# High freq. dielectric constant tensor:
#      x y z
#    x 1.829810 0.000000 0.000000 
#    y 0.000000 1.829810 0.000000 
#    z 0.000000 0.000000 1.814440 
# 
# From -- ./inp_files/2174.got.cif
#   From: 2010.03.12/outbox.cif.g09.slc.cpg/sg96_2_cif.got.tgz:2174.got - 2010.04.08 20:56:49.
