data_PCOD8305607
_publ_section_title
;
Structure prediction by ZEFSAII (Michael W. Deem and Ramdas Pophale) SiO2 
 PCOD8305607
Probable space group: P 42 2 2
;
_chemical_formula_sum "Si O2"
_cell_formula_units_Z 20
_cell_length_a 10.784316
_cell_length_b 10.784316
_cell_length_c 7.375033
_cell_angle_alpha 90.000000
_cell_angle_beta 90.000000
_cell_angle_gamma 90.000000
_cell_volume 857.727191
_symmetry_space_group_name_H-M "P 42 2 2"
_symmetry_group_IT_number 93
_symmetry_cell_setting 'tetragonal'
loop_
_space_group_symop_operation_xyz
x,y,z
-y,x,1/2+z
-x,-y,z
y,-x,1/2+z
x,-y,-z
-x,y,-z
y,x,1/2-z
-y,-x,1/2-z
loop_
_atom_site_type_symbol
_atom_site_label
_atom_site_fract_x
_atom_site_fract_y
_atom_site_fract_z
Si Si1 0.734402 0.265599 0.250000
Si Si2 0.485420 0.855916 0.788201
Si Si3 0.235495 0.868142 0.591238
O O1 0.769749 0.407220 0.199990
O O2 0.809135 0.224556 0.431046
O O3 0.356269 0.815655 0.698643
O O4 0.500000 0.000000 0.739977
O O5 0.500000 0.830421 0.000000
O O6 0.129793 0.870208 0.750000
O O7 0.258105 0.000000 0.500000
#
# Coordination Sequence:
#
# PCOD8305607 Si02
#       3
#     4   8   8
#     4  12  24  42  76 110 144 198 262 314 380 468
#     4  11  23  44  76 104 144 199 255 314 387 453
#     4  12  26  47  75 108 151 204 255 317 388 467
#
# _framework density 23.317437000000002
#
# number of rings (size 3 to 8) (size 9 to 14) (size 15 to 20)
#    0.000    0.400    8.000    1.200    0.000    1.600 
#    0.000    4.000    0.000    0.000    0.000    0.000 
#    0.000    0.000    0.000    0.000    0.000    0.000 
#
# Total GULP energy -247812.249078 kJ/mol
# GULP energy per Si atom -12390.612454 kJ/mol
# Density = 2.326437 g / cm^3
# Si number density = 23.317437 Si / 1000 Ang^3
#
#
#
# Elastic Constant Matrix: (Units=GPa)
#
#
# Indices 1 2 3 4 5 6 
#
# 1 73.7092 56.3402 38.1424 0.0000 0.0000 0.0000
# 2 56.3402 73.7075 38.1411 0.0000 0.0000 0.0000
# 3 38.1424 38.1411 198.3365 0.0000 0.0000 0.0000
# 4 0.0000 0.0000 0.0000 36.5351 0.0000 0.0000
# 5 0.0000 0.0000 0.0000 0.0000 36.5355 0.0000
# 6 0.0000 0.0000 0.0000 0.0000 0.0000 37.2042
#
#
#
# Elastic Compliance Matrix: (Units=1/GPa)
#
#
# Indices 1 2 3 4 5 6 
#
# 1 0.033122 -0.024455 -0.001667 0.000000 0.000000 0.000000
# 2 -0.024455 0.033122 -0.001667 0.000000 0.000000 0.000000
# 3 -0.001667 -0.001667 0.005683 0.000000 0.000000 0.000000
# 4 0.000000 0.000000 0.000000 0.027371 0.000000 0.000000
# 5 0.000000 0.000000 0.000000 0.000000 0.027371 0.000000
# 6 0.000000 0.000000 0.000000 0.000000 0.000000 0.026879
#
#
# Mechanical properties :
#
#
# Convention : Reuss Voigt Hill
#
# Bulk Modulus (GPa) = 61.16131 67.88894 64.52512
# Shear Modulus (GPa) = 23.30204 36.26360 29.78282
#
# Velocity S-wave (km/s) = 3.16466 3.94790 3.57778
# Velocity P-wave (km/s) = 6.29605 7.06820 6.69327
#
# Compressibility (1/GPa) = 0.01635021
#
# Stress axis : x y z
#
# Youngs Moduli (GPa) = 30.19182 30.19129 175.96345
#
# Poissons Ratio (x) = 0.73832 0.29331
# Poissons Ratio (y) = 0.73833 0.29327
# Poissons Ratio (z) = 0.05033 0.05032
#
# Static dielectric constant tensor:
#      x y z
#    x 4.029990 0.000000 0.000000 
#    y 0.000000 4.029980 0.000000 
#    z 0.000000 0.000000 4.845990 
# 
# 
# High freq. dielectric constant tensor:
#      x y z
#    x 1.897740 0.000000 0.000000 
#    y 0.000000 1.897740 0.000000 
#    z 0.000000 0.000000 1.965860 
# 
# From -- ./inp_files/1146.got.cif
#   From: 2010.03.12/outbox.cif.g09.slc.cpg/sg93_1_cif.got.tgz:1146.got - 2010.04.08 20:44:19.
