data_PCOD8305900
_publ_section_title
;
Structure prediction by ZEFSAII (Michael W. Deem and Ramdas Pophale) SiO2 
 PCOD8305900
Probable space group: P 43 21 2
;
_chemical_formula_sum "Si O2"
_cell_formula_units_Z 32
_cell_length_a 13.130958
_cell_length_b 13.130958
_cell_length_c 7.477357
_cell_angle_alpha 90.000000
_cell_angle_beta 90.000000
_cell_angle_gamma 90.000000
_cell_volume 1289.261282
_symmetry_space_group_name_H-M "P 43 21 2"
_symmetry_group_IT_number 96
_symmetry_cell_setting 'tetragonal'
loop_
_space_group_symop_operation_xyz
x,y,z
1/2-y,1/2+x,3/4+z
-x,-y,1/2+z
1/2+y,1/2-x,1/4+z
1/2+x,1/2-y,1/4-z
1/2-x,1/2+y,3/4-z
y,x,-z
-y,-x,1/2-z
loop_
_atom_site_type_symbol
_atom_site_label
_atom_site_fract_x
_atom_site_fract_y
_atom_site_fract_z
Si Si1 0.345095 0.511347 0.537339
Si Si2 0.850776 0.313904 0.280432
Si Si3 0.124158 0.528718 0.467281
Si Si4 0.456167 0.712907 0.551727
O O1 0.414466 0.414466 0.500000
O O2 0.241289 0.500871 0.423456
O O3 0.400815 0.614480 0.469168
O O4 0.315609 0.512833 0.745544
O O5 0.748014 0.251987 0.250000
O O6 0.882148 0.378389 0.107048
O O7 0.816940 0.387523 0.444327
O O8 0.945070 0.238277 0.320214
O O9 0.070788 0.564464 0.285987
#
# Coordination Sequence:
#
# PCOD8305900 Si02
#       4
#     8   8   8   8
#     4  10  20  39  61  87 128 165 203 275 331 373
#     4  11  18  34  61  88 121 170 206 253 320 386
#     4  11  22  42  65  91 131 173 219 272 328 392
#     4  10  20  35  61  90 119 167 210 255 320 398
#
# _framework density 24.820416999999999
#
# number of rings (size 3 to 8) (size 9 to 14) (size 15 to 20)
#    0.000    1.500   10.000    0.750    0.000    0.000 
#    4.500    2.500    5.500    0.000    0.000    0.000 
#    0.000    0.000    0.000    0.000    0.000    0.000 
#
# Total GULP energy -396743.781490 kJ/mol
# GULP energy per Si atom -12398.243172 kJ/mol
# Density = 2.476392 g / cm^3
# Si number density = 24.820417 Si / 1000 Ang^3
#
#
#
# Elastic Constant Matrix: (Units=GPa)
#
#
# Indices 1 2 3 4 5 6 
#
# 1 169.3904 89.9950 21.8648 0.0000 0.0000 0.0000
# 2 89.9950 169.3882 21.8642 0.0000 0.0000 0.0000
# 3 21.8648 21.8642 28.7088 0.0000 0.0000 0.0000
# 4 0.0000 0.0000 0.0000 5.7878 0.0000 0.0000
# 5 0.0000 0.0000 0.0000 0.0000 5.7894 0.0000
# 6 0.0000 0.0000 0.0000 0.0000 0.0000 70.0404
#
#
#
# Elastic Compliance Matrix: (Units=1/GPa)
#
#
# Indices 1 2 3 4 5 6 
#
# 1 0.008509 -0.004086 -0.003369 0.000000 0.000000 0.000000
# 2 -0.004086 0.008509 -0.003369 0.000000 0.000000 0.000000
# 3 -0.003369 -0.003369 0.039964 0.000000 0.000000 0.000000
# 4 0.000000 0.000000 0.000000 0.172778 0.000000 0.000000
# 5 0.000000 0.000000 0.000000 0.000000 0.172729 0.000000
# 6 0.000000 0.000000 0.000000 0.000000 0.000000 0.014277
#
#
# Mechanical properties :
#
#
# Convention : Reuss Voigt Hill
#
# Bulk Modulus (GPa) = 28.30025 70.54838 49.42432
# Shear Modulus (GPa) = 11.10635 31.90774 21.50705
#
# Velocity S-wave (km/s) = 2.11764 3.58934 2.94684
# Velocity P-wave (km/s) = 4.17204 6.75744 5.61556
#
# Compressibility (1/GPa) = 0.03533538
#
# Stress axis : x y z
#
# Youngs Moduli (GPa) = 117.51929 117.51823 25.02266
#
# Poissons Ratio (x) = 0.48019 0.08430
# Poissons Ratio (y) = 0.48019 0.08429
# Poissons Ratio (z) = 0.39590 0.39587
#
# Static dielectric constant tensor:
#      x y z
#    x 4.780450 0.000000 0.000000 
#    y 0.000000 4.780450 0.000000 
#    z 0.000000 0.000000 3.717860 
# 
# 
# High freq. dielectric constant tensor:
#      x y z
#    x 2.006160 0.000000 0.000000 
#    y 0.000000 2.006160 0.000000 
#    z 0.000000 0.000000 1.937690 
# 
# From -- ./inp_files/1912.got.cif
#   From: 2010.03.12/outbox.cif.g09.slc.cpg/sg96_1_cif.got.tgz:1912.got - 2010.04.08 20:56:49.
