data_PCOD8305437
_publ_section_title
;
Structure prediction by ZEFSAII (Michael W. Deem and Ramdas Pophale) SiO2 
 PCOD8305437
Probable space group: P 41 21 2
;
_chemical_formula_sum "Si O2"
_cell_formula_units_Z 36
_cell_length_a 11.545013
_cell_length_b 11.545013
_cell_length_c 14.382979
_cell_angle_alpha 90.000000
_cell_angle_beta 90.000000
_cell_angle_gamma 90.000000
_cell_volume 1917.068799
_symmetry_space_group_name_H-M "P 41 21 2"
_symmetry_group_IT_number 92
_symmetry_cell_setting 'tetragonal'
loop_
_space_group_symop_operation_xyz
x,y,z
1/2-y,1/2+x,1/4+z
-x,-y,1/2+z
1/2+y,1/2-x,3/4+z
1/2+x,1/2-y,3/4-z
1/2-x,1/2+y,1/4-z
y,x,-z
-y,-x,1/2-z
loop_
_atom_site_type_symbol
_atom_site_label
_atom_site_fract_x
_atom_site_fract_y
_atom_site_fract_z
Si Si1 0.652519 0.232214 0.538732
Si Si2 0.223103 0.355837 0.919645
Si Si3 0.456950 0.600227 0.572700
Si Si4 0.488820 0.786641 0.226095
Si Si5 0.022839 0.022839 0.000000
O O1 0.779282 0.266623 0.576576
O O2 0.613388 0.329142 0.466609
O O3 0.559120 0.219401 0.621399
O O4 0.656289 0.114947 0.478754
O O5 0.275528 0.483850 0.902125
O O6 0.291041 0.291041 0.000000
O O7 0.090544 0.364020 0.954666
O O8 0.539194 0.539194 0.500000
O O9 0.448161 0.519135 0.662620
O O10 0.497216 0.658321 0.269962
#
# Coordination Sequence:
#
# PCOD8305437 Si02
#       5
#     8   8   8   8   4
#     4  11  22  39  63  92 126 164 209 263 313 376
#     4   9  19  33  62  91 115 151 210 260 300 360
#     4  11  21  38  65  93 121 162 208 264 315 371
#     4  11  21  38  62  94 124 160 213 265 311 379
#     4  12  20  38  64  96 122 160 216 252 320 392
#
# _framework density 18.778670000000002
#
# number of rings (size 3 to 8) (size 9 to 14) (size 15 to 20)
#    0.000    1.333    7.778    0.000    6.222    0.000 
#    0.000    6.667    0.000    0.000    0.000    0.000 
#    0.000    0.000    0.000    0.000    0.000    0.000 
#
# Total GULP energy -446411.925231 kJ/mol
# GULP energy per Si atom -12400.331256 kJ/mol
# Density = 1.873593 g / cm^3
# Si number density = 18.778670 Si / 1000 Ang^3
#
#
#
# Elastic Constant Matrix: (Units=GPa)
#
#
# Indices 1 2 3 4 5 6 
#
# 1 124.4325 29.6665 31.0664 0.0000 0.0000 0.0000
# 2 29.6665 124.4325 31.0664 0.0000 0.0000 0.0000
# 3 31.0664 31.0664 83.3482 0.0000 0.0000 0.0000
# 4 0.0000 0.0000 0.0000 21.4132 0.0000 0.0000
# 5 0.0000 0.0000 0.0000 0.0000 21.4132 0.0000
# 6 0.0000 0.0000 0.0000 0.0000 0.0000 23.7973
#
#
#
# Elastic Compliance Matrix: (Units=1/GPa)
#
#
# Indices 1 2 3 4 5 6 
#
# 1 0.009095 -0.001458 -0.002847 0.000000 0.000000 0.000000
# 2 -0.001458 0.009095 -0.002847 0.000000 0.000000 0.000000
# 3 -0.002847 -0.002847 0.014120 0.000000 0.000000 0.000000
# 4 0.000000 0.000000 0.000000 0.046700 0.000000 0.000000
# 5 0.000000 0.000000 0.000000 0.000000 0.046700 0.000000
# 6 0.000000 0.000000 0.000000 0.000000 0.000000 0.042022
#
#
# Mechanical properties :
#
#
# Convention : Reuss Voigt Hill
#
# Bulk Modulus (GPa) = 55.53167 57.31240 56.42203
# Shear Modulus (GPa) = 26.59077 29.35234 27.97155
#
# Velocity S-wave (km/s) = 3.76707 3.95785 3.86364
# Velocity P-wave (km/s) = 6.96828 7.17442 7.07210
#
# Compressibility (1/GPa) = 0.01800774
#
# Stress axis : x y z
#
# Youngs Moduli (GPa) = 109.95426 109.95426 70.82226
#
# Poissons Ratio (x) = 0.16027 0.20160
# Poissons Ratio (y) = 0.16027 0.20160
# Poissons Ratio (z) = 0.31299 0.31299
#
# Static dielectric constant tensor:
#      x y z
#    x 3.543160 0.000000 0.000000 
#    y 0.000000 3.543160 0.000000 
#    z 0.000000 0.000000 3.225010 
# 
# 
# High freq. dielectric constant tensor:
#      x y z
#    x 1.718050 0.000000 0.000000 
#    y 0.000000 1.718050 0.000000 
#    z 0.000000 0.000000 1.718850 
# 
# From -- ./inp_files/2013.got.cif
#   From: 2010.03.12/outbox.cif.g09.slc.cpg/sg92_2_cif.got.tgz:2013.got - 2010.04.08 20:41:11.
