data_PCOD8305812
_publ_section_title
;
Structure prediction by ZEFSAII (Michael W. Deem and Ramdas Pophale) SiO2 
 PCOD8305812
Probable space group: P 43 2 2
;
_chemical_formula_sum "Si O2"
_cell_formula_units_Z 48
_cell_length_a 18.330051
_cell_length_b 18.330051
_cell_length_c 8.092099
_cell_angle_alpha 90.000000
_cell_angle_beta 90.000000
_cell_angle_gamma 90.000000
_cell_volume 2718.870571
_symmetry_space_group_name_H-M "P 43 2 2"
_symmetry_group_IT_number 95
_symmetry_cell_setting 'tetragonal'
loop_
_space_group_symop_operation_xyz
x,y,z
-y,x,3/4+z
-x,-y,1/2+z
y,-x,1/4+z
x,-y,1/2-z
-x,y,-z
y,x,1/4-z
-y,-x,3/4-z
loop_
_atom_site_type_symbol
_atom_site_label
_atom_site_fract_x
_atom_site_fract_y
_atom_site_fract_z
Si Si1 0.418511 0.107562 0.986121
Si Si2 0.000000 0.639322 0.500000
Si Si3 0.062443 0.255751 0.771857
Si Si4 0.168090 0.926603 0.489688
Si Si5 0.000000 0.088622 0.500000
Si Si6 0.000000 0.640956 0.000000
Si Si7 0.782387 0.782387 0.125000
Si Si8 0.799034 0.718993 0.771934
O O1 0.407457 0.069115 0.807260
O O2 0.365024 0.177368 0.004969
O O3 0.500000 0.139440 0.000000
O O4 0.410544 0.041876 0.118553
O O5 0.066186 0.691506 0.568155
O O6 0.139248 0.226579 0.710572
O O7 0.008540 0.188960 0.819366
O O8 0.022114 0.305196 0.642247
O O9 0.104766 0.895235 0.375000
O O10 0.236216 0.873068 0.498008
O O11 0.138598 0.935517 0.675402
O O12 0.035000 0.035000 0.625000
O O13 0.729064 0.769852 0.285915
O O14 0.741989 0.741989 0.625000
#
# Coordination Sequence:
#
# PCOD8305812 Si02
#       8
#     8   4   8   8   4   4   4   8
#     4  11  21  38  58  82 113 149 183 232 286 343
#     4  10  21  36  54  80 109 140 186 250 281 346
#     4  11  21  36  54  76 101 138 192 238 292 335
#     4  11  24  38  52  69  95 136 185 239 291 340
#     4  12  27  42  46  62  93 130 186 250 303 340
#     4  10  18  38  52  78 110 134 188 232 276 338
#     4  12  22  34  64  78 102 152 188 244 292 338
#     4  11  23  40  58  86 111 142 188 231 281 344
#
# _framework density 17.654389999999999
#
# number of rings (size 3 to 8) (size 9 to 14) (size 15 to 20)
#    0.000    1.000    5.000    3.500    7.000    0.000 
#    0.000    0.000    0.000    0.000    0.000    0.000 
#    0.000    0.000    2.833    0.000    0.000    0.000 
#
# Total GULP energy -594667.328982 kJ/mol
# GULP energy per Si atom -12388.902687 kJ/mol
# Density = 1.761421 g / cm^3
# Si number density = 17.654390 Si / 1000 Ang^3
#
#
#
# Elastic Constant Matrix: (Units=GPa)
#
#
# Indices 1 2 3 4 5 6 
#
# 1 88.4808 39.5550 28.5888 0.0000 0.0000 0.0000
# 2 39.5550 88.4801 28.5885 0.0000 0.0000 0.0000
# 3 28.5888 28.5885 88.1137 0.0000 0.0000 0.0000
# 4 0.0000 0.0000 0.0000 15.6490 0.0000 0.0000
# 5 0.0000 0.0000 0.0000 0.0000 15.6502 0.0000
# 6 0.0000 0.0000 0.0000 0.0000 0.0000 17.6376
#
#
#
# Elastic Compliance Matrix: (Units=1/GPa)
#
#
# Indices 1 2 3 4 5 6 
#
# 1 0.014786 -0.005653 -0.002963 0.000000 0.000000 0.000000
# 2 -0.005653 0.014787 -0.002963 0.000000 0.000000 0.000000
# 3 -0.002963 -0.002963 0.013272 0.000000 0.000000 0.000000
# 4 0.000000 0.000000 0.000000 0.063902 0.000000 0.000000
# 5 0.000000 0.000000 0.000000 0.000000 0.063897 0.000000
# 6 0.000000 0.000000 0.000000 0.000000 0.000000 0.056697
#
#
# Mechanical properties :
#
#
# Convention : Reuss Voigt Hill
#
# Bulk Modulus (GPa) = 50.79850 50.94880 50.87365
# Shear Modulus (GPa) = 19.45055 21.01018 20.23036
#
# Velocity S-wave (km/s) = 3.32285 3.45350 3.38880
# Velocity P-wave (km/s) = 6.59986 6.69506 6.64763
#
# Compressibility (1/GPa) = 0.01968562
#
# Stress axis : x y z
#
# Youngs Moduli (GPa) = 67.62942 67.62903 75.34676
#
# Poissons Ratio (x) = 0.38229 0.22329
# Poissons Ratio (y) = 0.38229 0.22329
# Poissons Ratio (z) = 0.20042 0.20041
#
# Static dielectric constant tensor:
#      x y z
#    x 3.147120 0.000000 0.000000 
#    y 0.000000 3.147110 0.000000 
#    z 0.000000 0.000000 3.588220 
# 
# 
# High freq. dielectric constant tensor:
#      x y z
#    x 1.643170 0.000000 0.000000 
#    y 0.000000 1.643170 0.000000 
#    z 0.000000 0.000000 1.712780 
# 
# From -- ./inp_files/2708.got.cif
#   From: 2010.03.12/outbox.cif.g09.slc.cpg/sg95_2_cif.got.tgz:2708.got - 2010.04.08 20:51:55.
