data_PCOD8305263
_publ_section_title
;
Structure prediction by ZEFSAII (Michael W. Deem and Ramdas Pophale) SiO2 
 PCOD8305263
Probable space group: P 41 21 2
;
_chemical_formula_sum "Si O2"
_cell_formula_units_Z 40
_cell_length_a 14.107961
_cell_length_b 14.107961
_cell_length_c 9.989452
_cell_angle_alpha 90.000000
_cell_angle_beta 90.000000
_cell_angle_gamma 90.000000
_cell_volume 1988.246219
_symmetry_space_group_name_H-M "P 41 21 2"
_symmetry_group_IT_number 92
_symmetry_cell_setting 'tetragonal'
loop_
_space_group_symop_operation_xyz
x,y,z
1/2-y,1/2+x,1/4+z
-x,-y,1/2+z
1/2+y,1/2-x,3/4+z
1/2+x,1/2-y,3/4-z
1/2-x,1/2+y,1/4-z
y,x,-z
-y,-x,1/2-z
loop_
_atom_site_type_symbol
_atom_site_label
_atom_site_fract_x
_atom_site_fract_y
_atom_site_fract_z
Si Si1 0.503253 0.729299 0.091304
Si Si2 0.781562 0.218439 0.250000
Si Si3 0.252550 0.982251 0.140173
Si Si4 0.779064 0.220937 0.750000
Si Si5 0.941430 0.460753 0.926671
Si Si6 0.327651 0.692851 0.498153
O O1 0.516096 0.695950 0.246618
O O2 0.452723 0.830526 0.092717
O O3 0.423065 0.669797 0.011305
O O4 0.604794 0.732862 0.015869
O O5 0.735698 0.273685 0.374211
O O6 0.235106 0.888709 0.223623
O O7 0.362642 0.992819 0.106234
O O8 0.221485 0.062750 0.244483
O O9 0.719045 0.256746 0.873225
O O10 0.988409 0.539005 0.830245
#
# Coordination Sequence:
#
# PCOD8305263 Si02
#       6
#     8   4   8   4   8   8
#     4  11  22  46  65  91 143 186 220 288 363 401
#     4  12  28  43  70 107 146 182 234 304 354 424
#     4  11  22  40  70  98 130 182 234 285 337 421
#     4  12  20  43  68  95 128 180 230 268 346 422
#     4  10  20  36  60  93 123 168 220 272 340 395
#     4  12  24  45  69  99 140 182 233 287 347 423
#
# _framework density 20.118231000000002
#
# number of rings (size 3 to 8) (size 9 to 14) (size 15 to 20)
#    0.000    0.800    6.000    2.400    2.800    2.400 
#    0.000    0.000    0.000    0.000    0.000    0.000 
#    0.000    0.000    0.000    0.000    0.000    0.000 
#
# Total GULP energy -495690.818903 kJ/mol
# GULP energy per Si atom -12392.270473 kJ/mol
# Density = 2.007244 g / cm^3
# Si number density = 20.118231 Si / 1000 Ang^3
#
#
#
# Elastic Constant Matrix: (Units=GPa)
#
#
# Indices 1 2 3 4 5 6 
#
# 1 87.4513 -13.6357 15.2746 0.0000 0.0000 0.0000
# 2 -13.6357 87.4523 15.2757 0.0000 0.0000 0.0000
# 3 15.2746 15.2757 78.3822 0.0000 0.0000 0.0000
# 4 0.0000 0.0000 0.0000 30.8878 0.0000 0.0000
# 5 0.0000 0.0000 0.0000 0.0000 30.8881 0.0000
# 6 0.0000 0.0000 0.0000 0.0000 0.0000 22.4232
#
#
#
# Elastic Compliance Matrix: (Units=1/GPa)
#
#
# Indices 1 2 3 4 5 6 
#
# 1 0.012314 0.002422 -0.002872 0.000000 0.000000 0.000000
# 2 0.002422 0.012314 -0.002872 0.000000 0.000000 0.000000
# 3 -0.002872 -0.002872 0.013877 0.000000 0.000000 0.000000
# 4 0.000000 0.000000 0.000000 0.032375 0.000000 0.000000
# 5 0.000000 0.000000 0.000000 0.000000 0.032375 0.000000
# 6 0.000000 0.000000 0.000000 0.000000 0.000000 0.044597
#
#
# Mechanical properties :
#
#
# Convention : Reuss Voigt Hill
#
# Bulk Modulus (GPa) = 31.38548 31.90167 31.64357
# Shear Modulus (GPa) = 30.28167 32.59789 31.43978
#
# Velocity S-wave (km/s) = 3.88388 4.02968 3.95745
# Velocity P-wave (km/s) = 5.97889 6.12720 6.05350
#
# Compressibility (1/GPa) = 0.03186187
#
# Stress axis : x y z
#
# Youngs Moduli (GPa) = 81.20774 81.20827 72.06024
#
# Poissons Ratio (x) = -0.19666 0.20693
# Poissons Ratio (y) = -0.19666 0.20694
# Poissons Ratio (z) = 0.23320 0.23321
#
# Static dielectric constant tensor:
#      x y z
#    x 3.836360 0.000000 0.000000 
#    y 0.000000 3.836420 0.000000 
#    z 0.000000 0.000000 3.794930 
# 
# 
# High freq. dielectric constant tensor:
#      x y z
#    x 1.784750 0.000000 0.000000 
#    y 0.000000 1.784750 0.000000 
#    z 0.000000 0.000000 1.789130 
# 
# From -- ./inp_files/1387.got.cif
#   From: 2010.03.12/outbox.cif.g09.slc.cpg/sg92_1_cif.got.tgz:1387.got - 2010.04.08 20:41:11.
