data_PCOD8305521
_publ_section_title
;
Structure prediction by ZEFSAII (Michael W. Deem and Ramdas Pophale) SiO2 
 PCOD8305521
Probable space group: P 42 2 2
;
_chemical_formula_sum "Si O2"
_cell_formula_units_Z 40
_cell_length_a 12.201549
_cell_length_b 12.201549
_cell_length_c 13.929858
_cell_angle_alpha 90.000000
_cell_angle_beta 90.000000
_cell_angle_gamma 90.000000
_cell_volume 2073.846585
_symmetry_space_group_name_H-M "P 42 2 2"
_symmetry_group_IT_number 93
_symmetry_cell_setting 'tetragonal'
loop_
_space_group_symop_operation_xyz
x,y,z
-y,x,1/2+z
-x,-y,z
y,-x,1/2+z
x,-y,-z
-x,y,-z
y,x,1/2-z
-y,-x,1/2-z
loop_
_atom_site_type_symbol
_atom_site_label
_atom_site_fract_x
_atom_site_fract_y
_atom_site_fract_z
Si Si1 0.715993 0.118739 0.297084
Si Si2 0.194418 0.623915 0.003007
Si Si3 0.580838 0.405494 0.399378
Si Si4 0.863157 0.297384 0.795462
Si Si5 0.484812 0.757093 0.232500
O O1 0.821182 0.178819 0.250000
O O2 0.696177 0.148202 0.408956
O O3 0.610073 0.153763 0.237529
O O4 0.726937 0.990353 0.283549
O O5 0.326863 0.612260 0.011070
O O6 0.142580 0.500000 0.000000
O O7 0.165051 0.688210 0.907058
O O8 0.500000 0.500000 0.433603
O O9 0.523671 0.329090 0.319741
O O10 0.690529 0.467021 0.365003
O O11 0.808504 0.191497 0.750000
O O12 0.820578 0.400879 0.734294
#
# Coordination Sequence:
#
# PCOD8305521 Si02
#       5
#     8   8   8   8   8
#     4  11  22  43  68  90 123 169 220 270 319 370
#     4  11  22  39  63  99 126 164 215 255 312 386
#     4  10  18  33  57  92 136 168 200 245 316 380
#     4  12  25  40  61  97 130 164 217 269 321 378
#     4  10  18  36  59  89 129 170 205 253 310 382
#
# _framework density 19.287828999999999
#
# number of rings (size 3 to 8) (size 9 to 14) (size 15 to 20)
#    0.000    1.200    8.000    3.600    0.000    1.600 
#    0.000    1.000    0.000    2.400    5.200    0.000 
#    0.000    0.000    0.000    0.000    0.000    0.000 
#
# Total GULP energy -495862.481778 kJ/mol
# GULP energy per Si atom -12396.562044 kJ/mol
# Density = 1.924393 g / cm^3
# Si number density = 19.287829 Si / 1000 Ang^3
#
#
#
# Elastic Constant Matrix: (Units=GPa)
#
#
# Indices 1 2 3 4 5 6 
#
# 1 165.7756 71.7670 54.8504 0.0000 0.0000 0.0000
# 2 71.7670 165.7778 54.8516 0.0000 0.0000 0.0000
# 3 54.8504 54.8516 93.9825 0.0000 0.0000 0.0000
# 4 0.0000 0.0000 0.0000 12.4696 0.0000 0.0000
# 5 0.0000 0.0000 0.0000 0.0000 12.4683 0.0000
# 6 0.0000 0.0000 0.0000 0.0000 0.0000 6.7391
#
#
#
# Elastic Compliance Matrix: (Units=1/GPa)
#
#
# Indices 1 2 3 4 5 6 
#
# 1 0.008200 -0.002437 -0.003363 0.000000 0.000000 0.000000
# 2 -0.002437 0.008200 -0.003364 0.000000 0.000000 0.000000
# 3 -0.003363 -0.003364 0.014566 0.000000 0.000000 0.000000
# 4 0.000000 0.000000 0.000000 0.080195 0.000000 0.000000
# 5 0.000000 0.000000 0.000000 0.000000 0.080204 0.000000
# 6 0.000000 0.000000 0.000000 0.000000 0.000000 0.148387
#
#
# Mechanical properties :
#
#
# Convention : Reuss Voigt Hill
#
# Bulk Modulus (GPa) = 79.12330 87.60821 83.36575
# Shear Modulus (GPa) = 13.80098 22.60652 18.20375
#
# Velocity S-wave (km/s) = 2.67784 3.42725 3.07546
# Velocity P-wave (km/s) = 7.11846 7.82186 7.47844
#
# Compressibility (1/GPa) = 0.01263850
#
# Stress axis : x y z
#
# Youngs Moduli (GPa) = 121.94875 121.94940 68.65126
#
# Poissons Ratio (x) = 0.29720 0.23091
# Poissons Ratio (y) = 0.29720 0.23091
# Poissons Ratio (z) = 0.41017 0.41019
#
# Static dielectric constant tensor:
#      x y z
#    x 3.558410 0.000000 0.000000 
#    y 0.000000 3.558400 0.000000 
#    z 0.000000 0.000000 3.645290 
# 
# 
# High freq. dielectric constant tensor:
#      x y z
#    x 1.742690 0.000000 0.000000 
#    y 0.000000 1.742690 0.000000 
#    z 0.000000 0.000000 1.751420 
# 
# From -- ./inp_files/4326.got.cif
#   From: 2010.03.12/outbox.cif.g09.slc.cpg/sg93_3_cif.got.tgz:4326.got - 2010.04.08 20:44:19.
