data_PCOD8305502
_publ_section_title
;
Structure prediction by ZEFSAII (Michael W. Deem and Ramdas Pophale) SiO2 
 PCOD8305502
Probable space group: P 41 21 2
;
_chemical_formula_sum "Si O2"
_cell_formula_units_Z 60
_cell_length_a 11.451790
_cell_length_b 11.451790
_cell_length_c 20.798290
_cell_angle_alpha 90.000000
_cell_angle_beta 90.000000
_cell_angle_gamma 90.000000
_cell_volume 2727.560424
_symmetry_space_group_name_H-M "P 41 21 2"
_symmetry_group_IT_number 92
_symmetry_cell_setting 'tetragonal'
loop_
_space_group_symop_operation_xyz
x,y,z
1/2-y,1/2+x,1/4+z
-x,-y,1/2+z
1/2+y,1/2-x,3/4+z
1/2+x,1/2-y,3/4-z
1/2-x,1/2+y,1/4-z
y,x,-z
-y,-x,1/2-z
loop_
_atom_site_type_symbol
_atom_site_label
_atom_site_fract_x
_atom_site_fract_y
_atom_site_fract_z
Si Si1 0.677047 0.083135 0.845921
Si Si2 0.280885 0.680429 0.404077
Si Si3 0.386213 0.924699 0.681760
Si Si4 0.678731 0.468699 0.135887
Si Si5 0.863256 0.000530 0.448228
Si Si6 0.636140 0.450348 0.481904
Si Si7 0.290241 0.709759 0.750000
Si Si8 0.365823 0.945600 0.020920
O O1 0.744227 0.187245 0.882265
O O2 0.560664 0.133534 0.814083
O O3 0.652605 0.985336 0.898944
O O4 0.760953 0.035097 0.790700
O O5 0.317632 0.608831 0.341653
O O6 0.383367 0.682497 0.456105
O O7 0.164425 0.623180 0.432132
O O8 0.305184 0.842599 0.726271
O O9 0.307625 0.980601 0.625737
O O10 0.447788 0.024440 0.723459
O O11 0.591974 0.575256 0.150764
O O12 0.641586 0.398069 0.072777
O O13 0.682816 0.380432 0.194155
O O14 0.754701 0.064532 0.481957
O O15 0.957004 0.957004 0.500000
O O16 0.522311 0.522311 0.500000
#
# Coordination Sequence:
#
# PCOD8305502 Si02
#       8
#     8   8   8   8   8   8   4   8
#     4  12  28  48  77 109 149 192 245 306 367 439
#     4  12  28  48  76 110 148 192 246 302 372 436
#     4  12  28  48  77 109 149 192 245 306 367 439
#     4  12  27  49  76 109 147 196 245 304 369 440
#     4  12  27  49  76 109 147 196 245 304 369 440
#     4  12  27  49  76 109 147 196 245 304 369 440
#     4  12  28  48  76 110 148 192 246 302 372 436
#     4  12  28  48  77 109 149 192 245 306 367 439
#
# _framework density 21.997681
#
# number of rings (size 3 to 8) (size 9 to 14) (size 15 to 20)
#    0.000    0.000    6.000    2.400   14.000    0.000 
#    0.000    0.000    0.000    0.000    0.000    0.000 
#    0.000    0.000    0.000    0.000    0.000    0.000 
#
# Total GULP energy -744676.070287 kJ/mol
# GULP energy per Si atom -12411.267838 kJ/mol
# Density = 2.194761 g / cm^3
# Si number density = 21.997681 Si / 1000 Ang^3
#
#
#
# Elastic Constant Matrix: (Units=GPa)
#
#
# Indices 1 2 3 4 5 6 
#
# 1 73.9176 -3.9407 15.6213 0.0000 0.0000 0.0000
# 2 -3.9407 73.9173 15.6207 0.0000 0.0000 0.0000
# 3 15.6213 15.6207 81.4655 0.0000 0.0000 0.0000
# 4 0.0000 0.0000 0.0000 34.2885 0.0000 0.0000
# 5 0.0000 0.0000 0.0000 0.0000 34.2881 0.0000
# 6 0.0000 0.0000 0.0000 0.0000 0.0000 38.8235
#
#
#
# Elastic Compliance Matrix: (Units=1/GPa)
#
#
# Indices 1 2 3 4 5 6 
#
# 1 0.014236 0.001392 -0.002997 0.000000 0.000000 0.000000
# 2 0.001392 0.014236 -0.002997 0.000000 0.000000 0.000000
# 3 -0.002997 -0.002997 0.013424 0.000000 0.000000 0.000000
# 4 0.000000 0.000000 0.000000 0.029164 0.000000 0.000000
# 5 0.000000 0.000000 0.000000 0.000000 0.029165 0.000000
# 6 0.000000 0.000000 0.000000 0.000000 0.000000 0.025758
#
#
# Mechanical properties :
#
#
# Convention : Reuss Voigt Hill
#
# Bulk Modulus (GPa) = 30.58648 31.54480 31.06564
# Shear Modulus (GPa) = 34.22696 34.94663 34.58680
#
# Velocity S-wave (km/s) = 3.94881 3.99011 3.96952
# Velocity P-wave (km/s) = 5.89283 5.96650 5.92978
#
# Compressibility (1/GPa) = 0.03269419
#
# Stress axis : x y z
#
# Youngs Moduli (GPa) = 70.24384 70.24373 74.49131
#
# Poissons Ratio (x) = -0.09780 0.22323
# Poissons Ratio (y) = -0.09780 0.22323
# Poissons Ratio (z) = 0.21051 0.21050
#
# Static dielectric constant tensor:
#      x y z
#    x 4.064320 0.000000 0.000000 
#    y 0.000000 4.064320 0.000000 
#    z 0.000000 0.000000 4.236000 
# 
# 
# High freq. dielectric constant tensor:
#      x y z
#    x 1.876600 0.000000 0.000000 
#    y 0.000000 1.876600 0.000000 
#    z 0.000000 0.000000 1.880320 
# 
# From -- ./inp_files/3615.got.cif
#   From: 2010.03.12/outbox.cif.g09.slc.cpg/sg92_2_cif.got.tgz:3615.got - 2010.04.08 20:41:11.
