data_PCOD8305321
_publ_section_title
;
Structure prediction by ZEFSAII (Michael W. Deem and Ramdas Pophale) SiO2 
 PCOD8305321
Probable space group: P 41 21 2
;
_chemical_formula_sum "Si O2"
_cell_formula_units_Z 56
_cell_length_a 14.778092
_cell_length_b 14.778092
_cell_length_c 11.325517
_cell_angle_alpha 90.000000
_cell_angle_beta 90.000000
_cell_angle_gamma 90.000000
_cell_volume 2473.402344
_symmetry_space_group_name_H-M "P 41 21 2"
_symmetry_group_IT_number 92
_symmetry_cell_setting 'tetragonal'
loop_
_space_group_symop_operation_xyz
x,y,z
1/2-y,1/2+x,1/4+z
-x,-y,1/2+z
1/2+y,1/2-x,3/4+z
1/2+x,1/2-y,3/4-z
1/2-x,1/2+y,1/4-z
y,x,-z
-y,-x,1/2-z
loop_
_atom_site_type_symbol
_atom_site_label
_atom_site_fract_x
_atom_site_fract_y
_atom_site_fract_z
Si Si1 0.634645 0.564824 0.617735
Si Si2 0.337408 0.130399 0.161847
Si Si3 0.298918 0.359163 0.687709
Si Si4 0.366700 0.632372 0.117447
Si Si5 0.765395 0.499804 0.012238
Si Si6 0.158757 0.431827 0.083073
Si Si7 0.156594 0.366795 0.335760
O O1 0.620868 0.620868 0.500000
O O2 0.601769 0.618971 0.733231
O O3 0.587623 0.467170 0.610225
O O4 0.740522 0.549663 0.628704
O O5 0.381933 0.206652 0.242457
O O6 0.230884 0.137725 0.194933
O O7 0.378413 0.032287 0.198982
O O8 0.361470 0.147956 0.023798
O O9 0.292817 0.418453 0.569392
O O10 0.312039 0.251801 0.662319
O O11 0.342610 0.657390 0.250000
O O12 0.440782 0.699403 0.068010
O O13 0.804699 0.432099 0.115013
O O14 0.838440 0.548100 0.924160
O O15 0.118488 0.391780 0.203922
#
# Coordination Sequence:
#
# PCOD8305321 Si02
#       7
#     8   8   8   8   8   8   8
#     4  10  21  39  66 101 135 177 236 295 353 413
#     4  11  22  41  69  97 138 184 233 296 355 421
#     4  11  24  44  73 102 145 193 230 297 371 429
#     4  11  23  41  72 101 130 180 245 299 354 420
#     4  12  26  48  71 103 147 193 241 294 370 442
#     4  10  21  39  68 102 130 180 247 290 347 416
#     4  11  24  47  71 101 141 191 242 297 361 433
#
# _framework density 22.640879000000002
#
# number of rings (size 3 to 8) (size 9 to 14) (size 15 to 20)
#    0.000    1.143    2.857    4.714    2.000    3.429 
#    7.714    0.000    0.000    0.000    0.000    0.000 
#    0.000    0.000    0.000    0.000    0.000    0.000 
#
# Total GULP energy -693873.350608 kJ/mol
# GULP energy per Si atom -12390.595547 kJ/mol
# Density = 2.258935 g / cm^3
# Si number density = 22.640879 Si / 1000 Ang^3
#
#
#
# Elastic Constant Matrix: (Units=GPa)
#
#
# Indices 1 2 3 4 5 6 
#
# 1 105.2907 58.8402 35.6281 0.0000 0.0000 0.0000
# 2 58.8402 105.2908 35.6278 0.0000 0.0000 0.0000
# 3 35.6281 35.6278 83.8941 0.0000 0.0000 0.0000
# 4 0.0000 0.0000 0.0000 32.7346 0.0000 0.0000
# 5 0.0000 0.0000 0.0000 0.0000 32.7347 0.0000
# 6 0.0000 0.0000 0.0000 0.0000 0.0000 15.9518
#
#
#
# Elastic Compliance Matrix: (Units=1/GPa)
#
#
# Indices 1 2 3 4 5 6 
#
# 1 0.014499 -0.007029 -0.003172 0.000000 0.000000 0.000000
# 2 -0.007029 0.014499 -0.003172 0.000000 0.000000 0.000000
# 3 -0.003172 -0.003172 0.014614 0.000000 0.000000 0.000000
# 4 0.000000 0.000000 0.000000 0.030549 0.000000 0.000000
# 5 0.000000 0.000000 0.000000 0.000000 0.030549 0.000000
# 6 0.000000 0.000000 0.000000 0.000000 0.000000 0.062689
#
#
# Mechanical properties :
#
#
# Convention : Reuss Voigt Hill
#
# Bulk Modulus (GPa) = 59.29505 61.62976 60.46241
# Shear Modulus (GPa) = 25.02904 27.24283 26.13593
#
# Velocity S-wave (km/s) = 3.32848 3.47257 3.40129
# Velocity P-wave (km/s) = 6.40453 6.58467 6.49523
#
# Compressibility (1/GPa) = 0.01686481
#
# Stress axis : x y z
#
# Youngs Moduli (GPa) = 68.96968 68.96998 68.42658
#
# Poissons Ratio (x) = 0.48480 0.21707
# Poissons Ratio (y) = 0.48480 0.21707
# Poissons Ratio (z) = 0.21880 0.21879
#
# Static dielectric constant tensor:
#      x y z
#    x 4.290370 0.000000 0.000000 
#    y 0.000000 4.290360 0.000000 
#    z 0.000000 0.000000 3.827580 
# 
# 
# High freq. dielectric constant tensor:
#      x y z
#    x 1.894660 0.000000 0.000000 
#    y 0.000000 1.894660 0.000000 
#    z 0.000000 0.000000 1.876600 
# 
# From -- ./inp_files/2288.got.cif
#   From: 2010.03.12/outbox.cif.g09.slc.cpg/sg92_2_cif.got.tgz:2288.got - 2010.04.08 20:41:11.
