data_PCOD8305668
_publ_section_title
;
Structure prediction by ZEFSAII (Michael W. Deem and Ramdas Pophale) SiO2 
 PCOD8305668
Probable space group: P 42 21 2
;
_chemical_formula_sum "Si O2"
_cell_formula_units_Z 40
_cell_length_a 11.595471
_cell_length_b 11.595471
_cell_length_c 13.802821
_cell_angle_alpha 90.000000
_cell_angle_beta 90.000000
_cell_angle_gamma 90.000000
_cell_volume 1855.857576
_symmetry_space_group_name_H-M "P 42 21 2"
_symmetry_group_IT_number 94
_symmetry_cell_setting 'tetragonal'
loop_
_space_group_symop_operation_xyz
x,y,z
1/2-y,1/2+x,1/2+z
-x,-y,z
1/2+y,1/2-x,1/2+z
1/2+x,1/2-y,1/2-z
1/2-x,1/2+y,1/2-z
y,x,-z
-y,-x,-z
loop_
_atom_site_type_symbol
_atom_site_label
_atom_site_fract_x
_atom_site_fract_y
_atom_site_fract_z
Si Si1 0.377429 0.267134 0.090086
Si Si2 0.603599 0.587396 0.272613
Si Si3 0.834240 0.463124 0.302539
Si Si4 0.346582 0.193317 0.374741
Si Si5 0.620538 0.175307 0.085914
O O1 0.361728 0.369496 0.166400
O O2 0.332830 0.145135 0.127111
O O3 0.511812 0.255706 0.063479
O O4 0.299762 0.299762 0.000000
O O5 0.500000 0.500000 0.268517
O O6 0.708954 0.517739 0.316865
O O7 0.572886 0.701034 0.337451
O O8 0.862463 0.420439 0.193128
O O9 0.915502 0.570466 0.339930
O O10 0.380628 0.163390 0.484610
O O11 0.214753 0.238954 0.367376
#
# Coordination Sequence:
#
# PCOD8305668 Si02
#       5
#     8   8   8   8   8
#     4  11  23  37  59  90 118 154 204 251 298 357
#     4  10  21  38  61  86 115 157 196 243 304 360
#     4  10  21  39  58  85 123 156 196 247 303 364
#     4   9  20  38  61  88 122 157 198 251 298 363
#     4  10  20  39  62  89 122 159 200 247 306 362
#
# _framework density 21.553379
#
# number of rings (size 3 to 8) (size 9 to 14) (size 15 to 20)
#    0.000    2.000    0.000    3.000    0.000    3.600 
#    0.000   21.000    0.000    0.000    0.000    0.000 
#    0.000    0.000    0.000    0.000    0.000    0.000 
#
# Total GULP energy -495926.907866 kJ/mol
# GULP energy per Si atom -12398.172697 kJ/mol
# Density = 2.150432 g / cm^3
# Si number density = 21.553379 Si / 1000 Ang^3
#
#
#
# Elastic Constant Matrix: (Units=GPa)
#
#
# Indices 1 2 3 4 5 6 
#
# 1 103.0370 1.1292 25.8312 0.0000 0.0000 0.0000
# 2 1.1292 103.0370 25.8312 0.0000 0.0000 0.0000
# 3 25.8312 25.8312 116.7175 0.0000 0.0000 0.0000
# 4 0.0000 0.0000 0.0000 29.0666 0.0000 0.0000
# 5 0.0000 0.0000 0.0000 0.0000 29.0666 0.0000
# 6 0.0000 0.0000 0.0000 0.0000 0.0000 40.9696
#
#
#
# Elastic Compliance Matrix: (Units=1/GPa)
#
#
# Indices 1 2 3 4 5 6 
#
# 1 0.010298 0.000485 -0.002387 0.000000 0.000000 0.000000
# 2 0.000485 0.010298 -0.002387 0.000000 0.000000 0.000000
# 3 -0.002387 -0.002387 0.009624 0.000000 0.000000 0.000000
# 4 0.000000 0.000000 0.000000 0.034404 0.000000 0.000000
# 5 0.000000 0.000000 0.000000 0.000000 0.034404 0.000000
# 6 0.000000 0.000000 0.000000 0.000000 0.000000 0.024408
#
#
# Mechanical properties :
#
#
# Convention : Reuss Voigt Hill
#
# Bulk Modulus (GPa) = 46.19976 47.59717 46.89847
# Shear Modulus (GPa) = 35.91260 37.82054 36.86657
#
# Velocity S-wave (km/s) = 4.08636 4.19350 4.14028
# Velocity P-wave (km/s) = 6.61408 6.75120 6.68299
#
# Compressibility (1/GPa) = 0.02164513
#
# Stress axis : x y z
#
# Youngs Moduli (GPa) = 97.10393 97.10393 103.90621
#
# Poissons Ratio (x) = -0.04714 0.24798
# Poissons Ratio (y) = -0.04714 0.24798
# Poissons Ratio (z) = 0.23175 0.23175
#
# Static dielectric constant tensor:
#      x y z
#    x 3.969080 0.000000 0.000000 
#    y 0.000000 3.969080 0.000000 
#    z 0.000000 0.000000 3.912310 
# 
# 
# High freq. dielectric constant tensor:
#      x y z
#    x 1.848050 0.000000 0.000000 
#    y 0.000000 1.848050 0.000000 
#    z 0.000000 0.000000 1.843830 
# 
# From -- ./inp_files/3374.got.cif
#   From: 2010.03.12/outbox.cif.g09.slc.cpg/sg94_2_cif.got.tgz:3374.got - 2010.04.08 20:48:32.
