data_PCOD8305198
_publ_section_title
;
Structure prediction by ZEFSAII (Michael W. Deem and Ramdas Pophale) SiO2 
 PCOD8305198
Probable space group: P 41 21 2
;
_chemical_formula_sum "Si O2"
_cell_formula_units_Z 44
_cell_length_a 10.063233
_cell_length_b 10.063233
_cell_length_c 26.345323
_cell_angle_alpha 90.000000
_cell_angle_beta 90.000000
_cell_angle_gamma 90.000000
_cell_volume 2667.955516
_symmetry_space_group_name_H-M "P 41 21 2"
_symmetry_group_IT_number 92
_symmetry_cell_setting 'tetragonal'
loop_
_space_group_symop_operation_xyz
x,y,z
1/2-y,1/2+x,1/4+z
-x,-y,1/2+z
1/2+y,1/2-x,3/4+z
1/2+x,1/2-y,3/4-z
1/2-x,1/2+y,1/4-z
y,x,-z
-y,-x,1/2-z
loop_
_atom_site_type_symbol
_atom_site_label
_atom_site_fract_x
_atom_site_fract_y
_atom_site_fract_z
Si Si1 0.894711 0.604265 0.171284
Si Si2 0.927676 0.458348 0.988965
Si Si3 0.612305 0.191443 0.185332
Si Si4 0.884641 0.309820 0.157765
Si Si5 0.879402 0.205298 0.050120
Si Si6 0.443011 0.556990 0.750000
O O1 0.950191 0.681074 0.121467
O O2 0.829569 0.462203 0.153509
O O3 0.780347 0.692687 0.197281
O O4 0.012264 0.571653 0.211789
O O5 0.811345 0.492777 0.947884
O O6 0.911471 0.551813 0.037663
O O7 0.917533 0.306409 0.005229
O O8 0.769489 0.217056 0.180326
O O9 0.544091 0.307548 0.217804
O O10 0.936114 0.256459 0.103855
O O11 0.949848 0.066291 0.038235
#
# Coordination Sequence:
#
# PCOD8305198 Si02
#       6
#     8   8   8   8   8   4
#     4   9  19  30  52  83 104 142 181 226 274 319
#     4  10  17  33  50  79 109 144 172 220 283 322
#     4  11  16  32  52  79 109 130 178 234 260 319
#     4   9  18  30  50  80 107 132 182 222 267 314
#     4  11  20  32  55  82 108 144 184 229 269 336
#     4  12  20  34  54  82 104 142 188 222 278 320
#
# _framework density 16.492028999999999
#
# number of rings (size 3 to 8) (size 9 to 14) (size 15 to 20)
#    1.091    0.727    7.273    0.000    0.000    0.000 
#    0.000    1.818    0.000    0.000    4.727    0.000 
#    0.000    0.000    0.000    0.000    0.000    0.000 
#
# Total GULP energy -545204.743689 kJ/mol
# GULP energy per Si atom -12391.016902 kJ/mol
# Density = 1.645449 g / cm^3
# Si number density = 16.492029 Si / 1000 Ang^3
#
#
#
# Elastic Constant Matrix: (Units=GPa)
#
#
# Indices 1 2 3 4 5 6 
#
# 1 48.3384 13.2576 27.1043 0.0000 0.0000 0.0000
# 2 13.2576 48.3390 27.1038 0.0000 0.0000 0.0000
# 3 27.1043 27.1038 97.9274 0.0000 0.0000 0.0000
# 4 0.0000 0.0000 0.0000 26.4691 0.0000 0.0000
# 5 0.0000 0.0000 0.0000 0.0000 26.4690 0.0000
# 6 0.0000 0.0000 0.0000 0.0000 0.0000 18.4342
#
#
#
# Elastic Compliance Matrix: (Units=1/GPa)
#
#
# Indices 1 2 3 4 5 6 
#
# 1 0.024984 -0.003521 -0.005940 0.000000 0.000000 0.000000
# 2 -0.003521 0.024984 -0.005940 0.000000 0.000000 0.000000
# 3 -0.005940 -0.005940 0.013500 0.000000 0.000000 0.000000
# 4 0.000000 0.000000 0.000000 0.037780 0.000000 0.000000
# 5 0.000000 0.000000 0.000000 0.000000 0.037780 0.000000
# 6 0.000000 0.000000 0.000000 0.000000 0.000000 0.054247
#
#
# Mechanical properties :
#
#
# Convention : Reuss Voigt Hill
#
# Bulk Modulus (GPa) = 30.61501 36.61513 33.61507
# Shear Modulus (GPa) = 21.27960 22.75041 22.01500
#
# Velocity S-wave (km/s) = 3.59597 3.71816 3.65757
# Velocity P-wave (km/s) = 5.98708 6.37831 6.18579
#
# Compressibility (1/GPa) = 0.03266371
#
# Stress axis : x y z
#
# Youngs Moduli (GPa) = 40.02520 40.02603 74.07435
#
# Poissons Ratio (x) = 0.14095 0.44004
# Poissons Ratio (y) = 0.14095 0.44002
# Poissons Ratio (z) = 0.23777 0.23776
#
# Static dielectric constant tensor:
#      x y z
#    x 2.821740 0.000000 0.000000 
#    y 0.000000 2.821740 0.000000 
#    z 0.000000 0.000000 3.319290 
# 
# 
# High freq. dielectric constant tensor:
#      x y z
#    x 1.601700 0.000000 0.000000 
#    y 0.000000 1.601700 0.000000 
#    z 0.000000 0.000000 1.653490 
# 
# From -- ./inp_files/4393.got.cif
#   From: 2010.03.12/outbox.cif.g09.slc.cpg/sg92_3_cif.got.tgz:4393.got - 2010.04.08 20:41:11.
