data_PCOD8305089
_publ_section_title
;
Structure prediction by ZEFSAII (Michael W. Deem and Ramdas Pophale) SiO2 
 PCOD8305089
Probable space group: P 41 2 2
;
_chemical_formula_sum "Si O2"
_cell_formula_units_Z 36
_cell_length_a 11.831579
_cell_length_b 11.831579
_cell_length_c 10.713673
_cell_angle_alpha 90.000000
_cell_angle_beta 90.000000
_cell_angle_gamma 90.000000
_cell_volume 1499.767032
_symmetry_space_group_name_H-M "P 41 2 2"
_symmetry_group_IT_number 91
_symmetry_cell_setting 'tetragonal'
loop_
_space_group_symop_operation_xyz
x,y,z
-y,x,1/4+z
-x,-y,1/2+z
y,-x,3/4+z
x,-y,1/2-z
-x,y,-z
y,x,3/4-z
-y,-x,1/4-z
loop_
_atom_site_type_symbol
_atom_site_label
_atom_site_fract_x
_atom_site_fract_y
_atom_site_fract_z
Si Si1 0.061629 0.061629 0.375000
Si Si2 0.483946 0.205727 0.292241
Si Si3 0.383005 0.857933 0.566863
Si Si4 0.697653 0.082956 0.543701
Si Si5 0.302147 0.292437 0.620700
O O1 0.038445 0.196273 0.372682
O O2 0.000000 0.013542 0.500000
O O3 0.588862 0.150508 0.213786
O O4 0.409750 0.114239 0.368128
O O5 0.560644 0.286011 0.379056
O O6 0.405318 0.280622 0.206571
O O7 0.500000 0.837787 0.500000
O O8 0.298072 0.763502 0.505047
O O9 0.338548 0.983601 0.547524
O O10 0.743057 0.187212 0.461059
#
# Coordination Sequence:
#
# PCOD8305089 Si02
#       5
#     4   8   8   8   8
#     4  12  28  54  82 116 162 204 256 326 402 478
#     4  11  24  46  69 108 148 199 259 321 385 468
#     4  10  24  42  70 103 144 190 252 323 385 459
#     4  12  24  47  77 107 146 200 262 317 392 479
#     4  11  23  44  69 105 147 196 250 318 390 456
#
# _framework density 24.003727999999999
#
# number of rings (size 3 to 8) (size 9 to 14) (size 15 to 20)
#    0.000    0.889    2.222    4.000    3.111    4.444 
#    8.000   22.222    0.000    0.000    0.000    0.000 
#    0.000    0.000    0.000    0.000    0.000    0.000 
#
# Total GULP energy -446112.535824 kJ/mol
# GULP energy per Si atom -12392.014884 kJ/mol
# Density = 2.394909 g / cm^3
# Si number density = 24.003728 Si / 1000 Ang^3
#
#
#
# Elastic Constant Matrix: (Units=GPa)
#
#
# Indices 1 2 3 4 5 6 
#
# 1 111.4086 33.8242 47.2717 0.0000 0.0000 0.0000
# 2 33.8242 111.4086 47.2717 0.0000 0.0000 0.0000
# 3 47.2717 47.2717 108.5894 0.0000 0.0000 0.0000
# 4 0.0000 0.0000 0.0000 30.9779 0.0000 0.0000
# 5 0.0000 0.0000 0.0000 0.0000 30.9779 0.0000
# 6 0.0000 0.0000 0.0000 0.0000 0.0000 27.9798
#
#
#
# Elastic Compliance Matrix: (Units=1/GPa)
#
#
# Indices 1 2 3 4 5 6 
#
# 1 0.011249 -0.001640 -0.004183 0.000000 0.000000 0.000000
# 2 -0.001640 0.011249 -0.004183 0.000000 0.000000 0.000000
# 3 -0.004183 -0.004183 0.012851 0.000000 0.000000 0.000000
# 4 0.000000 0.000000 0.000000 0.032281 0.000000 0.000000
# 5 0.000000 0.000000 0.000000 0.000000 0.032281 0.000000
# 6 0.000000 0.000000 0.000000 0.000000 0.000000 0.035740
#
#
# Mechanical properties :
#
#
# Convention : Reuss Voigt Hill
#
# Bulk Modulus (GPa) = 65.20428 65.34911 65.27670
# Shear Modulus (GPa) = 31.09942 31.52303 31.31123
#
# Velocity S-wave (km/s) = 3.60336 3.62782 3.61561
# Velocity P-wave (km/s) = 6.67349 6.69565 6.68458
#
# Compressibility (1/GPa) = 0.01533642
#
# Stress axis : x y z
#
# Youngs Moduli (GPa) = 88.89846 88.89846 77.81658
#
# Poissons Ratio (x) = 0.14583 0.32549
# Poissons Ratio (y) = 0.14583 0.32549
# Poissons Ratio (z) = 0.37184 0.37184
#
# Static dielectric constant tensor:
#      x y z
#    x 4.310670 0.000000 0.000000 
#    y 0.000000 4.310670 0.000000 
#    z 0.000000 0.000000 5.173590 
# 
# 
# High freq. dielectric constant tensor:
#      x y z
#    x 1.948450 0.000000 0.000000 
#    y 0.000000 1.948450 0.000000 
#    z 0.000000 0.000000 1.966420 
# 
# From -- ./inp_files/3563.got.cif
#   From: 2010.03.12/outbox.cif.g09.slc.cpg/sg91_2_cif.got.tgz:3563.got - 2010.04.08 20:27:58.
