data_PCOD8305397
_publ_section_title
;
Structure prediction by ZEFSAII (Michael W. Deem and Ramdas Pophale) SiO2 
 PCOD8305397
Probable space group: P 41 21 2
;
_chemical_formula_sum "Si O2"
_cell_formula_units_Z 36
_cell_length_a 8.835141
_cell_length_b 8.835141
_cell_length_c 20.471038
_cell_angle_alpha 90.000000
_cell_angle_beta 90.000000
_cell_angle_gamma 90.000000
_cell_volume 1597.963423
_symmetry_space_group_name_H-M "P 41 21 2"
_symmetry_group_IT_number 92
_symmetry_cell_setting 'tetragonal'
loop_
_space_group_symop_operation_xyz
x,y,z
1/2-y,1/2+x,1/4+z
-x,-y,1/2+z
1/2+y,1/2-x,3/4+z
1/2+x,1/2-y,3/4-z
1/2-x,1/2+y,1/4-z
y,x,-z
-y,-x,1/2-z
loop_
_atom_site_type_symbol
_atom_site_label
_atom_site_fract_x
_atom_site_fract_y
_atom_site_fract_z
Si Si1 0.790047 0.358802 0.809418
Si Si2 0.139696 0.213581 0.572993
Si Si3 0.958746 0.041255 0.250000
Si Si4 0.379505 0.466790 0.128698
Si Si5 0.667157 0.951942 0.183283
O O1 0.758022 0.241979 0.750000
O O2 0.902805 0.287112 0.863272
O O3 0.630914 0.381655 0.842415
O O4 0.858777 0.522241 0.788179
O O5 0.205758 0.205758 0.500000
O O6 0.256974 0.139266 0.623861
O O7 0.115191 0.386626 0.595545
O O8 0.972808 0.140203 0.572152
O O9 0.004891 0.218952 0.256811
O O10 0.033602 0.969221 0.312139
#
# Coordination Sequence:
#
# PCOD8305397 Si02
#       5
#     8   8   4   8   8
#     4  12  27  46  70 108 143 190 244 309 369 431
#     4  11  24  45  72 106 142 196 240 294 364 443
#     4  10  22  46  68  94 142 190 228 290 360 440
#     4  11  25  46  67 104 143 190 240 297 368 431
#     4  11  24  45  72 105 143 188 246 296 363 441
#
# _framework density 22.528673999999999
#
# number of rings (size 3 to 8) (size 9 to 14) (size 15 to 20)
#    0.000    0.889    2.222    4.667    3.111    1.778 
#    8.000    0.000    0.000    0.000    0.000    0.000 
#    0.000    0.000    0.000    0.000    0.000    0.000 
#
# Total GULP energy -446181.012052 kJ/mol
# GULP energy per Si atom -12393.917001 kJ/mol
# Density = 2.247740 g / cm^3
# Si number density = 22.528674 Si / 1000 Ang^3
#
#
#
# Elastic Constant Matrix: (Units=GPa)
#
#
# Indices 1 2 3 4 5 6 
#
# 1 138.8934 52.4270 26.5801 0.0000 0.0000 0.0000
# 2 52.4270 138.8942 26.5802 0.0000 0.0000 0.0000
# 3 26.5801 26.5802 63.4731 0.0000 0.0000 0.0000
# 4 0.0000 0.0000 0.0000 34.5099 0.0000 0.0000
# 5 0.0000 0.0000 0.0000 0.0000 34.5093 0.0000
# 6 0.0000 0.0000 0.0000 0.0000 0.0000 52.3270
#
#
#
# Elastic Compliance Matrix: (Units=1/GPa)
#
#
# Indices 1 2 3 4 5 6 
#
# 1 0.008740 -0.002825 -0.002477 0.000000 0.000000 0.000000
# 2 -0.002825 0.008740 -0.002477 0.000000 0.000000 0.000000
# 3 -0.002477 -0.002477 0.017829 0.000000 0.000000 0.000000
# 4 0.000000 0.000000 0.000000 0.028977 0.000000 0.000000
# 5 0.000000 0.000000 0.000000 0.000000 0.028978 0.000000
# 6 0.000000 0.000000 0.000000 0.000000 0.000000 0.019111
#
#
# Mechanical properties :
#
#
# Convention : Reuss Voigt Hill
#
# Bulk Modulus (GPa) = 50.62941 61.38171 56.00556
# Shear Modulus (GPa) = 37.17007 39.98080 38.57544
#
# Velocity S-wave (km/s) = 4.06630 4.21725 4.14246
# Velocity P-wave (km/s) = 6.67597 7.14274 6.91329
#
# Compressibility (1/GPa) = 0.01975137
#
# Stress axis : x y z
#
# Youngs Moduli (GPa) = 114.41471 114.41534 56.08758
#
# Poissons Ratio (x) = 0.32323 0.13893
# Poissons Ratio (y) = 0.32322 0.13893
# Poissons Ratio (z) = 0.28341 0.28341
#
# Static dielectric constant tensor:
#      x y z
#    x 3.873510 0.000000 0.000000 
#    y 0.000000 3.873480 0.000000 
#    z 0.000000 0.000000 1.050930 
# 
# 
# High freq. dielectric constant tensor:
#      x y z
#    x 1.901930 0.000000 0.000000 
#    y 0.000000 1.901930 0.000000 
#    z 0.000000 0.000000 1.877360 
# 
# From -- ./inp_files/3442.got.cif
#   From: 2010.03.12/outbox.cif.g09.slc.cpg/sg92_2_cif.got.tgz:3442.got - 2010.04.08 20:41:11.
