data_PCOD8305527
_publ_section_title
;
Structure prediction by ZEFSAII (Michael W. Deem and Ramdas Pophale) SiO2 
 PCOD8305527
Probable space group: P 42 2 2
;
_chemical_formula_sum "Si O2"
_cell_formula_units_Z 32
_cell_length_a 14.030881
_cell_length_b 14.030881
_cell_length_c 8.194232
_cell_angle_alpha 90.000000
_cell_angle_beta 90.000000
_cell_angle_gamma 90.000000
_cell_volume 1613.162577
_symmetry_space_group_name_H-M "P 42 2 2"
_symmetry_group_IT_number 93
_symmetry_cell_setting 'tetragonal'
loop_
_space_group_symop_operation_xyz
x,y,z
-y,x,1/2+z
-x,-y,z
y,-x,1/2+z
x,-y,-z
-x,y,-z
y,x,1/2-z
-y,-x,1/2-z
loop_
_atom_site_type_symbol
_atom_site_label
_atom_site_fract_x
_atom_site_fract_y
_atom_site_fract_z
Si Si1 0.808224 0.413802 0.886890
Si Si2 0.684754 0.177267 0.300939
Si Si3 0.012993 0.611894 0.683990
Si Si4 0.680866 0.536463 0.680208
O O1 0.882433 0.369980 0.756703
O O2 0.711762 0.447882 0.796272
O O3 0.851712 0.500000 0.000000
O O4 0.783592 0.330247 0.014543
O O5 0.791963 0.208038 0.250000
O O6 0.610018 0.230221 0.179601
O O7 0.669118 0.064137 0.292149
O O8 0.000000 0.500000 0.691817
O O9 0.000000 0.649949 0.500000
O O10 0.660056 0.500000 0.500000
O O11 0.585200 0.585200 0.750000
#
# Coordination Sequence:
#
# PCOD8305527 Si02
#       4
#     8   8   8   8
#     4  10  19  33  56  80 107 145 191 236 285 345
#     4  10  21  35  53  82 115 144 185 246 291 338
#     4  11  19  31  56  83 110 144 188 233 287 349
#     4  10  20  36  54  75 104 148 199 247 291 333
#
# _framework density 19.836808999999999
#
# number of rings (size 3 to 8) (size 9 to 14) (size 15 to 20)
#    0.000    1.750    5.000    2.250    0.000    0.000 
#    0.000   30.000    0.000   17.250    0.000    0.000 
#    0.000   12.000    0.000    0.000    0.000    0.000 
#
# Total GULP energy -396624.117194 kJ/mol
# GULP energy per Si atom -12394.503662 kJ/mol
# Density = 1.979166 g / cm^3
# Si number density = 19.836809 Si / 1000 Ang^3
#
#
#
# Elastic Constant Matrix: (Units=GPa)
#
#
# Indices 1 2 3 4 5 6 
#
# 1 66.5247 55.2374 52.2481 0.0000 0.0000 0.0000
# 2 55.2374 66.5255 52.2485 0.0000 0.0000 0.0000
# 3 52.2481 52.2485 150.5549 0.0000 0.0000 0.0000
# 4 0.0000 0.0000 0.0000 22.0706 0.0000 0.0000
# 5 0.0000 0.0000 0.0000 0.0000 22.0699 0.0000
# 6 0.0000 0.0000 0.0000 0.0000 0.0000 24.5587
#
#
#
# Elastic Compliance Matrix: (Units=1/GPa)
#
#
# Indices 1 2 3 4 5 6 
#
# 1 0.050145 -0.038448 -0.004059 0.000000 0.000000 0.000000
# 2 -0.038448 0.050144 -0.004059 0.000000 0.000000 0.000000
# 3 -0.004059 -0.004059 0.009459 0.000000 0.000000 0.000000
# 4 0.000000 0.000000 0.000000 0.045309 0.000000 0.000000
# 5 0.000000 0.000000 0.000000 0.000000 0.045310 0.000000
# 6 0.000000 0.000000 0.000000 0.000000 0.000000 0.040719
#
#
# Mechanical properties :
#
#
# Convention : Reuss Voigt Hill
#
# Bulk Modulus (GPa) = 60.18433 67.00812 63.59622
# Shear Modulus (GPa) = 14.71639 21.99793 18.35716
#
# Velocity S-wave (km/s) = 2.72669 3.33370 3.04535
# Velocity P-wave (km/s) = 6.34970 6.97646 6.67045
#
# Compressibility (1/GPa) = 0.01661562
#
# Stress axis : x y z
#
# Youngs Moduli (GPa) = 19.94234 19.94254 105.71543
#
# Poissons Ratio (x) = 0.76675 0.42910
# Poissons Ratio (y) = 0.76675 0.42910
# Poissons Ratio (z) = 0.08095 0.08095
#
# Static dielectric constant tensor:
#      x y z
#    x 3.433950 0.000000 0.000000 
#    y 0.000000 3.433940 0.000000 
#    z 0.000000 0.000000 3.942220 
# 
# 
# High freq. dielectric constant tensor:
#      x y z
#    x 1.732020 0.000000 0.000000 
#    y 0.000000 1.732020 0.000000 
#    z 0.000000 0.000000 1.791900 
# 
# From -- ./inp_files/1529.got.cif
#   From: 2010.03.12/outbox.cif.g09.slc.cpg/sg93_1_cif.got.tgz:1529.got - 2010.04.08 20:44:19.
