data_PCOD8305114
_publ_section_title
;
Structure prediction by ZEFSAII (Michael W. Deem and Ramdas Pophale) SiO2 
 PCOD8305114
Probable space group: P 41 2 2
;
_chemical_formula_sum "Si O2"
_cell_formula_units_Z 48
_cell_length_a 19.223314
_cell_length_b 19.223314
_cell_length_c 10.323220
_cell_angle_alpha 90.000000
_cell_angle_beta 90.000000
_cell_angle_gamma 90.000000
_cell_volume 3814.799373
_symmetry_space_group_name_H-M "P 41 2 2"
_symmetry_group_IT_number 91
_symmetry_cell_setting 'tetragonal'
loop_
_space_group_symop_operation_xyz
x,y,z
-y,x,1/4+z
-x,-y,1/2+z
y,-x,3/4+z
x,-y,1/2-z
-x,y,-z
y,x,3/4-z
-y,-x,1/4-z
loop_
_atom_site_type_symbol
_atom_site_label
_atom_site_fract_x
_atom_site_fract_y
_atom_site_fract_z
Si Si1 0.650357 0.586051 0.001436
Si Si2 0.945868 0.583032 0.104049
Si Si3 0.581547 0.208963 0.144776
Si Si4 0.421163 0.353132 0.751752
Si Si5 0.417447 0.944998 0.647569
Si Si6 0.792563 0.416753 0.392351
O O1 0.641732 0.503853 0.994753
O O2 0.608694 0.613917 0.123393
O O3 0.731641 0.608253 0.011694
O O4 0.621032 0.621032 0.875000
O O5 0.962250 0.608406 0.251092
O O6 0.949326 0.500234 0.100028
O O7 0.868730 0.609281 0.062130
O O8 0.000000 0.615126 0.000000
O O9 0.604247 0.272316 0.238203
O O10 0.607631 0.132585 0.191153
O O11 0.499225 0.206559 0.135939
O O12 0.611975 0.224141 0.001555
O O13 0.396664 0.396664 0.875000
O O14 0.385348 0.000000 0.750000
#
# Coordination Sequence:
#
# PCOD8305114 Si02
#       6
#     8   8   8   8   8   8
#     4  11  22  32  40  55  72  87 116 163 206 229
#     4   8  13  22  37  54  70  90 108 122 157 215
#     4   8  14  26  42  54  65  89 116 136 170 224
#     4  11  20  32  46  53  64  91 125 155 194 242
#     4   8  13  22  36  55  74  85 102 132 162 201
#     4   8  14  27  41  51  69  91 111 137 174 222
#
# _framework density 12.582575
#
# number of rings (size 3 to 8) (size 9 to 14) (size 15 to 20)
#    0.000    3.000    1.667    3.000    0.000    2.000 
#    3.000    0.000    0.000    0.000    0.000    0.000 
#    0.000    0.000    0.000    0.000    0.000    0.000 
#
# Total GULP energy -594641.243055 kJ/mol
# GULP energy per Si atom -12388.359230 kJ/mol
# Density = 1.255394 g / cm^3
# Si number density = 12.582575 Si / 1000 Ang^3
#
#
#
# Elastic Constant Matrix: (Units=GPa)
#
#
# Indices 1 2 3 4 5 6 
#
# 1 70.2467 24.8277 44.2646 0.0000 0.0000 0.0000
# 2 24.8277 70.2467 44.2646 0.0000 0.0000 0.0000
# 3 44.2646 44.2646 94.2341 0.0000 0.0000 0.0000
# 4 0.0000 0.0000 0.0000 8.8480 0.0000 0.0000
# 5 0.0000 0.0000 0.0000 0.0000 8.8480 0.0000
# 6 0.0000 0.0000 0.0000 0.0000 0.0000 -0.9942
#
#
#
# Elastic Compliance Matrix: (Units=1/GPa)
#
#
# Indices 1 2 3 4 5 6 
#
# 1 0.020356 -0.001661 -0.008782 0.000000 0.000000 0.000000
# 2 -0.001661 0.020356 -0.008782 0.000000 0.000000 0.000000
# 3 -0.008782 -0.008782 0.018862 0.000000 0.000000 0.000000
# 4 0.000000 0.000000 0.000000 0.113020 0.000000 0.000000
# 5 0.000000 0.000000 0.000000 0.000000 0.113020 0.000000
# 6 0.000000 0.000000 0.000000 0.000000 0.000000 -1.005796
#
#
# Mechanical properties :
#
#
# Convention : Reuss Voigt Hill
#
# Bulk Modulus (GPa) = 47.33608 51.27128 49.30368
# Shear Modulus (GPa) = -7.41079 11.43174 2.01047
#
# Velocity S-wave (km/s) = -2.42951 3.01746 1.26542
# Velocity P-wave (km/s) = 5.46187 7.27849 6.43461
#
# Compressibility (1/GPa) = 0.02112553
#
# Stress axis : x y z
#
# Youngs Moduli (GPa) = 49.12505 49.12505 53.01682
#
# Poissons Ratio (x) = 0.08160 0.46558
# Poissons Ratio (y) = 0.08160 0.46558
# Poissons Ratio (z) = 0.43140 0.43140
#
# Static dielectric constant tensor:
#      x y z
#    x 2.575660 0.000000 0.000000 
#    y 0.000000 2.575660 0.000000 
#    z 0.000000 0.000000 2.623010 
# 
# 
# High freq. dielectric constant tensor:
#      x y z
#    x 1.445700 0.000000 0.000000 
#    y 0.000000 1.445700 0.000000 
#    z 0.000000 0.000000 1.479270 
# 
# From -- ./inp_files/2834.got.cif
#   From: 2010.03.12/outbox.cif.g09.slc.cpg/sg91_2_cif.got.tgz:2834.got - 2010.04.08 20:27:58.
