data_PCOD8305428
_publ_section_title
;
Structure prediction by ZEFSAII (Michael W. Deem and Ramdas Pophale) SiO2 
 PCOD8305428
Probable space group: P 41 21 2
;
_chemical_formula_sum "Si O2"
_cell_formula_units_Z 32
_cell_length_a 7.490542
_cell_length_b 7.490542
_cell_length_c 24.798836
_cell_angle_alpha 90.000000
_cell_angle_beta 90.000000
_cell_angle_gamma 90.000000
_cell_volume 1391.418532
_symmetry_space_group_name_H-M "P 41 21 2"
_symmetry_group_IT_number 92
_symmetry_cell_setting 'tetragonal'
loop_
_space_group_symop_operation_xyz
x,y,z
1/2-y,1/2+x,1/4+z
-x,-y,1/2+z
1/2+y,1/2-x,3/4+z
1/2+x,1/2-y,3/4-z
1/2-x,1/2+y,1/4-z
y,x,-z
-y,-x,1/2-z
loop_
_atom_site_type_symbol
_atom_site_label
_atom_site_fract_x
_atom_site_fract_y
_atom_site_fract_z
Si Si1 0.115861 0.009304 0.363707
Si Si2 0.307622 0.524715 0.459231
Si Si3 0.340157 0.985347 0.579224
Si Si4 0.631284 0.626012 0.268483
O O1 0.306488 0.044546 0.336210
O O2 0.984304 0.901706 0.322797
O O3 0.002829 0.189339 0.375083
O O4 0.157296 0.901831 0.417969
O O5 0.370654 0.370654 0.500000
O O6 0.199966 0.674296 0.493753
O O7 0.163133 0.458250 0.415498
O O8 0.255569 0.997485 0.519215
O O9 0.426103 0.573898 0.250000
#
# Coordination Sequence:
#
# PCOD8305428 Si02
#       4
#     8   8   8   8
#     4  11  23  43  69 106 137 191 243 300 373 446
#     4  12  24  44  72 103 142 191 249 305 375 447
#     4  11  23  44  72  99 141 189 243 303 368 445
#     4  10  25  46  65 102 148 187 241 306 377 441
#
# _framework density 22.998111000000002
#
# number of rings (size 3 to 8) (size 9 to 14) (size 15 to 20)
#    0.000    1.000    5.000    2.250    3.500    0.000 
#    4.500    0.000    0.000    0.000    0.000    0.000 
#    0.000    0.000    0.000    0.000    0.000    0.000 
#
# Total GULP energy -396501.704984 kJ/mol
# GULP energy per Si atom -12390.678281 kJ/mol
# Density = 2.294577 g / cm^3
# Si number density = 22.998111 Si / 1000 Ang^3
#
#
#
# Elastic Constant Matrix: (Units=GPa)
#
#
# Indices 1 2 3 4 5 6 
#
# 1 129.2293 56.1060 27.8298 0.0000 0.0000 0.0000
# 2 56.1060 129.2287 27.8298 0.0000 0.0000 0.0000
# 3 27.8298 27.8298 89.6822 0.0000 0.0000 0.0000
# 4 0.0000 0.0000 0.0000 29.6524 0.0000 0.0000
# 5 0.0000 0.0000 0.0000 0.0000 29.6525 0.0000
# 6 0.0000 0.0000 0.0000 0.0000 0.0000 43.3925
#
#
#
# Elastic Compliance Matrix: (Units=1/GPa)
#
#
# Indices 1 2 3 4 5 6 
#
# 1 0.009813 -0.003863 -0.001846 0.000000 0.000000 0.000000
# 2 -0.003863 0.009813 -0.001846 0.000000 0.000000 0.000000
# 3 -0.001846 -0.001846 0.012296 0.000000 0.000000 0.000000
# 4 0.000000 0.000000 0.000000 0.033724 0.000000 0.000000
# 5 0.000000 0.000000 0.000000 0.000000 0.033724 0.000000
# 6 0.000000 0.000000 0.000000 0.000000 0.000000 0.023045
#
#
# Mechanical properties :
#
#
# Convention : Reuss Voigt Hill
#
# Bulk Modulus (GPa) = 59.48473 63.51902 61.50188
# Shear Modulus (GPa) = 34.93316 36.29779 35.61547
#
# Velocity S-wave (km/s) = 3.90161 3.97709 3.93953
# Velocity P-wave (km/s) = 6.79838 6.98347 6.89154
#
# Compressibility (1/GPa) = 0.01681104
#
# Stress axis : x y z
#
# Youngs Moduli (GPa) = 101.90726 101.90674 81.32445
#
# Poissons Ratio (x) = 0.39364 0.15016
# Poissons Ratio (y) = 0.39364 0.15016
# Poissons Ratio (z) = 0.18816 0.18816
#
# Static dielectric constant tensor:
#      x y z
#    x 4.070260 0.000000 0.000000 
#    y 0.000000 4.070260 0.000000 
#    z 0.000000 0.000000 3.989730 
# 
# 
# High freq. dielectric constant tensor:
#      x y z
#    x 1.897870 0.000000 0.000000 
#    y 0.000000 1.897870 0.000000 
#    z 0.000000 0.000000 1.909940 
# 
# From -- ./inp_files/3715.got.cif
#   From: 2010.03.12/outbox.cif.g09.slc.cpg/sg92_2_cif.got.tgz:3715.got - 2010.04.08 20:41:11.
