data_PCOD8305536
_publ_section_title
;
Structure prediction by ZEFSAII (Michael W. Deem and Ramdas Pophale) SiO2 
 PCOD8305536
Probable space group: P 42 2 2
;
_chemical_formula_sum "Si O2"
_cell_formula_units_Z 36
_cell_length_a 9.136884
_cell_length_b 9.136884
_cell_length_c 20.539406
_cell_angle_alpha 90.000000
_cell_angle_beta 90.000000
_cell_angle_gamma 90.000000
_cell_volume 1714.684026
_symmetry_space_group_name_H-M "P 42 2 2"
_symmetry_group_IT_number 93
_symmetry_cell_setting 'tetragonal'
loop_
_space_group_symop_operation_xyz
x,y,z
-y,x,1/2+z
-x,-y,z
y,-x,1/2+z
x,-y,-z
-x,y,-z
y,x,1/2-z
-y,-x,1/2-z
loop_
_atom_site_type_symbol
_atom_site_label
_atom_site_fract_x
_atom_site_fract_y
_atom_site_fract_z
Si Si1 0.335084 0.056681 0.641495
Si Si2 0.722353 0.722353 0.750000
Si Si3 0.821875 0.260070 0.442574
Si Si4 0.206245 0.855079 0.908759
Si Si5 0.835794 0.502648 0.345719
O O1 0.280251 0.127360 0.709104
O O2 0.322396 0.181943 0.586547
O O3 0.500000 0.000000 0.646712
O O4 0.221194 0.935694 0.618727
O O5 0.577256 0.723742 0.795790
O O6 0.803751 0.251312 0.519304
O O7 0.829613 0.426276 0.417016
O O8 0.969629 0.183551 0.413284
O O9 0.328955 0.797199 0.858134
O O10 0.000000 0.500000 0.316668
#
# Coordination Sequence:
#
# PCOD8305536 Si02
#       5
#     8   4   8   8   8
#     4  11  23  39  58  84 118 156 191 236 292 343
#     4  10  22  42  56  76 120 158 198 246 280 328
#     4   9  19  36  60  90 121 144 183 242 294 350
#     4  10  19  36  63  91 113 147 192 237 294 348
#     4   9  18  36  60  85 113 153 196 238 286 338
#
# _framework density 20.995121999999999
#
# number of rings (size 3 to 8) (size 9 to 14) (size 15 to 20)
#    0.000    2.222    0.000    2.667    0.000    6.222 
#    0.000   35.556    0.000    5.333    0.000    0.000 
#    0.000    0.000    0.000    0.000    0.000    0.000 
#
# Total GULP energy -446048.084933 kJ/mol
# GULP energy per Si atom -12390.224581 kJ/mol
# Density = 2.094734 g / cm^3
# Si number density = 20.995122 Si / 1000 Ang^3
#
#
#
# Elastic Constant Matrix: (Units=GPa)
#
#
# Indices 1 2 3 4 5 6 
#
# 1 61.1167 39.4108 32.5307 0.0000 0.0000 0.0000
# 2 39.4108 61.1167 32.5307 0.0000 0.0000 0.0000
# 3 32.5307 32.5307 111.2821 0.0000 0.0000 0.0000
# 4 0.0000 0.0000 0.0000 30.0244 0.0000 0.0000
# 5 0.0000 0.0000 0.0000 0.0000 30.0244 0.0000
# 6 0.0000 0.0000 0.0000 0.0000 0.0000 29.1607
#
#
#
# Elastic Compliance Matrix: (Units=1/GPa)
#
#
# Indices 1 2 3 4 5 6 
#
# 1 0.029170 -0.016901 -0.003586 0.000000 0.000000 0.000000
# 2 -0.016901 0.029170 -0.003586 0.000000 0.000000 0.000000
# 3 -0.003586 -0.003586 0.011083 0.000000 0.000000 0.000000
# 4 0.000000 0.000000 0.000000 0.033306 0.000000 0.000000
# 5 0.000000 0.000000 0.000000 0.000000 0.033306 0.000000
# 6 0.000000 0.000000 0.000000 0.000000 0.000000 0.034293
#
#
# Mechanical properties :
#
#
# Convention : Reuss Voigt Hill
#
# Bulk Modulus (GPa) = 47.00458 49.16222 48.08340
# Shear Modulus (GPa) = 22.16642 26.44478 24.30560
#
# Velocity S-wave (km/s) = 3.25282 3.55289 3.40616
# Velocity P-wave (km/s) = 6.04522 6.34804 6.19848
#
# Compressibility (1/GPa) = 0.02127452
#
# Stress axis : x y z
#
# Youngs Moduli (GPa) = 34.28233 34.28233 90.22819
#
# Poissons Ratio (x) = 0.57940 0.32360
# Poissons Ratio (y) = 0.57940 0.32360
# Poissons Ratio (z) = 0.12295 0.12295
#
# Static dielectric constant tensor:
#      x y z
#    x 3.707080 0.000000 0.000000 
#    y 0.000000 3.707080 0.000000 
#    z 0.000000 0.000000 3.814270 
# 
# 
# High freq. dielectric constant tensor:
#      x y z
#    x 1.810890 0.000000 0.000000 
#    y 0.000000 1.810890 0.000000 
#    z 0.000000 0.000000 1.826570 
# 
# From -- ./inp_files/6040.got.cif
#   From: 2010.03.12/outbox.cif.g09.slc.cpg/sg93_4_cif.got.tgz:6040.got - 2010.04.08 20:44:19.
