data_PCOD8305035
_publ_section_title
;
Structure prediction by ZEFSAII (Michael W. Deem and Ramdas Pophale) SiO2 
 PCOD8305035
Probable space group: P 41 2 2
;
_chemical_formula_sum "Si O2"
_cell_formula_units_Z 60
_cell_length_a 18.921038
_cell_length_b 18.921038
_cell_length_c 8.389357
_cell_angle_alpha 90.000000
_cell_angle_beta 90.000000
_cell_angle_gamma 90.000000
_cell_volume 3003.437449
_symmetry_space_group_name_H-M "P 41 2 2"
_symmetry_group_IT_number 91
_symmetry_cell_setting 'tetragonal'
loop_
_space_group_symop_operation_xyz
x,y,z
-y,x,1/4+z
-x,-y,1/2+z
y,-x,3/4+z
x,-y,1/2-z
-x,y,-z
y,x,3/4-z
-y,-x,1/4-z
loop_
_atom_site_type_symbol
_atom_site_label
_atom_site_fract_x
_atom_site_fract_y
_atom_site_fract_z
Si Si1 0.163615 0.554533 0.545923
Si Si2 0.072311 0.812177 0.584016
Si Si3 0.559054 0.308511 0.376788
Si Si4 0.767974 0.336362 0.663226
Si Si5 0.434572 0.565429 0.625000
Si Si6 0.403597 0.843258 0.364707
Si Si7 0.033309 0.293383 0.664934
Si Si8 0.678796 0.902606 0.123299
O O1 0.230906 0.539643 0.435790
O O2 0.124119 0.479065 0.559192
O O3 0.192758 0.584763 0.713412
O O4 0.106102 0.610491 0.484475
O O5 0.122920 0.877081 0.625000
O O6 0.060888 0.778419 0.757227
O O7 0.106439 0.751578 0.471515
O O8 0.000000 0.839678 0.500000
O O9 0.500000 0.336475 0.500000
O O10 0.630633 0.294604 0.477069
O O11 0.566457 0.363811 0.232419
O O12 0.742178 0.257823 0.625000
O O13 0.780162 0.380724 0.502283
O O14 0.842999 0.325533 0.742118
O O15 0.436660 0.500000 0.750000
O O16 0.347981 0.905696 0.374106
O O17 0.000000 0.269045 0.500000
O O18 0.978538 0.327971 0.790065
#
# Coordination Sequence:
#
# PCOD8305035 Si02
#       8
#     8   8   8   8   4   8   8   8
#     4  10  23  41  62  95 132 177 218 265 326 389
#     4  10  23  44  69  94 131 170 213 269 331 394
#     4  11  25  44  69  89 131 171 208 285 335 396
#     4  11  25  39  64  97 127 169 226 267 326 396
#     4  12  30  48  70  96 122 166 230 286 356 416
#     4  11  22  41  63  92 132 174 222 268 316 398
#     4  11  22  42  64  94 134 175 216 265 325 381
#     4  10  22  41  61  94 136 172 216 271 323 387
#
# _framework density 19.97711
#
# number of rings (size 3 to 8) (size 9 to 14) (size 15 to 20)
#    0.000    1.333    4.000    0.400    7.467    0.000 
#    7.200    2.667    0.000    0.000    0.000    0.000 
#    0.000    0.000    0.000    0.000    0.000    0.000 
#
# Total GULP energy -743667.844208 kJ/mol
# GULP energy per Si atom -12394.464070 kJ/mol
# Density = 1.993164 g / cm^3
# Si number density = 19.977110 Si / 1000 Ang^3
#
#
#
# Elastic Constant Matrix: (Units=GPa)
#
#
# Indices 1 2 3 4 5 6 
#
# 1 98.0323 63.3345 47.8905 0.0000 0.0000 0.0000
# 2 63.3345 98.0347 47.8906 0.0000 0.0000 0.0000
# 3 47.8905 47.8906 128.0781 0.0000 0.0000 0.0000
# 4 0.0000 0.0000 0.0000 23.2603 0.0000 0.0000
# 5 0.0000 0.0000 0.0000 0.0000 23.2560 0.0000
# 6 0.0000 0.0000 0.0000 0.0000 0.0000 30.8664
#
#
#
# Elastic Compliance Matrix: (Units=1/GPa)
#
#
# Indices 1 2 3 4 5 6 
#
# 1 0.018392 -0.010427 -0.002978 0.000000 0.000000 0.000000
# 2 -0.010427 0.018392 -0.002978 0.000000 0.000000 0.000000
# 3 -0.002978 -0.002978 0.010035 0.000000 0.000000 0.000000
# 4 0.000000 0.000000 0.000000 0.042992 0.000000 0.000000
# 5 0.000000 0.000000 0.000000 0.000000 0.043000 0.000000
# 6 0.000000 0.000000 0.000000 0.000000 0.000000 0.032398
#
#
# Mechanical properties :
#
#
# Convention : Reuss Voigt Hill
#
# Bulk Modulus (GPa) = 71.16548 71.37513 71.27030
# Shear Modulus (GPa) = 24.67199 26.47850 25.57525
#
# Velocity S-wave (km/s) = 3.51809 3.64461 3.58191
# Velocity P-wave (km/s) = 7.22519 7.31553 7.27050
#
# Compressibility (1/GPa) = 0.01405176
#
# Stress axis : x y z
#
# Youngs Moduli (GPa) = 54.37070 54.37229 99.65228
#
# Poissons Ratio (x) = 0.56695 0.29679
# Poissons Ratio (y) = 0.56694 0.29677
# Poissons Ratio (z) = 0.16193 0.16192
#
# Static dielectric constant tensor:
#      x y z
#    x 3.527680 0.000000 0.000000 
#    y 0.000000 3.527680 0.000000 
#    z 0.000000 0.000000 4.144340 
# 
# 
# High freq. dielectric constant tensor:
#      x y z
#    x 1.770580 0.000000 0.000000 
#    y 0.000000 1.770580 0.000000 
#    z 0.000000 0.000000 1.806190 
# 
# From -- ./inp_files/10045.got.cif
#   From: 2010.03.12/outbox.cif.g09.slc.cpg/sg91_6_cif.got.tgz:10045.got - 2010.04.08 20:27:58.
