data_PCOD8305928
_publ_section_title
;
Structure prediction by ZEFSAII (Michael W. Deem and Ramdas Pophale) SiO2 
 PCOD8305928
Probable space group: P 43 21 2
;
_chemical_formula_sum "Si O2"
_cell_formula_units_Z 52
_cell_length_a 20.446001
_cell_length_b 20.446001
_cell_length_c 5.099568
_cell_angle_alpha 90.000000
_cell_angle_beta 90.000000
_cell_angle_gamma 90.000000
_cell_volume 2131.818087
_symmetry_space_group_name_H-M "P 43 21 2"
_symmetry_group_IT_number 96
_symmetry_cell_setting 'tetragonal'
loop_
_space_group_symop_operation_xyz
x,y,z
1/2-y,1/2+x,3/4+z
-x,-y,1/2+z
1/2+y,1/2-x,1/4+z
1/2+x,1/2-y,1/4-z
1/2-x,1/2+y,3/4-z
y,x,-z
-y,-x,1/2-z
loop_
_atom_site_type_symbol
_atom_site_label
_atom_site_fract_x
_atom_site_fract_y
_atom_site_fract_z
Si Si1 0.852438 0.039937 0.196288
Si Si2 0.031669 0.031669 0.500000
Si Si3 0.236822 0.129102 0.515334
Si Si4 0.978865 0.593636 0.961165
Si Si5 0.877854 0.351123 0.938604
Si Si6 0.936551 0.293460 0.433576
Si Si7 0.427763 0.680433 0.770926
O O1 0.895758 0.104243 0.250000
O O2 0.784584 0.059136 0.062720
O O3 0.890889 0.985270 0.017118
O O4 0.837404 0.003765 0.471474
O O5 0.003054 0.996946 0.250000
O O6 0.192224 0.192224 0.500000
O O7 0.307507 0.155469 0.442513
O O8 0.214286 0.075297 0.302708
O O9 0.232570 0.097008 0.802576
O O10 0.940571 0.548649 0.756036
O O11 0.996065 0.667135 0.853394
O O12 0.928212 0.601028 0.206553
O O13 0.924071 0.313162 0.733767
O O14 0.881454 0.316953 0.223304
O O15 0.386233 0.613768 0.750000
#
# Coordination Sequence:
#
# PCOD8305928 Si02
#       7
#     8   4   8   8   8   8   8
#     4  11  27  46  71 101 147 189 243 301 370 434
#     4  10  26  46  72 100 136 190 246 300 366 434
#     4  10  22  42  67  96 134 182 237 293 354 425
#     4  10  21  40  68  99 135 176 227 286 356 421
#     4  11  24  43  69  99 139 186 229 291 362 442
#     4  11  26  43  66 105 141 182 236 295 361 435
#     4  10  23  40  65  98 127 173 234 301 347 408
#
# _framework density 24.392326000000001
#
# number of rings (size 3 to 8) (size 9 to 14) (size 15 to 20)
#    0.000    1.538    0.000    2.769    7.538   12.308 
#    0.000    0.000    0.000    0.000    0.000    0.000 
#    0.000    0.000    0.000    0.000    0.000    0.000 
#
# Total GULP energy -644516.251364 kJ/mol
# GULP energy per Si atom -12394.543295 kJ/mol
# Density = 2.433681 g / cm^3
# Si number density = 24.392326 Si / 1000 Ang^3
#
#
#
# Elastic Constant Matrix: (Units=GPa)
#
#
# Indices 1 2 3 4 5 6 
#
# 1 131.3410 42.8682 6.6213 0.0000 0.0000 0.0000
# 2 42.8682 131.3393 6.6204 0.0000 0.0000 0.0000
# 3 6.6213 6.6204 67.1015 0.0000 0.0000 0.0000
# 4 0.0000 0.0000 0.0000 24.7721 0.0000 0.0000
# 5 0.0000 0.0000 0.0000 0.0000 24.7722 0.0000
# 6 0.0000 0.0000 0.0000 0.0000 0.0000 21.9900
#
#
#
# Elastic Compliance Matrix: (Units=1/GPa)
#
#
# Indices 1 2 3 4 5 6 
#
# 1 0.008543 -0.002760 -0.000571 0.000000 0.000000 0.000000
# 2 -0.002760 0.008543 -0.000571 0.000000 0.000000 0.000000
# 3 -0.000571 -0.000571 0.015015 0.000000 0.000000 0.000000
# 4 0.000000 0.000000 0.000000 0.040368 0.000000 0.000000
# 5 0.000000 0.000000 0.000000 0.000000 0.040368 0.000000
# 6 0.000000 0.000000 0.000000 0.000000 0.000000 0.045475
#
#
# Mechanical properties :
#
#
# Convention : Reuss Voigt Hill
#
# Bulk Modulus (GPa) = 41.15226 49.11130 45.13178
# Shear Modulus (GPa) = 28.70015 32.55165 30.62590
#
# Velocity S-wave (km/s) = 3.43389 3.65705 3.54722
# Velocity P-wave (km/s) = 5.71224 6.16520 5.94304
#
# Compressibility (1/GPa) = 0.02430000
#
# Stress axis : x y z
#
# Youngs Moduli (GPa) = 117.05116 117.04973 66.59824
#
# Poissons Ratio (x) = 0.32302 0.03801
# Poissons Ratio (y) = 0.32303 0.03800
# Poissons Ratio (z) = 0.06681 0.06679
#
# Static dielectric constant tensor:
#      x y z
#    x 4.674960 0.000000 0.000000 
#    y 0.000000 4.674960 0.000000 
#    z 0.000000 0.000000 4.260940 
# 
# 
# High freq. dielectric constant tensor:
#      x y z
#    x 1.973620 0.000000 0.000000 
#    y 0.000000 1.973630 0.000000 
#    z 0.000000 0.000000 1.960880 
# 
# From -- ./inp_files/689.got.cif
#   From: 2010.03.12/outbox.cif.g09.slc.cpg/sg96_1_cif.got.tgz:689.got - 2010.04.08 20:56:49.
