data_PCOD8305643
_publ_section_title
;
Structure prediction by ZEFSAII (Michael W. Deem and Ramdas Pophale) SiO2 
 PCOD8305643
Probable space group: P 42 21 2
;
_chemical_formula_sum "Si O2"
_cell_formula_units_Z 64
_cell_length_a 12.129830
_cell_length_b 12.129830
_cell_length_c 22.463305
_cell_angle_alpha 90.000000
_cell_angle_beta 90.000000
_cell_angle_gamma 90.000000
_cell_volume 3305.088419
_symmetry_space_group_name_H-M "P 42 21 2"
_symmetry_group_IT_number 94
_symmetry_cell_setting 'tetragonal'
loop_
_space_group_symop_operation_xyz
x,y,z
1/2-y,1/2+x,1/2+z
-x,-y,z
1/2+y,1/2-x,1/2+z
1/2+x,1/2-y,1/2-z
1/2-x,1/2+y,1/2-z
y,x,-z
-y,-x,-z
loop_
_atom_site_type_symbol
_atom_site_label
_atom_site_fract_x
_atom_site_fract_y
_atom_site_fract_z
Si Si1 0.680118 0.154609 0.031071
Si Si2 0.265754 0.156450 0.662348
Si Si3 0.373649 0.977374 0.455977
Si Si4 0.463957 0.759264 0.339676
Si Si5 0.068526 0.239750 0.025886
Si Si6 0.623313 0.778941 0.778074
Si Si7 0.837354 0.415506 0.162011
Si Si8 0.023873 0.871485 0.274704
O O1 0.662200 0.168510 0.100907
O O2 0.749698 0.250303 0.000000
O O3 0.555022 0.165613 0.008969
O O4 0.737692 0.037779 0.015690
O O5 0.355357 0.172443 0.713169
O O6 0.189379 0.261522 0.663622
O O7 0.196423 0.044883 0.675463
O O8 0.355023 0.849406 0.472730
O O9 0.500000 0.000000 0.441461
O O10 0.309589 0.012108 0.396441
O O11 0.471648 0.711203 0.406824
O O12 0.340529 0.801319 0.327033
O O13 0.538525 0.869393 0.333830
O O14 0.495382 0.664610 0.292754
O O15 0.137495 0.137495 0.000000
O O16 0.493615 0.805391 0.783347
O O17 0.652505 0.651417 0.786192
O O18 0.000000 0.000000 0.282012
#
# Coordination Sequence:
#
# PCOD8305643 Si02
#       8
#     8   8   8   8   8   8   8   8
#     4  11  22  41  66  92 127 169 215 265 322 390
#     4  11  24  40  62  98 130 164 213 269 326 388
#     4  10  19  38  66  90 120 169 214 259 303 384
#     4  11  22  41  65  95 122 167 223 257 318 397
#     4  11  24  42  64  97 130 170 219 272 323 378
#     4  11  23  38  67  92 123 166 210 266 317 385
#     4  12  18  41  69  86 122 168 220 255 315 392
#     4  11  24  41  60  95 135 166 205 270 332 379
#
# _framework density 19.364083000000001
#
# number of rings (size 3 to 8) (size 9 to 14) (size 15 to 20)
#    0.000    1.000    7.500    0.375    0.000    2.250 
#    0.000    7.500    0.000    0.000    0.000    0.000 
#    0.000    0.000    0.000    0.000    0.000    0.000 
#
# Total GULP energy -793466.830448 kJ/mol
# GULP energy per Si atom -12397.919226 kJ/mol
# Density = 1.932001 g / cm^3
# Si number density = 19.364083 Si / 1000 Ang^3
#
#
#
# Elastic Constant Matrix: (Units=GPa)
#
#
# Indices 1 2 3 4 5 6 
#
# 1 91.6253 41.2337 48.6743 0.0000 0.0000 0.0000
# 2 41.2337 91.6246 48.6757 0.0000 0.0000 0.0000
# 3 48.6743 48.6757 135.6580 0.0000 0.0000 0.0000
# 4 0.0000 0.0000 0.0000 25.3454 0.0000 0.0000
# 5 0.0000 0.0000 0.0000 0.0000 25.3414 0.0000
# 6 0.0000 0.0000 0.0000 0.0000 0.0000 30.1839
#
#
#
# Elastic Compliance Matrix: (Units=1/GPa)
#
#
# Indices 1 2 3 4 5 6 
#
# 1 0.015028 -0.004817 -0.003664 0.000000 0.000000 0.000000
# 2 -0.004817 0.015028 -0.003664 0.000000 0.000000 0.000000
# 3 -0.003664 -0.003664 0.010001 0.000000 0.000000 0.000000
# 4 0.000000 0.000000 0.000000 0.039455 0.000000 0.000000
# 5 0.000000 0.000000 0.000000 0.000000 0.039461 0.000000
# 6 0.000000 0.000000 0.000000 0.000000 0.000000 0.033130
#
#
# Mechanical properties :
#
#
# Convention : Reuss Voigt Hill
#
# Bulk Modulus (GPa) = 63.41973 66.23058 64.82516
# Shear Modulus (GPa) = 27.52573 28.19576 27.86075
#
# Velocity S-wave (km/s) = 3.77435 3.82001 3.79725
# Velocity P-wave (km/s) = 7.19837 7.33033 7.26465
#
# Compressibility (1/GPa) = 0.01576796
#
# Stress axis : x y z
#
# Youngs Moduli (GPa) = 66.54277 66.54121 99.99224
#
# Poissons Ratio (x) = 0.32050 0.36635
# Poissons Ratio (y) = 0.32051 0.36638
# Poissons Ratio (z) = 0.24380 0.24381
#
# Static dielectric constant tensor:
#      x y z
#    x 3.702870 0.000000 0.000000 
#    y 0.000000 3.702880 0.000000 
#    z 0.000000 0.000000 4.594770 
# 
# 
# High freq. dielectric constant tensor:
#      x y z
#    x 1.754390 0.000000 0.000000 
#    y 0.000000 1.754390 0.000000 
#    z 0.000000 0.000000 1.754150 
# 
# From -- ./inp_files/5163.got.cif
#   From: 2010.03.12/outbox.cif.g09.slc.cpg/sg94_3_cif.got.tgz:5163.got - 2010.04.08 20:48:32.
