data_PCOD8305203
_publ_section_title
;
Structure prediction by ZEFSAII (Michael W. Deem and Ramdas Pophale) SiO2 
 PCOD8305203
Probable space group: P 41 21 2
;
_chemical_formula_sum "Si O2"
_cell_formula_units_Z 48
_cell_length_a 15.012752
_cell_length_b 15.012752
_cell_length_c 10.423841
_cell_angle_alpha 90.000000
_cell_angle_beta 90.000000
_cell_angle_gamma 90.000000
_cell_volume 2349.353665
_symmetry_space_group_name_H-M "P 41 21 2"
_symmetry_group_IT_number 92
_symmetry_cell_setting 'tetragonal'
loop_
_space_group_symop_operation_xyz
x,y,z
1/2-y,1/2+x,1/4+z
-x,-y,1/2+z
1/2+y,1/2-x,3/4+z
1/2+x,1/2-y,3/4-z
1/2-x,1/2+y,1/4-z
y,x,-z
-y,-x,1/2-z
loop_
_atom_site_type_symbol
_atom_site_label
_atom_site_fract_x
_atom_site_fract_y
_atom_site_fract_z
Si Si1 0.486607 0.917430 0.237270
Si Si2 0.578620 0.421381 0.250000
Si Si3 0.276829 0.150853 0.927808
Si Si4 0.554402 0.353407 0.507715
Si Si5 0.742142 0.111979 0.483734
Si Si6 0.902801 0.040917 0.620061
Si Si7 0.147618 0.852383 0.750000
O O1 0.512246 0.968241 0.370630
O O2 0.399552 0.853852 0.260727
O O3 0.568264 0.852837 0.197380
O O4 0.609063 0.364657 0.374291
O O5 0.590440 0.526204 0.279889
O O6 0.237113 0.079698 0.828090
O O7 0.319076 0.231676 0.849157
O O8 0.193174 0.193174 0.000000
O O9 0.566606 0.440116 0.597533
O O10 0.454305 0.338869 0.461279
O O11 0.810632 0.037027 0.539612
O O12 0.784269 0.167323 0.366233
O O13 0.899675 0.100326 0.750000
#
# Coordination Sequence:
#
# PCOD8305203 Si02
#       7
#     8   4   8   8   8   8   4
#     4  10  23  45  70  90 119 173 223 257 308 390
#     4  10  18  31  54  92 119 158 194 230 304 380
#     4  11  24  41  63  91 122 161 210 264 314 363
#     4  11  20  33  60  90 123 161 196 245 306 382
#     4  11  22  39  61  88 125 161 203 259 313 359
#     4  10  18  31  57  89 123 157 197 237 301 381
#     4  12  20  35  62  92 123 160 194 252 318 370
#
# _framework density 20.431149999999999
#
# number of rings (size 3 to 8) (size 9 to 14) (size 15 to 20)
#    0.000    1.333    5.833    1.500    1.167    0.667 
#    3.000    0.000   14.667    0.000    0.000    0.000 
#    0.000    0.000    0.000    0.000    0.000    0.000 
#
# Total GULP energy -594768.522673 kJ/mol
# GULP energy per Si atom -12391.010889 kJ/mol
# Density = 2.038465 g / cm^3
# Si number density = 20.431150 Si / 1000 Ang^3
#
#
#
# Elastic Constant Matrix: (Units=GPa)
#
#
# Indices 1 2 3 4 5 6 
#
# 1 53.1096 35.1906 33.5249 0.0000 0.0000 0.0000
# 2 35.1906 53.1091 33.5260 0.0000 0.0000 0.0000
# 3 33.5249 33.5260 90.5114 0.0000 0.0000 0.0000
# 4 0.0000 0.0000 0.0000 34.0580 0.0000 0.0000
# 5 0.0000 0.0000 0.0000 0.0000 34.0580 0.0000
# 6 0.0000 0.0000 0.0000 0.0000 0.0000 32.1312
#
#
#
# Elastic Compliance Matrix: (Units=1/GPa)
#
#
# Indices 1 2 3 4 5 6 
#
# 1 0.035782 -0.020025 -0.005836 0.000000 0.000000 0.000000
# 2 -0.020025 0.035783 -0.005837 0.000000 0.000000 0.000000
# 3 -0.005836 -0.005837 0.015372 0.000000 0.000000 0.000000
# 4 0.000000 0.000000 0.000000 0.029362 0.000000 0.000000
# 5 0.000000 0.000000 0.000000 0.000000 0.029362 0.000000
# 6 0.000000 0.000000 0.000000 0.000000 0.000000 0.031122
#
#
# Mechanical properties :
#
#
# Convention : Reuss Voigt Hill
#
# Bulk Modulus (GPa) = 42.48042 44.57924 43.52983
# Shear Modulus (GPa) = 20.15927 26.34868 23.25398
#
# Velocity S-wave (km/s) = 3.14457 3.59504 3.37733
# Velocity P-wave (km/s) = 5.83280 6.25292 6.04651
#
# Compressibility (1/GPa) = 0.02354026
#
# Stress axis : x y z
#
# Youngs Moduli (GPa) = 27.94732 27.94639 65.05372
#
# Poissons Ratio (x) = 0.55964 0.37964
# Poissons Ratio (y) = 0.55965 0.37971
# Poissons Ratio (z) = 0.16309 0.16312
#
# Static dielectric constant tensor:
#      x y z
#    x 3.651810 0.000000 0.000000 
#    y 0.000000 3.651780 0.000000 
#    z 0.000000 0.000000 4.020040 
# 
# 
# High freq. dielectric constant tensor:
#      x y z
#    x 1.781920 0.000000 0.000000 
#    y 0.000000 1.781920 0.000000 
#    z 0.000000 0.000000 1.806180 
# 
# From -- ./inp_files/2212.got.cif
#   From: 2010.03.12/outbox.cif.g09.slc.cpg/sg92_2_cif.got.tgz:2212.got - 2010.04.08 20:41:11.
