data_PCOD8305666
_publ_section_title
;
Structure prediction by ZEFSAII (Michael W. Deem and Ramdas Pophale) SiO2 
 PCOD8305666
Probable space group: P 42 21 2
;
_chemical_formula_sum "Si O2"
_cell_formula_units_Z 58
_cell_length_a 18.019214
_cell_length_b 18.019214
_cell_length_c 8.849758
_cell_angle_alpha 90.000000
_cell_angle_beta 90.000000
_cell_angle_gamma 90.000000
_cell_volume 2873.446272
_symmetry_space_group_name_H-M "P 42 21 2"
_symmetry_group_IT_number 94
_symmetry_cell_setting 'tetragonal'
loop_
_space_group_symop_operation_xyz
x,y,z
1/2-y,1/2+x,1/2+z
-x,-y,z
1/2+y,1/2-x,1/2+z
1/2+x,1/2-y,1/2-z
1/2-x,1/2+y,1/2-z
y,x,-z
-y,-x,-z
loop_
_atom_site_type_symbol
_atom_site_label
_atom_site_fract_x
_atom_site_fract_y
_atom_site_fract_z
Si Si1 0.799764 0.523736 0.943180
Si Si2 0.989327 0.411952 0.694368
Si Si3 0.101817 0.320547 0.216593
Si Si4 0.139767 0.976061 0.465617
Si Si5 0.337042 0.118198 0.125862
Si Si6 0.192896 0.195851 0.828076
Si Si7 0.087012 0.064815 0.748761
Si Si8 0.500000 0.500000 0.500000
O O1 0.786969 0.468790 0.803171
O O2 0.728531 0.528445 0.054415
O O3 0.813087 0.606401 0.882378
O O4 0.872862 0.496828 0.033500
O O5 0.907453 0.389191 0.754442
O O6 0.000000 0.500000 0.674014
O O7 0.047962 0.379671 0.809421
O O8 0.174505 0.269817 0.260580
O O9 0.089992 0.308518 0.037374
O O10 0.104377 0.895624 0.500000
O O11 0.128212 0.026689 0.611605
O O12 0.101599 0.010844 0.316548
O O13 0.269279 0.148968 0.231179
O O14 0.138204 0.127102 0.819129
O O15 0.214275 0.214275 0.000000
O O16 0.069956 0.006247 0.884707
#
# Coordination Sequence:
#
# PCOD8305666 Si02
#       8
#     8   8   8   8   8   8   8   2
#     4  11  23  38  61  93 122 169 204 263 325 375
#     4  11  23  39  63  92 126 160 215 268 319 379
#     4  10  22  37  62  89 120 163 211 257 320 381
#     4  11  22  38  58  89 131 160 212 257 309 378
#     4  10  23  40  61  92 122 164 210 267 313 383
#     4  10  20  38  61  88 125 161 207 255 317 382
#     4  11  20  36  60  93 120 164 207 260 306 369
#     4  12  20  34  64  92 112 158 220 256 308 356
#
# _framework density 20.184822
#
# number of rings (size 3 to 8) (size 9 to 14) (size 15 to 20)
#    0.000    1.379    4.828    1.241    3.862    2.759 
#    0.000    0.000    0.000    0.000    0.000    0.000 
#    0.000    0.000    0.000    0.000    0.000    0.000 
#
# Total GULP energy -718660.421337 kJ/mol
# GULP energy per Si atom -12390.696920 kJ/mol
# Density = 2.013888 g / cm^3
# Si number density = 20.184822 Si / 1000 Ang^3
#
#
#
# Elastic Constant Matrix: (Units=GPa)
#
#
# Indices 1 2 3 4 5 6 
#
# 1 119.0263 67.6442 31.4924 0.0000 0.0000 0.0000
# 2 67.6442 119.0282 31.4917 0.0000 0.0000 0.0000
# 3 31.4924 31.4917 57.8297 0.0000 0.0000 0.0000
# 4 0.0000 0.0000 0.0000 23.2956 0.0000 0.0000
# 5 0.0000 0.0000 0.0000 0.0000 23.2955 0.0000
# 6 0.0000 0.0000 0.0000 0.0000 0.0000 31.2817
#
#
#
# Elastic Compliance Matrix: (Units=1/GPa)
#
#
# Indices 1 2 3 4 5 6 
#
# 1 0.013012 -0.006449 -0.003574 0.000000 0.000000 0.000000
# 2 -0.006449 0.013012 -0.003574 0.000000 0.000000 0.000000
# 3 -0.003574 -0.003574 0.021185 0.000000 0.000000 0.000000
# 4 0.000000 0.000000 0.000000 0.042926 0.000000 0.000000
# 5 0.000000 0.000000 0.000000 0.000000 0.042927 0.000000
# 6 0.000000 0.000000 0.000000 0.000000 0.000000 0.031968
#
#
# Mechanical properties :
#
#
# Convention : Reuss Voigt Hill
#
# Bulk Modulus (GPa) = 49.96330 61.90455 55.93392
# Shear Modulus (GPa) = 25.13877 26.59163 25.86520
#
# Velocity S-wave (km/s) = 3.53289 3.63355 3.58357
# Velocity P-wave (km/s) = 6.43804 6.95263 6.70028
#
# Compressibility (1/GPa) = 0.02001469
#
# Stress axis : x y z
#
# Youngs Moduli (GPa) = 76.84946 76.85155 47.20412
#
# Poissons Ratio (x) = 0.49565 0.16871
# Poissons Ratio (y) = 0.49563 0.16869
# Poissons Ratio (z) = 0.27467 0.27464
#
# Static dielectric constant tensor:
#      x y z
#    x 3.892380 0.000000 0.000000 
#    y 0.000000 3.892380 0.000000 
#    z 0.000000 0.000000 3.580670 
# 
# 
# High freq. dielectric constant tensor:
#      x y z
#    x 1.790550 0.000000 0.000000 
#    y 0.000000 1.790550 0.000000 
#    z 0.000000 0.000000 1.769210 
# 
# From -- ./inp_files/1739.got.cif
#   From: 2010.03.12/outbox.cif.g09.slc.cpg/sg94_1_cif.got.tgz:1739.got - 2010.04.08 20:48:32.
