data_PCOD8305863
_publ_section_title
;
Structure prediction by ZEFSAII (Michael W. Deem and Ramdas Pophale) SiO2 
 PCOD8305863
Probable space group: P 43 2 2
;
_chemical_formula_sum "Si O2"
_cell_formula_units_Z 20
_cell_length_a 7.489994
_cell_length_b 7.489994
_cell_length_c 15.635975
_cell_angle_alpha 90.000000
_cell_angle_beta 90.000000
_cell_angle_gamma 90.000000
_cell_volume 877.178356
_symmetry_space_group_name_H-M "P 43 2 2"
_symmetry_group_IT_number 95
_symmetry_cell_setting 'tetragonal'
loop_
_space_group_symop_operation_xyz
x,y,z
-y,x,3/4+z
-x,-y,1/2+z
y,-x,1/4+z
x,-y,1/2-z
-x,y,-z
y,x,1/4-z
-y,-x,3/4-z
loop_
_atom_site_type_symbol
_atom_site_label
_atom_site_fract_x
_atom_site_fract_y
_atom_site_fract_z
Si Si1 0.790741 0.033117 0.506909
Si Si2 0.680072 0.680072 0.125000
Si Si3 0.844822 0.660841 0.438566
O O1 0.684222 0.160447 0.442947
O O2 0.726235 0.061440 0.602418
O O3 0.000000 0.075389 0.500000
O O4 0.747597 0.829079 0.482224
O O5 0.490893 0.695928 0.173384
O O6 0.000000 0.582699 0.500000
#
# Coordination Sequence:
#
# PCOD8305863 Si02
#       3
#     8   4   8
#     4  11  21  46  77 100 142 191 233 296 357 424
#     4  12  24  44  74 104 146 188 234 294 366 422
#     4  11  24  43  77 106 140 191 238 292 362 429
#
# _framework density 22.800379
#
# number of rings (size 3 to 8) (size 9 to 14) (size 15 to 20)
#    0.000    0.800    4.000    6.000    0.000    0.000 
#    0.000    8.000    0.000    0.000    0.000    0.000 
#    0.000    0.000    0.000    0.000    0.000    0.000 
#
# Total GULP energy -248122.489099 kJ/mol
# GULP energy per Si atom -12406.124455 kJ/mol
# Density = 2.274848 g / cm^3
# Si number density = 22.800379 Si / 1000 Ang^3
#
#
#
# Elastic Constant Matrix: (Units=GPa)
#
#
# Indices 1 2 3 4 5 6 
#
# 1 101.7852 56.8742 30.5874 0.0000 0.0000 0.0000
# 2 56.8742 101.7852 30.5874 0.0000 0.0000 0.0000
# 3 30.5874 30.5874 126.6634 0.0000 0.0000 0.0000
# 4 0.0000 0.0000 0.0000 31.6664 0.0000 0.0000
# 5 0.0000 0.0000 0.0000 0.0000 31.6664 0.0000
# 6 0.0000 0.0000 0.0000 0.0000 0.0000 2.1467
#
#
#
# Elastic Compliance Matrix: (Units=1/GPa)
#
#
# Indices 1 2 3 4 5 6 
#
# 1 0.014608 -0.007658 -0.001678 0.000000 0.000000 0.000000
# 2 -0.007658 0.014608 -0.001678 0.000000 0.000000 0.000000
# 3 -0.001678 -0.001678 0.008706 0.000000 0.000000 0.000000
# 4 0.000000 0.000000 0.000000 0.031579 0.000000 0.000000
# 5 0.000000 0.000000 0.000000 0.000000 0.031579 0.000000
# 6 0.000000 0.000000 0.000000 0.000000 0.000000 0.465822
#
#
# Mechanical properties :
#
#
# Convention : Reuss Voigt Hill
#
# Bulk Modulus (GPa) = 62.92423 62.92575 62.92499
# Shear Modulus (GPa) = 8.41427 27.24155 17.82791
#
# Velocity S-wave (km/s) = 1.92313 3.46032 2.79930
# Velocity P-wave (km/s) = 5.70868 6.60481 6.17303
#
# Compressibility (1/GPa) = 0.01589213
#
# Stress axis : x y z
#
# Youngs Moduli (GPa) = 68.45515 68.45515 114.86977
#
# Poissons Ratio (x) = 0.52424 0.19279
# Poissons Ratio (y) = 0.52424 0.19279
# Poissons Ratio (z) = 0.11489 0.11489
#
# Static dielectric constant tensor:
#      x y z
#    x 4.122760 0.000000 0.000000 
#    y 0.000000 4.122760 0.000000 
#    z 0.000000 0.000000 4.498310 
# 
# 
# High freq. dielectric constant tensor:
#      x y z
#    x 1.891190 0.000000 0.000000 
#    y 0.000000 1.891190 0.000000 
#    z 0.000000 0.000000 1.924610 
# 
# From -- ./inp_files/4126.got.cif
#   From: 2010.03.12/outbox.cif.g09.slc.cpg/sg95_3_cif.got.tgz:4126.got - 2010.04.08 20:51:55.
