data_PCOD8305059
_publ_section_title
;
Structure prediction by ZEFSAII (Michael W. Deem and Ramdas Pophale) SiO2 
 PCOD8305059
Probable space group: P 41 2 2
;
_chemical_formula_sum "Si O2"
_cell_formula_units_Z 28
_cell_length_a 11.210354
_cell_length_b 11.210354
_cell_length_c 10.818413
_cell_angle_alpha 90.000000
_cell_angle_beta 90.000000
_cell_angle_gamma 90.000000
_cell_volume 1359.571997
_symmetry_space_group_name_H-M "P 41 2 2"
_symmetry_group_IT_number 91
_symmetry_cell_setting 'tetragonal'
loop_
_space_group_symop_operation_xyz
x,y,z
-y,x,1/4+z
-x,-y,1/2+z
y,-x,3/4+z
x,-y,1/2-z
-x,y,-z
y,x,3/4-z
-y,-x,1/4-z
loop_
_atom_site_type_symbol
_atom_site_label
_atom_site_fract_x
_atom_site_fract_y
_atom_site_fract_z
Si Si1 0.784840 0.215161 0.625000
Si Si2 0.875807 0.453990 0.034463
Si Si3 0.500000 0.734620 0.500000
Si Si4 0.000000 0.315231 0.500000
Si Si5 0.609361 0.689449 0.080272
O O1 0.926105 0.233614 0.596667
O O2 0.747682 0.289907 0.745123
O O3 0.813985 0.411501 0.162108
O O4 0.903672 0.594796 0.063335
O O5 0.790610 0.444320 0.917861
O O6 0.000000 0.385750 0.000000
O O7 0.420964 0.655157 0.409720
O O8 0.500000 0.638991 0.000000
#
# Coordination Sequence:
#
# PCOD8305059 Si02
#       5
#     4   8   4   4   8
#     4  12  24  44  72  98 130 182 236 278 350 406
#     4  10  23  40  67  92 129 175 228 277 333 408
#     4  12  24  42  58 106 140 182 222 272 348 418
#     4  10  22  44  68  96 124 180 228 278 334 406
#     4  12  22  43  63 100 139 181 220 279 342 423
#
# _framework density 20.594716999999999
#
# number of rings (size 3 to 8) (size 9 to 14) (size 15 to 20)
#    0.857    0.000    5.714    0.857    6.000    0.000 
#   23.143    0.000    3.143    0.000    0.000    0.000 
#    0.000    0.000    0.000    0.000    0.000    0.000 
#
# Total GULP energy -346896.603856 kJ/mol
# GULP energy per Si atom -12389.164423 kJ/mol
# Density = 2.054784 g / cm^3
# Si number density = 20.594717 Si / 1000 Ang^3
#
#
#
# Elastic Constant Matrix: (Units=GPa)
#
#
# Indices 1 2 3 4 5 6 
#
# 1 93.6501 51.5359 67.9064 0.0000 0.0000 0.0000
# 2 51.5359 93.6496 67.9067 0.0000 0.0000 0.0000
# 3 67.9064 67.9067 158.6137 0.0000 0.0000 0.0000
# 4 0.0000 0.0000 0.0000 38.7227 0.0000 0.0000
# 5 0.0000 0.0000 0.0000 0.0000 38.7227 0.0000
# 6 0.0000 0.0000 0.0000 0.0000 0.0000 -6.7877
#
#
#
# Elastic Compliance Matrix: (Units=1/GPa)
#
#
# Indices 1 2 3 4 5 6 
#
# 1 0.017617 -0.006128 -0.004919 0.000000 0.000000 0.000000
# 2 -0.006128 0.017617 -0.004919 0.000000 0.000000 0.000000
# 3 -0.004919 -0.004919 0.010516 0.000000 0.000000 0.000000
# 4 0.000000 0.000000 0.000000 0.025825 0.000000 0.000000
# 5 0.000000 0.000000 0.000000 0.000000 0.025825 0.000000
# 6 0.000000 0.000000 0.000000 0.000000 0.000000 -0.147326
#
#
# Mechanical properties :
#
#
# Convention : Reuss Voigt Hill
#
# Bulk Modulus (GPa) = 72.36263 80.06793 76.21528
# Shear Modulus (GPa) = -373.44300 24.70251 -174.37025
#
# Velocity S-wave (km/s) = -13.48047 3.46708 -9.21147
# Velocity P-wave (km/s) = 14.39044 7.41551 8.72052
#
# Compressibility (1/GPa) = 0.01381929
#
# Stress axis : x y z
#
# Youngs Moduli (GPa) = 56.76374 56.76305 95.09093
#
# Poissons Ratio (x) = 0.34785 0.46772
# Poissons Ratio (y) = 0.34785 0.46773
# Poissons Ratio (z) = 0.27920 0.27920
#
# Static dielectric constant tensor:
#      x y z
#    x 3.788220 0.000000 0.000000 
#    y 0.000000 3.788240 0.000000 
#    z 0.000000 0.000000 4.040310 
# 
# 
# High freq. dielectric constant tensor:
#      x y z
#    x 1.790670 0.000000 0.000000 
#    y 0.000000 1.790670 0.000000 
#    z 0.000000 0.000000 1.817200 
# 
# From -- ./inp_files/10371.got.cif
#   From: 2010.03.12/outbox.cif.g09.slc.cpg/sg91_6_cif.got.tgz:10371.got - 2010.04.08 20:27:58.
