data_PCOD8305828
_publ_section_title
;
Structure prediction by ZEFSAII (Michael W. Deem and Ramdas Pophale) SiO2 
 PCOD8305828
Probable space group: P 43 2 2
;
_chemical_formula_sum "Si O2"
_cell_formula_units_Z 48
_cell_length_a 9.221360
_cell_length_b 9.221360
_cell_length_c 26.731426
_cell_angle_alpha 90.000000
_cell_angle_beta 90.000000
_cell_angle_gamma 90.000000
_cell_volume 2273.066185
_symmetry_space_group_name_H-M "P 43 2 2"
_symmetry_group_IT_number 95
_symmetry_cell_setting 'tetragonal'
loop_
_space_group_symop_operation_xyz
x,y,z
-y,x,3/4+z
-x,-y,1/2+z
y,-x,1/4+z
x,-y,1/2-z
-x,y,-z
y,x,1/4-z
-y,-x,3/4-z
loop_
_atom_site_type_symbol
_atom_site_label
_atom_site_fract_x
_atom_site_fract_y
_atom_site_fract_z
Si Si1 0.064843 0.350259 0.231528
Si Si2 0.861790 0.795257 0.072420
Si Si3 0.151253 0.646112 0.095365
Si Si4 0.735043 0.657772 0.258667
Si Si5 0.843202 0.133922 0.063477
Si Si6 0.320707 0.087996 0.133067
O O1 0.140541 0.500000 0.250000
O O2 0.157983 0.215796 0.256037
O O3 0.029564 0.339265 0.172959
O O4 0.905312 0.348425 0.254836
O O5 0.777437 0.777437 0.125000
O O6 0.020328 0.729105 0.069604
O O7 0.891809 0.966945 0.065269
O O8 0.774765 0.692964 0.033478
O O9 0.294118 0.685813 0.063717
O O10 0.168621 0.703978 0.151761
O O11 0.123754 0.474951 0.093048
O O12 0.663999 0.500000 0.250000
O O13 0.976491 0.235848 0.080400
O O14 0.237336 0.237336 0.125000
#
# Coordination Sequence:
#
# PCOD8305828 Si02
#       6
#     8   8   8   8   8   8
#     4  10  20  40  69  96 127 170 217 270 328 393
#     4   9  20  37  63  96 125 156 212 267 324 375
#     4  11  21  40  65  92 129 167 209 275 318 379
#     4  10  21  38  66  92 123 169 219 260 318 391
#     4  10  21  40  68  98 125 169 212 269 333 386
#     4  12  25  42  63  96 136 167 221 275 330 388
#
# _framework density 21.116852999999999
#
# number of rings (size 3 to 8) (size 9 to 14) (size 15 to 20)
#    0.000    1.667    3.333    2.000    2.333    0.667 
#    6.000    3.333    0.000    0.000    0.000    0.000 
#    0.000    0.000    0.000    0.000    0.000    0.000 
#
# Total GULP energy -594669.045380 kJ/mol
# GULP energy per Si atom -12388.938445 kJ/mol
# Density = 2.106879 g / cm^3
# Si number density = 21.116853 Si / 1000 Ang^3
#
#
#
# Elastic Constant Matrix: (Units=GPa)
#
#
# Indices 1 2 3 4 5 6 
#
# 1 101.2992 57.5300 29.6237 0.0000 0.0000 0.0000
# 2 57.5300 101.2992 29.6237 0.0000 0.0000 0.0000
# 3 29.6237 29.6237 80.4700 0.0000 0.0000 0.0000
# 4 0.0000 0.0000 0.0000 21.0750 0.0000 0.0000
# 5 0.0000 0.0000 0.0000 0.0000 21.0750 0.0000
# 6 0.0000 0.0000 0.0000 0.0000 0.0000 4.1778
#
#
#
# Elastic Compliance Matrix: (Units=1/GPa)
#
#
# Indices 1 2 3 4 5 6 
#
# 1 0.015073 -0.007774 -0.002687 0.000000 0.000000 0.000000
# 2 -0.007774 0.015073 -0.002687 0.000000 0.000000 0.000000
# 3 -0.002687 -0.002687 0.014405 0.000000 0.000000 0.000000
# 4 0.000000 0.000000 0.000000 0.047450 0.000000 0.000000
# 5 0.000000 0.000000 0.000000 0.000000 0.047450 0.000000
# 6 0.000000 0.000000 0.000000 0.000000 0.000000 0.239360
#
#
# Mechanical properties :
#
#
# Convention : Reuss Voigt Hill
#
# Bulk Modulus (GPa) = 54.78022 57.40256 56.09139
# Shear Modulus (GPa) = 12.15980 20.35161 16.25570
#
# Velocity S-wave (km/s) = 2.40226 3.10782 2.77753
# Velocity P-wave (km/s) = 5.80450 6.33406 6.07506
#
# Compressibility (1/GPa) = 0.01825476
#
# Stress axis : x y z
#
# Youngs Moduli (GPa) = 66.34503 66.34503 69.41961
#
# Poissons Ratio (x) = 0.51579 0.18651
# Poissons Ratio (y) = 0.51579 0.18651
# Poissons Ratio (z) = 0.17825 0.17825
#
# Static dielectric constant tensor:
#      x y z
#    x 3.683490 0.000000 0.000000 
#    y 0.000000 3.683490 0.000000 
#    z 0.000000 0.000000 4.155540 
# 
# 
# High freq. dielectric constant tensor:
#      x y z
#    x 1.809170 0.000000 0.000000 
#    y 0.000000 1.809170 0.000000 
#    z 0.000000 0.000000 1.837910 
# 
# From -- ./inp_files/7903.got.cif
#   From: 2010.03.12/outbox.cif.g09.slc.cpg/sg95_4_cif.got.tgz:7903.got - 2010.04.08 20:51:55.
