data_PCOD8305373
_publ_section_title
;
Structure prediction by ZEFSAII (Michael W. Deem and Ramdas Pophale) SiO2 
 PCOD8305373
Probable space group: P 41 21 2
;
_chemical_formula_sum "Si O2"
_cell_formula_units_Z 32
_cell_length_a 8.793990
_cell_length_b 8.793990
_cell_length_c 19.862294
_cell_angle_alpha 90.000000
_cell_angle_beta 90.000000
_cell_angle_gamma 90.000000
_cell_volume 1536.035811
_symmetry_space_group_name_H-M "P 41 21 2"
_symmetry_group_IT_number 92
_symmetry_cell_setting 'tetragonal'
loop_
_space_group_symop_operation_xyz
x,y,z
1/2-y,1/2+x,1/4+z
-x,-y,1/2+z
1/2+y,1/2-x,3/4+z
1/2+x,1/2-y,3/4-z
1/2-x,1/2+y,1/4-z
y,x,-z
-y,-x,1/2-z
loop_
_atom_site_type_symbol
_atom_site_label
_atom_site_fract_x
_atom_site_fract_y
_atom_site_fract_z
Si Si1 0.818978 0.850496 0.313656
Si Si2 0.655907 0.175519 0.071322
Si Si3 0.843645 0.169803 0.673534
Si Si4 0.181824 0.331508 0.439908
O O1 0.808129 0.728697 0.254066
O O2 0.720588 0.794515 0.376687
O O3 0.991937 0.877402 0.336431
O O4 0.748863 0.006989 0.286793
O O5 0.493575 0.237078 0.096654
O O6 0.784764 0.236204 0.121060
O O7 0.654894 0.995365 0.073621
O O8 0.794981 0.205020 0.750000
O O9 0.212333 0.212333 0.500000
#
# Coordination Sequence:
#
# PCOD8305373 Si02
#       4
#     8   8   8   8
#     4  11  23  40  65  94 129 167 212 263 316 382
#     4  11  24  42  63  90 126 165 210 261 319 384
#     4  10  22  41  62  92 129 168 212 258 313 376
#     4  12  24  41  65  92 125 164 210 264 322 384
#
# _framework density 20.832850000000001
#
# number of rings (size 3 to 8) (size 9 to 14) (size 15 to 20)
#    0.000    1.000    0.000    8.250    0.000    8.000 
#    0.000    1.250    0.000    0.000    0.000    0.000 
#    0.000    0.000    0.000    0.000    0.000    0.000 
#
# Total GULP energy -397086.930951 kJ/mol
# GULP energy per Si atom -12408.966592 kJ/mol
# Density = 2.078543 g / cm^3
# Si number density = 20.832850 Si / 1000 Ang^3
#
#
#
# Elastic Constant Matrix: (Units=GPa)
#
#
# Indices 1 2 3 4 5 6 
#
# 1 146.2782 50.1570 42.1690 0.0000 0.0000 0.0000
# 2 50.1570 146.2780 42.1690 0.0000 0.0000 0.0000
# 3 42.1690 42.1690 84.2990 0.0000 0.0000 0.0000
# 4 0.0000 0.0000 0.0000 18.5975 0.0000 0.0000
# 5 0.0000 0.0000 0.0000 0.0000 18.5963 0.0000
# 6 0.0000 0.0000 0.0000 0.0000 0.0000 38.7853
#
#
#
# Elastic Compliance Matrix: (Units=1/GPa)
#
#
# Indices 1 2 3 4 5 6 
#
# 1 0.008443 -0.001960 -0.003243 0.000000 0.000000 0.000000
# 2 -0.001960 0.008443 -0.003243 0.000000 0.000000 0.000000
# 3 -0.003243 -0.003243 0.015107 0.000000 0.000000 0.000000
# 4 0.000000 0.000000 0.000000 0.053771 0.000000 0.000000
# 5 0.000000 0.000000 0.000000 0.000000 0.053774 0.000000
# 6 0.000000 0.000000 0.000000 0.000000 0.000000 0.025783
#
#
# Mechanical properties :
#
#
# Convention : Reuss Voigt Hill
#
# Bulk Modulus (GPa) = 66.22032 71.76057 68.99044
# Shear Modulus (GPa) = 26.70255 31.35315 29.02785
#
# Velocity S-wave (km/s) = 3.58404 3.88362 3.73684
# Velocity P-wave (km/s) = 6.99876 7.39126 7.19768
#
# Compressibility (1/GPa) = 0.01510110
#
# Stress axis : x y z
#
# Youngs Moduli (GPa) = 118.43672 118.43649 66.19403
#
# Poissons Ratio (x) = 0.23216 0.21467
# Poissons Ratio (y) = 0.23216 0.21467
# Poissons Ratio (z) = 0.38410 0.38410
#
# Static dielectric constant tensor:
#      x y z
#    x 3.813540 0.000000 0.000000 
#    y 0.000000 3.813540 0.000000 
#    z 0.000000 0.000000 3.773980 
# 
# 
# High freq. dielectric constant tensor:
#      x y z
#    x 1.825090 0.000000 0.000000 
#    y 0.000000 1.825090 0.000000 
#    z 0.000000 0.000000 1.822980 
# 
# From -- ./inp_files/3333.got.cif
#   From: 2010.03.12/outbox.cif.g09.slc.cpg/sg92_2_cif.got.tgz:3333.got - 2010.04.08 20:41:11.
