data_PCOD8305257
_publ_section_title
;
Structure prediction by ZEFSAII (Michael W. Deem and Ramdas Pophale) SiO2 
 PCOD8305257
Probable space group: P 41 21 2
;
_chemical_formula_sum "Si O2"
_cell_formula_units_Z 32
_cell_length_a 16.604046
_cell_length_b 16.604046
_cell_length_c 5.180676
_cell_angle_alpha 90.000000
_cell_angle_beta 90.000000
_cell_angle_gamma 90.000000
_cell_volume 1428.283069
_symmetry_space_group_name_H-M "P 41 21 2"
_symmetry_group_IT_number 92
_symmetry_cell_setting 'tetragonal'
loop_
_space_group_symop_operation_xyz
x,y,z
1/2-y,1/2+x,1/4+z
-x,-y,1/2+z
1/2+y,1/2-x,3/4+z
1/2+x,1/2-y,3/4-z
1/2-x,1/2+y,1/4-z
y,x,-z
-y,-x,1/2-z
loop_
_atom_site_type_symbol
_atom_site_label
_atom_site_fract_x
_atom_site_fract_y
_atom_site_fract_z
Si Si1 0.234701 0.554355 0.709397
Si Si2 0.546566 0.892528 0.566302
Si Si3 0.156019 0.285180 0.972631
Si Si4 0.101835 0.968740 0.499239
O O1 0.252002 0.596574 0.437291
O O2 0.305593 0.492447 0.764113
O O3 0.152231 0.500584 0.698477
O O4 0.229515 0.620513 0.937344
O O5 0.477548 0.909703 0.360264
O O6 0.618828 0.834075 0.468652
O O7 0.242767 0.242767 0.000000
O O8 0.084414 0.915587 0.250000
O O9 0.084714 0.915287 0.750000
O O10 0.049967 0.049967 0.500000
#
# Coordination Sequence:
#
# PCOD8305257 Si02
#       4
#     8   8   8   8
#     4  11  23  40  63  90 124 165 208 260 318 377
#     4  10  22  41  66  93 126 165 211 260 317 380
#     4  11  23  40  64  91 123 163 207 257 312 377
#     4  10  20  35  57  86 121 161 206 255 308 372
#
# _framework density 22.404523000000001
#
# number of rings (size 3 to 8) (size 9 to 14) (size 15 to 20)
#    0.000    1.500    0.000    5.250    0.000    9.000 
#    0.000    5.000    0.000    0.000    0.000    0.000 
#    0.000    0.000    0.000    0.000    0.000    0.000 
#
# Total GULP energy -396631.489538 kJ/mol
# GULP energy per Si atom -12394.734048 kJ/mol
# Density = 2.235353 g / cm^3
# Si number density = 22.404523 Si / 1000 Ang^3
#
#
#
# Elastic Constant Matrix: (Units=GPa)
#
#
# Indices 1 2 3 4 5 6 
#
# 1 118.6875 54.5604 20.1202 0.0000 0.0000 0.0000
# 2 54.5604 118.6880 20.1207 0.0000 0.0000 0.0000
# 3 20.1202 20.1207 103.1116 0.0000 0.0000 0.0000
# 4 0.0000 0.0000 0.0000 41.0652 0.0000 0.0000
# 5 0.0000 0.0000 0.0000 0.0000 41.0348 0.0000
# 6 0.0000 0.0000 0.0000 0.0000 0.0000 34.3598
#
#
#
# Elastic Compliance Matrix: (Units=1/GPa)
#
#
# Indices 1 2 3 4 5 6 
#
# 1 0.010820 -0.004774 -0.001180 0.000000 0.000000 0.000000
# 2 -0.004774 0.010820 -0.001180 0.000000 0.000000 0.000000
# 3 -0.001180 -0.001180 0.010159 0.000000 0.000000 0.000000
# 4 0.000000 0.000000 0.000000 0.024352 0.000000 0.000000
# 5 0.000000 0.000000 0.000000 0.000000 0.024370 0.000000
# 6 0.000000 0.000000 0.000000 0.000000 0.000000 0.029104
#
#
# Mechanical properties :
#
#
# Convention : Reuss Voigt Hill
#
# Bulk Modulus (GPa) = 57.03955 58.89886 57.96920
# Shear Modulus (GPa) = 38.54022 39.67099 39.10561
#
# Velocity S-wave (km/s) = 4.15203 4.21250 4.18237
# Velocity P-wave (km/s) = 6.96419 7.07150 7.01805
#
# Compressibility (1/GPa) = 0.01753170
#
# Stress axis : x y z
#
# Youngs Moduli (GPa) = 92.42097 92.42123 98.43814
#
# Poissons Ratio (x) = 0.44121 0.11613
# Poissons Ratio (y) = 0.44121 0.11614
# Poissons Ratio (z) = 0.10903 0.10904
#
# Static dielectric constant tensor:
#      x y z
#    x 4.174960 0.000000 0.000000 
#    y 0.000000 4.174970 0.000000 
#    z 0.000000 0.000000 3.846710 
# 
# 
# High freq. dielectric constant tensor:
#      x y z
#    x 1.886330 0.000000 0.000000 
#    y 0.000000 1.886330 0.000000 
#    z 0.000000 0.000000 1.874320 
# 
# From -- ./inp_files/340.got.cif
#   From: 2010.03.12/outbox.cif.g09.slc.cpg/sg92_1_cif.got.tgz:340.got - 2010.04.08 20:41:11.
