data_PCOD8305402
_publ_section_title
;
Structure prediction by ZEFSAII (Michael W. Deem and Ramdas Pophale) SiO2 
 PCOD8305402
Probable space group: P 41 21 2
;
_chemical_formula_sum "Si O2"
_cell_formula_units_Z 32
_cell_length_a 13.656855
_cell_length_b 13.656855
_cell_length_c 8.356274
_cell_angle_alpha 90.000000
_cell_angle_beta 90.000000
_cell_angle_gamma 90.000000
_cell_volume 1558.526061
_symmetry_space_group_name_H-M "P 41 21 2"
_symmetry_group_IT_number 92
_symmetry_cell_setting 'tetragonal'
loop_
_space_group_symop_operation_xyz
x,y,z
1/2-y,1/2+x,1/4+z
-x,-y,1/2+z
1/2+y,1/2-x,3/4+z
1/2+x,1/2-y,3/4-z
1/2-x,1/2+y,1/4-z
y,x,-z
-y,-x,1/2-z
loop_
_atom_site_type_symbol
_atom_site_label
_atom_site_fract_x
_atom_site_fract_y
_atom_site_fract_z
Si Si1 0.417823 0.089563 0.058799
Si Si2 0.265916 0.631304 0.384765
Si Si3 0.613019 0.496916 0.116291
Si Si4 0.649609 0.707819 0.665478
O O1 0.513062 0.079087 0.951558
O O2 0.323230 0.073605 0.947244
O O3 0.414806 0.195291 0.141478
O O4 0.349437 0.650564 0.250000
O O5 0.302277 0.560871 0.524010
O O6 0.231727 0.736667 0.456003
O O7 0.576851 0.423150 0.250000
O O8 0.649283 0.600011 0.190078
O O9 0.523480 0.523480 0.000000
O O10 0.645933 0.645933 0.500000
#
# Coordination Sequence:
#
# PCOD8305402 Si02
#       4
#     8   8   8   8
#     4  10  23  40  66  94 131 174 218 266 322 398
#     4   9  23  45  65  91 134 172 209 278 328 385
#     4  12  26  40  70  96 126 170 226 270 326 398
#     4   9  23  45  65  91 134 172 209 278 328 385
#
# _framework density 20.532222000000001
#
# number of rings (size 3 to 8) (size 9 to 14) (size 15 to 20)
#    0.000    2.500    0.000    1.500   17.500    1.000 
#    0.000    0.000    0.000    0.000    0.000    0.000 
#    0.000    0.000    0.000    0.000    0.000    0.000 
#
# Total GULP energy -396787.684825 kJ/mol
# GULP energy per Si atom -12399.615151 kJ/mol
# Density = 2.048549 g / cm^3
# Si number density = 20.532222 Si / 1000 Ang^3
#
#
#
# Elastic Constant Matrix: (Units=GPa)
#
#
# Indices 1 2 3 4 5 6 
#
# 1 64.2964 18.6365 25.0340 0.0000 0.0000 0.0000
# 2 18.6365 64.2886 25.0286 0.0000 0.0000 0.0000
# 3 25.0340 25.0286 63.8258 0.0000 0.0000 0.0000
# 4 0.0000 0.0000 0.0000 40.4608 0.0000 0.0000
# 5 0.0000 0.0000 0.0000 0.0000 40.4605 0.0000
# 6 0.0000 0.0000 0.0000 0.0000 0.0000 20.3825
#
#
#
# Elastic Compliance Matrix: (Units=1/GPa)
#
#
# Indices 1 2 3 4 5 6 
#
# 1 0.018850 -0.003052 -0.006197 0.000000 0.000000 0.000000
# 2 -0.003052 0.018852 -0.006195 0.000000 0.000000 0.000000
# 3 -0.006197 -0.006195 0.020528 0.000000 0.000000 0.000000
# 4 0.000000 0.000000 0.000000 0.024715 0.000000 0.000000
# 5 0.000000 0.000000 0.000000 0.000000 0.024715 0.000000
# 6 0.000000 0.000000 0.000000 0.000000 0.000000 0.049062
#
#
# Mechanical properties :
#
#
# Convention : Reuss Voigt Hill
#
# Bulk Modulus (GPa) = 36.57476 36.64546 36.61011
# Shear Modulus (GPa) = 25.41632 28.50819 26.96226
#
# Velocity S-wave (km/s) = 3.52216 3.73025 3.62770
# Velocity P-wave (km/s) = 5.86454 6.03652 5.95115
#
# Compressibility (1/GPa) = 0.02734126
#
# Stress axis : x y z
#
# Youngs Moduli (GPa) = 53.04945 53.04607 48.71490
#
# Poissons Ratio (x) = 0.16190 0.30187
# Poissons Ratio (y) = 0.16191 0.30181
# Poissons Ratio (z) = 0.32873 0.32864
#
# Static dielectric constant tensor:
#      x y z
#    x 3.650890 0.000000 0.000000 
#    y 0.000000 3.650890 0.000000 
#    z 0.000000 0.000000 3.678220 
# 
# 
# High freq. dielectric constant tensor:
#      x y z
#    x 1.804290 0.000000 0.000000 
#    y 0.000000 1.804290 0.000000 
#    z 0.000000 0.000000 1.801050 
# 
# From -- ./inp_files/1139.got.cif
#   From: 2010.03.12/outbox.cif.g09.slc.cpg/sg92_1_cif.got.tgz:1139.got - 2010.04.08 20:41:11.
