data_PCOD8305282
_publ_section_title
;
Structure prediction by ZEFSAII (Michael W. Deem and Ramdas Pophale) SiO2 
 PCOD8305282
Probable space group: P 41 21 2
;
_chemical_formula_sum "Si O2"
_cell_formula_units_Z 48
_cell_length_a 9.523344
_cell_length_b 9.523344
_cell_length_c 26.751757
_cell_angle_alpha 90.000000
_cell_angle_beta 90.000000
_cell_angle_gamma 90.000000
_cell_volume 2426.226015
_symmetry_space_group_name_H-M "P 41 21 2"
_symmetry_group_IT_number 92
_symmetry_cell_setting 'tetragonal'
loop_
_space_group_symop_operation_xyz
x,y,z
1/2-y,1/2+x,1/4+z
-x,-y,1/2+z
1/2+y,1/2-x,3/4+z
1/2+x,1/2-y,3/4-z
1/2-x,1/2+y,1/4-z
y,x,-z
-y,-x,1/2-z
loop_
_atom_site_type_symbol
_atom_site_label
_atom_site_fract_x
_atom_site_fract_y
_atom_site_fract_z
Si Si1 0.690356 0.358051 0.927946
Si Si2 0.059212 0.680532 0.112321
Si Si3 0.117064 0.945423 0.303268
Si Si4 0.876760 0.556195 0.874770
Si Si5 0.426652 0.755754 0.964112
Si Si6 0.708900 0.251878 0.195140
O O1 0.665663 0.191317 0.924617
O O2 0.540073 0.430858 0.927009
O O3 0.773983 0.423003 0.880784
O O4 0.782256 0.399076 0.977112
O O5 0.117562 0.769756 0.158997
O O6 0.999796 0.533987 0.132372
O O7 0.937708 0.765299 0.083830
O O8 0.132738 0.867263 0.250000
O O9 0.150383 0.110464 0.298527
O O10 0.858656 0.619848 0.818956
O O11 0.841851 0.674555 0.915927
O O12 0.591199 0.741973 0.951597
O O13 0.683692 0.316309 0.250000
#
# Coordination Sequence:
#
# PCOD8305282 Si02
#       6
#     8   8   8   8   8   8
#     4  11  22  43  64  90 134 167 206 264 328 394
#     4  11  25  39  60 100 129 162 210 271 327 377
#     4  10  20  39  65  85 122 170 206 244 320 389
#     4  11  22  40  69  92 127 163 221 269 310 391
#     4  10  20  39  66  94 114 173 215 259 319 381
#     4  11  20  40  65  93 121 165 220 264 311 379
#
# _framework density 19.783811
#
# number of rings (size 3 to 8) (size 9 to 14) (size 15 to 20)
#    0.000    1.333    5.000    1.500    0.000    2.667 
#    6.000    0.000    0.000    0.000    0.000    0.000 
#    0.000    0.000    0.000    0.000    0.000    0.000 
#
# Total GULP energy -595202.999871 kJ/mol
# GULP energy per Si atom -12400.062497 kJ/mol
# Density = 1.973878 g / cm^3
# Si number density = 19.783811 Si / 1000 Ang^3
#
#
#
# Elastic Constant Matrix: (Units=GPa)
#
#
# Indices 1 2 3 4 5 6 
#
# 1 86.9184 37.9470 52.3405 0.0000 0.0000 0.0000
# 2 37.9470 86.9184 52.3403 0.0000 0.0000 0.0000
# 3 52.3405 52.3403 97.9388 0.0000 0.0000 0.0000
# 4 0.0000 0.0000 0.0000 30.6906 0.0000 0.0000
# 5 0.0000 0.0000 0.0000 0.0000 30.6906 0.0000
# 6 0.0000 0.0000 0.0000 0.0000 0.0000 22.8217
#
#
#
# Elastic Compliance Matrix: (Units=1/GPa)
#
#
# Indices 1 2 3 4 5 6 
#
# 1 0.017465 -0.002955 -0.007754 0.000000 0.000000 0.000000
# 2 -0.002955 0.017465 -0.007754 0.000000 0.000000 0.000000
# 3 -0.007754 -0.007754 0.018498 0.000000 0.000000 0.000000
# 4 0.000000 0.000000 0.000000 0.032583 0.000000 0.000000
# 5 0.000000 0.000000 0.000000 0.000000 0.032583 0.000000
# 6 0.000000 0.000000 0.000000 0.000000 0.000000 0.043818
#
#
# Mechanical properties :
#
#
# Convention : Reuss Voigt Hill
#
# Bulk Modulus (GPa) = 60.60377 61.89235 61.24806
# Shear Modulus (GPa) = 24.40942 25.45043 24.92992
#
# Velocity S-wave (km/s) = 3.51637 3.59057 3.55366
# Velocity P-wave (km/s) = 6.86921 6.96720 6.91838
#
# Compressibility (1/GPa) = 0.01650062
#
# Stress axis : x y z
#
# Youngs Moduli (GPa) = 57.25851 57.25869 54.05934
#
# Poissons Ratio (x) = 0.16923 0.41918
# Poissons Ratio (y) = 0.16923 0.41917
# Poissons Ratio (z) = 0.44398 0.44398
#
# Static dielectric constant tensor:
#      x y z
#    x 3.510540 0.000000 0.000000 
#    y 0.000000 3.510540 0.000000 
#    z 0.000000 0.000000 3.782440 
# 
# 
# High freq. dielectric constant tensor:
#      x y z
#    x 1.764100 0.000000 0.000000 
#    y 0.000000 1.764100 0.000000 
#    z 0.000000 0.000000 1.772630 
# 
# From -- ./inp_files/4456.got.cif
#   From: 2010.03.12/outbox.cif.g09.slc.cpg/sg92_3_cif.got.tgz:4456.got - 2010.04.08 20:41:11.
