data_PCOD8305245
_publ_section_title
;
Structure prediction by ZEFSAII (Michael W. Deem and Ramdas Pophale) SiO2 
 PCOD8305245
Probable space group: P 41 21 2
;
_chemical_formula_sum "Si O2"
_cell_formula_units_Z 48
_cell_length_a 9.180568
_cell_length_b 9.180568
_cell_length_c 31.035371
_cell_angle_alpha 90.000000
_cell_angle_beta 90.000000
_cell_angle_gamma 90.000000
_cell_volume 2615.748861
_symmetry_space_group_name_H-M "P 41 21 2"
_symmetry_group_IT_number 92
_symmetry_cell_setting 'tetragonal'
loop_
_space_group_symop_operation_xyz
x,y,z
1/2-y,1/2+x,1/4+z
-x,-y,1/2+z
1/2+y,1/2-x,3/4+z
1/2+x,1/2-y,3/4-z
1/2-x,1/2+y,1/4-z
y,x,-z
-y,-x,1/2-z
loop_
_atom_site_type_symbol
_atom_site_label
_atom_site_fract_x
_atom_site_fract_y
_atom_site_fract_z
Si Si1 0.080067 0.088806 0.784864
Si Si2 0.906523 0.408283 0.967268
Si Si3 0.409944 0.435971 0.788949
Si Si4 0.898173 0.591562 0.621770
Si Si5 0.430611 0.594989 0.371172
Si Si6 0.569392 0.927824 0.708931
O O1 0.242151 0.059235 0.767728
O O2 0.055797 0.014759 0.832188
O O3 0.053519 0.258782 0.790192
O O4 0.968502 0.031499 0.750000
O O5 0.938121 0.235360 0.969194
O O6 0.927848 0.471811 0.918791
O O7 0.011079 0.496894 0.998233
O O8 0.471970 0.528031 0.750000
O O9 0.493560 0.492587 0.832059
O O10 0.240328 0.475285 0.793850
O O11 0.877133 0.761363 0.610309
O O12 0.743335 0.517505 0.625459
O O13 0.990266 0.511845 0.583880
#
# Coordination Sequence:
#
# PCOD8305245 Si02
#       6
#     8   8   8   8   8   8
#     4   9  19  33  51  76 103 132 168 208 251 305
#     4   9  19  34  51  74 104 133 165 209 255 302
#     4  10  20  34  52  76 104 134 172 215 257 305
#     4   9  17  31  51  76 104 134 169 212 257 304
#     4   9  17  31  51  76 105 134 170 213 257 305
#     4  10  20  33  52  78 103 133 175 213 254 309
#
# _framework density 18.350386
#
# number of rings (size 3 to 8) (size 9 to 14) (size 15 to 20)
#    0.000    2.667    0.000    4.000    0.000    8.000 
#    0.000    1.667    0.000    0.000    0.000    0.000 
#    0.000    0.000    0.000    0.000    0.000    0.000 
#
# Total GULP energy -594829.352795 kJ/mol
# GULP energy per Si atom -12392.278183 kJ/mol
# Density = 1.830862 g / cm^3
# Si number density = 18.350386 Si / 1000 Ang^3
#
#
#
# Elastic Constant Matrix: (Units=GPa)
#
#
# Indices 1 2 3 4 5 6 
#
# 1 61.8354 22.6245 47.1767 0.0000 0.0000 0.0000
# 2 22.6245 61.8343 47.1748 0.0000 0.0000 0.0000
# 3 47.1767 47.1748 137.4943 0.0000 0.0000 0.0000
# 4 0.0000 0.0000 0.0000 23.4247 0.0000 0.0000
# 5 0.0000 0.0000 0.0000 0.0000 23.4247 0.0000
# 6 0.0000 0.0000 0.0000 0.0000 0.0000 18.8334
#
#
#
# Elastic Compliance Matrix: (Units=1/GPa)
#
#
# Indices 1 2 3 4 5 6 
#
# 1 0.022351 -0.003152 -0.006588 0.000000 0.000000 0.000000
# 2 -0.003152 0.022351 -0.006587 0.000000 0.000000 0.000000
# 3 -0.006588 -0.006587 0.011793 0.000000 0.000000 0.000000
# 4 0.000000 0.000000 0.000000 0.042690 0.000000 0.000000
# 5 0.000000 0.000000 0.000000 0.000000 0.042690 0.000000
# 6 0.000000 0.000000 0.000000 0.000000 0.000000 0.053097
#
#
# Mechanical properties :
#
#
# Convention : Reuss Voigt Hill
#
# Bulk Modulus (GPa) = 41.94317 55.01289 48.47803
# Shear Modulus (GPa) = 21.22475 22.74910 21.98693
#
# Velocity S-wave (km/s) = 3.40463 3.52477 3.46522
# Velocity P-wave (km/s) = 6.19369 6.82712 6.51810
#
# Compressibility (1/GPa) = 0.02384178
#
# Stress axis : x y z
#
# Youngs Moduli (GPa) = 44.74031 44.74050 84.79329
#
# Poissons Ratio (x) = 0.14104 0.55858
# Poissons Ratio (y) = 0.14104 0.55854
# Poissons Ratio (z) = 0.29473 0.29471
#
# Static dielectric constant tensor:
#      x y z
#    x 3.283400 0.000000 0.000000 
#    y 0.000000 3.283410 0.000000 
#    z 0.000000 0.000000 4.311890 
# 
# 
# High freq. dielectric constant tensor:
#      x y z
#    x 1.689350 0.000000 0.000000 
#    y 0.000000 1.689350 0.000000 
#    z 0.000000 0.000000 1.735550 
# 
# From -- ./inp_files/4503.got.cif
#   From: 2010.03.12/outbox.cif.g09.slc.cpg/sg92_3_cif.got.tgz:4503.got - 2010.04.08 20:41:11.
