data_PCOD8305040
_publ_section_title
;
Structure prediction by ZEFSAII (Michael W. Deem and Ramdas Pophale) SiO2 
 PCOD8305040
Probable space group: P 41 2 2
;
_chemical_formula_sum "Si O2"
_cell_formula_units_Z 56
_cell_length_a 14.315578
_cell_length_b 14.315578
_cell_length_c 12.408328
_cell_angle_alpha 90.000000
_cell_angle_beta 90.000000
_cell_angle_gamma 90.000000
_cell_volume 2542.910296
_symmetry_space_group_name_H-M "P 41 2 2"
_symmetry_group_IT_number 91
_symmetry_cell_setting 'tetragonal'
loop_
_space_group_symop_operation_xyz
x,y,z
-y,x,1/4+z
-x,-y,1/2+z
y,-x,3/4+z
x,-y,1/2-z
-x,y,-z
y,x,3/4-z
-y,-x,1/4-z
loop_
_atom_site_type_symbol
_atom_site_label
_atom_site_fract_x
_atom_site_fract_y
_atom_site_fract_z
Si Si1 0.216906 0.892498 0.220297
Si Si2 0.341150 0.485214 0.413641
Si Si3 0.434371 0.671460 0.396479
Si Si4 0.229407 0.742883 0.831680
Si Si5 0.414561 0.855776 0.122108
Si Si6 0.830659 0.169342 0.125000
Si Si7 0.000000 0.242930 0.000000
Si Si8 0.884938 0.380573 0.872010
O O1 0.150248 0.849753 0.125000
O O2 0.203064 0.831177 0.327675
O O3 0.327204 0.883476 0.195735
O O4 0.190723 0.000000 0.250000
O O5 0.432566 0.432566 0.375000
O O6 0.359946 0.589386 0.374751
O O7 0.322622 0.497208 0.541031
O O8 0.255068 0.431601 0.358304
O O9 0.500000 0.657633 0.500000
O O10 0.368946 0.763464 0.402289
O O11 0.180549 0.750742 0.715073
O O12 0.332802 0.789841 0.833465
O O13 0.513297 0.895770 0.168712
O O14 0.388459 0.893237 0.005534
O O15 0.824491 0.073410 0.191649
O O16 0.966671 0.311982 0.906733
#
# Coordination Sequence:
#
# PCOD8305040 Si02
#       8
#     8   8   8   8   8   4   4   8
#     4  12  27  48  80 109 147 183 245 313 380 437
#     4  12  23  38  62  95 141 196 247 293 345 421
#     4  12  25  38  59 100 147 191 246 293 350 423
#     4  11  23  45  69  99 140 197 232 294 360 432
#     4  11  22  40  71 107 139 190 235 295 354 430
#     4  10  26  44  80  94 140 184 236 296 370 446
#     4  10  24  48  72 104 138 186 242 296 374 450
#     4  10  22  41  72 101 142 180 238 284 356 437
#
# _framework density 22.022010999999999
#
# number of rings (size 3 to 8) (size 9 to 14) (size 15 to 20)
#    0.000    0.857    4.286    3.000    7.000    0.000 
#    0.000    0.000   20.429    0.000    0.000    0.000 
#    0.000    0.000    0.000    0.000    0.000    0.000 
#
# Total GULP energy -693902.274125 kJ/mol
# GULP energy per Si atom -12391.112038 kJ/mol
# Density = 2.197189 g / cm^3
# Si number density = 22.022011 Si / 1000 Ang^3
#
#
#
# Elastic Constant Matrix: (Units=GPa)
#
#
# Indices 1 2 3 4 5 6 
#
# 1 100.0610 36.5511 35.5144 0.0000 0.0000 0.0000
# 2 36.5511 100.0609 35.5139 0.0000 0.0000 0.0000
# 3 35.5144 35.5139 126.5524 0.0000 0.0000 0.0000
# 4 0.0000 0.0000 0.0000 31.1264 0.0000 0.0000
# 5 0.0000 0.0000 0.0000 0.0000 31.1263 0.0000
# 6 0.0000 0.0000 0.0000 0.0000 0.0000 21.9058
#
#
#
# Elastic Compliance Matrix: (Units=1/GPa)
#
#
# Indices 1 2 3 4 5 6 
#
# 1 0.012158 -0.003588 -0.002405 0.000000 0.000000 0.000000
# 2 -0.003588 0.012158 -0.002405 0.000000 0.000000 0.000000
# 3 -0.002405 -0.002405 0.009252 0.000000 0.000000 0.000000
# 4 0.000000 0.000000 0.000000 0.032127 0.000000 0.000000
# 5 0.000000 0.000000 0.000000 0.000000 0.032127 0.000000
# 6 0.000000 0.000000 0.000000 0.000000 0.000000 0.045650
#
#
# Mechanical properties :
#
#
# Convention : Reuss Voigt Hill
#
# Bulk Modulus (GPa) = 59.62231 60.20368 59.91300
# Shear Modulus (GPa) = 30.14621 31.43805 30.79213
#
# Velocity S-wave (km/s) = 3.70390 3.78242 3.74337
# Velocity P-wave (km/s) = 6.73977 6.81711 6.77855
#
# Compressibility (1/GPa) = 0.01677225
#
# Stress axis : x y z
#
# Youngs Moduli (GPa) = 82.25006 82.25024 108.08771
#
# Poissons Ratio (x) = 0.29508 0.25997
# Poissons Ratio (y) = 0.29508 0.25996
# Poissons Ratio (z) = 0.19782 0.19782
#
# Static dielectric constant tensor:
#      x y z
#    x 4.003990 0.000000 0.000000 
#    y 0.000000 4.004000 0.000000 
#    z 0.000000 0.000000 4.144770 
# 
# 
# High freq. dielectric constant tensor:
#      x y z
#    x 1.857480 0.000000 0.000000 
#    y 0.000000 1.857480 0.000000 
#    z 0.000000 0.000000 1.875700 
# 
# From -- ./inp_files/16000.got.cif
#   From: 2010.03.12/outbox.cif.g09.slc.cpg/sg91_8_cif.got.tgz:16000.got - 2010.04.08 20:27:58.
