data_PCOD8305316
_publ_section_title
;
Structure prediction by ZEFSAII (Michael W. Deem and Ramdas Pophale) SiO2 
 PCOD8305316
Probable space group: P 41 21 2
;
_chemical_formula_sum "Si O2"
_cell_formula_units_Z 40
_cell_length_a 15.372700
_cell_length_b 15.372700
_cell_length_c 8.337065
_cell_angle_alpha 90.000000
_cell_angle_beta 90.000000
_cell_angle_gamma 90.000000
_cell_volume 1970.214411
_symmetry_space_group_name_H-M "P 41 21 2"
_symmetry_group_IT_number 92
_symmetry_cell_setting 'tetragonal'
loop_
_space_group_symop_operation_xyz
x,y,z
1/2-y,1/2+x,1/4+z
-x,-y,1/2+z
1/2+y,1/2-x,3/4+z
1/2+x,1/2-y,3/4-z
1/2-x,1/2+y,1/4-z
y,x,-z
-y,-x,1/2-z
loop_
_atom_site_type_symbol
_atom_site_label
_atom_site_fract_x
_atom_site_fract_y
_atom_site_fract_z
Si Si1 0.839233 0.191616 0.989047
Si Si2 0.570188 0.570188 0.500000
Si Si3 0.075707 0.266514 0.437269
Si Si4 0.715629 0.101702 0.225727
Si Si5 0.336937 0.604728 0.988176
Si Si6 0.277837 0.722164 0.250000
O O1 0.754471 0.165164 0.090483
O O2 0.910962 0.224075 0.116568
O O3 0.880085 0.107435 0.905052
O O4 0.807276 0.268171 0.866344
O O5 0.587533 0.466897 0.522100
O O6 0.129868 0.353864 0.456376
O O7 0.057839 0.227245 0.613061
O O8 0.121533 0.193075 0.329568
O O9 0.990355 0.301923 0.352231
O O10 0.281131 0.632382 0.146116
#
# Coordination Sequence:
#
# PCOD8305316 Si02
#       6
#     8   4   8   8   8   4
#     4  10  21  38  64  95 128 176 218 261 336 409
#     4  11  24  36  58 106 138 161 208 280 336 397
#     4  11  23  43  67  90 129 182 223 273 332 400
#     4  11  21  43  67  90 125 179 227 272 326 399
#     4  11  23  40  62  99 137 171 213 274 346 409
#     4  11  20  38  64  90 128 179 220 258 328 417
#
# _framework density 20.30236
#
# number of rings (size 3 to 8) (size 9 to 14) (size 15 to 20)
#    0.000    1.200    6.000    1.200    2.800    3.200 
#    0.000    0.000    8.800    0.000    0.000    0.000 
#    0.000    0.000    0.000    0.000    0.000    0.000 
#
# Total GULP energy -495685.092223 kJ/mol
# GULP energy per Si atom -12392.127306 kJ/mol
# Density = 2.025615 g / cm^3
# Si number density = 20.302360 Si / 1000 Ang^3
#
#
#
# Elastic Constant Matrix: (Units=GPa)
#
#
# Indices 1 2 3 4 5 6 
#
# 1 107.1804 59.9519 49.7177 0.0000 0.0000 0.0000
# 2 59.9519 107.1805 49.7178 0.0000 0.0000 0.0000
# 3 49.7177 49.7178 124.0705 0.0000 0.0000 0.0000
# 4 0.0000 0.0000 0.0000 31.2048 0.0000 0.0000
# 5 0.0000 0.0000 0.0000 0.0000 31.2049 0.0000
# 6 0.0000 0.0000 0.0000 0.0000 0.0000 17.7121
#
#
#
# Elastic Compliance Matrix: (Units=1/GPa)
#
#
# Indices 1 2 3 4 5 6 
#
# 1 0.014515 -0.006659 -0.003148 0.000000 0.000000 0.000000
# 2 -0.006659 0.014515 -0.003148 0.000000 0.000000 0.000000
# 3 -0.003148 -0.003148 0.010583 0.000000 0.000000 0.000000
# 4 0.000000 0.000000 0.000000 0.032046 0.000000 0.000000
# 5 0.000000 0.000000 0.000000 0.000000 0.032046 0.000000
# 6 0.000000 0.000000 0.000000 0.000000 0.000000 0.056459
#
#
# Mechanical properties :
#
#
# Convention : Reuss Voigt Hill
#
# Bulk Modulus (GPa) = 72.97744 73.02294 73.00019
# Shear Modulus (GPa) = 26.22720 27.96064 27.09392
#
# Velocity S-wave (km/s) = 3.59810 3.71511 3.65707
# Velocity P-wave (km/s) = 7.29967 7.37892 7.33940
#
# Compressibility (1/GPa) = 0.01370286
#
# Stress axis : x y z
#
# Youngs Moduli (GPa) = 68.89433 68.89442 94.49087
#
# Poissons Ratio (x) = 0.45875 0.29748
# Poissons Ratio (y) = 0.45874 0.29748
# Poissons Ratio (z) = 0.21689 0.21689
#
# Static dielectric constant tensor:
#      x y z
#    x 3.468470 0.000000 0.000000 
#    y 0.000000 3.468470 0.000000 
#    z 0.000000 0.000000 4.198470 
# 
# 
# High freq. dielectric constant tensor:
#      x y z
#    x 1.769950 0.000000 0.000000 
#    y 0.000000 1.769950 0.000000 
#    z 0.000000 0.000000 1.820020 
# 
# From -- ./inp_files/1365.got.cif
#   From: 2010.03.12/outbox.cif.g09.slc.cpg/sg92_1_cif.got.tgz:1365.got - 2010.04.08 20:41:11.
