data_PCOD8305020
_publ_section_title
;
Structure prediction by ZEFSAII (Michael W. Deem and Ramdas Pophale) SiO2 
 PCOD8305020
Probable space group: P 41 2 2
;
_chemical_formula_sum "Si O2"
_cell_formula_units_Z 60
_cell_length_a 18.219081
_cell_length_b 18.219081
_cell_length_c 9.482461
_cell_angle_alpha 90.000000
_cell_angle_beta 90.000000
_cell_angle_gamma 90.000000
_cell_volume 3147.559862
_symmetry_space_group_name_H-M "P 41 2 2"
_symmetry_group_IT_number 91
_symmetry_cell_setting 'tetragonal'
loop_
_space_group_symop_operation_xyz
x,y,z
-y,x,1/4+z
-x,-y,1/2+z
y,-x,3/4+z
x,-y,1/2-z
-x,y,-z
y,x,3/4-z
-y,-x,1/4-z
loop_
_atom_site_type_symbol
_atom_site_label
_atom_site_fract_x
_atom_site_fract_y
_atom_site_fract_z
Si Si1 0.305363 0.769901 0.750771
Si Si2 0.067481 0.341546 0.585629
Si Si3 0.419790 0.654642 0.258805
Si Si4 0.243560 0.532413 0.404272
Si Si5 0.109952 0.501708 0.595152
Si Si6 0.662202 0.066716 0.156115
Si Si7 0.226284 0.707511 0.990431
Si Si8 0.419217 0.500000 0.750000
O O1 0.287312 0.712689 0.625000
O O2 0.379765 0.748086 0.835520
O O3 0.308938 0.854161 0.704914
O O4 0.238806 0.761422 0.858901
O O5 0.060321 0.429816 0.578018
O O6 0.059041 0.312570 0.744802
O O7 0.142290 0.317278 0.510408
O O8 0.000000 0.306899 0.500000
O O9 0.500852 0.682861 0.221108
O O10 0.363468 0.721896 0.270916
O O11 0.432951 0.622874 0.417401
O O12 0.397298 0.602703 0.125000
O O13 0.235136 0.500000 0.250000
O O14 0.173113 0.501888 0.481844
O O15 0.147765 0.500000 0.750000
O O16 0.060553 0.574206 0.580358
O O17 0.695606 0.000000 0.250000
O O18 0.243459 0.756542 0.125000
O O19 0.467584 0.467584 0.875000
#
# Coordination Sequence:
#
# PCOD8305020 Si02
#       8
#     8   8   8   8   8   8   8   4
#     4  11  24  41  64  89 125 165 208 255 314 375
#     4  11  22  37  61  87 124 160 201 246 305 363
#     4  11  26  42  63  86 115 150 208 261 315 370
#     4  11  23  37  61  89 119 156 208 256 309 370
#     4   9  20  37  55  86 122 160 198 245 295 368
#     4  10  22  39  59  88 122 162 207 249 300 373
#     4  11  24  42  61  93 124 158 200 256 309 368
#     4  12  30  46  62  78 108 148 202 274 332 370
#
# _framework density 19.062384000000002
#
# number of rings (size 3 to 8) (size 9 to 14) (size 15 to 20)
#    0.000    1.333    2.667    2.400    8.400    1.067 
#    0.000    0.667    0.000    0.000    0.000    0.000 
#    0.000    3.200    0.000    0.000    0.000    0.000 
#
# Total GULP energy -743538.260258 kJ/mol
# GULP energy per Si atom -12392.304338 kJ/mol
# Density = 1.901900 g / cm^3
# Si number density = 19.062384 Si / 1000 Ang^3
#
#
#
# Elastic Constant Matrix: (Units=GPa)
#
#
# Indices 1 2 3 4 5 6 
#
# 1 77.3717 50.5157 50.2781 0.0000 0.0000 0.0000
# 2 50.5157 77.3736 50.2776 0.0000 0.0000 0.0000
# 3 50.2781 50.2776 143.8419 0.0000 0.0000 0.0000
# 4 0.0000 0.0000 0.0000 29.6309 0.0000 0.0000
# 5 0.0000 0.0000 0.0000 0.0000 29.6299 0.0000
# 6 0.0000 0.0000 0.0000 0.0000 0.0000 11.4076
#
#
#
# Elastic Compliance Matrix: (Units=1/GPa)
#
#
# Indices 1 2 3 4 5 6 
#
# 1 0.024009 -0.013226 -0.003769 0.000000 0.000000 0.000000
# 2 -0.013226 0.024008 -0.003769 0.000000 0.000000 0.000000
# 3 -0.003769 -0.003769 0.009587 0.000000 0.000000 0.000000
# 4 0.000000 0.000000 0.000000 0.033749 0.000000 0.000000
# 5 0.000000 0.000000 0.000000 0.000000 0.033750 0.000000
# 6 0.000000 0.000000 0.000000 0.000000 0.000000 0.087661
#
#
# Mechanical properties :
#
#
# Convention : Reuss Voigt Hill
#
# Bulk Modulus (GPa) = 62.20242 66.74778 64.47510
# Shear Modulus (GPa) = 19.25672 23.96806 21.61239
#
# Velocity S-wave (km/s) = 3.18180 3.54976 3.37081
# Velocity P-wave (km/s) = 6.79708 7.20364 7.00331
#
# Compressibility (1/GPa) = 0.01607655
#
# Stress axis : x y z
#
# Youngs Moduli (GPa) = 41.65102 41.65261 104.30959
#
# Poissons Ratio (x) = 0.55089 0.39316
# Poissons Ratio (y) = 0.55087 0.39311
# Poissons Ratio (z) = 0.15699 0.15698
#
# Static dielectric constant tensor:
#      x y z
#    x 3.307930 0.000000 0.000000 
#    y 0.000000 3.307920 0.000000 
#    z 0.000000 0.000000 3.925010 
# 
# 
# High freq. dielectric constant tensor:
#      x y z
#    x 1.716760 0.000000 0.000000 
#    y 0.000000 1.716760 0.000000 
#    z 0.000000 0.000000 1.765580 
# 
# From -- ./inp_files/10077.got.cif
#   From: 2010.03.12/outbox.cif.g09.slc.cpg/sg91_6_cif.got.tgz:10077.got - 2010.04.08 20:27:58.
