data_PCOD8305616
_publ_section_title
;
Structure prediction by ZEFSAII (Michael W. Deem and Ramdas Pophale) SiO2 
 PCOD8305616
Probable space group: P 42 21 2
;
_chemical_formula_sum "Si O2"
_cell_formula_units_Z 40
_cell_length_a 14.754841
_cell_length_b 14.754841
_cell_length_c 8.516365
_cell_angle_alpha 90.000000
_cell_angle_beta 90.000000
_cell_angle_gamma 90.000000
_cell_volume 1854.058078
_symmetry_space_group_name_H-M "P 42 21 2"
_symmetry_group_IT_number 94
_symmetry_cell_setting 'tetragonal'
loop_
_space_group_symop_operation_xyz
x,y,z
1/2-y,1/2+x,1/2+z
-x,-y,z
1/2+y,1/2-x,1/2+z
1/2+x,1/2-y,1/2-z
1/2-x,1/2+y,1/2-z
y,x,-z
-y,-x,-z
loop_
_atom_site_type_symbol
_atom_site_label
_atom_site_fract_x
_atom_site_fract_y
_atom_site_fract_z
Si Si1 0.000000 0.000000 0.500000
Si Si2 0.647367 0.526907 0.245565
Si Si3 0.674063 0.732072 0.160747
Si Si4 0.000000 0.000000 0.000000
Si Si5 0.647714 0.011615 0.578192
Si Si6 0.000000 0.500000 0.167397
Si Si7 0.752088 0.874792 0.403283
O O1 0.999167 0.910073 0.597663
O O2 0.671464 0.632825 0.240242
O O3 0.592809 0.500595 0.401935
O O4 0.732065 0.458939 0.219278
O O5 0.574961 0.764411 0.102258
O O6 0.712333 0.795148 0.296722
O O7 0.733425 0.733425 0.000000
O O8 0.583656 0.038051 0.433188
O O9 0.588274 0.023899 0.733061
O O10 0.682468 0.909747 0.538617
O O11 0.838620 0.838620 0.500000
#
# Coordination Sequence:
#
# PCOD8305616 Si02
#       7
#     2   8   8   2   8   4   8
#     4  10  16  42  76  90 132 190 236 270 376 434
#     4  11  23  47  69 101 140 189 235 301 368 431
#     4  12  26  46  73 106 144 191 247 307 360 440
#     4  10  28  42  68  98 132 186 236 298 360 430
#     4  11  23  48  69 105 138 194 237 302 364 433
#     4  10  24  46  76  96 144 190 248 292 370 446
#     4  12  27  45  72 107 142 189 245 302 367 439
#
# _framework density 21.574296
#
# number of rings (size 3 to 8) (size 9 to 14) (size 15 to 20)
#    0.000    0.800    6.000    0.000    8.400    0.000 
#    3.600    0.000    0.000    0.000    0.000    0.000 
#    0.000    0.000    0.000    0.000    0.000    0.000 
#
# Total GULP energy -495675.585183 kJ/mol
# GULP energy per Si atom -12391.889630 kJ/mol
# Density = 2.152519 g / cm^3
# Si number density = 21.574296 Si / 1000 Ang^3
#
#
#
# Elastic Constant Matrix: (Units=GPa)
#
#
# Indices 1 2 3 4 5 6 
#
# 1 121.6688 47.9963 46.0947 0.0000 0.0000 0.0000
# 2 47.9963 121.6688 46.0947 0.0000 0.0000 0.0000
# 3 46.0947 46.0947 111.9423 0.0000 0.0000 0.0000
# 4 0.0000 0.0000 0.0000 23.2449 0.0000 0.0000
# 5 0.0000 0.0000 0.0000 0.0000 23.2449 0.0000
# 6 0.0000 0.0000 0.0000 0.0000 0.0000 44.2375
#
#
#
# Elastic Compliance Matrix: (Units=1/GPa)
#
#
# Indices 1 2 3 4 5 6 
#
# 1 0.010583 -0.002990 -0.003126 0.000000 0.000000 0.000000
# 2 -0.002990 0.010583 -0.003126 0.000000 0.000000 0.000000
# 3 -0.003126 -0.003126 0.011508 0.000000 0.000000 0.000000
# 4 0.000000 0.000000 0.000000 0.043020 0.000000 0.000000
# 5 0.000000 0.000000 0.000000 0.000000 0.043020 0.000000
# 6 0.000000 0.000000 0.000000 0.000000 0.000000 0.022605
#
#
# Mechanical properties :
#
#
# Convention : Reuss Voigt Hill
#
# Bulk Modulus (GPa) = 70.48427 70.62793 70.55610
# Shear Modulus (GPa) = 30.38847 32.48506 31.43676
#
# Velocity S-wave (km/s) = 3.75714 3.88458 3.82139
# Velocity P-wave (km/s) = 7.18073 7.27517 7.22810
#
# Compressibility (1/GPa) = 0.01418756
#
# Stress axis : x y z
#
# Youngs Moduli (GPa) = 94.48952 94.48952 86.89619
#
# Poissons Ratio (x) = 0.28256 0.27168
# Poissons Ratio (y) = 0.28256 0.27168
# Poissons Ratio (z) = 0.29542 0.29542
#
# Static dielectric constant tensor:
#      x y z
#    x 3.957900 0.000000 0.000000 
#    y 0.000000 3.957900 0.000000 
#    z 0.000000 0.000000 3.946650 
# 
# 
# High freq. dielectric constant tensor:
#      x y z
#    x 1.850700 0.000000 0.000000 
#    y 0.000000 1.850700 0.000000 
#    z 0.000000 0.000000 1.853720 
# 
# From -- ./inp_files/1505.got.cif
#   From: 2010.03.12/outbox.cif.g09.slc.cpg/sg94_1_cif.got.tgz:1505.got - 2010.04.08 20:48:32.
