data_PCOD8305882
_publ_section_title
;
Structure prediction by ZEFSAII (Michael W. Deem and Ramdas Pophale) SiO2 
 PCOD8305882
Probable space group: P 43 21 2
;
_chemical_formula_sum "Si O2"
_cell_formula_units_Z 48
_cell_length_a 13.466547
_cell_length_b 13.466547
_cell_length_c 14.198861
_cell_angle_alpha 90.000000
_cell_angle_beta 90.000000
_cell_angle_gamma 90.000000
_cell_volume 2574.933456
_symmetry_space_group_name_H-M "P 43 21 2"
_symmetry_group_IT_number 96
_symmetry_cell_setting 'tetragonal'
loop_
_space_group_symop_operation_xyz
x,y,z
1/2-y,1/2+x,3/4+z
-x,-y,1/2+z
1/2+y,1/2-x,1/4+z
1/2+x,1/2-y,1/4-z
1/2-x,1/2+y,3/4-z
y,x,-z
-y,-x,1/2-z
loop_
_atom_site_type_symbol
_atom_site_label
_atom_site_fract_x
_atom_site_fract_y
_atom_site_fract_z
Si Si1 0.547585 0.469190 0.597313
Si Si2 0.423189 0.148889 0.654116
Si Si3 0.201323 0.180363 0.612161
Si Si4 0.505572 0.901218 0.956788
Si Si5 0.391106 0.192898 0.293784
Si Si6 0.865004 0.087463 0.986815
O O1 0.521764 0.521764 0.500000
O O2 0.616394 0.374396 0.578381
O O3 0.448848 0.435305 0.651862
O O4 0.613848 0.539203 0.663155
O O5 0.305381 0.128853 0.642747
O O6 0.489568 0.060307 0.702028
O O7 0.463115 0.160748 0.548716
O O8 0.436227 0.250440 0.712432
O O9 0.177075 0.177075 0.500000
O O10 0.190579 0.292692 0.643287
O O11 0.522791 0.831274 0.867929
O O12 0.386228 0.907949 0.960266
O O13 0.395953 0.299404 0.246415
#
# Coordination Sequence:
#
# PCOD8305882 Si02
#       6
#     8   8   8   8   8   8
#     4  11  23  38  61  82 119 155 200 250 308 353
#     4  10  20  35  62  90 120 147 195 254 307 358
#     4  11  19  37  61  93 115 149 203 259 303 366
#     4  10  19  34  55  91 118 154 188 241 312 360
#     4  10  22  34  60  85 122 152 197 244 306 368
#     4  10  22  38  59  89 115 153 206 252 298 364
#
# _framework density 18.641258000000001
#
# number of rings (size 3 to 8) (size 9 to 14) (size 15 to 20)
#    0.000    1.667    3.333    3.000    4.667    0.000 
#    6.000    0.000    0.000    0.000    0.000    0.000 
#    0.000    0.000    0.000    0.000    0.000    0.000 
#
# Total GULP energy -594754.121614 kJ/mol
# GULP energy per Si atom -12390.710867 kJ/mol
# Density = 1.859883 g / cm^3
# Si number density = 18.641258 Si / 1000 Ang^3
#
#
#
# Elastic Constant Matrix: (Units=GPa)
#
#
# Indices 1 2 3 4 5 6 
#
# 1 -218.0453 325.6562 8.2926 0.0000 0.0000 0.0000
# 2 325.6562 -218.0453 8.2926 0.0000 0.0000 0.0000
# 3 8.2926 8.2926 47.4624 0.0000 0.0000 0.0000
# 4 0.0000 0.0000 0.0000 22.3229 0.0000 0.0000
# 5 0.0000 0.0000 0.0000 0.0000 22.3229 0.0000
# 6 0.0000 0.0000 0.0000 0.0000 0.0000 19.3891
#
#
#
# Elastic Compliance Matrix: (Units=1/GPa)
#
#
# Indices 1 2 3 4 5 6 
#
# 1 0.003855 0.005695 -0.001669 0.000000 0.000000 0.000000
# 2 0.005695 0.003855 -0.001669 0.000000 0.000000 0.000000
# 3 -0.001669 -0.001669 0.021652 0.000000 0.000000 0.000000
# 4 0.000000 0.000000 0.000000 0.044797 0.000000 0.000000
# 5 0.000000 0.000000 0.000000 0.000000 0.044797 0.000000
# 6 0.000000 0.000000 0.000000 0.000000 0.000000 0.051575
#
#
# Mechanical properties :
#
#
# Convention : Reuss Voigt Hill
#
# Bulk Modulus (GPa) = 29.34450 32.87275 31.10863
# Shear Modulus (GPa) = 28.22036 -35.91768 -3.84866
#
# Velocity S-wave (km/s) = 3.89506 -4.39428 -1.43843
# Velocity P-wave (km/s) = 6.00038 2.84140 3.73705
#
# Compressibility (1/GPa) = 0.03407793
#
# Stress axis : x y z
#
# Youngs Moduli (GPa) = 259.38135 259.38135 46.18437
#
# Poissons Ratio (x) = -1.47707 0.07706
# Poissons Ratio (y) = -1.47707 0.07706
# Poissons Ratio (z) = 0.43279 0.43279
#
# Static dielectric constant tensor:
#      x y z
#    x 3.717170 0.000000 0.000000 
#    y 0.000000 3.717170 0.000000 
#    z 0.000000 0.000000 3.276240 
# 
# 
# High freq. dielectric constant tensor:
#      x y z
#    x 1.727420 0.000000 0.000000 
#    y 0.000000 1.727420 0.000000 
#    z 0.000000 0.000000 1.703960 
# 
# From -- ./inp_files/2714.got.cif
#   From: 2010.03.12/outbox.cif.g09.slc.cpg/sg96_2_cif.got.tgz:2714.got - 2010.04.08 20:56:49.
