data_PCOD8305844
_publ_section_title
;
Structure prediction by ZEFSAII (Michael W. Deem and Ramdas Pophale) SiO2 
 PCOD8305844
Probable space group: P 43 2 2
;
_chemical_formula_sum "Si O2"
_cell_formula_units_Z 36
_cell_length_a 8.690120
_cell_length_b 8.690120
_cell_length_c 19.596754
_cell_angle_alpha 90.000000
_cell_angle_beta 90.000000
_cell_angle_gamma 90.000000
_cell_volume 1479.911306
_symmetry_space_group_name_H-M "P 43 2 2"
_symmetry_group_IT_number 95
_symmetry_cell_setting 'tetragonal'
loop_
_space_group_symop_operation_xyz
x,y,z
-y,x,3/4+z
-x,-y,1/2+z
y,-x,1/4+z
x,-y,1/2-z
-x,y,-z
y,x,1/4-z
-y,-x,3/4-z
loop_
_atom_site_type_symbol
_atom_site_label
_atom_site_fract_x
_atom_site_fract_y
_atom_site_fract_z
Si Si1 0.025716 0.431876 0.112277
Si Si2 0.929131 0.929131 0.625000
Si Si3 0.760686 0.627645 0.055852
Si Si4 0.850616 0.500000 0.750000
Si Si5 0.139621 0.000000 0.750000
Si Si6 0.564222 0.345858 0.803305
O O1 0.032205 0.249362 0.117389
O O2 0.038182 0.522915 0.185065
O O3 0.171124 0.482214 0.067753
O O4 0.872504 0.486064 0.075356
O O5 0.985766 0.027183 0.562553
O O6 0.693027 0.693027 0.125000
O O7 0.620007 0.555962 0.009154
O O8 0.848840 0.757532 0.012516
O O9 0.736374 0.359129 0.771279
O O10 0.555580 0.444421 0.875000
#
# Coordination Sequence:
#
# PCOD8305844 Si02
#       6
#     8   4   8   4   4   8
#     4  11  24  45  76 110 153 203 267 330 388 483
#     4  12  28  48  80 110 148 220 270 314 408 494
#     4  12  27  49  73 115 164 205 256 342 415 482
#     4  10  22  42  72 108 142 192 272 322 392 462
#     4  12  28  46  76 114 162 206 260 330 408 496
#     4  10  22  46  75 102 145 204 261 332 389 472
#
# _framework density 24.325782
#
# number of rings (size 3 to 8) (size 9 to 14) (size 15 to 20)
#    0.000    0.889    6.667    0.000    6.222    4.444 
#    4.000    0.000    0.000    0.000    0.000    0.000 
#    0.000    0.000    0.000    0.000    0.000    0.000 
#
# Total GULP energy -446008.135275 kJ/mol
# GULP energy per Si atom -12389.114869 kJ/mol
# Density = 2.427042 g / cm^3
# Si number density = 24.325782 Si / 1000 Ang^3
#
#
#
# Elastic Constant Matrix: (Units=GPa)
#
#
# Indices 1 2 3 4 5 6 
#
# 1 -458.1648 568.9633 68.9527 0.0000 0.0000 0.0000
# 2 568.9633 -458.1736 68.9515 0.0000 0.0000 0.0000
# 3 68.9527 68.9515 214.3072 0.0000 0.0000 0.0000
# 4 0.0000 0.0000 0.0000 46.2787 0.0000 0.0000
# 5 0.0000 0.0000 0.0000 0.0000 46.2787 0.0000
# 6 0.0000 0.0000 0.0000 0.0000 0.0000 31.0493
#
#
#
# Elastic Compliance Matrix: (Units=1/GPa)
#
#
# Indices 1 2 3 4 5 6 
#
# 1 0.007041 0.008014 -0.004844 0.000000 0.000000 0.000000
# 2 0.008014 0.007041 -0.004844 0.000000 0.000000 0.000000
# 3 -0.004844 -0.004844 0.007783 0.000000 0.000000 0.000000
# 4 0.000000 0.000000 0.000000 0.021608 0.000000 0.000000
# 5 0.000000 0.000000 0.000000 0.000000 0.021608 0.000000
# 6 0.000000 0.000000 0.000000 0.000000 0.000000 0.032207
#
#
# Mechanical properties :
#
#
# Convention : Reuss Voigt Hill
#
# Bulk Modulus (GPa) = 54.00297 79.07821 66.54059
# Shear Modulus (GPa) = 46.81348 -69.20524 -11.19588
#
# Velocity S-wave (km/s) = 4.39160 -5.33958 -2.14767
# Velocity P-wave (km/s) = 6.92553 2.33158 4.61122
#
# Compressibility (1/GPa) = 0.01851750
#
# Stress axis : x y z
#
# Youngs Moduli (GPa) = 142.03244 142.03483 128.48323
#
# Poissons Ratio (x) = -1.13829 0.62235
# Poissons Ratio (y) = -1.13827 0.62234
# Poissons Ratio (z) = 0.68798 0.68798
#
# Static dielectric constant tensor:
#      x y z
#    x 4.510400 0.000000 0.000000 
#    y 0.000000 4.510400 0.000000 
#    z 0.000000 0.000000 5.152190 
# 
# 
# High freq. dielectric constant tensor:
#      x y z
#    x 1.962330 0.000000 0.000000 
#    y 0.000000 1.962330 0.000000 
#    z 0.000000 0.000000 2.002850 
# 
# From -- ./inp_files/6283.got.cif
#   From: 2010.03.12/outbox.cif.g09.slc.cpg/sg95_4_cif.got.tgz:6283.got - 2010.04.08 20:51:55.
