data_PCOD8305759
_publ_section_title
;
Structure prediction by ZEFSAII (Michael W. Deem and Ramdas Pophale) SiO2 
 PCOD8305759
Probable space group: P 42 21 2
;
_chemical_formula_sum "Si O2"
_cell_formula_units_Z 48
_cell_length_a 8.988233
_cell_length_b 8.988233
_cell_length_c 28.315691
_cell_angle_alpha 90.000000
_cell_angle_beta 90.000000
_cell_angle_gamma 90.000000
_cell_volume 2287.577458
_symmetry_space_group_name_H-M "P 42 21 2"
_symmetry_group_IT_number 94
_symmetry_cell_setting 'tetragonal'
loop_
_space_group_symop_operation_xyz
x,y,z
1/2-y,1/2+x,1/2+z
-x,-y,z
1/2+y,1/2-x,1/2+z
1/2+x,1/2-y,1/2-z
1/2-x,1/2+y,1/2-z
y,x,-z
-y,-x,-z
loop_
_atom_site_type_symbol
_atom_site_label
_atom_site_fract_x
_atom_site_fract_y
_atom_site_fract_z
Si Si1 0.998821 0.765925 0.445018
Si Si2 0.874837 0.704828 0.346968
Si Si3 0.017156 0.336269 0.644697
Si Si4 0.834409 0.000124 0.204233
Si Si5 0.247125 0.984536 0.453170
Si Si6 0.706507 0.666318 0.795055
O O1 0.952482 0.674649 0.398066
O O2 0.168951 0.823958 0.444981
O O3 0.990182 0.675853 0.495222
O O4 0.885980 0.900925 0.446592
O O5 0.787615 0.555015 0.333685
O O6 0.001603 0.738673 0.308431
O O7 0.747522 0.830439 0.343529
O O8 0.007035 0.365611 0.588379
O O9 0.882435 0.231370 0.660496
O O10 0.000000 0.500000 0.668924
O O11 0.843111 0.100315 0.250421
O O12 0.779199 0.837310 0.219109
O O13 0.000000 0.000000 0.181299
#
# Coordination Sequence:
#
# PCOD8305759 Si02
#       6
#     8   8   8   8   8   8
#     4   8  14  29  57  87 116 151 199 247 296 357
#     4  11  22  40  64  89 118 162 207 254 308 371
#     4  11  21  35  59  91 123 156 198 250 312 365
#     4  12  26  42  61  87 120 157 203 259 313 369
#     4   8  14  28  54  89 119 151 193 248 300 353
#     4  12  24  42  62  85 116 158 207 253 306 373
#
# _framework density 20.982897000000001
#
# number of rings (size 3 to 8) (size 9 to 14) (size 15 to 20)
#    0.000    1.667    1.667    6.000    0.000    1.333 
#    0.000    1.667    0.000    0.000    0.000    8.167 
#    0.000    0.000    0.000    0.000    0.000    0.000 
#
# Total GULP energy -594721.153824 kJ/mol
# GULP energy per Si atom -12390.024038 kJ/mol
# Density = 2.093514 g / cm^3
# Si number density = 20.982897 Si / 1000 Ang^3
#
#
#
# Elastic Constant Matrix: (Units=GPa)
#
#
# Indices 1 2 3 4 5 6 
#
# 1 69.5547 11.7425 12.4429 0.0000 0.0000 0.0000
# 2 11.7425 69.5547 12.4429 0.0000 0.0000 0.0000
# 3 12.4429 12.4429 115.0264 0.0000 0.0000 0.0000
# 4 0.0000 0.0000 0.0000 21.6646 0.0000 0.0000
# 5 0.0000 0.0000 0.0000 0.0000 21.6646 0.0000
# 6 0.0000 0.0000 0.0000 0.0000 0.0000 32.8648
#
#
#
# Elastic Compliance Matrix: (Units=1/GPa)
#
#
# Indices 1 2 3 4 5 6 
#
# 1 0.015010 -0.002288 -0.001376 0.000000 0.000000 0.000000
# 2 -0.002288 0.015010 -0.001376 0.000000 0.000000 0.000000
# 3 -0.001376 -0.001376 0.008991 0.000000 0.000000 0.000000
# 4 0.000000 0.000000 0.000000 0.046158 0.000000 0.000000
# 5 0.000000 0.000000 0.000000 0.000000 0.046158 0.000000
# 6 0.000000 0.000000 0.000000 0.000000 0.000000 0.030428
#
#
# Mechanical properties :
#
#
# Convention : Reuss Voigt Hill
#
# Bulk Modulus (GPa) = 34.56582 36.37693 35.47138
# Shear Modulus (GPa) = 27.55148 29.73930 28.64539
#
# Velocity S-wave (km/s) = 3.62753 3.76880 3.69884
# Velocity P-wave (km/s) = 5.83561 6.02600 5.93157
#
# Compressibility (1/GPa) = 0.02893031
#
# Stress axis : x y z
#
# Youngs Moduli (GPa) = 66.62403 66.62403 111.21749
#
# Poissons Ratio (x) = 0.15242 0.15305
# Poissons Ratio (y) = 0.15242 0.15305
# Poissons Ratio (z) = 0.09169 0.09169
#
# Static dielectric constant tensor:
#      x y z
#    x 3.662550 0.000000 0.000000 
#    y 0.000000 3.662550 0.000000 
#    z 0.000000 0.000000 4.154940 
# 
# 
# High freq. dielectric constant tensor:
#      x y z
#    x 1.805750 0.000000 0.000000 
#    y 0.000000 1.805750 0.000000 
#    z 0.000000 0.000000 1.831010 
# 
# From -- ./inp_files/5590.got.cif
#   From: 2010.03.12/outbox.cif.g09.slc.cpg/sg94_3_cif.got.tgz:5590.got - 2010.04.08 20:48:32.
