data_PCOD8305841
_publ_section_title
;
Structure prediction by ZEFSAII (Michael W. Deem and Ramdas Pophale) SiO2 
 PCOD8305841
Probable space group: P 43 2 2
;
_chemical_formula_sum "Si O2"
_cell_formula_units_Z 32
_cell_length_a 10.774903
_cell_length_b 10.774903
_cell_length_c 10.901202
_cell_angle_alpha 90.000000
_cell_angle_beta 90.000000
_cell_angle_gamma 90.000000
_cell_volume 1265.613578
_symmetry_space_group_name_H-M "P 43 2 2"
_symmetry_group_IT_number 95
_symmetry_cell_setting 'tetragonal'
loop_
_space_group_symop_operation_xyz
x,y,z
-y,x,3/4+z
-x,-y,1/2+z
y,-x,1/4+z
x,-y,1/2-z
-x,y,-z
y,x,1/4-z
-y,-x,3/4-z
loop_
_atom_site_type_symbol
_atom_site_label
_atom_site_fract_x
_atom_site_fract_y
_atom_site_fract_z
Si Si1 0.659947 0.000000 0.750000
Si Si2 0.389322 0.326596 0.917831
Si Si3 0.780661 0.780661 0.625000
Si Si4 0.075703 0.000000 0.750000
Si Si5 0.203667 0.522518 0.923493
Si Si6 0.794378 0.205623 0.375000
O O1 0.750877 0.076543 0.840886
O O2 0.566807 0.085083 0.670118
O O3 0.317591 0.446221 0.863633
O O4 0.439643 0.236046 0.813057
O O5 0.500000 0.380274 0.000000
O O6 0.299000 0.249232 0.005318
O O7 0.161991 0.875960 0.756898
O O8 0.992991 0.992991 0.625000
O O9 0.181202 0.648840 0.846294
#
# Coordination Sequence:
#
# PCOD8305841 Si02
#       6
#     4   8   4   4   8   4
#     4  10  21  44  72 113 152 209 271 342 430 512
#     4  11  20  41  68 115 162 204 261 343 438 530
#     4  10  22  43  78 111 152 212 272 339 425 512
#     4   8  19  44  80 107 164 225 297 376 426 518
#     4  11  24  39  74 113 161 209 268 347 432 519
#     4  10  22  41  70 121 162 228 292 353 443 516
#
# _framework density 25.284178000000001
#
# number of rings (size 3 to 8) (size 9 to 14) (size 15 to 20)
#    0.750    1.000    5.000    0.750    3.500    0.000 
#    0.000   15.000    2.750   10.500    0.000    1.750 
#    0.000    0.000    0.000    0.000    0.000    0.000 
#
# Total GULP energy -396558.589644 kJ/mol
# GULP energy per Si atom -12392.455926 kJ/mol
# Density = 2.522663 g / cm^3
# Si number density = 25.284178 Si / 1000 Ang^3
#
#
#
# Elastic Constant Matrix: (Units=GPa)
#
#
# Indices 1 2 3 4 5 6 
#
# 1 184.9481 85.3727 44.4088 0.0000 0.0000 0.0000
# 2 85.3727 184.9491 44.4088 0.0000 0.0000 0.0000
# 3 44.4088 44.4088 112.3675 0.0000 0.0000 0.0000
# 4 0.0000 0.0000 0.0000 34.6639 0.0000 0.0000
# 5 0.0000 0.0000 0.0000 0.0000 34.6640 0.0000
# 6 0.0000 0.0000 0.0000 0.0000 0.0000 45.4208
#
#
#
# Elastic Compliance Matrix: (Units=1/GPa)
#
#
# Indices 1 2 3 4 5 6 
#
# 1 0.007147 -0.002896 -0.001680 0.000000 0.000000 0.000000
# 2 -0.002896 0.007147 -0.001680 0.000000 0.000000 0.000000
# 3 -0.001680 -0.001680 0.010227 0.000000 0.000000 0.000000
# 4 0.000000 0.000000 0.000000 0.028848 0.000000 0.000000
# 5 0.000000 0.000000 0.000000 0.000000 0.028848 0.000000
# 6 0.000000 0.000000 0.000000 0.000000 0.000000 0.022016
#
#
# Mechanical properties :
#
#
# Convention : Reuss Voigt Hill
#
# Bulk Modulus (GPa) = 83.26807 92.29391 87.78099
# Shear Modulus (GPa) = 41.40799 43.48802 42.44801
#
# Velocity S-wave (km/s) = 4.05125 4.15175 4.10181
# Velocity P-wave (km/s) = 7.40863 7.71781 7.56480
#
# Compressibility (1/GPa) = 0.01200941
#
# Stress axis : x y z
#
# Youngs Moduli (GPa) = 139.91906 139.91991 97.77642
#
# Poissons Ratio (x) = 0.40516 0.16428
# Poissons Ratio (y) = 0.40515 0.16428
# Poissons Ratio (z) = 0.23509 0.23509
#
# Static dielectric constant tensor:
#      x y z
#    x 4.849670 0.000000 0.000000 
#    y 0.000000 4.849650 0.000000 
#    z 0.000000 0.000000 4.329300 
# 
# 
# High freq. dielectric constant tensor:
#      x y z
#    x 2.017050 0.000000 0.000000 
#    y 0.000000 2.017050 0.000000 
#    z 0.000000 0.000000 1.992180 
# 
# From -- ./inp_files/3509.got.cif
#   From: 2010.03.12/outbox.cif.g09.slc.cpg/sg95_2_cif.got.tgz:3509.got - 2010.04.08 20:51:55.
