data_PCOD8305639
_publ_section_title
;
Structure prediction by ZEFSAII (Michael W. Deem and Ramdas Pophale) SiO2 
 PCOD8305639
Probable space group: P 42 21 2
;
_chemical_formula_sum "Si O2"
_cell_formula_units_Z 52
_cell_length_a 16.779961
_cell_length_b 16.779961
_cell_length_c 8.979828
_cell_angle_alpha 90.000000
_cell_angle_beta 90.000000
_cell_angle_gamma 90.000000
_cell_volume 2528.424049
_symmetry_space_group_name_H-M "P 42 21 2"
_symmetry_group_IT_number 94
_symmetry_cell_setting 'tetragonal'
loop_
_space_group_symop_operation_xyz
x,y,z
1/2-y,1/2+x,1/2+z
-x,-y,z
1/2+y,1/2-x,1/2+z
1/2+x,1/2-y,1/2-z
1/2-x,1/2+y,1/2-z
y,x,-z
-y,-x,-z
loop_
_atom_site_type_symbol
_atom_site_label
_atom_site_fract_x
_atom_site_fract_y
_atom_site_fract_z
Si Si1 0.147705 0.561755 0.991196
Si Si2 0.003145 0.129128 0.521004
Si Si3 0.672280 0.011596 0.945120
Si Si4 0.169279 0.650144 0.711261
Si Si5 0.240065 0.492670 0.242511
Si Si6 0.263011 0.263011 0.000000
Si Si7 0.931588 0.266763 0.347576
O O1 0.056541 0.591588 0.003551
O O2 0.191150 0.626809 0.881251
O O3 0.153274 0.472220 0.919941
O O4 0.188944 0.560106 0.153709
O O5 0.934494 0.065507 0.500000
O O6 0.997959 0.168415 0.686612
O O7 0.993018 0.197091 0.395876
O O8 0.089155 0.089155 0.500000
O O9 0.731083 0.991478 0.082614
O O10 0.722740 0.067718 0.830978
O O11 0.643568 0.930574 0.871046
O O12 0.095888 0.711022 0.701476
O O13 0.242552 0.692570 0.623246
O O14 0.253766 0.344984 0.908916
#
# Coordination Sequence:
#
# PCOD8305639 Si02
#       7
#     8   8   8   8   8   4   8
#     4   9  20  39  61  88 128 158 212 261 314 391
#     4  10  19  37  64  85 114 166 214 260 321 389
#     4  10  23  38  61  95 128 164 212 271 327 382
#     4  10  21  38  60  89 119 169 214 249 325 386
#     4  10  20  39  59  89 126 157 210 264 318 383
#     4  12  20  40  67  86 130 176 213 272 318 402
#     4  10  20  41  64  92 123 171 219 264 329 391
#
# _framework density 20.56617
#
# number of rings (size 3 to 8) (size 9 to 14) (size 15 to 20)
#    0.000    2.000    3.846    0.000    2.154    0.615 
#    8.308   10.000    0.000    1.846    0.000    0.000 
#    0.000    0.000    0.000    0.000    0.000    0.000 
#
# Total GULP energy -644306.236843 kJ/mol
# GULP energy per Si atom -12390.504555 kJ/mol
# Density = 2.051936 g / cm^3
# Si number density = 20.566170 Si / 1000 Ang^3
#
#
#
# Elastic Constant Matrix: (Units=GPa)
#
#
# Indices 1 2 3 4 5 6 
#
# 1 75.9747 34.7091 32.1190 0.0000 0.0000 0.0000
# 2 34.7091 75.9745 32.1191 0.0000 0.0000 0.0000
# 3 32.1190 32.1191 147.0681 0.0000 0.0000 0.0000
# 4 0.0000 0.0000 0.0000 24.2648 0.0000 0.0000
# 5 0.0000 0.0000 0.0000 0.0000 24.2636 0.0000
# 6 0.0000 0.0000 0.0000 0.0000 0.0000 40.2462
#
#
#
# Elastic Compliance Matrix: (Units=1/GPa)
#
#
# Indices 1 2 3 4 5 6 
#
# 1 0.017290 -0.006944 -0.002260 0.000000 0.000000 0.000000
# 2 -0.006944 0.017290 -0.002260 0.000000 0.000000 0.000000
# 3 -0.002260 -0.002260 0.007787 0.000000 0.000000 0.000000
# 4 0.000000 0.000000 0.000000 0.041212 0.000000 0.000000
# 5 0.000000 0.000000 0.000000 0.000000 0.041214 0.000000
# 6 0.000000 0.000000 0.000000 0.000000 0.000000 0.024847
#
#
# Mechanical properties :
#
#
# Convention : Reuss Voigt Hill
#
# Bulk Modulus (GPa) = 51.43876 55.21242 53.32559
# Shear Modulus (GPa) = 27.92601 31.09293 29.50947
#
# Velocity S-wave (km/s) = 3.68891 3.89247 3.79206
# Velocity P-wave (km/s) = 6.57341 6.86340 6.71997
#
# Compressibility (1/GPa) = 0.01944059
#
# Stress axis : x y z
#
# Youngs Moduli (GPa) = 57.83789 57.83766 128.42696
#
# Poissons Ratio (x) = 0.40160 0.29019
# Poissons Ratio (y) = 0.40160 0.29019
# Poissons Ratio (z) = 0.13069 0.13069
#
# Static dielectric constant tensor:
#      x y z
#    x 3.710550 0.000000 0.000000 
#    y 0.000000 3.710560 0.000000 
#    z 0.000000 0.000000 4.103930 
# 
# 
# High freq. dielectric constant tensor:
#      x y z
#    x 1.787100 0.000000 0.000000 
#    y 0.000000 1.787100 0.000000 
#    z 0.000000 0.000000 1.812350 
# 
# From -- ./inp_files/1685.got.cif
#   From: 2010.03.12/outbox.cif.g09.slc.cpg/sg94_1_cif.got.tgz:1685.got - 2010.04.08 20:48:32.
