data_PCOD8305060
_publ_section_title
;
Structure prediction by ZEFSAII (Michael W. Deem and Ramdas Pophale) SiO2 
 PCOD8305060
Probable space group: P 41 2 2
;
_chemical_formula_sum "Si O2"
_cell_formula_units_Z 40
_cell_length_a 8.089923
_cell_length_b 8.089923
_cell_length_c 25.980974
_cell_angle_alpha 90.000000
_cell_angle_beta 90.000000
_cell_angle_gamma 90.000000
_cell_volume 1700.373016
_symmetry_space_group_name_H-M "P 41 2 2"
_symmetry_group_IT_number 91
_symmetry_cell_setting 'tetragonal'
loop_
_space_group_symop_operation_xyz
x,y,z
-y,x,1/4+z
-x,-y,1/2+z
y,-x,3/4+z
x,-y,1/2-z
-x,y,-z
y,x,3/4-z
-y,-x,1/4-z
loop_
_atom_site_type_symbol
_atom_site_label
_atom_site_fract_x
_atom_site_fract_y
_atom_site_fract_z
Si Si1 0.634464 0.834413 0.686304
Si Si2 0.732939 0.697424 0.581831
Si Si3 0.025104 0.561186 0.194139
Si Si4 0.666321 0.220475 0.696524
Si Si5 0.072137 0.678705 0.605786
O O1 0.725268 0.726296 0.643506
O O2 0.687693 0.774437 0.741862
O O3 0.438262 0.802543 0.676118
O O4 0.666549 0.030916 0.676894
O O5 0.685229 0.506475 0.568003
O O6 0.924798 0.725916 0.566878
O O7 0.637519 0.839911 0.551004
O O8 0.078740 0.500000 0.250000
O O9 0.172520 0.684414 0.173844
O O10 0.010439 0.413531 0.154226
O O11 0.157264 0.842737 0.625000
#
# Coordination Sequence:
#
# PCOD8305060 Si02
#       5
#     8   8   8   8   8
#     4   9  21  43  66 102 135 184 233 294 365 427
#     4  10  23  42  70  98 134 188 233 296 359 432
#     4  11  25  44  65 105 135 183 245 288 368 445
#     4  10  22  44  69  99 146 182 241 301 361 436
#     4  10  23  42  66  97 137 174 234 291 365 432
#
# _framework density 23.524249000000001
#
# number of rings (size 3 to 8) (size 9 to 14) (size 15 to 20)
#    0.000    2.000    0.000    1.200    5.600    7.200 
#   18.000    0.000    0.000    0.000    0.000    0.000 
#    0.000    0.000    0.000    0.000    0.000    0.000 
#
# Total GULP energy -495636.991011 kJ/mol
# GULP energy per Si atom -12390.924775 kJ/mol
# Density = 2.347071 g / cm^3
# Si number density = 23.524249 Si / 1000 Ang^3
#
#
#
# Elastic Constant Matrix: (Units=GPa)
#
#
# Indices 1 2 3 4 5 6 
#
# 1 109.7567 57.8678 20.3767 0.0000 0.0000 0.0000
# 2 57.8678 109.7551 20.3767 0.0000 0.0000 0.0000
# 3 20.3767 20.3767 57.7463 0.0000 0.0000 0.0000
# 4 0.0000 0.0000 0.0000 25.6412 0.0000 0.0000
# 5 0.0000 0.0000 0.0000 0.0000 25.6415 0.0000
# 6 0.0000 0.0000 0.0000 0.0000 0.0000 49.4011
#
#
#
# Elastic Compliance Matrix: (Units=1/GPa)
#
#
# Indices 1 2 3 4 5 6 
#
# 1 0.012899 -0.006373 -0.002303 0.000000 0.000000 0.000000
# 2 -0.006373 0.012899 -0.002303 0.000000 0.000000 0.000000
# 3 -0.002303 -0.002303 0.018942 0.000000 0.000000 0.000000
# 4 0.000000 0.000000 0.000000 0.039000 0.000000 0.000000
# 5 0.000000 0.000000 0.000000 0.000000 0.038999 0.000000
# 6 0.000000 0.000000 0.000000 0.000000 0.000000 0.020242
#
#
# Mechanical properties :
#
#
# Convention : Reuss Voigt Hill
#
# Bulk Modulus (GPa) = 43.89291 52.72227 48.30759
# Shear Modulus (GPa) = 28.97998 32.04589 30.51293
#
# Velocity S-wave (km/s) = 3.51368 3.69487 3.60541
# Velocity P-wave (km/s) = 5.92962 6.37678 6.15726
#
# Compressibility (1/GPa) = 0.02278273
#
# Stress axis : x y z
#
# Youngs Moduli (GPa) = 77.52658 77.52535 52.79220
#
# Poissons Ratio (x) = 0.49409 0.12156
# Poissons Ratio (y) = 0.49410 0.12156
# Poissons Ratio (z) = 0.17851 0.17852
#
# Static dielectric constant tensor:
#      x y z
#    x 4.260590 0.000000 0.000000 
#    y 0.000000 4.260600 0.000000 
#    z 0.000000 0.000000 3.763930 
# 
# 
# High freq. dielectric constant tensor:
#      x y z
#    x 1.931730 0.000000 0.000000 
#    y 0.000000 1.931730 0.000000 
#    z 0.000000 0.000000 1.931180 
# 
# From -- ./inp_files/18011.got.cif
#   From: 2010.03.12/outbox.cif.g09.slc.cpg/sg91_10_cif.got.tgz:18011.got - 2010.04.08 20:27:58.
