data_PCOD8305702
_publ_section_title
;
Structure prediction by ZEFSAII (Michael W. Deem and Ramdas Pophale) SiO2 
 PCOD8305702
Probable space group: P 42 21 2
;
_chemical_formula_sum "Si O2"
_cell_formula_units_Z 40
_cell_length_a 14.607787
_cell_length_b 14.607787
_cell_length_c 9.267350
_cell_angle_alpha 90.000000
_cell_angle_beta 90.000000
_cell_angle_gamma 90.000000
_cell_volume 1977.536102
_symmetry_space_group_name_H-M "P 42 21 2"
_symmetry_group_IT_number 94
_symmetry_cell_setting 'tetragonal'
loop_
_space_group_symop_operation_xyz
x,y,z
1/2-y,1/2+x,1/2+z
-x,-y,z
1/2+y,1/2-x,1/2+z
1/2+x,1/2-y,1/2-z
1/2-x,1/2+y,1/2-z
y,x,-z
-y,-x,-z
loop_
_atom_site_type_symbol
_atom_site_label
_atom_site_fract_x
_atom_site_fract_y
_atom_site_fract_z
Si Si1 0.830876 0.309366 0.568575
Si Si2 0.474816 0.764110 0.870932
Si Si3 0.275364 0.061476 0.689182
Si Si4 0.573769 0.430656 0.828200
Si Si5 0.576842 0.926841 0.162675
O O1 0.748491 0.251510 0.500000
O O2 0.802009 0.347116 0.724823
O O3 0.859237 0.396240 0.470069
O O4 0.919395 0.244615 0.586694
O O5 0.440852 0.675628 0.781300
O O6 0.470733 0.857723 0.781710
O O7 0.416436 0.780511 0.017537
O O8 0.171356 0.035036 0.729930
O O9 0.339063 0.975210 0.729671
O O10 0.500000 0.500000 0.758864
O O11 0.566772 0.433229 0.000000
O O12 0.500000 0.000000 0.111735
#
# Coordination Sequence:
#
# PCOD8305702 Si02
#       5
#     8   8   8   8   8
#     4  11  24  38  63  93 128 166 212 258 321 376
#     4  10  22  38  63  89 124 163 209 260 313 371
#     4  10  22  37  61  91 121 162 206 252 315 371
#     4   9  19  37  61  88 117 158 210 259 303 371
#     4  11  23  39  62  95 131 163 207 262 320 376
#
# _framework density 20.22719
#
# number of rings (size 3 to 8) (size 9 to 14) (size 15 to 20)
#    0.000    1.800    2.000    1.200   14.000    0.000 
#    0.000    0.000    0.000    5.400    0.000    0.000 
#    0.000    0.000    0.000    0.000    0.000    0.000 
#
# Total GULP energy -495883.636469 kJ/mol
# GULP energy per Si atom -12397.090912 kJ/mol
# Density = 2.018115 g / cm^3
# Si number density = 20.227190 Si / 1000 Ang^3
#
#
#
# Elastic Constant Matrix: (Units=GPa)
#
#
# Indices 1 2 3 4 5 6 
#
# 1 125.2855 61.1978 36.4566 0.0000 0.0000 0.0000
# 2 61.1978 125.2841 36.4562 0.0000 0.0000 0.0000
# 3 36.4566 36.4562 60.3898 0.0000 0.0000 0.0000
# 4 0.0000 0.0000 0.0000 21.6892 0.0000 0.0000
# 5 0.0000 0.0000 0.0000 0.0000 21.6897 0.0000
# 6 0.0000 0.0000 0.0000 0.0000 0.0000 42.0187
#
#
#
# Elastic Compliance Matrix: (Units=1/GPa)
#
#
# Indices 1 2 3 4 5 6 
#
# 1 0.011311 -0.004292 -0.004237 0.000000 0.000000 0.000000
# 2 -0.004292 0.011312 -0.004237 0.000000 0.000000 0.000000
# 3 -0.004237 -0.004237 0.021675 0.000000 0.000000 0.000000
# 4 0.000000 0.000000 0.000000 0.046106 0.000000 0.000000
# 5 0.000000 0.000000 0.000000 0.000000 0.046105 0.000000
# 6 0.000000 0.000000 0.000000 0.000000 0.000000 0.023799
#
#
# Mechanical properties :
#
#
# Convention : Reuss Voigt Hill
#
# Bulk Modulus (GPa) = 53.29342 64.35340 58.82341
# Shear Modulus (GPa) = 26.02858 28.86945 27.44901
#
# Velocity S-wave (km/s) = 3.59111 3.78201 3.68779
# Velocity P-wave (km/s) = 6.60298 7.13833 6.87587
#
# Compressibility (1/GPa) = 0.01876404
#
# Stress axis : x y z
#
# Youngs Moduli (GPa) = 88.40602 88.40529 46.13574
#
# Poissons Ratio (x) = 0.37946 0.19550
# Poissons Ratio (y) = 0.37946 0.19549
# Poissons Ratio (z) = 0.37461 0.37460
#
# Static dielectric constant tensor:
#      x y z
#    x 3.791740 0.000000 0.000000 
#    y 0.000000 3.791730 0.000000 
#    z 0.000000 0.000000 3.400060 
# 
# 
# High freq. dielectric constant tensor:
#      x y z
#    x 1.795490 0.000000 0.000000 
#    y 0.000000 1.795490 0.000000 
#    z 0.000000 0.000000 1.755890 
# 
# From -- ./inp_files/1428.got.cif
#   From: 2010.03.12/outbox.cif.g09.slc.cpg/sg94_1_cif.got.tgz:1428.got - 2010.04.08 20:48:32.
