data_PCOD8305117
_publ_section_title
;
Structure prediction by ZEFSAII (Michael W. Deem and Ramdas Pophale) SiO2 
 PCOD8305117
Probable space group: P 41 2 2
;
_chemical_formula_sum "Si O2"
_cell_formula_units_Z 48
_cell_length_a 14.054383
_cell_length_b 14.054383
_cell_length_c 12.712363
_cell_angle_alpha 90.000000
_cell_angle_beta 90.000000
_cell_angle_gamma 90.000000
_cell_volume 2511.018165
_symmetry_space_group_name_H-M "P 41 2 2"
_symmetry_group_IT_number 91
_symmetry_cell_setting 'tetragonal'
loop_
_space_group_symop_operation_xyz
x,y,z
-y,x,1/4+z
-x,-y,1/2+z
y,-x,3/4+z
x,-y,1/2-z
-x,y,-z
y,x,3/4-z
-y,-x,1/4-z
loop_
_atom_site_type_symbol
_atom_site_label
_atom_site_fract_x
_atom_site_fract_y
_atom_site_fract_z
Si Si1 0.335443 0.592415 0.810478
Si Si2 0.129522 0.515707 0.436303
Si Si3 0.334238 0.540792 0.048096
Si Si4 0.275189 0.106989 0.760187
Si Si5 0.165229 0.716236 0.748337
Si Si6 0.941754 0.558615 0.152052
O O1 0.299210 0.500000 0.750000
O O2 0.445120 0.606705 0.781152
O O3 0.271258 0.675770 0.764045
O O4 0.320701 0.589266 0.935534
O O5 0.233749 0.485839 0.397471
O O6 0.116924 0.630156 0.436932
O O7 0.116337 0.476357 0.552840
O O8 0.054077 0.461959 0.360843
O O9 0.387838 0.612162 0.125000
O O10 0.185172 0.172528 0.724812
O O11 0.237492 0.000000 0.750000
O O12 0.301974 0.131009 0.879951
O O13 0.085827 0.669538 0.826045
O O14 0.900860 0.500000 0.250000
#
# Coordination Sequence:
#
# PCOD8305117 Si02
#       6
#     8   8   8   8   8   8
#     4  12  23  37  60  83 124 174 219 263 315 395
#     4  11  21  36  60  84 127 162 213 258 310 393
#     4  12  25  40  52  87 129 175 218 258 321 389
#     4  11  21  39  62 100 124 156 215 280 332 380
#     4  11  22  36  65  93 124 162 211 268 337 389
#     4  11  20  37  59  90 122 158 207 266 324 381
#
# _framework density 19.115749999999998
#
# number of rings (size 3 to 8) (size 9 to 14) (size 15 to 20)
#    0.000    0.667    6.667    3.500    2.333    1.333 
#    3.000    0.000    0.000    0.000   21.667    0.000 
#    0.000    0.000    0.000    0.000    0.000    0.000 
#
# Total GULP energy -595071.535467 kJ/mol
# GULP energy per Si atom -12397.323656 kJ/mol
# Density = 1.907224 g / cm^3
# Si number density = 19.115750 Si / 1000 Ang^3
#
#
#
# Elastic Constant Matrix: (Units=GPa)
#
#
# Indices 1 2 3 4 5 6 
#
# 1 121.6169 43.7821 25.3489 0.0000 0.0000 0.0000
# 2 43.7821 121.6171 25.3484 0.0000 0.0000 0.0000
# 3 25.3489 25.3484 71.7189 0.0000 0.0000 0.0000
# 4 0.0000 0.0000 0.0000 22.5837 0.0000 0.0000
# 5 0.0000 0.0000 0.0000 0.0000 22.5840 0.0000
# 6 0.0000 0.0000 0.0000 0.0000 0.0000 35.0144
#
#
#
# Elastic Compliance Matrix: (Units=1/GPa)
#
#
# Indices 1 2 3 4 5 6 
#
# 1 0.009814 -0.003034 -0.002397 0.000000 0.000000 0.000000
# 2 -0.003034 0.009814 -0.002396 0.000000 0.000000 0.000000
# 3 -0.002397 -0.002396 0.015637 0.000000 0.000000 0.000000
# 4 0.000000 0.000000 0.000000 0.044280 0.000000 0.000000
# 5 0.000000 0.000000 0.000000 0.000000 0.044279 0.000000
# 6 0.000000 0.000000 0.000000 0.000000 0.000000 0.028560
#
#
# Mechanical properties :
#
#
# Convention : Reuss Voigt Hill
#
# Bulk Modulus (GPa) = 50.98834 55.99020 53.48927
# Shear Modulus (GPa) = 28.64096 30.73464 29.68780
#
# Velocity S-wave (km/s) = 3.87498 4.01411 3.94516
# Velocity P-wave (km/s) = 6.83754 7.13006 6.98533
#
# Compressibility (1/GPa) = 0.01961233
#
# Stress axis : x y z
#
# Youngs Moduli (GPa) = 101.89358 101.89413 63.94919
#
# Poissons Ratio (x) = 0.30910 0.15326
# Poissons Ratio (y) = 0.30910 0.15325
# Poissons Ratio (z) = 0.24420 0.24419
#
# Static dielectric constant tensor:
#      x y z
#    x 3.582600 0.000000 0.000000 
#    y 0.000000 3.582600 0.000000 
#    z 0.000000 0.000000 3.628150 
# 
# 
# High freq. dielectric constant tensor:
#      x y z
#    x 1.737020 0.000000 0.000000 
#    y 0.000000 1.737020 0.000000 
#    z 0.000000 0.000000 1.736550 
# 
# From -- ./inp_files/3836.got.cif
#   From: 2010.03.12/outbox.cif.g09.slc.cpg/sg91_2_cif.got.tgz:3836.got - 2010.04.08 20:27:58.
