data_PCOD8305076
_publ_section_title
;
Structure prediction by ZEFSAII (Michael W. Deem and Ramdas Pophale) SiO2 
 PCOD8305076
Probable space group: P 41 2 2
;
_chemical_formula_sum "Si O2"
_cell_formula_units_Z 36
_cell_length_a 8.529823
_cell_length_b 8.529823
_cell_length_c 22.779036
_cell_angle_alpha 90.000000
_cell_angle_beta 90.000000
_cell_angle_gamma 90.000000
_cell_volume 1657.354377
_symmetry_space_group_name_H-M "P 41 2 2"
_symmetry_group_IT_number 91
_symmetry_cell_setting 'tetragonal'
loop_
_space_group_symop_operation_xyz
x,y,z
-y,x,1/4+z
-x,-y,1/2+z
y,-x,3/4+z
x,-y,1/2-z
-x,y,-z
y,x,3/4-z
-y,-x,1/4-z
loop_
_atom_site_type_symbol
_atom_site_label
_atom_site_fract_x
_atom_site_fract_y
_atom_site_fract_z
Si Si1 0.187261 0.187261 0.375000
Si Si2 0.679029 0.663427 0.982378
Si Si3 0.781924 0.326903 0.953205
Si Si4 0.873121 0.694778 0.423803
Si Si5 0.140444 0.333625 0.599058
O O1 0.305752 0.209304 0.430404
O O2 0.009628 0.219815 0.395952
O O3 0.762970 0.514336 0.951817
O O4 0.500000 0.628607 0.000000
O O5 0.767410 0.723060 0.040806
O O6 0.665531 0.248527 0.907177
O O7 0.951076 0.255360 0.937684
O O8 0.753810 0.282125 0.021445
O O9 0.806794 0.806794 0.375000
O O10 0.897451 0.515070 0.406395
#
# Coordination Sequence:
#
# PCOD8305076 Si02
#       5
#     4   8   8   8   8
#     4  12  24  46  66  98 144 180 232 294 352 428
#     4  11  24  44  71  98 134 184 236 289 351 422
#     4  10  23  44  65  98 134 178 227 280 349 416
#     4  10  23  43  68  95 139 178 225 287 340 419
#     4  11  25  42  69 100 136 181 230 287 355 416
#
# _framework density 21.721361999999999
#
# number of rings (size 3 to 8) (size 9 to 14) (size 15 to 20)
#    0.000    1.333    2.222    2.000    7.778    1.778 
#    4.000    0.000    0.000    0.000    0.000    0.000 
#    0.000    0.000    0.000    0.000    0.000    0.000 
#
# Total GULP energy -446159.208072 kJ/mol
# GULP energy per Si atom -12393.311335 kJ/mol
# Density = 2.167192 g / cm^3
# Si number density = 21.721362 Si / 1000 Ang^3
#
#
#
# Elastic Constant Matrix: (Units=GPa)
#
#
# Indices 1 2 3 4 5 6 
#
# 1 83.4140 32.4458 57.3992 0.0000 0.0000 0.0000
# 2 32.4458 83.4140 57.3992 0.0000 0.0000 0.0000
# 3 57.3992 57.3992 144.3920 0.0000 0.0000 0.0000
# 4 0.0000 0.0000 0.0000 42.0992 0.0000 0.0000
# 5 0.0000 0.0000 0.0000 0.0000 42.0992 0.0000
# 6 0.0000 0.0000 0.0000 0.0000 0.0000 35.2001
#
#
#
# Elastic Compliance Matrix: (Units=1/GPa)
#
#
# Indices 1 2 3 4 5 6 
#
# 1 0.016930 -0.002690 -0.005661 0.000000 0.000000 0.000000
# 2 -0.002690 0.016930 -0.005661 0.000000 0.000000 0.000000
# 3 -0.005661 -0.005661 0.011426 0.000000 0.000000 0.000000
# 4 0.000000 0.000000 0.000000 0.023753 0.000000 0.000000
# 5 0.000000 0.000000 0.000000 0.000000 0.023753 0.000000
# 6 0.000000 0.000000 0.000000 0.000000 0.000000 0.028409
#
#
# Mechanical properties :
#
#
# Convention : Reuss Voigt Hill
#
# Bulk Modulus (GPa) = 57.92672 67.30095 62.61383
# Shear Modulus (GPa) = 32.26235 34.81143 33.53689
#
# Velocity S-wave (km/s) = 3.85812 4.00764 3.93359
# Velocity P-wave (km/s) = 6.82442 7.24333 7.03700
#
# Compressibility (1/GPa) = 0.01726319
#
# Stress axis : x y z
#
# Youngs Moduli (GPa) = 59.06665 59.06665 87.51866
#
# Poissons Ratio (x) = 0.15889 0.49542
# Poissons Ratio (y) = 0.15889 0.49542
# Poissons Ratio (z) = 0.33436 0.33436
#
# Static dielectric constant tensor:
#      x y z
#    x 3.741260 0.000000 0.000000 
#    y 0.000000 3.741260 0.000000 
#    z 0.000000 0.000000 4.323700 
# 
# 
# High freq. dielectric constant tensor:
#      x y z
#    x 1.842490 0.000000 0.000000 
#    y 0.000000 1.842490 0.000000 
#    z 0.000000 0.000000 1.878570 
# 
# From -- ./inp_files/6164.got.cif
#   From: 2010.03.12/outbox.cif.g09.slc.cpg/sg91_4_cif.got.tgz:6164.got - 2010.04.08 20:27:58.
