data_PCOD8305376
_publ_section_title
;
Structure prediction by ZEFSAII (Michael W. Deem and Ramdas Pophale) SiO2 
 PCOD8305376
Probable space group: P 41 21 2
;
_chemical_formula_sum "Si O2"
_cell_formula_units_Z 48
_cell_length_a 8.689472
_cell_length_b 8.689472
_cell_length_c 29.982299
_cell_angle_alpha 90.000000
_cell_angle_beta 90.000000
_cell_angle_gamma 90.000000
_cell_volume 2263.871161
_symmetry_space_group_name_H-M "P 41 21 2"
_symmetry_group_IT_number 92
_symmetry_cell_setting 'tetragonal'
loop_
_space_group_symop_operation_xyz
x,y,z
1/2-y,1/2+x,1/4+z
-x,-y,1/2+z
1/2+y,1/2-x,3/4+z
1/2+x,1/2-y,3/4-z
1/2-x,1/2+y,1/4-z
y,x,-z
-y,-x,1/2-z
loop_
_atom_site_type_symbol
_atom_site_label
_atom_site_fract_x
_atom_site_fract_y
_atom_site_fract_z
Si Si1 0.570376 0.403021 0.668718
Si Si2 0.592548 0.072182 0.835866
Si Si3 0.064595 0.064595 0.500000
Si Si4 0.924999 0.075002 0.250000
Si Si5 0.076740 0.085520 0.659389
Si Si6 0.426041 0.918229 0.756128
Si Si7 0.432964 0.079452 0.664722
O O1 0.749662 0.364984 0.665828
O O2 0.541494 0.525490 0.707821
O O3 0.513853 0.468240 0.621798
O O4 0.477058 0.249377 0.680860
O O5 0.742112 0.976756 0.849861
O O6 0.531553 0.020434 0.787844
O O7 0.464403 0.041198 0.873343
O O8 0.240355 0.032997 0.513518
O O9 0.752042 0.051941 0.268115
O O10 0.042930 0.038793 0.289579
O O11 0.256960 0.073426 0.648616
O O12 0.460476 0.961739 0.705107
#
# Coordination Sequence:
#
# PCOD8305376 Si02
#       7
#     8   8   4   4   8   8   8
#     4  12  25  41  62  93 129 163 207 263 319 374
#     4  12  25  40  62  93 127 163 205 259 320 378
#     4  11  22  41  66  92 124 165 212 257 312 380
#     4   9  22  41  64  90 118 157 206 257 304 364
#     4  11  23  41  65  91 122 166 210 254 313 380
#     4  10  22  41  65  91 121 161 209 257 308 372
#     4  11  23  42  65  90 124 165 212 259 312 378
#
# _framework density 21.20262
#
# number of rings (size 3 to 8) (size 9 to 14) (size 15 to 20)
#    0.000    1.000    0.000    7.000    0.000    7.333 
#    0.000    0.000    0.000    0.000    0.000    0.000 
#    0.000    0.000    0.000    0.000    0.000    0.000 
#
# Total GULP energy -595691.055359 kJ/mol
# GULP energy per Si atom -12410.230320 kJ/mol
# Density = 2.115436 g / cm^3
# Si number density = 21.202620 Si / 1000 Ang^3
#
#
#
# Elastic Constant Matrix: (Units=GPa)
#
#
# Indices 1 2 3 4 5 6 
#
# 1 77.1875 28.7811 32.6668 0.0000 0.0000 0.0000
# 2 28.7811 77.1882 32.6664 0.0000 0.0000 0.0000
# 3 32.6668 32.6664 80.0544 0.0000 0.0000 0.0000
# 4 0.0000 0.0000 0.0000 33.4760 0.0000 0.0000
# 5 0.0000 0.0000 0.0000 0.0000 33.4761 0.0000
# 6 0.0000 0.0000 0.0000 0.0000 0.0000 33.0426
#
#
#
# Elastic Compliance Matrix: (Units=1/GPa)
#
#
# Indices 1 2 3 4 5 6 
#
# 1 0.016634 -0.004025 -0.005145 0.000000 0.000000 0.000000
# 2 -0.004025 0.016633 -0.005145 0.000000 0.000000 0.000000
# 3 -0.005145 -0.005145 0.016690 0.000000 0.000000 0.000000
# 4 0.000000 0.000000 0.000000 0.029872 0.000000 0.000000
# 5 0.000000 0.000000 0.000000 0.000000 0.029872 0.000000
# 6 0.000000 0.000000 0.000000 0.000000 0.000000 0.030264
#
#
# Mechanical properties :
#
#
# Convention : Reuss Voigt Hill
#
# Bulk Modulus (GPa) = 46.88726 46.96207 46.92466
# Shear Modulus (GPa) = 28.45680 29.35333 28.90507
#
# Velocity S-wave (km/s) = 3.66749 3.72482 3.69627
# Velocity P-wave (km/s) = 6.33213 6.37936 6.35579
#
# Compressibility (1/GPa) = 0.02132776
#
# Stress axis : x y z
#
# Youngs Moduli (GPa) = 60.11891 60.11984 59.91434
#
# Poissons Ratio (x) = 0.24196 0.30827
# Poissons Ratio (y) = 0.24196 0.30826
# Poissons Ratio (z) = 0.30932 0.30932
#
# Static dielectric constant tensor:
#      x y z
#    x 3.826950 0.000000 0.000000 
#    y 0.000000 3.826950 0.000000 
#    z 0.000000 0.000000 3.732950 
# 
# 
# High freq. dielectric constant tensor:
#      x y z
#    x 1.837900 0.000000 0.000000 
#    y 0.000000 1.837900 0.000000 
#    z 0.000000 0.000000 1.839870 
# 
# From -- ./inp_files/4579.got.cif
#   From: 2010.03.12/outbox.cif.g09.slc.cpg/sg92_3_cif.got.tgz:4579.got - 2010.04.08 20:41:11.
