data_PCOD8305329
_publ_section_title
;
Structure prediction by ZEFSAII (Michael W. Deem and Ramdas Pophale) SiO2 
 PCOD8305329
Probable space group: P 41 21 2
;
_chemical_formula_sum "Si O2"
_cell_formula_units_Z 36
_cell_length_a 14.478560
_cell_length_b 14.478560
_cell_length_c 7.732718
_cell_angle_alpha 90.000000
_cell_angle_beta 90.000000
_cell_angle_gamma 90.000000
_cell_volume 1620.999619
_symmetry_space_group_name_H-M "P 41 21 2"
_symmetry_group_IT_number 92
_symmetry_cell_setting 'tetragonal'
loop_
_space_group_symop_operation_xyz
x,y,z
1/2-y,1/2+x,1/4+z
-x,-y,1/2+z
1/2+y,1/2-x,3/4+z
1/2+x,1/2-y,3/4-z
1/2-x,1/2+y,1/4-z
y,x,-z
-y,-x,1/2-z
loop_
_atom_site_type_symbol
_atom_site_label
_atom_site_fract_x
_atom_site_fract_y
_atom_site_fract_z
Si Si1 0.930399 0.398714 0.488850
Si Si2 0.337525 0.662476 0.750000
Si Si3 0.020804 0.876881 0.521072
Si Si4 0.234873 0.132501 0.147233
Si Si5 0.302662 0.466738 0.646180
O O1 0.917231 0.478651 0.349105
O O2 0.843097 0.390924 0.616852
O O3 0.934776 0.302811 0.383948
O O4 0.307863 0.712109 0.571875
O O5 0.311550 0.555432 0.765159
O O6 0.998423 0.836007 0.709147
O O7 0.132677 0.886681 0.515093
O O8 0.968404 0.815288 0.376458
O O9 0.980462 0.980462 0.500000
O O10 0.202606 0.202606 0.000000
#
# Coordination Sequence:
#
# PCOD8305329 Si02
#       5
#     8   4   8   8   8
#     4  12  30  50  69 101 147 208 253 296 354 438
#     4  12  20  42  76 108 150 170 246 306 368 428
#     4  10  21  40  74 113 142 179 233 308 383 429
#     4  11  25  46  77 111 145 193 242 309 367 441
#     4  11  23  43  71 110 147 183 236 308 375 429
#
# _framework density 22.208517000000001
#
# number of rings (size 3 to 8) (size 9 to 14) (size 15 to 20)
#    0.000    0.889    7.778    0.000    3.111    4.444 
#    0.000    0.000    0.000    0.000    0.000    0.000 
#    0.000    0.000    0.000    0.000    0.000    0.000 
#
# Total GULP energy -445984.972722 kJ/mol
# GULP energy per Si atom -12388.471464 kJ/mol
# Density = 2.215797 g / cm^3
# Si number density = 22.208517 Si / 1000 Ang^3
#
#
#
# Elastic Constant Matrix: (Units=GPa)
#
#
# Indices 1 2 3 4 5 6 
#
# 1 152.6405 40.1385 51.1823 0.0000 0.0000 0.0000
# 2 40.1385 152.6398 51.1824 0.0000 0.0000 0.0000
# 3 51.1823 51.1824 127.7027 0.0000 0.0000 0.0000
# 4 0.0000 0.0000 0.0000 20.2010 0.0000 0.0000
# 5 0.0000 0.0000 0.0000 0.0000 20.2014 0.0000
# 6 0.0000 0.0000 0.0000 0.0000 0.0000 27.7167
#
#
#
# Elastic Compliance Matrix: (Units=1/GPa)
#
#
# Indices 1 2 3 4 5 6 
#
# 1 0.007739 -0.001150 -0.002641 0.000000 0.000000 0.000000
# 2 -0.001150 0.007739 -0.002641 0.000000 0.000000 0.000000
# 3 -0.002641 -0.002641 0.009948 0.000000 0.000000 0.000000
# 4 0.000000 0.000000 0.000000 0.049502 0.000000 0.000000
# 5 0.000000 0.000000 0.000000 0.000000 0.049501 0.000000
# 6 0.000000 0.000000 0.000000 0.000000 0.000000 0.036079
#
#
# Mechanical properties :
#
#
# Convention : Reuss Voigt Hill
#
# Bulk Modulus (GPa) = 79.60041 79.77661 79.68851
# Shear Modulus (GPa) = 28.15943 32.98916 30.57429
#
# Velocity S-wave (km/s) = 3.56470 3.85831 3.71441
# Velocity P-wave (km/s) = 7.27069 7.47317 7.37263
#
# Compressibility (1/GPa) = 0.01256275
#
# Stress axis : x y z
#
# Youngs Moduli (GPa) = 129.21203 129.21134 100.52500
#
# Poissons Ratio (x) = 0.14853 0.26550
# Poissons Ratio (y) = 0.14853 0.26550
# Poissons Ratio (z) = 0.34126 0.34126
#
# Static dielectric constant tensor:
#      x y z
#    x 4.028740 0.000000 0.000000 
#    y 0.000000 4.028770 0.000000 
#    z 0.000000 0.000000 4.122200 
# 
# 
# High freq. dielectric constant tensor:
#      x y z
#    x 1.869960 0.000000 0.000000 
#    y 0.000000 1.869960 0.000000 
#    z 0.000000 0.000000 1.873810 
# 
# From -- ./inp_files/1257.got.cif
#   From: 2010.03.12/outbox.cif.g09.slc.cpg/sg92_1_cif.got.tgz:1257.got - 2010.04.08 20:41:11.
