data_PCOD8305674
_publ_section_title
;
Structure prediction by ZEFSAII (Michael W. Deem and Ramdas Pophale) SiO2 
 PCOD8305674
Probable space group: P 42 21 2
;
_chemical_formula_sum "Si O2"
_cell_formula_units_Z 60
_cell_length_a 11.954611
_cell_length_b 11.954611
_cell_length_c 19.352100
_cell_angle_alpha 90.000000
_cell_angle_beta 90.000000
_cell_angle_gamma 90.000000
_cell_volume 2765.661329
_symmetry_space_group_name_H-M "P 42 21 2"
_symmetry_group_IT_number 94
_symmetry_cell_setting 'tetragonal'
loop_
_space_group_symop_operation_xyz
x,y,z
1/2-y,1/2+x,1/2+z
-x,-y,z
1/2+y,1/2-x,1/2+z
1/2+x,1/2-y,1/2-z
1/2-x,1/2+y,1/2-z
y,x,-z
-y,-x,-z
loop_
_atom_site_type_symbol
_atom_site_label
_atom_site_fract_x
_atom_site_fract_y
_atom_site_fract_z
Si Si1 0.242983 0.955918 0.261662
Si Si2 0.731471 0.870117 0.948573
Si Si3 0.960385 0.183986 0.294755
Si Si4 0.000000 0.000000 0.397848
Si Si5 0.105927 0.572281 0.842559
Si Si6 0.889661 0.574616 0.492921
Si Si7 0.501691 0.752603 0.913387
Si Si8 0.417725 0.596045 0.331183
O O1 0.168865 0.850204 0.286831
O O2 0.349661 0.902228 0.224477
O O3 0.267540 0.026888 0.331593
O O4 0.185882 0.037705 0.206922
O O5 0.618452 0.815997 0.921304
O O6 0.825948 0.875525 0.891101
O O7 0.711041 0.994504 0.980692
O O8 0.779896 0.779896 0.000000
O O9 0.023550 0.103497 0.347945
O O10 0.975350 0.304719 0.327460
O O11 0.017390 0.176787 0.220723
O O12 0.879913 0.010414 0.438598
O O13 0.000000 0.500000 0.855141
O O14 0.123605 0.637464 0.915785
O O15 0.000000 0.500000 0.492931
O O16 0.906455 0.683014 0.542592
O O17 0.500000 0.500000 0.360292
#
# Coordination Sequence:
#
# PCOD8305674 Si02
#       8
#     8   8   8   4   8   8   8   8
#     4  10  21  39  67  96 124 166 222 276 337 403
#     4  11  23  40  67  97 131 183 222 266 349 419
#     4  10  20  42  63  93 129 162 211 277 337 389
#     4  10  20  42  67  94 125 164 226 276 340 400
#     4  11  24  40  64  96 129 175 220 276 339 407
#     4   9  22  43  61  94 143 172 222 282 336 418
#     4  10  21  41  67  96 132 175 225 288 336 407
#     4  10  20  41  67  93 130 169 211 278 335 402
#
# _framework density 21.694631000000001
#
# number of rings (size 3 to 8) (size 9 to 14) (size 15 to 20)
#    0.000    1.867    3.333    1.600    0.000   12.533 
#    4.800    3.000    0.000    0.000    0.000    0.000 
#    0.000    0.000    0.000    0.000    0.000    0.000 
#
# Total GULP energy -743520.257816 kJ/mol
# GULP energy per Si atom -12392.004297 kJ/mol
# Density = 2.164525 g / cm^3
# Si number density = 21.694631 Si / 1000 Ang^3
#
#
#
# Elastic Constant Matrix: (Units=GPa)
#
#
# Indices 1 2 3 4 5 6 
#
# 1 84.9746 15.1485 36.4603 0.0000 0.0000 0.0000
# 2 15.1485 84.9746 36.4603 0.0000 0.0000 0.0000
# 3 36.4603 36.4603 83.6230 0.0000 0.0000 0.0000
# 4 0.0000 0.0000 0.0000 16.2336 0.0000 0.0000
# 5 0.0000 0.0000 0.0000 0.0000 16.2336 0.0000
# 6 0.0000 0.0000 0.0000 0.0000 0.0000 24.7329
#
#
#
# Elastic Compliance Matrix: (Units=1/GPa)
#
#
# Indices 1 2 3 4 5 6 
#
# 1 0.014478 0.000157 -0.006381 0.000000 0.000000 0.000000
# 2 0.000157 0.014478 -0.006381 0.000000 0.000000 0.000000
# 3 -0.006381 -0.006381 0.017523 0.000000 0.000000 0.000000
# 4 0.000000 0.000000 0.000000 0.061601 0.000000 0.000000
# 5 0.000000 0.000000 0.000000 0.000000 0.061601 0.000000
# 6 0.000000 0.000000 0.000000 0.000000 0.000000 0.040432
#
#
# Mechanical properties :
#
#
# Convention : Reuss Voigt Hill
#
# Bulk Modulus (GPa) = 47.01708 47.74560 47.38134
# Shear Modulus (GPa) = 20.62603 22.47356 21.54980
#
# Velocity S-wave (km/s) = 3.08676 3.22204 3.15512
# Velocity P-wave (km/s) = 5.86714 5.99148 5.92964
#
# Compressibility (1/GPa) = 0.02126887
#
# Stress axis : x y z
#
# Youngs Moduli (GPa) = 69.06951 69.06951 57.06865
#
# Poissons Ratio (x) = -0.01083 0.36415
# Poissons Ratio (y) = -0.01083 0.36415
# Poissons Ratio (z) = 0.44073 0.44073
#
# Static dielectric constant tensor:
#      x y z
#    x 3.949890 0.000000 0.000000 
#    y 0.000000 3.949890 0.000000 
#    z 0.000000 0.000000 4.221170 
# 
# 
# High freq. dielectric constant tensor:
#      x y z
#    x 1.844860 0.000000 0.000000 
#    y 0.000000 1.844860 0.000000 
#    z 0.000000 0.000000 1.859600 
# 
# From -- ./inp_files/4814.got.cif
#   From: 2010.03.12/outbox.cif.g09.slc.cpg/sg94_3_cif.got.tgz:4814.got - 2010.04.08 20:48:32.
