data_PCOD8305838
_publ_section_title
;
Structure prediction by ZEFSAII (Michael W. Deem and Ramdas Pophale) SiO2 
 PCOD8305838
Probable space group: P 43 2 2
;
_chemical_formula_sum "Si O2"
_cell_formula_units_Z 56
_cell_length_a 14.993518
_cell_length_b 14.993518
_cell_length_c 12.284822
_cell_angle_alpha 90.000000
_cell_angle_beta 90.000000
_cell_angle_gamma 90.000000
_cell_volume 2761.696560
_symmetry_space_group_name_H-M "P 43 2 2"
_symmetry_group_IT_number 95
_symmetry_cell_setting 'tetragonal'
loop_
_space_group_symop_operation_xyz
x,y,z
-y,x,3/4+z
-x,-y,1/2+z
y,-x,1/4+z
x,-y,1/2-z
-x,y,-z
y,x,1/4-z
-y,-x,3/4-z
loop_
_atom_site_type_symbol
_atom_site_label
_atom_site_fract_x
_atom_site_fract_y
_atom_site_fract_z
Si Si1 0.435521 0.179171 0.091904
Si Si2 0.655727 0.580892 0.322711
Si Si3 0.079508 0.315897 0.870668
Si Si4 0.488217 0.091119 0.698625
Si Si5 0.353400 0.525611 0.432337
Si Si6 0.802957 0.335007 0.318046
Si Si7 0.743424 0.115423 0.848378
O O1 0.473543 0.152232 0.207898
O O2 0.435343 0.285955 0.092785
O O3 0.333658 0.151435 0.070901
O O4 0.500000 0.138520 0.000000
O O5 0.617999 0.500000 0.250000
O O6 0.669566 0.560481 0.448369
O O7 0.581075 0.656920 0.310923
O O8 0.748679 0.610430 0.272190
O O9 0.064422 0.424844 0.873146
O O10 0.122775 0.285868 0.755860
O O11 0.989910 0.257073 0.880376
O O12 0.138562 0.284285 0.973853
O O13 0.407563 0.147599 0.644342
O O14 0.448228 0.000000 0.750000
O O15 0.448010 0.551991 0.375000
O O16 0.739051 0.260950 0.375000
O O17 0.838342 0.161659 0.875000
#
# Coordination Sequence:
#
# PCOD8305838 Si02
#       7
#     8   8   8   8   8   8   8
#     4  11  22  35  56  91 127 161 219 271 338 401
#     4  12  22  38  57  81 121 176 235 270 327 395
#     4  10  21  43  66  95 132 168 228 272 348 415
#     4  11  22  41  67  95 130 179 229 283 342 413
#     4  12  24  37  55  84 127 181 228 286 324 387
#     4  12  26  41  65  97 133 180 220 276 347 416
#     4  10  21  39  66  95 124 168 219 282 347 411
#
# _framework density 20.277391000000001
#
# number of rings (size 3 to 8) (size 9 to 14) (size 15 to 20)
#    0.000    0.857    2.857    8.571    2.000    2.286 
#    0.000    0.000    0.000    3.429    0.000    0.000 
#    0.000    0.000    0.000    0.000    0.000    0.000 
#
# Total GULP energy -693894.194813 kJ/mol
# GULP energy per Si atom -12390.967765 kJ/mol
# Density = 2.023124 g / cm^3
# Si number density = 20.277391 Si / 1000 Ang^3
#
#
#
# Elastic Constant Matrix: (Units=GPa)
#
#
# Indices 1 2 3 4 5 6 
#
# 1 94.1877 42.7168 35.0299 0.0000 0.0000 0.0000
# 2 42.7168 94.1880 35.0292 0.0000 0.0000 0.0000
# 3 35.0299 35.0292 89.3321 0.0000 0.0000 0.0000
# 4 0.0000 0.0000 0.0000 26.2763 0.0000 0.0000
# 5 0.0000 0.0000 0.0000 0.0000 26.2760 0.0000
# 6 0.0000 0.0000 0.0000 0.0000 0.0000 37.1507
#
#
#
# Elastic Compliance Matrix: (Units=1/GPa)
#
#
# Indices 1 2 3 4 5 6 
#
# 1 0.014283 -0.005145 -0.003583 0.000000 0.000000 0.000000
# 2 -0.005145 0.014283 -0.003583 0.000000 0.000000 0.000000
# 3 -0.003583 -0.003583 0.014004 0.000000 0.000000 0.000000
# 4 0.000000 0.000000 0.000000 0.038057 0.000000 0.000000
# 5 0.000000 0.000000 0.000000 0.000000 0.038058 0.000000
# 6 0.000000 0.000000 0.000000 0.000000 0.000000 0.026917
#
#
# Mechanical properties :
#
#
# Convention : Reuss Voigt Hill
#
# Bulk Modulus (GPa) = 55.71848 55.91775 55.81812
# Shear Modulus (GPa) = 28.37542 28.93605 28.65574
#
# Velocity S-wave (km/s) = 3.74486 3.78168 3.76332
# Velocity P-wave (km/s) = 6.79974 6.83406 6.81692
#
# Compressibility (1/GPa) = 0.01794737
#
# Stress axis : x y z
#
# Youngs Moduli (GPa) = 70.01181 70.01262 71.40625
#
# Poissons Ratio (x) = 0.36023 0.25588
# Poissons Ratio (y) = 0.36022 0.25586
# Poissons Ratio (z) = 0.25088 0.25087
#
# Static dielectric constant tensor:
#      x y z
#    x 3.649710 0.000000 0.000000 
#    y 0.000000 3.649700 0.000000 
#    z 0.000000 0.000000 3.716370 
# 
# 
# High freq. dielectric constant tensor:
#      x y z
#    x 1.776990 0.000000 0.000000 
#    y 0.000000 1.776990 0.000000 
#    z 0.000000 0.000000 1.798540 
# 
# From -- ./inp_files/3981.got.cif
#   From: 2010.03.12/outbox.cif.g09.slc.cpg/sg95_2_cif.got.tgz:3981.got - 2010.04.08 20:51:55.
