data_PCOD8305489
_publ_section_title
;
Structure prediction by ZEFSAII (Michael W. Deem and Ramdas Pophale) SiO2 
 PCOD8305489
Probable space group: P 41 21 2
;
_chemical_formula_sum "Si O2"
_cell_formula_units_Z 60
_cell_length_a 11.054925
_cell_length_b 11.054925
_cell_length_c 22.181563
_cell_angle_alpha 90.000000
_cell_angle_beta 90.000000
_cell_angle_gamma 90.000000
_cell_volume 2710.839131
_symmetry_space_group_name_H-M "P 41 21 2"
_symmetry_group_IT_number 92
_symmetry_cell_setting 'tetragonal'
loop_
_space_group_symop_operation_xyz
x,y,z
1/2-y,1/2+x,1/4+z
-x,-y,1/2+z
1/2+y,1/2-x,3/4+z
1/2+x,1/2-y,3/4-z
1/2-x,1/2+y,1/4-z
y,x,-z
-y,-x,1/2-z
loop_
_atom_site_type_symbol
_atom_site_label
_atom_site_fract_x
_atom_site_fract_y
_atom_site_fract_z
Si Si1 0.662147 0.275903 0.440513
Si Si2 0.052062 0.392653 0.405774
Si Si3 0.043183 0.779489 0.722247
Si Si4 0.032592 0.032592 0.000000
Si Si5 0.115449 0.067211 0.127953
Si Si6 0.607163 0.883886 0.635647
Si Si7 0.944602 0.166174 0.687860
Si Si8 0.759497 0.097230 0.004726
O O1 0.646080 0.188978 0.382968
O O2 0.531314 0.279135 0.467490
O O3 0.700386 0.414955 0.432210
O O4 0.759691 0.219738 0.486250
O O5 0.139774 0.443368 0.456766
O O6 0.992154 0.510126 0.373537
O O7 0.950125 0.308431 0.435219
O O8 0.165711 0.834290 0.750000
O O9 0.973295 0.852727 0.669592
O O10 0.042233 0.889944 0.000534
O O11 0.098514 0.092815 0.942120
O O12 0.256081 0.071928 0.146780
O O13 0.081010 0.927383 0.134695
O O14 0.617920 0.794155 0.577810
O O15 0.563540 0.815598 0.695449
O O16 0.894021 0.105980 0.750000
#
# Coordination Sequence:
#
# PCOD8305489 Si02
#       8
#     8   8   8   4   8   8   8   8
#     4  12  24  49  75 103 146 191 251 302 360 452
#     4  12  30  43  76 112 148 190 246 310 382 441
#     4  12  26  48  75 108 145 195 245 298 369 448
#     4  12  28  44  74 108 146 192 254 308 380 436
#     4  12  25  49  73 106 143 196 246 304 371 451
#     4  12  28  48  72 109 154 191 250 311 379 447
#     4  12  23  49  78 100 140 199 245 295 372 445
#     4  12  26  50  72 106 149 193 245 316 372 448
#
# _framework density 22.133369999999999
#
# number of rings (size 3 to 8) (size 9 to 14) (size 15 to 20)
#    0.000    0.000    6.667    2.400    7.467    0.000 
#    2.400    0.000    0.000    0.000    0.000    0.000 
#    0.000    0.000    0.000    0.000    0.000    0.000 
#
# Total GULP energy -743659.731623 kJ/mol
# GULP energy per Si atom -12394.328860 kJ/mol
# Density = 2.208299 g / cm^3
# Si number density = 22.133370 Si / 1000 Ang^3
#
#
#
# Elastic Constant Matrix: (Units=GPa)
#
#
# Indices 1 2 3 4 5 6 
#
# 1 97.9129 9.4157 18.3696 0.0000 0.0000 0.0000
# 2 9.4157 97.9175 18.3709 0.0000 0.0000 0.0000
# 3 18.3696 18.3709 78.5436 0.0000 0.0000 0.0000
# 4 0.0000 0.0000 0.0000 -12.3602 0.0000 0.0000
# 5 0.0000 0.0000 0.0000 0.0000 -12.3512 0.0000
# 6 0.0000 0.0000 0.0000 0.0000 0.0000 35.7012
#
#
#
# Elastic Compliance Matrix: (Units=1/GPa)
#
#
# Indices 1 2 3 4 5 6 
#
# 1 0.010714 -0.000586 -0.002369 0.000000 0.000000 0.000000
# 2 -0.000586 0.010713 -0.002369 0.000000 0.000000 0.000000
# 3 -0.002369 -0.002369 0.013840 0.000000 0.000000 0.000000
# 4 0.000000 0.000000 0.000000 -0.080905 0.000000 0.000000
# 5 0.000000 0.000000 0.000000 0.000000 -0.080964 0.000000
# 6 0.000000 0.000000 0.000000 0.000000 0.000000 0.028010
#
#
# Mechanical properties :
#
#
# Convention : Reuss Voigt Hill
#
# Bulk Modulus (GPa) = 40.61664 40.74294 40.67979
# Shear Modulus (GPa) = -62.70542 17.41249 -22.64646
#
# Velocity S-wave (km/s) = -5.32843 2.80787 -3.20219
# Velocity P-wave (km/s) = 4.41198 5.38146 2.17882
#
# Compressibility (1/GPa) = 0.02462045
#
# Stress axis : x y z
#
# Youngs Moduli (GPa) = 93.33677 93.34073 72.25530
#
# Poissons Ratio (x) = 0.05468 0.17115
# Poissons Ratio (y) = 0.05468 0.17116
# Poissons Ratio (z) = 0.22109 0.22111
#
# Static dielectric constant tensor:
#      x y z
#    x 4.416920 0.000000 0.000000 
#    y 0.000000 4.416810 0.000000 
#    z 0.000000 0.000000 3.606020 
# 
# 
# High freq. dielectric constant tensor:
#      x y z
#    x 1.880330 0.000000 0.000000 
#    y 0.000000 1.880330 0.000000 
#    z 0.000000 0.000000 1.876500 
# 
# From -- ./inp_files/3631.got.cif
#   From: 2010.03.12/outbox.cif.g09.slc.cpg/sg92_2_cif.got.tgz:3631.got - 2010.04.08 20:41:11.
