data_PCOD8305984
_publ_section_title
;
Structure prediction by ZEFSAII (Michael W. Deem and Ramdas Pophale) SiO2 
 PCOD8305984
Probable space group: P 43 21 2
;
_chemical_formula_sum "Si O2"
_cell_formula_units_Z 48
_cell_length_a 14.184803
_cell_length_b 14.184803
_cell_length_c 11.481452
_cell_angle_alpha 90.000000
_cell_angle_beta 90.000000
_cell_angle_gamma 90.000000
_cell_volume 2310.167298
_symmetry_space_group_name_H-M "P 43 21 2"
_symmetry_group_IT_number 96
_symmetry_cell_setting 'tetragonal'
loop_
_space_group_symop_operation_xyz
x,y,z
1/2-y,1/2+x,3/4+z
-x,-y,1/2+z
1/2+y,1/2-x,1/4+z
1/2+x,1/2-y,1/4-z
1/2-x,1/2+y,3/4-z
y,x,-z
-y,-x,1/2-z
loop_
_atom_site_type_symbol
_atom_site_label
_atom_site_fract_x
_atom_site_fract_y
_atom_site_fract_z
Si Si1 0.696951 0.997366 0.477752
Si Si2 0.651192 0.065220 0.127903
Si Si3 0.430102 0.817906 0.981606
Si Si4 0.892898 0.353104 0.620490
Si Si5 0.528727 0.679032 0.524194
Si Si6 0.340668 0.678584 0.378032
O O1 0.645794 0.926541 0.389455
O O2 0.716478 0.943135 0.598702
O O3 0.628311 0.086170 0.493298
O O4 0.796106 0.021724 0.412834
O O5 0.735340 0.086926 0.217069
O O6 0.604083 0.964828 0.151107
O O7 0.694361 0.068562 0.997896
O O8 0.537242 0.828094 0.025299
O O9 0.374740 0.743859 0.059737
O O10 0.788214 0.314839 0.646241
O O11 0.581972 0.581972 0.500000
O O12 0.428218 0.668789 0.463554
O O13 0.364026 0.635975 0.250000
#
# Coordination Sequence:
#
# PCOD8305984 Si02
#       6
#     8   8   8   8   8   8
#     4  12  22  39  68 106 138 168 219 301 360 402
#     4  11  19  39  67  96 133 172 218 272 353 402
#     4  12  24  40  69 108 140 171 238 292 344 418
#     4  11  22  39  68  96 134 178 222 283 338 402
#     4  11  26  45  67  95 135 184 226 278 350 420
#     4  11  25  48  65  93 137 191 235 279 340 418
#
# _framework density 20.777716999999999
#
# number of rings (size 3 to 8) (size 9 to 14) (size 15 to 20)
#    0.000    0.667    5.000    6.000    2.333    0.667 
#    3.000    0.833    0.000    0.000    0.000    0.000 
#    0.000    0.000    0.000    0.000    0.000    0.000 
#
# Total GULP energy -595204.964243 kJ/mol
# GULP energy per Si atom -12400.103422 kJ/mol
# Density = 2.073043 g / cm^3
# Si number density = 20.777717 Si / 1000 Ang^3
#
#
#
# Elastic Constant Matrix: (Units=GPa)
#
#
# Indices 1 2 3 4 5 6 
#
# 1 51.2923 25.6880 28.7117 0.0000 0.0000 0.0000
# 2 25.6880 51.2930 28.7121 0.0000 0.0000 0.0000
# 3 28.7117 28.7121 139.6116 0.0000 0.0000 0.0000
# 4 0.0000 0.0000 0.0000 29.3973 0.0000 0.0000
# 5 0.0000 0.0000 0.0000 0.0000 29.3973 0.0000
# 6 0.0000 0.0000 0.0000 0.0000 0.0000 33.5524
#
#
#
# Elastic Compliance Matrix: (Units=1/GPa)
#
#
# Indices 1 2 3 4 5 6 
#
# 1 0.027200 -0.011856 -0.003156 0.000000 0.000000 0.000000
# 2 -0.011856 0.027200 -0.003156 0.000000 0.000000 0.000000
# 3 -0.003156 -0.003156 0.008461 0.000000 0.000000 0.000000
# 4 0.000000 0.000000 0.000000 0.034017 0.000000 0.000000
# 5 0.000000 0.000000 0.000000 0.000000 0.034017 0.000000
# 6 0.000000 0.000000 0.000000 0.000000 0.000000 0.029804
#
#
# Mechanical properties :
#
#
# Convention : Reuss Voigt Hill
#
# Bulk Modulus (GPa) = 37.69800 45.38007 41.53903
# Shear Modulus (GPa) = 24.28671 29.07507 26.68089
#
# Velocity S-wave (km/s) = 3.42260 3.74483 3.58734
# Velocity P-wave (km/s) = 5.81393 6.37075 6.09870
#
# Compressibility (1/GPa) = 0.02652660
#
# Stress axis : x y z
#
# Youngs Moduli (GPa) = 36.76467 36.76514 118.19399
#
# Poissons Ratio (x) = 0.43587 0.37297
# Poissons Ratio (y) = 0.43587 0.37298
# Poissons Ratio (z) = 0.11601 0.11602
#
# Static dielectric constant tensor:
#      x y z
#    x 3.678510 0.000000 0.000000 
#    y 0.000000 3.678510 0.000000 
#    z 0.000000 0.000000 4.153780 
# 
# 
# High freq. dielectric constant tensor:
#      x y z
#    x 1.797580 0.000000 0.000000 
#    y 0.000000 1.797580 0.000000 
#    z 0.000000 0.000000 1.838640 
# 
# From -- ./inp_files/2177.got.cif
#   From: 2010.03.12/outbox.cif.g09.slc.cpg/sg96_2_cif.got.tgz:2177.got - 2010.04.08 20:56:49.
