data_PCOD8305650
_publ_section_title
;
Structure prediction by ZEFSAII (Michael W. Deem and Ramdas Pophale) SiO2 
 PCOD8305650
Probable space group: P 42 21 2
;
_chemical_formula_sum "Si O2"
_cell_formula_units_Z 34
_cell_length_a 7.536242
_cell_length_b 7.536242
_cell_length_c 27.509023
_cell_angle_alpha 90.000000
_cell_angle_beta 90.000000
_cell_angle_gamma 90.000000
_cell_volume 1562.373407
_symmetry_space_group_name_H-M "P 42 21 2"
_symmetry_group_IT_number 94
_symmetry_cell_setting 'tetragonal'
loop_
_space_group_symop_operation_xyz
x,y,z
1/2-y,1/2+x,1/2+z
-x,-y,z
1/2+y,1/2-x,1/2+z
1/2+x,1/2-y,1/2-z
1/2-x,1/2+y,1/2-z
y,x,-z
-y,-x,-z
loop_
_atom_site_type_symbol
_atom_site_label
_atom_site_fract_x
_atom_site_fract_y
_atom_site_fract_z
Si Si1 0.812567 0.300198 0.297200
Si Si2 0.726304 0.185335 0.190965
Si Si3 0.289730 0.496127 0.129077
Si Si4 0.500000 0.500000 0.500000
Si Si5 0.874368 0.647548 0.031269
O O1 0.797535 0.272531 0.239979
O O2 0.708370 0.480873 0.313226
O O3 0.734490 0.136453 0.327391
O O4 0.016263 0.317279 0.309320
O O5 0.782775 0.309285 0.145315
O O6 0.500000 0.500000 0.118834
O O7 0.184228 0.432949 0.082218
O O8 0.673128 0.494041 0.535257
O O9 0.000000 0.500000 0.005085
O O10 0.697247 0.697247 0.000000
#
# Coordination Sequence:
#
# PCOD8305650 Si02
#       5
#     8   8   8   2   8
#     4  10  20  35  56  88 133 180 217 282 325 389
#     4  10  20  35  57  88 132 173 232 269 327 400
#     4  10  22  39  62  99 125 176 237 273 343 422
#     4   8  24  48  68 108 144 156 238 290 352 448
#     4  10  24  48  74 100 139 174 225 297 361 421
#
# _framework density 21.761762999999998
#
# number of rings (size 3 to 8) (size 9 to 14) (size 15 to 20)
#    0.706    1.412    2.353    0.000    0.000    6.118 
#    8.471    0.000    0.000    0.000    0.000    0.000 
#    0.000    0.000    0.000    0.000    0.000    0.000 
#
# Total GULP energy -421225.085483 kJ/mol
# GULP energy per Si atom -12388.973102 kJ/mol
# Density = 2.171223 g / cm^3
# Si number density = 21.761763 Si / 1000 Ang^3
#
#
#
# Elastic Constant Matrix: (Units=GPa)
#
#
# Indices 1 2 3 4 5 6 
#
# 1 112.6638 37.2781 39.3024 0.0000 0.0000 0.0000
# 2 37.2781 112.6638 39.3024 0.0000 0.0000 0.0000
# 3 39.3024 39.3024 102.8151 0.0000 0.0000 0.0000
# 4 0.0000 0.0000 0.0000 29.7361 0.0000 0.0000
# 5 0.0000 0.0000 0.0000 0.0000 29.7361 0.0000
# 6 0.0000 0.0000 0.0000 0.0000 0.0000 36.9344
#
#
#
# Elastic Compliance Matrix: (Units=1/GPa)
#
#
# Indices 1 2 3 4 5 6 
#
# 1 0.010803 -0.002462 -0.003188 0.000000 0.000000 0.000000
# 2 -0.002462 0.010803 -0.003188 0.000000 0.000000 0.000000
# 3 -0.003188 -0.003188 0.012164 0.000000 0.000000 0.000000
# 4 0.000000 0.000000 0.000000 0.033629 0.000000 0.000000
# 5 0.000000 0.000000 0.000000 0.000000 0.033629 0.000000
# 6 0.000000 0.000000 0.000000 0.000000 0.000000 0.027075
#
#
# Mechanical properties :
#
#
# Convention : Reuss Voigt Hill
#
# Bulk Modulus (GPa) = 62.14344 62.21203 62.17774
# Shear Modulus (GPa) = 33.08089 33.43197 33.25643
#
# Velocity S-wave (km/s) = 3.90312 3.92378 3.91347
# Velocity P-wave (km/s) = 6.99505 7.01270 7.00388
#
# Compressibility (1/GPa) = 0.01609180
#
# Stress axis : x y z
#
# Youngs Moduli (GPa) = 92.56779 92.56779 82.21140
#
# Poissons Ratio (x) = 0.22792 0.26212
# Poissons Ratio (y) = 0.22792 0.26212
# Poissons Ratio (z) = 0.29514 0.29514
#
# Static dielectric constant tensor:
#      x y z
#    x 4.301390 0.000000 0.000000 
#    y 0.000000 4.301390 0.000000 
#    z 0.000000 0.000000 3.462010 
# 
# 
# High freq. dielectric constant tensor:
#      x y z
#    x 1.862740 0.000000 0.000000 
#    y 0.000000 1.862740 0.000000 
#    z 0.000000 0.000000 1.823920 
# 
# From -- ./inp_files/5427.got.cif
#   From: 2010.03.12/outbox.cif.g09.slc.cpg/sg94_3_cif.got.tgz:5427.got - 2010.04.08 20:48:32.
