data_PCOD8305839
_publ_section_title
;
Structure prediction by ZEFSAII (Michael W. Deem and Ramdas Pophale) SiO2 
 PCOD8305839
Probable space group: P 43 2 2
;
_chemical_formula_sum "Si O2"
_cell_formula_units_Z 48
_cell_length_a 8.422393
_cell_length_b 8.422393
_cell_length_c 32.247156
_cell_angle_alpha 90.000000
_cell_angle_beta 90.000000
_cell_angle_gamma 90.000000
_cell_volume 2287.506955
_symmetry_space_group_name_H-M "P 43 2 2"
_symmetry_group_IT_number 95
_symmetry_cell_setting 'tetragonal'
loop_
_space_group_symop_operation_xyz
x,y,z
-y,x,3/4+z
-x,-y,1/2+z
y,-x,1/4+z
x,-y,1/2-z
-x,y,-z
y,x,1/4-z
-y,-x,3/4-z
loop_
_atom_site_type_symbol
_atom_site_label
_atom_site_fract_x
_atom_site_fract_y
_atom_site_fract_z
Si Si1 0.455729 0.599425 0.583200
Si Si2 0.138049 0.260579 0.762985
Si Si3 0.590997 0.500000 0.250000
Si Si4 0.581469 0.184257 0.358645
Si Si5 0.421514 0.052203 0.082019
Si Si6 0.909959 0.909959 0.625000
Si Si7 0.051989 0.878783 0.939661
O O1 0.551495 0.551495 0.625000
O O2 0.517076 0.510365 0.541957
O O3 0.261893 0.572444 0.585655
O O4 0.487261 0.784548 0.575664
O O5 0.299179 0.344635 0.748874
O O6 0.059886 0.184921 0.721833
O O7 0.015710 0.377300 0.786512
O O8 0.181459 0.114118 0.792205
O O9 0.650761 0.349240 0.375000
O O10 0.716885 0.102747 0.332125
O O11 0.540012 0.071107 0.396633
O O12 0.272090 0.066219 0.112792
O O13 0.963995 0.025962 0.662175
#
# Coordination Sequence:
#
# PCOD8305839 Si02
#       7
#     8   8   4   8   8   4   8
#     4  11  25  45  67 102 144 182 232 291 357 414
#     4  10  23  41  66  99 137 179 218 291 341 417
#     4  12  24  46  70 104 144 182 232 286 356 422
#     4  11  23  41  68  99 128 183 233 275 340 425
#     4  11  25  43  70  99 138 180 231 293 352 415
#     4  10  22  42  68 100 132 182 228 288 342 414
#     4  10  21  41  67  97 135 175 233 276 345 416
#
# _framework density 20.983543000000001
#
# number of rings (size 3 to 8) (size 9 to 14) (size 15 to 20)
#    0.000    1.333    3.333    2.000    7.000    0.667 
#    3.000    0.000    0.000    0.000    0.000    0.000 
#    0.000    0.000    0.000    0.000    0.000    0.000 
#
# Total GULP energy -594745.410583 kJ/mol
# GULP energy per Si atom -12390.529387 kJ/mol
# Density = 2.093578 g / cm^3
# Si number density = 20.983543 Si / 1000 Ang^3
#
#
#
# Elastic Constant Matrix: (Units=GPa)
#
#
# Indices 1 2 3 4 5 6 
#
# 1 92.8977 49.3751 36.1385 0.0000 0.0000 0.0000
# 2 49.3751 92.8971 36.1387 0.0000 0.0000 0.0000
# 3 36.1385 36.1387 108.9639 0.0000 0.0000 0.0000
# 4 0.0000 0.0000 0.0000 27.2000 0.0000 0.0000
# 5 0.0000 0.0000 0.0000 0.0000 27.2005 0.0000
# 6 0.0000 0.0000 0.0000 0.0000 0.0000 39.4400
#
#
#
# Elastic Compliance Matrix: (Units=1/GPa)
#
#
# Indices 1 2 3 4 5 6 
#
# 1 0.015715 -0.007262 -0.002803 0.000000 0.000000 0.000000
# 2 -0.007262 0.015715 -0.002804 0.000000 0.000000 0.000000
# 3 -0.002803 -0.002804 0.011037 0.000000 0.000000 0.000000
# 4 0.000000 0.000000 0.000000 0.036765 0.000000 0.000000
# 5 0.000000 0.000000 0.000000 0.000000 0.036764 0.000000
# 6 0.000000 0.000000 0.000000 0.000000 0.000000 0.025355
#
#
# Mechanical properties :
#
#
# Convention : Reuss Voigt Hill
#
# Bulk Modulus (GPa) = 59.77657 59.78482 59.78069
# Shear Modulus (GPa) = 28.95791 30.30853 29.63322
#
# Velocity S-wave (km/s) = 3.71891 3.80464 3.76202
# Velocity P-wave (km/s) = 6.85489 6.91763 6.88633
#
# Compressibility (1/GPa) = 0.01672896
#
# Stress axis : x y z
#
# Youngs Moduli (GPa) = 63.63432 63.63370 90.60477
#
# Poissons Ratio (x) = 0.46210 0.25401
# Poissons Ratio (y) = 0.46210 0.25401
# Poissons Ratio (z) = 0.17840 0.17840
#
# Static dielectric constant tensor:
#      x y z
#    x 4.045260 0.000000 0.000000 
#    y 0.000000 4.045270 0.000000 
#    z 0.000000 0.000000 3.888530 
# 
# 
# High freq. dielectric constant tensor:
#      x y z
#    x 1.824370 0.000000 0.000000 
#    y 0.000000 1.824370 0.000000 
#    z 0.000000 0.000000 1.832830 
# 
# From -- ./inp_files/8018.got.cif
#   From: 2010.03.12/outbox.cif.g09.slc.cpg/sg95_5_cif.got.tgz:8018.got - 2010.04.08 20:51:55.
