data_PCOD8305505
_publ_section_title
;
Structure prediction by ZEFSAII (Michael W. Deem and Ramdas Pophale) SiO2 
 PCOD8305505
Probable space group: P 41 21 2
;
_chemical_formula_sum "Si O2"
_cell_formula_units_Z 20
_cell_length_a 11.944113
_cell_length_b 11.944113
_cell_length_c 5.099361
_cell_angle_alpha 90.000000
_cell_angle_beta 90.000000
_cell_angle_gamma 90.000000
_cell_volume 727.484199
_symmetry_space_group_name_H-M "P 41 21 2"
_symmetry_group_IT_number 92
_symmetry_cell_setting 'tetragonal'
loop_
_space_group_symop_operation_xyz
x,y,z
1/2-y,1/2+x,1/4+z
-x,-y,1/2+z
1/2+y,1/2-x,3/4+z
1/2+x,1/2-y,3/4-z
1/2-x,1/2+y,1/4-z
y,x,-z
-y,-x,1/2-z
loop_
_atom_site_type_symbol
_atom_site_label
_atom_site_fract_x
_atom_site_fract_y
_atom_site_fract_z
Si Si1 0.634822 0.634822 0.000000
Si Si2 0.395787 0.135078 0.301832
Si Si3 0.072799 0.072799 0.500000
Si Si4 0.681233 0.318768 0.750000
O O1 0.614937 0.768455 0.025368
O O2 0.562657 0.591509 0.745569
O O3 0.364860 0.019854 0.438879
O O4 0.312153 0.160932 0.060568
O O5 0.142538 0.111874 0.749171
#
# Coordination Sequence:
#
# PCOD8305505 Si02
#       4
#     4   8   4   4
#     4  12  29  59  89 139 182 252 308 388 467 575
#     4  12  31  54  93 141 192 247 317 397 484 562
#     4  12  28  56  94 127 183 242 312 374 458 568
#     4  12  29  57  85 136 177 252 294 388 457 573
#
# _framework density 27.492004000000001
#
# number of rings (size 3 to 8) (size 9 to 14) (size 15 to 20)
#    0.000    0.000    4.000    2.400   11.200    1.600 
#    0.000    0.000    0.000    0.000    0.000    0.000 
#    0.000    0.000    0.000    0.000    0.000    0.000 
#
# Total GULP energy -247862.672897 kJ/mol
# GULP energy per Si atom -12393.133645 kJ/mol
# Density = 2.742943 g / cm^3
# Si number density = 27.492004 Si / 1000 Ang^3
#
#
#
# Elastic Constant Matrix: (Units=GPa)
#
#
# Indices 1 2 3 4 5 6 
#
# 1 247.8168 128.0842 86.6866 0.0000 0.0000 0.0000
# 2 128.0842 247.8130 86.6866 0.0000 0.0000 0.0000
# 3 86.6866 86.6866 124.9901 0.0000 0.0000 0.0000
# 4 0.0000 0.0000 0.0000 35.4817 0.0000 0.0000
# 5 0.0000 0.0000 0.0000 0.0000 35.4831 0.0000
# 6 0.0000 0.0000 0.0000 0.0000 0.0000 50.8828
#
#
#
# Elastic Compliance Matrix: (Units=1/GPa)
#
#
# Indices 1 2 3 4 5 6 
#
# 1 0.006132 -0.002220 -0.002713 0.000000 0.000000 0.000000
# 2 -0.002220 0.006132 -0.002713 0.000000 0.000000 0.000000
# 3 -0.002713 -0.002713 0.011764 0.000000 0.000000 0.000000
# 4 0.000000 0.000000 0.000000 0.028184 0.000000 0.000000
# 5 0.000000 0.000000 0.000000 0.000000 0.028182 0.000000
# 6 0.000000 0.000000 0.000000 0.000000 0.000000 0.019653
#
#
# Mechanical properties :
#
#
# Convention : Reuss Voigt Hill
#
# Bulk Modulus (GPa) = 114.47787 135.94832 125.21309
# Shear Modulus (GPa) = 42.28342 45.64702 43.96522
#
# Velocity S-wave (km/s) = 3.92602 4.07919 4.00334
# Velocity P-wave (km/s) = 7.89192 8.47018 8.18615
#
# Compressibility (1/GPa) = 0.00873531
#
# Stress axis : x y z
#
# Youngs Moduli (GPa) = 163.08614 163.08288 85.00825
#
# Poissons Ratio (x) = 0.36209 0.23061
# Poissons Ratio (y) = 0.36210 0.23062
# Poissons Ratio (z) = 0.44242 0.44242
#
# Static dielectric constant tensor:
#      x y z
#    x 6.107740 0.000000 0.000000 
#    y 0.000000 6.107840 0.000000 
#    z 0.000000 0.000000 5.668050 
# 
# 
# High freq. dielectric constant tensor:
#      x y z
#    x 2.139450 0.000000 0.000000 
#    y 0.000000 2.139450 0.000000 
#    z 0.000000 0.000000 2.086860 
# 
# From -- ./inp_files/111.got.cif
#   From: 2010.03.12/outbox.cif.g09.slc.cpg/sg92_1_cif.got.tgz:111.got - 2010.04.08 20:41:11.
