data_PCOD8305846
_publ_section_title
;
Structure prediction by ZEFSAII (Michael W. Deem and Ramdas Pophale) SiO2 
 PCOD8305846
Probable space group: P 43 2 2
;
_chemical_formula_sum "Si O2"
_cell_formula_units_Z 36
_cell_length_a 12.025441
_cell_length_b 12.025441
_cell_length_c 10.940995
_cell_angle_alpha 90.000000
_cell_angle_beta 90.000000
_cell_angle_gamma 90.000000
_cell_volume 1582.190758
_symmetry_space_group_name_H-M "P 43 2 2"
_symmetry_group_IT_number 95
_symmetry_cell_setting 'tetragonal'
loop_
_space_group_symop_operation_xyz
x,y,z
-y,x,3/4+z
-x,-y,1/2+z
y,-x,1/4+z
x,-y,1/2-z
-x,y,-z
y,x,1/4-z
-y,-x,3/4-z
loop_
_atom_site_type_symbol
_atom_site_label
_atom_site_fract_x
_atom_site_fract_y
_atom_site_fract_z
Si Si1 0.085966 0.259166 0.346966
Si Si2 0.317278 0.298857 0.766349
Si Si3 0.226940 0.553986 0.539473
Si Si4 0.042463 0.042463 0.625000
Si Si5 0.766607 0.233394 0.875000
Si Si6 0.548010 0.000000 0.250000
O O1 0.199046 0.244736 0.424854
O O2 0.119341 0.242854 0.204144
O O3 0.988899 0.172505 0.383083
O O4 0.036988 0.379551 0.381800
O O5 0.290395 0.290395 0.625000
O O6 0.279929 0.415638 0.827764
O O7 0.450744 0.286907 0.778199
O O8 0.243750 0.660978 0.459084
O O9 0.096765 0.528811 0.553336
O O10 0.000000 0.983012 0.500000
#
# Coordination Sequence:
#
# PCOD8305846 Si02
#       6
#     8   8   8   4   4   4
#     4  10  23  44  68  95 139 178 230 286 349 411
#     4  10  22  44  68 105 140 180 229 297 340 428
#     4  10  23  45  72  99 142 182 236 285 363 412
#     4  12  25  42  66  99 134 186 224 286 355 416
#     4  10  23  50  68 101 138 182 230 298 341 438
#     4  10  22  46  66 102 132 198 232 288 350 434
#
# _framework density 22.753260000000001
#
# number of rings (size 3 to 8) (size 9 to 14) (size 15 to 20)
#    0.000    1.778    1.111    1.333    1.556    8.000 
#   38.000    0.000    0.000    0.000    0.000    0.000 
#    0.000    0.000    0.000    0.000    0.000    0.000 
#
# Total GULP energy -446121.499994 kJ/mol
# GULP energy per Si atom -12392.263889 kJ/mol
# Density = 2.270147 g / cm^3
# Si number density = 22.753260 Si / 1000 Ang^3
#
#
#
# Elastic Constant Matrix: (Units=GPa)
#
#
# Indices 1 2 3 4 5 6 
#
# 1 107.1544 64.5927 37.9620 0.0000 0.0000 0.0000
# 2 64.5927 107.1557 37.9634 0.0000 0.0000 0.0000
# 3 37.9620 37.9634 141.7477 0.0000 0.0000 0.0000
# 4 0.0000 0.0000 0.0000 32.8181 0.0000 0.0000
# 5 0.0000 0.0000 0.0000 0.0000 32.8183 0.0000
# 6 0.0000 0.0000 0.0000 0.0000 0.0000 46.2780
#
#
#
# Elastic Compliance Matrix: (Units=1/GPa)
#
#
# Indices 1 2 3 4 5 6 
#
# 1 0.015050 -0.008445 -0.001769 0.000000 0.000000 0.000000
# 2 -0.008445 0.015050 -0.001769 0.000000 0.000000 0.000000
# 3 -0.001769 -0.001769 0.008002 0.000000 0.000000 0.000000
# 4 0.000000 0.000000 0.000000 0.030471 0.000000 0.000000
# 5 0.000000 0.000000 0.000000 0.000000 0.030471 0.000000
# 6 0.000000 0.000000 0.000000 0.000000 0.000000 0.021609
#
#
# Mechanical properties :
#
#
# Convention : Reuss Voigt Hill
#
# Bulk Modulus (GPa) = 70.74178 70.78822 70.76500
# Shear Modulus (GPa) = 33.48298 36.75219 35.11758
#
# Velocity S-wave (km/s) = 3.84026 4.02338 3.93289
# Velocity P-wave (km/s) = 7.12894 7.26376 7.19667
#
# Compressibility (1/GPa) = 0.01413592
#
# Stress axis : x y z
#
# Youngs Moduli (GPa) = 66.44632 66.44676 124.96536
#
# Poissons Ratio (x) = 0.56116 0.22102
# Poissons Ratio (y) = 0.56116 0.22105
# Poissons Ratio (z) = 0.11752 0.11754
#
# Static dielectric constant tensor:
#      x y z
#    x 4.191400 0.000000 0.000000 
#    y 0.000000 4.191410 0.000000 
#    z 0.000000 0.000000 4.559720 
# 
# 
# High freq. dielectric constant tensor:
#      x y z
#    x 1.893200 0.000000 0.000000 
#    y 0.000000 1.893200 0.000000 
#    z 0.000000 0.000000 1.909500 
# 
# From -- ./inp_files/3621.got.cif
#   From: 2010.03.12/outbox.cif.g09.slc.cpg/sg95_2_cif.got.tgz:3621.got - 2010.04.08 20:51:55.
