data_PCOD8305277
_publ_section_title
;
Structure prediction by ZEFSAII (Michael W. Deem and Ramdas Pophale) SiO2 
 PCOD8305277
Probable space group: P 41 21 2
;
_chemical_formula_sum "Si O2"
_cell_formula_units_Z 48
_cell_length_a 9.213619
_cell_length_b 9.213619
_cell_length_c 27.484974
_cell_angle_alpha 90.000000
_cell_angle_beta 90.000000
_cell_angle_gamma 90.000000
_cell_volume 2333.220746
_symmetry_space_group_name_H-M "P 41 21 2"
_symmetry_group_IT_number 92
_symmetry_cell_setting 'tetragonal'
loop_
_space_group_symop_operation_xyz
x,y,z
1/2-y,1/2+x,1/4+z
-x,-y,1/2+z
1/2+y,1/2-x,3/4+z
1/2+x,1/2-y,3/4-z
1/2-x,1/2+y,1/4-z
y,x,-z
-y,-x,1/2-z
loop_
_atom_site_type_symbol
_atom_site_label
_atom_site_fract_x
_atom_site_fract_y
_atom_site_fract_z
Si Si1 0.607586 0.790234 0.300158
Si Si2 0.342846 0.561999 0.697717
Si Si3 0.752944 0.546524 0.358718
Si Si4 0.561767 0.939824 0.108274
Si Si5 0.741393 0.764280 0.553567
Si Si6 0.240517 0.435073 0.306099
O O1 0.719532 0.663135 0.315829
O O2 0.439030 0.746343 0.306483
O O3 0.633149 0.825205 0.243192
O O4 0.644316 0.931457 0.331545
O O5 0.357835 0.642166 0.750000
O O6 0.404848 0.660470 0.654086
O O7 0.176815 0.523534 0.684233
O O8 0.429707 0.412936 0.698081
O O9 0.703244 0.619603 0.409702
O O10 0.919525 0.497495 0.362931
O O11 0.641189 0.832678 0.147143
O O12 0.704034 0.704034 0.500000
O O13 0.897469 0.696748 0.565691
#
# Coordination Sequence:
#
# PCOD8305277 Si02
#       6
#     8   8   8   8   8   8
#     4  10  20  38  65  96 122 167 213 260 322 389
#     4  12  24  43  66  90 131 181 210 265 339 402
#     4  11  21  41  65  95 128 169 217 272 328 387
#     4  11  26  39  65 101 133 162 223 277 321 389
#     4   9  18  36  63  94 120 163 215 265 309 384
#     4  11  20  39  65  91 125 169 220 259 321 395
#
# _framework density 20.572423000000001
#
# number of rings (size 3 to 8) (size 9 to 14) (size 15 to 20)
#    0.000    1.333    5.000    1.500    2.333    0.000 
#    0.000    0.000    0.000    0.000    0.000    0.000 
#    0.000    0.000    0.000    0.000    0.000    0.000 
#
# Total GULP energy -594929.216320 kJ/mol
# GULP energy per Si atom -12394.358673 kJ/mol
# Density = 2.052560 g / cm^3
# Si number density = 20.572423 Si / 1000 Ang^3
#
#
#
# Elastic Constant Matrix: (Units=GPa)
#
#
# Indices 1 2 3 4 5 6 
#
# 1 65.7634 28.9838 47.2205 0.0000 0.0000 0.0000
# 2 28.9838 65.7632 47.2205 0.0000 0.0000 0.0000
# 3 47.2205 47.2205 149.2832 0.0000 0.0000 0.0000
# 4 0.0000 0.0000 0.0000 34.5643 0.0000 0.0000
# 5 0.0000 0.0000 0.0000 0.0000 34.5644 0.0000
# 6 0.0000 0.0000 0.0000 0.0000 0.0000 24.5687
#
#
#
# Elastic Compliance Matrix: (Units=1/GPa)
#
#
# Indices 1 2 3 4 5 6 
#
# 1 0.021302 -0.005887 -0.004876 0.000000 0.000000 0.000000
# 2 -0.005887 0.021302 -0.004876 0.000000 0.000000 0.000000
# 3 -0.004876 -0.004876 0.009783 0.000000 0.000000 0.000000
# 4 0.000000 0.000000 0.000000 0.028932 0.000000 0.000000
# 5 0.000000 0.000000 0.000000 0.000000 0.028932 0.000000
# 6 0.000000 0.000000 0.000000 0.000000 0.000000 0.040702
#
#
# Mechanical properties :
#
#
# Convention : Reuss Voigt Hill
#
# Bulk Modulus (GPa) = 47.37331 58.62881 53.00106
# Shear Modulus (GPa) = 26.41778 29.23180 27.82479
#
# Velocity S-wave (km/s) = 3.58737 3.77360 3.68166
# Velocity P-wave (km/s) = 6.34323 6.89546 6.62510
#
# Compressibility (1/GPa) = 0.02110893
#
# Stress axis : x y z
#
# Youngs Moduli (GPa) = 46.94449 46.94431 102.21523
#
# Poissons Ratio (x) = 0.27638 0.49838
# Poissons Ratio (y) = 0.27638 0.49839
# Poissons Ratio (z) = 0.22889 0.22889
#
# Static dielectric constant tensor:
#      x y z
#    x 3.547200 0.000000 0.000000 
#    y 0.000000 3.547200 0.000000 
#    z 0.000000 0.000000 3.978700 
# 
# 
# High freq. dielectric constant tensor:
#      x y z
#    x 1.787860 0.000000 0.000000 
#    y 0.000000 1.787860 0.000000 
#    z 0.000000 0.000000 1.818730 
# 
# From -- ./inp_files/4490.got.cif
#   From: 2010.03.12/outbox.cif.g09.slc.cpg/sg92_3_cif.got.tgz:4490.got - 2010.04.08 20:41:11.
