data_PCOD8305569
_publ_section_title
;
Structure prediction by ZEFSAII (Michael W. Deem and Ramdas Pophale) SiO2 
 PCOD8305569
Probable space group: P 42 2 2
;
_chemical_formula_sum "Si O2"
_cell_formula_units_Z 34
_cell_length_a 12.193329
_cell_length_b 12.193329
_cell_length_c 11.676159
_cell_angle_alpha 90.000000
_cell_angle_beta 90.000000
_cell_angle_gamma 90.000000
_cell_volume 1735.979469
_symmetry_space_group_name_H-M "P 42 2 2"
_symmetry_group_IT_number 93
_symmetry_cell_setting 'tetragonal'
loop_
_space_group_symop_operation_xyz
x,y,z
-y,x,1/2+z
-x,-y,z
y,-x,1/2+z
x,-y,-z
-x,y,-z
y,x,1/2-z
-y,-x,1/2-z
loop_
_atom_site_type_symbol
_atom_site_label
_atom_site_fract_x
_atom_site_fract_y
_atom_site_fract_z
Si Si1 0.000000 0.658201 0.000000
Si Si2 0.000000 0.000000 0.250000
Si Si3 0.775241 0.966412 0.129667
Si Si4 0.867029 0.691409 0.792798
Si Si5 0.742968 0.742968 0.250000
Si Si6 0.808761 0.463296 0.881726
O O1 0.071586 0.583053 0.915249
O O2 0.919142 0.729452 0.917253
O O3 0.895885 0.002494 0.167768
O O4 0.755232 0.837662 0.153870
O O5 0.687041 0.034283 0.202556
O O6 0.756224 0.000000 0.000000
O O7 0.773577 0.773577 0.750000
O O8 0.819259 0.569269 0.800797
O O9 0.627850 0.741109 0.315010
O O10 0.747891 0.500000 0.000000
#
# Coordination Sequence:
#
# PCOD8305569 Si02
#       6
#     4   2   8   8   4   8
#     4  10  21  42  72  91 124 177 224 256 311 398
#     4  10  22  40  52  90 130 184 198 240 340 424
#     4  11  24  36  59  94 137 162 201 269 332 390
#     4  11  22  38  66  96 124 168 218 261 313 394
#     4  11  24  41  63  96 129 172 220 274 321 386
#     4  10  22  41  71  92 124 173 227 263 311 393
#
# _framework density 19.585484999999998
#
# number of rings (size 3 to 8) (size 9 to 14) (size 15 to 20)
#    0.000    1.412    3.529    3.529    6.588    0.000 
#    0.000    2.941    0.000    4.235    0.000    0.000 
#    0.000    0.000    0.000    0.000    0.000    0.000 
#
# Total GULP energy -421414.308358 kJ/mol
# GULP energy per Si atom -12394.538481 kJ/mol
# Density = 1.954091 g / cm^3
# Si number density = 19.585485 Si / 1000 Ang^3
#
#
#
# Elastic Constant Matrix: (Units=GPa)
#
#
# Indices 1 2 3 4 5 6 
#
# 1 115.4028 54.4241 72.0592 0.0000 0.0000 0.0000
# 2 54.4241 115.4028 72.0592 0.0000 0.0000 0.0000
# 3 72.0592 72.0592 152.8876 0.0000 0.0000 0.0000
# 4 0.0000 0.0000 0.0000 37.8613 0.0000 0.0000
# 5 0.0000 0.0000 0.0000 0.0000 37.8613 0.0000
# 6 0.0000 0.0000 0.0000 0.0000 0.0000 23.7916
#
#
#
# Elastic Compliance Matrix: (Units=1/GPa)
#
#
# Indices 1 2 3 4 5 6 
#
# 1 0.013106 -0.003293 -0.004625 0.000000 0.000000 0.000000
# 2 -0.003293 0.013106 -0.004625 0.000000 0.000000 0.000000
# 3 -0.004625 -0.004625 0.010901 0.000000 0.000000 0.000000
# 4 0.000000 0.000000 0.000000 0.026412 0.000000 0.000000
# 5 0.000000 0.000000 0.000000 0.000000 0.026412 0.000000
# 6 0.000000 0.000000 0.000000 0.000000 0.000000 0.042032
#
#
# Mechanical properties :
#
#
# Convention : Reuss Voigt Hill
#
# Bulk Modulus (GPa) = 83.14972 86.75314 84.95143
# Shear Modulus (GPa) = 31.04335 32.24622 31.64479
#
# Velocity S-wave (km/s) = 3.98555 4.06203 4.02397
# Velocity P-wave (km/s) = 7.98288 8.14806 8.06589
#
# Compressibility (1/GPa) = 0.01202650
#
# Stress axis : x y z
#
# Youngs Moduli (GPa) = 76.29911 76.29911 91.73684
#
# Poissons Ratio (x) = 0.25124 0.42431
# Poissons Ratio (y) = 0.25124 0.42431
# Poissons Ratio (z) = 0.35291 0.35291
#
# Static dielectric constant tensor:
#      x y z
#    x 3.580020 0.000000 0.000000 
#    y 0.000000 3.580020 0.000000 
#    z 0.000000 0.000000 3.899860 
# 
# 
# High freq. dielectric constant tensor:
#      x y z
#    x 1.749370 0.000000 0.000000 
#    y 0.000000 1.749370 0.000000 
#    z 0.000000 0.000000 1.768130 
# 
# From -- ./inp_files/3212.got.cif
#   From: 2010.03.12/outbox.cif.g09.slc.cpg/sg93_2_cif.got.tgz:3212.got - 2010.04.08 20:44:19.
