data_PCOD8305785
_publ_section_title
;
Structure prediction by ZEFSAII (Michael W. Deem and Ramdas Pophale) SiO2 
 PCOD8305785
Probable space group: P 42 21 2
;
_chemical_formula_sum "Si O2"
_cell_formula_units_Z 40
_cell_length_a 14.282282
_cell_length_b 14.282282
_cell_length_c 8.940047
_cell_angle_alpha 90.000000
_cell_angle_beta 90.000000
_cell_angle_gamma 90.000000
_cell_volume 1823.622785
_symmetry_space_group_name_H-M "P 42 21 2"
_symmetry_group_IT_number 94
_symmetry_cell_setting 'tetragonal'
loop_
_space_group_symop_operation_xyz
x,y,z
1/2-y,1/2+x,1/2+z
-x,-y,z
1/2+y,1/2-x,1/2+z
1/2+x,1/2-y,1/2-z
1/2-x,1/2+y,1/2-z
y,x,-z
-y,-x,-z
loop_
_atom_site_type_symbol
_atom_site_label
_atom_site_fract_x
_atom_site_fract_y
_atom_site_fract_z
Si Si1 0.585047 0.429807 0.170366
Si Si2 0.782592 0.647478 0.917735
Si Si3 0.740611 0.966086 0.151195
Si Si4 0.090377 0.440998 0.156071
Si Si5 0.754124 0.997618 0.818022
O O1 0.500000 0.500000 0.186014
O O2 0.676538 0.483565 0.231100
O O3 0.568361 0.338975 0.270038
O O4 0.601158 0.398843 0.000000
O O5 0.854545 0.729109 0.871889
O O6 0.743014 0.595305 0.771310
O O7 0.693468 0.693468 0.000000
O O8 0.836560 0.571631 0.020309
O O9 0.642120 0.005707 0.209997
O O10 0.763398 0.018026 0.995141
O O11 0.058402 0.340646 0.217257
O O12 0.000000 0.500000 0.101901
#
# Coordination Sequence:
#
# PCOD8305785 Si02
#       5
#     8   8   8   8   8
#     4  11  26  48  71  99 139 190 237 292 361 429
#     4  11  25  44  71 103 148 187 241 297 361 423
#     4  11  24  45  70 105 144 182 237 298 350 434
#     4  11  24  44  71 106 142 189 235 293 361 428
#     4  11  25  41  71 104 139 184 237 292 360 418
#
# _framework density 21.934360000000002
#
# number of rings (size 3 to 8) (size 9 to 14) (size 15 to 20)
#    0.000    1.000    2.000    4.200   11.200    3.200 
#    0.000    0.000    0.000    0.000    0.000    0.000 
#    0.000    0.000    0.000    0.000    0.000    0.000 
#
# Total GULP energy -496217.208335 kJ/mol
# GULP energy per Si atom -12405.430208 kJ/mol
# Density = 2.188444 g / cm^3
# Si number density = 21.934360 Si / 1000 Ang^3
#
#
#
# Elastic Constant Matrix: (Units=GPa)
#
#
# Indices 1 2 3 4 5 6 
#
# 1 105.9970 35.9263 63.2823 0.0000 0.0000 0.0000
# 2 35.9263 105.9972 63.2823 0.0000 0.0000 0.0000
# 3 63.2823 63.2823 160.0291 0.0000 0.0000 0.0000
# 4 0.0000 0.0000 0.0000 39.2277 0.0000 0.0000
# 5 0.0000 0.0000 0.0000 0.0000 39.2277 0.0000
# 6 0.0000 0.0000 0.0000 0.0000 0.0000 34.0785
#
#
#
# Elastic Compliance Matrix: (Units=1/GPa)
#
#
# Indices 1 2 3 4 5 6 
#
# 1 0.012578 -0.001693 -0.004304 0.000000 0.000000 0.000000
# 2 -0.001693 0.012578 -0.004304 0.000000 0.000000 0.000000
# 3 -0.004304 -0.004304 0.009653 0.000000 0.000000 0.000000
# 4 0.000000 0.000000 0.000000 0.025492 0.000000 0.000000
# 5 0.000000 0.000000 0.000000 0.000000 0.025492 0.000000
# 6 0.000000 0.000000 0.000000 0.000000 0.000000 0.029344
#
#
# Mechanical properties :
#
#
# Convention : Reuss Voigt Hill
#
# Bulk Modulus (GPa) = 70.39695 77.44501 73.92098
# Shear Modulus (GPa) = 35.59338 36.47563 36.03451
#
# Velocity S-wave (km/s) = 4.03267 4.08235 4.05759
# Velocity P-wave (km/s) = 7.33807 7.58980 7.46500
#
# Compressibility (1/GPa) = 0.01420516
#
# Stress axis : x y z
#
# Youngs Moduli (GPa) = 79.50473 79.50493 103.59505
#
# Poissons Ratio (x) = 0.13463 0.44589
# Poissons Ratio (y) = 0.13463 0.44589
# Poissons Ratio (z) = 0.34220 0.34220
#
# Static dielectric constant tensor:
#      x y z
#    x 3.931570 0.000000 0.000000 
#    y 0.000000 3.931570 0.000000 
#    z 0.000000 0.000000 4.030380 
# 
# 
# High freq. dielectric constant tensor:
#      x y z
#    x 1.865480 0.000000 0.000000 
#    y 0.000000 1.865480 0.000000 
#    z 0.000000 0.000000 1.868580 
# 
# From -- ./inp_files/1412.got.cif
#   From: 2010.03.12/outbox.cif.g09.slc.cpg/sg94_1_cif.got.tgz:1412.got - 2010.04.08 20:48:32.
