data_PCOD8305010
_publ_section_title
;
Structure prediction by ZEFSAII (Michael W. Deem and Ramdas Pophale) SiO2 
 PCOD8305010
Probable space group: P 41 2 2
;
_chemical_formula_sum "Si O2"
_cell_formula_units_Z 48
_cell_length_a 21.677525
_cell_length_b 21.677525
_cell_length_c 5.370244
_cell_angle_alpha 90.000000
_cell_angle_beta 90.000000
_cell_angle_gamma 90.000000
_cell_volume 2523.558693
_symmetry_space_group_name_H-M "P 41 2 2"
_symmetry_group_IT_number 91
_symmetry_cell_setting 'tetragonal'
loop_
_space_group_symop_operation_xyz
x,y,z
-y,x,1/4+z
-x,-y,1/2+z
y,-x,3/4+z
x,-y,1/2-z
-x,y,-z
y,x,3/4-z
-y,-x,1/4-z
loop_
_atom_site_type_symbol
_atom_site_label
_atom_site_fract_x
_atom_site_fract_y
_atom_site_fract_z
Si Si1 0.296748 0.650798 0.378965
Si Si2 0.150947 0.371014 0.708665
Si Si3 0.313909 0.934213 0.810506
Si Si4 0.537830 0.228510 0.256556
Si Si5 0.812869 0.718845 0.815328
Si Si6 0.063056 0.436238 0.362978
O O1 0.334503 0.665498 0.625000
O O2 0.287400 0.576601 0.394593
O O3 0.231569 0.688943 0.393752
O O4 0.333110 0.666891 0.125000
O O5 0.179600 0.408042 0.940500
O O6 0.197460 0.328057 0.549802
O O7 0.120636 0.422768 0.538539
O O8 0.098241 0.323639 0.796772
O O9 0.279731 0.000000 0.750000
O O10 0.276534 0.885249 0.984774
O O11 0.380603 0.949468 0.923871
O O12 0.500000 0.205887 0.500000
O O13 0.500000 0.242195 0.000000
O O14 0.787912 0.787912 0.875000
O O15 0.085292 0.500000 0.250000
O O16 0.000000 0.449975 0.500000
#
# Coordination Sequence:
#
# PCOD8305010 Si02
#       6
#     8   8   8   8   8   8
#     4  11  22  40  61  85 115 153 201 251 302 363
#     4  11  24  38  52  76 115 149 203 247 300 345
#     4  11  22  37  55  75 109 149 204 247 299 344
#     4  12  25  38  57  88 120 154 196 252 312 359
#     4  10  22  37  60  81 105 147 206 251 306 361
#     4  11  24  36  48  71 102 157 210 252 285 334
#
# _framework density 19.020757
#
# number of rings (size 3 to 8) (size 9 to 14) (size 15 to 20)
#    0.000    1.000    3.333    4.500    4.667    0.000 
#    0.000    0.000    0.000    0.000    0.000    0.000 
#    0.000   18.667    0.000    0.167   44.333    0.000 
#
# Total GULP energy -594701.356645 kJ/mol
# GULP energy per Si atom -12389.611597 kJ/mol
# Density = 1.897746 g / cm^3
# Si number density = 19.020757 Si / 1000 Ang^3
#
#
#
# Elastic Constant Matrix: (Units=GPa)
#
#
# Indices 1 2 3 4 5 6 
#
# 1 89.3833 55.7088 41.7868 0.0000 0.0000 0.0000
# 2 55.7088 89.3844 41.7877 0.0000 0.0000 0.0000
# 3 41.7868 41.7877 116.0129 0.0000 0.0000 0.0000
# 4 0.0000 0.0000 0.0000 4.7092 0.0000 0.0000
# 5 0.0000 0.0000 0.0000 0.0000 4.7104 0.0000
# 6 0.0000 0.0000 0.0000 0.0000 0.0000 24.8745
#
#
#
# Elastic Compliance Matrix: (Units=1/GPa)
#
#
# Indices 1 2 3 4 5 6 
#
# 1 0.019196 -0.010500 -0.003132 0.000000 0.000000 0.000000
# 2 -0.010500 0.019196 -0.003133 0.000000 0.000000 0.000000
# 3 -0.003132 -0.003133 0.010876 0.000000 0.000000 0.000000
# 4 0.000000 0.000000 0.000000 0.212349 0.000000 0.000000
# 5 0.000000 0.000000 0.000000 0.000000 0.212297 0.000000
# 6 0.000000 0.000000 0.000000 0.000000 0.000000 0.040202
#
#
# Mechanical properties :
#
#
# Convention : Reuss Voigt Hill
#
# Bulk Modulus (GPa) = 63.53433 63.70523 63.61978
# Shear Modulus (GPa) = 9.04336 17.22532 13.13434
#
# Velocity S-wave (km/s) = 2.18284 3.01259 2.63064
# Velocity P-wave (km/s) = 6.31096 6.75767 6.53813
#
# Compressibility (1/GPa) = 0.01573952
#
# Stress axis : x y z
#
# Youngs Moduli (GPa) = 52.09404 52.09433 91.94314
#
# Poissons Ratio (x) = 0.54697 0.28799
# Poissons Ratio (y) = 0.54696 0.28801
# Poissons Ratio (z) = 0.16317 0.16319
#
# Static dielectric constant tensor:
#      x y z
#    x 3.684520 0.000000 0.000000 
#    y 0.000000 3.684550 0.000000 
#    z 0.000000 0.000000 3.706190 
# 
# 
# High freq. dielectric constant tensor:
#      x y z
#    x 1.709160 0.000000 0.000000 
#    y 0.000000 1.709160 0.000000 
#    z 0.000000 0.000000 1.765180 
# 
# From -- ./inp_files/14361.got.cif
#   From: 2010.03.12/outbox.cif.g09.slc.cpg/sg91_8_cif.got.tgz:14361.got - 2010.04.08 20:27:58.
