data_PCOD8305165
_publ_section_title
;
Structure prediction by ZEFSAII (Michael W. Deem and Ramdas Pophale) SiO2 
 PCOD8305165
Probable space group: P 41 2 2
;
_chemical_formula_sum "Si O2"
_cell_formula_units_Z 32
_cell_length_a 7.065037
_cell_length_b 7.065037
_cell_length_c 29.093937
_cell_angle_alpha 90.000000
_cell_angle_beta 90.000000
_cell_angle_gamma 90.000000
_cell_volume 1452.216528
_symmetry_space_group_name_H-M "P 41 2 2"
_symmetry_group_IT_number 91
_symmetry_cell_setting 'tetragonal'
loop_
_space_group_symop_operation_xyz
x,y,z
-y,x,1/4+z
-x,-y,1/2+z
y,-x,3/4+z
x,-y,1/2-z
-x,y,-z
y,x,3/4-z
-y,-x,1/4-z
loop_
_atom_site_type_symbol
_atom_site_label
_atom_site_fract_x
_atom_site_fract_y
_atom_site_fract_z
Si Si1 0.245332 0.535154 0.388499
Si Si2 0.436142 0.311291 0.951131
Si Si3 0.088163 0.558096 0.954664
Si Si4 0.880551 0.651683 0.710752
O O1 0.344811 0.344811 0.375000
O O2 0.383834 0.680002 0.416604
O O3 0.182032 0.625136 0.341410
O O4 0.066338 0.457105 0.415656
O O5 0.449476 0.270924 0.816116
O O6 0.342028 0.106508 0.959172
O O7 0.500000 0.393630 0.000000
O O8 0.149998 0.772203 0.970869
O O9 0.000000 0.458534 0.000000
O O10 0.815946 0.500000 0.750000
#
# Coordination Sequence:
#
# PCOD8305165 Si02
#       4
#     8   8   8   8
#     4  12  24  44  72  99 137 185 232 284 356 422
#     4  11  24  48  72  99 143 187 233 292 363 421
#     4  12  24  45  73 102 138 186 233 292 358 422
#     4  11  25  44  69 102 141 181 233 292 344 423
#
# _framework density 22.035281000000001
#
# number of rings (size 3 to 8) (size 9 to 14) (size 15 to 20)
#    0.000    0.500    5.000    3.750    0.000    1.000 
#    9.000    0.000    0.000    0.000    0.000    0.000 
#    0.000    0.000    0.000    0.000    0.000    0.000 
#
# Total GULP energy -396417.607995 kJ/mol
# GULP energy per Si atom -12388.050250 kJ/mol
# Density = 2.198513 g / cm^3
# Si number density = 22.035281 Si / 1000 Ang^3
#
#
#
# Elastic Constant Matrix: (Units=GPa)
#
#
# Indices 1 2 3 4 5 6 
#
# 1 110.3766 32.0675 19.8297 0.0000 0.0000 0.0000
# 2 32.0675 110.3766 19.8297 0.0000 0.0000 0.0000
# 3 19.8297 19.8297 132.1721 0.0000 0.0000 0.0000
# 4 0.0000 0.0000 0.0000 38.6438 0.0000 0.0000
# 5 0.0000 0.0000 0.0000 0.0000 38.6438 0.0000
# 6 0.0000 0.0000 0.0000 0.0000 0.0000 -1.6976
#
#
#
# Elastic Compliance Matrix: (Units=1/GPa)
#
#
# Indices 1 2 3 4 5 6 
#
# 1 0.010048 -0.002722 -0.001099 0.000000 0.000000 0.000000
# 2 -0.002722 0.010048 -0.001099 0.000000 0.000000 0.000000
# 3 -0.001099 -0.001099 0.007896 0.000000 0.000000 0.000000
# 4 0.000000 0.000000 0.000000 0.025877 0.000000 0.000000
# 5 0.000000 0.000000 0.000000 0.000000 0.025877 0.000000
# 6 0.000000 0.000000 0.000000 0.000000 0.000000 -0.589063
#
#
# Mechanical properties :
#
#
# Convention : Reuss Voigt Hill
#
# Bulk Modulus (GPa) = 55.09124 55.15322 55.12223
# Shear Modulus (GPa) = -10.13325 33.86456 11.86565
#
# Velocity S-wave (km/s) = -2.14677 3.92450 2.32304
# Velocity P-wave (km/s) = 4.34866 6.75422 5.68024
#
# Compressibility (1/GPa) = 0.01815171
#
# Stress axis : x y z
#
# Youngs Moduli (GPa) = 99.52114 99.52114 126.65109
#
# Poissons Ratio (x) = 0.27088 0.13921
# Poissons Ratio (y) = 0.27088 0.13921
# Poissons Ratio (z) = 0.10939 0.10939
#
# Static dielectric constant tensor:
#      x y z
#    x 4.161150 0.000000 0.000000 
#    y 0.000000 4.161150 0.000000 
#    z 0.000000 0.000000 4.438110 
# 
# 
# High freq. dielectric constant tensor:
#      x y z
#    x 1.862650 0.000000 0.000000 
#    y 0.000000 1.862650 0.000000 
#    z 0.000000 0.000000 1.895420 
# 
# From -- ./inp_files/6626.got.cif
#   From: 2010.03.12/outbox.cif.g09.slc.cpg/sg91_4_cif.got.tgz:6626.got - 2010.04.08 20:27:58.
