data_PCOD8305027
_publ_section_title
;
Structure prediction by ZEFSAII (Michael W. Deem and Ramdas Pophale) SiO2 
 PCOD8305027
Probable space group: P 41 2 2
;
_chemical_formula_sum "Si O2"
_cell_formula_units_Z 60
_cell_length_a 12.285769
_cell_length_b 12.285769
_cell_length_c 18.983542
_cell_angle_alpha 90.000000
_cell_angle_beta 90.000000
_cell_angle_gamma 90.000000
_cell_volume 2865.378106
_symmetry_space_group_name_H-M "P 41 2 2"
_symmetry_group_IT_number 91
_symmetry_cell_setting 'tetragonal'
loop_
_space_group_symop_operation_xyz
x,y,z
-y,x,1/4+z
-x,-y,1/2+z
y,-x,3/4+z
x,-y,1/2-z
-x,y,-z
y,x,3/4-z
-y,-x,1/4-z
loop_
_atom_site_type_symbol
_atom_site_label
_atom_site_fract_x
_atom_site_fract_y
_atom_site_fract_z
Si Si1 0.249317 0.579132 0.145426
Si Si2 0.020669 0.328745 0.147818
Si Si3 0.829361 0.752695 0.258117
Si Si4 0.430221 0.312071 0.931596
Si Si5 0.544644 0.032615 0.672800
Si Si6 0.776193 0.000000 0.250000
Si Si7 0.817255 0.622434 0.120314
Si Si8 0.346665 0.755587 0.950632
O O1 0.359669 0.640332 0.125000
O O2 0.154247 0.595303 0.085810
O O3 0.277497 0.452463 0.154756
O O4 0.211217 0.627535 0.219775
O O5 0.940289 0.288329 0.207735
O O6 0.023079 0.459294 0.141720
O O7 0.139704 0.286698 0.168166
O O8 0.992069 0.292967 0.069873
O O9 0.730789 0.692526 0.300362
O O10 0.839574 0.884422 0.255392
O O11 0.810693 0.713142 0.179636
O O12 0.410108 0.410108 0.875000
O O13 0.501188 0.214143 0.897279
O O14 0.500000 0.354468 0.000000
O O15 0.496441 0.000000 0.750000
O O16 0.632857 0.939524 0.658443
O O17 0.735175 0.654146 0.057058
#
# Coordination Sequence:
#
# PCOD8305027 Si02
#       8
#     8   8   8   8   8   4   8   8
#     4  10  22  42  64  91 125 173 219 263 330 397
#     4  11  21  39  65  93 130 166 219 271 322 397
#     4  11  23  40  67  97 128 169 216 272 337 388
#     4  10  22  40  62  96 133 169 214 274 333 396
#     4  11  22  37  68  97 124 171 219 276 324 386
#     4  12  22  38  64  96 134 166 214 264 336 400
#     4  11  22  41  64  95 129 165 216 271 328 395
#     4  10  22  41  64  91 129 171 215 270 327 398
#
# _framework density 20.939643
#
# number of rings (size 3 to 8) (size 9 to 14) (size 15 to 20)
#    0.000    1.333    3.333    2.800    0.000    1.600 
#    9.600    0.000    7.333    0.000    0.000    0.000 
#    0.000    0.000    0.000    0.000    0.000    0.000 
#
# Total GULP energy -743300.371442 kJ/mol
# GULP energy per Si atom -12388.339524 kJ/mol
# Density = 2.089198 g / cm^3
# Si number density = 20.939643 Si / 1000 Ang^3
#
#
#
# Elastic Constant Matrix: (Units=GPa)
#
#
# Indices 1 2 3 4 5 6 
#
# 1 98.5870 39.3429 23.8271 0.0000 0.0000 0.0000
# 2 39.3429 98.5890 23.8270 0.0000 0.0000 0.0000
# 3 23.8271 23.8270 60.3509 0.0000 0.0000 0.0000
# 4 0.0000 0.0000 0.0000 23.5476 0.0000 0.0000
# 5 0.0000 0.0000 0.0000 0.0000 23.5469 0.0000
# 6 0.0000 0.0000 0.0000 0.0000 0.0000 28.0423
#
#
#
# Elastic Compliance Matrix: (Units=1/GPa)
#
#
# Indices 1 2 3 4 5 6 
#
# 1 0.012637 -0.004242 -0.003315 0.000000 0.000000 0.000000
# 2 -0.004242 0.012637 -0.003314 0.000000 0.000000 0.000000
# 3 -0.003315 -0.003314 0.019187 0.000000 0.000000 0.000000
# 4 0.000000 0.000000 0.000000 0.042467 0.000000 0.000000
# 5 0.000000 0.000000 0.000000 0.000000 0.042468 0.000000
# 6 0.000000 0.000000 0.000000 0.000000 0.000000 0.035660
#
#
# Mechanical properties :
#
#
# Convention : Reuss Voigt Hill
#
# Bulk Modulus (GPa) = 44.01541 47.94677 45.98109
# Shear Modulus (GPa) = 25.72386 26.39602 26.05994
#
# Velocity S-wave (km/s) = 3.50877 3.55431 3.53161
# Velocity P-wave (km/s) = 6.12217 6.30805 6.21581
#
# Compressibility (1/GPa) = 0.02271931
#
# Stress axis : x y z
#
# Youngs Moduli (GPa) = 79.13125 79.13314 52.11882
#
# Poissons Ratio (x) = 0.33568 0.17275
# Poissons Ratio (y) = 0.33567 0.17274
# Poissons Ratio (z) = 0.26228 0.26228
#
# Static dielectric constant tensor:
#      x y z
#    x 3.862040 0.000000 0.000000 
#    y 0.000000 3.862040 0.000000 
#    z 0.000000 0.000000 3.963870 
# 
# 
# High freq. dielectric constant tensor:
#      x y z
#    x 1.806210 0.000000 0.000000 
#    y 0.000000 1.806210 0.000000 
#    z 0.000000 0.000000 1.833410 
# 
# From -- ./inp_files/21572.got.cif
#   From: 2010.03.12/outbox.cif.g09.slc.cpg/sg91_11_cif.got.tgz:21572.got - 2010.04.08 20:27:58.
