data_PCOD8305037
_publ_section_title
;
Structure prediction by ZEFSAII (Michael W. Deem and Ramdas Pophale) SiO2 
 PCOD8305037
Probable space group: P 41 2 2
;
_chemical_formula_sum "Si O2"
_cell_formula_units_Z 40
_cell_length_a 8.373042
_cell_length_b 8.373042
_cell_length_c 23.764549
_cell_angle_alpha 90.000000
_cell_angle_beta 90.000000
_cell_angle_gamma 90.000000
_cell_volume 1666.081017
_symmetry_space_group_name_H-M "P 41 2 2"
_symmetry_group_IT_number 91
_symmetry_cell_setting 'tetragonal'
loop_
_space_group_symop_operation_xyz
x,y,z
-y,x,1/4+z
-x,-y,1/2+z
y,-x,3/4+z
x,-y,1/2-z
-x,y,-z
y,x,3/4-z
-y,-x,1/4-z
loop_
_atom_site_type_symbol
_atom_site_label
_atom_site_fract_x
_atom_site_fract_y
_atom_site_fract_z
Si Si1 0.192666 0.359206 0.424381
Si Si2 0.777125 0.675218 0.724278
Si Si3 0.260512 0.115321 0.920727
Si Si4 0.159811 0.589013 0.881749
Si Si5 0.319396 0.323096 0.727481
O O1 0.319224 0.319224 0.375000
O O2 0.201854 0.225421 0.473369
O O3 0.237104 0.522343 0.455985
O O4 0.016184 0.360521 0.400504
O O5 0.753412 0.500000 0.750000
O O6 0.635255 0.711740 0.679923
O O7 0.941653 0.693161 0.691725
O O8 0.114150 0.114150 0.875000
O O9 0.402675 0.178299 0.880357
O O10 0.224374 0.233558 0.972665
O O11 0.194020 0.679575 0.823561
O O12 0.358266 0.500000 0.750000
#
# Coordination Sequence:
#
# PCOD8305037 Si02
#       5
#     8   8   8   8   8
#     4  12  24  42  71 104 141 182 232 288 345 413
#     4  12  25  46  71 101 139 182 231 285 345 411
#     4  11  24  45  70  97 139 183 227 286 347 411
#     4  11  24  44  68 101 138 178 231 290 347 406
#     4  10  22  41  69 101 134 181 235 285 344 409
#
# _framework density 24.008434000000001
#
# number of rings (size 3 to 8) (size 9 to 14) (size 15 to 20)
#    0.000    0.800    0.000    9.000    0.000    5.600 
#    0.000   12.000    0.000    0.000    0.000    0.000 
#    0.000    0.000    0.000    0.000    0.000    0.000 
#
# Total GULP energy -495909.534790 kJ/mol
# GULP energy per Si atom -12397.738370 kJ/mol
# Density = 2.395379 g / cm^3
# Si number density = 24.008434 Si / 1000 Ang^3
#
#
#
# Elastic Constant Matrix: (Units=GPa)
#
#
# Indices 1 2 3 4 5 6 
#
# 1 95.9477 66.9686 73.1178 0.0000 0.0000 0.0000
# 2 66.9686 95.9477 73.1178 0.0000 0.0000 0.0000
# 3 73.1178 73.1178 201.0727 0.0000 0.0000 0.0000
# 4 0.0000 0.0000 0.0000 54.5409 0.0000 0.0000
# 5 0.0000 0.0000 0.0000 0.0000 54.5409 0.0000
# 6 0.0000 0.0000 0.0000 0.0000 0.0000 23.6300
#
#
#
# Elastic Compliance Matrix: (Units=1/GPa)
#
#
# Indices 1 2 3 4 5 6 
#
# 1 0.021810 -0.012698 -0.003314 0.000000 0.000000 0.000000
# 2 -0.012698 0.021810 -0.003314 0.000000 0.000000 0.000000
# 3 -0.003314 -0.003314 0.007383 0.000000 0.000000 0.000000
# 4 0.000000 0.000000 0.000000 0.018335 0.000000 0.000000
# 5 0.000000 0.000000 0.000000 0.000000 0.018335 0.000000
# 6 0.000000 0.000000 0.000000 0.000000 0.000000 0.042319
#
#
# Mechanical properties :
#
#
# Convention : Reuss Voigt Hill
#
# Bulk Modulus (GPa) = 80.94774 91.04181 85.99477
# Shear Modulus (GPa) = 28.94192 38.52662 33.73427
#
# Velocity S-wave (km/s) = 3.47578 4.01023 3.75253
# Velocity P-wave (km/s) = 7.06383 7.71010 7.39403
#
# Compressibility (1/GPa) = 0.01235365
#
# Stress axis : x y z
#
# Youngs Moduli (GPa) = 45.85039 45.85039 135.44122
#
# Poissons Ratio (x) = 0.58219 0.44881
# Poissons Ratio (y) = 0.58219 0.44881
# Poissons Ratio (z) = 0.15193 0.15193
#
# Static dielectric constant tensor:
#      x y z
#    x 4.168530 0.000000 0.000000 
#    y 0.000000 4.168530 0.000000 
#    z 0.000000 0.000000 5.203380 
# 
# 
# High freq. dielectric constant tensor:
#      x y z
#    x 1.939680 0.000000 0.000000 
#    y 0.000000 1.939680 0.000000 
#    z 0.000000 0.000000 1.996930 
# 
# From -- ./inp_files/12741.got.cif
#   From: 2010.03.12/outbox.cif.g09.slc.cpg/sg91_7_cif.got.tgz:12741.got - 2010.04.08 20:27:58.
