data_PCOD8305484
_publ_section_title
;
Structure prediction by ZEFSAII (Michael W. Deem and Ramdas Pophale) SiO2 
 PCOD8305484
Probable space group: P 41 21 2
;
_chemical_formula_sum "Si O2"
_cell_formula_units_Z 20
_cell_length_a 7.973146
_cell_length_b 7.973146
_cell_length_c 10.968656
_cell_angle_alpha 90.000000
_cell_angle_beta 90.000000
_cell_angle_gamma 90.000000
_cell_volume 697.289057
_symmetry_space_group_name_H-M "P 41 21 2"
_symmetry_group_IT_number 92
_symmetry_cell_setting 'tetragonal'
loop_
_space_group_symop_operation_xyz
x,y,z
1/2-y,1/2+x,1/4+z
-x,-y,1/2+z
1/2+y,1/2-x,3/4+z
1/2+x,1/2-y,3/4-z
1/2-x,1/2+y,1/4-z
y,x,-z
-y,-x,1/2-z
loop_
_atom_site_type_symbol
_atom_site_label
_atom_site_fract_x
_atom_site_fract_y
_atom_site_fract_z
Si Si1 0.257544 0.257544 0.500000
Si Si2 0.736814 0.534316 0.774217
Si Si3 0.927511 0.247437 0.653003
O O1 0.243218 0.426093 0.418508
O O2 0.108894 0.254439 0.596150
O O3 0.562934 0.437067 0.750000
O O4 0.890809 0.423845 0.722026
O O5 0.715004 0.711216 0.700672
O O6 0.905597 0.094404 0.750000
#
# Coordination Sequence:
#
# PCOD8305484 Si02
#       3
#     4   8   8
#     4  12  28  58  88 118 178 232 282 350 438 504
#     4  11  27  55  82 124 175 220 294 353 421 510
#     4  11  26  56  85 122 173 219 295 352 424 512
#
# _framework density 28.682511999999999
#
# number of rings (size 3 to 8) (size 9 to 14) (size 15 to 20)
#    0.000    0.800    2.000    2.400    2.800    6.400 
#   57.600    0.000    0.000    0.000    0.000    0.000 
#    0.000    0.000    0.000    0.000    0.000    0.000 
#
# Total GULP energy -247906.834690 kJ/mol
# GULP energy per Si atom -12395.341735 kJ/mol
# Density = 2.861723 g / cm^3
# Si number density = 28.682512 Si / 1000 Ang^3
#
#
#
# Elastic Constant Matrix: (Units=GPa)
#
#
# Indices 1 2 3 4 5 6 
#
# 1 -132.6606 328.5863 86.9434 0.0000 0.0000 0.0000
# 2 328.5863 -132.6588 86.9423 0.0000 0.0000 0.0000
# 3 86.9434 86.9423 225.6737 0.0000 0.0000 0.0000
# 4 0.0000 0.0000 0.0000 65.3046 0.0000 0.0000
# 5 0.0000 0.0000 0.0000 0.0000 65.3050 0.0000
# 6 0.0000 0.0000 0.0000 0.0000 0.0000 39.3047
#
#
#
# Elastic Compliance Matrix: (Units=1/GPa)
#
#
# Indices 1 2 3 4 5 6 
#
# 1 0.002794 0.004962 -0.002988 0.000000 0.000000 0.000000
# 2 0.004962 0.002794 -0.002988 0.000000 0.000000 0.000000
# 3 -0.002988 -0.002988 0.006733 0.000000 0.000000 0.000000
# 4 0.000000 0.000000 0.000000 0.015313 0.000000 0.000000
# 5 0.000000 0.000000 0.000000 0.000000 0.015313 0.000000
# 6 0.000000 0.000000 0.000000 0.000000 0.000000 0.025442
#
#
# Mechanical properties :
#
#
# Convention : Reuss Voigt Hill
#
# Bulk Modulus (GPa) = 97.15227 107.25536 102.20382
# Shear Modulus (GPa) = 67.70632 -2.15834 32.77399
#
# Velocity S-wave (km/s) = 4.86381 -0.86840 3.38397
# Velocity P-wave (km/s) = 8.09243 6.03901 7.13992
#
# Compressibility (1/GPa) = 0.01029312
#
# Stress axis : x y z
#
# Youngs Moduli (GPa) = 357.92721 357.92127 148.51152
#
# Poissons Ratio (x) = -1.77598 0.44375
# Poissons Ratio (y) = -1.77601 0.44375
# Poissons Ratio (z) = 1.06948 1.06947
#
# Static dielectric constant tensor:
#      x y z
#    x 5.152880 0.000000 0.000000 
#    y 0.000000 5.152890 0.000000 
#    z 0.000000 0.000000 5.920170 
# 
# 
# High freq. dielectric constant tensor:
#      x y z
#    x 2.154870 0.000000 0.000000 
#    y 0.000000 2.154870 0.000000 
#    z 0.000000 0.000000 2.195510 
# 
# From -- ./inp_files/1765.got.cif
#   From: 2010.03.12/outbox.cif.g09.slc.cpg/sg92_1_cif.got.tgz:1765.got - 2010.04.08 20:41:11.
