data_PCOD8305474
_publ_section_title
;
Structure prediction by ZEFSAII (Michael W. Deem and Ramdas Pophale) SiO2 
 PCOD8305474
Probable space group: P 41 21 2
;
_chemical_formula_sum "Si O2"
_cell_formula_units_Z 40
_cell_length_a 8.193093
_cell_length_b 8.193093
_cell_length_c 25.792465
_cell_angle_alpha 90.000000
_cell_angle_beta 90.000000
_cell_angle_gamma 90.000000
_cell_volume 1731.364941
_symmetry_space_group_name_H-M "P 41 21 2"
_symmetry_group_IT_number 92
_symmetry_cell_setting 'tetragonal'
loop_
_space_group_symop_operation_xyz
x,y,z
1/2-y,1/2+x,1/4+z
-x,-y,1/2+z
1/2+y,1/2-x,3/4+z
1/2+x,1/2-y,3/4-z
1/2-x,1/2+y,1/4-z
y,x,-z
-y,-x,1/2-z
loop_
_atom_site_type_symbol
_atom_site_label
_atom_site_fract_x
_atom_site_fract_y
_atom_site_fract_z
Si Si1 0.215564 0.440286 0.864598
Si Si2 0.350561 0.103417 0.856185
Si Si3 0.720282 0.789207 0.162128
Si Si4 0.231146 0.981452 0.502166
Si Si5 0.489434 0.241238 0.502537
O O1 0.313289 0.277307 0.884453
O O2 0.303453 0.613545 0.878087
O O3 0.201851 0.423883 0.803039
O O4 0.041465 0.433478 0.892125
O O5 0.254973 0.945791 0.880186
O O6 0.287713 0.126492 0.796699
O O7 0.751535 0.655125 0.205235
O O8 0.692070 0.955805 0.194415
O O9 0.042746 0.042746 0.500000
O O10 0.340538 0.130550 0.522417
O O11 0.429544 0.429544 0.500000
#
# Coordination Sequence:
#
# PCOD8305474 Si02
#       5
#     8   8   8   8   8
#     4  12  28  46  73 110 150 196 253 310 380 462
#     4  12  28  46  73 110 150 196 253 310 380 462
#     4  12  26  46  75 106 150 193 246 316 380 440
#     4  11  24  45  72 102 142 192 248 302 375 455
#     4  11  24  45  72 102 142 192 248 302 375 455
#
# _framework density 23.103159000000002
#
# number of rings (size 3 to 8) (size 9 to 14) (size 15 to 20)
#    0.000    0.400    6.000    2.400    5.600    0.000 
#    0.000    2.000    0.000    0.000    0.000    0.000 
#    0.000    0.000    0.000    0.000    0.000    0.000 
#
# Total GULP energy -495831.483329 kJ/mol
# GULP energy per Si atom -12395.787083 kJ/mol
# Density = 2.305058 g / cm^3
# Si number density = 23.103159 Si / 1000 Ang^3
#
#
#
# Elastic Constant Matrix: (Units=GPa)
#
#
# Indices 1 2 3 4 5 6 
#
# 1 90.4490 25.6936 15.6858 0.0000 0.0000 0.0000
# 2 25.6936 90.4490 15.6858 0.0000 0.0000 0.0000
# 3 15.6858 15.6858 85.8566 0.0000 0.0000 0.0000
# 4 0.0000 0.0000 0.0000 34.5923 0.0000 0.0000
# 5 0.0000 0.0000 0.0000 0.0000 34.5923 0.0000
# 6 0.0000 0.0000 0.0000 0.0000 0.0000 35.4828
#
#
#
# Elastic Compliance Matrix: (Units=1/GPa)
#
#
# Indices 1 2 3 4 5 6 
#
# 1 0.012250 -0.003193 -0.001655 0.000000 0.000000 0.000000
# 2 -0.003193 0.012250 -0.001655 0.000000 0.000000 0.000000
# 3 -0.001655 -0.001655 0.012252 0.000000 0.000000 0.000000
# 4 0.000000 0.000000 0.000000 0.028908 0.000000 0.000000
# 5 0.000000 0.000000 0.000000 0.000000 0.028908 0.000000
# 6 0.000000 0.000000 0.000000 0.000000 0.000000 0.028183
#
#
# Mechanical properties :
#
#
# Convention : Reuss Voigt Hill
#
# Bulk Modulus (GPa) = 42.11013 42.32056 42.21534
# Shear Modulus (GPa) = 34.80174 34.91277 34.85725
#
# Velocity S-wave (km/s) = 3.88540 3.89159 3.88850
# Velocity P-wave (km/s) = 6.19637 6.20891 6.20264
#
# Compressibility (1/GPa) = 0.02374726
#
# Stress axis : x y z
#
# Youngs Moduli (GPa) = 81.63339 81.63339 81.61968
#
# Poissons Ratio (x) = 0.26064 0.13506
# Poissons Ratio (y) = 0.26064 0.13506
# Poissons Ratio (z) = 0.13508 0.13508
#
# Static dielectric constant tensor:
#      x y z
#    x 4.306050 0.000000 0.000000 
#    y 0.000000 4.306050 0.000000 
#    z 0.000000 0.000000 4.151750 
# 
# 
# High freq. dielectric constant tensor:
#      x y z
#    x 1.913050 0.000000 0.000000 
#    y 0.000000 1.913050 0.000000 
#    z 0.000000 0.000000 1.916230 
# 
# From -- ./inp_files/3782.got.cif
#   From: 2010.03.12/outbox.cif.g09.slc.cpg/sg92_2_cif.got.tgz:3782.got - 2010.04.08 20:41:11.
