data_PCOD8305466
_publ_section_title
;
Structure prediction by ZEFSAII (Michael W. Deem and Ramdas Pophale) SiO2 
 PCOD8305466
Probable space group: P 41 21 2
;
_chemical_formula_sum "Si O2"
_cell_formula_units_Z 36
_cell_length_a 8.507229
_cell_length_b 8.507229
_cell_length_c 20.466574
_cell_angle_alpha 90.000000
_cell_angle_beta 90.000000
_cell_angle_gamma 90.000000
_cell_volume 1481.226240
_symmetry_space_group_name_H-M "P 41 21 2"
_symmetry_group_IT_number 92
_symmetry_cell_setting 'tetragonal'
loop_
_space_group_symop_operation_xyz
x,y,z
1/2-y,1/2+x,1/4+z
-x,-y,1/2+z
1/2+y,1/2-x,3/4+z
1/2+x,1/2-y,3/4-z
1/2-x,1/2+y,1/4-z
y,x,-z
-y,-x,1/2-z
loop_
_atom_site_type_symbol
_atom_site_label
_atom_site_fract_x
_atom_site_fract_y
_atom_site_fract_z
Si Si1 0.787771 0.998619 0.455032
Si Si2 0.742735 0.742735 0.000000
Si Si3 0.278263 0.412291 0.065727
Si Si4 0.113591 0.223365 0.245331
Si Si5 0.575159 0.407693 0.137198
O O1 0.885824 0.885824 0.500000
O O2 0.649895 0.898384 0.417023
O O3 0.710001 0.117032 0.506234
O O4 0.907879 0.089959 0.407207
O O5 0.564731 0.763225 0.025736
O O6 0.787177 0.857709 0.940386
O O7 0.391851 0.364030 0.125521
O O8 0.326063 0.326063 0.000000
O O9 0.301283 0.599530 0.053229
O O10 0.110418 0.165558 0.319754
#
# Coordination Sequence:
#
# PCOD8305466 Si02
#       5
#     8   4   8   8   8
#     4  11  25  43  68 102 135 176 233 291 345 423
#     4  12  24  44  72 104 132 194 236 288 356 442
#     4   9  22  46  68  99 138 179 224 290 357 417
#     4  11  24  46  70  98 142 187 231 286 365 431
#     4  11  23  46  68 103 137 178 245 284 358 423
#
# _framework density 24.304189000000001
#
# number of rings (size 3 to 8) (size 9 to 14) (size 15 to 20)
#    0.000    1.333    4.444    1.333    3.111    3.556 
#    4.000    0.000    0.000    0.000    0.000    0.000 
#    0.000    0.000    0.000    0.000    0.000    0.000 
#
# Total GULP energy -446199.222783 kJ/mol
# GULP energy per Si atom -12394.422855 kJ/mol
# Density = 2.424887 g / cm^3
# Si number density = 24.304189 Si / 1000 Ang^3
#
#
#
# Elastic Constant Matrix: (Units=GPa)
#
#
# Indices 1 2 3 4 5 6 
#
# 1 107.2479 80.0471 3.6040 0.0000 0.0000 0.0000
# 2 80.0471 107.2479 3.6040 0.0000 0.0000 0.0000
# 3 3.6040 3.6040 44.2542 0.0000 0.0000 0.0000
# 4 0.0000 0.0000 0.0000 30.3552 0.0000 0.0000
# 5 0.0000 0.0000 0.0000 0.0000 30.3552 0.0000
# 6 0.0000 0.0000 0.0000 0.0000 0.0000 57.6889
#
#
#
# Elastic Compliance Matrix: (Units=1/GPa)
#
#
# Indices 1 2 3 4 5 6 
#
# 1 0.021060 -0.015704 -0.000436 0.000000 0.000000 0.000000
# 2 -0.015704 0.021060 -0.000436 0.000000 0.000000 0.000000
# 3 -0.000436 -0.000436 0.022668 0.000000 0.000000 0.000000
# 4 0.000000 0.000000 0.000000 0.032943 0.000000 0.000000
# 5 0.000000 0.000000 0.000000 0.000000 0.032943 0.000000
# 6 0.000000 0.000000 0.000000 0.000000 0.000000 0.017334
#
#
# Mechanical properties :
#
#
# Convention : Reuss Voigt Hill
#
# Bulk Modulus (GPa) = 31.61057 48.14002 39.87530
# Shear Modulus (GPa) = 26.08167 35.11288 30.59728
#
# Velocity S-wave (km/s) = 3.27943 3.80508 3.55199
# Velocity P-wave (km/s) = 5.23202 6.25741 5.76754
#
# Compressibility (1/GPa) = 0.03163499
#
# Stress axis : x y z
#
# Youngs Moduli (GPa) = 47.48389 47.48389 44.11546
#
# Poissons Ratio (x) = 0.74568 0.01924
# Poissons Ratio (y) = 0.74568 0.01924
# Poissons Ratio (z) = 0.02071 0.02071
#
# Static dielectric constant tensor:
#      x y z
#    x 4.984840 0.000000 0.000000 
#    y 0.000000 4.984840 0.000000 
#    z 0.000000 0.000000 4.392510 
# 
# 
# High freq. dielectric constant tensor:
#      x y z
#    x 1.964210 0.000000 0.000000 
#    y 0.000000 1.964210 0.000000 
#    z 0.000000 0.000000 1.968240 
# 
# From -- ./inp_files/3450.got.cif
#   From: 2010.03.12/outbox.cif.g09.slc.cpg/sg92_2_cif.got.tgz:3450.got - 2010.04.08 20:41:11.
