data_PCOD8305288
_publ_section_title
;
Structure prediction by ZEFSAII (Michael W. Deem and Ramdas Pophale) SiO2 
 PCOD8305288
Probable space group: P 41 21 2
;
_chemical_formula_sum "Si O2"
_cell_formula_units_Z 36
_cell_length_a 9.370695
_cell_length_b 9.370695
_cell_length_c 20.176107
_cell_angle_alpha 90.000000
_cell_angle_beta 90.000000
_cell_angle_gamma 90.000000
_cell_volume 1771.662438
_symmetry_space_group_name_H-M "P 41 21 2"
_symmetry_group_IT_number 92
_symmetry_cell_setting 'tetragonal'
loop_
_space_group_symop_operation_xyz
x,y,z
1/2-y,1/2+x,1/4+z
-x,-y,1/2+z
1/2+y,1/2-x,3/4+z
1/2+x,1/2-y,3/4-z
1/2-x,1/2+y,1/4-z
y,x,-z
-y,-x,1/2-z
loop_
_atom_site_type_symbol
_atom_site_label
_atom_site_fract_x
_atom_site_fract_y
_atom_site_fract_z
Si Si1 0.101269 0.875113 0.098477
Si Si2 0.864616 0.830894 0.653845
Si Si3 0.097493 0.145762 0.306630
Si Si4 0.644779 0.355222 0.250000
Si Si5 0.330597 0.275771 0.608707
O O1 0.227972 0.765018 0.099787
O O2 0.001795 0.849967 0.161901
O O3 0.012527 0.845828 0.031522
O O4 0.162677 0.035370 0.105042
O O5 0.910047 0.878043 0.728192
O O6 0.002799 0.744231 0.628935
O O7 0.224478 0.258664 0.322459
O O8 0.942687 0.193437 0.338082
O O9 0.666006 0.232332 0.304407
#
# Coordination Sequence:
#
# PCOD8305288 Si02
#       5
#     8   8   8   4   8
#     4  10  24  41  62  94 129 164 206 256 323 361
#     4  11  23  44  60  94 129 168 204 267 310 376
#     4  10  22  41  67  89 129 164 210 268 303 379
#     4  10  20  42  64  90 122 162 212 260 298 376
#     4  10  20  40  66  93 118 163 215 253 313 363
#
# _framework density 20.319896
#
# number of rings (size 3 to 8) (size 9 to 14) (size 15 to 20)
#    0.000    1.778    2.222    2.000    9.333    3.556 
#    4.000    0.000    0.000    0.000    0.000    0.000 
#    0.000    0.000    0.000    0.000    0.000    0.000 
#
# Total GULP energy -446111.711968 kJ/mol
# GULP energy per Si atom -12391.991999 kJ/mol
# Density = 2.027365 g / cm^3
# Si number density = 20.319896 Si / 1000 Ang^3
#
#
#
# Elastic Constant Matrix: (Units=GPa)
#
#
# Indices 1 2 3 4 5 6 
#
# 1 120.8006 92.8240 17.1839 0.0000 0.0000 0.0000
# 2 92.8240 120.8009 17.1841 0.0000 0.0000 0.0000
# 3 17.1839 17.1841 29.9705 0.0000 0.0000 0.0000
# 4 0.0000 0.0000 0.0000 27.3615 0.0000 0.0000
# 5 0.0000 0.0000 0.0000 0.0000 27.3614 0.0000
# 6 0.0000 0.0000 0.0000 0.0000 0.0000 43.8058
#
#
#
# Elastic Compliance Matrix: (Units=1/GPa)
#
#
# Indices 1 2 3 4 5 6 
#
# 1 0.020450 -0.015294 -0.002957 0.000000 0.000000 0.000000
# 2 -0.015294 0.020450 -0.002957 0.000000 0.000000 0.000000
# 3 -0.002957 -0.002957 0.036757 0.000000 0.000000 0.000000
# 4 0.000000 0.000000 0.000000 0.036548 0.000000 0.000000
# 5 0.000000 0.000000 0.000000 0.000000 0.036548 0.000000
# 6 0.000000 0.000000 0.000000 0.000000 0.000000 0.022828
#
#
# Mechanical properties :
#
#
# Convention : Reuss Voigt Hill
#
# Bulk Modulus (GPa) = 28.37411 58.43957 43.40684
# Shear Modulus (GPa) = 21.95460 29.33108 25.64284
#
# Velocity S-wave (km/s) = 3.29058 3.80342 3.55626
# Velocity P-wave (km/s) = 5.33210 6.93615 6.18634
#
# Compressibility (1/GPa) = 0.03524340
#
# Stress axis : x y z
#
# Youngs Moduli (GPa) = 48.89888 48.89892 27.20593
#
# Poissons Ratio (x) = 0.74784 0.08044
# Poissons Ratio (y) = 0.74784 0.08044
# Poissons Ratio (z) = 0.14457 0.14459
#
# Static dielectric constant tensor:
#      x y z
#    x 3.768050 0.000000 0.000000 
#    y 0.000000 3.768050 0.000000 
#    z 0.000000 0.000000 3.950610 
# 
# 
# High freq. dielectric constant tensor:
#      x y z
#    x 1.791580 0.000000 0.000000 
#    y 0.000000 1.791580 0.000000 
#    z 0.000000 0.000000 1.795420 
# 
# From -- ./inp_files/3462.got.cif
#   From: 2010.03.12/outbox.cif.g09.slc.cpg/sg92_2_cif.got.tgz:3462.got - 2010.04.08 20:41:11.
