data_PCOD8305907
_publ_section_title
;
Structure prediction by ZEFSAII (Michael W. Deem and Ramdas Pophale) SiO2 
 PCOD8305907
Probable space group: P 43 21 2
;
_chemical_formula_sum "Si O2"
_cell_formula_units_Z 52
_cell_length_a 16.386106
_cell_length_b 16.386106
_cell_length_c 8.995659
_cell_angle_alpha 90.000000
_cell_angle_beta 90.000000
_cell_angle_gamma 90.000000
_cell_volume 2415.374651
_symmetry_space_group_name_H-M "P 43 21 2"
_symmetry_group_IT_number 96
_symmetry_cell_setting 'tetragonal'
loop_
_space_group_symop_operation_xyz
x,y,z
1/2-y,1/2+x,3/4+z
-x,-y,1/2+z
1/2+y,1/2-x,1/4+z
1/2+x,1/2-y,1/4-z
1/2-x,1/2+y,3/4-z
y,x,-z
-y,-x,1/2-z
loop_
_atom_site_type_symbol
_atom_site_label
_atom_site_fract_x
_atom_site_fract_y
_atom_site_fract_z
Si Si1 0.218351 0.781650 0.750000
Si Si2 0.515375 0.844169 0.760229
Si Si3 0.622011 0.029356 0.196597
Si Si4 0.573579 0.310941 0.675486
Si Si5 0.862606 0.370670 0.719602
Si Si6 0.597457 0.742962 0.245549
Si Si7 0.118144 0.221041 0.902388
O O1 0.199040 0.842470 0.612852
O O2 0.211384 0.689625 0.681489
O O3 0.543962 0.821549 0.593874
O O4 0.466997 0.764973 0.814891
O O5 0.462624 0.924969 0.726920
O O6 0.586561 0.868317 0.875722
O O7 0.600056 0.935795 0.149527
O O8 0.674020 0.064506 0.063763
O O9 0.607824 0.392177 0.750000
O O10 0.604636 0.229986 0.754829
O O11 0.475223 0.316673 0.691422
O O12 0.610589 0.311748 0.512210
O O13 0.858616 0.278856 0.651780
O O14 0.140174 0.140174 0.000000
#
# Coordination Sequence:
#
# PCOD8305907 Si02
#       7
#     4   8   8   8   8   8   8
#     4  10  20  38  66  88 116 174 212 268 308 398
#     4  12  23  35  55  88 127 173 215 252 310 383
#     4  11  23  33  53  85 128 176 202 248 309 382
#     4  11  24  41  62  93 125 169 210 275 327 376
#     4  11  24  38  55  90 139 167 212 263 312 397
#     4  11  22  40  60  90 124 165 220 260 322 381
#     4  10  21  39  61  85 126 168 218 254 312 381
#
# _framework density 21.528751
#
# number of rings (size 3 to 8) (size 9 to 14) (size 15 to 20)
#    0.462    0.615    4.615    1.846    8.615    0.000 
#    0.000    0.000    0.000    0.000   10.000    0.000 
#    0.000    0.000    0.000    0.000    0.000    0.000 
#
# Total GULP energy -644228.799848 kJ/mol
# GULP energy per Si atom -12389.015382 kJ/mol
# Density = 2.147975 g / cm^3
# Si number density = 21.528751 Si / 1000 Ang^3
#
#
#
# Elastic Constant Matrix: (Units=GPa)
#
#
# Indices 1 2 3 4 5 6 
#
# 1 -158.6127 185.2755 1.4708 0.0000 0.0000 0.0000
# 2 185.2755 -158.6098 1.4448 0.0000 0.0000 0.0000
# 3 1.4708 1.4448 100.3455 0.0000 0.0000 0.0000
# 4 0.0000 0.0000 0.0000 34.6008 0.0000 0.0000
# 5 0.0000 0.0000 0.0000 0.0000 34.6008 0.0000
# 6 0.0000 0.0000 0.0000 0.0000 0.0000 28.6333
#
#
#
# Elastic Compliance Matrix: (Units=1/GPa)
#
#
# Indices 1 2 3 4 5 6 
#
# 1 0.017327 0.020235 -0.000545 0.000000 0.000000 0.000000
# 2 0.020235 0.017328 -0.000546 0.000000 0.000000 0.000000
# 3 -0.000545 -0.000546 0.009981 0.000000 0.000000 0.000000
# 4 0.000000 0.000000 0.000000 0.028901 0.000000 0.000000
# 5 0.000000 0.000000 0.000000 0.000000 0.028901 0.000000
# 6 0.000000 0.000000 0.000000 0.000000 0.000000 0.034924
#
#
# Mechanical properties :
#
#
# Convention : Reuss Voigt Hill
#
# Bulk Modulus (GPa) = 12.05914 17.72281 14.89098
# Shear Modulus (GPa) = 39.45814 -7.43758 16.01028
#
# Velocity S-wave (km/s) = 4.28578 -1.86070 2.72999
# Velocity P-wave (km/s) = 5.48672 1.90624 4.10718
#
# Compressibility (1/GPa) = 0.08292467
#
# Stress axis : x y z
#
# Youngs Moduli (GPa) = 57.71219 57.71087 100.18614
#
# Poissons Ratio (x) = -1.16781 0.05464
# Poissons Ratio (y) = -1.16783 0.05471
# Poissons Ratio (z) = 0.03147 0.03152
#
# Static dielectric constant tensor:
#      x y z
#    x 3.682610 0.000000 0.000000 
#    y 0.000000 3.682620 0.000000 
#    z 0.000000 0.000000 4.886630 
# 
# 
# High freq. dielectric constant tensor:
#      x y z
#    x 1.818810 0.000000 0.000000 
#    y 0.000000 1.818810 0.000000 
#    z 0.000000 0.000000 1.870500 
# 
# From -- ./inp_files/1570.got.cif
#   From: 2010.03.12/outbox.cif.g09.slc.cpg/sg96_1_cif.got.tgz:1570.got - 2010.04.08 20:56:49.
