data_PCOD8305922
_publ_section_title
;
Structure prediction by ZEFSAII (Michael W. Deem and Ramdas Pophale) SiO2 
 PCOD8305922
Probable space group: P 43 21 2
;
_chemical_formula_sum "Si O2"
_cell_formula_units_Z 60
_cell_length_a 19.474001
_cell_length_b 19.474001
_cell_length_c 7.860034
_cell_angle_alpha 90.000000
_cell_angle_beta 90.000000
_cell_angle_gamma 90.000000
_cell_volume 2980.813474
_symmetry_space_group_name_H-M "P 43 21 2"
_symmetry_group_IT_number 96
_symmetry_cell_setting 'tetragonal'
loop_
_space_group_symop_operation_xyz
x,y,z
1/2-y,1/2+x,3/4+z
-x,-y,1/2+z
1/2+y,1/2-x,1/4+z
1/2+x,1/2-y,1/4-z
1/2-x,1/2+y,3/4-z
y,x,-z
-y,-x,1/2-z
loop_
_atom_site_type_symbol
_atom_site_label
_atom_site_fract_x
_atom_site_fract_y
_atom_site_fract_z
Si Si1 0.723177 0.455883 0.808378
Si Si2 0.527188 0.578603 0.172779
Si Si3 0.801680 0.801680 0.000000
Si Si4 0.926856 0.539499 0.451326
Si Si5 0.277742 0.005645 0.803022
Si Si6 0.721944 0.765667 0.689033
Si Si7 0.395245 0.330017 0.157779
Si Si8 0.813805 0.422796 0.104703
O O1 0.658029 0.505304 0.835101
O O2 0.702701 0.377765 0.819133
O O3 0.760353 0.462012 0.628081
O O4 0.773837 0.470489 0.967962
O O5 0.465556 0.534445 0.250000
O O6 0.601239 0.575566 0.259685
O O7 0.539884 0.539884 0.000000
O O8 0.781193 0.756187 0.833530
O O9 0.952163 0.467542 0.376473
O O10 0.845198 0.539874 0.480816
O O11 0.943237 0.605977 0.334583
O O12 0.213299 0.960913 0.856997
O O13 0.289110 0.061860 0.951597
O O14 0.748553 0.748553 0.500000
O O15 0.659112 0.717830 0.759147
O O16 0.694909 0.843192 0.686520
O O17 0.349961 0.349961 0.000000
#
# Coordination Sequence:
#
# PCOD8305922 Si02
#       8
#     8   8   4   8   8   8   8   8
#     4  11  23  42  66  95 128 170 221 267 328 395
#     4  12  26  43  65  97 134 177 229 280 345 407
#     4  10  22  40  64  92 128 162 210 272 318 390
#     4  10  23  41  64  95 134 171 218 269 332 401
#     4  11  22  42  66  93 129 174 217 266 330 390
#     4  10  21  39  63  94 124 165 211 263 325 380
#     4  11  22  41  65  91 132 172 218 279 327 394
#     4  10  22  42  63  96 129 168 215 273 320 395
#
# _framework density 20.128733
#
# number of rings (size 3 to 8) (size 9 to 14) (size 15 to 20)
#    0.000    1.333    3.333    2.000    2.800    0.000 
#    0.000    1.333    0.000    0.000    0.000    0.000 
#    0.000    0.000    0.000    0.000    0.000    0.000 
#
# Total GULP energy -743438.620807 kJ/mol
# GULP energy per Si atom -12390.643680 kJ/mol
# Density = 2.008292 g / cm^3
# Si number density = 20.128733 Si / 1000 Ang^3
#
#
#
# Elastic Constant Matrix: (Units=GPa)
#
#
# Indices 1 2 3 4 5 6 
#
# 1 94.8485 20.1879 21.2125 0.0000 0.0000 0.0000
# 2 20.1879 94.8417 21.2071 0.0000 0.0000 0.0000
# 3 21.2125 21.2071 98.5514 0.0000 0.0000 0.0000
# 4 0.0000 0.0000 0.0000 16.8680 0.0000 0.0000
# 5 0.0000 0.0000 0.0000 0.0000 16.8692 0.0000
# 6 0.0000 0.0000 0.0000 0.0000 0.0000 31.9622
#
#
#
# Elastic Compliance Matrix: (Units=1/GPa)
#
#
# Indices 1 2 3 4 5 6 
#
# 1 0.011418 -0.001976 -0.002032 0.000000 0.000000 0.000000
# 2 -0.001976 0.011419 -0.002032 0.000000 0.000000 0.000000
# 3 -0.002032 -0.002032 0.011022 0.000000 0.000000 0.000000
# 4 0.000000 0.000000 0.000000 0.059284 0.000000 0.000000
# 5 0.000000 0.000000 0.000000 0.000000 0.059280 0.000000
# 6 0.000000 0.000000 0.000000 0.000000 0.000000 0.031287
#
#
# Mechanical properties :
#
#
# Convention : Reuss Voigt Hill
#
# Bulk Modulus (GPa) = 45.91775 45.93960 45.92868
# Shear Modulus (GPa) = 24.62456 28.18216 26.40336
#
# Velocity S-wave (km/s) = 3.50144 3.74585 3.62570
# Velocity P-wave (km/s) = 6.26166 6.44833 6.35568
#
# Compressibility (1/GPa) = 0.02177807
#
# Stress axis : x y z
#
# Youngs Moduli (GPa) = 87.57892 87.57462 90.73012
#
# Poissons Ratio (x) = 0.17305 0.18441
# Poissons Ratio (y) = 0.17306 0.18435
# Poissons Ratio (z) = 0.17800 0.17794
#
# Static dielectric constant tensor:
#      x y z
#    x 3.757390 0.000000 0.000000 
#    y 0.000000 3.757350 0.000000 
#    z 0.000000 0.000000 4.128410 
# 
# 
# High freq. dielectric constant tensor:
#      x y z
#    x 1.795580 0.000000 0.000000 
#    y 0.000000 1.795580 0.000000 
#    z 0.000000 0.000000 1.780930 
# 
# From -- ./inp_files/1603.got.cif
#   From: 2010.03.12/outbox.cif.g09.slc.cpg/sg96_1_cif.got.tgz:1603.got - 2010.04.08 20:56:49.
