data_PCOD8305328
_publ_section_title
;
Structure prediction by ZEFSAII (Michael W. Deem and Ramdas Pophale) SiO2 
 PCOD8305328
Probable space group: P 41 21 2
;
_chemical_formula_sum "Si O2"
_cell_formula_units_Z 40
_cell_length_a 14.174933
_cell_length_b 14.174933
_cell_length_c 8.726036
_cell_angle_alpha 90.000000
_cell_angle_beta 90.000000
_cell_angle_gamma 90.000000
_cell_volume 1753.311293
_symmetry_space_group_name_H-M "P 41 21 2"
_symmetry_group_IT_number 92
_symmetry_cell_setting 'tetragonal'
loop_
_space_group_symop_operation_xyz
x,y,z
1/2-y,1/2+x,1/4+z
-x,-y,1/2+z
1/2+y,1/2-x,3/4+z
1/2+x,1/2-y,3/4-z
1/2-x,1/2+y,1/4-z
y,x,-z
-y,-x,1/2-z
loop_
_atom_site_type_symbol
_atom_site_label
_atom_site_fract_x
_atom_site_fract_y
_atom_site_fract_z
Si Si1 0.273881 0.394860 0.106945
Si Si2 0.339147 0.745137 0.978458
Si Si3 0.657672 0.835279 0.929601
Si Si4 0.329774 0.463663 0.437647
Si Si5 0.996497 0.601241 0.271350
O O1 0.199085 0.311071 0.136319
O O2 0.318575 0.438531 0.259528
O O3 0.210508 0.471762 0.018521
O O4 0.358928 0.358928 0.000000
O O5 0.379336 0.811031 0.842002
O O6 0.251294 0.684443 0.919073
O O7 0.424014 0.680797 0.041539
O O8 0.591305 0.906041 0.837966
O O9 0.596739 0.741618 0.957315
O O10 0.433452 0.433452 0.500000
O O11 0.072713 0.529385 0.196066
#
# Coordination Sequence:
#
# PCOD8305328 Si02
#       5
#     8   8   8   8   8
#     4  11  24  43  64 100 142 182 226 289 370 426
#     4  10  21  40  71  92 135 184 235 274 358 429
#     4  10  21  42  67  97 136 182 224 293 361 408
#     4  11  22  42  71  98 129 189 234 290 347 433
#     4  12  27  39  66 103 139 175 235 302 356 428
#
# _framework density 22.813976
#
# number of rings (size 3 to 8) (size 9 to 14) (size 15 to 20)
#    0.000    1.200    4.000    3.600   11.200    0.000 
#    0.000    1.000    4.400    0.000    0.000    0.000 
#    0.000    0.000    0.000    0.000    0.000    0.000 
#
# Total GULP energy -496011.497599 kJ/mol
# GULP energy per Si atom -12400.287440 kJ/mol
# Density = 2.276205 g / cm^3
# Si number density = 22.813976 Si / 1000 Ang^3
#
#
#
# Elastic Constant Matrix: (Units=GPa)
#
#
# Indices 1 2 3 4 5 6 
#
# 1 68.5375 11.2976 20.5530 0.0000 0.0000 0.0000
# 2 11.2976 68.5375 20.5530 0.0000 0.0000 0.0000
# 3 20.5530 20.5530 89.2872 0.0000 0.0000 0.0000
# 4 0.0000 0.0000 0.0000 30.1552 0.0000 0.0000
# 5 0.0000 0.0000 0.0000 0.0000 30.1552 0.0000
# 6 0.0000 0.0000 0.0000 0.0000 0.0000 35.5151
#
#
#
# Elastic Compliance Matrix: (Units=1/GPa)
#
#
# Indices 1 2 3 4 5 6 
#
# 1 0.015840 -0.001630 -0.003271 0.000000 0.000000 0.000000
# 2 -0.001630 0.015840 -0.003271 0.000000 0.000000 0.000000
# 3 -0.003271 -0.003271 0.012706 0.000000 0.000000 0.000000
# 4 0.000000 0.000000 0.000000 0.033162 0.000000 0.000000
# 5 0.000000 0.000000 0.000000 0.000000 0.033162 0.000000
# 6 0.000000 0.000000 0.000000 0.000000 0.000000 0.028157
#
#
# Mechanical properties :
#
#
# Convention : Reuss Voigt Hill
#
# Bulk Modulus (GPa) = 35.66111 36.79658 36.22885
# Shear Modulus (GPa) = 30.38437 30.76232 30.57334
#
# Velocity S-wave (km/s) = 3.65339 3.67604 3.66473
# Velocity P-wave (km/s) = 5.78459 5.84651 5.81563
#
# Compressibility (1/GPa) = 0.02804175
#
# Stress axis : x y z
#
# Youngs Moduli (GPa) = 63.13059 63.13059 78.70478
#
# Poissons Ratio (x) = 0.10291 0.25744
# Poissons Ratio (y) = 0.10291 0.25744
# Poissons Ratio (z) = 0.20650 0.20650
#
# Static dielectric constant tensor:
#      x y z
#    x 3.963190 0.000000 0.000000 
#    y 0.000000 3.963190 0.000000 
#    z 0.000000 0.000000 4.098380 
# 
# 
# High freq. dielectric constant tensor:
#      x y z
#    x 1.888910 0.000000 0.000000 
#    y 0.000000 1.888910 0.000000 
#    z 0.000000 0.000000 1.906350 
# 
# From -- ./inp_files/1291.got.cif
#   From: 2010.03.12/outbox.cif.g09.slc.cpg/sg92_1_cif.got.tgz:1291.got - 2010.04.08 20:41:11.
