data_PCOD8305001
_publ_section_title
;
Structure prediction by ZEFSAII (Michael W. Deem and Ramdas Pophale) SiO2 
 PCOD8305001
Probable space group: P 41 2 2
;
_chemical_formula_sum "Si O2"
_cell_formula_units_Z 32
_cell_length_a 9.405311
_cell_length_b 9.405311
_cell_length_c 18.023503
_cell_angle_alpha 90.000000
_cell_angle_beta 90.000000
_cell_angle_gamma 90.000000
_cell_volume 1594.356823
_symmetry_space_group_name_H-M "P 41 2 2"
_symmetry_group_IT_number 91
_symmetry_cell_setting 'tetragonal'
loop_
_space_group_symop_operation_xyz
x,y,z
-y,x,1/4+z
-x,-y,1/2+z
y,-x,3/4+z
x,-y,1/2-z
-x,y,-z
y,x,3/4-z
-y,-x,1/4-z
loop_
_atom_site_type_symbol
_atom_site_label
_atom_site_fract_x
_atom_site_fract_y
_atom_site_fract_z
Si Si1 0.190757 0.390618 0.921324
Si Si2 0.444993 0.882113 0.832278
Si Si3 0.631271 0.337904 0.452795
Si Si4 0.231112 0.127679 0.298612
O O1 0.270976 0.270976 0.875000
O O2 0.276555 0.538696 0.914485
O O3 0.032797 0.391263 0.885568
O O4 0.169672 0.358388 0.009039
O O5 0.438299 0.755844 0.889570
O O6 0.607198 0.914086 0.813157
O O7 0.500000 0.404017 0.500000
O O8 0.725013 0.231467 0.503063
O O9 0.143410 0.143410 0.375000
O O10 0.161190 0.000000 0.250000
#
# Coordination Sequence:
#
# PCOD8305001 Si02
#       4
#     8   8   8   8
#     4  10  23  40  64  92 126 163 209 267 320 369
#     4  10  21  43  61  90 137 163 205 268 324 380
#     4  11  22  36  66  96 121 165 211 255 317 387
#     4  11  21  42  66  92 128 169 212 259 315 383
#
# _framework density 20.070791
#
# number of rings (size 3 to 8) (size 9 to 14) (size 15 to 20)
#    0.000    1.500    7.500    0.000    7.000    0.000 
#    9.000    1.250    0.000    0.000    0.000    0.000 
#    0.000    0.000    0.000    0.000    0.000    0.000 
#
# Total GULP energy -396607.473649 kJ/mol
# GULP energy per Si atom -12393.983552 kJ/mol
# Density = 2.002511 g / cm^3
# Si number density = 20.070791 Si / 1000 Ang^3
#
#
#
# Elastic Constant Matrix: (Units=GPa)
#
#
# Indices 1 2 3 4 5 6 
#
# 1 98.4412 32.2590 47.7436 0.0000 0.0000 0.0000
# 2 32.2590 98.4412 47.7436 0.0000 0.0000 0.0000
# 3 47.7436 47.7436 89.7122 0.0000 0.0000 0.0000
# 4 0.0000 0.0000 0.0000 39.6948 0.0000 0.0000
# 5 0.0000 0.0000 0.0000 0.0000 39.6948 0.0000
# 6 0.0000 0.0000 0.0000 0.0000 0.0000 14.3687
#
#
#
# Elastic Compliance Matrix: (Units=1/GPa)
#
#
# Indices 1 2 3 4 5 6 
#
# 1 0.013814 -0.001296 -0.006662 0.000000 0.000000 0.000000
# 2 -0.001296 0.013814 -0.006662 0.000000 0.000000 0.000000
# 3 -0.006662 -0.006662 0.018238 0.000000 0.000000 0.000000
# 4 0.000000 0.000000 0.000000 0.025192 0.000000 0.000000
# 5 0.000000 0.000000 0.000000 0.000000 0.025192 0.000000
# 6 0.000000 0.000000 0.000000 0.000000 0.000000 0.069596
#
#
# Mechanical properties :
#
#
# Convention : Reuss Voigt Hill
#
# Bulk Modulus (GPa) = 60.14676 60.23188 60.18932
# Shear Modulus (GPa) = 24.92179 29.34154 27.13167
#
# Velocity S-wave (km/s) = 3.52759 3.82763 3.68067
# Velocity P-wave (km/s) = 6.82819 7.04338 6.93662
#
# Compressibility (1/GPa) = 0.01662600
#
# Stress axis : x y z
#
# Youngs Moduli (GPa) = 72.39010 72.39010 54.83159
#
# Poissons Ratio (x) = 0.09380 0.36529
# Poissons Ratio (y) = 0.09380 0.36529
# Poissons Ratio (z) = 0.48227 0.48227
#
# Static dielectric constant tensor:
#      x y z
#    x 3.591480 0.000000 0.000000 
#    y 0.000000 3.591480 0.000000 
#    z 0.000000 0.000000 1.969090 
# 
# 
# High freq. dielectric constant tensor:
#      x y z
#    x 1.773920 0.000000 0.000000 
#    y 0.000000 1.773920 0.000000 
#    z 0.000000 0.000000 1.783640 
# 
# From -- ./inp_files/5976.got.cif
#   From: 2010.03.12/outbox.cif.g09.slc.cpg/sg91_3_cif.got.tgz:5976.got - 2010.04.08 20:27:58.
