data_PCOD8305312
_publ_section_title
;
Structure prediction by ZEFSAII (Michael W. Deem and Ramdas Pophale) SiO2 
 PCOD8305312
Probable space group: P 41 21 2
;
_chemical_formula_sum "Si O2"
_cell_formula_units_Z 36
_cell_length_a 15.323548
_cell_length_b 15.323548
_cell_length_c 8.509480
_cell_angle_alpha 90.000000
_cell_angle_beta 90.000000
_cell_angle_gamma 90.000000
_cell_volume 1998.120558
_symmetry_space_group_name_H-M "P 41 21 2"
_symmetry_group_IT_number 92
_symmetry_cell_setting 'tetragonal'
loop_
_space_group_symop_operation_xyz
x,y,z
1/2-y,1/2+x,1/4+z
-x,-y,1/2+z
1/2+y,1/2-x,3/4+z
1/2+x,1/2-y,3/4-z
1/2-x,1/2+y,1/4-z
y,x,-z
-y,-x,1/2-z
loop_
_atom_site_type_symbol
_atom_site_label
_atom_site_fract_x
_atom_site_fract_y
_atom_site_fract_z
Si Si1 0.684456 0.193969 0.459507
Si Si2 0.208744 0.960316 0.483323
Si Si3 0.803420 0.196581 0.750000
Si Si4 0.343729 0.343729 0.500000
Si Si5 0.982663 0.605743 0.901585
Si Si6 0.353080 0.646921 0.750000
O O1 0.720765 0.202371 0.634841
O O2 0.754082 0.148596 0.345973
O O3 0.597913 0.134963 0.458606
O O4 0.664286 0.290678 0.397602
O O5 0.201711 0.894979 0.338534
O O6 0.153862 0.925013 0.632219
O O7 0.310289 0.969246 0.526544
O O8 0.163253 0.050284 0.433546
O O9 0.049113 0.549990 0.798479
#
# Coordination Sequence:
#
# PCOD8305312 Si02
#       6
#     8   8   4   4   8   4
#     4   9  19  39  55  81 114 156 183 230 294 352
#     4  10  21  38  59  84 112 158 189 244 285 347
#     4  10  22  37  60  84 116 153 196 230 286 358
#     4   9  16  37  58  72 112 151 189 222 298 342
#     4  11  23  38  59  90 121 152 194 247 292 343
#     4   9  20  38  60  80 114 150 199 232 294 338
#
# _framework density 18.016931
#
# number of rings (size 3 to 8) (size 9 to 14) (size 15 to 20)
#    0.000    2.222    2.222    0.000    6.222    0.889 
#    4.000    0.000    0.000    0.000    0.000    0.000 
#    0.000    0.000    0.000    0.000    0.000    0.000 
#
# Total GULP energy -446463.503852 kJ/mol
# GULP energy per Si atom -12401.763996 kJ/mol
# Density = 1.797592 g / cm^3
# Si number density = 18.016931 Si / 1000 Ang^3
#
#
#
# Elastic Constant Matrix: (Units=GPa)
#
#
# Indices 1 2 3 4 5 6 
#
# 1 101.6269 55.0892 52.4320 0.0000 0.0000 0.0000
# 2 55.0892 101.6266 52.4327 0.0000 0.0000 0.0000
# 3 52.4320 52.4327 114.5874 0.0000 0.0000 0.0000
# 4 0.0000 0.0000 0.0000 24.4691 0.0000 0.0000
# 5 0.0000 0.0000 0.0000 0.0000 24.4681 0.0000
# 6 0.0000 0.0000 0.0000 0.0000 0.0000 31.5823
#
#
#
# Elastic Compliance Matrix: (Units=1/GPa)
#
#
# Indices 1 2 3 4 5 6 
#
# 1 0.015342 -0.006146 -0.004208 0.000000 0.000000 0.000000
# 2 -0.006146 0.015343 -0.004208 0.000000 0.000000 0.000000
# 3 -0.004208 -0.004208 0.012578 0.000000 0.000000 0.000000
# 4 0.000000 0.000000 0.000000 0.040868 0.000000 0.000000
# 5 0.000000 0.000000 0.000000 0.000000 0.040870 0.000000
# 6 0.000000 0.000000 0.000000 0.000000 0.000000 0.031663
#
#
# Mechanical properties :
#
#
# Convention : Reuss Voigt Hill
#
# Bulk Modulus (GPa) = 70.72703 70.86096 70.79400
# Shear Modulus (GPa) = 26.24659 26.62970 26.43815
#
# Velocity S-wave (km/s) = 3.82091 3.84870 3.83483
# Velocity P-wave (km/s) = 7.66857 7.69191 7.68025
#
# Compressibility (1/GPa) = 0.01413887
#
# Stress axis : x y z
#
# Youngs Moduli (GPa) = 65.17905 65.17830 79.50287
#
# Poissons Ratio (x) = 0.40056 0.33456
# Poissons Ratio (y) = 0.40056 0.33458
# Poissons Ratio (z) = 0.27428 0.27429
#
# Static dielectric constant tensor:
#      x y z
#    x 3.423650 0.000000 0.000000 
#    y 0.000000 3.423660 0.000000 
#    z 0.000000 0.000000 3.221990 
# 
# 
# High freq. dielectric constant tensor:
#      x y z
#    x 1.702250 0.000000 0.000000 
#    y 0.000000 1.702250 0.000000 
#    z 0.000000 0.000000 1.690630 
# 
# From -- ./inp_files/1261.got.cif
#   From: 2010.03.12/outbox.cif.g09.slc.cpg/sg92_1_cif.got.tgz:1261.got - 2010.04.08 20:41:11.
