data_PCOD8305943
_publ_section_title
;
Structure prediction by ZEFSAII (Michael W. Deem and Ramdas Pophale) SiO2 
 PCOD8305943
Probable space group: P 43 21 2
;
_chemical_formula_sum "Si O2"
_cell_formula_units_Z 40
_cell_length_a 8.919744
_cell_length_b 8.919744
_cell_length_c 24.998027
_cell_angle_alpha 90.000000
_cell_angle_beta 90.000000
_cell_angle_gamma 90.000000
_cell_volume 1988.888850
_symmetry_space_group_name_H-M "P 43 21 2"
_symmetry_group_IT_number 96
_symmetry_cell_setting 'tetragonal'
loop_
_space_group_symop_operation_xyz
x,y,z
1/2-y,1/2+x,3/4+z
-x,-y,1/2+z
1/2+y,1/2-x,1/4+z
1/2+x,1/2-y,1/4-z
1/2-x,1/2+y,3/4-z
y,x,-z
-y,-x,1/2-z
loop_
_atom_site_type_symbol
_atom_site_label
_atom_site_fract_x
_atom_site_fract_y
_atom_site_fract_z
Si Si1 0.993299 0.993299 0.500000
Si Si2 0.498913 0.498913 0.500000
Si Si3 0.893972 0.192605 0.349251
Si Si4 0.776942 0.864243 0.068341
Si Si5 0.002195 0.716961 0.564735
Si Si6 0.673546 0.062792 0.721743
O O1 0.021492 0.817184 0.511219
O O2 0.054394 0.083449 0.551575
O O3 0.593857 0.549610 0.550509
O O4 0.526968 0.322551 0.489282
O O5 0.790199 0.328101 0.329848
O O6 0.041593 0.262192 0.378820
O O7 0.787656 0.094346 0.386773
O O8 0.782803 0.683513 0.075187
O O9 0.654483 0.898481 0.021678
O O10 0.053551 0.549871 0.551544
#
# Coordination Sequence:
#
# PCOD8305943 Si02
#       6
#     4   4   8   8   8   8
#     4   8  18  36  56  78 110 142 180 234 284 340
#     4  10  22  40  56  82 122 154 192 246 294 350
#     4  11  23  37  57  85 120 158 195 241 297 358
#     4   8  19  40  59  81 113 152 192 232 294 361
#     4  11  22  37  59  86 113 148 193 241 293 348
#     4   9  20  39  61  84 112 147 196 248 295 353
#
# _framework density 20.111733000000001
#
# number of rings (size 3 to 8) (size 9 to 14) (size 15 to 20)
#    0.000    2.800    0.000    1.800    0.000   11.200 
#    0.000    6.000    0.000    0.000    0.000    0.000 
#    0.000    0.000    0.000    0.000    0.000    0.000 
#
# Total GULP energy -495680.598722 kJ/mol
# GULP energy per Si atom -12392.014968 kJ/mol
# Density = 2.006596 g / cm^3
# Si number density = 20.111733 Si / 1000 Ang^3
#
#
#
# Elastic Constant Matrix: (Units=GPa)
#
#
# Indices 1 2 3 4 5 6 
#
# 1 107.2099 53.9970 51.9183 0.0000 0.0000 0.0000
# 2 53.9970 107.2099 51.9183 0.0000 0.0000 0.0000
# 3 51.9183 51.9183 91.9778 0.0000 0.0000 0.0000
# 4 0.0000 0.0000 0.0000 24.8601 0.0000 0.0000
# 5 0.0000 0.0000 0.0000 0.0000 24.8601 0.0000
# 6 0.0000 0.0000 0.0000 0.0000 0.0000 37.3517
#
#
#
# Elastic Compliance Matrix: (Units=1/GPa)
#
#
# Indices 1 2 3 4 5 6 
#
# 1 0.014270 -0.004523 -0.005502 0.000000 0.000000 0.000000
# 2 -0.004523 0.014270 -0.005502 0.000000 0.000000 0.000000
# 3 -0.005502 -0.005502 0.017083 0.000000 0.000000 0.000000
# 4 0.000000 0.000000 0.000000 0.040225 0.000000 0.000000
# 5 0.000000 0.000000 0.000000 0.000000 0.040225 0.000000
# 6 0.000000 0.000000 0.000000 0.000000 0.000000 0.026773
#
#
# Mechanical properties :
#
#
# Convention : Reuss Voigt Hill
#
# Bulk Modulus (GPa) = 68.63398 69.11832 68.87615
# Shear Modulus (GPa) = 26.48930 27.31864 26.90397
#
# Velocity S-wave (km/s) = 3.63313 3.68957 3.66146
# Velocity P-wave (km/s) = 7.19722 7.25206 7.22469
#
# Compressibility (1/GPa) = 0.01457004
#
# Stress axis : x y z
#
# Youngs Moduli (GPa) = 70.07824 70.07824 58.53620
#
# Poissons Ratio (x) = 0.31694 0.32206
# Poissons Ratio (y) = 0.31694 0.32206
# Poissons Ratio (z) = 0.38556 0.38556
#
# Static dielectric constant tensor:
#      x y z
#    x 3.707470 0.000000 0.000000 
#    y 0.000000 3.707470 0.000000 
#    z 0.000000 0.000000 3.563320 
# 
# 
# High freq. dielectric constant tensor:
#      x y z
#    x 1.788420 0.000000 0.000000 
#    y 0.000000 1.788420 0.000000 
#    z 0.000000 0.000000 1.766540 
# 
# From -- ./inp_files/4173.got.cif
#   From: 2010.03.12/outbox.cif.g09.slc.cpg/sg96_3_cif.got.tgz:4173.got - 2010.04.08 20:56:49.
