data_PCOD8305956
_publ_section_title
;
Structure prediction by ZEFSAII (Michael W. Deem and Ramdas Pophale) SiO2 
 PCOD8305956
Probable space group: P 43 21 2
;
_chemical_formula_sum "Si O2"
_cell_formula_units_Z 48
_cell_length_a 12.341583
_cell_length_b 12.341583
_cell_length_c 16.040922
_cell_angle_alpha 90.000000
_cell_angle_beta 90.000000
_cell_angle_gamma 90.000000
_cell_volume 2443.267756
_symmetry_space_group_name_H-M "P 43 21 2"
_symmetry_group_IT_number 96
_symmetry_cell_setting 'tetragonal'
loop_
_space_group_symop_operation_xyz
x,y,z
1/2-y,1/2+x,3/4+z
-x,-y,1/2+z
1/2+y,1/2-x,1/4+z
1/2+x,1/2-y,1/4-z
1/2-x,1/2+y,3/4-z
y,x,-z
-y,-x,1/2-z
loop_
_atom_site_type_symbol
_atom_site_label
_atom_site_fract_x
_atom_site_fract_y
_atom_site_fract_z
Si Si1 0.978781 0.149454 0.682613
Si Si2 0.542536 0.118940 0.927163
Si Si3 0.420144 0.045495 0.073860
Si Si4 0.939949 0.836229 0.924987
Si Si5 0.226636 0.867479 0.472964
Si Si6 0.828243 0.371229 0.011577
O O1 0.925842 0.074159 0.750000
O O2 0.881862 0.181694 0.620397
O O3 0.066578 0.073576 0.638806
O O4 0.034199 0.257076 0.720122
O O5 0.573203 0.225294 0.875209
O O6 0.652264 0.083429 0.974428
O O7 0.503113 0.026193 0.866231
O O8 0.453253 0.131914 0.001346
O O9 0.341730 0.103104 0.140176
O O10 0.358554 0.944660 0.031901
O O11 0.850409 0.850409 0.000000
O O12 0.060759 0.843852 0.962972
O O13 0.230695 0.743420 0.501710
#
# Coordination Sequence:
#
# PCOD8305956 Si02
#       6
#     8   8   8   8   8   8
#     4  11  23  39  63  94 125 162 207 261 315 373
#     4  11  19  38  63  87 121 157 205 251 311 368
#     4  10  23  37  62  92 123 159 205 257 309 383
#     4  10  23  39  60  89 124 162 205 258 313 373
#     4  11  22  39  60  90 120 160 207 255 314 368
#     4  11  22  40  61  90 125 160 205 262 315 376
#
# _framework density 19.645820000000001
#
# number of rings (size 3 to 8) (size 9 to 14) (size 15 to 20)
#    0.000    1.333    5.000    1.000    0.000    2.000 
#    0.000    0.000    0.000    0.000    0.000    0.000 
#    0.000    0.000    0.000    0.000    0.000    0.000 
#
# Total GULP energy -595062.785699 kJ/mol
# GULP energy per Si atom -12397.141369 kJ/mol
# Density = 1.960111 g / cm^3
# Si number density = 19.645820 Si / 1000 Ang^3
#
#
#
# Elastic Constant Matrix: (Units=GPa)
#
#
# Indices 1 2 3 4 5 6 
#
# 1 69.5192 25.7349 33.4755 0.0000 0.0000 0.0000
# 2 25.7349 69.5198 33.4756 0.0000 0.0000 0.0000
# 3 33.4755 33.4756 97.6070 0.0000 0.0000 0.0000
# 4 0.0000 0.0000 0.0000 35.7506 0.0000 0.0000
# 5 0.0000 0.0000 0.0000 0.0000 35.7494 0.0000
# 6 0.0000 0.0000 0.0000 0.0000 0.0000 21.4515
#
#
#
# Elastic Compliance Matrix: (Units=1/GPa)
#
#
# Indices 1 2 3 4 5 6 
#
# 1 0.018336 -0.004503 -0.004744 0.000000 0.000000 0.000000
# 2 -0.004503 0.018336 -0.004744 0.000000 0.000000 0.000000
# 3 -0.004744 -0.004744 0.013499 0.000000 0.000000 0.000000
# 4 0.000000 0.000000 0.000000 0.027972 0.000000 0.000000
# 5 0.000000 0.000000 0.000000 0.000000 0.027972 0.000000
# 6 0.000000 0.000000 0.000000 0.000000 0.000000 0.046617
#
#
# Mechanical properties :
#
#
# Convention : Reuss Voigt Hill
#
# Bulk Modulus (GPa) = 45.06892 46.89087 45.97990
# Shear Modulus (GPa) = 26.58011 28.18764 27.38387
#
# Velocity S-wave (km/s) = 3.68226 3.79197 3.73752
# Velocity P-wave (km/s) = 6.40853 6.56445 6.48696
#
# Compressibility (1/GPa) = 0.02218824
#
# Stress axis : x y z
#
# Youngs Moduli (GPa) = 54.53769 54.53811 74.07813
#
# Poissons Ratio (x) = 0.24560 0.35143
# Poissons Ratio (y) = 0.24559 0.35143
# Poissons Ratio (z) = 0.25873 0.25873
#
# Static dielectric constant tensor:
#      x y z
#    x 3.456290 0.000000 0.000000 
#    y 0.000000 3.456300 0.000000 
#    z 0.000000 0.000000 3.905620 
# 
# 
# High freq. dielectric constant tensor:
#      x y z
#    x 1.755390 0.000000 0.000000 
#    y 0.000000 1.755390 0.000000 
#    z 0.000000 0.000000 1.783180 
# 
# From -- ./inp_files/3133.got.cif
#   From: 2010.03.12/outbox.cif.g09.slc.cpg/sg96_2_cif.got.tgz:3133.got - 2010.04.08 20:56:49.
