data_PCOD8305045
_publ_section_title
;
Structure prediction by ZEFSAII (Michael W. Deem and Ramdas Pophale) SiO2 
 PCOD8305045
Probable space group: P 41 2 2
;
_chemical_formula_sum "Si O2"
_cell_formula_units_Z 44
_cell_length_a 11.564658
_cell_length_b 11.564658
_cell_length_c 16.547088
_cell_angle_alpha 90.000000
_cell_angle_beta 90.000000
_cell_angle_gamma 90.000000
_cell_volume 2213.029303
_symmetry_space_group_name_H-M "P 41 2 2"
_symmetry_group_IT_number 91
_symmetry_cell_setting 'tetragonal'
loop_
_space_group_symop_operation_xyz
x,y,z
-y,x,1/4+z
-x,-y,1/2+z
y,-x,3/4+z
x,-y,1/2-z
-x,y,-z
y,x,3/4-z
-y,-x,1/4-z
loop_
_atom_site_type_symbol
_atom_site_label
_atom_site_fract_x
_atom_site_fract_y
_atom_site_fract_z
Si Si1 0.796836 0.341376 0.187392
Si Si2 0.068241 0.769430 0.084229
Si Si3 0.409551 0.699835 0.402570
Si Si4 0.297614 0.712349 0.009710
Si Si5 0.363401 0.030106 0.489342
Si Si6 0.434945 0.434945 0.375000
O O1 0.753812 0.246189 0.125000
O O2 0.767204 0.469457 0.156093
O O3 0.735674 0.326113 0.274127
O O4 0.933363 0.317334 0.198480
O O5 0.106439 0.893562 0.125000
O O6 0.001226 0.686690 0.148650
O O7 0.186947 0.699726 0.067712
O O8 0.000000 0.790518 0.000000
O O9 0.353167 0.738621 0.320215
O O10 0.421695 0.562557 0.409421
O O11 0.319386 0.844553 0.984544
O O12 0.409309 0.653813 0.051632
O O13 0.500000 0.024452 0.500000
#
# Coordination Sequence:
#
# PCOD8305045 Si02
#       6
#     8   8   8   8   8   4
#     4  11  23  41  59  89 129 175 209 252 334 392
#     4  10  22  42  66  92 125 169 227 280 333 394
#     4  11  22  36  61  88 130 166 201 258 320 398
#     4  11  23  39  61  98 125 167 219 266 324 382
#     4  11  21  41  62  91 129 171 209 272 331 393
#     4  12  20  36  60  96 134 156 210 260 312 404
#
# _framework density 19.882249000000002
#
# number of rings (size 3 to 8) (size 9 to 14) (size 15 to 20)
#    0.000    1.091    5.455    3.818    2.545    0.000 
#    0.000    4.545    0.000    0.000    0.000    0.000 
#    0.000    0.000    0.000    0.000    0.000    0.000 
#
# Total GULP energy -545360.429612 kJ/mol
# GULP energy per Si atom -12394.555218 kJ/mol
# Density = 1.983700 g / cm^3
# Si number density = 19.882249 Si / 1000 Ang^3
#
#
#
# Elastic Constant Matrix: (Units=GPa)
#
#
# Indices 1 2 3 4 5 6 
#
# 1 81.8414 66.0095 50.3588 0.0000 0.0000 0.0000
# 2 66.0095 81.8422 50.3578 0.0000 0.0000 0.0000
# 3 50.3588 50.3578 127.5841 0.0000 0.0000 0.0000
# 4 0.0000 0.0000 0.0000 31.0133 0.0000 0.0000
# 5 0.0000 0.0000 0.0000 0.0000 31.0142 0.0000
# 6 0.0000 0.0000 0.0000 0.0000 0.0000 17.6766
#
#
#
# Elastic Compliance Matrix: (Units=1/GPa)
#
#
# Indices 1 2 3 4 5 6 
#
# 1 0.036207 -0.026955 -0.003652 0.000000 0.000000 0.000000
# 2 -0.026955 0.036206 -0.003651 0.000000 0.000000 0.000000
# 3 -0.003652 -0.003651 0.010720 0.000000 0.000000 0.000000
# 4 0.000000 0.000000 0.000000 0.032244 0.000000 0.000000
# 5 0.000000 0.000000 0.000000 0.000000 0.032243 0.000000
# 6 0.000000 0.000000 0.000000 0.000000 0.000000 0.056572
#
#
# Mechanical properties :
#
#
# Convention : Reuss Voigt Hill
#
# Bulk Modulus (GPa) = 68.41515 69.41332 68.91424
# Shear Modulus (GPa) = 18.01274 24.24360 21.12817
#
# Velocity S-wave (km/s) = 3.01320 3.49572 3.26339
# Velocity P-wave (km/s) = 6.82574 7.16110 6.99543
#
# Compressibility (1/GPa) = 0.01461665
#
# Stress axis : x y z
#
# Youngs Moduli (GPa) = 27.61911 27.61985 93.27996
#
# Poissons Ratio (x) = 0.74451 0.34064
# Poissons Ratio (y) = 0.74449 0.34056
# Poissons Ratio (z) = 0.10086 0.10084
#
# Static dielectric constant tensor:
#      x y z
#    x 3.738110 0.000000 0.000000 
#    y 0.000000 3.738110 0.000000 
#    z 0.000000 0.000000 3.993030 
# 
# 
# High freq. dielectric constant tensor:
#      x y z
#    x 1.767310 0.000000 0.000000 
#    y 0.000000 1.767310 0.000000 
#    z 0.000000 0.000000 1.788070 
# 
# From -- ./inp_files/5504.got.cif
#   From: 2010.03.12/outbox.cif.g09.slc.cpg/sg91_3_cif.got.tgz:5504.got - 2010.04.08 20:27:58.
