data_PCOD8305077
_publ_section_title
;
Structure prediction by ZEFSAII (Michael W. Deem and Ramdas Pophale) SiO2 
 PCOD8305077
Probable space group: P 41 2 2
;
_chemical_formula_sum "Si O2"
_cell_formula_units_Z 24
_cell_length_a 7.319976
_cell_length_b 7.319976
_cell_length_c 21.284076
_cell_angle_alpha 90.000000
_cell_angle_beta 90.000000
_cell_angle_gamma 90.000000
_cell_volume 1140.444396
_symmetry_space_group_name_H-M "P 41 2 2"
_symmetry_group_IT_number 91
_symmetry_cell_setting 'tetragonal'
loop_
_space_group_symop_operation_xyz
x,y,z
-y,x,1/4+z
-x,-y,1/2+z
y,-x,3/4+z
x,-y,1/2-z
-x,y,-z
y,x,3/4-z
-y,-x,1/4-z
loop_
_atom_site_type_symbol
_atom_site_label
_atom_site_fract_x
_atom_site_fract_y
_atom_site_fract_z
Si Si1 0.269061 0.980401 0.083613
Si Si2 0.552364 0.858116 0.699456
Si Si3 0.500000 0.720947 0.000000
Si Si4 0.204819 0.000000 0.750000
O O1 0.127549 0.872452 0.125000
O O2 0.371383 0.121927 0.129301
O O3 0.419251 0.847144 0.054549
O O4 0.159457 0.084297 0.029612
O O5 0.588980 0.652495 0.721128
O O6 0.334627 0.900317 0.698309
O O7 0.646180 0.000000 0.750000
#
# Coordination Sequence:
#
# PCOD8305077 Si02
#       4
#     8   8   4   4
#     4  12  22  44  69 101 142 183 230 299 351 425
#     4  10  23  44  65 102 136 180 237 286 348 422
#     4  12  24  42  76 100 132 192 234 286 360 416
#     4  10  24  44  66 104 140 186 236 288 372 416
#
# _framework density 21.044429999999998
#
# number of rings (size 3 to 8) (size 9 to 14) (size 15 to 20)
#    1.000    0.000    3.333    4.000    0.000    1.333 
#    0.000    5.000    0.000    0.000    0.000    0.000 
#    0.000    0.000    0.000    0.000    0.000    0.000 
#
# Total GULP energy -297577.622434 kJ/mol
# GULP energy per Si atom -12399.067601 kJ/mol
# Density = 2.099653 g / cm^3
# Si number density = 21.044430 Si / 1000 Ang^3
#
#
#
# Elastic Constant Matrix: (Units=GPa)
#
#
# Indices 1 2 3 4 5 6 
#
# 1 90.0553 22.9171 -3.2502 0.0000 0.0000 0.0000
# 2 22.9171 90.0522 -3.2524 0.0000 0.0000 0.0000
# 3 -3.2502 -3.2524 34.3179 0.0000 0.0000 0.0000
# 4 0.0000 0.0000 0.0000 -298.7569 0.0000 0.0000
# 5 0.0000 0.0000 0.0000 0.0000 -299.1216 0.0000
# 6 0.0000 0.0000 0.0000 0.0000 0.0000 40.9822
#
#
#
# Elastic Compliance Matrix: (Units=1/GPa)
#
#
# Indices 1 2 3 4 5 6 
#
# 1 0.011897 -0.002997 0.000843 0.000000 0.000000 0.000000
# 2 -0.002997 0.011898 0.000844 0.000000 0.000000 0.000000
# 3 0.000843 0.000844 0.029299 0.000000 0.000000 0.000000
# 4 0.000000 0.000000 0.000000 -0.003347 0.000000 0.000000
# 5 0.000000 0.000000 0.000000 0.000000 -0.003343 0.000000
# 6 0.000000 0.000000 0.000000 0.000000 0.000000 0.024401
#
#
# Mechanical properties :
#
#
# Convention : Reuss Voigt Hill
#
# Bulk Modulus (GPa) = 19.81264 27.47269 23.64266
# Shear Modulus (GPa) = 55.40107 -98.17854 -21.38873
#
# Velocity S-wave (km/s) = 5.13643 -6.83771 -3.19150
# Velocity P-wave (km/s) = 6.67925 7.01827 1.52377
#
# Compressibility (1/GPa) = 0.05047282
#
# Stress axis : x y z
#
# Youngs Moduli (GPa) = 84.05159 84.04833 34.13071
#
# Poissons Ratio (x) = 0.25192 -0.02876
# Poissons Ratio (y) = 0.25193 -0.02880
# Poissons Ratio (z) = -0.07083 -0.07091
#
# Static dielectric constant tensor:
#      x y z
#    x 9.123000 0.000000 0.000000 
#    y 0.000000 9.129070 0.000000 
#    z 0.000000 0.000000 3.348810 
# 
# 
# High freq. dielectric constant tensor:
#      x y z
#    x 1.827840 0.000000 0.000000 
#    y 0.000000 1.827840 0.000000 
#    z 0.000000 0.000000 1.822380 
# 
# From -- ./inp_files/16164.got.cif
#   From: 2010.03.12/outbox.cif.g09.slc.cpg/sg91_9_cif.got.tgz:16164.got - 2010.04.08 20:27:58.
