data_PCOD8305337
_publ_section_title
;
Structure prediction by ZEFSAII (Michael W. Deem and Ramdas Pophale) SiO2 
 PCOD8305337
Probable space group: P 41 21 2
;
_chemical_formula_sum "Si O2"
_cell_formula_units_Z 40
_cell_length_a 12.055867
_cell_length_b 12.055867
_cell_length_c 14.375803
_cell_angle_alpha 90.000000
_cell_angle_beta 90.000000
_cell_angle_gamma 90.000000
_cell_volume 2089.435692
_symmetry_space_group_name_H-M "P 41 21 2"
_symmetry_group_IT_number 92
_symmetry_cell_setting 'tetragonal'
loop_
_space_group_symop_operation_xyz
x,y,z
1/2-y,1/2+x,1/4+z
-x,-y,1/2+z
1/2+y,1/2-x,3/4+z
1/2+x,1/2-y,3/4-z
1/2-x,1/2+y,1/4-z
y,x,-z
-y,-x,1/2-z
loop_
_atom_site_type_symbol
_atom_site_label
_atom_site_fract_x
_atom_site_fract_y
_atom_site_fract_z
Si Si1 0.319682 0.267464 0.394922
Si Si2 0.334960 0.008775 0.372137
Si Si3 0.600185 0.063059 0.679321
Si Si4 0.860198 0.038820 0.003322
Si Si5 0.229996 0.424144 0.253220
O O1 0.306616 0.306616 0.500000
O O2 0.311660 0.136949 0.387604
O O3 0.440307 0.308888 0.356731
O O4 0.224434 0.322613 0.328339
O O5 0.320998 0.972957 0.264804
O O6 0.459095 0.978955 0.405362
O O7 0.241004 0.947033 0.431180
O O8 0.672127 0.105708 0.593489
O O9 0.530794 0.171765 0.704038
O O10 0.947019 0.139113 0.981664
O O11 0.919780 0.919780 0.000000
#
# Coordination Sequence:
#
# PCOD8305337 Si02
#       5
#     8   8   8   8   8
#     4  10  23  42  61  99 127 170 220 266 328 384
#     4  11  21  41  69  95 126 164 226 270 329 385
#     4  10  21  41  70  92 126 169 220 274 310 407
#     4  10  23  46  58  97 132 164 216 268 334 387
#     4   9  23  42  59  98 125 166 219 259 337 378
#
# _framework density 19.143924999999999
#
# number of rings (size 3 to 8) (size 9 to 14) (size 15 to 20)
#    1.200    0.800    2.000    0.600    5.600    2.400 
#   14.400    0.000    0.000    0.000    0.000    0.000 
#    0.000    0.000    0.000    0.000    0.000    0.000 
#
# Total GULP energy -495572.756523 kJ/mol
# GULP energy per Si atom -12389.318913 kJ/mol
# Density = 1.910035 g / cm^3
# Si number density = 19.143925 Si / 1000 Ang^3
#
#
#
# Elastic Constant Matrix: (Units=GPa)
#
#
# Indices 1 2 3 4 5 6 
#
# 1 72.8261 29.2066 51.0903 0.0000 0.0000 0.0000
# 2 29.2066 72.8261 51.0903 0.0000 0.0000 0.0000
# 3 51.0903 51.0903 177.6698 0.0000 0.0000 0.0000
# 4 0.0000 0.0000 0.0000 28.6442 0.0000 0.0000
# 5 0.0000 0.0000 0.0000 0.0000 28.6442 0.0000
# 6 0.0000 0.0000 0.0000 0.0000 0.0000 22.6772
#
#
#
# Elastic Compliance Matrix: (Units=1/GPa)
#
#
# Indices 1 2 3 4 5 6 
#
# 1 0.018345 -0.004580 -0.003958 0.000000 0.000000 0.000000
# 2 -0.004580 0.018345 -0.003958 0.000000 0.000000 0.000000
# 3 -0.003958 -0.003958 0.007905 0.000000 0.000000 0.000000
# 4 0.000000 0.000000 0.000000 0.034911 0.000000 0.000000
# 5 0.000000 0.000000 0.000000 0.000000 0.034911 0.000000
# 6 0.000000 0.000000 0.000000 0.000000 0.000000 0.044097
#
#
# Mechanical properties :
#
#
# Convention : Reuss Voigt Hill
#
# Bulk Modulus (GPa) = 51.01632 65.12181 58.06906
# Shear Modulus (GPa) = 26.31003 28.78876 27.54939
#
# Velocity S-wave (km/s) = 3.71121 3.88210 3.79762
# Velocity P-wave (km/s) = 6.71348 7.36105 7.04471
#
# Compressibility (1/GPa) = 0.01960157
#
# Stress axis : x y z
#
# Youngs Moduli (GPa) = 54.51051 54.51051 126.50553
#
# Poissons Ratio (x) = 0.24968 0.50072
# Poissons Ratio (y) = 0.24968 0.50072
# Poissons Ratio (z) = 0.21576 0.21576
#
# Static dielectric constant tensor:
#      x y z
#    x 3.401230 0.000000 0.000000 
#    y 0.000000 3.401230 0.000000 
#    z 0.000000 0.000000 3.810070 
# 
# 
# High freq. dielectric constant tensor:
#      x y z
#    x 1.734950 0.000000 0.000000 
#    y 0.000000 1.734950 0.000000 
#    z 0.000000 0.000000 1.758770 
# 
# From -- ./inp_files/2590.got.cif
#   From: 2010.03.12/outbox.cif.g09.slc.cpg/sg92_2_cif.got.tgz:2590.got - 2010.04.08 20:41:11.
