data_PCOD8305333
_publ_section_title
;
Structure prediction by ZEFSAII (Michael W. Deem and Ramdas Pophale) SiO2 
 PCOD8305333
Probable space group: P 41 21 2
;
_chemical_formula_sum "Si O2"
_cell_formula_units_Z 64
_cell_length_a 11.529289
_cell_length_b 11.529289
_cell_length_c 21.067363
_cell_angle_alpha 90.000000
_cell_angle_beta 90.000000
_cell_angle_gamma 90.000000
_cell_volume 2800.368795
_symmetry_space_group_name_H-M "P 41 21 2"
_symmetry_group_IT_number 92
_symmetry_cell_setting 'tetragonal'
loop_
_space_group_symop_operation_xyz
x,y,z
1/2-y,1/2+x,1/4+z
-x,-y,1/2+z
1/2+y,1/2-x,3/4+z
1/2+x,1/2-y,3/4-z
1/2-x,1/2+y,1/4-z
y,x,-z
-y,-x,1/2-z
loop_
_atom_site_type_symbol
_atom_site_label
_atom_site_fract_x
_atom_site_fract_y
_atom_site_fract_z
Si Si1 0.708021 0.125981 0.397364
Si Si2 0.709106 0.162121 0.696355
Si Si3 0.063927 0.949092 0.554526
Si Si4 0.656131 0.292634 0.032052
Si Si5 0.510326 0.966305 0.231670
Si Si6 0.205901 0.574019 0.430092
Si Si7 0.218104 0.453398 0.769018
Si Si8 0.625249 0.548577 0.392027
O O1 0.703730 0.265528 0.402543
O O2 0.811682 0.079833 0.442553
O O3 0.585835 0.073173 0.420096
O O4 0.729896 0.065381 0.329317
O O5 0.742719 0.257282 0.750000
O O6 0.625587 0.068169 0.730414
O O7 0.642985 0.221544 0.636480
O O8 0.824013 0.097368 0.669394
O O9 0.969277 0.969277 0.500000
O O10 0.017069 0.008351 0.618960
O O11 0.189380 0.002375 0.532626
O O12 0.665627 0.169312 0.000111
O O13 0.524605 0.320411 0.050217
O O14 0.701575 0.386687 0.981937
O O15 0.574232 0.911813 0.293574
O O16 0.534061 0.104641 0.227918
O O17 0.280200 0.442419 0.836605
#
# Coordination Sequence:
#
# PCOD8305333 Si02
#       8
#     8   8   8   8   8   8   8   8
#     4   9  21  39  62  96 126 175 218 260 336 389
#     4  11  24  42  62 103 128 173 225 269 346 397
#     4   9  21  40  67  95 133 178 220 271 340 403
#     4  10  21  41  67  94 135 174 216 279 337 396
#     4  10  23  40  67  96 128 173 222 273 337 396
#     4  10  22  45  65  91 138 171 221 284 329 404
#     4  10  21  43  66  98 132 174 223 281 337 397
#     4  11  23  42  69  97 135 175 225 277 339 409
#
# _framework density 22.854130999999999
#
# number of rings (size 3 to 8) (size 9 to 14) (size 15 to 20)
#    0.000    2.000    1.250    0.750    3.500    8.000 
#    9.000    0.000    0.000    0.000    0.000    0.000 
#    0.000    0.000    0.000    0.000    0.000    0.000 
#
# Total GULP energy -793060.948710 kJ/mol
# GULP energy per Si atom -12391.577324 kJ/mol
# Density = 2.280211 g / cm^3
# Si number density = 22.854131 Si / 1000 Ang^3
#
#
#
# Elastic Constant Matrix: (Units=GPa)
#
#
# Indices 1 2 3 4 5 6 
#
# 1 76.1970 5.3508 13.2639 0.0000 0.0000 0.0000
# 2 5.3508 76.1972 13.2641 0.0000 0.0000 0.0000
# 3 13.2639 13.2641 81.7363 0.0000 0.0000 0.0000
# 4 0.0000 0.0000 0.0000 31.2647 0.0000 0.0000
# 5 0.0000 0.0000 0.0000 0.0000 31.2646 0.0000
# 6 0.0000 0.0000 0.0000 0.0000 0.0000 23.3757
#
#
#
# Elastic Compliance Matrix: (Units=1/GPa)
#
#
# Indices 1 2 3 4 5 6 
#
# 1 0.013531 -0.000584 -0.002101 0.000000 0.000000 0.000000
# 2 -0.000584 0.013531 -0.002101 0.000000 0.000000 0.000000
# 3 -0.002101 -0.002101 0.012916 0.000000 0.000000 0.000000
# 4 0.000000 0.000000 0.000000 0.031985 0.000000 0.000000
# 5 0.000000 0.000000 0.000000 0.000000 0.031985 0.000000
# 6 0.000000 0.000000 0.000000 0.000000 0.000000 0.042780
#
#
# Mechanical properties :
#
#
# Convention : Reuss Voigt Hill
#
# Bulk Modulus (GPa) = 32.88917 33.09866 32.99392
# Shear Modulus (GPa) = 30.04183 30.66443 30.35313
#
# Velocity S-wave (km/s) = 3.62954 3.66696 3.64830
# Velocity P-wave (km/s) = 5.65570 5.69586 5.67581
#
# Compressibility (1/GPa) = 0.03040514
#
# Stress axis : x y z
#
# Youngs Moduli (GPa) = 73.90647 73.90655 77.42143
#
# Poissons Ratio (x) = 0.04319 0.16265
# Poissons Ratio (y) = 0.04319 0.16265
# Poissons Ratio (z) = 0.15527 0.15527
#
# Static dielectric constant tensor:
#      x y z
#    x 4.183300 0.000000 0.000000 
#    y 0.000000 4.183300 0.000000 
#    z 0.000000 0.000000 4.093240 
# 
# 
# High freq. dielectric constant tensor:
#      x y z
#    x 1.899710 0.000000 0.000000 
#    y 0.000000 1.899710 0.000000 
#    z 0.000000 0.000000 1.890340 
# 
# From -- ./inp_files/4000.got.cif
#   From: 2010.03.12/outbox.cif.g09.slc.cpg/sg92_2_cif.got.tgz:4000.got - 2010.04.08 20:41:11.
