data_PCOD8305529
_publ_section_title
;
Structure prediction by ZEFSAII (Michael W. Deem and Ramdas Pophale) SiO2 
 PCOD8305529
Probable space group: P 42 2 2
;
_chemical_formula_sum "Si O2"
_cell_formula_units_Z 38
_cell_length_a 13.540260
_cell_length_b 13.540260
_cell_length_c 11.498292
_cell_angle_alpha 90.000000
_cell_angle_beta 90.000000
_cell_angle_gamma 90.000000
_cell_volume 2108.081228
_symmetry_space_group_name_H-M "P 42 2 2"
_symmetry_group_IT_number 93
_symmetry_cell_setting 'tetragonal'
loop_
_space_group_symop_operation_xyz
x,y,z
-y,x,1/2+z
-x,-y,z
y,-x,1/2+z
x,-y,-z
-x,y,-z
y,x,1/2-z
-y,-x,1/2-z
loop_
_atom_site_type_symbol
_atom_site_label
_atom_site_fract_x
_atom_site_fract_y
_atom_site_fract_z
Si Si1 0.588188 0.588188 0.250000
Si Si2 0.101221 0.395548 0.057303
Si Si3 0.305896 0.301165 0.425544
Si Si4 0.000000 0.500000 0.500000
Si Si5 0.423520 0.143037 0.183108
Si Si6 0.696882 0.413214 0.337326
O O1 0.596908 0.676741 0.346382
O O2 0.602231 0.485982 0.319386
O O3 0.187551 0.314472 0.033727
O O4 0.086234 0.407750 0.195541
O O5 0.130564 0.500000 0.000000
O O6 0.000000 0.355372 0.000000
O O7 0.211720 0.328168 0.344700
O O8 0.301082 0.376145 0.532120
O O9 0.936284 0.427919 0.580732
O O10 0.526865 0.203349 0.188461
O O11 0.679926 0.320075 0.250000
#
# Coordination Sequence:
#
# PCOD8305529 Si02
#       6
#     4   8   8   2   8   8
#     4  10  19  34  52  76 114 158 197 220 284 331
#     4  11  22  37  57  82 111 155 195 243 290 333
#     4  11  20  37  57  77 115 153 195 238 290 342
#     4  12  20  36  62  80 112 144 208 234 284 360
#     4  11  21  39  55  82 115 156 188 246 289 348
#     4  11  21  33  51  81 115 154 194 229 281 337
#
# _framework density 18.025873000000001
#
# number of rings (size 3 to 8) (size 9 to 14) (size 15 to 20)
#    0.000    1.053    6.316    4.737    0.000    0.000 
#    0.000    4.211    0.000    0.000    0.000    0.737 
#    0.000    3.368    0.000    0.211    0.000    0.000 
#
# Total GULP energy -470957.290850 kJ/mol
# GULP energy per Si atom -12393.612917 kJ/mol
# Density = 1.798484 g / cm^3
# Si number density = 18.025873 Si / 1000 Ang^3
#
#
#
# Elastic Constant Matrix: (Units=GPa)
#
#
# Indices 1 2 3 4 5 6 
#
# 1 88.1612 45.8586 42.6236 0.0000 0.0000 0.0000
# 2 45.8586 88.1615 42.6233 0.0000 0.0000 0.0000
# 3 42.6236 42.6233 131.5881 0.0000 0.0000 0.0000
# 4 0.0000 0.0000 0.0000 34.0855 0.0000 0.0000
# 5 0.0000 0.0000 0.0000 0.0000 34.0854 0.0000
# 6 0.0000 0.0000 0.0000 0.0000 0.0000 16.1470
#
#
#
# Elastic Compliance Matrix: (Units=1/GPa)
#
#
# Indices 1 2 3 4 5 6 
#
# 1 0.016519 -0.007121 -0.003044 0.000000 0.000000 0.000000
# 2 -0.007121 0.016518 -0.003044 0.000000 0.000000 0.000000
# 3 -0.003044 -0.003044 0.009572 0.000000 0.000000 0.000000
# 4 0.000000 0.000000 0.000000 0.029338 0.000000 0.000000
# 5 0.000000 0.000000 0.000000 0.000000 0.029338 0.000000
# 6 0.000000 0.000000 0.000000 0.000000 0.000000 0.061931
#
#
# Mechanical properties :
#
#
# Convention : Reuss Voigt Hill
#
# Bulk Modulus (GPa) = 61.76341 63.34684 62.55512
# Shear Modulus (GPa) = 25.63704 28.65060 27.14382
#
# Velocity S-wave (km/s) = 3.77535 3.99107 3.88471
# Velocity P-wave (km/s) = 7.30359 7.51377 7.40942
#
# Compressibility (1/GPa) = 0.01619082
#
# Stress axis : x y z
#
# Youngs Moduli (GPa) = 60.53805 60.53843 104.47637
#
# Poissons Ratio (x) = 0.43107 0.31804
# Poissons Ratio (y) = 0.43107 0.31803
# Poissons Ratio (z) = 0.18429 0.18428
#
# Static dielectric constant tensor:
#      x y z
#    x 3.225190 0.000000 0.000000 
#    y 0.000000 3.225190 0.000000 
#    z 0.000000 0.000000 3.657000 
# 
# 
# High freq. dielectric constant tensor:
#      x y z
#    x 1.666050 0.000000 0.000000 
#    y 0.000000 1.666050 0.000000 
#    z 0.000000 0.000000 1.730720 
# 
# From -- ./inp_files/3312.got.cif
#   From: 2010.03.12/outbox.cif.g09.slc.cpg/sg93_2_cif.got.tgz:3312.got - 2010.04.08 20:44:19.
