data_PCOD8305885
_publ_section_title
;
Structure prediction by ZEFSAII (Michael W. Deem and Ramdas Pophale) SiO2 
 PCOD8305885
Probable space group: P 43 21 2
;
_chemical_formula_sum "Si O2"
_cell_formula_units_Z 44
_cell_length_a 9.076870
_cell_length_b 9.076870
_cell_length_c 27.454780
_cell_angle_alpha 90.000000
_cell_angle_beta 90.000000
_cell_angle_gamma 90.000000
_cell_volume 2261.987491
_symmetry_space_group_name_H-M "P 43 21 2"
_symmetry_group_IT_number 96
_symmetry_cell_setting 'tetragonal'
loop_
_space_group_symop_operation_xyz
x,y,z
1/2-y,1/2+x,3/4+z
-x,-y,1/2+z
1/2+y,1/2-x,1/4+z
1/2+x,1/2-y,1/4-z
1/2-x,1/2+y,3/4-z
y,x,-z
-y,-x,1/2-z
loop_
_atom_site_type_symbol
_atom_site_label
_atom_site_fract_x
_atom_site_fract_y
_atom_site_fract_z
Si Si1 0.616556 0.383445 0.750000
Si Si2 0.594821 0.922277 0.176453
Si Si3 0.420237 0.404585 0.660478
Si Si4 0.132196 0.459289 0.213942
Si Si5 0.881182 0.440207 0.140630
Si Si6 0.326388 0.392392 0.128477
O O1 0.474206 0.397571 0.715927
O O2 0.775728 0.389519 0.723695
O O3 0.614057 0.766519 0.147331
O O4 0.614975 0.907995 0.234547
O O5 0.434743 0.987739 0.160531
O O6 0.711723 0.043684 0.160152
O O7 0.279071 0.505708 0.654406
O O8 0.546159 0.484169 0.629018
O O9 0.245214 0.362785 0.180536
O O10 0.986572 0.496743 0.184030
O O11 0.889506 0.263200 0.139277
#
# Coordination Sequence:
#
# PCOD8305885 Si02
#       6
#     4   8   8   8   8   8
#     4   8  18  36  58  80 114 156 194 234 286 354
#     4  10  21  37  57  80 112 153 197 240 291 359
#     4  10  19  35  57  81 112 153 194 238 295 355
#     4   9  20  37  58  84 114 151 194 239 292 355
#     4  11  22  36  58  86 116 151 196 250 301 351
#     4  10  21  38  57  84 119 152 192 246 300 357
#
# _framework density 19.451922
#
# number of rings (size 3 to 8) (size 9 to 14) (size 15 to 20)
#    0.000    2.182    0.000    3.273    0.000    8.000 
#    0.000    0.000    0.000    4.364    0.000    0.000 
#    0.000    0.000    0.000    0.000    0.000    0.000 
#
# Total GULP energy -545171.399543 kJ/mol
# GULP energy per Si atom -12390.259081 kJ/mol
# Density = 1.940765 g / cm^3
# Si number density = 19.451922 Si / 1000 Ang^3
#
#
#
# Elastic Constant Matrix: (Units=GPa)
#
#
# Indices 1 2 3 4 5 6 
#
# 1 98.9656 12.7196 35.3187 0.0000 0.0000 0.0000
# 2 12.7196 98.9651 35.3187 0.0000 0.0000 0.0000
# 3 35.3187 35.3187 104.4255 0.0000 0.0000 0.0000
# 4 0.0000 0.0000 0.0000 21.7933 0.0000 0.0000
# 5 0.0000 0.0000 0.0000 0.0000 21.7933 0.0000
# 6 0.0000 0.0000 0.0000 0.0000 0.0000 33.4206
#
#
#
# Elastic Compliance Matrix: (Units=1/GPa)
#
#
# Indices 1 2 3 4 5 6 
#
# 1 0.011493 -0.000102 -0.003852 0.000000 0.000000 0.000000
# 2 -0.000102 0.011493 -0.003852 0.000000 0.000000 0.000000
# 3 -0.003852 -0.003852 0.012182 0.000000 0.000000 0.000000
# 4 0.000000 0.000000 0.000000 0.045886 0.000000 0.000000
# 5 0.000000 0.000000 0.000000 0.000000 0.045886 0.000000
# 6 0.000000 0.000000 0.000000 0.000000 0.000000 0.029922
#
#
# Mechanical properties :
#
#
# Convention : Reuss Voigt Hill
#
# Bulk Modulus (GPa) = 51.14290 52.11891 51.63090
# Shear Modulus (GPa) = 27.93423 30.00140 28.96781
#
# Velocity S-wave (km/s) = 3.79366 3.93152 3.86320
# Velocity P-wave (km/s) = 6.74819 6.88919 6.81906
#
# Compressibility (1/GPa) = 0.01955306
#
# Stress axis : x y z
#
# Youngs Moduli (GPa) = 87.01325 87.01274 82.08743
#
# Poissons Ratio (x) = 0.00890 0.31623
# Poissons Ratio (y) = 0.00890 0.31624
# Poissons Ratio (z) = 0.33521 0.33521
#
# Static dielectric constant tensor:
#      x y z
#    x 3.619410 0.000000 0.000000 
#    y 0.000000 3.619400 0.000000 
#    z 0.000000 0.000000 3.640950 
# 
# 
# High freq. dielectric constant tensor:
#      x y z
#    x 1.757710 0.000000 0.000000 
#    y 0.000000 1.757710 0.000000 
#    z 0.000000 0.000000 1.749840 
# 
# From -- ./inp_files/4377.got.cif
#   From: 2010.03.12/outbox.cif.g09.slc.cpg/sg96_3_cif.got.tgz:4377.got - 2010.04.08 20:56:49.
