data_PCOD8305574
_publ_section_title
;
Structure prediction by ZEFSAII (Michael W. Deem and Ramdas Pophale) SiO2 
 PCOD8305574
Probable space group: P 42 2 2
;
_chemical_formula_sum "Si O2"
_cell_formula_units_Z 64
_cell_length_a 11.921471
_cell_length_b 11.921471
_cell_length_c 24.184624
_cell_angle_alpha 90.000000
_cell_angle_beta 90.000000
_cell_angle_gamma 90.000000
_cell_volume 3437.154334
_symmetry_space_group_name_H-M "P 42 2 2"
_symmetry_group_IT_number 93
_symmetry_cell_setting 'tetragonal'
loop_
_space_group_symop_operation_xyz
x,y,z
-y,x,1/2+z
-x,-y,z
y,-x,1/2+z
x,-y,-z
-x,y,-z
y,x,1/2-z
-y,-x,1/2-z
loop_
_atom_site_type_symbol
_atom_site_label
_atom_site_fract_x
_atom_site_fract_y
_atom_site_fract_z
Si Si1 0.727381 0.770990 0.590531
Si Si2 0.379227 0.627982 0.000000
Si Si3 0.000000 0.630886 0.871243
Si Si4 0.368312 1.000000 0.749569
Si Si5 0.130436 0.126687 0.500000
Si Si6 0.634666 0.762580 0.797230
Si Si7 0.770991 0.272620 0.909470
Si Si8 0.237421 0.634667 0.702770
O O1 0.651882 0.689137 0.554977
O O2 0.837728 0.802719 0.555108
O O3 0.746193 0.704982 0.647181
O O4 0.663916 0.887878 0.597304
O O5 0.408191 0.500000 0.000000
O O6 0.500000 0.693042 0.000000
O O7 0.310863 0.651881 0.945024
O O8 0.000002 0.689352 0.810793
O O9 0.112120 0.663916 0.902698
O O10 0.000000 0.500000 0.864074
O O11 0.331223 0.888588 0.781234
O O12 0.500000 0.000000 0.742080
O O13 0.331223 0.111413 0.781233
O O14 0.162272 0.197281 0.444893
O O15 0.000000 0.114643 0.500000
O O16 0.183073 0.000000 0.500000
O O17 0.675160 0.675160 0.750000
O O18 0.499999 0.747494 0.805840
O O19 0.704984 0.253808 0.852819
O O20 0.324839 0.675162 0.750000
#
# Coordination Sequence:
#
# PCOD8305574 Si02
#       8
#     8   8   8   8   8   8   8   8
#     4  11  22  38  61  87 117 155 197 246 292 355
#     4  10  22  39  58  82 117 157 195 241 291 341
#     4  11  20  35  60  89 117 153 196 240 288 345
#     4   9  20  38  57  82 117 155 192 238 289 349
#     4  10  22  40  59  85 118 153 196 251 309 353
#     4  11  23  39  61  89 122 158 198 242 297 359
#     4  11  22  38  61  87 117 155 197 246 292 355
#     4  11  23  39  61  89 122 158 198 242 297 359
#
# _framework density 18.620052999999999
#
# number of rings (size 3 to 8) (size 9 to 14) (size 15 to 20)
#    0.000    1.500    3.750    1.500    1.750    1.250 
#    0.000    1.875    0.000    4.125    0.000    0.000 
#    0.000    0.000    0.000    0.000    0.000    0.000 
#
# Total GULP energy -793082.391380 kJ/mol
# GULP energy per Si atom -12391.912365 kJ/mol
# Density = 1.857767 g / cm^3
# Si number density = 18.620053 Si / 1000 Ang^3
#
#
#
# Elastic Constant Matrix: (Units=GPa)
#
#
# Indices 1 2 3 4 5 6 
#
# 1 120.0465 44.2196 59.1085 0.0000 0.0000 0.0000
# 2 44.2196 120.0471 59.1089 0.0000 0.0000 0.0000
# 3 59.1085 59.1089 149.8645 0.0000 0.0000 0.0000
# 4 0.0000 0.0000 0.0000 16.5692 0.0000 0.0000
# 5 0.0000 0.0000 0.0000 0.0000 16.5692 0.0000
# 6 0.0000 0.0000 0.0000 0.0000 0.0000 21.6634
#
#
#
# Elastic Compliance Matrix: (Units=1/GPa)
#
#
# Indices 1 2 3 4 5 6 
#
# 1 0.010844 -0.002344 -0.003353 0.000000 0.000000 0.000000
# 2 -0.002344 0.010844 -0.003353 0.000000 0.000000 0.000000
# 3 -0.003353 -0.003353 0.009317 0.000000 0.000000 0.000000
# 4 0.000000 0.000000 0.000000 0.060353 0.000000 0.000000
# 5 0.000000 0.000000 0.000000 0.000000 0.060353 0.000000
# 6 0.000000 0.000000 0.000000 0.000000 0.000000 0.046161
#
#
# Mechanical properties :
#
#
# Convention : Reuss Voigt Hill
#
# Bulk Modulus (GPa) = 77.47397 79.42579 78.44988
# Shear Modulus (GPa) = 22.69906 26.12842 24.41374
#
# Velocity S-wave (km/s) = 3.49530 3.75005 3.62491
# Velocity P-wave (km/s) = 7.61496 7.84214 7.72938
#
# Compressibility (1/GPa) = 0.01290756
#
# Stress axis : x y z
#
# Youngs Moduli (GPa) = 92.21499 92.21525 107.32575
#
# Poissons Ratio (x) = 0.21612 0.35983
# Poissons Ratio (y) = 0.21612 0.35984
# Poissons Ratio (z) = 0.30917 0.30917
#
# Static dielectric constant tensor:
#      x y z
#    x 3.531000 0.000000 0.000000 
#    y 0.000000 3.531000 0.000000 
#    z 0.000000 0.000000 3.775400 
# 
# 
# High freq. dielectric constant tensor:
#      x y z
#    x 1.724000 0.000000 0.000000 
#    y 0.000000 1.724000 0.000000 
#    z 0.000000 0.000000 1.737450 
# 
# From -- ./inp_files/6980.got.cif
#   From: 2010.03.12/outbox.cif.g09.slc.cpg/sg93_4_cif.got.tgz:6980.got - 2010.04.08 20:44:19.
