data_PCOD8305082
_publ_section_title
;
Structure prediction by ZEFSAII (Michael W. Deem and Ramdas Pophale) SiO2 
 PCOD8305082
Probable space group: P 41 2 2
;
_chemical_formula_sum "Si O2"
_cell_formula_units_Z 56
_cell_length_a 14.384680
_cell_length_b 14.384680
_cell_length_c 12.227970
_cell_angle_alpha 90.000000
_cell_angle_beta 90.000000
_cell_angle_gamma 90.000000
_cell_volume 2530.199553
_symmetry_space_group_name_H-M "P 41 2 2"
_symmetry_group_IT_number 91
_symmetry_cell_setting 'tetragonal'
loop_
_space_group_symop_operation_xyz
x,y,z
-y,x,1/4+z
-x,-y,1/2+z
y,-x,3/4+z
x,-y,1/2-z
-x,y,-z
y,x,3/4-z
-y,-x,1/4-z
loop_
_atom_site_type_symbol
_atom_site_label
_atom_site_fract_x
_atom_site_fract_y
_atom_site_fract_z
Si Si1 0.391620 0.745281 0.852173
Si Si2 0.762708 0.593559 0.204118
Si Si3 0.600538 0.750629 0.896794
Si Si4 0.307390 0.155178 0.847534
Si Si5 0.362095 0.105582 0.228667
Si Si6 0.066202 0.838067 0.901565
Si Si7 0.017300 0.166405 0.839603
O O1 0.324302 0.658035 0.828739
O O2 0.501206 0.722018 0.842267
O O3 0.359473 0.826376 0.767971
O O4 0.388669 0.778598 0.976847
O O5 0.715366 0.500000 0.250000
O O6 0.830348 0.624464 0.301597
O O7 0.833441 0.574525 0.103380
O O8 0.660981 0.660981 0.875000
O O9 0.638339 0.844924 0.844852
O O10 0.223123 0.223123 0.875000
O O11 0.261254 0.052374 0.851558
O O12 0.258061 0.113543 0.183688
O O13 0.396663 0.000000 0.250000
O O14 0.010159 0.820874 0.790814
O O15 0.147697 0.911388 0.873521
O O16 0.000000 0.874476 0.000000
O O17 0.077245 0.077245 0.875000
#
# Coordination Sequence:
#
# PCOD8305082 Si02
#       7
#     8   8   8   8   8   8   8
#     4  10  23  45  72 104 139 178 232 293 374 430
#     4  11  21  44  74  98 139 181 225 295 353 429
#     4  11  23  45  75 102 144 182 229 306 363 437
#     4   9  20  38  62  91 135 177 224 275 346 425
#     4  11  25  45  69 101 140 191 246 285 354 435
#     4  11  23  40  61  97 135 181 242 293 359 427
#     4  11  21  38  61  92 138 181 228 298 350 415
#
# _framework density 22.132639999999999
#
# number of rings (size 3 to 8) (size 9 to 14) (size 15 to 20)
#    0.000    1.429    2.857    2.571    0.000    2.286 
#    5.143    0.000    3.143    0.000    0.000    0.000 
#    0.000    0.000    0.000    0.000    0.000    0.000 
#
# Total GULP energy -693897.231441 kJ/mol
# GULP energy per Si atom -12391.021990 kJ/mol
# Density = 2.208227 g / cm^3
# Si number density = 22.132640 Si / 1000 Ang^3
#
#
#
# Elastic Constant Matrix: (Units=GPa)
#
#
# Indices 1 2 3 4 5 6 
#
# 1 82.3408 36.5560 50.9252 0.0000 0.0000 0.0000
# 2 36.5560 82.3408 50.9252 0.0000 0.0000 0.0000
# 3 50.9252 50.9252 144.4275 0.0000 0.0000 0.0000
# 4 0.0000 0.0000 0.0000 30.2337 0.0000 0.0000
# 5 0.0000 0.0000 0.0000 0.0000 30.2337 0.0000
# 6 0.0000 0.0000 0.0000 0.0000 0.0000 12.9955
#
#
#
# Elastic Compliance Matrix: (Units=1/GPa)
#
#
# Indices 1 2 3 4 5 6 
#
# 1 0.016946 -0.004895 -0.004249 0.000000 0.000000 0.000000
# 2 -0.004895 0.016946 -0.004249 0.000000 0.000000 0.000000
# 3 -0.004249 -0.004249 0.009920 0.000000 0.000000 0.000000
# 4 0.000000 0.000000 0.000000 0.033076 0.000000 0.000000
# 5 0.000000 0.000000 0.000000 0.000000 0.033076 0.000000
# 6 0.000000 0.000000 0.000000 0.000000 0.000000 0.076950
#
#
# Mechanical properties :
#
#
# Convention : Reuss Voigt Hill
#
# Bulk Modulus (GPa) = 58.73636 65.10244 61.91940
# Shear Modulus (GPa) = 22.79205 26.07278 24.43241
#
# Velocity S-wave (km/s) = 3.21252 3.43596 3.32612
# Velocity P-wave (km/s) = 6.35266 6.72455 6.54125
#
# Compressibility (1/GPa) = 0.01702523
#
# Stress axis : x y z
#
# Youngs Moduli (GPa) = 59.01139 59.01139 100.80347
#
# Poissons Ratio (x) = 0.28888 0.42831
# Poissons Ratio (y) = 0.28888 0.42831
# Poissons Ratio (z) = 0.25074 0.25074
#
# Static dielectric constant tensor:
#      x y z
#    x 4.024560 0.000000 0.000000 
#    y 0.000000 4.024560 0.000000 
#    z 0.000000 0.000000 4.409140 
# 
# 
# High freq. dielectric constant tensor:
#      x y z
#    x 1.856990 0.000000 0.000000 
#    y 0.000000 1.856990 0.000000 
#    z 0.000000 0.000000 1.899810 
# 
# From -- ./inp_files/10851.got.cif
#   From: 2010.03.12/outbox.cif.g09.slc.cpg/sg91_6_cif.got.tgz:10851.got - 2010.04.08 20:27:58.
