data_PCOD8305306
_publ_section_title
;
Structure prediction by ZEFSAII (Michael W. Deem and Ramdas Pophale) SiO2 
 PCOD8305306
Probable space group: P 41 21 2
;
_chemical_formula_sum "Si O2"
_cell_formula_units_Z 40
_cell_length_a 9.195582
_cell_length_b 9.195582
_cell_length_c 23.353151
_cell_angle_alpha 90.000000
_cell_angle_beta 90.000000
_cell_angle_gamma 90.000000
_cell_volume 1974.712751
_symmetry_space_group_name_H-M "P 41 21 2"
_symmetry_group_IT_number 92
_symmetry_cell_setting 'tetragonal'
loop_
_space_group_symop_operation_xyz
x,y,z
1/2-y,1/2+x,1/4+z
-x,-y,1/2+z
1/2+y,1/2-x,3/4+z
1/2+x,1/2-y,3/4-z
1/2-x,1/2+y,1/4-z
y,x,-z
-y,-x,1/2-z
loop_
_atom_site_type_symbol
_atom_site_label
_atom_site_fract_x
_atom_site_fract_y
_atom_site_fract_z
Si Si1 0.562334 0.842763 0.835099
Si Si2 0.278766 0.591337 0.366811
Si Si3 0.834421 0.485745 0.659346
Si Si4 0.914446 0.134681 0.010342
Si Si5 0.312200 0.272216 0.567581
O O1 0.639072 0.749148 0.784733
O O2 0.394099 0.796310 0.837533
O O3 0.633656 0.806170 0.897017
O O4 0.584852 0.012909 0.819009
O O5 0.366977 0.740884 0.374504
O O6 0.307320 0.531230 0.304598
O O7 0.324876 0.475581 0.415935
O O8 0.108037 0.621796 0.364225
O O9 0.742992 0.573153 0.707074
O O10 0.966555 0.966555 0.000000
O O11 0.290466 0.290466 0.500000
#
# Coordination Sequence:
#
# PCOD8305306 Si02
#       5
#     8   8   8   8   8
#     4  10  22  38  60  86 115 152 199 243 288 356
#     4   9  21  37  54  81 115 146 188 237 284 350
#     4  10  21  37  58  83 113 149 191 239 293 346
#     4   9  19  38  56  77 114 153 185 234 296 345
#     4  10  22  40  60  87 119 156 201 247 298 355
#
# _framework density 20.256112000000002
#
# number of rings (size 3 to 8) (size 9 to 14) (size 15 to 20)
#    0.000    2.400    0.000    0.600    0.000   17.600 
#    0.000    3.000    0.000    0.000    0.000    0.000 
#    0.000    0.000    0.000    0.000    0.000    0.000 
#
# Total GULP energy -495772.514176 kJ/mol
# GULP energy per Si atom -12394.312854 kJ/mol
# Density = 2.021001 g / cm^3
# Si number density = 20.256112 Si / 1000 Ang^3
#
#
#
# Elastic Constant Matrix: (Units=GPa)
#
#
# Indices 1 2 3 4 5 6 
#
# 1 66.0429 60.3880 13.0323 0.0000 0.0000 0.0000
# 2 60.3880 66.0429 13.0323 0.0000 0.0000 0.0000
# 3 13.0323 13.0323 69.5434 0.0000 0.0000 0.0000
# 4 0.0000 0.0000 0.0000 17.7467 0.0000 0.0000
# 5 0.0000 0.0000 0.0000 0.0000 17.7467 0.0000
# 6 0.0000 0.0000 0.0000 0.0000 0.0000 32.7226
#
#
#
# Elastic Compliance Matrix: (Units=1/GPa)
#
#
# Indices 1 2 3 4 5 6 
#
# 1 0.092533 -0.084306 -0.001542 0.000000 0.000000 0.000000
# 2 -0.084306 0.092533 -0.001542 0.000000 0.000000 0.000000
# 3 -0.001542 -0.001542 0.014957 0.000000 0.000000 0.000000
# 4 0.000000 0.000000 0.000000 0.056349 0.000000 0.000000
# 5 0.000000 0.000000 0.000000 0.000000 0.056349 0.000000
# 6 0.000000 0.000000 0.000000 0.000000 0.000000 0.030560
#
#
# Mechanical properties :
#
#
# Convention : Reuss Voigt Hill
#
# Bulk Modulus (GPa) = 39.61207 41.61497 40.61352
# Shear Modulus (GPa) = 9.49714 21.32163 15.40939
#
# Velocity S-wave (km/s) = 2.16765 3.24790 2.76112
# Velocity P-wave (km/s) = 5.08557 5.88678 5.50078
#
# Compressibility (1/GPa) = 0.02524483
#
# Stress axis : x y z
#
# Youngs Moduli (GPa) = 10.80695 10.80695 66.85672
#
# Poissons Ratio (x) = 0.91109 0.10308
# Poissons Ratio (y) = 0.91109 0.10308
# Poissons Ratio (z) = 0.01666 0.01666
#
# Static dielectric constant tensor:
#      x y z
#    x 3.914160 0.000000 0.000000 
#    y 0.000000 3.914160 0.000000 
#    z 0.000000 0.000000 3.538880 
# 
# 
# High freq. dielectric constant tensor:
#      x y z
#    x 1.796800 0.000000 0.000000 
#    y 0.000000 1.796800 0.000000 
#    z 0.000000 0.000000 1.778170 
# 
# From -- ./inp_files/3764.got.cif
#   From: 2010.03.12/outbox.cif.g09.slc.cpg/sg92_2_cif.got.tgz:3764.got - 2010.04.08 20:41:11.
