data_PCOD8305792
_publ_section_title
;
Structure prediction by ZEFSAII (Michael W. Deem and Ramdas Pophale) SiO2 
 PCOD8305792
Probable space group: P 42 21 2
;
_chemical_formula_sum "Si O2"
_cell_formula_units_Z 38
_cell_length_a 8.022461
_cell_length_b 8.022461
_cell_length_c 23.651472
_cell_angle_alpha 90.000000
_cell_angle_beta 90.000000
_cell_angle_gamma 90.000000
_cell_volume 1522.205911
_symmetry_space_group_name_H-M "P 42 21 2"
_symmetry_group_IT_number 94
_symmetry_cell_setting 'tetragonal'
loop_
_space_group_symop_operation_xyz
x,y,z
1/2-y,1/2+x,1/2+z
-x,-y,z
1/2+y,1/2-x,1/2+z
1/2+x,1/2-y,1/2-z
1/2-x,1/2+y,1/2-z
y,x,-z
-y,-x,-z
loop_
_atom_site_type_symbol
_atom_site_label
_atom_site_fract_x
_atom_site_fract_y
_atom_site_fract_z
Si Si1 0.818944 0.538231 0.421151
Si Si2 0.163550 0.093572 0.434828
Si Si3 0.500000 0.500000 0.500000
Si Si4 0.000000 0.500000 0.611845
Si Si5 0.737102 0.952992 0.201504
Si Si6 0.553430 0.759560 0.288275
O O1 0.812132 0.731632 0.402937
O O2 0.667759 0.494971 0.463114
O O3 0.802397 0.425307 0.364821
O O4 0.000000 0.500000 0.449531
O O5 0.135722 0.135722 0.500000
O O6 0.331619 0.982974 0.426262
O O7 0.000000 0.000000 0.410232
O O8 0.838551 0.524511 0.650291
O O9 0.578833 0.898138 0.239332
O O10 0.891509 0.847086 0.224152
O O11 0.781371 0.145431 0.211779
#
# Coordination Sequence:
#
# PCOD8305792 Si02
#       6
#     8   8   2   4   8   8
#     4  12  29  51  86 118 164 219 276 348 426 507
#     4  11  28  52  80 124 164 216 280 349 429 506
#     4  12  28  60  82 130 168 228 288 358 432 516
#     4  12  26  50  82 114 162 226 276 356 420 506
#     4  11  26  50  74 118 159 214 274 340 422 500
#     4  11  25  47  79 109 162 212 272 341 416 510
#
# _framework density 24.963773
#
# number of rings (size 3 to 8) (size 9 to 14) (size 15 to 20)
#    0.000    0.632    3.158    2.526    8.842    1.684 
#    3.789    0.000    0.000    0.000    0.000    0.000 
#    0.000    0.000    0.000    0.000    0.000    0.000 
#
# Total GULP energy -471081.059574 kJ/mol
# GULP energy per Si atom -12396.869989 kJ/mol
# Density = 2.490695 g / cm^3
# Si number density = 24.963773 Si / 1000 Ang^3
#
#
#
# Elastic Constant Matrix: (Units=GPa)
#
#
# Indices 1 2 3 4 5 6 
#
# 1 162.7831 88.8672 64.6143 0.0000 0.0000 0.0000
# 2 88.8672 162.7831 64.6143 0.0000 0.0000 0.0000
# 3 64.6143 64.6143 147.0281 0.0000 0.0000 0.0000
# 4 0.0000 0.0000 0.0000 18.1615 0.0000 0.0000
# 5 0.0000 0.0000 0.0000 0.0000 18.1615 0.0000
# 6 0.0000 0.0000 0.0000 0.0000 0.0000 55.4528
#
#
#
# Elastic Compliance Matrix: (Units=1/GPa)
#
#
# Indices 1 2 3 4 5 6 
#
# 1 0.009330 -0.004198 -0.002255 0.000000 0.000000 0.000000
# 2 -0.004198 0.009330 -0.002255 0.000000 0.000000 0.000000
# 3 -0.002255 -0.002255 0.008784 0.000000 0.000000 0.000000
# 4 0.000000 0.000000 0.000000 0.055062 0.000000 0.000000
# 5 0.000000 0.000000 0.000000 0.000000 0.055062 0.000000
# 6 0.000000 0.000000 0.000000 0.000000 0.000000 0.018033
#
#
# Mechanical properties :
#
#
# Convention : Reuss Voigt Hill
#
# Bulk Modulus (GPa) = 99.73792 100.97620 100.35706
# Shear Modulus (GPa) = 28.35088 35.32173 31.83630
#
# Velocity S-wave (km/s) = 3.37364 3.76562 3.57501
# Velocity P-wave (km/s) = 7.43069 7.70996 7.57161
#
# Compressibility (1/GPa) = 0.01002628
#
# Stress axis : x y z
#
# Youngs Moduli (GPa) = 107.17645 107.17645 113.84714
#
# Poissons Ratio (x) = 0.44998 0.25676
# Poissons Ratio (y) = 0.44998 0.25676
# Poissons Ratio (z) = 0.24172 0.24172
#
# Static dielectric constant tensor:
#      x y z
#    x 4.750910 0.000000 0.000000 
#    y 0.000000 4.750910 0.000000 
#    z 0.000000 0.000000 4.199330 
# 
# 
# High freq. dielectric constant tensor:
#      x y z
#    x 2.010610 0.000000 0.000000 
#    y 0.000000 2.010610 0.000000 
#    z 0.000000 0.000000 1.980700 
# 
# From -- ./inp_files/5012.got.cif
#   From: 2010.03.12/outbox.cif.g09.slc.cpg/sg94_3_cif.got.tgz:5012.got - 2010.04.08 20:48:32.
