data_PCOD8305727
_publ_section_title
;
Structure prediction by ZEFSAII (Michael W. Deem and Ramdas Pophale) SiO2 
 PCOD8305727
Probable space group: P 42 21 2
;
_chemical_formula_sum "Si O2"
_cell_formula_units_Z 32
_cell_length_a 8.439423
_cell_length_b 8.439423
_cell_length_c 21.476392
_cell_angle_alpha 90.000000
_cell_angle_beta 90.000000
_cell_angle_gamma 90.000000
_cell_volume 1529.631549
_symmetry_space_group_name_H-M "P 42 21 2"
_symmetry_group_IT_number 94
_symmetry_cell_setting 'tetragonal'
loop_
_space_group_symop_operation_xyz
x,y,z
1/2-y,1/2+x,1/2+z
-x,-y,z
1/2+y,1/2-x,1/2+z
1/2+x,1/2-y,1/2-z
1/2-x,1/2+y,1/2-z
y,x,-z
-y,-x,-z
loop_
_atom_site_type_symbol
_atom_site_label
_atom_site_fract_x
_atom_site_fract_y
_atom_site_fract_z
Si Si1 0.000000 0.000000 0.614071
Si Si2 0.500000 0.000000 0.136602
Si Si3 0.262822 0.221788 0.569831
Si Si4 0.774329 0.189747 0.699181
Si Si5 0.038736 0.820841 0.171624
O O1 0.916887 0.127291 0.657861
O O2 0.117334 0.099210 0.570772
O O3 0.627826 0.082173 0.092004
O O4 0.402759 0.115392 0.181467
O O5 0.285222 0.285222 0.500000
O O6 0.235738 0.375180 0.613537
O O7 0.767996 0.377343 0.688833
O O8 0.814523 0.161635 0.771250
O O9 0.000000 0.000000 0.152974
#
# Coordination Sequence:
#
# PCOD8305727 Si02
#       5
#     4   4   8   8   8
#     4  10  23  44  68  98 127 180 226 278 330 396
#     4  10  22  44  68  94 134 178 216 288 330 394
#     4  11  25  44  67  97 137 177 230 269 333 402
#     4  11  23  41  68  97 135 165 224 279 343 394
#     4  12  25  42  67 103 132 175 219 280 342 403
#
# _framework density 20.920069999999999
#
# number of rings (size 3 to 8) (size 9 to 14) (size 15 to 20)
#    0.000    1.000    3.750    3.375    0.000    3.500 
#    0.000    2.500    0.000    0.000    0.000    0.000 
#    0.000    0.000    0.000    0.000    0.000    0.000 
#
# Total GULP energy -396979.043076 kJ/mol
# GULP energy per Si atom -12405.595096 kJ/mol
# Density = 2.087245 g / cm^3
# Si number density = 20.920070 Si / 1000 Ang^3
#
#
#
# Elastic Constant Matrix: (Units=GPa)
#
#
# Indices 1 2 3 4 5 6 
#
# 1 90.8669 1.0083 12.1669 0.0000 0.0000 0.0000
# 2 1.0083 90.8669 12.1669 0.0000 0.0000 0.0000
# 3 12.1669 12.1669 120.6843 0.0000 0.0000 0.0000
# 4 0.0000 0.0000 0.0000 24.3456 0.0000 0.0000
# 5 0.0000 0.0000 0.0000 0.0000 24.3456 0.0000
# 6 0.0000 0.0000 0.0000 0.0000 0.0000 23.5467
#
#
#
# Elastic Compliance Matrix: (Units=1/GPa)
#
#
# Indices 1 2 3 4 5 6 
#
# 1 0.011156 0.000027 -0.001127 0.000000 0.000000 0.000000
# 2 0.000027 0.011156 -0.001127 0.000000 0.000000 0.000000
# 3 -0.001127 -0.001127 0.008513 0.000000 0.000000 0.000000
# 4 0.000000 0.000000 0.000000 0.041075 0.000000 0.000000
# 5 0.000000 0.000000 0.000000 0.000000 0.041075 0.000000
# 6 0.000000 0.000000 0.000000 0.000000 0.000000 0.042469
#
#
# Mechanical properties :
#
#
# Convention : Reuss Voigt Hill
#
# Bulk Modulus (GPa) = 37.92243 39.23357 38.57800
# Shear Modulus (GPa) = 29.64029 32.91931 31.27980
#
# Velocity S-wave (km/s) = 3.76817 3.97114 3.87098
# Velocity P-wave (km/s) = 6.09088 6.31041 6.20162
#
# Compressibility (1/GPa) = 0.02636962
#
# Stress axis : x y z
#
# Youngs Moduli (GPa) = 89.63976 89.63976 117.46178
#
# Poissons Ratio (x) = -0.00244 0.13243
# Poissons Ratio (y) = -0.00244 0.13243
# Poissons Ratio (z) = 0.10106 0.10106
#
# Static dielectric constant tensor:
#      x y z
#    x 3.917330 0.000000 0.000000 
#    y 0.000000 3.917330 0.000000 
#    z 0.000000 0.000000 3.628250 
# 
# 
# High freq. dielectric constant tensor:
#      x y z
#    x 1.830310 0.000000 0.000000 
#    y 0.000000 1.830310 0.000000 
#    z 0.000000 0.000000 1.810670 
# 
# From -- ./inp_files/4435.got.cif
#   From: 2010.03.12/outbox.cif.g09.slc.cpg/sg94_3_cif.got.tgz:4435.got - 2010.04.08 20:48:32.
