data_PCOD8305578
_publ_section_title
;
Structure prediction by ZEFSAII (Michael W. Deem and Ramdas Pophale) SiO2 
 PCOD8305578
Probable space group: P 42 2 2
;
_chemical_formula_sum "Si O2"
_cell_formula_units_Z 56
_cell_length_a 11.198985
_cell_length_b 11.198985
_cell_length_c 24.912240
_cell_angle_alpha 90.000000
_cell_angle_beta 90.000000
_cell_angle_gamma 90.000000
_cell_volume 3124.425007
_symmetry_space_group_name_H-M "P 42 2 2"
_symmetry_group_IT_number 93
_symmetry_cell_setting 'tetragonal'
loop_
_space_group_symop_operation_xyz
x,y,z
-y,x,1/2+z
-x,-y,z
y,-x,1/2+z
x,-y,-z
-x,y,-z
y,x,1/2-z
-y,-x,1/2-z
loop_
_atom_site_type_symbol
_atom_site_label
_atom_site_fract_x
_atom_site_fract_y
_atom_site_fract_z
Si Si1 0.735726 0.218807 0.659039
Si Si2 0.368925 0.010823 0.281925
Si Si3 0.632912 0.143893 0.558619
Si Si4 0.133975 0.644974 0.062479
Si Si5 0.355894 0.355894 0.750000
Si Si6 0.366701 0.633300 0.750000
Si Si7 0.238616 0.799971 0.333374
Si Si8 0.973504 0.161172 0.705447
O O1 0.705759 0.237471 0.596299
O O2 0.713648 0.332243 0.697826
O O3 0.869843 0.163956 0.660858
O O4 0.640144 0.119180 0.676804
O O5 0.336209 0.889757 0.311182
O O6 0.500000 0.000000 0.258744
O O7 0.290379 0.035336 0.230423
O O8 0.493656 0.165391 0.570227
O O9 0.674869 0.173214 0.498255
O O10 0.666741 0.006612 0.571201
O O11 0.208518 0.732873 0.102842
O O12 0.337994 0.495555 0.763060
O O13 0.322022 0.269616 0.800946
O O14 0.105769 0.853971 0.320432
O O15 0.940977 0.059024 0.750000
#
# Coordination Sequence:
#
# PCOD8305578 Si02
#       8
#     8   8   8   8   4   4   8   8
#     4  11  20  33  54  75 107 143 175 215 268 325
#     4  11  19  32  53  75 100 138 181 210 256 319
#     4   9  17  33  52  77 101 133 179 230 277 311
#     4   9  18  31  53  77 102 131 180 234 269 318
#     4  11  24  34  53  80 110 138 171 232 276 309
#     4  11  22  38  52  79 110 136 178 223 274 324
#     4  12  21  34  53  78 110 143 178 219 270 324
#     4  10  23  35  47  77 114 151 177 213 264 325
#
# _framework density 17.923297000000002
#
# number of rings (size 3 to 8) (size 9 to 14) (size 15 to 20)
#    0.000    1.571    5.000    3.429    0.000    4.000 
#    0.000    0.714    0.000    2.571    0.000    4.000 
#    0.000    3.429    0.000    0.000    0.000    0.000 
#
# Total GULP energy -693759.245932 kJ/mol
# GULP energy per Si atom -12388.557963 kJ/mol
# Density = 1.788250 g / cm^3
# Si number density = 17.923297 Si / 1000 Ang^3
#
#
#
# Elastic Constant Matrix: (Units=GPa)
#
#
# Indices 1 2 3 4 5 6 
#
# 1 84.0824 27.2527 37.9401 0.0000 0.0000 0.0000
# 2 27.2527 84.0830 37.9398 0.0000 0.0000 0.0000
# 3 37.9401 37.9398 136.5538 0.0000 0.0000 0.0000
# 4 0.0000 0.0000 0.0000 24.4804 0.0000 0.0000
# 5 0.0000 0.0000 0.0000 0.0000 24.4802 0.0000
# 6 0.0000 0.0000 0.0000 0.0000 0.0000 17.1275
#
#
#
# Elastic Compliance Matrix: (Units=1/GPa)
#
#
# Indices 1 2 3 4 5 6 
#
# 1 0.014338 -0.003258 -0.003078 0.000000 0.000000 0.000000
# 2 -0.003258 0.014338 -0.003078 0.000000 0.000000 0.000000
# 3 -0.003078 -0.003078 0.009034 0.000000 0.000000 0.000000
# 4 0.000000 0.000000 0.000000 0.040849 0.000000 0.000000
# 5 0.000000 0.000000 0.000000 0.000000 0.040849 0.000000
# 6 0.000000 0.000000 0.000000 0.000000 0.000000 0.058386
#
#
# Mechanical properties :
#
#
# Convention : Reuss Voigt Hill
#
# Bulk Modulus (GPa) = 52.96639 56.77604 54.87121
# Shear Modulus (GPa) = 24.64053 26.65671 25.64862
#
# Velocity S-wave (km/s) = 3.71182 3.86069 3.78699
# Velocity P-wave (km/s) = 6.92719 7.18465 7.05710
#
# Compressibility (1/GPa) = 0.01887990
#
# Stress axis : x y z
#
# Youngs Moduli (GPa) = 69.74365 69.74440 110.69611
#
# Poissons Ratio (x) = 0.22724 0.34078
# Poissons Ratio (y) = 0.22724 0.34077
# Poissons Ratio (z) = 0.21470 0.21470
#
# Static dielectric constant tensor:
#      x y z
#    x 3.271220 0.000000 0.000000 
#    y 0.000000 3.271220 0.000000 
#    z 0.000000 0.000000 3.417470 
# 
# 
# High freq. dielectric constant tensor:
#      x y z
#    x 1.681940 0.000000 0.000000 
#    y 0.000000 1.681940 0.000000 
#    z 0.000000 0.000000 1.675890 
# 
# From -- ./inp_files/6941.got.cif
#   From: 2010.03.12/outbox.cif.g09.slc.cpg/sg93_4_cif.got.tgz:6941.got - 2010.04.08 20:44:19.
