data_PCOD8305676
_publ_section_title
;
Structure prediction by ZEFSAII (Michael W. Deem and Ramdas Pophale) SiO2 
 PCOD8305676
Probable space group: P 42 21 2
;
_chemical_formula_sum "Si O2"
_cell_formula_units_Z 48
_cell_length_a 8.666065
_cell_length_b 8.666065
_cell_length_c 28.828869
_cell_angle_alpha 90.000000
_cell_angle_beta 90.000000
_cell_angle_gamma 90.000000
_cell_volume 2165.067740
_symmetry_space_group_name_H-M "P 42 21 2"
_symmetry_group_IT_number 94
_symmetry_cell_setting 'tetragonal'
loop_
_space_group_symop_operation_xyz
x,y,z
1/2-y,1/2+x,1/2+z
-x,-y,z
1/2+y,1/2-x,1/2+z
1/2+x,1/2-y,1/2-z
1/2-x,1/2+y,1/2-z
y,x,-z
-y,-x,-z
loop_
_atom_site_type_symbol
_atom_site_label
_atom_site_fract_x
_atom_site_fract_y
_atom_site_fract_z
Si Si1 0.889931 0.356839 0.888786
Si Si2 0.649264 0.569899 0.928046
Si Si3 0.907047 0.763483 0.217158
Si Si4 0.913822 0.228238 0.790181
Si Si5 0.617896 0.133580 0.383375
Si Si6 0.622282 0.304173 0.548562
O O1 0.724466 0.423249 0.902456
O O2 0.867934 0.252516 0.843593
O O3 0.000000 0.500000 0.876550
O O4 0.959347 0.249388 0.930073
O O5 0.500000 0.500000 0.954494
O O6 0.409641 0.298638 0.891404
O O7 0.775647 0.648346 0.961952
O O8 0.867995 0.646828 0.258735
O O9 0.908805 0.666644 0.170145
O O10 0.073484 0.833373 0.227798
O O11 0.782235 0.901341 0.214085
O O12 0.585620 0.287671 0.414656
O O13 0.500000 0.000000 0.399856
O O14 0.603770 0.396231 0.500000
#
# Coordination Sequence:
#
# PCOD8305676 Si02
#       6
#     8   8   8   8   8   8
#     4  10  20  41  69  93 135 179 221 283 344 423
#     4   9  21  37  63  99 129 171 217 278 338 399
#     4  11  26  43  62  97 128 177 220 283 338 402
#     4  11  26  42  65  95 131 171 227 277 342 415
#     4  10  23  40  61  94 134 170 222 275 338 401
#     4   9  20  40  70  95 129 177 225 269 350 417
#
# _framework density 22.170209
#
# number of rings (size 3 to 8) (size 9 to 14) (size 15 to 20)
#    1.000    1.000    1.667    0.000    9.333    2.333 
#    0.000    0.000    0.000    2.000    0.000    0.000 
#    0.000    0.000    0.000    0.000    0.000    0.000 
#
# Total GULP energy -594856.148732 kJ/mol
# GULP energy per Si atom -12392.836432 kJ/mol
# Density = 2.211975 g / cm^3
# Si number density = 22.170209 Si / 1000 Ang^3
#
#
#
# Elastic Constant Matrix: (Units=GPa)
#
#
# Indices 1 2 3 4 5 6 
#
# 1 72.0936 63.0264 25.9885 0.0000 0.0000 0.0000
# 2 63.0264 72.0935 25.9885 0.0000 0.0000 0.0000
# 3 25.9885 25.9885 121.2592 0.0000 0.0000 0.0000
# 4 0.0000 0.0000 0.0000 -3.2351 0.0000 0.0000
# 5 0.0000 0.0000 0.0000 0.0000 -3.2349 0.0000
# 6 0.0000 0.0000 0.0000 0.0000 0.0000 49.0166
#
#
#
# Elastic Compliance Matrix: (Units=1/GPa)
#
#
# Indices 1 2 3 4 5 6 
#
# 1 0.059177 -0.051111 -0.001729 0.000000 0.000000 0.000000
# 2 -0.051111 0.059177 -0.001729 0.000000 0.000000 0.000000
# 3 -0.001729 -0.001729 0.008988 0.000000 0.000000 0.000000
# 4 0.000000 0.000000 0.000000 -0.309105 0.000000 0.000000
# 5 0.000000 0.000000 0.000000 0.000000 -0.309127 0.000000
# 6 0.000000 0.000000 0.000000 0.000000 0.000000 0.020401
#
#
# Mechanical properties :
#
#
# Convention : Reuss Voigt Hill
#
# Bulk Modulus (GPa) = 54.93094 55.05037 54.99066
# Shear Modulus (GPa) = -14.07325 18.53883 2.23279
#
# Velocity S-wave (km/s) = -2.52222 2.89486 1.00464
# Velocity P-wave (km/s) = 4.04334 6.00486 5.11893
#
# Compressibility (1/GPa) = 0.01820468
#
# Stress axis : x y z
#
# Youngs Moduli (GPa) = 16.89850 16.89847 111.26214
#
# Poissons Ratio (x) = 0.86370 0.19233
# Poissons Ratio (y) = 0.86370 0.19234
# Poissons Ratio (z) = 0.02921 0.02921
#
# Static dielectric constant tensor:
#      x y z
#    x 3.969780 0.000000 0.000000 
#    y 0.000000 3.969780 0.000000 
#    z 0.000000 0.000000 3.562870 
# 
# 
# High freq. dielectric constant tensor:
#      x y z
#    x 1.872590 0.000000 0.000000 
#    y 0.000000 1.872590 0.000000 
#    z 0.000000 0.000000 1.850290 
# 
# From -- ./inp_files/5610.got.cif
#   From: 2010.03.12/outbox.cif.g09.slc.cpg/sg94_3_cif.got.tgz:5610.got - 2010.04.08 20:48:32.
