data_PCOD8305128
_publ_section_title
;
Structure prediction by ZEFSAII (Michael W. Deem and Ramdas Pophale) SiO2 
 PCOD8305128
Probable space group: P 41 2 2
;
_chemical_formula_sum "Si O2"
_cell_formula_units_Z 40
_cell_length_a 10.977802
_cell_length_b 10.977802
_cell_length_c 14.908311
_cell_angle_alpha 90.000000
_cell_angle_beta 90.000000
_cell_angle_gamma 90.000000
_cell_volume 1796.632414
_symmetry_space_group_name_H-M "P 41 2 2"
_symmetry_group_IT_number 91
_symmetry_cell_setting 'tetragonal'
loop_
_space_group_symop_operation_xyz
x,y,z
-y,x,1/4+z
-x,-y,1/2+z
y,-x,3/4+z
x,-y,1/2-z
-x,y,-z
y,x,3/4-z
-y,-x,1/4-z
loop_
_atom_site_type_symbol
_atom_site_label
_atom_site_fract_x
_atom_site_fract_y
_atom_site_fract_z
Si Si1 0.915310 0.731529 0.922996
Si Si2 0.603674 0.324720 0.936004
Si Si3 0.943267 0.638098 0.241030
Si Si4 0.731433 0.079850 0.167580
Si Si5 0.500704 0.783343 0.741238
O O1 0.819963 0.819963 0.875000
O O2 0.010214 0.695229 0.848730
O O3 0.853672 0.610446 0.961860
O O4 0.000000 0.794785 0.000000
O O5 0.654605 0.203448 0.985519
O O6 0.557343 0.301463 0.835962
O O7 0.500000 0.379082 0.000000
O O8 0.706445 0.429396 0.933052
O O9 0.983302 0.500000 0.250000
O O10 0.001020 0.704312 0.328808
O O11 0.820935 0.179066 0.125000
O O12 0.598643 0.128493 0.196214
O O13 0.788267 0.000000 0.250000
#
# Coordination Sequence:
#
# PCOD8305128 Si02
#       5
#     8   8   8   8   8
#     4  12  28  49  74 102 149 198 246 315 380 448
#     4  11  21  39  73 106 152 187 235 301 383 452
#     4  11  21  43  73 103 138 194 243 302 376 458
#     4  12  24  42  71 102 141 194 255 313 379 453
#     4  12  23  44  72 109 148 193 242 309 385 466
#
# _framework density 22.263876
#
# number of rings (size 3 to 8) (size 9 to 14) (size 15 to 20)
#    0.000    0.400    8.000    2.400    0.000    6.400 
#    0.000    3.000    0.000    0.000    0.000    0.000 
#    0.000    0.000    0.000    0.000    0.000    0.000 
#
# Total GULP energy -495602.352024 kJ/mol
# GULP energy per Si atom -12390.058801 kJ/mol
# Density = 2.221320 g / cm^3
# Si number density = 22.263876 Si / 1000 Ang^3
#
#
#
# Elastic Constant Matrix: (Units=GPa)
#
#
# Indices 1 2 3 4 5 6 
#
# 1 72.1862 48.0363 53.5848 0.0000 0.0000 0.0000
# 2 48.0363 72.1852 53.5841 0.0000 0.0000 0.0000
# 3 53.5848 53.5841 170.1875 0.0000 0.0000 0.0000
# 4 0.0000 0.0000 0.0000 42.7858 0.0000 0.0000
# 5 0.0000 0.0000 0.0000 0.0000 42.7863 0.0000
# 6 0.0000 0.0000 0.0000 0.0000 0.0000 9.3591
#
#
#
# Elastic Compliance Matrix: (Units=1/GPa)
#
#
# Indices 1 2 3 4 5 6 
#
# 1 0.026486 -0.014923 -0.003641 0.000000 0.000000 0.000000
# 2 -0.014923 0.026486 -0.003641 0.000000 0.000000 0.000000
# 3 -0.003641 -0.003641 0.008169 0.000000 0.000000 0.000000
# 4 0.000000 0.000000 0.000000 0.023372 0.000000 0.000000
# 5 0.000000 0.000000 0.000000 0.000000 0.023372 0.000000
# 6 0.000000 0.000000 0.000000 0.000000 0.000000 0.106848
#
#
# Mechanical properties :
#
#
# Convention : Reuss Voigt Hill
#
# Bulk Modulus (GPa) = 59.76504 69.44103 64.60303
# Shear Modulus (GPa) = 18.88797 29.60983 24.24890
#
# Velocity S-wave (km/s) = 2.91584 3.65080 3.30382
# Velocity P-wave (km/s) = 6.18372 7.00206 6.60557
#
# Compressibility (1/GPa) = 0.01673219
#
# Stress axis : x y z
#
# Youngs Moduli (GPa) = 37.75572 37.75532 122.42100
#
# Poissons Ratio (x) = 0.56341 0.44572
# Poissons Ratio (y) = 0.56342 0.44571
# Poissons Ratio (z) = 0.13746 0.13746
#
# Static dielectric constant tensor:
#      x y z
#    x 3.934770 0.000000 0.000000 
#    y 0.000000 3.934780 0.000000 
#    z 0.000000 0.000000 4.659410 
# 
# 
# High freq. dielectric constant tensor:
#      x y z
#    x 1.862170 0.000000 0.000000 
#    y 0.000000 1.862170 0.000000 
#    z 0.000000 0.000000 1.900660 
# 
# From -- ./inp_files/4733.got.cif
#   From: 2010.03.12/outbox.cif.g09.slc.cpg/sg91_3_cif.got.tgz:4733.got - 2010.04.08 20:27:58.
