data_PCOD8305009
_publ_section_title
;
Structure prediction by ZEFSAII (Michael W. Deem and Ramdas Pophale) SiO2 
 PCOD8305009
Probable space group: P 41 2 2
;
_chemical_formula_sum "Si O2"
_cell_formula_units_Z 64
_cell_length_a 11.911561
_cell_length_b 11.911561
_cell_length_c 22.903520
_cell_angle_alpha 90.000000
_cell_angle_beta 90.000000
_cell_angle_gamma 90.000000
_cell_volume 3249.672473
_symmetry_space_group_name_H-M "P 41 2 2"
_symmetry_group_IT_number 91
_symmetry_cell_setting 'tetragonal'
loop_
_space_group_symop_operation_xyz
x,y,z
-y,x,1/4+z
-x,-y,1/2+z
y,-x,3/4+z
x,-y,1/2-z
-x,y,-z
y,x,3/4-z
-y,-x,1/4-z
loop_
_atom_site_type_symbol
_atom_site_label
_atom_site_fract_x
_atom_site_fract_y
_atom_site_fract_z
Si Si1 0.709003 0.863447 0.521846
Si Si2 0.283120 0.102606 0.896417
Si Si3 0.367203 0.375685 0.740355
Si Si4 0.481813 0.152804 0.326208
Si Si5 0.570649 0.265137 0.787406
Si Si6 0.455850 0.643398 0.885092
Si Si7 0.919660 0.731444 0.554436
Si Si8 0.081912 0.453239 0.628491
O O1 0.742880 0.932125 0.463743
O O2 0.642285 0.760301 0.491434
O O3 0.819937 0.822723 0.555601
O O4 0.621378 0.927892 0.563111
O O5 0.213092 0.213092 0.875000
O O6 0.417731 0.115297 0.888832
O O7 0.245007 0.992329 0.861766
O O8 0.410509 0.500000 0.750000
O O9 0.439262 0.295496 0.782519
O O10 0.375659 0.350840 0.671434
O O11 0.401579 0.211705 0.276555
O O12 0.482472 0.235153 0.383125
O O13 0.606950 0.132735 0.300339
O O14 0.432679 0.034610 0.345366
O O15 0.634337 0.381497 0.805518
O O16 0.598645 0.177203 0.837499
O O17 0.542644 0.542644 0.875000
O O18 0.000000 0.750806 0.500000
#
# Coordination Sequence:
#
# PCOD8305009 Si02
#       8
#     8   8   8   8   8   8   8   8
#     4  12  22  37  59  92 124 158 200 255 311 361
#     4  11  22  35  60  94 125 160 196 246 318 374
#     4  11  20  32  52  90 131 152 188 244 313 378
#     4  10  22  37  57  86 126 168 212 239 302 377
#     4  11  19  33  57  87 123 163 198 247 301 371
#     4  11  21  34  57  88 126 161 198 252 310 373
#     4  11  20  38  60  90 124 156 200 253 309 373
#     4  11  22  37  60  89 129 160 202 257 303 372
#
# _framework density 19.694292999999998
#
# number of rings (size 3 to 8) (size 9 to 14) (size 15 to 20)
#    0.000    1.000    6.250    3.750    0.000    0.500 
#    0.000    0.000   27.500    0.750    9.750    0.000 
#    0.000    0.000    0.000    0.000    0.000    0.000 
#
# Total GULP energy -792905.794238 kJ/mol
# GULP energy per Si atom -12389.153035 kJ/mol
# Density = 1.964947 g / cm^3
# Si number density = 19.694293 Si / 1000 Ang^3
#
#
#
# Elastic Constant Matrix: (Units=GPa)
#
#
# Indices 1 2 3 4 5 6 
#
# 1 82.7967 28.5418 42.6688 0.0000 0.0000 0.0000
# 2 28.5418 82.7967 42.6688 0.0000 0.0000 0.0000
# 3 42.6688 42.6688 112.6791 0.0000 0.0000 0.0000
# 4 0.0000 0.0000 0.0000 30.8927 0.0000 0.0000
# 5 0.0000 0.0000 0.0000 0.0000 30.8927 0.0000
# 6 0.0000 0.0000 0.0000 0.0000 0.0000 16.6785
#
#
#
# Elastic Compliance Matrix: (Units=1/GPa)
#
#
# Indices 1 2 3 4 5 6 
#
# 1 0.015543 -0.002888 -0.004792 0.000000 0.000000 0.000000
# 2 -0.002888 0.015543 -0.004792 0.000000 0.000000 0.000000
# 3 -0.004792 -0.004792 0.012504 0.000000 0.000000 0.000000
# 4 0.000000 0.000000 0.000000 0.032370 0.000000 0.000000
# 5 0.000000 0.000000 0.000000 0.000000 0.032370 0.000000
# 6 0.000000 0.000000 0.000000 0.000000 0.000000 0.059957
#
#
# Mechanical properties :
#
#
# Convention : Reuss Voigt Hill
#
# Bulk Modulus (GPa) = 53.63323 56.22570 54.92946
# Shear Modulus (GPa) = 25.06927 26.65233 25.86080
#
# Velocity S-wave (km/s) = 3.57167 3.68272 3.62762
# Velocity P-wave (km/s) = 6.65591 6.83333 6.74520
#
# Compressibility (1/GPa) = 0.01864516
#
# Stress axis : x y z
#
# Youngs Moduli (GPa) = 64.33766 64.33766 79.97476
#
# Poissons Ratio (x) = 0.18584 0.38323
# Poissons Ratio (y) = 0.18584 0.38323
# Poissons Ratio (z) = 0.30830 0.30830
#
# Static dielectric constant tensor:
#      x y z
#    x 3.596290 0.000000 0.000000 
#    y 0.000000 3.596290 0.000000 
#    z 0.000000 0.000000 3.763010 
# 
# 
# High freq. dielectric constant tensor:
#      x y z
#    x 1.746560 0.000000 0.000000 
#    y 0.000000 1.746560 0.000000 
#    z 0.000000 0.000000 1.770850 
# 
# From -- ./inp_files/21853.got.cif
#   From: 2010.03.12/outbox.cif.g09.slc.cpg/sg91_11_cif.got.tgz:21853.got - 2010.04.08 20:27:58.
