data_PCOD8305284
_publ_section_title
;
Structure prediction by ZEFSAII (Michael W. Deem and Ramdas Pophale) SiO2 
 PCOD8305284
Probable space group: P 41 21 2
;
_chemical_formula_sum "Si O2"
_cell_formula_units_Z 52
_cell_length_a 17.605954
_cell_length_b 17.605954
_cell_length_c 8.318300
_cell_angle_alpha 90.000000
_cell_angle_beta 90.000000
_cell_angle_gamma 90.000000
_cell_volume 2578.420259
_symmetry_space_group_name_H-M "P 41 21 2"
_symmetry_group_IT_number 92
_symmetry_cell_setting 'tetragonal'
loop_
_space_group_symop_operation_xyz
x,y,z
1/2-y,1/2+x,1/4+z
-x,-y,1/2+z
1/2+y,1/2-x,3/4+z
1/2+x,1/2-y,3/4-z
1/2-x,1/2+y,1/4-z
y,x,-z
-y,-x,1/2-z
loop_
_atom_site_type_symbol
_atom_site_label
_atom_site_fract_x
_atom_site_fract_y
_atom_site_fract_z
Si Si1 0.377440 0.853483 0.770643
Si Si2 0.770550 0.985497 0.869648
Si Si3 0.365790 0.634211 0.750000
Si Si4 0.212066 0.353965 0.785294
Si Si5 0.316596 0.746540 0.022733
Si Si6 0.416010 0.995913 0.940696
Si Si7 0.920742 0.718314 0.451187
O O1 0.441019 0.797911 0.702220
O O2 0.305821 0.866535 0.652731
O O3 0.343123 0.823897 0.938900
O O4 0.422193 0.930060 0.807806
O O5 0.771271 0.963461 0.680046
O O6 0.762415 0.076191 0.895411
O O7 0.847626 0.954596 0.961198
O O8 0.330150 0.675704 0.905323
O O9 0.254277 0.273101 0.813223
O O10 0.130581 0.348843 0.872817
O O11 0.366145 0.731642 0.184194
O O12 0.470788 0.061244 0.870716
O O13 0.327217 0.017977 0.944565
#
# Coordination Sequence:
#
# PCOD8305284 Si02
#       7
#     8   8   4   8   8   8   8
#     4  10  21  38  56  82 121 162 209 245 305 378
#     4  10  22  37  57  85 116 158 207 254 312 377
#     4  10  20  40  60  82 120 154 208 252 324 376
#     4  11  21  36  61  82 114 160 209 266 302 364
#     4  11  19  40  58  84 115 165 210 259 303 369
#     4  12  25  35  52  81 128 171 198 238 297 379
#     4  11  23  37  54  84 123 161 210 248 304 371
#
# _framework density 20.167387999999999
#
# number of rings (size 3 to 8) (size 9 to 14) (size 15 to 20)
#    0.000    1.231    6.154    2.308    8.615    0.000 
#    0.000    0.000    0.000    0.000    0.000    4.308 
#    4.615    0.000    0.000    0.000    0.000    0.000 
#
# Total GULP energy -644478.462868 kJ/mol
# GULP energy per Si atom -12393.816594 kJ/mol
# Density = 2.012149 g / cm^3
# Si number density = 20.167388 Si / 1000 Ang^3
#
#
#
# Elastic Constant Matrix: (Units=GPa)
#
#
# Indices 1 2 3 4 5 6 
#
# 1 61.5656 6.8874 25.2530 0.0000 0.0000 0.0000
# 2 6.8874 61.5657 25.2529 0.0000 0.0000 0.0000
# 3 25.2530 25.2529 92.2593 0.0000 0.0000 0.0000
# 4 0.0000 0.0000 0.0000 26.6054 0.0000 0.0000
# 5 0.0000 0.0000 0.0000 0.0000 26.6056 0.0000
# 6 0.0000 0.0000 0.0000 0.0000 0.0000 25.7295
#
#
#
# Elastic Compliance Matrix: (Units=1/GPa)
#
#
# Indices 1 2 3 4 5 6 
#
# 1 0.018297 0.000008 -0.005011 0.000000 0.000000 0.000000
# 2 0.000008 0.018297 -0.005010 0.000000 0.000000 0.000000
# 3 -0.005011 -0.005010 0.013582 0.000000 0.000000 0.000000
# 4 0.000000 0.000000 0.000000 0.037586 0.000000 0.000000
# 5 0.000000 0.000000 0.000000 0.000000 0.037586 0.000000
# 6 0.000000 0.000000 0.000000 0.000000 0.000000 0.038866
#
#
# Mechanical properties :
#
#
# Convention : Reuss Voigt Hill
#
# Bulk Modulus (GPa) = 33.16670 36.68636 34.92653
# Shear Modulus (GPa) = 25.73471 26.32125 26.02798
#
# Velocity S-wave (km/s) = 3.57607 3.61659 3.59639
# Velocity P-wave (km/s) = 5.79072 5.97244 5.88228
#
# Compressibility (1/GPa) = 0.03015072
#
# Stress axis : x y z
#
# Youngs Moduli (GPa) = 54.65338 54.65352 73.62724
#
# Poissons Ratio (x) = -0.00045 0.36891
# Poissons Ratio (y) = -0.00045 0.36891
# Poissons Ratio (z) = 0.27384 0.27384
#
# Static dielectric constant tensor:
#      x y z
#    x 3.469930 0.000000 0.000000 
#    y 0.000000 3.469940 0.000000 
#    z 0.000000 0.000000 3.928250 
# 
# 
# High freq. dielectric constant tensor:
#      x y z
#    x 1.758210 0.000000 0.000000 
#    y 0.000000 1.758210 0.000000 
#    z 0.000000 0.000000 1.806970 
# 
# From -- ./inp_files/1572.got.cif
#   From: 2010.03.12/outbox.cif.g09.slc.cpg/sg92_1_cif.got.tgz:1572.got - 2010.04.08 20:41:11.
