data_PCOD8305761
_publ_section_title
;
Structure prediction by ZEFSAII (Michael W. Deem and Ramdas Pophale) SiO2 
 PCOD8305761
Probable space group: P 42 21 2
;
_chemical_formula_sum "Si O2"
_cell_formula_units_Z 40
_cell_length_a 19.921591
_cell_length_b 19.921591
_cell_length_c 4.871836
_cell_angle_alpha 90.000000
_cell_angle_beta 90.000000
_cell_angle_gamma 90.000000
_cell_volume 1933.484520
_symmetry_space_group_name_H-M "P 42 21 2"
_symmetry_group_IT_number 94
_symmetry_cell_setting 'tetragonal'
loop_
_space_group_symop_operation_xyz
x,y,z
1/2-y,1/2+x,1/2+z
-x,-y,z
1/2+y,1/2-x,1/2+z
1/2+x,1/2-y,1/2-z
1/2-x,1/2+y,1/2-z
y,x,-z
-y,-x,-z
loop_
_atom_site_type_symbol
_atom_site_label
_atom_site_fract_x
_atom_site_fract_y
_atom_site_fract_z
Si Si1 0.496115 0.162511 0.426086
Si Si2 0.593642 0.862741 0.905329
Si Si3 0.393565 0.503896 0.048969
Si Si4 0.229067 0.833857 0.231833
Si Si5 0.811078 0.029212 0.957822
O O1 0.567080 0.130334 0.362278
O O2 0.470384 0.132385 0.709990
O O3 0.509332 0.240933 0.472277
O O4 0.436740 0.149802 0.205918
O O5 0.646493 0.804302 0.822814
O O6 0.333061 0.477967 0.857626
O O7 0.454093 0.454093 0.000000
O O8 0.420401 0.579600 0.000000
O O9 0.367462 0.506487 0.359617
O O10 0.186393 0.813608 0.500000
O O11 0.194979 0.895160 0.067253
O O12 0.226186 0.773815 0.000000
#
# Coordination Sequence:
#
# PCOD8305761 Si02
#       5
#     8   8   8   8   8
#     4  11  24  41  63  88 120 154 195 247 296 356
#     4  11  24  41  62  91 120 154 196 242 296 350
#     4  11  22  35  55  84 116 151 195 239 283 345
#     4  11  21  37  62  89 116 151 198 243 285 340
#     4  11  21  37  58  82 114 152 191 238 292 339
#
# _framework density 20.688039
#
# number of rings (size 3 to 8) (size 9 to 14) (size 15 to 20)
#    0.000    1.000    0.000   10.200    0.000    4.000 
#    0.000    3.000    0.000    0.000    0.000    0.000 
#    0.000    0.000    0.000    0.000    0.000    0.000 
#
# Total GULP energy -495864.359809 kJ/mol
# GULP energy per Si atom -12396.608995 kJ/mol
# Density = 2.064095 g / cm^3
# Si number density = 20.688039 Si / 1000 Ang^3
#
#
#
# Elastic Constant Matrix: (Units=GPa)
#
#
# Indices 1 2 3 4 5 6 
#
# 1 184.3523 -62.9862 -3.5746 0.0000 0.0000 0.0000
# 2 -62.9862 184.3310 -3.5780 0.0000 0.0000 0.0000
# 3 -3.5746 -3.5780 62.6675 0.0000 0.0000 0.0000
# 4 0.0000 0.0000 0.0000 60.8728 0.0000 0.0000
# 5 0.0000 0.0000 0.0000 0.0000 60.8720 0.0000
# 6 0.0000 0.0000 0.0000 0.0000 0.0000 28.7437
#
#
#
# Elastic Compliance Matrix: (Units=1/GPa)
#
#
# Indices 1 2 3 4 5 6 
#
# 1 0.006155 0.002112 0.000472 0.000000 0.000000 0.000000
# 2 0.002112 0.006156 0.000472 0.000000 0.000000 0.000000
# 3 0.000472 0.000472 0.016011 0.000000 0.000000 0.000000
# 4 0.000000 0.000000 0.000000 0.016428 0.000000 0.000000
# 5 0.000000 0.000000 0.000000 0.000000 0.016428 0.000000
# 6 0.000000 0.000000 0.000000 0.000000 0.000000 0.034790
#
#
# Mechanical properties :
#
#
# Convention : Reuss Voigt Hill
#
# Bulk Modulus (GPa) = 29.04057 32.34146 30.69102
# Shear Modulus (GPa) = 49.34169 63.53033 56.43601
#
# Velocity S-wave (km/s) = 4.88898 5.54756 5.22865
# Velocity P-wave (km/s) = 6.77771 7.52999 7.16373
#
# Compressibility (1/GPa) = 0.03443459
#
# Stress axis : x y z
#
# Youngs Moduli (GPa) = 162.46215 162.44301 62.45671
#
# Poissons Ratio (x) = -0.34315 -0.02946
# Poissons Ratio (y) = -0.34319 -0.02948
# Poissons Ratio (z) = -0.07664 -0.07667
#
# Static dielectric constant tensor:
#      x y z
#    x 3.722650 0.000000 0.000000 
#    y 0.000000 3.722640 0.000000 
#    z 0.000000 0.000000 3.977000 
# 
# 
# High freq. dielectric constant tensor:
#      x y z
#    x 1.798860 0.000000 0.000000 
#    y 0.000000 1.798860 0.000000 
#    z 0.000000 0.000000 1.833790 
# 
# From -- ./inp_files/349.got.cif
#   From: 2010.03.12/outbox.cif.g09.slc.cpg/sg94_1_cif.got.tgz:349.got - 2010.04.08 20:48:32.
