data_PCOD8305722
_publ_section_title
;
Structure prediction by ZEFSAII (Michael W. Deem and Ramdas Pophale) SiO2 
 PCOD8305722
Probable space group: P 42 21 2
;
_chemical_formula_sum "Si O2"
_cell_formula_units_Z 56
_cell_length_a 15.046031
_cell_length_b 15.046031
_cell_length_c 10.976574
_cell_angle_alpha 90.000000
_cell_angle_beta 90.000000
_cell_angle_gamma 90.000000
_cell_volume 2484.910288
_symmetry_space_group_name_H-M "P 42 21 2"
_symmetry_group_IT_number 94
_symmetry_cell_setting 'tetragonal'
loop_
_space_group_symop_operation_xyz
x,y,z
1/2-y,1/2+x,1/2+z
-x,-y,z
1/2+y,1/2-x,1/2+z
1/2+x,1/2-y,1/2-z
1/2-x,1/2+y,1/2-z
y,x,-z
-y,-x,-z
loop_
_atom_site_type_symbol
_atom_site_label
_atom_site_fract_x
_atom_site_fract_y
_atom_site_fract_z
Si Si1 0.065791 0.183859 0.083849
Si Si2 0.667027 0.983154 0.480599
Si Si3 0.422195 0.217592 0.745459
Si Si4 0.321809 0.167820 0.312491
Si Si5 0.624444 0.651961 0.374201
Si Si6 0.434654 0.850888 0.578120
Si Si7 0.138611 0.240607 0.325143
O O1 0.092335 0.180487 0.224306
O O2 0.974706 0.126339 0.083513
O O3 0.136753 0.136753 0.000000
O O4 0.055983 0.285795 0.037323
O O5 0.723216 0.040468 0.382436
O O6 0.592057 0.048017 0.538759
O O7 0.624980 0.902394 0.399720
O O8 0.732255 0.937742 0.578871
O O9 0.424760 0.320192 0.696307
O O10 0.472890 0.149762 0.653580
O O11 0.322842 0.182293 0.746775
O O12 0.380224 0.256516 0.298760
O O13 0.311022 0.136258 0.173596
O O14 0.224038 0.184651 0.374123
O O15 0.676243 0.676243 0.500000
#
# Coordination Sequence:
#
# PCOD8305722 Si02
#       7
#     8   8   8   8   8   8   8
#     4  12  24  42  66  99 136 175 239 293 346 413
#     4  11  23  40  68 102 138 178 232 293 351 418
#     4  10  23  43  66  96 139 185 237 286 351 437
#     4  10  22  42  68  95 135 188 226 278 351 432
#     4  11  22  42  66  93 134 183 237 277 347 428
#     4  11  22  42  64 100 133 172 228 295 348 409
#     4  11  22  43  67  99 141 193 227 282 357 426
#
# _framework density 22.536024000000001
#
# number of rings (size 3 to 8) (size 9 to 14) (size 15 to 20)
#    0.000    1.143    4.286    3.000    0.000    0.857 
#    0.000    3.571    0.000    0.000    0.000    6.000 
#    0.000    0.000    0.000    0.000    0.000    0.000 
#
# Total GULP energy -693808.503556 kJ/mol
# GULP energy per Si atom -12389.437564 kJ/mol
# Density = 2.248473 g / cm^3
# Si number density = 22.536024 Si / 1000 Ang^3
#
#
#
# Elastic Constant Matrix: (Units=GPa)
#
#
# Indices 1 2 3 4 5 6 
#
# 1 93.8896 28.2621 26.7817 0.0000 0.0000 0.0000
# 2 28.2621 93.8896 26.7817 0.0000 0.0000 0.0000
# 3 26.7817 26.7817 97.7081 0.0000 0.0000 0.0000
# 4 0.0000 0.0000 0.0000 32.3044 0.0000 0.0000
# 5 0.0000 0.0000 0.0000 0.0000 32.3044 0.0000
# 6 0.0000 0.0000 0.0000 0.0000 0.0000 32.0408
#
#
#
# Elastic Compliance Matrix: (Units=1/GPa)
#
#
# Indices 1 2 3 4 5 6 
#
# 1 0.012271 -0.002966 -0.002550 0.000000 0.000000 0.000000
# 2 -0.002966 0.012271 -0.002550 0.000000 0.000000 0.000000
# 3 -0.002550 -0.002550 0.011633 0.000000 0.000000 0.000000
# 4 0.000000 0.000000 0.000000 0.030956 0.000000 0.000000
# 5 0.000000 0.000000 0.000000 0.000000 0.030956 0.000000
# 6 0.000000 0.000000 0.000000 0.000000 0.000000 0.031210
#
#
# Mechanical properties :
#
#
# Convention : Reuss Voigt Hill
#
# Bulk Modulus (GPa) = 49.89850 49.90427 49.90138
# Shear Modulus (GPa) = 32.87073 32.90740 32.88907
#
# Velocity S-wave (km/s) = 3.82329 3.82542 3.82435
# Velocity P-wave (km/s) = 6.45599 6.45787 6.45693
#
# Compressibility (1/GPa) = 0.02004068
#
# Stress axis : x y z
#
# Youngs Moduli (GPa) = 81.49155 81.49155 85.96442
#
# Poissons Ratio (x) = 0.24173 0.21925
# Poissons Ratio (y) = 0.24173 0.21925
# Poissons Ratio (z) = 0.20784 0.20784
#
# Static dielectric constant tensor:
#      x y z
#    x 4.039810 0.000000 0.000000 
#    y 0.000000 4.039810 0.000000 
#    z 0.000000 0.000000 4.121270 
# 
# 
# High freq. dielectric constant tensor:
#      x y z
#    x 1.877500 0.000000 0.000000 
#    y 0.000000 1.877500 0.000000 
#    z 0.000000 0.000000 1.895840 
# 
# From -- ./inp_files/2711.got.cif
#   From: 2010.03.12/outbox.cif.g09.slc.cpg/sg94_2_cif.got.tgz:2711.got - 2010.04.08 20:48:32.
