data_PCOD8305264
_publ_section_title
;
Structure prediction by ZEFSAII (Michael W. Deem and Ramdas Pophale) SiO2 
 PCOD8305264
Probable space group: P 41 21 2
;
_chemical_formula_sum "Si O2"
_cell_formula_units_Z 48
_cell_length_a 9.290439
_cell_length_b 9.290439
_cell_length_c 27.971889
_cell_angle_alpha 90.000000
_cell_angle_beta 90.000000
_cell_angle_gamma 90.000000
_cell_volume 2414.316867
_symmetry_space_group_name_H-M "P 41 21 2"
_symmetry_group_IT_number 92
_symmetry_cell_setting 'tetragonal'
loop_
_space_group_symop_operation_xyz
x,y,z
1/2-y,1/2+x,1/4+z
-x,-y,1/2+z
1/2+y,1/2-x,3/4+z
1/2+x,1/2-y,3/4-z
1/2-x,1/2+y,1/4-z
y,x,-z
-y,-x,1/2-z
loop_
_atom_site_type_symbol
_atom_site_label
_atom_site_fract_x
_atom_site_fract_y
_atom_site_fract_z
Si Si1 0.303105 0.980611 0.636288
Si Si2 0.721722 0.877760 0.235534
Si Si3 0.778092 0.032187 0.781262
Si Si4 0.928572 0.468948 0.210043
Si Si5 0.438252 0.344509 0.236732
Si Si6 0.679462 0.443978 0.365225
O O1 0.339369 0.059263 0.685830
O O2 0.142646 0.027885 0.619082
O O3 0.417980 0.033366 0.597076
O O4 0.322391 0.806872 0.638708
O O5 0.651774 0.724260 0.245616
O O6 0.892924 0.866214 0.236474
O O7 0.676009 0.987873 0.276723
O O8 0.833111 0.166890 0.750000
O O9 0.608837 0.014970 0.770833
O O10 0.802417 0.046593 0.838355
O O11 0.771957 0.467979 0.234258
O O12 0.500113 0.499888 0.250000
O O13 0.449991 0.316227 0.179947
#
# Coordination Sequence:
#
# PCOD8305264 Si02
#       6
#     8   8   8   8   8   8
#     4  10  20  36  61  89 117 155 204 251 300 354
#     4  10  22  38  57  86 120 152 200 252 297 363
#     4   9  21  39  56  81 119 152 195 246 299 360
#     4  10  20  38  61  83 115 157 195 250 304 354
#     4  11  21  38  59  88 122 155 199 252 301 359
#     4  10  20  36  61  87 118 157 199 252 305 357
#
# _framework density 19.881398999999998
#
# number of rings (size 3 to 8) (size 9 to 14) (size 15 to 20)
#    0.000    2.000    3.333    1.000    0.000    4.000 
#    3.000    0.000    0.000    0.000    0.000    0.000 
#    0.000    0.000    0.000    0.000    0.000    0.000 
#
# Total GULP energy -595076.136785 kJ/mol
# GULP energy per Si atom -12397.419516 kJ/mol
# Density = 1.983615 g / cm^3
# Si number density = 19.881399 Si / 1000 Ang^3
#
#
#
# Elastic Constant Matrix: (Units=GPa)
#
#
# Indices 1 2 3 4 5 6 
#
# 1 33.1708 13.3778 17.0931 0.0000 0.0000 0.0000
# 2 13.3778 33.1684 17.0921 0.0000 0.0000 0.0000
# 3 17.0931 17.0921 82.2337 0.0000 0.0000 0.0000
# 4 0.0000 0.0000 0.0000 29.8012 0.0000 0.0000
# 5 0.0000 0.0000 0.0000 0.0000 29.8013 0.0000
# 6 0.0000 0.0000 0.0000 0.0000 0.0000 34.5679
#
#
#
# Elastic Compliance Matrix: (Units=1/GPa)
#
#
# Indices 1 2 3 4 5 6 
#
# 1 0.037939 -0.012586 -0.005270 0.000000 0.000000 0.000000
# 2 -0.012586 0.037941 -0.005270 0.000000 0.000000 0.000000
# 3 -0.005270 -0.005270 0.014351 0.000000 0.000000 0.000000
# 4 0.000000 0.000000 0.000000 0.033556 0.000000 0.000000
# 5 0.000000 0.000000 0.000000 0.000000 0.033556 0.000000
# 6 0.000000 0.000000 0.000000 0.000000 0.000000 0.028929
#
#
# Mechanical properties :
#
#
# Convention : Reuss Voigt Hill
#
# Bulk Modulus (GPa) = 22.73803 27.07766 24.90785
# Shear Modulus (GPa) = 20.22801 25.56810 22.89805
#
# Velocity S-wave (km/s) = 3.19318 3.59002 3.39740
# Velocity P-wave (km/s) = 5.00569 5.55279 5.28632
#
# Compressibility (1/GPa) = 0.04397918
#
# Stress axis : x y z
#
# Youngs Moduli (GPa) = 26.35839 26.35664 69.68064
#
# Poissons Ratio (x) = 0.33173 0.36721
# Poissons Ratio (y) = 0.33175 0.36721
# Poissons Ratio (z) = 0.13891 0.13890
#
# Static dielectric constant tensor:
#      x y z
#    x 3.440550 0.000000 0.000000 
#    y 0.000000 3.440550 0.000000 
#    z 0.000000 0.000000 3.796030 
# 
# 
# High freq. dielectric constant tensor:
#      x y z
#    x 1.756380 0.000000 0.000000 
#    y 0.000000 1.756380 0.000000 
#    z 0.000000 0.000000 1.791000 
# 
# From -- ./inp_files/4496.got.cif
#   From: 2010.03.12/outbox.cif.g09.slc.cpg/sg92_3_cif.got.tgz:4496.got - 2010.04.08 20:41:11.
