data_PCOD8305062
_publ_section_title
;
Structure prediction by ZEFSAII (Michael W. Deem and Ramdas Pophale) SiO2 
 PCOD8305062
Probable space group: P 41 2 2
;
_chemical_formula_sum "Si O2"
_cell_formula_units_Z 60
_cell_length_a 11.675105
_cell_length_b 11.675105
_cell_length_c 20.066410
_cell_angle_alpha 90.000000
_cell_angle_beta 90.000000
_cell_angle_gamma 90.000000
_cell_volume 2735.213755
_symmetry_space_group_name_H-M "P 41 2 2"
_symmetry_group_IT_number 91
_symmetry_cell_setting 'tetragonal'
loop_
_space_group_symop_operation_xyz
x,y,z
-y,x,1/4+z
-x,-y,1/2+z
y,-x,3/4+z
x,-y,1/2-z
-x,y,-z
y,x,3/4-z
-y,-x,1/4-z
loop_
_atom_site_type_symbol
_atom_site_label
_atom_site_fract_x
_atom_site_fract_y
_atom_site_fract_z
Si Si1 0.784169 0.801887 0.582574
Si Si2 0.180426 0.424149 0.904075
Si Si3 0.974564 0.316928 0.851545
Si Si4 0.347939 0.949963 0.321123
Si Si5 0.845171 0.693121 0.836882
Si Si6 0.694469 0.618893 0.270809
Si Si7 0.892989 0.500000 0.750000
Si Si8 0.868049 0.011129 0.505984
O O1 0.857690 0.691589 0.605294
O O2 0.751590 0.869472 0.650189
O O3 0.671672 0.763144 0.541938
O O4 0.861322 0.885125 0.537664
O O5 0.129773 0.541007 0.932459
O O6 0.218025 0.424220 0.827122
O O7 0.285878 0.392381 0.951903
O O8 0.077301 0.331838 0.904837
O O9 0.972044 0.425464 0.800668
O O10 0.993702 0.195799 0.814854
O O11 0.311767 0.000000 0.250000
O O12 0.367917 0.058557 0.368492
O O13 0.729994 0.729994 0.875000
O O14 0.810545 0.592678 0.785599
O O15 0.893961 0.806841 0.801978
O O16 0.630085 0.500000 0.250000
O O17 0.000000 0.048019 0.500000
#
# Coordination Sequence:
#
# PCOD8305062 Si02
#       8
#     8   8   8   8   8   8   4   8
#     4  11  25  41  67  96 147 189 234 293 366 432
#     4  11  24  43  73 102 135 188 245 313 351 436
#     4  11  24  40  69 104 138 184 236 287 357 433
#     4  11  25  42  67 102 140 187 240 293 356 444
#     4  10  23  40  68 100 137 190 234 288 350 430
#     4  11  24  44  70 101 139 186 244 303 377 417
#     4  10  22  44  70  98 140 190 234 294 348 440
#     4  10  24  38  60  95 150 184 219 278 353 435
#
# _framework density 21.936129999999999
#
# number of rings (size 3 to 8) (size 9 to 14) (size 15 to 20)
#    0.000    1.333    4.000    0.000   12.133    0.000 
#    0.000    0.000    1.467    0.000    0.000    0.000 
#    0.000    0.000    0.000    0.000    0.000    0.000 
#
# Total GULP energy -743808.869854 kJ/mol
# GULP energy per Si atom -12396.814498 kJ/mol
# Density = 2.188620 g / cm^3
# Si number density = 21.936130 Si / 1000 Ang^3
#
#
#
# Elastic Constant Matrix: (Units=GPa)
#
#
# Indices 1 2 3 4 5 6 
#
# 1 132.3987 58.7373 49.2807 0.0000 0.0000 0.0000
# 2 58.7373 132.3987 49.2807 0.0000 0.0000 0.0000
# 3 49.2807 49.2807 95.6725 0.0000 0.0000 0.0000
# 4 0.0000 0.0000 0.0000 31.0728 0.0000 0.0000
# 5 0.0000 0.0000 0.0000 0.0000 31.0728 0.0000
# 6 0.0000 0.0000 0.0000 0.0000 0.0000 17.8311
#
#
#
# Elastic Compliance Matrix: (Units=1/GPa)
#
#
# Indices 1 2 3 4 5 6 
#
# 1 0.010350 -0.003226 -0.003670 0.000000 0.000000 0.000000
# 2 -0.003226 0.010350 -0.003670 0.000000 0.000000 0.000000
# 3 -0.003670 -0.003670 0.014233 0.000000 0.000000 0.000000
# 4 0.000000 0.000000 0.000000 0.032183 0.000000 0.000000
# 5 0.000000 0.000000 0.000000 0.000000 0.032183 0.000000
# 6 0.000000 0.000000 0.000000 0.000000 0.000000 0.056082
#
#
# Mechanical properties :
#
#
# Convention : Reuss Voigt Hill
#
# Bulk Modulus (GPa) = 72.45043 75.00747 73.72895
# Shear Modulus (GPa) = 27.60750 29.54008 28.57379
#
# Velocity S-wave (km/s) = 3.55144 3.67364 3.61306
# Velocity P-wave (km/s) = 7.06517 7.22925 7.14768
#
# Compressibility (1/GPa) = 0.01380254
#
# Stress axis : x y z
#
# Youngs Moduli (GPa) = 96.61930 96.61930 70.26042
#
# Poissons Ratio (x) = 0.31167 0.25783
# Poissons Ratio (y) = 0.31167 0.25783
# Poissons Ratio (z) = 0.35456 0.35456
#
# Static dielectric constant tensor:
#      x y z
#    x 3.769040 0.000000 0.000000 
#    y 0.000000 3.769040 0.000000 
#    z 0.000000 0.000000 4.110460 
# 
# 
# High freq. dielectric constant tensor:
#      x y z
#    x 1.851020 0.000000 0.000000 
#    y 0.000000 1.851020 0.000000 
#    z 0.000000 0.000000 1.868120 
# 
# From -- ./inp_files/12514.got.cif
#   From: 2010.03.12/outbox.cif.g09.slc.cpg/sg91_7_cif.got.tgz:12514.got - 2010.04.08 20:27:58.
