data_PCOD8305994
_publ_section_title
;
Structure prediction by ZEFSAII (Michael W. Deem and Ramdas Pophale) SiO2 
 PCOD8305994
Probable space group: P 43 21 2
;
_chemical_formula_sum "Si O2"
_cell_formula_units_Z 48
_cell_length_a 8.610453
_cell_length_b 8.610453
_cell_length_c 28.245524
_cell_angle_alpha 90.000000
_cell_angle_beta 90.000000
_cell_angle_gamma 90.000000
_cell_volume 2094.120349
_symmetry_space_group_name_H-M "P 43 21 2"
_symmetry_group_IT_number 96
_symmetry_cell_setting 'tetragonal'
loop_
_space_group_symop_operation_xyz
x,y,z
1/2-y,1/2+x,3/4+z
-x,-y,1/2+z
1/2+y,1/2-x,1/4+z
1/2+x,1/2-y,1/4-z
1/2-x,1/2+y,3/4-z
y,x,-z
-y,-x,1/2-z
loop_
_atom_site_type_symbol
_atom_site_label
_atom_site_fract_x
_atom_site_fract_y
_atom_site_fract_z
Si Si1 0.311134 0.877615 0.077291
Si Si2 0.660327 0.406092 0.428161
Si Si3 0.864788 0.819330 0.575853
Si Si4 0.126957 0.799683 0.164069
Si Si5 0.826622 0.173379 0.250000
Si Si6 0.659073 0.654332 0.729402
Si Si7 0.187878 0.187878 0.500000
O O1 0.206898 0.775804 0.113090
O O2 0.489897 0.826990 0.082760
O O3 0.277436 0.060627 0.087339
O O4 0.266041 0.849509 0.023809
O O5 0.736248 0.439076 0.376039
O O6 0.476190 0.427768 0.421304
O O7 0.703687 0.512714 0.472958
O O8 0.736831 0.242102 0.440810
O O9 0.802156 0.681257 0.542032
O O10 0.996783 0.901386 0.544175
O O11 0.256163 0.776351 0.203689
O O12 0.736753 0.492098 0.743730
#
# Coordination Sequence:
#
# PCOD8305994 Si02
#       7
#     8   8   8   8   4   8   4
#     4  11  22  45  72 103 145 190 243 306 371 448
#     4  11  27  44  70 105 145 190 251 308 375 459
#     4  11  24  46  72 103 146 194 244 306 378 460
#     4  11  26  45  71 106 148 192 251 312 370 451
#     4  12  22  46  70 106 142 198 240 312 386 446
#     4  12  23  46  71 100 144 187 240 307 370 447
#     4  12  24  42  70 110 136 194 242 300 378 444
#
# _framework density 22.921317999999999
#
# number of rings (size 3 to 8) (size 9 to 14) (size 15 to 20)
#    0.000    0.667    3.333    4.500    4.667    1.333 
#    3.000    0.000    0.000    0.000    0.000    0.000 
#    0.000    0.000    0.000    0.000    0.000    0.000 
#
# Total GULP energy -594768.075698 kJ/mol
# GULP energy per Si atom -12391.001577 kJ/mol
# Density = 2.286915 g / cm^3
# Si number density = 22.921318 Si / 1000 Ang^3
#
#
#
# Elastic Constant Matrix: (Units=GPa)
#
#
# Indices 1 2 3 4 5 6 
#
# 1 68.4067 49.4255 43.6310 0.0000 0.0000 0.0000
# 2 49.4255 68.4064 43.6307 0.0000 0.0000 0.0000
# 3 43.6310 43.6307 173.2508 0.0000 0.0000 0.0000
# 4 0.0000 0.0000 0.0000 35.9061 0.0000 0.0000
# 5 0.0000 0.0000 0.0000 0.0000 35.9061 0.0000
# 6 0.0000 0.0000 0.0000 0.0000 0.0000 37.0016
#
#
#
# Elastic Compliance Matrix: (Units=1/GPa)
#
#
# Indices 1 2 3 4 5 6 
#
# 1 0.031558 -0.021126 -0.002627 0.000000 0.000000 0.000000
# 2 -0.021126 0.031558 -0.002627 0.000000 0.000000 0.000000
# 3 -0.002627 -0.002627 0.007095 0.000000 0.000000 0.000000
# 4 0.000000 0.000000 0.000000 0.027850 0.000000 0.000000
# 5 0.000000 0.000000 0.000000 0.000000 0.027850 0.000000
# 6 0.000000 0.000000 0.000000 0.000000 0.000000 0.027026
#
#
# Mechanical properties :
#
#
# Convention : Reuss Voigt Hill
#
# Bulk Modulus (GPa) = 57.30370 64.82648 61.06509
# Shear Modulus (GPa) = 23.63889 33.32121 28.48005
#
# Velocity S-wave (km/s) = 3.21488 3.81691 3.52875
# Velocity P-wave (km/s) = 6.23178 6.91148 6.58041
#
# Compressibility (1/GPa) = 0.01745088
#
# Stress axis : x y z
#
# Youngs Moduli (GPa) = 31.68758 31.68748 140.93956
#
# Poissons Ratio (x) = 0.66943 0.37028
# Poissons Ratio (y) = 0.66943 0.37028
# Poissons Ratio (z) = 0.08325 0.08325
#
# Static dielectric constant tensor:
#      x y z
#    x 4.032070 0.000000 0.000000 
#    y 0.000000 4.032080 0.000000 
#    z 0.000000 0.000000 4.565530 
# 
# 
# High freq. dielectric constant tensor:
#      x y z
#    x 1.891190 0.000000 0.000000 
#    y 0.000000 1.891190 0.000000 
#    z 0.000000 0.000000 1.940740 
# 
# From -- ./inp_files/4515.got.cif
#   From: 2010.03.12/outbox.cif.g09.slc.cpg/sg96_3_cif.got.tgz:4515.got - 2010.04.08 20:56:49.
