data_PCOD8305330
_publ_section_title
;
Structure prediction by ZEFSAII (Michael W. Deem and Ramdas Pophale) SiO2 
 PCOD8305330
Probable space group: P 41 21 2
;
_chemical_formula_sum "Si O2"
_cell_formula_units_Z 60
_cell_length_a 11.571415
_cell_length_b 11.571415
_cell_length_c 21.527490
_cell_angle_alpha 90.000000
_cell_angle_beta 90.000000
_cell_angle_gamma 90.000000
_cell_volume 2882.480216
_symmetry_space_group_name_H-M "P 41 21 2"
_symmetry_group_IT_number 92
_symmetry_cell_setting 'tetragonal'
loop_
_space_group_symop_operation_xyz
x,y,z
1/2-y,1/2+x,1/4+z
-x,-y,1/2+z
1/2+y,1/2-x,3/4+z
1/2+x,1/2-y,3/4-z
1/2-x,1/2+y,1/4-z
y,x,-z
-y,-x,1/2-z
loop_
_atom_site_type_symbol
_atom_site_label
_atom_site_fract_x
_atom_site_fract_y
_atom_site_fract_z
Si Si1 0.927164 0.382121 0.469924
Si Si2 0.924418 0.639016 0.444769
Si Si3 0.787102 0.976628 0.329171
Si Si4 0.316952 0.316952 0.000000
Si Si5 0.089496 0.654902 0.779922
Si Si6 0.942855 0.366135 0.071767
Si Si7 0.260377 0.549594 0.069407
Si Si8 0.178749 0.796631 0.882774
O O1 0.922544 0.501492 0.431030
O O2 0.841581 0.397638 0.527906
O O3 0.900657 0.268210 0.431206
O O4 0.057671 0.350069 0.488820
O O5 0.794508 0.684903 0.455635
O O6 0.977793 0.707641 0.386837
O O7 0.004205 0.665139 0.504635
O O8 0.745272 0.016924 0.261436
O O9 0.673140 0.965370 0.374514
O O10 0.868794 0.076612 0.360716
O O11 0.854127 0.858435 0.324318
O O12 0.314652 0.432639 0.041775
O O13 0.187677 0.719264 0.820163
O O14 0.000998 0.587284 0.826037
O O15 0.819740 0.301946 0.084351
#
# Coordination Sequence:
#
# PCOD8305330 Si02
#       8
#     8   8   8   4   8   8   8   8
#     4  10  22  39  62  95 125 165 218 282 308 394
#     4  10  21  41  63  89 125 168 217 264 331 383
#     4  10  23  38  62  91 127 175 207 272 335 394
#     4  10  24  38  62  98 122 162 222 266 312 404
#     4  11  20  39  66  89 128 172 224 259 330 397
#     4   9  22  37  64  91 124 168 217 267 315 402
#     4  11  23  40  66  89 131 167 216 270 337 378
#     4  10  22  39  58  95 127 162 216 264 329 391
#
# _framework density 20.815408999999999
#
# number of rings (size 3 to 8) (size 9 to 14) (size 15 to 20)
#    0.800    1.067    0.000    3.600    1.867    8.533 
#    0.000    0.000    2.933    0.000    0.000    0.000 
#    0.000    0.000    0.000    0.000    0.000    0.000 
#
# Total GULP energy -743373.026665 kJ/mol
# GULP energy per Si atom -12389.550444 kJ/mol
# Density = 2.076803 g / cm^3
# Si number density = 20.815409 Si / 1000 Ang^3
#
#
#
# Elastic Constant Matrix: (Units=GPa)
#
#
# Indices 1 2 3 4 5 6 
#
# 1 80.5600 36.3221 28.7134 0.0000 0.0000 0.0000
# 2 36.3221 80.5600 28.7134 0.0000 0.0000 0.0000
# 3 28.7134 28.7134 90.4331 0.0000 0.0000 0.0000
# 4 0.0000 0.0000 0.0000 37.7501 0.0000 0.0000
# 5 0.0000 0.0000 0.0000 0.0000 37.7501 0.0000
# 6 0.0000 0.0000 0.0000 0.0000 0.0000 27.3840
#
#
#
# Elastic Compliance Matrix: (Units=1/GPa)
#
#
# Indices 1 2 3 4 5 6 
#
# 1 0.016371 -0.006234 -0.003219 0.000000 0.000000 0.000000
# 2 -0.006234 0.016371 -0.003219 0.000000 0.000000 0.000000
# 3 -0.003219 -0.003219 0.013102 0.000000 0.000000 0.000000
# 4 0.000000 0.000000 0.000000 0.026490 0.000000 0.000000
# 5 0.000000 0.000000 0.000000 0.000000 0.026490 0.000000
# 6 0.000000 0.000000 0.000000 0.000000 0.000000 0.036518
#
#
# Mechanical properties :
#
#
# Convention : Reuss Voigt Hill
#
# Bulk Modulus (GPa) = 48.77721 48.78344 48.78033
# Shear Modulus (GPa) = 29.84758 31.09710 30.47234
#
# Velocity S-wave (km/s) = 3.79082 3.86935 3.83029
# Velocity P-wave (km/s) = 6.53028 6.59163 6.56103
#
# Compressibility (1/GPa) = 0.02050138
#
# Stress axis : x y z
#
# Youngs Moduli (GPa) = 61.08347 61.08347 76.32550
#
# Poissons Ratio (x) = 0.38080 0.24566
# Poissons Ratio (y) = 0.38080 0.24566
# Poissons Ratio (z) = 0.19660 0.19660
#
# Static dielectric constant tensor:
#      x y z
#    x 3.723710 0.000000 0.000000 
#    y 0.000000 3.723710 0.000000 
#    z 0.000000 0.000000 3.936100 
# 
# 
# High freq. dielectric constant tensor:
#      x y z
#    x 1.804980 0.000000 0.000000 
#    y 0.000000 1.804980 0.000000 
#    z 0.000000 0.000000 1.830680 
# 
# From -- ./inp_files/3620.got.cif
#   From: 2010.03.12/outbox.cif.g09.slc.cpg/sg92_2_cif.got.tgz:3620.got - 2010.04.08 20:41:11.
