data_PCOD8305096
_publ_section_title
;
Structure prediction by ZEFSAII (Michael W. Deem and Ramdas Pophale) SiO2 
 PCOD8305096
Probable space group: P 41 2 2
;
_chemical_formula_sum "Si O2"
_cell_formula_units_Z 24
_cell_length_a 7.160842
_cell_length_b 7.160842
_cell_length_c 19.819386
_cell_angle_alpha 90.000000
_cell_angle_beta 90.000000
_cell_angle_gamma 90.000000
_cell_volume 1016.291700
_symmetry_space_group_name_H-M "P 41 2 2"
_symmetry_group_IT_number 91
_symmetry_cell_setting 'tetragonal'
loop_
_space_group_symop_operation_xyz
x,y,z
-y,x,1/4+z
-x,-y,1/2+z
y,-x,3/4+z
x,-y,1/2-z
-x,y,-z
y,x,3/4-z
-y,-x,1/4-z
loop_
_atom_site_type_symbol
_atom_site_label
_atom_site_fract_x
_atom_site_fract_y
_atom_site_fract_z
Si Si1 0.175973 0.158454 0.300995
Si Si2 0.089542 0.594016 0.430875
Si Si3 0.584257 0.867340 0.565892
O O1 0.100262 0.100262 0.375000
O O2 0.397936 0.192426 0.302822
O O3 0.063137 0.344855 0.282970
O O4 0.115392 0.000000 0.250000
O O5 0.247537 0.738323 0.404347
O O6 0.000000 0.673811 0.500000
O O7 0.922073 0.559815 0.376098
O O8 0.500000 0.761080 0.500000
#
# Coordination Sequence:
#
# PCOD8305096 Si02
#       3
#     8   8   8
#     4   9  20  40  68  93 136 183 229 286 352 414
#     4  10  24  46  68 104 141 186 238 294 350 427
#     4  11  25  42  72 105 138 188 234 292 358 417
#
# _framework density 23.615269999999999
#
# number of rings (size 3 to 8) (size 9 to 14) (size 15 to 20)
#    0.000    2.000    0.000    1.000   14.000    2.667 
#   12.000    0.000    0.000    0.000    0.000    0.000 
#    0.000    0.000    0.000    0.000    0.000    0.000 
#
# Total GULP energy -297316.430515 kJ/mol
# GULP energy per Si atom -12388.184605 kJ/mol
# Density = 2.356152 g / cm^3
# Si number density = 23.615270 Si / 1000 Ang^3
#
#
#
# Elastic Constant Matrix: (Units=GPa)
#
#
# Indices 1 2 3 4 5 6 
#
# 1 74.2753 34.2065 41.1308 0.0000 0.0000 0.0000
# 2 34.2065 74.2753 41.1308 0.0000 0.0000 0.0000
# 3 41.1308 41.1308 149.2160 0.0000 0.0000 0.0000
# 4 0.0000 0.0000 0.0000 38.1942 0.0000 0.0000
# 5 0.0000 0.0000 0.0000 0.0000 38.1942 0.0000
# 6 0.0000 0.0000 0.0000 0.0000 0.0000 50.3765
#
#
#
# Elastic Compliance Matrix: (Units=1/GPa)
#
#
# Indices 1 2 3 4 5 6 
#
# 1 0.018306 -0.006652 -0.003212 0.000000 0.000000 0.000000
# 2 -0.006652 0.018306 -0.003212 0.000000 0.000000 0.000000
# 3 -0.003212 -0.003212 0.008473 0.000000 0.000000 0.000000
# 4 0.000000 0.000000 0.000000 0.026182 0.000000 0.000000
# 5 0.000000 0.000000 0.000000 0.000000 0.026182 0.000000
# 6 0.000000 0.000000 0.000000 0.000000 0.000000 0.019851
#
#
# Mechanical properties :
#
#
# Convention : Reuss Voigt Hill
#
# Bulk Modulus (GPa) = 52.82272 58.96696 55.89484
# Shear Modulus (GPa) = 33.38643 37.43953 35.41298
#
# Velocity S-wave (km/s) = 3.76408 3.98602 3.87664
# Velocity P-wave (km/s) = 6.42711 6.79769 6.61499
#
# Compressibility (1/GPa) = 0.01893125
#
# Stress axis : x y z
#
# Youngs Moduli (GPa) = 54.62807 54.62807 118.02652
#
# Poissons Ratio (x) = 0.36336 0.37915
# Poissons Ratio (y) = 0.36336 0.37915
# Poissons Ratio (z) = 0.17549 0.17549
#
# Static dielectric constant tensor:
#      x y z
#    x 4.330740 0.000000 0.000000 
#    y 0.000000 4.330740 0.000000 
#    z 0.000000 0.000000 4.473150 
# 
# 
# High freq. dielectric constant tensor:
#      x y z
#    x 1.919730 0.000000 0.000000 
#    y 0.000000 1.919730 0.000000 
#    z 0.000000 0.000000 1.948250 
# 
# From -- ./inp_files/5159.got.cif
#   From: 2010.03.12/outbox.cif.g09.slc.cpg/sg91_3_cif.got.tgz:5159.got - 2010.04.08 20:27:58.
