data_PCOD8305058
_publ_section_title
;
Structure prediction by ZEFSAII (Michael W. Deem and Ramdas Pophale) SiO2 
 PCOD8305058
Probable space group: P 41 2 2
;
_chemical_formula_sum "Si O2"
_cell_formula_units_Z 36
_cell_length_a 8.945773
_cell_length_b 8.945773
_cell_length_c 19.693109
_cell_angle_alpha 90.000000
_cell_angle_beta 90.000000
_cell_angle_gamma 90.000000
_cell_volume 1575.977570
_symmetry_space_group_name_H-M "P 41 2 2"
_symmetry_group_IT_number 91
_symmetry_cell_setting 'tetragonal'
loop_
_space_group_symop_operation_xyz
x,y,z
-y,x,1/4+z
-x,-y,1/2+z
y,-x,3/4+z
x,-y,1/2-z
-x,y,-z
y,x,3/4-z
-y,-x,1/4-z
loop_
_atom_site_type_symbol
_atom_site_label
_atom_site_fract_x
_atom_site_fract_y
_atom_site_fract_z
Si Si1 0.260376 0.364721 0.037795
Si Si2 0.649320 0.946505 0.898744
Si Si3 0.500000 0.850769 0.500000
Si Si4 0.381879 0.618122 0.125000
Si Si5 0.933786 0.888620 0.573693
Si Si6 0.557059 0.000000 0.750000
O O1 0.353518 0.252419 0.990178
O O2 0.379304 0.472199 0.076796
O O3 0.156583 0.266615 0.090771
O O4 0.149742 0.458688 0.990057
O O5 0.613337 0.774416 0.916363
O O6 0.813249 0.977827 0.928043
O O7 0.654508 0.978715 0.817808
O O8 0.520885 0.047442 0.933283
O O9 0.000000 0.867162 0.500000
O O10 0.068599 0.931402 0.625000
#
# Coordination Sequence:
#
# PCOD8305058 Si02
#       6
#     8   8   4   4   8   4
#     4  10  23  43  67 107 141 196 238 299 367 430
#     4  10  23  43  69 103 142 196 245 303 362 440
#     4  10  24  42  66 104 144 182 248 296 372 426
#     4  10  22  44  70 100 140 190 256 290 368 432
#     4  11  24  42  69 107 147 189 238 299 374 437
#     4  10  22  44  68 100 150 190 244 298 364 442
#
# _framework density 22.842963000000001
#
# number of rings (size 3 to 8) (size 9 to 14) (size 15 to 20)
#    0.000    1.778    2.222    0.000    1.556   12.444 
#    0.000    6.667    0.000    0.000    0.000    0.000 
#    0.000    0.000    0.000    0.000    0.000    0.000 
#
# Total GULP energy -446091.175745 kJ/mol
# GULP energy per Si atom -12391.421548 kJ/mol
# Density = 2.279097 g / cm^3
# Si number density = 22.842963 Si / 1000 Ang^3
#
#
#
# Elastic Constant Matrix: (Units=GPa)
#
#
# Indices 1 2 3 4 5 6 
#
# 1 118.3904 51.3911 43.2461 0.0000 0.0000 0.0000
# 2 51.3911 118.3917 43.2457 0.0000 0.0000 0.0000
# 3 43.2461 43.2457 96.2563 0.0000 0.0000 0.0000
# 4 0.0000 0.0000 0.0000 28.4236 0.0000 0.0000
# 5 0.0000 0.0000 0.0000 0.0000 28.4234 0.0000
# 6 0.0000 0.0000 0.0000 0.0000 0.0000 51.0507
#
#
#
# Elastic Compliance Matrix: (Units=1/GPa)
#
#
# Indices 1 2 3 4 5 6 
#
# 1 0.011282 -0.003644 -0.003432 0.000000 0.000000 0.000000
# 2 -0.003644 0.011282 -0.003432 0.000000 0.000000 0.000000
# 3 -0.003432 -0.003432 0.013472 0.000000 0.000000 0.000000
# 4 0.000000 0.000000 0.000000 0.035182 0.000000 0.000000
# 5 0.000000 0.000000 0.000000 0.000000 0.035182 0.000000
# 6 0.000000 0.000000 0.000000 0.000000 0.000000 0.019588
#
#
# Mechanical properties :
#
#
# Convention : Reuss Voigt Hill
#
# Bulk Modulus (GPa) = 66.56865 67.64491 67.10678
# Shear Modulus (GPa) = 32.89261 34.58990 33.74126
#
# Velocity S-wave (km/s) = 3.79878 3.89555 3.84747
# Velocity P-wave (km/s) = 6.96032 7.06478 7.01274
#
# Compressibility (1/GPa) = 0.01502209
#
# Stress axis : x y z
#
# Youngs Moduli (GPa) = 88.63822 88.63966 74.22562
#
# Poissons Ratio (x) = 0.32297 0.25472
# Poissons Ratio (y) = 0.32297 0.25471
# Poissons Ratio (z) = 0.30418 0.30417
#
# Static dielectric constant tensor:
#      x y z
#    x 4.442780 0.000000 0.000000 
#    y 0.000000 4.442780 0.000000 
#    z 0.000000 0.000000 3.678710 
# 
# 
# High freq. dielectric constant tensor:
#      x y z
#    x 1.917590 0.000000 0.000000 
#    y 0.000000 1.917590 0.000000 
#    z 0.000000 0.000000 1.854290 
# 
# From -- ./inp_files/17218.got.cif
#   From: 2010.03.12/outbox.cif.g09.slc.cpg/sg91_9_cif.got.tgz:17218.got - 2010.04.08 20:27:58.
