data_PCOD8305709
_publ_section_title
;
Structure prediction by ZEFSAII (Michael W. Deem and Ramdas Pophale) SiO2 
 PCOD8305709
Probable space group: P 42 21 2
;
_chemical_formula_sum "Si O2"
_cell_formula_units_Z 32
_cell_length_a 10.156836
_cell_length_b 10.156836
_cell_length_c 14.279502
_cell_angle_alpha 90.000000
_cell_angle_beta 90.000000
_cell_angle_gamma 90.000000
_cell_volume 1473.092240
_symmetry_space_group_name_H-M "P 42 21 2"
_symmetry_group_IT_number 94
_symmetry_cell_setting 'tetragonal'
loop_
_space_group_symop_operation_xyz
x,y,z
1/2-y,1/2+x,1/2+z
-x,-y,z
1/2+y,1/2-x,1/2+z
1/2+x,1/2-y,1/2-z
1/2-x,1/2+y,1/2-z
y,x,-z
-y,-x,-z
loop_
_atom_site_type_symbol
_atom_site_label
_atom_site_fract_x
_atom_site_fract_y
_atom_site_fract_z
Si Si1 0.847305 0.662996 0.111644
Si Si2 0.898164 0.665765 0.317673
Si Si3 0.167608 0.590200 0.408024
Si Si4 0.367974 0.563210 0.105145
O O1 0.929246 0.648664 0.207244
O O2 0.781529 0.806572 0.112099
O O3 0.743512 0.545559 0.108530
O O4 0.939265 0.653874 0.019723
O O5 0.803635 0.547212 0.354497
O O6 0.828366 0.806238 0.336088
O O7 0.033742 0.657111 0.373064
O O8 0.500000 0.500000 0.148954
O O9 0.392470 0.607531 0.000000
#
# Coordination Sequence:
#
# PCOD8305709 Si02
#       4
#     8   8   8   8
#     4  11  21  41  63  86 126 169 210 272 321 390
#     4  11  22  36  61  94 120 159 215 264 330 384
#     4  10  22  40  58  89 126 163 206 273 327 377
#     4  11  19  39  64  89 119 171 217 264 311 396
#
# _framework density 21.723012000000001
#
# number of rings (size 3 to 8) (size 9 to 14) (size 15 to 20)
#    0.000    1.250    5.000    3.000    0.000    4.000 
#    4.500    0.000    0.000    0.000    0.000    0.000 
#    0.000    0.000    0.000    0.000    0.000    0.000 
#
# Total GULP energy -396718.941212 kJ/mol
# GULP energy per Si atom -12397.466913 kJ/mol
# Density = 2.167357 g / cm^3
# Si number density = 21.723012 Si / 1000 Ang^3
#
#
#
# Elastic Constant Matrix: (Units=GPa)
#
#
# Indices 1 2 3 4 5 6 
#
# 1 82.5771 5.9709 29.3441 0.0000 0.0000 0.0000
# 2 5.9709 82.5760 29.3438 0.0000 0.0000 0.0000
# 3 29.3441 29.3438 183.6555 0.0000 0.0000 0.0000
# 4 0.0000 0.0000 0.0000 7.3423 0.0000 0.0000
# 5 0.0000 0.0000 0.0000 0.0000 7.3344 0.0000
# 6 0.0000 0.0000 0.0000 0.0000 0.0000 19.9035
#
#
#
# Elastic Compliance Matrix: (Units=1/GPa)
#
#
# Indices 1 2 3 4 5 6 
#
# 1 0.012842 -0.000211 -0.002018 0.000000 0.000000 0.000000
# 2 -0.000211 0.012843 -0.002018 0.000000 0.000000 0.000000
# 3 -0.002018 -0.002018 0.006090 0.000000 0.000000 0.000000
# 4 0.000000 0.000000 0.000000 0.136197 0.000000 0.000000
# 5 0.000000 0.000000 0.000000 0.000000 0.136343 0.000000
# 6 0.000000 0.000000 0.000000 0.000000 0.000000 0.050243
#
#
# Mechanical properties :
#
#
# Convention : Reuss Voigt Hill
#
# Bulk Modulus (GPa) = 42.95668 53.12513 48.04090
# Shear Modulus (GPa) = 13.48390 25.85936 19.67163
#
# Velocity S-wave (km/s) = 2.49413 3.45398 3.01253
# Velocity P-wave (km/s) = 5.30207 6.35731 5.85352
#
# Compressibility (1/GPa) = 0.02327927
#
# Stress axis : x y z
#
# Youngs Moduli (GPa) = 77.86742 77.86644 164.20681
#
# Poissons Ratio (x) = 0.01646 0.33139
# Poissons Ratio (y) = 0.01647 0.33139
# Poissons Ratio (z) = 0.15715 0.15715
#
# Static dielectric constant tensor:
#      x y z
#    x 4.565960 0.000000 0.000000 
#    y 0.000000 4.566350 0.000000 
#    z 0.000000 0.000000 4.372980 
# 
# 
# High freq. dielectric constant tensor:
#      x y z
#    x 1.839320 0.000000 0.000000 
#    y 0.000000 1.839320 0.000000 
#    z 0.000000 0.000000 1.869730 
# 
# From -- ./inp_files/3183.got.cif
#   From: 2010.03.12/outbox.cif.g09.slc.cpg/sg94_2_cif.got.tgz:3183.got - 2010.04.08 20:48:32.
