data_PCOD8305017
_publ_section_title
;
Structure prediction by ZEFSAII (Michael W. Deem and Ramdas Pophale) SiO2 
 PCOD8305017
Probable space group: P 41 2 2
;
_chemical_formula_sum "Si O2"
_cell_formula_units_Z 48
_cell_length_a 12.323014
_cell_length_b 12.323014
_cell_length_c 15.746584
_cell_angle_alpha 90.000000
_cell_angle_beta 90.000000
_cell_angle_gamma 90.000000
_cell_volume 2391.223874
_symmetry_space_group_name_H-M "P 41 2 2"
_symmetry_group_IT_number 91
_symmetry_cell_setting 'tetragonal'
loop_
_space_group_symop_operation_xyz
x,y,z
-y,x,1/4+z
-x,-y,1/2+z
y,-x,3/4+z
x,-y,1/2-z
-x,y,-z
y,x,3/4-z
-y,-x,1/4-z
loop_
_atom_site_type_symbol
_atom_site_label
_atom_site_fract_x
_atom_site_fract_y
_atom_site_fract_z
Si Si1 0.021305 0.388845 0.790251
Si Si2 0.597472 0.669537 0.217631
Si Si3 0.686854 0.832131 0.605907
Si Si4 0.055985 0.000000 0.750000
Si Si5 0.525327 0.525327 0.375000
Si Si6 0.482626 0.884310 0.704421
Si Si7 0.174235 0.075692 0.587370
O O1 0.970567 0.500000 0.750000
O O2 0.076551 0.324163 0.714545
O O3 0.105846 0.415236 0.866374
O O4 0.932512 0.304535 0.825129
O O5 0.723580 0.672214 0.197649
O O6 0.569002 0.598476 0.298994
O O7 0.540566 0.604378 0.139757
O O8 0.563534 0.794816 0.230332
O O9 0.601514 0.842992 0.681548
O O10 0.798158 0.848747 0.655308
O O11 0.137220 0.014330 0.672078
O O12 0.977870 0.104927 0.760921
O O13 0.485484 0.000000 0.750000
#
# Coordination Sequence:
#
# PCOD8305017 Si02
#       7
#     8   8   8   4   4   8   8
#     4  10  23  41  63  96 129 167 214 264 322 376
#     4  11  21  40  62  98 123 171 206 273 319 384
#     4  11  23  40  66  93 129 172 211 265 329 377
#     4  10  24  38  68  94 130 170 224 258 320 372
#     4  10  22  38  68  92 134 154 226 264 326 378
#     4  11  24  41  64  96 129 166 217 267 324 384
#     4  11  22  43  62  97 129 172 214 270 311 388
#
# _framework density 20.073402000000002
#
# number of rings (size 3 to 8) (size 9 to 14) (size 15 to 20)
#    0.000    1.333    3.333    2.000    9.333    0.000 
#    0.000    5.000    3.667    0.000    0.000    0.000 
#    0.000    0.000    0.000    0.000    0.000    0.000 
#
# Total GULP energy -594904.902293 kJ/mol
# GULP energy per Si atom -12393.852131 kJ/mol
# Density = 2.002771 g / cm^3
# Si number density = 20.073402 Si / 1000 Ang^3
#
#
#
# Elastic Constant Matrix: (Units=GPa)
#
#
# Indices 1 2 3 4 5 6 
#
# 1 128.0507 49.6116 38.3435 0.0000 0.0000 0.0000
# 2 49.6116 128.0507 38.3435 0.0000 0.0000 0.0000
# 3 38.3435 38.3435 69.0771 0.0000 0.0000 0.0000
# 4 0.0000 0.0000 0.0000 27.2777 0.0000 0.0000
# 5 0.0000 0.0000 0.0000 0.0000 27.2777 0.0000
# 6 0.0000 0.0000 0.0000 0.0000 0.0000 27.5354
#
#
#
# Elastic Compliance Matrix: (Units=1/GPa)
#
#
# Indices 1 2 3 4 5 6 
#
# 1 0.010075 -0.002673 -0.004109 0.000000 0.000000 0.000000
# 2 -0.002673 0.010075 -0.004109 0.000000 0.000000 0.000000
# 3 -0.004109 -0.004109 0.019038 0.000000 0.000000 0.000000
# 4 0.000000 0.000000 0.000000 0.036660 0.000000 0.000000
# 5 0.000000 0.000000 0.000000 0.000000 0.036660 0.000000
# 6 0.000000 0.000000 0.000000 0.000000 0.000000 0.036317
#
#
# Mechanical properties :
#
#
# Convention : Reuss Voigt Hill
#
# Bulk Modulus (GPa) = 57.44770 64.19729 60.82249
# Shear Modulus (GPa) = 28.34304 29.67682 29.00993
#
# Velocity S-wave (km/s) = 3.76170 3.84919 3.80569
# Velocity P-wave (km/s) = 6.89551 7.19762 7.04818
#
# Compressibility (1/GPa) = 0.01740714
#
# Stress axis : x y z
#
# Youngs Moduli (GPa) = 99.25085 99.25085 52.52639
#
# Poissons Ratio (x) = 0.26532 0.21582
# Poissons Ratio (y) = 0.26532 0.21582
# Poissons Ratio (z) = 0.40781 0.40781
#
# Static dielectric constant tensor:
#      x y z
#    x 3.802530 0.000000 0.000000 
#    y 0.000000 3.802530 0.000000 
#    z 0.000000 0.000000 3.822400 
# 
# 
# High freq. dielectric constant tensor:
#      x y z
#    x 1.784530 0.000000 0.000000 
#    y 0.000000 1.784530 0.000000 
#    z 0.000000 0.000000 1.783320 
# 
# From -- ./inp_files/21134.got.cif
#   From: 2010.03.12/outbox.cif.g09.slc.cpg/sg91_11_cif.got.tgz:21134.got - 2010.04.08 20:27:58.
