data_PCOD8305470
_publ_section_title
;
Structure prediction by ZEFSAII (Michael W. Deem and Ramdas Pophale) SiO2 
 PCOD8305470
Probable space group: P 41 21 2
;
_chemical_formula_sum "Si O2"
_cell_formula_units_Z 32
_cell_length_a 9.179952
_cell_length_b 9.179952
_cell_length_c 17.848383
_cell_angle_alpha 90.000000
_cell_angle_beta 90.000000
_cell_angle_gamma 90.000000
_cell_volume 1504.110342
_symmetry_space_group_name_H-M "P 41 21 2"
_symmetry_group_IT_number 92
_symmetry_cell_setting 'tetragonal'
loop_
_space_group_symop_operation_xyz
x,y,z
1/2-y,1/2+x,1/4+z
-x,-y,1/2+z
1/2+y,1/2-x,3/4+z
1/2+x,1/2-y,3/4-z
1/2-x,1/2+y,1/4-z
y,x,-z
-y,-x,1/2-z
loop_
_atom_site_type_symbol
_atom_site_label
_atom_site_fract_x
_atom_site_fract_y
_atom_site_fract_z
Si Si1 0.614867 0.789974 0.284325
Si Si2 0.968188 0.797388 0.059380
Si Si3 0.848791 0.927500 0.771242
Si Si4 0.420537 0.973887 0.189425
O O1 0.611873 0.616459 0.295403
O O2 0.778700 0.842738 0.274250
O O3 0.543857 0.871433 0.354429
O O4 0.521921 0.837315 0.211810
O O5 0.992052 0.624905 0.050680
O O6 0.902956 0.835243 0.140278
O O7 0.847075 0.847075 0.000000
O O8 0.718836 0.031922 0.743695
O O9 0.002287 0.997714 0.750000
#
# Coordination Sequence:
#
# PCOD8305470 Si02
#       4
#     8   8   8   8
#     4  11  26  41  71  97 133 185 226 278 347 404
#     4  11  26  43  68 100 138 178 227 289 340 406
#     4  11  24  44  68 100 135 175 226 285 337 407
#     4  11  24  47  66  98 136 182 227 279 340 411
#
# _framework density 21.275036
#
# number of rings (size 3 to 8) (size 9 to 14) (size 15 to 20)
#    0.000    1.000    5.000    0.000    7.000    2.000 
#    0.000    0.000    0.000    0.000    0.000    0.000 
#    0.000    0.000    0.000    0.000    0.000    0.000 
#
# Total GULP energy -396994.978416 kJ/mol
# GULP energy per Si atom -12406.093076 kJ/mol
# Density = 2.122661 g / cm^3
# Si number density = 21.275036 Si / 1000 Ang^3
#
#
#
# Elastic Constant Matrix: (Units=GPa)
#
#
# Indices 1 2 3 4 5 6 
#
# 1 70.4029 40.1750 23.3971 0.0000 0.0000 0.0000
# 2 40.1750 70.4047 23.3977 0.0000 0.0000 0.0000
# 3 23.3971 23.3977 111.9877 0.0000 0.0000 0.0000
# 4 0.0000 0.0000 0.0000 37.7730 0.0000 0.0000
# 5 0.0000 0.0000 0.0000 0.0000 37.7726 0.0000
# 6 0.0000 0.0000 0.0000 0.0000 0.0000 39.4805
#
#
#
# Elastic Compliance Matrix: (Units=1/GPa)
#
#
# Indices 1 2 3 4 5 6 
#
# 1 0.021501 -0.011580 -0.002073 0.000000 0.000000 0.000000
# 2 -0.011580 0.021500 -0.002073 0.000000 0.000000 0.000000
# 3 -0.002073 -0.002073 0.009796 0.000000 0.000000 0.000000
# 4 0.000000 0.000000 0.000000 0.026474 0.000000 0.000000
# 5 0.000000 0.000000 0.000000 0.000000 0.026474 0.000000
# 6 0.000000 0.000000 0.000000 0.000000 0.000000 0.025329
#
#
# Mechanical properties :
#
#
# Convention : Reuss Voigt Hill
#
# Bulk Modulus (GPa) = 46.84750 47.41499 47.13124
# Shear Modulus (GPa) = 29.47405 34.06025 31.76715
#
# Velocity S-wave (km/s) = 3.72611 4.00553 3.86834
# Velocity P-wave (km/s) = 6.37021 6.61267 6.49257
#
# Compressibility (1/GPa) = 0.02134586
#
# Stress axis : x y z
#
# Youngs Moduli (GPa) = 46.50949 46.51059 102.08634
#
# Poissons Ratio (x) = 0.53861 0.21159
# Poissons Ratio (y) = 0.53859 0.21159
# Poissons Ratio (z) = 0.09640 0.09640
#
# Static dielectric constant tensor:
#      x y z
#    x 3.833460 0.000000 0.000000 
#    y 0.000000 3.833460 0.000000 
#    z 0.000000 0.000000 3.827400 
# 
# 
# High freq. dielectric constant tensor:
#      x y z
#    x 1.834560 0.000000 0.000000 
#    y 0.000000 1.834560 0.000000 
#    z 0.000000 0.000000 1.845240 
# 
# From -- ./inp_files/3340.got.cif
#   From: 2010.03.12/outbox.cif.g09.slc.cpg/sg92_2_cif.got.tgz:3340.got - 2010.04.08 20:41:11.
