data_PCOD8305832
_publ_section_title
;
Structure prediction by ZEFSAII (Michael W. Deem and Ramdas Pophale) SiO2 
 PCOD8305832
Probable space group: P 43 2 2
;
_chemical_formula_sum "Si O2"
_cell_formula_units_Z 48
_cell_length_a 11.475327
_cell_length_b 11.475327
_cell_length_c 17.734065
_cell_angle_alpha 90.000000
_cell_angle_beta 90.000000
_cell_angle_gamma 90.000000
_cell_volume 2335.277183
_symmetry_space_group_name_H-M "P 43 2 2"
_symmetry_group_IT_number 95
_symmetry_cell_setting 'tetragonal'
loop_
_space_group_symop_operation_xyz
x,y,z
-y,x,3/4+z
-x,-y,1/2+z
y,-x,1/4+z
x,-y,1/2-z
-x,y,-z
y,x,1/4-z
-y,-x,3/4-z
loop_
_atom_site_type_symbol
_atom_site_label
_atom_site_fract_x
_atom_site_fract_y
_atom_site_fract_z
Si Si1 0.245457 0.877969 0.535337
Si Si2 0.771055 0.790998 0.932287
Si Si3 0.947518 0.408659 0.360503
Si Si4 0.601804 0.301776 0.450642
Si Si5 0.195619 0.000000 0.250000
Si Si6 0.034596 0.338609 0.144399
Si Si7 0.000000 0.726540 0.000000
O O1 0.269760 0.776179 0.598094
O O2 0.104133 0.886778 0.529819
O O3 0.302929 0.998525 0.562431
O O4 0.300917 0.860016 0.451611
O O5 0.707716 0.913545 0.928654
O O6 0.712161 0.706683 0.993700
O O7 0.905905 0.808011 0.957756
O O8 0.824409 0.444172 0.325506
O O9 0.031473 0.521556 0.360639
O O10 0.930699 0.359856 0.444147
O O11 0.500000 0.361986 0.500000
O O12 0.625350 0.374651 0.375000
O O13 0.280111 0.944695 0.313479
#
# Coordination Sequence:
#
# PCOD8305832 Si02
#       7
#     8   8   8   8   4   8   4
#     4  10  21  36  56  86 130 162 207 252 316 382
#     4  10  21  35  56  90 123 160 206 254 312 381
#     4  11  20  36  64  90 124 160 220 263 306 384
#     4  12  22  40  66  94 123 167 214 273 326 378
#     4  10  23  37  56  86 134 177 210 255 330 412
#     4  11  20  38  58  87 124 172 220 255 312 377
#     4  10  21  35  54  96 126 151 196 261 328 368
#
# _framework density 20.554306
#
# number of rings (size 3 to 8) (size 9 to 14) (size 15 to 20)
#    0.000    1.333    5.000    1.500    0.000    0.667 
#    0.000    3.333    0.000    4.000    0.000    0.000 
#    0.000    0.000    0.000    0.000    0.000    0.000 
#
# Total GULP energy -594694.324942 kJ/mol
# GULP energy per Si atom -12389.465103 kJ/mol
# Density = 2.050752 g / cm^3
# Si number density = 20.554306 Si / 1000 Ang^3
#
#
#
# Elastic Constant Matrix: (Units=GPa)
#
#
# Indices 1 2 3 4 5 6 
#
# 1 75.2329 28.5790 31.8290 0.0000 0.0000 0.0000
# 2 28.5790 75.2329 31.8289 0.0000 0.0000 0.0000
# 3 31.8290 31.8289 156.3202 0.0000 0.0000 0.0000
# 4 0.0000 0.0000 0.0000 34.7884 0.0000 0.0000
# 5 0.0000 0.0000 0.0000 0.0000 34.7882 0.0000
# 6 0.0000 0.0000 0.0000 0.0000 0.0000 13.6769
#
#
#
# Elastic Compliance Matrix: (Units=1/GPa)
#
#
# Indices 1 2 3 4 5 6 
#
# 1 0.016221 -0.005214 -0.002241 0.000000 0.000000 0.000000
# 2 -0.005214 0.016221 -0.002241 0.000000 0.000000 0.000000
# 3 -0.002241 -0.002241 0.007310 0.000000 0.000000 0.000000
# 4 0.000000 0.000000 0.000000 0.028745 0.000000 0.000000
# 5 0.000000 0.000000 0.000000 0.000000 0.028745 0.000000
# 6 0.000000 0.000000 0.000000 0.000000 0.000000 0.073116
#
#
# Mechanical properties :
#
#
# Convention : Reuss Voigt Hill
#
# Bulk Modulus (GPa) = 49.11777 54.58444 51.85111
# Shear Modulus (GPa) = 25.44058 30.95398 28.19728
#
# Velocity S-wave (km/s) = 3.52195 3.88488 3.70786
# Velocity P-wave (km/s) = 6.36296 6.83644 6.60395
#
# Compressibility (1/GPa) = 0.02035923
#
# Stress axis : x y z
#
# Youngs Moduli (GPa) = 61.64932 61.64934 136.80252
#
# Poissons Ratio (x) = 0.32142 0.30660
# Poissons Ratio (y) = 0.32142 0.30660
# Poissons Ratio (z) = 0.13817 0.13817
#
# Static dielectric constant tensor:
#      x y z
#    x 3.412550 0.000000 0.000000 
#    y 0.000000 3.412550 0.000000 
#    z 0.000000 0.000000 4.428260 
# 
# 
# High freq. dielectric constant tensor:
#      x y z
#    x 1.767430 0.000000 0.000000 
#    y 0.000000 1.767430 0.000000 
#    z 0.000000 0.000000 1.842890 
# 
# From -- ./inp_files/5711.got.cif
#   From: 2010.03.12/outbox.cif.g09.slc.cpg/sg95_3_cif.got.tgz:5711.got - 2010.04.08 20:51:55.
