data_PCOD8305486
_publ_section_title
;
Structure prediction by ZEFSAII (Michael W. Deem and Ramdas Pophale) SiO2 
 PCOD8305486
Probable space group: P 41 21 2
;
_chemical_formula_sum "Si O2"
_cell_formula_units_Z 40
_cell_length_a 16.886059
_cell_length_b 16.886059
_cell_length_c 5.652853
_cell_angle_alpha 90.000000
_cell_angle_beta 90.000000
_cell_angle_gamma 90.000000
_cell_volume 1611.848787
_symmetry_space_group_name_H-M "P 41 21 2"
_symmetry_group_IT_number 92
_symmetry_cell_setting 'tetragonal'
loop_
_space_group_symop_operation_xyz
x,y,z
1/2-y,1/2+x,1/4+z
-x,-y,1/2+z
1/2+y,1/2-x,3/4+z
1/2+x,1/2-y,3/4-z
1/2-x,1/2+y,1/4-z
y,x,-z
-y,-x,1/2-z
loop_
_atom_site_type_symbol
_atom_site_label
_atom_site_fract_x
_atom_site_fract_y
_atom_site_fract_z
Si Si1 0.774355 0.225646 0.750000
Si Si2 0.094056 0.905945 0.750000
Si Si3 0.883928 0.883928 0.000000
Si Si4 0.986570 0.616801 0.421241
Si Si5 0.450480 0.549521 0.250000
Si Si6 0.401130 0.239713 0.643890
Si Si7 0.788252 0.365530 0.387612
O O1 0.776414 0.139238 0.627040
O O2 0.768101 0.305207 0.596556
O O3 0.188495 0.920567 0.712574
O O4 0.045574 0.935708 0.515946
O O5 0.920106 0.914292 0.749453
O O6 0.790504 0.901606 0.978558
O O7 0.932223 0.561632 0.581562
O O8 0.935911 0.652257 0.208055
O O9 0.017573 0.692139 0.568923
O O10 0.332297 0.182360 0.562273
#
# Coordination Sequence:
#
# PCOD8305486 Si02
#       7
#     4   4   4   8   4   8   8
#     4  12  21  49  74 111 149 212 289 337 410 506
#     4  12  27  55  74 118 156 218 284 356 438 528
#     4  12  26  50  80 125 161 222 278 354 430 520
#     4  12  27  48  75 120 169 216 277 356 449 528
#     4  12  30  48  80 116 172 210 275 365 442 494
#     4  12  26  47  82 107 153 216 277 342 422 527
#     4  12  25  46  79 111 158 213 275 347 411 526
#
# _framework density 24.816220999999999
#
# number of rings (size 3 to 8) (size 9 to 14) (size 15 to 20)
#    0.000    0.000    6.000    3.600    0.000    7.200 
#    0.000    0.000    0.000    0.000    0.000    0.000 
#    0.000    0.000    0.000    0.000    0.000    0.000 
#
# Total GULP energy -495752.044121 kJ/mol
# GULP energy per Si atom -12393.801103 kJ/mol
# Density = 2.475974 g / cm^3
# Si number density = 24.816221 Si / 1000 Ang^3
#
#
#
# Elastic Constant Matrix: (Units=GPa)
#
#
# Indices 1 2 3 4 5 6 
#
# 1 150.3416 59.6041 37.4699 0.0000 0.0000 0.0000
# 2 59.6041 150.3377 37.4673 0.0000 0.0000 0.0000
# 3 37.4699 37.4673 84.0156 0.0000 0.0000 0.0000
# 4 0.0000 0.0000 0.0000 26.2703 0.0000 0.0000
# 5 0.0000 0.0000 0.0000 0.0000 26.2696 0.0000
# 6 0.0000 0.0000 0.0000 0.0000 0.0000 57.8437
#
#
#
# Elastic Compliance Matrix: (Units=1/GPa)
#
#
# Indices 1 2 3 4 5 6 
#
# 1 0.008343 -0.002678 -0.002527 0.000000 0.000000 0.000000
# 2 -0.002678 0.008343 -0.002526 0.000000 0.000000 0.000000
# 3 -0.002527 -0.002526 0.014156 0.000000 0.000000 0.000000
# 4 0.000000 0.000000 0.000000 0.038066 0.000000 0.000000
# 5 0.000000 0.000000 0.000000 0.000000 0.038067 0.000000
# 6 0.000000 0.000000 0.000000 0.000000 0.000000 0.017288
#
#
# Mechanical properties :
#
#
# Convention : Reuss Voigt Hill
#
# Bulk Modulus (GPa) = 65.01850 72.64193 68.83022
# Shear Modulus (GPa) = 34.51820 38.75361 36.63591
#
# Velocity S-wave (km/s) = 3.73359 3.95603 3.84642
# Velocity P-wave (km/s) = 6.69651 7.08536 6.89368
#
# Compressibility (1/GPa) = 0.01538024
#
# Stress axis : x y z
#
# Youngs Moduli (GPa) = 119.86174 119.86035 70.64158
#
# Poissons Ratio (x) = 0.32099 0.17848
# Poissons Ratio (y) = 0.32099 0.17846
# Poissons Ratio (z) = 0.30284 0.30280
#
# Static dielectric constant tensor:
#      x y z
#    x 6.142210 0.000000 0.000000 
#    y 0.000000 6.141900 0.000000 
#    z 0.000000 0.000000 4.504000 
# 
# 
# High freq. dielectric constant tensor:
#      x y z
#    x 2.007220 0.000000 0.000000 
#    y 0.000000 2.007220 0.000000 
#    z 0.000000 0.000000 1.976740 
# 
# From -- ./inp_files/497.got.cif
#   From: 2010.03.12/outbox.cif.g09.slc.cpg/sg92_1_cif.got.tgz:497.got - 2010.04.08 20:41:11.
