data_PCOD8305975
_publ_section_title
;
Structure prediction by ZEFSAII (Michael W. Deem and Ramdas Pophale) SiO2 
 PCOD8305975
Probable space group: P 43 21 2
;
_chemical_formula_sum "Si O2"
_cell_formula_units_Z 60
_cell_length_a 17.609233
_cell_length_b 17.609233
_cell_length_c 9.518602
_cell_angle_alpha 90.000000
_cell_angle_beta 90.000000
_cell_angle_gamma 90.000000
_cell_volume 2951.576528
_symmetry_space_group_name_H-M "P 43 21 2"
_symmetry_group_IT_number 96
_symmetry_cell_setting 'tetragonal'
loop_
_space_group_symop_operation_xyz
x,y,z
1/2-y,1/2+x,3/4+z
-x,-y,1/2+z
1/2+y,1/2-x,1/4+z
1/2+x,1/2-y,1/4-z
1/2-x,1/2+y,3/4-z
y,x,-z
-y,-x,1/2-z
loop_
_atom_site_type_symbol
_atom_site_label
_atom_site_fract_x
_atom_site_fract_y
_atom_site_fract_z
Si Si1 0.537699 0.351881 0.503798
Si Si2 0.185034 0.808378 0.411067
Si Si3 0.311754 0.695978 0.407855
Si Si4 0.544643 0.221461 0.990273
Si Si5 0.455482 0.236117 0.709335
Si Si6 0.049494 0.560868 0.050754
Si Si7 0.522870 0.522870 0.500000
Si Si8 0.835358 0.029282 0.452919
O O1 0.623479 0.322352 0.494622
O O2 0.489069 0.292705 0.593147
O O3 0.531955 0.437854 0.565600
O O4 0.513905 0.356747 0.343405
O O5 0.166973 0.833028 0.250000
O O6 0.225338 0.726127 0.414393
O O7 0.241978 0.868288 0.481360
O O8 0.111077 0.802250 0.506405
O O9 0.330553 0.669448 0.250000
O O10 0.367732 0.761629 0.459623
O O11 0.514671 0.268247 0.123113
O O12 0.496548 0.248207 0.856590
O O13 0.539772 0.131309 0.016422
O O14 0.460155 0.149199 0.658590
O O15 0.035634 0.514505 0.192088
O O16 0.536594 0.586659 0.617501
#
# Coordination Sequence:
#
# PCOD8305975 Si02
#       8
#     8   8   8   8   8   8   4   8
#     4  12  25  43  66 103 133 181 228 278 340 417
#     4  11  23  43  67  98 130 174 229 276 329 408
#     4  11  23  42  68  96 134 176 222 275 342 408
#     4  11  23  44  66  96 137 174 218 275 351 399
#     4  11  22  43  69  95 131 173 224 278 337 406
#     4  10  24  46  72 100 130 179 232 290 344 407
#     4  12  26  42  66  98 146 180 224 274 348 418
#     4  12  26  44  65 100 142 178 228 282 338 417
#
# _framework density 20.328119000000001
#
# number of rings (size 3 to 8) (size 9 to 14) (size 15 to 20)
#    0.000    0.800    5.333    2.000    0.000    3.200 
#    7.200    1.333    0.000    0.000    0.000    0.000 
#    0.000    0.000    0.000    0.000    0.000    0.000 
#
# Total GULP energy -744144.856642 kJ/mol
# GULP energy per Si atom -12402.414277 kJ/mol
# Density = 2.028185 g / cm^3
# Si number density = 20.328119 Si / 1000 Ang^3
#
#
#
# Elastic Constant Matrix: (Units=GPa)
#
#
# Indices 1 2 3 4 5 6 
#
# 1 103.9331 29.7020 24.1991 0.0000 0.0000 0.0000
# 2 29.7020 103.9329 24.1991 0.0000 0.0000 0.0000
# 3 24.1991 24.1991 51.1251 0.0000 0.0000 0.0000
# 4 0.0000 0.0000 0.0000 24.9919 0.0000 0.0000
# 5 0.0000 0.0000 0.0000 0.0000 24.9916 0.0000
# 6 0.0000 0.0000 0.0000 0.0000 0.0000 36.6817
#
#
#
# Elastic Compliance Matrix: (Units=1/GPa)
#
#
# Indices 1 2 3 4 5 6 
#
# 1 0.011251 -0.002220 -0.004275 0.000000 0.000000 0.000000
# 2 -0.002220 0.011251 -0.004275 0.000000 0.000000 0.000000
# 3 -0.004275 -0.004275 0.023607 0.000000 0.000000 0.000000
# 4 0.000000 0.000000 0.000000 0.040013 0.000000 0.000000
# 5 0.000000 0.000000 0.000000 0.000000 0.040014 0.000000
# 6 0.000000 0.000000 0.000000 0.000000 0.000000 0.027262
#
#
# Mechanical properties :
#
#
# Convention : Reuss Voigt Hill
#
# Bulk Modulus (GPa) = 40.69999 46.13240 43.41620
# Shear Modulus (GPa) = 27.30351 29.39243 28.34797
#
# Velocity S-wave (km/s) = 3.66886 3.80662 3.73838
# Velocity P-wave (km/s) = 6.16542 6.48565 6.32756
#
# Compressibility (1/GPa) = 0.02457003
#
# Stress axis : x y z
#
# Youngs Moduli (GPa) = 88.87827 88.87809 42.36098
#
# Poissons Ratio (x) = 0.19732 0.18108
# Poissons Ratio (y) = 0.19732 0.18108
# Poissons Ratio (z) = 0.37993 0.37993
#
# Static dielectric constant tensor:
#      x y z
#    x 3.820550 0.000000 0.000000 
#    y 0.000000 3.820550 0.000000 
#    z 0.000000 0.000000 3.451500 
# 
# 
# High freq. dielectric constant tensor:
#      x y z
#    x 1.806910 0.000000 0.000000 
#    y 0.000000 1.806910 0.000000 
#    z 0.000000 0.000000 1.783250 
# 
# From -- ./inp_files/1635.got.cif
#   From: 2010.03.12/outbox.cif.g09.slc.cpg/sg96_1_cif.got.tgz:1635.got - 2010.04.08 20:56:49.
