data_PCOD8305469
_publ_section_title
;
Structure prediction by ZEFSAII (Michael W. Deem and Ramdas Pophale) SiO2 
 PCOD8305469
Probable space group: P 41 21 2
;
_chemical_formula_sum "Si O2"
_cell_formula_units_Z 32
_cell_length_a 9.350552
_cell_length_b 9.350552
_cell_length_c 14.939590
_cell_angle_alpha 90.000000
_cell_angle_beta 90.000000
_cell_angle_gamma 90.000000
_cell_volume 1306.210524
_symmetry_space_group_name_H-M "P 41 21 2"
_symmetry_group_IT_number 92
_symmetry_cell_setting 'tetragonal'
loop_
_space_group_symop_operation_xyz
x,y,z
1/2-y,1/2+x,1/4+z
-x,-y,1/2+z
1/2+y,1/2-x,3/4+z
1/2+x,1/2-y,3/4-z
1/2-x,1/2+y,1/4-z
y,x,-z
-y,-x,1/2-z
loop_
_atom_site_type_symbol
_atom_site_label
_atom_site_fract_x
_atom_site_fract_y
_atom_site_fract_z
Si Si1 0.516498 0.516498 0.000000
Si Si2 0.469188 0.172296 0.306865
Si Si3 0.315442 0.684559 0.250000
Si Si4 0.420499 0.268658 0.632871
Si Si5 0.951625 0.256691 0.644342
O O1 0.672084 0.495010 0.954048
O O2 0.400587 0.500774 0.921929
O O3 0.609658 0.136269 0.364945
O O4 0.375280 0.286976 0.359474
O O5 0.772434 0.498138 0.292315
O O6 0.376566 0.028629 0.295546
O O7 0.478804 0.716892 0.220711
O O8 0.217221 0.724383 0.163949
#
# Coordination Sequence:
#
# PCOD8305469 Si02
#       5
#     4   8   4   8   8
#     4  11  24  43  68 100 142 185 236 291 354 420
#     4  12  26  45  71 104 142 182 236 293 356 422
#     4  11  26  47  74 102 142 191 240 291 356 426
#     4  12  26  46  72 105 142 189 237 294 358 427
#     4  11  25  45  70 105 142 185 237 296 353 425
#
# _framework density 24.498346000000002
#
# number of rings (size 3 to 8) (size 9 to 14) (size 15 to 20)
#    0.000    0.500    0.000    7.500    0.000   13.000 
#    0.000    2.500    0.000    0.000    0.000    0.000 
#    0.000    0.000    0.000    0.000    0.000    0.000 
#
# Total GULP energy -396911.035060 kJ/mol
# GULP energy per Si atom -12403.469846 kJ/mol
# Density = 2.444259 g / cm^3
# Si number density = 24.498346 Si / 1000 Ang^3
#
#
#
# Elastic Constant Matrix: (Units=GPa)
#
#
# Indices 1 2 3 4 5 6 
#
# 1 92.2187 100.7161 22.2599 0.0000 0.0000 0.0000
# 2 100.7161 92.2178 22.2587 0.0000 0.0000 0.0000
# 3 22.2599 22.2587 92.0896 0.0000 0.0000 0.0000
# 4 0.0000 0.0000 0.0000 36.4470 0.0000 0.0000
# 5 0.0000 0.0000 0.0000 0.0000 36.4471 0.0000
# 6 0.0000 0.0000 0.0000 0.0000 0.0000 38.9055
#
#
#
# Elastic Compliance Matrix: (Units=1/GPa)
#
#
# Indices 1 2 3 4 5 6 
#
# 1 -0.056094 0.061583 -0.001326 0.000000 0.000000 0.000000
# 2 0.061583 -0.056094 -0.001328 0.000000 0.000000 0.000000
# 3 -0.001326 -0.001328 0.011500 0.000000 0.000000 0.000000
# 4 0.000000 0.000000 0.000000 0.027437 0.000000 0.000000
# 5 0.000000 0.000000 0.000000 0.000000 0.027437 0.000000
# 6 0.000000 0.000000 0.000000 0.000000 0.000000 0.025703
#
#
# Mechanical properties :
#
#
# Convention : Reuss Voigt Hill
#
# Bulk Modulus (GPa) = 58.23560 62.99952 60.61756
# Shear Modulus (GPa) = -37.80863 31.11268 -3.34798
#
# Velocity S-wave (km/s) = -3.93277 3.56756 -1.17029
# Velocity P-wave (km/s) = 1.78904 6.53771 4.79282
#
# Compressibility (1/GPa) = 0.01717163
#
# Stress axis : x y z
#
# Youngs Moduli (GPa) = -17.82729 -17.82724 86.95340
#
# Poissons Ratio (x) = 1.09786 0.11530
# Poissons Ratio (y) = 1.09786 0.11544
# Poissons Ratio (z) = -0.02364 -0.02367
#
# Static dielectric constant tensor:
#      x y z
#    x 4.507970 0.000000 0.000000 
#    y 0.000000 4.507980 0.000000 
#    z 0.000000 0.000000 4.117600 
# 
# 
# High freq. dielectric constant tensor:
#      x y z
#    x 1.985690 0.000000 0.000000 
#    y 0.000000 1.985690 0.000000 
#    z 0.000000 0.000000 1.972670 
# 
# From -- ./inp_files/3414.got.cif
#   From: 2010.03.12/outbox.cif.g09.slc.cpg/sg92_2_cif.got.tgz:3414.got - 2010.04.08 20:41:11.
