data_PCOD8305283
_publ_section_title
;
Structure prediction by ZEFSAII (Michael W. Deem and Ramdas Pophale) SiO2 
 PCOD8305283
Probable space group: P 41 21 2
;
_chemical_formula_sum "Si O2"
_cell_formula_units_Z 40
_cell_length_a 16.749228
_cell_length_b 16.749228
_cell_length_c 5.592759
_cell_angle_alpha 90.000000
_cell_angle_beta 90.000000
_cell_angle_gamma 90.000000
_cell_volume 1568.973810
_symmetry_space_group_name_H-M "P 41 21 2"
_symmetry_group_IT_number 92
_symmetry_cell_setting 'tetragonal'
loop_
_space_group_symop_operation_xyz
x,y,z
1/2-y,1/2+x,1/4+z
-x,-y,1/2+z
1/2+y,1/2-x,3/4+z
1/2+x,1/2-y,3/4-z
1/2-x,1/2+y,1/4-z
y,x,-z
-y,-x,1/2-z
loop_
_atom_site_type_symbol
_atom_site_label
_atom_site_fract_x
_atom_site_fract_y
_atom_site_fract_z
Si Si1 0.960090 0.607041 0.006061
Si Si2 0.233658 0.639394 0.502076
Si Si3 0.703257 0.647816 0.749882
Si Si4 0.012417 0.271821 0.868847
Si Si5 0.420223 0.611514 0.510272
O O1 0.025277 0.587679 0.804197
O O2 0.897119 0.677385 0.956584
O O3 0.008638 0.646409 0.227209
O O4 0.219768 0.733686 0.481087
O O5 0.208825 0.591755 0.265889
O O6 0.326782 0.629447 0.544401
O O7 0.651065 0.651065 0.500000
O O8 0.751871 0.565294 0.776348
O O9 0.653928 0.653928 0.000000
O O10 0.028194 0.191741 0.714302
O O11 0.441773 0.558228 0.750000
O O12 0.432263 0.567738 0.250000
#
# Coordination Sequence:
#
# PCOD8305283 Si02
#       5
#     8   8   8   8   8
#     4  12  28  41  65 105 155 198 242 295 381 459
#     4  11  24  45  73 101 144 198 256 303 363 459
#     4  12  29  46  74 112 154 198 255 317 382 449
#     4  11  25  46  73 102 148 192 246 318 379 437
#     4  10  20  39  71 105 127 180 247 293 350 427
#
# _framework density 25.494368999999999
#
# number of rings (size 3 to 8) (size 9 to 14) (size 15 to 20)
#    0.000    0.800    2.000    4.800   14.000    0.000 
#    0.000    0.000    0.000   14.400    0.000    0.000 
#    0.000    0.000    0.000    0.000    0.000    0.000 
#
# Total GULP energy -495569.923830 kJ/mol
# GULP energy per Si atom -12389.248096 kJ/mol
# Density = 2.543634 g / cm^3
# Si number density = 25.494369 Si / 1000 Ang^3
#
#
#
# Elastic Constant Matrix: (Units=GPa)
#
#
# Indices 1 2 3 4 5 6 
#
# 1 38.2834 34.4064 6.8760 0.0000 0.0000 0.0000
# 2 34.4064 38.2847 6.8757 0.0000 0.0000 0.0000
# 3 6.8760 6.8757 154.2611 0.0000 0.0000 0.0000
# 4 0.0000 0.0000 0.0000 34.6230 0.0000 0.0000
# 5 0.0000 0.0000 0.0000 0.0000 34.6232 0.0000
# 6 0.0000 0.0000 0.0000 0.0000 0.0000 34.1008
#
#
#
# Elastic Compliance Matrix: (Units=1/GPa)
#
#
# Indices 1 2 3 4 5 6 
#
# 1 0.135886 -0.122010 -0.000619 0.000000 0.000000 0.000000
# 2 -0.122010 0.135882 -0.000618 0.000000 0.000000 0.000000
# 3 -0.000619 -0.000618 0.006538 0.000000 0.000000 0.000000
# 4 0.000000 0.000000 0.000000 0.028882 0.000000 0.000000
# 5 0.000000 0.000000 0.000000 0.000000 0.028882 0.000000
# 6 0.000000 0.000000 0.000000 0.000000 0.000000 0.029325
#
#
# Mechanical properties :
#
#
# Convention : Reuss Voigt Hill
#
# Bulk Modulus (GPa) = 31.43472 36.34948 33.89210
# Shear Modulus (GPa) = 8.03222 32.84749 20.43985
#
# Velocity S-wave (km/s) = 1.77691 3.59335 2.83457
# Velocity P-wave (km/s) = 4.07023 5.61294 4.90264
#
# Compressibility (1/GPa) = 0.03181196
#
# Stress axis : x y z
#
# Youngs Moduli (GPa) = 7.35909 7.35935 152.96038
#
# Poissons Ratio (x) = 0.89791 0.09465
# Poissons Ratio (y) = 0.89788 0.09453
# Poissons Ratio (z) = 0.00455 0.00455
#
# Static dielectric constant tensor:
#      x y z
#    x 4.611740 0.000000 0.000000 
#    y 0.000000 4.611740 0.000000 
#    z 0.000000 0.000000 5.444050 
# 
# 
# High freq. dielectric constant tensor:
#      x y z
#    x 2.007870 0.000000 0.000000 
#    y 0.000000 2.007870 0.000000 
#    z 0.000000 0.000000 2.027960 
# 
# From -- ./inp_files/401.got.cif
#   From: 2010.03.12/outbox.cif.g09.slc.cpg/sg92_1_cif.got.tgz:401.got - 2010.04.08 20:41:11.
