data_PCOD8305708
_publ_section_title
;
Structure prediction by ZEFSAII (Michael W. Deem and Ramdas Pophale) SiO2 
 PCOD8305708
Probable space group: P 42 21 2
;
_chemical_formula_sum "Si O2"
_cell_formula_units_Z 58
_cell_length_a 18.020292
_cell_length_b 18.020292
_cell_length_c 7.987649
_cell_angle_alpha 90.000000
_cell_angle_beta 90.000000
_cell_angle_gamma 90.000000
_cell_volume 2593.836638
_symmetry_space_group_name_H-M "P 42 21 2"
_symmetry_group_IT_number 94
_symmetry_cell_setting 'tetragonal'
loop_
_space_group_symop_operation_xyz
x,y,z
1/2-y,1/2+x,1/2+z
-x,-y,z
1/2+y,1/2-x,1/2+z
1/2+x,1/2-y,1/2-z
1/2-x,1/2+y,1/2-z
y,x,-z
-y,-x,-z
loop_
_atom_site_type_symbol
_atom_site_label
_atom_site_fract_x
_atom_site_fract_y
_atom_site_fract_z
Si Si1 0.500000 0.500000 0.000000
Si Si2 0.843203 0.187552 0.813006
Si Si3 0.458873 0.775731 0.102019
Si Si4 0.197887 0.547919 0.280480
Si Si5 0.895545 0.341131 0.867567
Si Si6 0.304763 0.883610 0.742106
Si Si7 0.849562 0.999107 0.111608
Si Si8 0.383176 0.540142 0.749121
O O1 0.425538 0.493157 0.889443
O O2 0.861757 0.272018 0.762858
O O3 0.775075 0.155454 0.704025
O O4 0.920786 0.141505 0.798057
O O5 0.812735 0.187266 0.000000
O O6 0.409234 0.842309 0.173925
O O7 0.541736 0.799779 0.138608
O O8 0.435759 0.697812 0.186881
O O9 0.446480 0.768072 0.904667
O O10 0.139942 0.478934 0.300373
O O11 0.163028 0.626543 0.334263
O O12 0.264162 0.526028 0.406520
O O13 0.899130 0.320921 0.063920
O O14 0.888569 0.934626 0.216665
O O15 0.878986 0.007695 0.921368
#
# Coordination Sequence:
#
# PCOD8305708 Si02
#       8
#     2   8   8   8   8   8   8   8
#     4  12  28  42  60 100 136 182 228 276 312 384
#     4   9  18  37  64  90 117 170 222 258 319 408
#     4  11  23  40  62  96 134 166 222 284 332 394
#     4  10  22  42  66  97 129 170 226 281 338 399
#     4   9  21  41  64  89 125 176 218 271 344 400
#     4  10  22  39  66  95 127 171 220 278 337 401
#     4  10  23  42  67  92 130 180 224 265 335 411
#     4  11  25  42  64  95 136 178 221 274 326 398
#
# _framework density 22.360699
#
# number of rings (size 3 to 8) (size 9 to 14) (size 15 to 20)
#    0.000    1.931    0.000    3.310    5.793    3.310 
#    3.724    2.759    0.000    0.000    0.000    0.000 
#    0.000    0.000    0.000    0.000    0.000    0.000 
#
# Total GULP energy -718992.490391 kJ/mol
# GULP energy per Si atom -12396.422248 kJ/mol
# Density = 2.230981 g / cm^3
# Si number density = 22.360699 Si / 1000 Ang^3
#
#
#
# Elastic Constant Matrix: (Units=GPa)
#
#
# Indices 1 2 3 4 5 6 
#
# 1 149.9932 84.9256 26.7613 0.0000 0.0000 0.0000
# 2 84.9256 149.9932 26.7614 0.0000 0.0000 0.0000
# 3 26.7613 26.7614 51.3313 0.0000 0.0000 0.0000
# 4 0.0000 0.0000 0.0000 31.6880 0.0000 0.0000
# 5 0.0000 0.0000 0.0000 0.0000 31.6880 0.0000
# 6 0.0000 0.0000 0.0000 0.0000 0.0000 41.0886
#
#
#
# Elastic Compliance Matrix: (Units=1/GPa)
#
#
# Indices 1 2 3 4 5 6 
#
# 1 0.010100 -0.005269 -0.002518 0.000000 0.000000 0.000000
# 2 -0.005269 0.010100 -0.002518 0.000000 0.000000 0.000000
# 3 -0.002518 -0.002518 0.022107 0.000000 0.000000 0.000000
# 4 0.000000 0.000000 0.000000 0.031558 0.000000 0.000000
# 5 0.000000 0.000000 0.000000 0.000000 0.031558 0.000000
# 6 0.000000 0.000000 0.000000 0.000000 0.000000 0.024338
#
#
# Mechanical properties :
#
#
# Convention : Reuss Voigt Hill
#
# Bulk Modulus (GPa) = 46.09407 69.80156 57.94782
# Shear Modulus (GPa) = 31.72536 35.08422 33.40479
#
# Velocity S-wave (km/s) = 3.77078 3.96537 3.86930
# Velocity P-wave (km/s) = 6.29421 7.22838 6.77741
#
# Compressibility (1/GPa) = 0.02169476
#
# Stress axis : x y z
#
# Youngs Moduli (GPa) = 99.01392 99.01378 45.23412
#
# Poissons Ratio (x) = 0.52171 0.11392
# Poissons Ratio (y) = 0.52171 0.11392
# Poissons Ratio (z) = 0.24935 0.24936
#
# Static dielectric constant tensor:
#      x y z
#    x 4.202130 0.000000 0.000000 
#    y 0.000000 4.202130 0.000000 
#    z 0.000000 0.000000 3.851600 
# 
# 
# High freq. dielectric constant tensor:
#      x y z
#    x 1.884040 0.000000 0.000000 
#    y 0.000000 1.884040 0.000000 
#    z 0.000000 0.000000 1.863940 
# 
# From -- ./inp_files/1750.got.cif
#   From: 2010.03.12/outbox.cif.g09.slc.cpg/sg94_1_cif.got.tgz:1750.got - 2010.04.08 20:48:32.
