data_PCOD8305254
_publ_section_title
;
Structure prediction by ZEFSAII (Michael W. Deem and Ramdas Pophale) SiO2 
 PCOD8305254
Probable space group: P 41 21 2
;
_chemical_formula_sum "Si O2"
_cell_formula_units_Z 40
_cell_length_a 20.062655
_cell_length_b 20.062655
_cell_length_c 4.820106
_cell_angle_alpha 90.000000
_cell_angle_beta 90.000000
_cell_angle_gamma 90.000000
_cell_volume 1940.141472
_symmetry_space_group_name_H-M "P 41 21 2"
_symmetry_group_IT_number 92
_symmetry_cell_setting 'tetragonal'
loop_
_space_group_symop_operation_xyz
x,y,z
1/2-y,1/2+x,1/4+z
-x,-y,1/2+z
1/2+y,1/2-x,3/4+z
1/2+x,1/2-y,3/4-z
1/2-x,1/2+y,1/4-z
y,x,-z
-y,-x,1/2-z
loop_
_atom_site_type_symbol
_atom_site_label
_atom_site_fract_x
_atom_site_fract_y
_atom_site_fract_z
Si Si1 0.983869 0.083797 0.993851
Si Si2 0.150280 0.520953 0.194137
Si Si3 0.141945 0.749406 0.756591
Si Si4 0.446305 0.274693 0.982942
Si Si5 0.103106 0.383534 0.442937
O O1 0.934570 0.065431 0.250000
O O2 0.963403 0.036598 0.750000
O O3 0.977332 0.159157 0.895860
O O4 0.062773 0.062773 0.000000
O O5 0.219769 0.504132 0.040337
O O6 0.114164 0.455547 0.307880
O O7 0.162907 0.569840 0.456203
O O8 0.105474 0.555700 0.958541
O O9 0.212032 0.787968 0.750000
O O10 0.117196 0.752995 0.443022
O O11 0.150863 0.670588 0.814318
O O12 0.084592 0.781545 0.957044
#
# Coordination Sequence:
#
# PCOD8305254 Si02
#       5
#     8   8   8   8   8
#     4  10  20  34  55  85 118 150 190 235 282 346
#     4  11  23  40  61  84 118 151 193 244 291 349
#     4  11  22  38  62  87 114 149 195 241 284 340
#     4  11  21  37  59  85 116 152 192 240 293 341
#     4  11  23  41  60  87 117 152 192 240 294 344
#
# _framework density 20.617052999999999
#
# number of rings (size 3 to 8) (size 9 to 14) (size 15 to 20)
#    0.000    1.200    0.000    9.600    0.000    1.600 
#    0.000    4.000    0.000    0.000    0.000    0.000 
#    0.000    0.000    0.000    0.000    0.000    0.000 
#
# Total GULP energy -495615.683206 kJ/mol
# GULP energy per Si atom -12390.392080 kJ/mol
# Density = 2.057013 g / cm^3
# Si number density = 20.617053 Si / 1000 Ang^3
#
#
#
# Elastic Constant Matrix: (Units=GPa)
#
#
# Indices 1 2 3 4 5 6 
#
# 1 111.0040 65.1317 36.3969 0.0000 0.0000 0.0000
# 2 65.1317 111.0046 36.3970 0.0000 0.0000 0.0000
# 3 36.3969 36.3970 108.1920 0.0000 0.0000 0.0000
# 4 0.0000 0.0000 0.0000 32.5790 0.0000 0.0000
# 5 0.0000 0.0000 0.0000 0.0000 32.5786 0.0000
# 6 0.0000 0.0000 0.0000 0.0000 0.0000 27.5145
#
#
#
# Elastic Compliance Matrix: (Units=1/GPa)
#
#
# Indices 1 2 3 4 5 6 
#
# 1 0.014197 -0.007603 -0.002218 0.000000 0.000000 0.000000
# 2 -0.007603 0.014197 -0.002218 0.000000 0.000000 0.000000
# 3 -0.002218 -0.002218 0.010735 0.000000 0.000000 0.000000
# 4 0.000000 0.000000 0.000000 0.030695 0.000000 0.000000
# 5 0.000000 0.000000 0.000000 0.000000 0.030695 0.000000
# 6 0.000000 0.000000 0.000000 0.000000 0.000000 0.036344
#
#
# Mechanical properties :
#
#
# Convention : Reuss Voigt Hill
#
# Bulk Modulus (GPa) = 66.44347 67.33910 66.89129
# Shear Modulus (GPa) = 30.12794 31.35274 30.74034
#
# Velocity S-wave (km/s) = 3.82686 3.90387 3.86556
# Velocity P-wave (km/s) = 7.19888 7.28375 7.24144
#
# Compressibility (1/GPa) = 0.01505039
#
# Stress axis : x y z
#
# Youngs Moduli (GPa) = 70.43779 70.43815 93.14978
#
# Poissons Ratio (x) = 0.53552 0.20664
# Poissons Ratio (y) = 0.53551 0.20664
# Poissons Ratio (z) = 0.15626 0.15626
#
# Static dielectric constant tensor:
#      x y z
#    x 3.807940 0.000000 0.000000 
#    y 0.000000 3.807930 0.000000 
#    z 0.000000 0.000000 4.089000 
# 
# 
# High freq. dielectric constant tensor:
#      x y z
#    x 1.791880 0.000000 0.000000 
#    y 0.000000 1.791880 0.000000 
#    z 0.000000 0.000000 1.834140 
# 
# From -- ./inp_files/441.got.cif
#   From: 2010.03.12/outbox.cif.g09.slc.cpg/sg92_1_cif.got.tgz:441.got - 2010.04.08 20:41:11.
