data_PCOD8305177
_publ_section_title
;
Structure prediction by ZEFSAII (Michael W. Deem and Ramdas Pophale) SiO2 
 PCOD8305177
Probable space group: P 41 2 2
;
_chemical_formula_sum "Si O2"
_cell_formula_units_Z 48
_cell_length_a 8.684418
_cell_length_b 8.684418
_cell_length_c 28.962232
_cell_angle_alpha 90.000000
_cell_angle_beta 90.000000
_cell_angle_gamma 90.000000
_cell_volume 2184.305935
_symmetry_space_group_name_H-M "P 41 2 2"
_symmetry_group_IT_number 91
_symmetry_cell_setting 'tetragonal'
loop_
_space_group_symop_operation_xyz
x,y,z
-y,x,1/4+z
-x,-y,1/2+z
y,-x,3/4+z
x,-y,1/2-z
-x,y,-z
y,x,3/4-z
-y,-x,1/4-z
loop_
_atom_site_type_symbol
_atom_site_label
_atom_site_fract_x
_atom_site_fract_y
_atom_site_fract_z
Si Si1 0.204498 0.792346 0.177012
Si Si2 0.987865 0.241825 0.246868
Si Si3 0.797830 0.573706 0.676776
Si Si4 0.245202 0.000000 0.750000
Si Si5 0.548665 0.181187 0.322303
Si Si6 0.500000 0.776021 0.500000
Si Si7 0.453129 0.455132 0.822798
O O1 0.158944 0.841057 0.125000
O O2 0.197396 0.608568 0.185257
O O3 0.371432 0.866858 0.185727
O O4 0.085064 0.855369 0.214946
O O5 0.866354 0.123244 0.224465
O O6 0.887820 0.373527 0.273625
O O7 0.094368 0.323024 0.208739
O O8 0.848813 0.606636 0.624374
O O9 0.619846 0.619500 0.687626
O O10 0.347799 0.918151 0.788492
O O11 0.552800 0.362666 0.313666
O O12 0.398812 0.675823 0.536785
O O13 0.409561 0.409561 0.875000
#
# Coordination Sequence:
#
# PCOD8305177 Si02
#       7
#     8   8   8   4   8   4   8
#     4   9  19  40  68  93 120 175 240 275 312 392
#     4  12  24  40  63  99 137 174 211 270 348 405
#     4   9  19  39  70  94 117 174 238 275 316 391
#     4  12  26  42  58  98 148 178 204 274 356 398
#     4   9  20  41  65  90 130 174 226 280 317 396
#     4  12  22  38  66  98 136 168 216 284 336 392
#     4   9  20  40  66  96 122 169 234 280 320 383
#
# _framework density 21.974943
#
# number of rings (size 3 to 8) (size 9 to 14) (size 15 to 20)
#    0.000    2.000    3.333    2.000    4.667    1.333 
#    6.000    0.000    0.000    0.000    0.000    0.000 
#    0.000    0.000    0.000    0.000    0.000    0.000 
#
# Total GULP energy -594637.670204 kJ/mol
# GULP energy per Si atom -12388.284796 kJ/mol
# Density = 2.192493 g / cm^3
# Si number density = 21.974943 Si / 1000 Ang^3
#
#
#
# Elastic Constant Matrix: (Units=GPa)
#
#
# Indices 1 2 3 4 5 6 
#
# 1 97.4943 58.6006 69.2205 0.0000 0.0000 0.0000
# 2 58.6006 97.4941 69.2205 0.0000 0.0000 0.0000
# 3 69.2205 69.2205 147.9646 0.0000 0.0000 0.0000
# 4 0.0000 0.0000 0.0000 23.4944 0.0000 0.0000
# 5 0.0000 0.0000 0.0000 0.0000 23.4944 0.0000
# 6 0.0000 0.0000 0.0000 0.0000 0.0000 39.4299
#
#
#
# Elastic Compliance Matrix: (Units=1/GPa)
#
#
# Indices 1 2 3 4 5 6 
#
# 1 0.018330 -0.007381 -0.005122 0.000000 0.000000 0.000000
# 2 -0.007381 0.018330 -0.005122 0.000000 0.000000 0.000000
# 3 -0.005122 -0.005122 0.011551 0.000000 0.000000 0.000000
# 4 0.000000 0.000000 0.000000 0.042563 0.000000 0.000000
# 5 0.000000 0.000000 0.000000 0.000000 0.042563 0.000000
# 6 0.000000 0.000000 0.000000 0.000000 0.000000 0.025361
#
#
# Mechanical properties :
#
#
# Convention : Reuss Voigt Hill
#
# Bulk Modulus (GPa) = 77.15768 81.89292 79.52530
# Shear Modulus (GPa) = 25.21804 27.01117 26.11460
#
# Velocity S-wave (km/s) = 3.39127 3.50977 3.45103
# Velocity P-wave (km/s) = 7.10790 7.33294 7.22130
#
# Compressibility (1/GPa) = 0.01296047
#
# Stress axis : x y z
#
# Youngs Moduli (GPa) = 54.55474 54.55460 86.57270
#
# Poissons Ratio (x) = 0.40266 0.44345
# Poissons Ratio (y) = 0.40266 0.44345
# Poissons Ratio (z) = 0.27945 0.27945
#
# Static dielectric constant tensor:
#      x y z
#    x 4.124110 0.000000 0.000000 
#    y 0.000000 4.124110 0.000000 
#    z 0.000000 0.000000 4.021940 
# 
# 
# High freq. dielectric constant tensor:
#      x y z
#    x 1.857280 0.000000 0.000000 
#    y 0.000000 1.857280 0.000000 
#    z 0.000000 0.000000 1.856100 
# 
# From -- ./inp_files/18217.got.cif
#   From: 2010.03.12/outbox.cif.g09.slc.cpg/sg91_10_cif.got.tgz:18217.got - 2010.04.08 20:27:58.
