data_PCOD8305658
_publ_section_title
;
Structure prediction by ZEFSAII (Michael W. Deem and Ramdas Pophale) SiO2 
 PCOD8305658
Probable space group: P 42 21 2
;
_chemical_formula_sum "Si O2"
_cell_formula_units_Z 36
_cell_length_a 8.878538
_cell_length_b 8.878538
_cell_length_c 20.151658
_cell_angle_alpha 90.000000
_cell_angle_beta 90.000000
_cell_angle_gamma 90.000000
_cell_volume 1588.523703
_symmetry_space_group_name_H-M "P 42 21 2"
_symmetry_group_IT_number 94
_symmetry_cell_setting 'tetragonal'
loop_
_space_group_symop_operation_xyz
x,y,z
1/2-y,1/2+x,1/2+z
-x,-y,z
1/2+y,1/2-x,1/2+z
1/2+x,1/2-y,1/2-z
1/2-x,1/2+y,1/2-z
y,x,-z
-y,-x,-z
loop_
_atom_site_type_symbol
_atom_site_label
_atom_site_fract_x
_atom_site_fract_y
_atom_site_fract_z
Si Si1 0.310356 0.264347 0.429299
Si Si2 0.000000 0.500000 0.535854
Si Si3 0.530942 0.716243 0.048463
Si Si4 0.727855 0.095890 0.693314
Si Si5 0.230528 0.406272 0.297898
O O1 0.346762 0.346762 0.500000
O O2 0.314263 0.379001 0.368307
O O3 0.145188 0.189622 0.436486
O O4 0.431734 0.130875 0.417227
O O5 0.934817 0.375142 0.486190
O O6 0.620529 0.716127 0.118051
O O7 0.585317 0.585317 0.000000
O O8 0.861568 0.153379 0.740285
O O9 0.581755 0.196533 0.708363
O O10 0.691943 0.921254 0.707015
#
# Coordination Sequence:
#
# PCOD8305658 Si02
#       5
#     8   4   8   8   8
#     4   9  19  36  60  87 118 154 195 245 297 351
#     4  10  20  36  60  90 120 154 198 252 302 350
#     4  10  21  39  63  89 120 158 202 249 298 357
#     4  10  22  41  60  86 120 159 198 246 300 357
#     4  10  22  40  62  85 120 158 198 246 301 359
#
# _framework density 22.662552000000002
#
# number of rings (size 3 to 8) (size 9 to 14) (size 15 to 20)
#    0.000    2.222    0.000    4.000    0.000   12.000 
#    0.000   11.111    0.000   15.333    0.000    0.000 
#    0.000    0.000    0.000    0.000    0.000    0.000 
#
# Total GULP energy -446330.022036 kJ/mol
# GULP energy per Si atom -12398.056168 kJ/mol
# Density = 2.261097 g / cm^3
# Si number density = 22.662552 Si / 1000 Ang^3
#
#
#
# Elastic Constant Matrix: (Units=GPa)
#
#
# Indices 1 2 3 4 5 6 
#
# 1 62.7580 25.8815 21.0765 0.0000 0.0000 0.0000
# 2 25.8815 62.7580 21.0765 0.0000 0.0000 0.0000
# 3 21.0765 21.0765 124.2645 0.0000 0.0000 0.0000
# 4 0.0000 0.0000 0.0000 12.8692 0.0000 0.0000
# 5 0.0000 0.0000 0.0000 0.0000 12.8692 0.0000
# 6 0.0000 0.0000 0.0000 0.0000 0.0000 42.3044
#
#
#
# Elastic Compliance Matrix: (Units=1/GPa)
#
#
# Indices 1 2 3 4 5 6 
#
# 1 0.019695 -0.007423 -0.002081 0.000000 0.000000 0.000000
# 2 -0.007423 0.019695 -0.002081 0.000000 0.000000 0.000000
# 3 -0.002081 -0.002081 0.008753 0.000000 0.000000 0.000000
# 4 0.000000 0.000000 0.000000 0.077705 0.000000 0.000000
# 5 0.000000 0.000000 0.000000 0.000000 0.077705 0.000000
# 6 0.000000 0.000000 0.000000 0.000000 0.000000 0.023638
#
#
# Mechanical properties :
#
#
# Convention : Reuss Voigt Hill
#
# Bulk Modulus (GPa) = 40.04666 42.87213 41.45940
# Shear Modulus (GPa) = 19.32850 25.72496 22.52673
#
# Velocity S-wave (km/s) = 2.92358 3.37283 3.15621
# Velocity P-wave (km/s) = 5.39497 5.84180 5.62282
#
# Compressibility (1/GPa) = 0.02497087
#
# Stress axis : x y z
#
# Youngs Moduli (GPa) = 50.77558 50.77558 114.24145
#
# Poissons Ratio (x) = 0.37691 0.23778
# Poissons Ratio (y) = 0.37691 0.23778
# Poissons Ratio (z) = 0.10568 0.10568
#
# Static dielectric constant tensor:
#      x y z
#    x 3.961670 0.000000 0.000000 
#    y 0.000000 3.961670 0.000000 
#    z 0.000000 0.000000 4.348890 
# 
# 
# High freq. dielectric constant tensor:
#      x y z
#    x 1.883580 0.000000 0.000000 
#    y 0.000000 1.883580 0.000000 
#    z 0.000000 0.000000 1.900110 
# 
# From -- ./inp_files/4542.got.cif
#   From: 2010.03.12/outbox.cif.g09.slc.cpg/sg94_3_cif.got.tgz:4542.got - 2010.04.08 20:48:32.
