data_PCOD8305215
_publ_section_title
;
Structure prediction by ZEFSAII (Michael W. Deem and Ramdas Pophale) SiO2 
 PCOD8305215
Probable space group: P 41 21 2
;
_chemical_formula_sum "Si O2"
_cell_formula_units_Z 44
_cell_length_a 9.583946
_cell_length_b 9.583946
_cell_length_c 27.674899
_cell_angle_alpha 90.000000
_cell_angle_beta 90.000000
_cell_angle_gamma 90.000000
_cell_volume 2541.995402
_symmetry_space_group_name_H-M "P 41 21 2"
_symmetry_group_IT_number 92
_symmetry_cell_setting 'tetragonal'
loop_
_space_group_symop_operation_xyz
x,y,z
1/2-y,1/2+x,1/4+z
-x,-y,1/2+z
1/2+y,1/2-x,3/4+z
1/2+x,1/2-y,3/4-z
1/2-x,1/2+y,1/4-z
y,x,-z
-y,-x,1/2-z
loop_
_atom_site_type_symbol
_atom_site_label
_atom_site_fract_x
_atom_site_fract_y
_atom_site_fract_z
Si Si1 0.860136 0.860136 0.500000
Si Si2 0.143851 0.332668 0.162477
Si Si3 0.150358 0.733498 0.518236
Si Si4 0.326167 0.139651 0.339804
Si Si5 0.154648 0.319859 0.907639
Si Si6 0.360094 0.128202 0.631979
O O1 0.807601 0.769527 0.454724
O O2 0.024071 0.840299 0.509008
O O3 0.148715 0.312805 0.220096
O O4 0.180460 0.490168 0.146975
O O5 0.255583 0.229642 0.138833
O O6 0.987583 0.295528 0.145569
O O7 0.286386 0.819585 0.536831
O O8 0.104835 0.623980 0.560346
O O9 0.476427 0.165574 0.361948
O O10 0.217013 0.217572 0.375652
O O11 0.289793 0.977122 0.334571
#
# Coordination Sequence:
#
# PCOD8305215 Si02
#       6
#     4   8   8   8   8   8
#     4  10  18  36  60  78 108 156 192 232 288 336
#     4  10  20  37  59  82 112 148 193 233 286 335
#     4   9  20  36  59  80 113 151 195 234 282 346
#     4   9  20  37  57  81 117 145 185 232 290 337
#     4  10  20  34  58  85 110 149 182 241 279 337
#     4   9  19  39  56  78 119 148 179 241 283 341
#
# _framework density 17.309238000000001
#
# number of rings (size 3 to 8) (size 9 to 14) (size 15 to 20)
#    1.091    1.455    1.818    0.000    0.000    5.818 
#    9.818    0.909    0.000    0.000    0.000    0.000 
#    0.000    0.000    0.000    0.000    0.000    0.000 
#
# Total GULP energy -545338.397396 kJ/mol
# GULP energy per Si atom -12394.054486 kJ/mol
# Density = 1.726984 g / cm^3
# Si number density = 17.309238 Si / 1000 Ang^3
#
#
#
# Elastic Constant Matrix: (Units=GPa)
#
#
# Indices 1 2 3 4 5 6 
#
# 1 76.3217 1.9794 39.0871 0.0000 0.0000 0.0000
# 2 1.9794 76.3217 39.0871 0.0000 0.0000 0.0000
# 3 39.0871 39.0871 118.9258 0.0000 0.0000 0.0000
# 4 0.0000 0.0000 0.0000 24.6753 0.0000 0.0000
# 5 0.0000 0.0000 0.0000 0.0000 24.6753 0.0000
# 6 0.0000 0.0000 0.0000 0.0000 0.0000 27.5779
#
#
#
# Elastic Compliance Matrix: (Units=1/GPa)
#
#
# Indices 1 2 3 4 5 6 
#
# 1 0.016230 0.002779 -0.006248 0.000000 0.000000 0.000000
# 2 0.002779 0.016230 -0.006248 0.000000 0.000000 0.000000
# 3 -0.006248 -0.006248 0.012515 0.000000 0.000000 0.000000
# 4 0.000000 0.000000 0.000000 0.040526 0.000000 0.000000
# 5 0.000000 0.000000 0.000000 0.000000 0.040526 0.000000
# 6 0.000000 0.000000 0.000000 0.000000 0.000000 0.036261
#
#
# Mechanical properties :
#
#
# Convention : Reuss Voigt Hill
#
# Bulk Modulus (GPa) = 39.15050 47.98629 43.56840
# Shear Modulus (GPa) = 26.28315 28.14671 27.21493
#
# Velocity S-wave (km/s) = 3.90095 4.03688 3.96950
# Velocity P-wave (km/s) = 6.55418 7.03645 6.79959
#
# Compressibility (1/GPa) = 0.02554246
#
# Stress axis : x y z
#
# Youngs Moduli (GPa) = 61.61442 61.61442 79.90196
#
# Poissons Ratio (x) = -0.17121 0.49919
# Poissons Ratio (y) = -0.17121 0.49919
# Poissons Ratio (z) = 0.38494 0.38494
#
# Static dielectric constant tensor:
#      x y z
#    x 3.176680 0.000000 0.000000 
#    y 0.000000 3.176680 0.000000 
#    z 0.000000 0.000000 3.211570 
# 
# 
# High freq. dielectric constant tensor:
#      x y z
#    x 1.664670 0.000000 0.000000 
#    y 0.000000 1.664670 0.000000 
#    z 0.000000 0.000000 1.667190 
# 
# From -- ./inp_files/4437.got.cif
#   From: 2010.03.12/outbox.cif.g09.slc.cpg/sg92_3_cif.got.tgz:4437.got - 2010.04.08 20:41:11.
