data_PCOD8305171
_publ_section_title
;
Structure prediction by ZEFSAII (Michael W. Deem and Ramdas Pophale) SiO2 
 PCOD8305171
Probable space group: P 41 2 2
;
_chemical_formula_sum "Si O2"
_cell_formula_units_Z 48
_cell_length_a 8.638887
_cell_length_b 8.638887
_cell_length_c 27.863370
_cell_angle_alpha 90.000000
_cell_angle_beta 90.000000
_cell_angle_gamma 90.000000
_cell_volume 2079.453574
_symmetry_space_group_name_H-M "P 41 2 2"
_symmetry_group_IT_number 91
_symmetry_cell_setting 'tetragonal'
loop_
_space_group_symop_operation_xyz
x,y,z
-y,x,1/4+z
-x,-y,1/2+z
y,-x,3/4+z
x,-y,1/2-z
-x,y,-z
y,x,3/4-z
-y,-x,1/4-z
loop_
_atom_site_type_symbol
_atom_site_label
_atom_site_fract_x
_atom_site_fract_y
_atom_site_fract_z
Si Si1 0.959350 0.959350 0.875000
Si Si2 0.565732 0.565732 0.375000
Si Si3 0.141868 0.927073 0.704484
Si Si4 0.816084 0.428774 0.201032
Si Si5 0.585925 0.623144 0.951425
Si Si6 0.467479 0.908659 0.797494
Si Si7 0.618807 0.063055 0.599802
O O1 0.004210 0.790674 0.855593
O O2 0.079651 0.006139 0.916018
O O3 0.541319 0.729183 0.400855
O O4 0.549113 0.441174 0.417134
O O5 0.192003 0.751843 0.712437
O O6 0.056418 0.000000 0.750000
O O7 0.288865 0.041439 0.694777
O O8 0.742968 0.500000 0.250000
O O9 0.979721 0.511416 0.190177
O O10 0.724226 0.498053 0.960590
O O11 0.652161 0.767985 0.922003
O O12 0.500000 0.671762 0.000000
O O13 0.549253 0.950317 0.847210
O O14 0.532076 0.000000 0.750000
#
# Coordination Sequence:
#
# PCOD8305171 Si02
#       7
#     4   4   8   8   8   8   8
#     4  12  24  46  72 104 150 198 248 310 394 456
#     4  12  26  44  78 106 146 194 256 318 384 460
#     4  11  27  47  71 108 151 195 251 314 386 469
#     4  12  28  48  74 114 147 199 259 316 394 466
#     4  12  27  48  73 113 150 203 258 322 390 463
#     4  11  25  48  72 107 155 197 259 319 386 468
#     4  12  25  50  72 108 154 200 259 321 381 472
#
# _framework density 23.082985999999998
#
# number of rings (size 3 to 8) (size 9 to 14) (size 15 to 20)
#    0.000    0.333    3.333    4.500   14.000    2.000 
#    3.000    0.000    0.000    0.000    0.000    0.000 
#    0.000    0.000    0.000    0.000    0.000    0.000 
#
# Total GULP energy -594666.213102 kJ/mol
# GULP energy per Si atom -12388.879440 kJ/mol
# Density = 2.303045 g / cm^3
# Si number density = 23.082986 Si / 1000 Ang^3
#
#
#
# Elastic Constant Matrix: (Units=GPa)
#
#
# Indices 1 2 3 4 5 6 
#
# 1 99.3706 61.3086 47.6514 0.0000 0.0000 0.0000
# 2 61.3086 99.3706 47.6514 0.0000 0.0000 0.0000
# 3 47.6514 47.6514 169.0074 0.0000 0.0000 0.0000
# 4 0.0000 0.0000 0.0000 38.2324 0.0000 0.0000
# 5 0.0000 0.0000 0.0000 0.0000 38.2324 0.0000
# 6 0.0000 0.0000 0.0000 0.0000 0.0000 32.8113
#
#
#
# Elastic Compliance Matrix: (Units=1/GPa)
#
#
# Indices 1 2 3 4 5 6 
#
# 1 0.016873 -0.009400 -0.002107 0.000000 0.000000 0.000000
# 2 -0.009400 0.016873 -0.002107 0.000000 0.000000 0.000000
# 3 -0.002107 -0.002107 0.007105 0.000000 0.000000 0.000000
# 4 0.000000 0.000000 0.000000 0.026156 0.000000 0.000000
# 5 0.000000 0.000000 0.000000 0.000000 0.026156 0.000000
# 6 0.000000 0.000000 0.000000 0.000000 0.000000 0.030477
#
#
# Mechanical properties :
#
#
# Convention : Reuss Voigt Hill
#
# Bulk Modulus (GPa) = 73.40317 75.66349 74.53333
# Shear Modulus (GPa) = 32.17305 35.93101 34.05203
#
# Velocity S-wave (km/s) = 3.73741 3.94966 3.84500
# Velocity P-wave (km/s) = 7.10585 7.32460 7.21605
#
# Compressibility (1/GPa) = 0.01362339
#
# Stress axis : x y z
#
# Youngs Moduli (GPa) = 59.26572 59.26572 140.74413
#
# Poissons Ratio (x) = 0.55709 0.29656
# Poissons Ratio (y) = 0.55709 0.29656
# Poissons Ratio (z) = 0.12488 0.12488
#
# Static dielectric constant tensor:
#      x y z
#    x 4.175060 0.000000 0.000000 
#    y 0.000000 4.175060 0.000000 
#    z 0.000000 0.000000 4.404800 
# 
# 
# High freq. dielectric constant tensor:
#      x y z
#    x 1.907380 0.000000 0.000000 
#    y 0.000000 1.907380 0.000000 
#    z 0.000000 0.000000 1.942910 
# 
# From -- ./inp_files/22310.got.cif
#   From: 2010.03.12/outbox.cif.g09.slc.cpg/sg91_12_cif.got.tgz:22310.got - 2010.04.08 20:27:58.
