data_PCOD8305856
_publ_section_title
;
Structure prediction by ZEFSAII (Michael W. Deem and Ramdas Pophale) SiO2 
 PCOD8305856
Probable space group: P 43 2 2
;
_chemical_formula_sum "Si O2"
_cell_formula_units_Z 32
_cell_length_a 7.497959
_cell_length_b 7.497959
_cell_length_c 23.876419
_cell_angle_alpha 90.000000
_cell_angle_beta 90.000000
_cell_angle_gamma 90.000000
_cell_volume 1342.317692
_symmetry_space_group_name_H-M "P 43 2 2"
_symmetry_group_IT_number 95
_symmetry_cell_setting 'tetragonal'
loop_
_space_group_symop_operation_xyz
x,y,z
-y,x,3/4+z
-x,-y,1/2+z
y,-x,1/4+z
x,-y,1/2-z
-x,y,-z
y,x,1/4-z
-y,-x,3/4-z
loop_
_atom_site_type_symbol
_atom_site_label
_atom_site_fract_x
_atom_site_fract_y
_atom_site_fract_z
Si Si1 0.500000 0.569295 0.500000
Si Si2 0.752937 0.365292 0.317087
Si Si3 0.147667 0.416452 0.046896
Si Si4 0.107953 0.892048 0.375000
Si Si5 0.818367 0.243265 0.199952
O O1 0.407314 0.448278 0.547694
O O2 0.665320 0.679124 0.526100
O O3 0.746191 0.253810 0.375000
O O4 0.842605 0.243787 0.267953
O O5 0.853891 0.555166 0.323018
O O6 0.080226 0.301782 0.098458
O O7 0.183436 0.618323 0.066492
O O8 0.000000 0.412415 0.000000
O O9 0.952435 0.899968 0.328070
#
# Coordination Sequence:
#
# PCOD8305856 Si02
#       5
#     4   8   8   4   8
#     4   8  20  36  66 104 128 174 250 274 352 432
#     4   8  16  37  73 100 138 184 245 289 355 431
#     4  10  24  44  70  98 141 185 231 295 359 422
#     4  12  26  42  70 108 146 174 244 296 352 442
#     4   9  23  41  65 112 138 186 243 290 364 431
#
# _framework density 23.839361
#
# number of rings (size 3 to 8) (size 9 to 14) (size 15 to 20)
#    0.000    3.500    0.000    0.000   14.000    3.000 
#    0.000   12.500    2.750    0.000    0.000    0.000 
#    0.000    0.000    0.000    0.000    0.000    0.000 
#
# Total GULP energy -396442.461469 kJ/mol
# GULP energy per Si atom -12388.826921 kJ/mol
# Density = 2.378510 g / cm^3
# Si number density = 23.839361 Si / 1000 Ang^3
#
#
#
# Elastic Constant Matrix: (Units=GPa)
#
#
# Indices 1 2 3 4 5 6 
#
# 1 -48.0698 169.9257 58.8812 0.0000 0.0000 0.0000
# 2 169.9257 -48.0723 58.8861 0.0000 0.0000 0.0000
# 3 58.8812 58.8861 157.3784 0.0000 0.0000 0.0000
# 4 0.0000 0.0000 0.0000 7.3988 0.0000 0.0000
# 5 0.0000 0.0000 0.0000 0.0000 7.3947 0.0000
# 6 0.0000 0.0000 0.0000 0.0000 0.0000 12.3702
#
#
#
# Elastic Compliance Matrix: (Units=1/GPa)
#
#
# Indices 1 2 3 4 5 6 
#
# 1 0.004134 0.008721 -0.004810 0.000000 0.000000 0.000000
# 2 0.008721 0.004134 -0.004810 0.000000 0.000000 0.000000
# 3 -0.004810 -0.004810 0.009953 0.000000 0.000000 0.000000
# 4 0.000000 0.000000 0.000000 0.135157 0.000000 0.000000
# 5 0.000000 0.000000 0.000000 0.000000 0.135233 0.000000
# 6 0.000000 0.000000 0.000000 0.000000 0.000000 0.080840
#
#
# Mechanical properties :
#
#
# Convention : Reuss Voigt Hill
#
# Bulk Modulus (GPa) = 60.88575 70.73579 65.81077
# Shear Modulus (GPa) = 13.27241 -9.66439 1.80401
#
# Velocity S-wave (km/s) = 2.36210 -2.01563 0.87085
# Velocity P-wave (km/s) = 5.74759 4.93145 5.35509
#
# Compressibility (1/GPa) = 0.01642420
#
# Stress axis : x y z
#
# Youngs Moduli (GPa) = 241.89633 241.91756 100.46982
#
# Poissons Ratio (x) = -2.10977 0.48324
# Poissons Ratio (y) = -2.10959 0.48321
# Poissons Ratio (z) = 1.16348 1.16352
#
# Static dielectric constant tensor:
#      x y z
#    x 4.167580 0.000000 0.000000 
#    y 0.000000 4.167590 0.000000 
#    z 0.000000 0.000000 4.264800 
# 
# 
# High freq. dielectric constant tensor:
#      x y z
#    x 1.925490 0.000000 0.000000 
#    y 0.000000 1.925490 0.000000 
#    z 0.000000 0.000000 1.940540 
# 
# From -- ./inp_files/6746.got.cif
#   From: 2010.03.12/outbox.cif.g09.slc.cpg/sg95_4_cif.got.tgz:6746.got - 2010.04.08 20:51:55.
