data_PCOD8305229
_publ_section_title
;
Structure prediction by ZEFSAII (Michael W. Deem and Ramdas Pophale) SiO2 
 PCOD8305229
Probable space group: P 41 21 2
;
_chemical_formula_sum "Si O2"
_cell_formula_units_Z 48
_cell_length_a 12.832543
_cell_length_b 12.832543
_cell_length_c 16.504118
_cell_angle_alpha 90.000000
_cell_angle_beta 90.000000
_cell_angle_gamma 90.000000
_cell_volume 2717.801766
_symmetry_space_group_name_H-M "P 41 21 2"
_symmetry_group_IT_number 92
_symmetry_cell_setting 'tetragonal'
loop_
_space_group_symop_operation_xyz
x,y,z
1/2-y,1/2+x,1/4+z
-x,-y,1/2+z
1/2+y,1/2-x,3/4+z
1/2+x,1/2-y,3/4-z
1/2-x,1/2+y,1/4-z
y,x,-z
-y,-x,1/2-z
loop_
_atom_site_type_symbol
_atom_site_label
_atom_site_fract_x
_atom_site_fract_y
_atom_site_fract_z
Si Si1 0.385297 0.838090 0.990668
Si Si2 0.992655 0.452040 0.142511
Si Si3 0.017119 0.856403 0.817756
Si Si4 0.324790 0.598818 0.833931
Si Si5 0.862105 0.534153 0.285847
Si Si6 0.249440 0.313994 0.679843
O O1 0.397673 0.933524 0.929690
O O2 0.465961 0.746062 0.970495
O O3 0.263296 0.812251 0.988516
O O4 0.411544 0.878504 0.080798
O O5 0.913473 0.457843 0.219100
O O6 0.042897 0.561447 0.112972
O O7 0.920982 0.924044 0.854576
O O8 0.097547 0.821279 0.888486
O O9 0.075722 0.924279 0.750000
O O10 0.376825 0.623175 0.750000
O O11 0.249066 0.501102 0.821761
O O12 0.255517 0.697752 0.859914
O O13 0.841715 0.640567 0.237162
#
# Coordination Sequence:
#
# PCOD8305229 Si02
#       6
#     8   8   8   8   8   8
#     4  10  20  34  56  83 111 145 184 232 282 330
#     4  10  19  34  56  84 110 140 189 236 270 335
#     4  11  21  34  55  86 117 141 180 238 287 339
#     4  11  20  34  56  82 110 146 182 228 284 332
#     4  11  18  34  56  81 109 144 186 230 282 331
#     4  11  19  33  55  83 113 144 183 230 282 332
#
# _framework density 17.661332000000002
#
# number of rings (size 3 to 8) (size 9 to 14) (size 15 to 20)
#    0.000    1.333    5.000    3.500    0.000    0.000 
#    0.000    3.333    0.000    0.000    0.000    0.000 
#    0.000    0.000    0.000    0.000    0.000    0.000 
#
# Total GULP energy -594877.798622 kJ/mol
# GULP energy per Si atom -12393.287471 kJ/mol
# Density = 1.762113 g / cm^3
# Si number density = 17.661332 Si / 1000 Ang^3
#
#
#
# Elastic Constant Matrix: (Units=GPa)
#
#
# Indices 1 2 3 4 5 6 
#
# 1 64.4911 23.2567 24.6579 0.0000 0.0000 0.0000
# 2 23.2567 64.4907 24.6576 0.0000 0.0000 0.0000
# 3 24.6579 24.6576 65.9672 0.0000 0.0000 0.0000
# 4 0.0000 0.0000 0.0000 32.3555 0.0000 0.0000
# 5 0.0000 0.0000 0.0000 0.0000 32.3552 0.0000
# 6 0.0000 0.0000 0.0000 0.0000 0.0000 33.8064
#
#
#
# Elastic Compliance Matrix: (Units=1/GPa)
#
#
# Indices 1 2 3 4 5 6 
#
# 1 0.019339 -0.004912 -0.005393 0.000000 0.000000 0.000000
# 2 -0.004912 0.019339 -0.005393 0.000000 0.000000 0.000000
# 3 -0.005393 -0.005393 0.019190 0.000000 0.000000 0.000000
# 4 0.000000 0.000000 0.000000 0.030907 0.000000 0.000000
# 5 0.000000 0.000000 0.000000 0.000000 0.030907 0.000000
# 6 0.000000 0.000000 0.000000 0.000000 0.000000 0.029580
#
#
# Mechanical properties :
#
#
# Convention : Reuss Voigt Hill
#
# Bulk Modulus (GPa) = 37.77294 37.78814 37.78054
# Shear Modulus (GPa) = 26.38759 27.86187 27.12473
#
# Velocity S-wave (km/s) = 3.86954 3.97616 3.92321
# Velocity P-wave (km/s) = 6.43415 6.52091 6.47767
#
# Compressibility (1/GPa) = 0.02647398
#
# Stress axis : x y z
#
# Youngs Moduli (GPa) = 51.70803 51.70781 52.10921
#
# Poissons Ratio (x) = 0.25401 0.28101
# Poissons Ratio (y) = 0.25401 0.28100
# Poissons Ratio (z) = 0.27885 0.27884
#
# Static dielectric constant tensor:
#      x y z
#    x 3.440310 0.000000 0.000000 
#    y 0.000000 3.440310 0.000000 
#    z 0.000000 0.000000 3.449280 
# 
# 
# High freq. dielectric constant tensor:
#      x y z
#    x 1.672720 0.000000 0.000000 
#    y 0.000000 1.672720 0.000000 
#    z 0.000000 0.000000 1.678820 
# 
# From -- ./inp_files/3109.got.cif
#   From: 2010.03.12/outbox.cif.g09.slc.cpg/sg92_2_cif.got.tgz:3109.got - 2010.04.08 20:41:11.
