data_PCOD8305430
_publ_section_title
;
Structure prediction by ZEFSAII (Michael W. Deem and Ramdas Pophale) SiO2 
 PCOD8305430
Probable space group: P 41 21 2
;
_chemical_formula_sum "Si O2"
_cell_formula_units_Z 52
_cell_length_a 19.868860
_cell_length_b 19.868860
_cell_length_c 5.928591
_cell_angle_alpha 90.000000
_cell_angle_beta 90.000000
_cell_angle_gamma 90.000000
_cell_volume 2340.439341
_symmetry_space_group_name_H-M "P 41 21 2"
_symmetry_group_IT_number 92
_symmetry_cell_setting 'tetragonal'
loop_
_space_group_symop_operation_xyz
x,y,z
1/2-y,1/2+x,1/4+z
-x,-y,1/2+z
1/2+y,1/2-x,3/4+z
1/2+x,1/2-y,3/4-z
1/2-x,1/2+y,1/4-z
y,x,-z
-y,-x,1/2-z
loop_
_atom_site_type_symbol
_atom_site_label
_atom_site_fract_x
_atom_site_fract_y
_atom_site_fract_z
Si Si1 0.494371 0.190810 0.760320
Si Si2 0.482867 0.681879 0.530825
Si Si3 0.136419 0.136419 0.000000
Si Si4 0.127471 0.872530 0.250000
Si Si5 0.822840 0.177161 0.250000
Si Si6 0.827337 0.636596 0.984129
Si Si7 0.760850 0.910820 0.177519
Si Si8 0.927279 0.438055 0.515102
O O1 0.502369 0.239556 0.974934
O O2 0.415218 0.175623 0.725975
O O3 0.524125 0.230232 0.548641
O O4 0.535187 0.120836 0.784670
O O5 0.437947 0.642449 0.350834
O O6 0.550115 0.639686 0.555074
O O7 0.440707 0.683364 0.760252
O O8 0.199340 0.143293 0.830562
O O9 0.143200 0.838191 0.499786
O O10 0.839594 0.253941 0.308604
O O11 0.865414 0.598898 0.187032
O O12 0.869674 0.702427 0.937465
O O13 0.925702 0.495468 0.326237
#
# Coordination Sequence:
#
# PCOD8305430 Si02
#       8
#     8   8   4   4   4   8   8   8
#     4  11  23  44  69 100 144 192 245 306 369 444
#     4  11  24  49  73 104 144 189 244 308 387 449
#     4  10  26  45  74 105 142 185 238 319 380 468
#     4  12  28  53  79 110 148 200 253 319 378 472
#     4  12  30  46  75 113 150 193 259 310 382 460
#     4  12  25  43  71 106 145 196 249 312 374 456
#     4  11  24  46  71 105 145 192 243 309 385 456
#     4  12  25  42  68 105 148 199 257 310 375 456
#
# _framework density 22.218050999999999
#
# number of rings (size 3 to 8) (size 9 to 14) (size 15 to 20)
#    0.000    0.615    3.077    4.154    6.462    1.846 
#    2.769    0.000    0.000    0.000    0.000    0.000 
#    0.000    0.000    0.000    0.000    0.000    0.000 
#
# Total GULP energy -644359.964999 kJ/mol
# GULP energy per Si atom -12391.537788 kJ/mol
# Density = 2.216748 g / cm^3
# Si number density = 22.218051 Si / 1000 Ang^3
#
#
#
# Elastic Constant Matrix: (Units=GPa)
#
#
# Indices 1 2 3 4 5 6 
#
# 1 117.4608 54.7475 37.2326 0.0000 0.0000 0.0000
# 2 54.7475 117.4623 37.2326 0.0000 0.0000 0.0000
# 3 37.2326 37.2326 100.6853 0.0000 0.0000 0.0000
# 4 0.0000 0.0000 0.0000 28.9628 0.0000 0.0000
# 5 0.0000 0.0000 0.0000 0.0000 28.9625 0.0000
# 6 0.0000 0.0000 0.0000 0.0000 0.0000 48.6776
#
#
#
# Elastic Compliance Matrix: (Units=1/GPa)
#
#
# Indices 1 2 3 4 5 6 
#
# 1 0.011429 -0.004517 -0.002556 0.000000 0.000000 0.000000
# 2 -0.004517 0.011429 -0.002556 0.000000 0.000000 0.000000
# 3 -0.002556 -0.002556 0.011822 0.000000 0.000000 0.000000
# 4 0.000000 0.000000 0.000000 0.034527 0.000000 0.000000
# 5 0.000000 0.000000 0.000000 0.000000 0.034527 0.000000
# 6 0.000000 0.000000 0.000000 0.000000 0.000000 0.020543
#
#
# Mechanical properties :
#
#
# Convention : Reuss Voigt Hill
#
# Bulk Modulus (GPa) = 64.84058 66.00376 65.42217
# Shear Modulus (GPa) = 33.63019 35.08030 34.35524
#
# Velocity S-wave (km/s) = 3.89478 3.97786 3.93654
# Velocity P-wave (km/s) = 7.03369 7.13229 7.08316
#
# Compressibility (1/GPa) = 0.01542244
#
# Stress axis : x y z
#
# Youngs Moduli (GPa) = 87.49772 87.49901 84.58555
#
# Poissons Ratio (x) = 0.39520 0.21621
# Poissons Ratio (y) = 0.39519 0.21620
# Poissons Ratio (z) = 0.22365 0.22365
#
# Static dielectric constant tensor:
#      x y z
#    x 4.193920 0.000000 0.000000 
#    y 0.000000 4.193880 0.000000 
#    z 0.000000 0.000000 4.229000 
# 
# 
# High freq. dielectric constant tensor:
#      x y z
#    x 1.883220 0.000000 0.000000 
#    y 0.000000 1.883220 0.000000 
#    z 0.000000 0.000000 1.876410 
# 
# From -- ./inp_files/756.got.cif
#   From: 2010.03.12/outbox.cif.g09.slc.cpg/sg92_1_cif.got.tgz:756.got - 2010.04.08 20:41:11.
