data_PCOD8305522
_publ_section_title
;
Structure prediction by ZEFSAII (Michael W. Deem and Ramdas Pophale) SiO2 
 PCOD8305522
Probable space group: P 42 2 2
;
_chemical_formula_sum "Si O2"
_cell_formula_units_Z 48
_cell_length_a 14.343834
_cell_length_b 14.343834
_cell_length_c 12.815351
_cell_angle_alpha 90.000000
_cell_angle_beta 90.000000
_cell_angle_gamma 90.000000
_cell_volume 2636.701745
_symmetry_space_group_name_H-M "P 42 2 2"
_symmetry_group_IT_number 93
_symmetry_cell_setting 'tetragonal'
loop_
_space_group_symop_operation_xyz
x,y,z
-y,x,1/2+z
-x,-y,z
y,-x,1/2+z
x,-y,-z
-x,y,-z
y,x,1/2-z
-y,-x,1/2-z
loop_
_atom_site_type_symbol
_atom_site_label
_atom_site_fract_x
_atom_site_fract_y
_atom_site_fract_z
Si Si1 0.790608 0.597066 0.455319
Si Si2 0.263583 0.914090 0.077611
Si Si3 0.781653 0.897550 0.527307
Si Si4 0.867189 0.549429 0.238557
Si Si5 0.236739 0.701445 0.857628
Si Si6 0.356249 0.059678 0.709048
O O1 0.749350 0.500000 0.500000
O O2 0.848438 0.651193 0.543043
O O3 0.860311 0.574604 0.360497
O O4 0.706258 0.664094 0.417736
O O5 0.164466 0.861889 0.079761
O O6 0.284388 0.946090 0.194981
O O7 0.254870 0.000000 0.000000
O O8 0.746498 0.846955 0.422904
O O9 0.695437 0.908604 0.605286
O O10 0.821965 0.000000 0.500000
O O11 0.782605 0.593251 0.170699
O O12 0.864691 0.438191 0.226912
O O13 0.960277 0.595758 0.193028
O O14 0.239873 0.760128 0.750000
#
# Coordination Sequence:
#
# PCOD8305522 Si02
#       6
#     8   8   8   8   8   8
#     4  10  18  33  59  85 115 146 194 244 294 342
#     4  11  22  36  57  80 113 154 197 251 291 338
#     4  11  23  38  54  76 117 154 198 240 291 361
#     4  10  19  33  57  85 118 148 182 242 306 365
#     4   9  20  37  55  82 116 155 187 233 300 362
#     4  11  21  34  55  87 115 144 194 247 302 350
#
# _framework density 18.204561999999999
#
# number of rings (size 3 to 8) (size 9 to 14) (size 15 to 20)
#    0.000    1.667    5.000    0.500    0.000    1.333 
#    0.000    0.000    0.000    2.000    0.000    9.333 
#    0.000    0.000    0.000    0.000    0.000    0.000 
#
# Total GULP energy -595112.661067 kJ/mol
# GULP energy per Si atom -12398.180439 kJ/mol
# Density = 1.816313 g / cm^3
# Si number density = 18.204562 Si / 1000 Ang^3
#
#
#
# Elastic Constant Matrix: (Units=GPa)
#
#
# Indices 1 2 3 4 5 6 
#
# 1 103.2540 46.8545 36.1849 0.0000 0.0000 0.0000
# 2 46.8545 103.2538 36.1851 0.0000 0.0000 0.0000
# 3 36.1849 36.1851 85.1118 0.0000 0.0000 0.0000
# 4 0.0000 0.0000 0.0000 25.3142 0.0000 0.0000
# 5 0.0000 0.0000 0.0000 0.0000 25.3141 0.0000
# 6 0.0000 0.0000 0.0000 0.0000 0.0000 26.1204
#
#
#
# Elastic Compliance Matrix: (Units=1/GPa)
#
#
# Indices 1 2 3 4 5 6 
#
# 1 0.013055 -0.004676 -0.003562 0.000000 0.000000 0.000000
# 2 -0.004676 0.013055 -0.003562 0.000000 0.000000 0.000000
# 3 -0.003562 -0.003562 0.014778 0.000000 0.000000 0.000000
# 4 0.000000 0.000000 0.000000 0.039504 0.000000 0.000000
# 5 0.000000 0.000000 0.000000 0.000000 0.039504 0.000000
# 6 0.000000 0.000000 0.000000 0.000000 0.000000 0.038284
#
#
# Mechanical properties :
#
#
# Convention : Reuss Voigt Hill
#
# Bulk Modulus (GPa) = 57.84595 58.89651 58.37123
# Shear Modulus (GPa) = 26.66049 26.84276 26.75163
#
# Velocity S-wave (km/s) = 3.83102 3.84410 3.83757
# Velocity P-wave (km/s) = 7.17032 7.21981 7.19511
#
# Compressibility (1/GPa) = 0.01728729
#
# Stress axis : x y z
#
# Youngs Moduli (GPa) = 76.59904 76.59869 67.66635
#
# Poissons Ratio (x) = 0.35815 0.24106
# Poissons Ratio (y) = 0.35815 0.24106
# Poissons Ratio (z) = 0.27288 0.27288
#
# Static dielectric constant tensor:
#      x y z
#    x 3.412070 0.000000 0.000000 
#    y 0.000000 3.412070 0.000000 
#    z 0.000000 0.000000 3.422790 
# 
# 
# High freq. dielectric constant tensor:
#      x y z
#    x 1.691070 0.000000 0.000000 
#    y 0.000000 1.691070 0.000000 
#    z 0.000000 0.000000 1.716770 
# 
# From -- ./inp_files/3407.got.cif
#   From: 2010.03.12/outbox.cif.g09.slc.cpg/sg93_2_cif.got.tgz:3407.got - 2010.04.08 20:44:19.
