data_PCOD8305099
_publ_section_title
;
Structure prediction by ZEFSAII (Michael W. Deem and Ramdas Pophale) SiO2 
 PCOD8305099
Probable space group: P 41 2 2
;
_chemical_formula_sum "Si O2"
_cell_formula_units_Z 44
_cell_length_a 12.010799
_cell_length_b 12.010799
_cell_length_c 15.423895
_cell_angle_alpha 90.000000
_cell_angle_beta 90.000000
_cell_angle_gamma 90.000000
_cell_volume 2225.040182
_symmetry_space_group_name_H-M "P 41 2 2"
_symmetry_group_IT_number 91
_symmetry_cell_setting 'tetragonal'
loop_
_space_group_symop_operation_xyz
x,y,z
-y,x,1/4+z
-x,-y,1/2+z
y,-x,3/4+z
x,-y,1/2-z
-x,y,-z
y,x,3/4-z
-y,-x,1/4-z
loop_
_atom_site_type_symbol
_atom_site_label
_atom_site_fract_x
_atom_site_fract_y
_atom_site_fract_z
Si Si1 0.882901 0.729867 0.316378
Si Si2 0.945661 0.094005 0.817492
Si Si3 0.222282 0.758881 0.409748
Si Si4 0.455074 0.544927 0.125000
Si Si5 0.883286 0.574229 0.470668
Si Si6 0.591720 0.322707 0.795446
O O1 0.811607 0.811607 0.375000
O O2 0.808978 0.693838 0.232713
O O3 0.908920 0.623128 0.375180
O O4 0.994348 0.793476 0.281153
O O5 0.846763 0.134601 0.878304
O O6 0.902304 0.000000 0.750000
O O7 0.038234 0.038234 0.875000
O O8 0.145795 0.665659 0.455681
O O9 0.285590 0.714065 0.324961
O O10 0.588326 0.556392 0.118566
O O11 0.405025 0.612864 0.204999
O O12 0.783919 0.486850 0.461873
O O13 0.000000 0.516962 0.500000
#
# Coordination Sequence:
#
# PCOD8305099 Si02
#       6
#     8   8   8   4   8   8
#     4   9  20  32  58  93 128 164 212 261 316 384
#     4  11  20  36  60  90 128 175 217 259 322 401
#     4  11  22  40  63  95 130 173 216 272 331 398
#     4  10  24  46  70  98 128 178 224 290 340 404
#     4  11  22  40  66  98 134 167 211 281 342 396
#     4  11  24  43  71  97 129 170 231 279 344 405
#
# _framework density 19.774923000000001
#
# number of rings (size 3 to 8) (size 9 to 14) (size 15 to 20)
#    0.000    1.455    5.455    0.000    3.818    1.455 
#    1.636    1.818    4.000    0.000    0.000    0.000 
#    0.000    0.000    0.000    0.000    0.000    0.000 
#
# Total GULP energy -545086.897394 kJ/mol
# GULP energy per Si atom -12388.338577 kJ/mol
# Density = 1.972991 g / cm^3
# Si number density = 19.774923 Si / 1000 Ang^3
#
#
#
# Elastic Constant Matrix: (Units=GPa)
#
#
# Indices 1 2 3 4 5 6 
#
# 1 120.9678 14.2636 40.5985 0.0000 0.0000 0.0000
# 2 14.2636 120.9684 40.5990 0.0000 0.0000 0.0000
# 3 40.5985 40.5990 89.6420 0.0000 0.0000 0.0000
# 4 0.0000 0.0000 0.0000 34.5384 0.0000 0.0000
# 5 0.0000 0.0000 0.0000 0.0000 34.5385 0.0000
# 6 0.0000 0.0000 0.0000 0.0000 0.0000 35.6786
#
#
#
# Elastic Compliance Matrix: (Units=1/GPa)
#
#
# Indices 1 2 3 4 5 6 
#
# 1 0.009764 0.000392 -0.004600 0.000000 0.000000 0.000000
# 2 0.000392 0.009764 -0.004600 0.000000 0.000000 0.000000
# 3 -0.004600 -0.004600 0.015322 0.000000 0.000000 0.000000
# 4 0.000000 0.000000 0.000000 0.028953 0.000000 0.000000
# 5 0.000000 0.000000 0.000000 0.000000 0.028953 0.000000
# 6 0.000000 0.000000 0.000000 0.000000 0.000000 0.028028
#
#
# Mechanical properties :
#
#
# Convention : Reuss Voigt Hill
#
# Bulk Modulus (GPa) = 58.01920 58.05559 58.03740
# Shear Modulus (GPa) = 34.68730 36.69224 35.68977
#
# Velocity S-wave (km/s) = 4.19275 4.31222 4.25290
# Velocity P-wave (km/s) = 7.26927 7.36312 7.31635
#
# Compressibility (1/GPa) = 0.01723567
#
# Stress axis : x y z
#
# Youngs Moduli (GPa) = 102.41520 102.41522 65.26516
#
# Poissons Ratio (x) = -0.04020 0.30021
# Poissons Ratio (y) = -0.04020 0.30022
# Poissons Ratio (z) = 0.47110 0.47111
#
# Static dielectric constant tensor:
#      x y z
#    x 3.448610 0.000000 0.000000 
#    y 0.000000 3.448610 0.000000 
#    z 0.000000 0.000000 3.761860 
# 
# 
# High freq. dielectric constant tensor:
#      x y z
#    x 1.758490 0.000000 0.000000 
#    y 0.000000 1.758490 0.000000 
#    z 0.000000 0.000000 1.770350 
# 
# From -- ./inp_files/16828.got.cif
#   From: 2010.03.12/outbox.cif.g09.slc.cpg/sg91_9_cif.got.tgz:16828.got - 2010.04.08 20:27:58.
