data_PCOD8305092
_publ_section_title
;
Structure prediction by ZEFSAII (Michael W. Deem and Ramdas Pophale) SiO2 
 PCOD8305092
Probable space group: P 41 2 2
;
_chemical_formula_sum "Si O2"
_cell_formula_units_Z 48
_cell_length_a 8.683766
_cell_length_b 8.683766
_cell_length_c 27.834705
_cell_angle_alpha 90.000000
_cell_angle_beta 90.000000
_cell_angle_gamma 90.000000
_cell_volume 2098.953643
_symmetry_space_group_name_H-M "P 41 2 2"
_symmetry_group_IT_number 91
_symmetry_cell_setting 'tetragonal'
loop_
_space_group_symop_operation_xyz
x,y,z
-y,x,1/4+z
-x,-y,1/2+z
y,-x,3/4+z
x,-y,1/2-z
-x,y,-z
y,x,3/4-z
-y,-x,1/4-z
loop_
_atom_site_type_symbol
_atom_site_label
_atom_site_fract_x
_atom_site_fract_y
_atom_site_fract_z
Si Si1 0.480080 0.992152 0.139698
Si Si2 0.684699 0.315302 0.625000
Si Si3 0.862224 0.790167 0.578972
Si Si4 0.176958 0.767026 0.932139
Si Si5 0.533973 0.437375 0.446150
Si Si6 0.516572 0.220822 0.945553
Si Si7 0.000000 0.982255 0.000000
O O1 0.361197 0.863186 0.119362
O O2 0.630668 0.951821 0.169477
O O3 0.386290 0.075510 0.181777
O O4 0.535064 0.094594 0.093753
O O5 0.588391 0.372311 0.670460
O O6 0.860858 0.857538 0.633117
O O7 0.694500 0.743856 0.561469
O O8 0.935945 0.913437 0.542857
O O9 0.349407 0.697537 0.929507
O O10 0.136093 0.873676 0.978114
O O11 0.500000 0.403968 0.500000
O O12 0.580209 0.618391 0.437857
O O13 0.500000 0.157329 0.000000
#
# Coordination Sequence:
#
# PCOD8305092 Si02
#       7
#     8   4   8   8   8   8   4
#     4  11  25  43  76 102 152 191 253 304 387 436
#     4  12  22  44  72 104 142 190 244 310 354 452
#     4  11  25  49  68 110 145 198 245 313 376 454
#     4  11  27  49  71 111 145 198 247 312 377 457
#     4  11  24  46  75 106 148 187 254 310 376 445
#     4  10  24  44  74 110 144 194 252 311 371 452
#     4  12  30  46  74 100 166 194 252 300 392 462
#
# _framework density 22.868539999999999
#
# number of rings (size 3 to 8) (size 9 to 14) (size 15 to 20)
#    0.000    1.000    3.333    1.500    9.333    4.000 
#    3.000    0.000    0.000    0.000    0.000    0.000 
#    0.000    0.000    0.000    0.000    0.000    0.000 
#
# Total GULP energy -594711.357022 kJ/mol
# GULP energy per Si atom -12389.819938 kJ/mol
# Density = 2.281649 g / cm^3
# Si number density = 22.868540 Si / 1000 Ang^3
#
#
#
# Elastic Constant Matrix: (Units=GPa)
#
#
# Indices 1 2 3 4 5 6 
#
# 1 91.2552 32.6491 38.9318 0.0000 0.0000 0.0000
# 2 32.6491 91.2550 38.9318 0.0000 0.0000 0.0000
# 3 38.9318 38.9318 127.4895 0.0000 0.0000 0.0000
# 4 0.0000 0.0000 0.0000 39.0913 0.0000 0.0000
# 5 0.0000 0.0000 0.0000 0.0000 39.0917 0.0000
# 6 0.0000 0.0000 0.0000 0.0000 0.0000 9.2732
#
#
#
# Elastic Compliance Matrix: (Units=1/GPa)
#
#
# Indices 1 2 3 4 5 6 
#
# 1 0.013525 -0.003538 -0.003050 0.000000 0.000000 0.000000
# 2 -0.003538 0.013525 -0.003050 0.000000 0.000000 0.000000
# 3 -0.003050 -0.003050 0.009706 0.000000 0.000000 0.000000
# 4 0.000000 0.000000 0.000000 0.025581 0.000000 0.000000
# 5 0.000000 0.000000 0.000000 0.000000 0.025581 0.000000
# 6 0.000000 0.000000 0.000000 0.000000 0.000000 0.107838
#
#
# Mechanical properties :
#
#
# Convention : Reuss Voigt Hill
#
# Bulk Modulus (GPa) = 57.20264 59.00278 58.10271
# Shear Modulus (GPa) = 22.63885 30.79038 26.71462
#
# Velocity S-wave (km/s) = 3.14977 3.67332 3.42158
# Velocity P-wave (km/s) = 6.18838 6.62178 6.40874
#
# Compressibility (1/GPa) = 0.01748171
#
# Stress axis : x y z
#
# Youngs Moduli (GPa) = 73.93606 73.93585 103.02412
#
# Poissons Ratio (x) = 0.26158 0.31421
# Poissons Ratio (y) = 0.26158 0.31421
# Poissons Ratio (z) = 0.22549 0.22549
#
# Static dielectric constant tensor:
#      x y z
#    x 3.990160 0.000000 0.000000 
#    y 0.000000 3.990170 0.000000 
#    z 0.000000 0.000000 4.611910 
# 
# 
# High freq. dielectric constant tensor:
#      x y z
#    x 1.904750 0.000000 0.000000 
#    y 0.000000 1.904750 0.000000 
#    z 0.000000 0.000000 1.910460 
# 
# From -- ./inp_files/22306.got.cif
#   From: 2010.03.12/outbox.cif.g09.slc.cpg/sg91_12_cif.got.tgz:22306.got - 2010.04.08 20:27:58.
