data_PCOD8305939
_publ_section_title
;
Structure prediction by ZEFSAII (Michael W. Deem and Ramdas Pophale) SiO2 
 PCOD8305939
Probable space group: P 43 21 2
;
_chemical_formula_sum "Si O2"
_cell_formula_units_Z 48
_cell_length_a 11.620019
_cell_length_b 11.620019
_cell_length_c 18.178960
_cell_angle_alpha 90.000000
_cell_angle_beta 90.000000
_cell_angle_gamma 90.000000
_cell_volume 2454.611194
_symmetry_space_group_name_H-M "P 43 21 2"
_symmetry_group_IT_number 96
_symmetry_cell_setting 'tetragonal'
loop_
_space_group_symop_operation_xyz
x,y,z
1/2-y,1/2+x,3/4+z
-x,-y,1/2+z
1/2+y,1/2-x,1/4+z
1/2+x,1/2-y,1/4-z
1/2-x,1/2+y,3/4-z
y,x,-z
-y,-x,1/2-z
loop_
_atom_site_type_symbol
_atom_site_label
_atom_site_fract_x
_atom_site_fract_y
_atom_site_fract_z
Si Si1 0.235085 0.529051 0.687250
Si Si2 0.764283 0.890102 0.410353
Si Si3 0.851276 0.968516 0.259670
Si Si4 0.290690 0.453084 0.535846
Si Si5 0.648048 0.999072 0.160910
Si Si6 0.959183 0.517614 0.976968
O O1 0.274942 0.657049 0.661401
O O2 0.285408 0.520300 0.770779
O O3 0.291555 0.443726 0.625782
O O4 0.097949 0.507700 0.687156
O O5 0.782771 0.963796 0.336721
O O6 0.636035 0.843691 0.416664
O O7 0.949765 0.874321 0.254970
O O8 0.765246 0.944672 0.191970
O O9 0.905072 0.094929 0.250000
O O10 0.331641 0.331641 0.500000
O O11 0.167508 0.496498 0.508888
O O12 0.542043 0.948483 0.206928
O O13 0.626144 0.959154 0.077917
#
# Coordination Sequence:
#
# PCOD8305939 Si02
#       6
#     8   8   8   8   8   8
#     4   9  19  35  58  87 112 157 196 242 298 356
#     4   9  19  34  58  89 121 145 191 245 310 356
#     4  10  22  39  60  87 121 152 191 247 311 356
#     4  10  22  41  59  81 120 167 201 241 291 355
#     4  11  21  35  56  90 118 150 188 248 298 360
#     4  11  21  37  59  85 116 153 203 238 292 353
#
# _framework density 19.555033000000002
#
# number of rings (size 3 to 8) (size 9 to 14) (size 15 to 20)
#    0.000    2.000    3.333    0.000    4.667    1.333 
#    3.000    1.667    0.000    2.000    0.000    0.000 
#    0.000    0.000    0.000    0.000    0.000    0.000 
#
# Total GULP energy -594800.475070 kJ/mol
# GULP energy per Si atom -12391.676564 kJ/mol
# Density = 1.951052 g / cm^3
# Si number density = 19.555033 Si / 1000 Ang^3
#
#
#
# Elastic Constant Matrix: (Units=GPa)
#
#
# Indices 1 2 3 4 5 6 
#
# 1 61.2703 23.8976 25.0552 0.0000 0.0000 0.0000
# 2 23.8976 61.2692 25.0535 0.0000 0.0000 0.0000
# 3 25.0552 25.0535 74.8144 0.0000 0.0000 0.0000
# 4 0.0000 0.0000 0.0000 30.0487 0.0000 0.0000
# 5 0.0000 0.0000 0.0000 0.0000 30.0490 0.0000
# 6 0.0000 0.0000 0.0000 0.0000 0.0000 21.9927
#
#
#
# Elastic Compliance Matrix: (Units=1/GPa)
#
#
# Indices 1 2 3 4 5 6 
#
# 1 0.020690 -0.006068 -0.004897 0.000000 0.000000 0.000000
# 2 -0.006068 0.020690 -0.004897 0.000000 0.000000 0.000000
# 3 -0.004897 -0.004897 0.016646 0.000000 0.000000 0.000000
# 4 0.000000 0.000000 0.000000 0.033279 0.000000 0.000000
# 5 0.000000 0.000000 0.000000 0.000000 0.033279 0.000000
# 6 0.000000 0.000000 0.000000 0.000000 0.000000 0.045470
#
#
# Mechanical properties :
#
#
# Convention : Reuss Voigt Hill
#
# Bulk Modulus (GPa) = 38.01717 38.37406 38.19561
# Shear Modulus (GPa) = 23.74780 24.64125 24.19452
#
# Velocity S-wave (km/s) = 3.48862 3.55364 3.52128
# Velocity P-wave (km/s) = 5.97583 6.04185 6.00893
#
# Compressibility (1/GPa) = 0.02630391
#
# Stress axis : x y z
#
# Youngs Moduli (GPa) = 48.33178 48.33183 60.07356
#
# Poissons Ratio (x) = 0.29326 0.29420
# Poissons Ratio (y) = 0.29326 0.29416
# Poissons Ratio (z) = 0.23669 0.23666
#
# Static dielectric constant tensor:
#      x y z
#    x 3.433500 0.000000 0.000000 
#    y 0.000000 3.433500 0.000000 
#    z 0.000000 0.000000 3.908170 
# 
# 
# High freq. dielectric constant tensor:
#      x y z
#    x 1.742950 0.000000 0.000000 
#    y 0.000000 1.742950 0.000000 
#    z 0.000000 0.000000 1.775930 
# 
# From -- ./inp_files/3148.got.cif
#   From: 2010.03.12/outbox.cif.g09.slc.cpg/sg96_2_cif.got.tgz:3148.got - 2010.04.08 20:56:49.
