data_PCOD8305735
_publ_section_title
;
Structure prediction by ZEFSAII (Michael W. Deem and Ramdas Pophale) SiO2 
 PCOD8305735
Probable space group: P 42 21 2
;
_chemical_formula_sum "Si O2"
_cell_formula_units_Z 40
_cell_length_a 8.865285
_cell_length_b 8.865285
_cell_length_c 23.299615
_cell_angle_alpha 90.000000
_cell_angle_beta 90.000000
_cell_angle_gamma 90.000000
_cell_volume 1831.193122
_symmetry_space_group_name_H-M "P 42 21 2"
_symmetry_group_IT_number 94
_symmetry_cell_setting 'tetragonal'
loop_
_space_group_symop_operation_xyz
x,y,z
1/2-y,1/2+x,1/2+z
-x,-y,z
1/2+y,1/2-x,1/2+z
1/2+x,1/2-y,1/2-z
1/2-x,1/2+y,1/2-z
y,x,-z
-y,-x,-z
loop_
_atom_site_type_symbol
_atom_site_label
_atom_site_fract_x
_atom_site_fract_y
_atom_site_fract_z
Si Si1 0.894642 0.136253 0.647235
Si Si2 0.179094 0.293166 0.679469
Si Si3 0.975480 0.671240 0.268187
Si Si4 0.170844 0.837913 0.065357
Si Si5 0.684589 0.322007 0.435358
O O1 0.772120 0.073169 0.689735
O O2 0.805301 0.227231 0.598966
O O3 0.002320 0.251497 0.682294
O O4 0.000000 0.000000 0.622265
O O5 0.196154 0.464966 0.702403
O O6 0.231667 0.258603 0.614245
O O7 0.275807 0.196465 0.725546
O O8 0.000000 0.500000 0.287731
O O9 0.993409 0.822119 0.074796
O O10 0.235464 0.005665 0.077324
O O11 0.212913 0.787088 0.000000
O O12 0.721480 0.278521 0.500000
#
# Coordination Sequence:
#
# PCOD8305735 Si02
#       5
#     8   8   8   8   8
#     4  10  23  41  60  94 132 167 217 269 334 390
#     4  11  24  41  65  97 132 167 218 271 328 395
#     4  11  24  42  63  91 130 172 217 264 324 391
#     4   9  20  40  67  93 123 169 222 272 322 394
#     4   9  19  39  65  92 122 168 220 263 322 394
#
# _framework density 21.843684
#
# number of rings (size 3 to 8) (size 9 to 14) (size 15 to 20)
#    0.000    2.000    0.000    3.600    5.600    0.400 
#   14.400    0.000    0.000    0.000    0.000    0.000 
#    0.000    0.000    0.000    0.000    0.000    0.000 
#
# Total GULP energy -495677.723195 kJ/mol
# GULP energy per Si atom -12391.943080 kJ/mol
# Density = 2.179397 g / cm^3
# Si number density = 21.843684 Si / 1000 Ang^3
#
#
#
# Elastic Constant Matrix: (Units=GPa)
#
#
# Indices 1 2 3 4 5 6 
#
# 1 96.2911 33.8672 48.5918 0.0000 0.0000 0.0000
# 2 33.8672 96.2914 48.5919 0.0000 0.0000 0.0000
# 3 48.5918 48.5919 101.8837 0.0000 0.0000 0.0000
# 4 0.0000 0.0000 0.0000 34.3162 0.0000 0.0000
# 5 0.0000 0.0000 0.0000 0.0000 34.3160 0.0000
# 6 0.0000 0.0000 0.0000 0.0000 0.0000 37.6752
#
#
#
# Elastic Compliance Matrix: (Units=1/GPa)
#
#
# Indices 1 2 3 4 5 6 
#
# 1 0.013976 -0.002044 -0.005691 0.000000 0.000000 0.000000
# 2 -0.002044 0.013976 -0.005691 0.000000 0.000000 0.000000
# 3 -0.005691 -0.005691 0.015243 0.000000 0.000000 0.000000
# 4 0.000000 0.000000 0.000000 0.029141 0.000000 0.000000
# 5 0.000000 0.000000 0.000000 0.000000 0.029141 0.000000
# 6 0.000000 0.000000 0.000000 0.000000 0.000000 0.026543
#
#
# Mechanical properties :
#
#
# Convention : Reuss Voigt Hill
#
# Bulk Modulus (GPa) = 61.18359 61.84089 61.51224
# Shear Modulus (GPa) = 31.18804 32.15584 31.67194
#
# Velocity S-wave (km/s) = 3.78270 3.84094 3.81193
# Velocity P-wave (km/s) = 6.86651 6.93127 6.89897
#
# Compressibility (1/GPa) = 0.01634425
#
# Stress axis : x y z
#
# Youngs Moduli (GPa) = 71.55244 71.55265 65.60227
#
# Poissons Ratio (x) = 0.14623 0.37333
# Poissons Ratio (y) = 0.14623 0.37333
# Poissons Ratio (z) = 0.40719 0.40719
#
# Static dielectric constant tensor:
#      x y z
#    x 4.162690 0.000000 0.000000 
#    y 0.000000 4.162700 0.000000 
#    z 0.000000 0.000000 4.006830 
# 
# 
# High freq. dielectric constant tensor:
#      x y z
#    x 1.861740 0.000000 0.000000 
#    y 0.000000 1.861740 0.000000 
#    z 0.000000 0.000000 1.853880 
# 
# From -- ./inp_files/4932.got.cif
#   From: 2010.03.12/outbox.cif.g09.slc.cpg/sg94_3_cif.got.tgz:4932.got - 2010.04.08 20:48:32.
