data_PCOD8305442
_publ_section_title
;
Structure prediction by ZEFSAII (Michael W. Deem and Ramdas Pophale) SiO2 
 PCOD8305442
Probable space group: P 41 21 2
;
_chemical_formula_sum "Si O2"
_cell_formula_units_Z 32
_cell_length_a 9.086395
_cell_length_b 9.086395
_cell_length_c 16.723905
_cell_angle_alpha 90.000000
_cell_angle_beta 90.000000
_cell_angle_gamma 90.000000
_cell_volume 1380.768646
_symmetry_space_group_name_H-M "P 41 21 2"
_symmetry_group_IT_number 92
_symmetry_cell_setting 'tetragonal'
loop_
_space_group_symop_operation_xyz
x,y,z
1/2-y,1/2+x,1/4+z
-x,-y,1/2+z
1/2+y,1/2-x,3/4+z
1/2+x,1/2-y,3/4-z
1/2-x,1/2+y,1/4-z
y,x,-z
-y,-x,1/2-z
loop_
_atom_site_type_symbol
_atom_site_label
_atom_site_fract_x
_atom_site_fract_y
_atom_site_fract_z
Si Si1 0.277244 0.877376 0.074306
Si Si2 0.349622 0.554717 0.035192
Si Si3 0.601969 0.975656 0.842569
Si Si4 0.492075 0.270315 0.253279
O O1 0.351467 0.713874 0.079289
O O2 0.199301 0.920297 0.157326
O O3 0.149234 0.877410 0.006361
O O4 0.397380 0.000577 0.053642
O O5 0.511360 0.511360 0.000000
O O6 0.243866 0.557484 0.959605
O O7 0.511159 0.820824 0.836697
O O8 0.647418 0.017365 0.932218
O O9 0.643074 0.356927 0.250000
#
# Coordination Sequence:
#
# PCOD8305442 Si02
#       4
#     8   8   8   8
#     4  11  22  42  70 100 130 187 227 284 340 417
#     4  11  21  41  69 101 140 177 234 283 344 410
#     4  11  23  46  67 101 141 177 235 285 337 417
#     4  11  26  46  69 103 140 183 226 290 354 409
#
# _framework density 23.175495999999999
#
# number of rings (size 3 to 8) (size 9 to 14) (size 15 to 20)
#    0.000    1.000    7.500    0.000    0.000    8.000 
#    4.500    0.000    0.000    0.000    0.000    0.000 
#    0.000    0.000    0.000    0.000    0.000    0.000 
#
# Total GULP energy -396553.854417 kJ/mol
# GULP energy per Si atom -12392.307951 kJ/mol
# Density = 2.312275 g / cm^3
# Si number density = 23.175496 Si / 1000 Ang^3
#
#
#
# Elastic Constant Matrix: (Units=GPa)
#
#
# Indices 1 2 3 4 5 6 
#
# 1 91.5341 51.9479 7.0119 0.0000 0.0000 0.0000
# 2 51.9479 91.5380 7.0124 0.0000 0.0000 0.0000
# 3 7.0119 7.0124 26.5572 0.0000 0.0000 0.0000
# 4 0.0000 0.0000 0.0000 29.5705 0.0000 0.0000
# 5 0.0000 0.0000 0.0000 0.0000 29.5701 0.0000
# 6 0.0000 0.0000 0.0000 0.0000 0.0000 46.5352
#
#
#
# Elastic Compliance Matrix: (Units=1/GPa)
#
#
# Indices 1 2 3 4 5 6 
#
# 1 0.016207 -0.009053 -0.001889 0.000000 0.000000 0.000000
# 2 -0.009053 0.016207 -0.001889 0.000000 0.000000 0.000000
# 3 -0.001889 -0.001889 0.038652 0.000000 0.000000 0.000000
# 4 0.000000 0.000000 0.000000 0.033818 0.000000 0.000000
# 5 0.000000 0.000000 0.000000 0.000000 0.033818 0.000000
# 6 0.000000 0.000000 0.000000 0.000000 0.000000 0.021489
#
#
# Mechanical properties :
#
#
# Convention : Reuss Voigt Hill
#
# Bulk Modulus (GPa) = 22.02433 37.95264 29.98848
# Shear Modulus (GPa) = 24.87720 30.71231 27.79476
#
# Velocity S-wave (km/s) = 3.27987 3.64429 3.46687
# Velocity P-wave (km/s) = 4.88542 5.84119 5.38455
#
# Compressibility (1/GPa) = 0.04540434
#
# Stress axis : x y z
#
# Youngs Moduli (GPa) = 61.70034 61.70282 25.87185
#
# Poissons Ratio (x) = 0.55860 0.04887
# Poissons Ratio (y) = 0.55857 0.04888
# Poissons Ratio (z) = 0.11654 0.11657
#
# Static dielectric constant tensor:
#      x y z
#    x 4.405120 0.000000 0.000000 
#    y 0.000000 4.405120 0.000000 
#    z 0.000000 0.000000 4.012440 
# 
# 
# High freq. dielectric constant tensor:
#      x y z
#    x 1.922800 0.000000 0.000000 
#    y 0.000000 1.922800 0.000000 
#    z 0.000000 0.000000 1.890340 
# 
# From -- ./inp_files/3366.got.cif
#   From: 2010.03.12/outbox.cif.g09.slc.cpg/sg92_2_cif.got.tgz:3366.got - 2010.04.08 20:41:11.
