data_PCOD8305992
_publ_section_title
;
Structure prediction by ZEFSAII (Michael W. Deem and Ramdas Pophale) SiO2 
 PCOD8305992
Probable space group: P 43 21 2
;
_chemical_formula_sum "Si O2"
_cell_formula_units_Z 60
_cell_length_a 10.580044
_cell_length_b 10.580044
_cell_length_c 24.376992
_cell_angle_alpha 90.000000
_cell_angle_beta 90.000000
_cell_angle_gamma 90.000000
_cell_volume 2728.695423
_symmetry_space_group_name_H-M "P 43 21 2"
_symmetry_group_IT_number 96
_symmetry_cell_setting 'tetragonal'
loop_
_space_group_symop_operation_xyz
x,y,z
1/2-y,1/2+x,3/4+z
-x,-y,1/2+z
1/2+y,1/2-x,1/4+z
1/2+x,1/2-y,1/4-z
1/2-x,1/2+y,3/4-z
y,x,-z
-y,-x,1/2-z
loop_
_atom_site_type_symbol
_atom_site_label
_atom_site_fract_x
_atom_site_fract_y
_atom_site_fract_z
Si Si1 0.103309 0.788407 0.966573
Si Si2 0.240467 0.814807 0.142223
Si Si3 0.182745 0.182745 0.500000
Si Si4 0.371586 0.899486 0.633059
Si Si5 0.555693 0.927881 0.814348
Si Si6 0.111434 0.260508 0.302353
Si Si7 0.257114 0.546934 0.772324
Si Si8 0.163148 0.984657 0.294454
O O1 0.136581 0.750005 0.903879
O O2 0.954708 0.792791 0.975663
O O3 0.155915 0.924535 0.981298
O O4 0.169186 0.684501 0.004532
O O5 0.299333 0.784426 0.201574
O O6 0.322074 0.919607 0.110970
O O7 0.238192 0.686449 0.108802
O O8 0.093244 0.860090 0.148606
O O9 0.432202 0.778449 0.663378
O O10 0.466385 0.969752 0.591986
O O11 0.329644 0.980880 0.685854
O O12 0.477674 0.866552 0.764762
O O13 0.686023 0.986578 0.790231
O O14 0.085166 0.113455 0.288122
O O15 0.331734 0.668267 0.750000
O O16 0.114794 0.885207 0.250000
#
# Coordination Sequence:
#
# PCOD8305992 Si02
#       8
#     8   8   4   8   8   8   8   8
#     4  12  25  46  72 102 140 189 236 294 362 428
#     4  11  22  39  72 109 142 173 235 293 363 417
#     4  12  22  40  76 106 138 176 238 306 354 430
#     4  12  27  47  75 100 140 191 242 290 366 425
#     4  11  25  47  73 105 144 187 233 303 362 435
#     4  11  24  45  65 105 142 177 236 293 353 422
#     4  12  29  50  70 104 144 191 245 294 360 434
#     4  11  23  40  69 108 139 177 227 290 359 420
#
# _framework density 21.988530000000001
#
# number of rings (size 3 to 8) (size 9 to 14) (size 15 to 20)
#    0.000    0.533    6.667    1.600    5.600    1.600 
#    2.400    0.000    0.000    0.000    0.000    0.000 
#    0.000    0.000    0.000    0.000    0.000    0.000 
#
# Total GULP energy -743831.521719 kJ/mol
# GULP energy per Si atom -12397.192029 kJ/mol
# Density = 2.193848 g / cm^3
# Si number density = 21.988530 Si / 1000 Ang^3
#
#
#
# Elastic Constant Matrix: (Units=GPa)
#
#
# Indices 1 2 3 4 5 6 
#
# 1 79.1799 38.4668 36.1565 0.0000 0.0000 0.0000
# 2 38.4668 79.1795 36.1560 0.0000 0.0000 0.0000
# 3 36.1565 36.1560 114.1949 0.0000 0.0000 0.0000
# 4 0.0000 0.0000 0.0000 34.6377 0.0000 0.0000
# 5 0.0000 0.0000 0.0000 0.0000 34.6363 0.0000
# 6 0.0000 0.0000 0.0000 0.0000 0.0000 23.2724
#
#
#
# Elastic Compliance Matrix: (Units=1/GPa)
#
#
# Indices 1 2 3 4 5 6 
#
# 1 0.017558 -0.007004 -0.003342 0.000000 0.000000 0.000000
# 2 -0.007004 0.017558 -0.003342 0.000000 0.000000 0.000000
# 3 -0.003342 -0.003342 0.010873 0.000000 0.000000 0.000000
# 4 0.000000 0.000000 0.000000 0.028870 0.000000 0.000000
# 5 0.000000 0.000000 0.000000 0.000000 0.028871 0.000000
# 6 0.000000 0.000000 0.000000 0.000000 0.000000 0.042969
#
#
# Mechanical properties :
#
#
# Convention : Reuss Voigt Hill
#
# Bulk Modulus (GPa) = 53.72132 54.90143 54.31138
# Shear Modulus (GPa) = 27.73465 29.29427 28.51446
#
# Velocity S-wave (km/s) = 3.55536 3.65396 3.60500
# Velocity P-wave (km/s) = 6.42952 6.54403 6.48703
#
# Compressibility (1/GPa) = 0.01861458
#
# Stress axis : x y z
#
# Youngs Moduli (GPa) = 56.95369 56.95366 91.97108
#
# Poissons Ratio (x) = 0.39891 0.30734
# Poissons Ratio (y) = 0.39891 0.30732
# Poissons Ratio (z) = 0.19032 0.19031
#
# Static dielectric constant tensor:
#      x y z
#    x 4.522910 0.000000 0.000000 
#    y 0.000000 4.522870 0.000000 
#    z 0.000000 0.000000 3.889340 
# 
# 
# High freq. dielectric constant tensor:
#      x y z
#    x 1.865350 0.000000 0.000000 
#    y 0.000000 1.865350 0.000000 
#    z 0.000000 0.000000 1.871510 
# 
# From -- ./inp_files/3643.got.cif
#   From: 2010.03.12/outbox.cif.g09.slc.cpg/sg96_2_cif.got.tgz:3643.got - 2010.04.08 20:56:49.
