data_PCOD8305485
_publ_section_title
;
Structure prediction by ZEFSAII (Michael W. Deem and Ramdas Pophale) SiO2 
 PCOD8305485
Probable space group: P 41 21 2
;
_chemical_formula_sum "Si O2"
_cell_formula_units_Z 24
_cell_length_a 9.261261
_cell_length_b 9.261261
_cell_length_c 8.685162
_cell_angle_alpha 90.000000
_cell_angle_beta 90.000000
_cell_angle_gamma 90.000000
_cell_volume 744.934642
_symmetry_space_group_name_H-M "P 41 21 2"
_symmetry_group_IT_number 92
_symmetry_cell_setting 'tetragonal'
loop_
_space_group_symop_operation_xyz
x,y,z
1/2-y,1/2+x,1/4+z
-x,-y,1/2+z
1/2+y,1/2-x,3/4+z
1/2+x,1/2-y,3/4-z
1/2-x,1/2+y,1/4-z
y,x,-z
-y,-x,1/2-z
loop_
_atom_site_type_symbol
_atom_site_label
_atom_site_fract_x
_atom_site_fract_y
_atom_site_fract_z
Si Si1 0.001201 0.269979 0.482499
Si Si2 0.225391 0.935885 0.893528
Si Si3 0.079675 0.217340 0.805991
O O1 0.120726 0.372258 0.406043
O O2 0.912037 0.175433 0.352443
O O3 0.061319 0.172642 0.623788
O O4 0.882709 0.371047 0.564261
O O5 0.205253 0.103654 0.849758
O O6 0.209402 0.939693 0.082620
#
# Coordination Sequence:
#
# PCOD8305485 Si02
#       3
#     8   8   8
#     4  12  31  58  99 137 192 263 323 406 491 593
#     4  11  31  62  94 142 197 256 333 411 489 594
#     4  11  31  58  95 140 197 246 329 404 500 579
#
# _framework density 32.217587000000002
#
# number of rings (size 3 to 8) (size 9 to 14) (size 15 to 20)
#    0.000    0.667    0.000    1.000   18.667   12.000 
#    6.000    0.000    0.000    0.000    0.000    0.000 
#    0.000    0.000    0.000    0.000    0.000    0.000 
#
# Total GULP energy -297534.806163 kJ/mol
# GULP energy per Si atom -12397.283590 kJ/mol
# Density = 3.214426 g / cm^3
# Si number density = 32.217587 Si / 1000 Ang^3
#
#
#
# Elastic Constant Matrix: (Units=GPa)
#
#
# Indices 1 2 3 4 5 6 
#
# 1 212.2789 105.6642 80.4402 0.0000 0.0000 0.0000
# 2 105.6642 212.2789 80.4402 0.0000 0.0000 0.0000
# 3 80.4402 80.4402 225.7730 0.0000 0.0000 0.0000
# 4 0.0000 0.0000 0.0000 56.1355 0.0000 0.0000
# 5 0.0000 0.0000 0.0000 0.0000 56.1355 0.0000
# 6 0.0000 0.0000 0.0000 0.0000 0.0000 54.9117
#
#
#
# Elastic Compliance Matrix: (Units=1/GPa)
#
#
# Indices 1 2 3 4 5 6 
#
# 1 0.006608 -0.002771 -0.001367 0.000000 0.000000 0.000000
# 2 -0.002771 0.006608 -0.001367 0.000000 0.000000 0.000000
# 3 -0.001367 -0.001367 0.005403 0.000000 0.000000 0.000000
# 4 0.000000 0.000000 0.000000 0.017814 0.000000 0.000000
# 5 0.000000 0.000000 0.000000 0.000000 0.017814 0.000000
# 6 0.000000 0.000000 0.000000 0.000000 0.000000 0.018211
#
#
# Mechanical properties :
#
#
# Convention : Reuss Voigt Hill
#
# Bulk Modulus (GPa) = 131.42284 131.49113 131.45698
# Shear Modulus (GPa) = 58.13530 59.02226 58.57878
#
# Velocity S-wave (km/s) = 4.25250 4.28482 4.26869
# Velocity P-wave (km/s) = 8.06179 8.08589 8.07385
#
# Compressibility (1/GPa) = 0.00760903
#
# Stress axis : x y z
#
# Youngs Moduli (GPa) = 151.32566 151.32566 185.06995
#
# Poissons Ratio (x) = 0.41937 0.25300
# Poissons Ratio (y) = 0.41937 0.25300
# Poissons Ratio (z) = 0.20687 0.20687
#
# Static dielectric constant tensor:
#      x y z
#    x 6.100210 0.000000 0.000000 
#    y 0.000000 6.100210 0.000000 
#    z 0.000000 0.000000 8.335040 
# 
# 
# High freq. dielectric constant tensor:
#      x y z
#    x 2.344920 0.000000 0.000000 
#    y 0.000000 2.344920 0.000000 
#    z 0.000000 0.000000 2.409880 
# 
# From -- ./inp_files/988.got.cif
#   From: 2010.03.12/outbox.cif.g09.slc.cpg/sg92_1_cif.got.tgz:988.got - 2010.04.08 20:41:11.
