data_PCOD8305834
_publ_section_title
;
Structure prediction by ZEFSAII (Michael W. Deem and Ramdas Pophale) SiO2 
 PCOD8305834
Probable space group: P 43 2 2
;
_chemical_formula_sum "Si O2"
_cell_formula_units_Z 60
_cell_length_a 12.095809
_cell_length_b 12.095809
_cell_length_c 19.930768
_cell_angle_alpha 90.000000
_cell_angle_beta 90.000000
_cell_angle_gamma 90.000000
_cell_volume 2916.042671
_symmetry_space_group_name_H-M "P 43 2 2"
_symmetry_group_IT_number 95
_symmetry_cell_setting 'tetragonal'
loop_
_space_group_symop_operation_xyz
x,y,z
-y,x,3/4+z
-x,-y,1/2+z
y,-x,1/4+z
x,-y,1/2-z
-x,y,-z
y,x,1/4-z
-y,-x,3/4-z
loop_
_atom_site_type_symbol
_atom_site_label
_atom_site_fract_x
_atom_site_fract_y
_atom_site_fract_z
Si Si1 0.411389 0.758998 0.904698
Si Si2 0.394599 0.197621 0.886674
Si Si3 0.363193 0.436272 0.189518
Si Si4 0.862783 0.137218 0.875000
Si Si5 0.528126 0.020899 0.328115
Si Si6 0.282974 0.062952 0.347328
Si Si7 0.752035 0.342541 0.196389
Si Si8 0.760449 0.755938 0.504947
O O1 0.343788 0.656213 0.875000
O O2 0.417670 0.863627 0.853841
O O3 0.537377 0.723335 0.916452
O O4 0.350880 0.785252 0.975510
O O5 0.504360 0.247607 0.921209
O O6 0.356682 0.269915 0.821637
O O7 0.301568 0.189479 0.943237
O O8 0.407287 0.072223 0.867423
O O9 0.424505 0.500000 0.250000
O O10 0.441755 0.441755 0.125000
O O11 0.344516 0.309633 0.212511
O O12 0.844021 0.219792 0.813186
O O13 0.987283 0.171291 0.897248
O O14 0.400173 0.000450 0.348317
O O15 0.549003 0.000000 0.250000
O O16 0.282026 0.146420 0.409747
O O17 0.287021 0.123257 0.274432
#
# Coordination Sequence:
#
# PCOD8305834 Si02
#       8
#     8   8   8   4   8   8   8   8
#     4  10  21  40  66  92 124 175 222 261 331 394
#     4  10  22  39  59  91 127 166 213 266 329 382
#     4  10  21  38  59  92 130 175 211 269 334 400
#     4  12  20  34  64  90 116 160 202 264 330 382
#     4  11  22  36  63  94 122 169 216 271 323 393
#     4  10  23  38  62  91 125 162 212 264 332 390
#     4   9  21  43  61  91 130 168 213 273 318 403
#     4  10  21  38  59  86 127 157 207 268 320 383
#
# _framework density 20.57583
#
# number of rings (size 3 to 8) (size 9 to 14) (size 15 to 20)
#    0.000    1.867    0.667    2.800    3.733    0.533 
#   12.000    0.000    5.867    0.000    0.000    0.000 
#    0.000    0.000    0.000    0.000    0.000    0.000 
#
# Total GULP energy -743516.886286 kJ/mol
# GULP energy per Si atom -12391.948105 kJ/mol
# Density = 2.052900 g / cm^3
# Si number density = 20.575830 Si / 1000 Ang^3
#
#
#
# Elastic Constant Matrix: (Units=GPa)
#
#
# Indices 1 2 3 4 5 6 
#
# 1 92.3136 50.3214 40.3556 0.0000 0.0000 0.0000
# 2 50.3214 92.3148 40.3563 0.0000 0.0000 0.0000
# 3 40.3556 40.3563 127.7391 0.0000 0.0000 0.0000
# 4 0.0000 0.0000 0.0000 29.5680 0.0000 0.0000
# 5 0.0000 0.0000 0.0000 0.0000 29.5675 0.0000
# 6 0.0000 0.0000 0.0000 0.0000 0.0000 31.9966
#
#
#
# Elastic Compliance Matrix: (Units=1/GPa)
#
#
# Indices 1 2 3 4 5 6 
#
# 1 0.016175 -0.007638 -0.002697 0.000000 0.000000 0.000000
# 2 -0.007638 0.016175 -0.002697 0.000000 0.000000 0.000000
# 3 -0.002697 -0.002697 0.009533 0.000000 0.000000 0.000000
# 4 0.000000 0.000000 0.000000 0.033820 0.000000 0.000000
# 5 0.000000 0.000000 0.000000 0.000000 0.033821 0.000000
# 6 0.000000 0.000000 0.000000 0.000000 0.000000 0.031253
#
#
# Mechanical properties :
#
#
# Convention : Reuss Voigt Hill
#
# Bulk Modulus (GPa) = 63.21745 63.82601 63.52173
# Shear Modulus (GPa) = 29.05025 30.31534 29.68279
#
# Velocity S-wave (km/s) = 3.76155 3.84258 3.80228
# Velocity P-wave (km/s) = 7.04674 7.12562 7.08629
#
# Compressibility (1/GPa) = 0.01581842
#
# Stress axis : x y z
#
# Youngs Moduli (GPa) = 61.82224 61.82282 104.90318
#
# Poissons Ratio (x) = 0.47222 0.28293
# Poissons Ratio (y) = 0.47222 0.28293
# Poissons Ratio (z) = 0.16674 0.16674
#
# Static dielectric constant tensor:
#      x y z
#    x 3.605440 0.000000 0.000000 
#    y 0.000000 3.605450 0.000000 
#    z 0.000000 0.000000 4.074860 
# 
# 
# High freq. dielectric constant tensor:
#      x y z
#    x 1.787320 0.000000 0.000000 
#    y 0.000000 1.787320 0.000000 
#    z 0.000000 0.000000 1.829030 
# 
# From -- ./inp_files/6526.got.cif
#   From: 2010.03.12/outbox.cif.g09.slc.cpg/sg95_4_cif.got.tgz:6526.got - 2010.04.08 20:51:55.
