data_PCOD8305645
_publ_section_title
;
Structure prediction by ZEFSAII (Michael W. Deem and Ramdas Pophale) SiO2 
 PCOD8305645
Probable space group: P 42 21 2
;
_chemical_formula_sum "Si O2"
_cell_formula_units_Z 48
_cell_length_a 9.105946
_cell_length_b 9.105946
_cell_length_c 28.769865
_cell_angle_alpha 90.000000
_cell_angle_beta 90.000000
_cell_angle_gamma 90.000000
_cell_volume 2385.546932
_symmetry_space_group_name_H-M "P 42 21 2"
_symmetry_group_IT_number 94
_symmetry_cell_setting 'tetragonal'
loop_
_space_group_symop_operation_xyz
x,y,z
1/2-y,1/2+x,1/2+z
-x,-y,z
1/2+y,1/2-x,1/2+z
1/2+x,1/2-y,1/2-z
1/2-x,1/2+y,1/2-z
y,x,-z
-y,-x,-z
loop_
_atom_site_type_symbol
_atom_site_label
_atom_site_fract_x
_atom_site_fract_y
_atom_site_fract_z
Si Si1 0.581408 0.652331 0.287716
Si Si2 0.578721 0.153696 0.213001
Si Si3 0.584643 0.652008 0.392216
Si Si4 0.717515 0.061893 0.518532
Si Si5 0.925021 0.655771 0.388981
Si Si6 0.712587 0.061833 0.983754
O O1 0.500000 0.500000 0.283527
O O2 0.502964 0.758974 0.252490
O O3 0.751089 0.632836 0.273709
O O4 0.565223 0.715032 0.340088
O O5 0.565043 0.231879 0.162062
O O6 0.500000 0.000000 0.209741
O O7 0.500000 0.500000 0.397210
O O8 0.756699 0.631669 0.404310
O O9 0.518460 0.768261 0.429282
O O10 0.867107 0.132894 0.500000
O O11 0.582220 0.177444 0.514472
O O12 0.747359 0.012110 0.571772
O O13 0.678245 0.920178 0.487567
O O14 0.000000 0.500000 0.386186
O O15 0.866374 0.133627 0.000000
#
# Coordination Sequence:
#
# PCOD8305645 Si02
#       6
#     8   8   8   8   8   8
#     4  10  21  41  62  92 123 155 206 250 311 374
#     4  10  21  38  66  88 120 162 198 257 309 370
#     4  10  22  37  64  88 116 157 205 257 294 353
#     4  11  24  39  57  87 122 159 200 255 300 361
#     4  10  19  40  59  87 119 157 205 240 304 373
#     4  11  22  39  60  86 118 157 206 252 290 365
#
# _framework density 20.121172999999999
#
# number of rings (size 3 to 8) (size 9 to 14) (size 15 to 20)
#    0.000    1.667    3.333    1.000    4.667    1.667 
#    3.000    3.333    0.000    0.000    0.000    0.000 
#    0.000    0.000    0.000    0.000    0.000    0.000 
#
# Total GULP energy -595010.165238 kJ/mol
# GULP energy per Si atom -12396.045109 kJ/mol
# Density = 2.007538 g / cm^3
# Si number density = 20.121173 Si / 1000 Ang^3
#
#
#
# Elastic Constant Matrix: (Units=GPa)
#
#
# Indices 1 2 3 4 5 6 
#
# 1 78.8996 38.1842 63.2029 0.0000 0.0000 0.0000
# 2 38.1842 78.9020 63.2030 0.0000 0.0000 0.0000
# 3 63.2029 63.2030 162.7719 0.0000 0.0000 0.0000
# 4 0.0000 0.0000 0.0000 36.3688 0.0000 0.0000
# 5 0.0000 0.0000 0.0000 0.0000 36.3687 0.0000
# 6 0.0000 0.0000 0.0000 0.0000 0.0000 40.4624
#
#
#
# Elastic Compliance Matrix: (Units=1/GPa)
#
#
# Indices 1 2 3 4 5 6 
#
# 1 0.019633 -0.004927 -0.005710 0.000000 0.000000 0.000000
# 2 -0.004927 0.019632 -0.005710 0.000000 0.000000 0.000000
# 3 -0.005710 -0.005710 0.010578 0.000000 0.000000 0.000000
# 4 0.000000 0.000000 0.000000 0.027496 0.000000 0.000000
# 5 0.000000 0.000000 0.000000 0.000000 0.027496 0.000000
# 6 0.000000 0.000000 0.000000 0.000000 0.000000 0.024714
#
#
# Mechanical properties :
#
#
# Convention : Reuss Voigt Hill
#
# Bulk Modulus (GPa) = 58.31367 72.19488 65.25427
# Shear Modulus (GPa) = 29.76891 33.03886 31.40389
#
# Velocity S-wave (km/s) = 3.85058 4.05655 3.95490
# Velocity P-wave (km/s) = 6.98666 7.60912 7.30452
#
# Compressibility (1/GPa) = 0.01714864
#
# Stress axis : x y z
#
# Youngs Moduli (GPa) = 50.93445 50.93665 94.53746
#
# Poissons Ratio (x) = 0.25098 0.53982
# Poissons Ratio (y) = 0.25097 0.53979
# Poissons Ratio (z) = 0.29084 0.29084
#
# Static dielectric constant tensor:
#      x y z
#    x 3.593040 0.000000 0.000000 
#    y 0.000000 3.593040 0.000000 
#    z 0.000000 0.000000 4.488400 
# 
# 
# High freq. dielectric constant tensor:
#      x y z
#    x 1.773750 0.000000 0.000000 
#    y 0.000000 1.773750 0.000000 
#    z 0.000000 0.000000 1.804870 
# 
# From -- ./inp_files/5625.got.cif
#   From: 2010.03.12/outbox.cif.g09.slc.cpg/sg94_3_cif.got.tgz:5625.got - 2010.04.08 20:48:32.
