data_PCOD8305220
_publ_section_title
;
Structure prediction by ZEFSAII (Michael W. Deem and Ramdas Pophale) SiO2 
 PCOD8305220
Probable space group: P 41 21 2
;
_chemical_formula_sum "Si O2"
_cell_formula_units_Z 44
_cell_length_a 9.088435
_cell_length_b 9.088435
_cell_length_c 25.887484
_cell_angle_alpha 90.000000
_cell_angle_beta 90.000000
_cell_angle_gamma 90.000000
_cell_volume 2138.297137
_symmetry_space_group_name_H-M "P 41 21 2"
_symmetry_group_IT_number 92
_symmetry_cell_setting 'tetragonal'
loop_
_space_group_symop_operation_xyz
x,y,z
1/2-y,1/2+x,1/4+z
-x,-y,1/2+z
1/2+y,1/2-x,3/4+z
1/2+x,1/2-y,3/4-z
1/2-x,1/2+y,1/4-z
y,x,-z
-y,-x,1/2-z
loop_
_atom_site_type_symbol
_atom_site_label
_atom_site_fract_x
_atom_site_fract_y
_atom_site_fract_z
Si Si1 0.726227 0.163183 0.416495
Si Si2 0.844150 0.403574 0.494116
Si Si3 0.995845 0.883498 0.856734
Si Si4 0.291734 0.056823 0.005632
Si Si5 0.371228 0.459333 0.795416
Si Si6 0.958464 0.041536 0.750000
O O1 0.800839 0.297161 0.447776
O O2 0.571436 0.218581 0.393989
O O3 0.706631 0.016852 0.449340
O O4 0.833799 0.122293 0.370178
O O5 0.706866 0.497053 0.517472
O O6 0.944945 0.539507 0.473877
O O7 0.928511 0.303329 0.536957
O O8 0.897653 0.974303 0.898036
O O9 0.994347 0.944601 0.799408
O O10 0.195876 0.957319 0.044332
O O11 0.219763 0.219763 0.000000
O O12 0.434798 0.565203 0.750000
#
# Coordination Sequence:
#
# PCOD8305220 Si02
#       6
#     8   8   8   8   8   4
#     4  10  23  41  65  93 129 170 214 268 322 393
#     4  10  20  41  65  97 125 167 214 273 327 384
#     4  11  22  46  61  96 136 170 217 272 329 398
#     4  10  18  39  69  89 126 165 215 269 323 382
#     4  10  20  42  69  92 129 174 215 268 325 397
#     4  10  24  42  62  94 144 158 214 284 322 390
#
# _framework density 20.577123
#
# number of rings (size 3 to 8) (size 9 to 14) (size 15 to 20)
#    0.000    1.818    6.364    0.000    2.545    0.000 
#   21.273    0.000    0.000    0.000    0.000    0.000 
#    0.000    0.000    0.000    0.000    0.000    0.000 
#
# Total GULP energy -545196.624550 kJ/mol
# GULP energy per Si atom -12390.832376 kJ/mol
# Density = 2.053029 g / cm^3
# Si number density = 20.577123 Si / 1000 Ang^3
#
#
#
# Elastic Constant Matrix: (Units=GPa)
#
#
# Indices 1 2 3 4 5 6 
#
# 1 99.8379 27.7759 15.2467 0.0000 0.0000 0.0000
# 2 27.7759 99.8382 15.2463 0.0000 0.0000 0.0000
# 3 15.2467 15.2463 82.8625 0.0000 0.0000 0.0000
# 4 0.0000 0.0000 0.0000 12.3367 0.0000 0.0000
# 5 0.0000 0.0000 0.0000 0.0000 12.3368 0.0000
# 6 0.0000 0.0000 0.0000 0.0000 0.0000 36.0882
#
#
#
# Elastic Compliance Matrix: (Units=1/GPa)
#
#
# Indices 1 2 3 4 5 6 
#
# 1 0.011037 -0.002840 -0.001508 0.000000 0.000000 0.000000
# 2 -0.002840 0.011037 -0.001508 0.000000 0.000000 0.000000
# 3 -0.001508 -0.001508 0.012623 0.000000 0.000000 0.000000
# 4 0.000000 0.000000 0.000000 0.081059 0.000000 0.000000
# 5 0.000000 0.000000 0.000000 0.000000 0.081058 0.000000
# 6 0.000000 0.000000 0.000000 0.000000 0.000000 0.027710
#
#
# Mechanical properties :
#
#
# Convention : Reuss Voigt Hill
#
# Bulk Modulus (GPa) = 43.50924 44.34182 43.92553
# Shear Modulus (GPa) = 20.50039 27.10365 23.80202
#
# Velocity S-wave (km/s) = 3.15980 3.63323 3.40475
# Velocity P-wave (km/s) = 5.87391 6.26070 6.07038
#
# Compressibility (1/GPa) = 0.02298363
#
# Stress axis : x y z
#
# Youngs Moduli (GPa) = 90.60651 90.60697 79.21935
#
# Poissons Ratio (x) = 0.25734 0.11948
# Poissons Ratio (y) = 0.25734 0.11947
# Poissons Ratio (z) = 0.13665 0.13664
#
# Static dielectric constant tensor:
#      x y z
#    x 4.037900 0.000000 0.000000 
#    y 0.000000 4.037890 0.000000 
#    z 0.000000 0.000000 3.411130 
# 
# 
# High freq. dielectric constant tensor:
#      x y z
#    x 1.811090 0.000000 0.000000 
#    y 0.000000 1.811090 0.000000 
#    z 0.000000 0.000000 1.777120 
# 
# From -- ./inp_files/4391.got.cif
#   From: 2010.03.12/outbox.cif.g09.slc.cpg/sg92_3_cif.got.tgz:4391.got - 2010.04.08 20:41:11.
