data_PCOD8305795
_publ_section_title
;
Structure prediction by ZEFSAII (Michael W. Deem and Ramdas Pophale) SiO2 
 PCOD8305795
Probable space group: P 42 21 2
;
_chemical_formula_sum "Si O2"
_cell_formula_units_Z 28
_cell_length_a 8.442054
_cell_length_b 8.442054
_cell_length_c 18.011278
_cell_angle_alpha 90.000000
_cell_angle_beta 90.000000
_cell_angle_gamma 90.000000
_cell_volume 1283.632727
_symmetry_space_group_name_H-M "P 42 21 2"
_symmetry_group_IT_number 94
_symmetry_cell_setting 'tetragonal'
loop_
_space_group_symop_operation_xyz
x,y,z
1/2-y,1/2+x,1/2+z
-x,-y,z
1/2+y,1/2-x,1/2+z
1/2+x,1/2-y,1/2-z
1/2-x,1/2+y,1/2-z
y,x,-z
-y,-x,-z
loop_
_atom_site_type_symbol
_atom_site_label
_atom_site_fract_x
_atom_site_fract_y
_atom_site_fract_z
Si Si1 0.834066 0.556871 0.674341
Si Si2 0.751294 0.010155 0.989958
Si Si3 0.000000 0.500000 0.387946
Si Si4 0.430194 0.671200 0.192906
O O1 0.829006 0.492876 0.590292
O O2 0.827826 0.744597 0.680307
O O3 0.688980 0.478416 0.720315
O O4 0.000000 0.500000 0.709400
O O5 0.808678 0.191322 0.000000
O O6 0.644742 0.968347 0.058747
O O7 0.897409 0.897409 0.000000
O O8 0.996984 0.666886 0.343699
O O9 0.500000 0.500000 0.164012
#
# Coordination Sequence:
#
# PCOD8305795 Si02
#       4
#     8   8   4   8
#     4  12  26  49  74 109 146 195 249 309 377 450
#     4  11  26  45  74 103 146 191 240 301 374 443
#     4  12  26  50  72 112 150 188 254 308 374 454
#     4  12  29  46  77 108 151 194 251 310 376 452
#
# _framework density 21.813094
#
# number of rings (size 3 to 8) (size 9 to 14) (size 15 to 20)
#    0.000    0.286    5.714    1.714   12.000    0.000 
#    0.000    1.429    0.000    0.000    0.000    0.000 
#    0.000    0.000    0.000    0.000    0.000    0.000 
#
# Total GULP energy -346932.188009 kJ/mol
# GULP energy per Si atom -12390.435286 kJ/mol
# Density = 2.176345 g / cm^3
# Si number density = 21.813094 Si / 1000 Ang^3
#
#
#
# Elastic Constant Matrix: (Units=GPa)
#
#
# Indices 1 2 3 4 5 6 
#
# 1 123.8652 52.9853 43.0266 0.0000 0.0000 0.0000
# 2 52.9853 123.8652 43.0267 0.0000 0.0000 0.0000
# 3 43.0266 43.0267 106.3991 0.0000 0.0000 0.0000
# 4 0.0000 0.0000 0.0000 31.5297 0.0000 0.0000
# 5 0.0000 0.0000 0.0000 0.0000 31.5293 0.0000
# 6 0.0000 0.0000 0.0000 0.0000 0.0000 32.7570
#
#
#
# Elastic Compliance Matrix: (Units=1/GPa)
#
#
# Indices 1 2 3 4 5 6 
#
# 1 0.010574 -0.003534 -0.002847 0.000000 0.000000 0.000000
# 2 -0.003534 0.010574 -0.002847 0.000000 0.000000 0.000000
# 3 -0.002847 -0.002847 0.011701 0.000000 0.000000 0.000000
# 4 0.000000 0.000000 0.000000 0.031716 0.000000 0.000000
# 5 0.000000 0.000000 0.000000 0.000000 0.031717 0.000000
# 6 0.000000 0.000000 0.000000 0.000000 0.000000 0.030528
#
#
# Mechanical properties :
#
#
# Convention : Reuss Voigt Hill
#
# Bulk Modulus (GPa) = 69.47690 70.24520 69.86105
# Shear Modulus (GPa) = 33.31930 33.50258 33.41094
#
# Velocity S-wave (km/s) = 3.91255 3.92330 3.91793
# Velocity P-wave (km/s) = 7.23401 7.26610 7.25007
#
# Compressibility (1/GPa) = 0.01439327
#
# Stress axis : x y z
#
# Youngs Moduli (GPa) = 94.57129 94.57120 85.46282
#
# Poissons Ratio (x) = 0.33425 0.24329
# Poissons Ratio (y) = 0.33425 0.24329
# Poissons Ratio (z) = 0.26922 0.26922
#
# Static dielectric constant tensor:
#      x y z
#    x 4.497410 0.000000 0.000000 
#    y 0.000000 4.497390 0.000000 
#    z 0.000000 0.000000 4.074930 
# 
# 
# High freq. dielectric constant tensor:
#      x y z
#    x 1.868700 0.000000 0.000000 
#    y 0.000000 1.868700 0.000000 
#    z 0.000000 0.000000 1.865470 
# 
# From -- ./inp_files/3805.got.cif
#   From: 2010.03.12/outbox.cif.g09.slc.cpg/sg94_2_cif.got.tgz:3805.got - 2010.04.08 20:48:32.
