data_PCOD8305120
_publ_section_title
;
Structure prediction by ZEFSAII (Michael W. Deem and Ramdas Pophale) SiO2 
 PCOD8305120
Probable space group: P 41 2 2
;
_chemical_formula_sum "Si O2"
_cell_formula_units_Z 44
_cell_length_a 8.642946
_cell_length_b 8.642946
_cell_length_c 27.019109
_cell_angle_alpha 90.000000
_cell_angle_beta 90.000000
_cell_angle_gamma 90.000000
_cell_volume 2018.341372
_symmetry_space_group_name_H-M "P 41 2 2"
_symmetry_group_IT_number 91
_symmetry_cell_setting 'tetragonal'
loop_
_space_group_symop_operation_xyz
x,y,z
-y,x,1/4+z
-x,-y,1/2+z
y,-x,3/4+z
x,-y,1/2-z
-x,y,-z
y,x,3/4-z
-y,-x,1/4-z
loop_
_atom_site_type_symbol
_atom_site_label
_atom_site_fract_x
_atom_site_fract_y
_atom_site_fract_z
Si Si1 0.518674 0.339019 0.222875
Si Si2 0.609221 0.968468 0.953327
Si Si3 0.149937 0.723432 0.025754
Si Si4 0.865466 0.476059 0.896620
Si Si5 0.492723 0.492723 0.375000
Si Si6 0.150282 0.768998 0.472868
O O1 0.546150 0.500000 0.250000
O O2 0.353224 0.265259 0.235885
O O3 0.523440 0.374217 0.164957
O O4 0.645323 0.212645 0.237584
O O5 0.745881 0.846085 0.945592
O O6 0.498727 0.956604 0.905018
O O7 0.701607 0.126703 0.960126
O O8 0.500000 0.936637 0.000000
O O9 0.076670 0.606093 0.065354
O O10 0.000000 0.801701 0.000000
O O11 0.680147 0.489559 0.895123
O O12 0.904703 0.309872 0.921154
O O13 0.000000 0.847950 0.500000
#
# Coordination Sequence:
#
# PCOD8305120 Si02
#       6
#     8   8   8   8   4   8
#     4  11  20  40  67  98 132 177 228 286 338 406
#     4  12  25  43  68  99 134 178 231 284 343 423
#     4  11  22  41  66  96 134 177 224 279 350 415
#     4  11  22  42  69  97 129 175 229 282 333 408
#     4  12  20  36  74 100 130 166 238 288 326 404
#     4  11  26  47  64  98 145 180 223 291 358 415
#
# _framework density 21.800077000000002
#
# number of rings (size 3 to 8) (size 9 to 14) (size 15 to 20)
#    0.000    0.727    5.455    4.909    0.000    4.364 
#    0.000    1.818    0.000    0.000    0.000    0.000 
#    0.000    0.000    0.000    0.000    0.000    0.000 
#
# Total GULP energy -545399.110049 kJ/mol
# GULP energy per Si atom -12395.434319 kJ/mol
# Density = 2.175046 g / cm^3
# Si number density = 21.800077 Si / 1000 Ang^3
#
#
#
# Elastic Constant Matrix: (Units=GPa)
#
#
# Indices 1 2 3 4 5 6 
#
# 1 63.4136 1.6072 21.5486 0.0000 0.0000 0.0000
# 2 1.6072 63.4136 21.5486 0.0000 0.0000 0.0000
# 3 21.5486 21.5486 126.5392 0.0000 0.0000 0.0000
# 4 0.0000 0.0000 0.0000 25.7838 0.0000 0.0000
# 5 0.0000 0.0000 0.0000 0.0000 25.7838 0.0000
# 6 0.0000 0.0000 0.0000 0.0000 0.0000 14.1593
#
#
#
# Elastic Compliance Matrix: (Units=1/GPa)
#
#
# Indices 1 2 3 4 5 6 
#
# 1 0.016758 0.000578 -0.002952 0.000000 0.000000 0.000000
# 2 0.000578 0.016758 -0.002952 0.000000 0.000000 0.000000
# 3 -0.002952 -0.002952 0.008908 0.000000 0.000000 0.000000
# 4 0.000000 0.000000 0.000000 0.038784 0.000000 0.000000
# 5 0.000000 0.000000 0.000000 0.000000 0.038784 0.000000
# 6 0.000000 0.000000 0.000000 0.000000 0.000000 0.070625
#
#
# Mechanical properties :
#
#
# Convention : Reuss Voigt Hill
#
# Bulk Modulus (GPa) = 31.47412 38.08615 34.78013
# Shear Modulus (GPa) = 23.60044 27.05616 25.32830
#
# Velocity S-wave (km/s) = 3.29384 3.52675 3.41228
# Velocity P-wave (km/s) = 5.37910 5.83888 5.61370
#
# Compressibility (1/GPa) = 0.03177214
#
# Stress axis : x y z
#
# Youngs Moduli (GPa) = 59.67286 59.67286 112.25628
#
# Poissons Ratio (x) = -0.03452 0.33141
# Poissons Ratio (y) = -0.03452 0.33141
# Poissons Ratio (z) = 0.17617 0.17617
#
# Static dielectric constant tensor:
#      x y z
#    x 3.998890 0.000000 0.000000 
#    y 0.000000 3.998890 0.000000 
#    z 0.000000 0.000000 4.292130 
# 
# 
# High freq. dielectric constant tensor:
#      x y z
#    x 1.852170 0.000000 0.000000 
#    y 0.000000 1.852170 0.000000 
#    z 0.000000 0.000000 1.857870 
# 
# From -- ./inp_files/18071.got.cif
#   From: 2010.03.12/outbox.cif.g09.slc.cpg/sg91_10_cif.got.tgz:18071.got - 2010.04.08 20:27:58.
