data_PCOD8305860
_publ_section_title
;
Structure prediction by ZEFSAII (Michael W. Deem and Ramdas Pophale) SiO2 
 PCOD8305860
Probable space group: P 43 2 2
;
_chemical_formula_sum "Si O2"
_cell_formula_units_Z 48
_cell_length_a 8.836588
_cell_length_b 8.836588
_cell_length_c 26.974174
_cell_angle_alpha 90.000000
_cell_angle_beta 90.000000
_cell_angle_gamma 90.000000
_cell_volume 2106.286131
_symmetry_space_group_name_H-M "P 43 2 2"
_symmetry_group_IT_number 95
_symmetry_cell_setting 'tetragonal'
loop_
_space_group_symop_operation_xyz
x,y,z
-y,x,3/4+z
-x,-y,1/2+z
y,-x,1/4+z
x,-y,1/2-z
-x,y,-z
y,x,1/4-z
-y,-x,3/4-z
loop_
_atom_site_type_symbol
_atom_site_label
_atom_site_fract_x
_atom_site_fract_y
_atom_site_fract_z
Si Si1 0.732345 0.940839 0.891090
Si Si2 0.785827 0.560951 0.604303
Si Si3 0.712512 0.954867 0.397151
Si Si4 0.321125 0.912254 0.001460
Si Si5 0.457564 0.232162 0.642990
Si Si6 0.417009 0.179214 0.750595
O O1 0.892111 0.871764 0.873782
O O2 0.734803 0.995316 0.948324
O O3 0.606453 0.807028 0.888291
O O4 0.688125 0.081435 0.856209
O O5 0.629896 0.629896 0.625000
O O6 0.831539 0.420224 0.639113
O O7 0.762240 0.510857 0.547668
O O8 0.732743 0.987082 0.455272
O O9 0.671527 0.104898 0.366256
O O10 0.245624 0.749570 0.000169
O O11 0.500000 0.892386 0.000000
O O12 0.393831 0.393831 0.625000
O O13 0.500805 0.236828 0.700980
O O14 0.406457 0.000000 0.750000
#
# Coordination Sequence:
#
# PCOD8305860 Si02
#       6
#     8   8   8   8   8   8
#     4  11  23  43  65  98 140 180 231 288 353 421
#     4  11  25  45  66  97 148 186 228 293 359 421
#     4  11  23  42  69  98 136 187 232 287 354 413
#     4  12  22  43  71 100 139 182 235 298 346 418
#     4  11  21  40  69  96 130 175 236 290 340 412
#     4  12  22  44  71 100 134 181 237 290 353 417
#
# _framework density 22.788929
#
# number of rings (size 3 to 8) (size 9 to 14) (size 15 to 20)
#    0.000    0.667   10.000    0.000    0.000    2.667 
#    6.000    0.000    0.000    0.000    0.000    0.000 
#    0.000    0.000    0.000    0.000    0.000    0.000 
#
# Total GULP energy -595323.018896 kJ/mol
# GULP energy per Si atom -12402.562894 kJ/mol
# Density = 2.273706 g / cm^3
# Si number density = 22.788929 Si / 1000 Ang^3
#
#
#
# Elastic Constant Matrix: (Units=GPa)
#
#
# Indices 1 2 3 4 5 6 
#
# 1 39.5974 46.6007 44.8698 0.0000 0.0000 0.0000
# 2 46.6007 39.5974 44.8698 0.0000 0.0000 0.0000
# 3 44.8698 44.8698 218.6485 0.0000 0.0000 0.0000
# 4 0.0000 0.0000 0.0000 38.6355 0.0000 0.0000
# 5 0.0000 0.0000 0.0000 0.0000 38.6355 0.0000
# 6 0.0000 0.0000 0.0000 0.0000 0.0000 49.1075
#
#
#
# Elastic Compliance Matrix: (Units=1/GPa)
#
#
# Indices 1 2 3 4 5 6 
#
# 1 -0.064018 0.078772 -0.003028 0.000000 0.000000 0.000000
# 2 0.078772 -0.064018 -0.003028 0.000000 0.000000 0.000000
# 3 -0.003028 -0.003028 0.005816 0.000000 0.000000 0.000000
# 4 0.000000 0.000000 0.000000 0.025883 0.000000 0.000000
# 5 0.000000 0.000000 0.000000 0.000000 0.025883 0.000000
# 6 0.000000 0.000000 0.000000 0.000000 0.000000 0.020364
#
#
# Mechanical properties :
#
#
# Convention : Reuss Voigt Hill
#
# Bulk Modulus (GPa) = 43.08083 63.39154 53.23618
# Shear Modulus (GPa) = -26.62591 36.04258 4.70833
#
# Velocity S-wave (km/s) = -3.42185 3.98123 1.43894
# Velocity P-wave (km/s) = 1.82571 7.00077 5.11586
#
# Compressibility (1/GPa) = 0.02321218
#
# Stress axis : x y z
#
# Youngs Moduli (GPa) = -15.62049 -15.62049 171.93526
#
# Poissons Ratio (x) = 1.23045 0.52054
# Poissons Ratio (y) = 1.23045 0.52054
# Poissons Ratio (z) = -0.04729 -0.04729
#
# Static dielectric constant tensor:
#      x y z
#    x 4.042430 0.000000 0.000000 
#    y 0.000000 4.042430 0.000000 
#    z 0.000000 0.000000 4.692220 
# 
# 
# High freq. dielectric constant tensor:
#      x y z
#    x 1.891500 0.000000 0.000000 
#    y 0.000000 1.891500 0.000000 
#    z 0.000000 0.000000 1.910380 
# 
# From -- ./inp_files/7957.got.cif
#   From: 2010.03.12/outbox.cif.g09.slc.cpg/sg95_4_cif.got.tgz:7957.got - 2010.04.08 20:51:55.
