data_PCOD8305641
_publ_section_title
;
Structure prediction by ZEFSAII (Michael W. Deem and Ramdas Pophale) SiO2 
 PCOD8305641
Probable space group: P 42 21 2
;
_chemical_formula_sum "Si O2"
_cell_formula_units_Z 56
_cell_length_a 14.450931
_cell_length_b 14.450931
_cell_length_c 13.432632
_cell_angle_alpha 90.000000
_cell_angle_beta 90.000000
_cell_angle_gamma 90.000000
_cell_volume 2805.128572
_symmetry_space_group_name_H-M "P 42 21 2"
_symmetry_group_IT_number 94
_symmetry_cell_setting 'tetragonal'
loop_
_space_group_symop_operation_xyz
x,y,z
1/2-y,1/2+x,1/2+z
-x,-y,z
1/2+y,1/2-x,1/2+z
1/2+x,1/2-y,1/2-z
1/2-x,1/2+y,1/2-z
y,x,-z
-y,-x,-z
loop_
_atom_site_type_symbol
_atom_site_label
_atom_site_fract_x
_atom_site_fract_y
_atom_site_fract_z
Si Si1 0.553990 0.087669 0.227553
Si Si2 0.344057 0.286879 0.194019
Si Si3 0.741853 0.402564 0.477406
Si Si4 0.963590 0.269811 0.663867
Si Si5 0.156854 0.443340 0.951572
Si Si6 0.807158 0.870851 0.229441
Si Si7 0.511602 0.278247 0.319659
O O1 0.662315 0.064578 0.244314
O O2 0.524279 0.105631 0.112072
O O3 0.523098 0.170270 0.298263
O O4 0.500000 0.000000 0.269708
O O5 0.301513 0.380127 0.150652
O O6 0.411967 0.247486 0.109236
O O7 0.265312 0.213924 0.225158
O O8 0.408778 0.310983 0.289591
O O9 0.702546 0.297455 0.500000
O O10 0.852649 0.406185 0.468386
O O11 0.698356 0.431717 0.371948
O O12 0.706553 0.472632 0.562465
O O13 0.982967 0.320975 0.559937
O O14 0.059580 0.216870 0.682244
O O15 0.910584 0.832648 0.244451
#
# Coordination Sequence:
#
# PCOD8305641 Si02
#       7
#     8   8   8   8   8   8   8
#     4  11  22  37  56  91 121 151 201 253 307 358
#     4  10  21  39  63  90 117 159 215 246 298 370
#     4   9  16  35  61  84 112 160 209 248 292 360
#     4  12  21  39  63  86 125 164 197 251 315 359
#     4  10  20  36  61  88 119 160 211 249 293 367
#     4  10  21  38  60  90 120 160 205 252 309 368
#     4  10  19  38  64  85 122 157 204 261 302 357
#
# _framework density 19.963433999999999
#
# number of rings (size 3 to 8) (size 9 to 14) (size 15 to 20)
#    0.000    1.714    2.857    4.714    0.000    1.143 
#    7.714    3.571    0.000    6.000    0.000    0.000 
#    0.000    0.000    0.000    0.000    0.000    0.000 
#
# Total GULP energy -694127.960755 kJ/mol
# GULP energy per Si atom -12395.142156 kJ/mol
# Density = 1.991800 g / cm^3
# Si number density = 19.963434 Si / 1000 Ang^3
#
#
#
# Elastic Constant Matrix: (Units=GPa)
#
#
# Indices 1 2 3 4 5 6 
#
# 1 66.0142 18.1226 23.2917 0.0000 0.0000 0.0000
# 2 18.1226 66.0139 23.2922 0.0000 0.0000 0.0000
# 3 23.2917 23.2922 81.8031 0.0000 0.0000 0.0000
# 4 0.0000 0.0000 0.0000 23.5739 0.0000 0.0000
# 5 0.0000 0.0000 0.0000 0.0000 23.5736 0.0000
# 6 0.0000 0.0000 0.0000 0.0000 0.0000 25.5734
#
#
#
# Elastic Compliance Matrix: (Units=1/GPa)
#
#
# Indices 1 2 3 4 5 6 
#
# 1 0.017495 -0.003385 -0.004017 0.000000 0.000000 0.000000
# 2 -0.003385 0.017495 -0.004018 0.000000 0.000000 0.000000
# 3 -0.004017 -0.004018 0.014512 0.000000 0.000000 0.000000
# 4 0.000000 0.000000 0.000000 0.042420 0.000000 0.000000
# 5 0.000000 0.000000 0.000000 0.000000 0.042420 0.000000
# 6 0.000000 0.000000 0.000000 0.000000 0.000000 0.039103
#
#
# Mechanical properties :
#
#
# Convention : Reuss Voigt Hill
#
# Bulk Modulus (GPa) = 37.50677 38.13826 37.82251
# Shear Modulus (GPa) = 24.36956 24.48583 24.42769
#
# Velocity S-wave (km/s) = 3.49766 3.50599 3.50183
# Velocity P-wave (km/s) = 5.92790 5.96111 5.94453
#
# Compressibility (1/GPa) = 0.02666186
#
# Stress axis : x y z
#
# Youngs Moduli (GPa) = 57.15894 57.15835 68.90707
#
# Poissons Ratio (x) = 0.19350 0.27683
# Poissons Ratio (y) = 0.19350 0.27684
# Poissons Ratio (z) = 0.22963 0.22964
#
# Static dielectric constant tensor:
#      x y z
#    x 3.615430 0.000000 0.000000 
#    y 0.000000 3.615420 0.000000 
#    z 0.000000 0.000000 3.749710 
# 
# 
# High freq. dielectric constant tensor:
#      x y z
#    x 1.766430 0.000000 0.000000 
#    y 0.000000 1.766430 0.000000 
#    z 0.000000 0.000000 1.772690 
# 
# From -- ./inp_files/2714.got.cif
#   From: 2010.03.12/outbox.cif.g09.slc.cpg/sg94_2_cif.got.tgz:2714.got - 2010.04.08 20:48:32.
