data_PCOD8305501
_publ_section_title
;
Structure prediction by ZEFSAII (Michael W. Deem and Ramdas Pophale) SiO2 
 PCOD8305501
Probable space group: P 41 21 2
;
_chemical_formula_sum "Si O2"
_cell_formula_units_Z 28
_cell_length_a 10.997008
_cell_length_b 10.997008
_cell_length_c 10.835093
_cell_angle_alpha 90.000000
_cell_angle_beta 90.000000
_cell_angle_gamma 90.000000
_cell_volume 1310.333141
_symmetry_space_group_name_H-M "P 41 21 2"
_symmetry_group_IT_number 92
_symmetry_cell_setting 'tetragonal'
loop_
_space_group_symop_operation_xyz
x,y,z
1/2-y,1/2+x,1/4+z
-x,-y,1/2+z
1/2+y,1/2-x,3/4+z
1/2+x,1/2-y,3/4-z
1/2-x,1/2+y,1/4-z
y,x,-z
-y,-x,1/2-z
loop_
_atom_site_type_symbol
_atom_site_label
_atom_site_fract_x
_atom_site_fract_y
_atom_site_fract_z
Si Si1 0.164429 0.056777 0.618095
Si Si2 0.955969 0.157775 0.003373
Si Si3 0.424990 0.424990 0.000000
Si Si4 0.927765 0.558741 0.819280
O O1 0.143945 0.143945 0.500000
O O2 0.296747 0.071513 0.673255
O O3 0.067067 0.097819 0.719839
O O4 0.142125 0.914155 0.586645
O O5 0.897694 0.163891 0.865210
O O6 0.985670 0.289536 0.055654
O O7 0.079456 0.079456 0.000000
O O8 0.002025 0.517322 0.696185
#
# Coordination Sequence:
#
# PCOD8305501 Si02
#       4
#     8   8   4   8
#     4   9  20  39  69  95 122 172 221 273 327 396
#     4   9  20  42  68  91 125 176 227 265 328 403
#     4   8  16  40  68  94 118 166 236 262 316 404
#     4  12  27  43  62 102 142 172 219 278 338 398
#
# _framework density 21.368613
#
# number of rings (size 3 to 8) (size 9 to 14) (size 15 to 20)
#    0.000    2.857    0.000    3.429    4.000    4.571 
#   12.857    0.000    0.000    0.000    0.000    0.000 
#    0.000    0.000    0.000    0.000    0.000    0.000 
#
# Total GULP energy -347018.542188 kJ/mol
# GULP energy per Si atom -12393.519364 kJ/mol
# Density = 2.131998 g / cm^3
# Si number density = 21.368613 Si / 1000 Ang^3
#
#
#
# Elastic Constant Matrix: (Units=GPa)
#
#
# Indices 1 2 3 4 5 6 
#
# 1 69.4775 27.6060 19.8860 0.0000 0.0000 0.0000
# 2 27.6060 69.4775 19.8860 0.0000 0.0000 0.0000
# 3 19.8860 19.8860 129.9017 0.0000 0.0000 0.0000
# 4 0.0000 0.0000 0.0000 22.6041 0.0000 0.0000
# 5 0.0000 0.0000 0.0000 0.0000 22.6041 0.0000
# 6 0.0000 0.0000 0.0000 0.0000 0.0000 16.6160
#
#
#
# Elastic Compliance Matrix: (Units=1/GPa)
#
#
# Indices 1 2 3 4 5 6 
#
# 1 0.017436 -0.006446 -0.001682 0.000000 0.000000 0.000000
# 2 -0.006446 0.017436 -0.001682 0.000000 0.000000 0.000000
# 3 -0.001682 -0.001682 0.008213 0.000000 0.000000 0.000000
# 4 0.000000 0.000000 0.000000 0.044240 0.000000 0.000000
# 5 0.000000 0.000000 0.000000 0.000000 0.044240 0.000000
# 6 0.000000 0.000000 0.000000 0.000000 0.000000 0.060183
#
#
# Mechanical properties :
#
#
# Convention : Reuss Voigt Hill
#
# Bulk Modulus (GPa) = 42.62019 44.84587 43.73303
# Shear Modulus (GPa) = 22.81114 25.79676 24.30395
#
# Velocity S-wave (km/s) = 3.27082 3.47829 3.37615
# Velocity P-wave (km/s) = 5.85259 6.09620 5.97564
#
# Compressibility (1/GPa) = 0.02346306
#
# Stress axis : x y z
#
# Youngs Moduli (GPa) = 57.35231 57.35231 121.75504
#
# Poissons Ratio (x) = 0.36972 0.20483
# Poissons Ratio (y) = 0.36972 0.20483
# Poissons Ratio (z) = 0.09649 0.09649
#
# Static dielectric constant tensor:
#      x y z
#    x 3.540490 0.000000 0.000000 
#    y 0.000000 3.540490 0.000000 
#    z 0.000000 0.000000 4.787350 
# 
# 
# High freq. dielectric constant tensor:
#      x y z
#    x 1.809960 0.000000 0.000000 
#    y 0.000000 1.809960 0.000000 
#    z 0.000000 0.000000 1.869820 
# 
# From -- ./inp_files/1856.got.cif
#   From: 2010.03.12/outbox.cif.g09.slc.cpg/sg92_1_cif.got.tgz:1856.got - 2010.04.08 20:41:11.
