data_PCOD8305016
_publ_section_title
;
Structure prediction by ZEFSAII (Michael W. Deem and Ramdas Pophale) SiO2 
 PCOD8305016
Probable space group: P 41 2 2
;
_chemical_formula_sum "Si O2"
_cell_formula_units_Z 44
_cell_length_a 9.107485
_cell_length_b 9.107485
_cell_length_c 27.354675
_cell_angle_alpha 90.000000
_cell_angle_beta 90.000000
_cell_angle_gamma 90.000000
_cell_volume 2268.968615
_symmetry_space_group_name_H-M "P 41 2 2"
_symmetry_group_IT_number 91
_symmetry_cell_setting 'tetragonal'
loop_
_space_group_symop_operation_xyz
x,y,z
-y,x,1/4+z
-x,-y,1/2+z
y,-x,3/4+z
x,-y,1/2-z
-x,y,-z
y,x,3/4-z
-y,-x,1/4-z
loop_
_atom_site_type_symbol
_atom_site_label
_atom_site_fract_x
_atom_site_fract_y
_atom_site_fract_z
Si Si1 0.225075 0.076304 0.066804
Si Si2 0.246240 0.552997 0.594263
Si Si3 0.344211 0.271598 0.991110
Si Si4 0.794048 0.781139 0.081302
Si Si5 0.102458 0.000000 0.250000
Si Si6 0.447266 0.984095 0.576583
O O1 0.167179 0.112192 0.121293
O O2 0.378338 0.984037 0.069841
O O3 0.261759 0.233692 0.041520
O O4 0.099435 0.995586 0.036048
O O5 0.384253 0.615748 0.625000
O O6 0.237192 0.629896 0.541521
O O7 0.265946 0.381619 0.587247
O O8 0.094345 0.584564 0.621720
O O9 0.382534 0.116486 0.966117
O O10 0.500000 0.355332 0.000000
O O11 0.642759 0.867310 0.075151
O O12 0.896474 0.796385 0.033528
#
# Coordination Sequence:
#
# PCOD8305016 Si02
#       6
#     8   8   8   8   4   8
#     4  10  22  38  62  89 119 161 210 243 298 375
#     4   9  20  39  63  89 118 156 207 253 295 364
#     4   9  17  36  61  87 111 154 205 248 289 357
#     4  11  23  41  61  92 127 161 201 255 313 357
#     4  12  24  38  60  92 128 162 202 252 306 378
#     4   9  19  39  64  82 121 161 198 248 306 360
#
# _framework density 19.392071999999999
#
# number of rings (size 3 to 8) (size 9 to 14) (size 15 to 20)
#    0.000    2.182    1.818    1.636    2.545    1.455 
#    9.818    3.636    0.000    0.000    0.000    0.000 
#    0.000    0.000    0.000    0.000    0.000    0.000 
#
# Total GULP energy -545424.027714 kJ/mol
# GULP energy per Si atom -12396.000630 kJ/mol
# Density = 1.934793 g / cm^3
# Si number density = 19.392072 Si / 1000 Ang^3
#
#
#
# Elastic Constant Matrix: (Units=GPa)
#
#
# Indices 1 2 3 4 5 6 
#
# 1 79.3339 49.4269 32.8686 0.0000 0.0000 0.0000
# 2 49.4269 79.3340 32.8683 0.0000 0.0000 0.0000
# 3 32.8686 32.8683 111.3465 0.0000 0.0000 0.0000
# 4 0.0000 0.0000 0.0000 29.1122 0.0000 0.0000
# 5 0.0000 0.0000 0.0000 0.0000 29.1121 0.0000
# 6 0.0000 0.0000 0.0000 0.0000 0.0000 25.2757
#
#
#
# Elastic Compliance Matrix: (Units=1/GPa)
#
#
# Indices 1 2 3 4 5 6 
#
# 1 0.021291 -0.012146 -0.002699 0.000000 0.000000 0.000000
# 2 -0.012146 0.021291 -0.002699 0.000000 0.000000 0.000000
# 3 -0.002699 -0.002699 0.010575 0.000000 0.000000 0.000000
# 4 0.000000 0.000000 0.000000 0.034350 0.000000 0.000000
# 5 0.000000 0.000000 0.000000 0.000000 0.034350 0.000000
# 6 0.000000 0.000000 0.000000 0.000000 0.000000 0.039564
#
#
# Mechanical properties :
#
#
# Convention : Reuss Voigt Hill
#
# Bulk Modulus (GPa) = 55.35232 55.59358 55.47295
# Shear Modulus (GPa) = 24.68752 27.02338 25.85545
#
# Velocity S-wave (km/s) = 3.57189 3.73705 3.65540
# Velocity P-wave (km/s) = 6.75403 6.88122 6.81792
#
# Compressibility (1/GPa) = 0.01806609
#
# Stress axis : x y z
#
# Youngs Moduli (GPa) = 46.96874 46.96894 94.56597
#
# Poissons Ratio (x) = 0.57050 0.25527
# Poissons Ratio (y) = 0.57049 0.25526
# Poissons Ratio (z) = 0.12679 0.12678
#
# Static dielectric constant tensor:
#      x y z
#    x 3.381690 0.000000 0.000000 
#    y 0.000000 3.381690 0.000000 
#    z 0.000000 0.000000 3.980860 
# 
# 
# High freq. dielectric constant tensor:
#      x y z
#    x 1.736550 0.000000 0.000000 
#    y 0.000000 1.736550 0.000000 
#    z 0.000000 0.000000 1.775650 
# 
# From -- ./inp_files/7815.got.cif
#   From: 2010.03.12/outbox.cif.g09.slc.cpg/sg91_4_cif.got.tgz:7815.got - 2010.04.08 20:27:58.
