data_PCOD8305970
_publ_section_title
;
Structure prediction by ZEFSAII (Michael W. Deem and Ramdas Pophale) SiO2 
 PCOD8305970
Probable space group: P 43 21 2
;
_chemical_formula_sum "Si O2"
_cell_formula_units_Z 44
_cell_length_a 10.833996
_cell_length_b 10.833996
_cell_length_c 17.366607
_cell_angle_alpha 90.000000
_cell_angle_beta 90.000000
_cell_angle_gamma 90.000000
_cell_volume 2038.413647
_symmetry_space_group_name_H-M "P 43 21 2"
_symmetry_group_IT_number 96
_symmetry_cell_setting 'tetragonal'
loop_
_space_group_symop_operation_xyz
x,y,z
1/2-y,1/2+x,3/4+z
-x,-y,1/2+z
1/2+y,1/2-x,1/4+z
1/2+x,1/2-y,1/4-z
1/2-x,1/2+y,3/4-z
y,x,-z
-y,-x,1/2-z
loop_
_atom_site_type_symbol
_atom_site_label
_atom_site_fract_x
_atom_site_fract_y
_atom_site_fract_z
Si Si1 0.375593 0.066886 0.596054
Si Si2 0.505279 0.141417 0.013667
Si Si3 0.490860 0.304088 0.534217
Si Si4 0.908581 0.960408 0.086985
Si Si5 0.270325 0.729676 0.750000
Si Si6 0.135146 0.114606 0.849773
O O1 0.390714 0.082619 0.687165
O O2 0.394601 0.196157 0.552449
O O3 0.237813 0.013139 0.581793
O O4 0.488427 0.982636 0.564394
O O5 0.373301 0.196983 0.989084
O O6 0.577697 0.235340 0.066031
O O7 0.419232 0.419232 0.500000
O O8 0.566667 0.336113 0.612746
O O9 0.581533 0.284277 0.461361
O O10 0.955508 0.955508 0.000000
O O11 0.985660 0.064510 0.132641
O O12 0.310616 0.649698 0.677655
#
# Coordination Sequence:
#
# PCOD8305970 Si02
#       6
#     8   8   8   8   4   8
#     4  12  25  44  68 105 139 183 238 293 361 422
#     4  12  26  46  71 103 141 188 233 301 360 426
#     4  10  24  44  70 102 143 185 233 292 355 426
#     4  11  22  44  71 100 140 183 237 291 361 429
#     4  12  26  48  72 102 142 182 248 288 358 436
#     4  11  24  46  72 104 138 190 237 295 358 433
#
# _framework density 21.585412000000002
#
# number of rings (size 3 to 8) (size 9 to 14) (size 15 to 20)
#    0.000    0.727    4.545    2.727    3.818    0.000 
#    3.273    0.000    0.000    0.000    0.000    0.000 
#    0.000    0.000    0.000    0.000    0.000    0.000 
#
# Total GULP energy -545174.433957 kJ/mol
# GULP energy per Si atom -12390.328044 kJ/mol
# Density = 2.153628 g / cm^3
# Si number density = 21.585412 Si / 1000 Ang^3
#
#
#
# Elastic Constant Matrix: (Units=GPa)
#
#
# Indices 1 2 3 4 5 6 
#
# 1 72.6301 21.4313 35.1811 0.0000 0.0000 0.0000
# 2 21.4313 72.6303 35.1811 0.0000 0.0000 0.0000
# 3 35.1811 35.1811 163.0117 0.0000 0.0000 0.0000
# 4 0.0000 0.0000 0.0000 34.1845 0.0000 0.0000
# 5 0.0000 0.0000 0.0000 0.0000 34.1851 0.0000
# 6 0.0000 0.0000 0.0000 0.0000 0.0000 26.7923
#
#
#
# Elastic Compliance Matrix: (Units=1/GPa)
#
#
# Indices 1 2 3 4 5 6 
#
# 1 0.016105 -0.003427 -0.002736 0.000000 0.000000 0.000000
# 2 -0.003427 0.016105 -0.002736 0.000000 0.000000 0.000000
# 3 -0.002736 -0.002736 0.007316 0.000000 0.000000 0.000000
# 4 0.000000 0.000000 0.000000 0.029253 0.000000 0.000000
# 5 0.000000 0.000000 0.000000 0.000000 0.029252 0.000000
# 6 0.000000 0.000000 0.000000 0.000000 0.000000 0.037324
#
#
# Mechanical properties :
#
#
# Convention : Reuss Voigt Hill
#
# Bulk Modulus (GPa) = 46.02549 54.65102 50.33826
# Shear Modulus (GPa) = 31.17292 33.46431 32.31862
#
# Velocity S-wave (km/s) = 3.80434 3.94168 3.87362
# Velocity P-wave (km/s) = 6.37700 6.78891 6.58618
#
# Compressibility (1/GPa) = 0.02172709
#
# Stress axis : x y z
#
# Youngs Moduli (GPa) = 62.09279 62.09299 136.69470
#
# Poissons Ratio (x) = 0.21278 0.37402
# Poissons Ratio (y) = 0.21278 0.37402
# Poissons Ratio (z) = 0.16990 0.16990
#
# Static dielectric constant tensor:
#      x y z
#    x 3.710350 0.000000 0.000000 
#    y 0.000000 3.710340 0.000000 
#    z 0.000000 0.000000 5.146650 
# 
# 
# High freq. dielectric constant tensor:
#      x y z
#    x 1.836930 0.000000 0.000000 
#    y 0.000000 1.836930 0.000000 
#    z 0.000000 0.000000 1.878030 
# 
# From -- ./inp_files/3066.got.cif
#   From: 2010.03.12/outbox.cif.g09.slc.cpg/sg96_2_cif.got.tgz:3066.got - 2010.04.08 20:56:49.
