data_PCOD8305810
_publ_section_title
;
Structure prediction by ZEFSAII (Michael W. Deem and Ramdas Pophale) SiO2 
 PCOD8305810
Probable space group: P 43 2 2
;
_chemical_formula_sum "Si O2"
_cell_formula_units_Z 48
_cell_length_a 14.621832
_cell_length_b 14.621832
_cell_length_c 13.132495
_cell_angle_alpha 90.000000
_cell_angle_beta 90.000000
_cell_angle_gamma 90.000000
_cell_volume 2807.700786
_symmetry_space_group_name_H-M "P 43 2 2"
_symmetry_group_IT_number 95
_symmetry_cell_setting 'tetragonal'
loop_
_space_group_symop_operation_xyz
x,y,z
-y,x,3/4+z
-x,-y,1/2+z
y,-x,1/4+z
x,-y,1/2-z
-x,y,-z
y,x,1/4-z
-y,-x,3/4-z
loop_
_atom_site_type_symbol
_atom_site_label
_atom_site_fract_x
_atom_site_fract_y
_atom_site_fract_z
Si Si1 0.974650 0.629432 0.318616
Si Si2 0.568212 0.712320 0.634493
Si Si3 0.798758 0.672043 0.441383
Si Si4 0.619228 0.232054 0.079319
Si Si5 0.075795 0.790926 0.421748
Si Si6 0.031918 0.563645 0.111555
O O1 0.870750 0.634902 0.359139
O O2 0.029579 0.722919 0.339482
O O3 0.968774 0.611247 0.197715
O O4 0.027561 0.546409 0.375660
O O5 0.611820 0.611820 0.625000
O O6 0.587615 0.758250 0.743906
O O7 0.459714 0.700690 0.621539
O O8 0.611904 0.774715 0.543779
O O9 0.716677 0.727114 0.385612
O O10 0.843060 0.740965 0.520635
O O11 0.601537 0.133395 0.126320
O O12 0.116820 0.883181 0.375000
O O13 0.000000 0.825146 0.500000
O O14 0.000000 0.593321 0.000000
#
# Coordination Sequence:
#
# PCOD8305810 Si02
#       6
#     8   8   8   8   8   8
#     4  10  20  32  50  75  99 125 163 203 247 297
#     4   9  16  27  47  75 102 127 159 201 244 284
#     4  10  18  30  50  74 101 127 158 203 247 291
#     4  10  18  29  48  74 101 129 162 202 250 294
#     4  10  18  30  50  74  97 122 157 202 252 296
#     4  11  20  32  50  73 101 129 161 202 247 292
#
# _framework density 17.095839000000002
#
# number of rings (size 3 to 8) (size 9 to 14) (size 15 to 20)
#    0.000    2.000    0.000    9.000    0.000    0.000 
#    0.000    0.833    0.000   17.000    0.000    0.000 
#    0.000    0.000    0.000    0.000    0.000    0.000 
#
# Total GULP energy -595107.198230 kJ/mol
# GULP energy per Si atom -12398.066630 kJ/mol
# Density = 1.705693 g / cm^3
# Si number density = 17.095839 Si / 1000 Ang^3
#
#
#
# Elastic Constant Matrix: (Units=GPa)
#
#
# Indices 1 2 3 4 5 6 
#
# 1 102.0926 55.6498 48.2157 0.0000 0.0000 0.0000
# 2 55.6498 102.0918 48.2151 0.0000 0.0000 0.0000
# 3 48.2157 48.2151 108.1710 0.0000 0.0000 0.0000
# 4 0.0000 0.0000 0.0000 24.1900 0.0000 0.0000
# 5 0.0000 0.0000 0.0000 0.0000 24.1906 0.0000
# 6 0.0000 0.0000 0.0000 0.0000 0.0000 25.8271
#
#
#
# Elastic Compliance Matrix: (Units=1/GPa)
#
#
# Indices 1 2 3 4 5 6 
#
# 1 0.015123 -0.006409 -0.003884 0.000000 0.000000 0.000000
# 2 -0.006409 0.015123 -0.003884 0.000000 0.000000 0.000000
# 3 -0.003884 -0.003884 0.012707 0.000000 0.000000 0.000000
# 4 0.000000 0.000000 0.000000 0.041339 0.000000 0.000000
# 5 0.000000 0.000000 0.000000 0.000000 0.041338 0.000000
# 6 0.000000 0.000000 0.000000 0.000000 0.000000 0.038719
#
#
# Mechanical properties :
#
#
# Convention : Reuss Voigt Hill
#
# Bulk Modulus (GPa) = 68.49958 68.50183 68.50070
# Shear Modulus (GPa) = 25.30743 25.52653 25.41698
#
# Velocity S-wave (km/s) = 3.85168 3.86831 3.86000
# Velocity P-wave (km/s) = 7.74180 7.75294 7.74737
#
# Compressibility (1/GPa) = 0.01459863
#
# Stress axis : x y z
#
# Youngs Moduli (GPa) = 66.12475 66.12453 78.69601
#
# Poissons Ratio (x) = 0.42380 0.30566
# Poissons Ratio (y) = 0.42380 0.30566
# Poissons Ratio (z) = 0.25684 0.25683
#
# Static dielectric constant tensor:
#      x y z
#    x 3.203690 0.000000 0.000000 
#    y 0.000000 3.203700 0.000000 
#    z 0.000000 0.000000 3.201280 
# 
# 
# High freq. dielectric constant tensor:
#      x y z
#    x 1.651800 0.000000 0.000000 
#    y 0.000000 1.651800 0.000000 
#    z 0.000000 0.000000 1.641150 
# 
# From -- ./inp_files/3855.got.cif
#   From: 2010.03.12/outbox.cif.g09.slc.cpg/sg95_2_cif.got.tgz:3855.got - 2010.04.08 20:51:55.
