data_PCOD8305390
_publ_section_title
;
Structure prediction by ZEFSAII (Michael W. Deem and Ramdas Pophale) SiO2 
 PCOD8305390
Probable space group: P 41 21 2
;
_chemical_formula_sum "Si O2"
_cell_formula_units_Z 32
_cell_length_a 9.026375
_cell_length_b 9.026375
_cell_length_c 18.203414
_cell_angle_alpha 90.000000
_cell_angle_beta 90.000000
_cell_angle_gamma 90.000000
_cell_volume 1483.131268
_symmetry_space_group_name_H-M "P 41 21 2"
_symmetry_group_IT_number 92
_symmetry_cell_setting 'tetragonal'
loop_
_space_group_symop_operation_xyz
x,y,z
1/2-y,1/2+x,1/4+z
-x,-y,1/2+z
1/2+y,1/2-x,3/4+z
1/2+x,1/2-y,3/4-z
1/2-x,1/2+y,1/4-z
y,x,-z
-y,-x,1/2-z
loop_
_atom_site_type_symbol
_atom_site_label
_atom_site_fract_x
_atom_site_fract_y
_atom_site_fract_z
Si Si1 0.319827 0.100307 0.518318
Si Si2 0.884152 0.591150 0.820263
Si Si3 0.150357 0.844654 0.452759
Si Si4 0.809321 0.805776 0.579962
O O1 0.270504 0.270504 0.500000
O O2 0.471326 0.054367 0.478046
O O3 0.321900 0.072445 0.605960
O O4 0.186692 0.002679 0.485990
O O5 0.776785 0.681440 0.766032
O O6 0.794956 0.449435 0.850880
O O7 0.268608 0.817953 0.387762
O O8 0.981538 0.843938 0.422833
O O9 0.753911 0.753911 0.500000
#
# Coordination Sequence:
#
# PCOD8305390 Si02
#       4
#     8   8   8   8
#     4  12  25  42  67  99 134 183 225 287 347 408
#     4  11  23  45  68  96 140 175 231 284 346 411
#     4  11  23  44  72  98 139 177 233 284 349 416
#     4  10  22  43  70 101 133 178 226 285 342 419
#
# _framework density 21.575975
#
# number of rings (size 3 to 8) (size 9 to 14) (size 15 to 20)
#    0.000    1.000    2.500    5.250    3.500    0.000 
#    4.500    1.250    0.000    0.000    0.000    0.000 
#    0.000    0.000    0.000    0.000    0.000    0.000 
#
# Total GULP energy -396683.772023 kJ/mol
# GULP energy per Si atom -12396.367876 kJ/mol
# Density = 2.152687 g / cm^3
# Si number density = 21.575975 Si / 1000 Ang^3
#
#
#
# Elastic Constant Matrix: (Units=GPa)
#
#
# Indices 1 2 3 4 5 6 
#
# 1 91.5159 36.4416 40.1228 0.0000 0.0000 0.0000
# 2 36.4416 91.5159 40.1228 0.0000 0.0000 0.0000
# 3 40.1228 40.1228 138.7308 0.0000 0.0000 0.0000
# 4 0.0000 0.0000 0.0000 36.4693 0.0000 0.0000
# 5 0.0000 0.0000 0.0000 0.0000 36.4693 0.0000
# 6 0.0000 0.0000 0.0000 0.0000 0.0000 31.7080
#
#
#
# Elastic Compliance Matrix: (Units=1/GPa)
#
#
# Indices 1 2 3 4 5 6 
#
# 1 0.013852 -0.004305 -0.002761 0.000000 0.000000 0.000000
# 2 -0.004305 0.013852 -0.002761 0.000000 0.000000 0.000000
# 3 -0.002761 -0.002761 0.008805 0.000000 0.000000 0.000000
# 4 0.000000 0.000000 0.000000 0.027420 0.000000 0.000000
# 5 0.000000 0.000000 0.000000 0.000000 0.027420 0.000000
# 6 0.000000 0.000000 0.000000 0.000000 0.000000 0.031538
#
#
# Mechanical properties :
#
#
# Convention : Reuss Voigt Hill
#
# Bulk Modulus (GPa) = 59.33161 61.68190 60.50675
# Shear Modulus (GPa) = 33.74722 34.60103 34.17412
#
# Velocity S-wave (km/s) = 3.95917 4.00895 3.98414
# Velocity P-wave (km/s) = 6.96123 7.07666 7.01918
#
# Compressibility (1/GPa) = 0.01685442
#
# Stress axis : x y z
#
# Youngs Moduli (GPa) = 72.19201 72.19201 113.56868
#
# Poissons Ratio (x) = 0.31081 0.31356
# Poissons Ratio (y) = 0.31081 0.31356
# Poissons Ratio (z) = 0.19932 0.19932
#
# Static dielectric constant tensor:
#      x y z
#    x 3.806690 0.000000 0.000000 
#    y 0.000000 3.806690 0.000000 
#    z 0.000000 0.000000 4.063600 
# 
# 
# High freq. dielectric constant tensor:
#      x y z
#    x 1.842570 0.000000 0.000000 
#    y 0.000000 1.842570 0.000000 
#    z 0.000000 0.000000 1.863850 
# 
# From -- ./inp_files/3341.got.cif
#   From: 2010.03.12/outbox.cif.g09.slc.cpg/sg92_2_cif.got.tgz:3341.got - 2010.04.08 20:41:11.
