data_PCOD8305684
_publ_section_title
;
Structure prediction by ZEFSAII (Michael W. Deem and Ramdas Pophale) SiO2 
 PCOD8305684
Probable space group: P 42 21 2
;
_chemical_formula_sum "Si O2"
_cell_formula_units_Z 36
_cell_length_a 8.979087
_cell_length_b 8.979087
_cell_length_c 20.330256
_cell_angle_alpha 90.000000
_cell_angle_beta 90.000000
_cell_angle_gamma 90.000000
_cell_volume 1639.106628
_symmetry_space_group_name_H-M "P 42 21 2"
_symmetry_group_IT_number 94
_symmetry_cell_setting 'tetragonal'
loop_
_space_group_symop_operation_xyz
x,y,z
1/2-y,1/2+x,1/2+z
-x,-y,z
1/2+y,1/2-x,1/2+z
1/2+x,1/2-y,1/2-z
1/2-x,1/2+y,1/2-z
y,x,-z
-y,-x,-z
loop_
_atom_site_type_symbol
_atom_site_label
_atom_site_fract_x
_atom_site_fract_y
_atom_site_fract_z
Si Si1 0.292174 0.292174 0.000000
Si Si2 0.731762 0.837517 0.797377
Si Si3 0.830414 0.198431 0.165766
Si Si4 0.507376 0.163318 0.904388
Si Si5 0.667525 0.936144 0.112506
O O1 0.438217 0.287585 0.953381
O O2 0.144370 0.295586 0.955954
O O3 0.703627 0.796332 0.721981
O O4 0.575728 0.845583 0.834547
O O5 0.825119 0.699265 0.826834
O O6 0.808307 0.001239 0.805392
O O7 0.794548 0.326612 0.113378
O O8 0.796086 0.058360 0.120118
O O9 0.500000 0.000000 0.938531
O O10 0.500000 0.000000 0.115641
#
# Coordination Sequence:
#
# PCOD8305684 Si02
#       5
#     4   8   8   8   8
#     4  10  22  44  62  82 124 168 216 268 314 372
#     4  10  21  38  63  96 130 159 201 258 322 392
#     4  11  21  39  67  97 125 161 205 258 324 389
#     4   9  20  39  61  87 121 160 202 255 311 369
#     4  11  23  41  63  89 124 170 214 262 319 380
#
# _framework density 21.963183000000001
#
# number of rings (size 3 to 8) (size 9 to 14) (size 15 to 20)
#    0.000    1.778    0.000    4.000    0.000    1.778 
#    0.000   40.000    0.000    2.667    0.000    0.000 
#    0.000    0.000    0.000    0.000    0.000    0.000 
#
# Total GULP energy -446173.995938 kJ/mol
# GULP energy per Si atom -12393.722109 kJ/mol
# Density = 2.191319 g / cm^3
# Si number density = 21.963183 Si / 1000 Ang^3
#
#
#
# Elastic Constant Matrix: (Units=GPa)
#
#
# Indices 1 2 3 4 5 6 
#
# 1 84.5878 16.6166 31.5329 0.0000 0.0000 0.0000
# 2 16.6166 84.5878 31.5329 0.0000 0.0000 0.0000
# 3 31.5329 31.5329 97.5073 0.0000 0.0000 0.0000
# 4 0.0000 0.0000 0.0000 16.3823 0.0000 0.0000
# 5 0.0000 0.0000 0.0000 0.0000 16.3823 0.0000
# 6 0.0000 0.0000 0.0000 0.0000 0.0000 38.7315
#
#
#
# Elastic Compliance Matrix: (Units=1/GPa)
#
#
# Indices 1 2 3 4 5 6 
#
# 1 0.013543 -0.001169 -0.004002 0.000000 0.000000 0.000000
# 2 -0.001169 0.013543 -0.004002 0.000000 0.000000 0.000000
# 3 -0.004002 -0.004002 0.012844 0.000000 0.000000 0.000000
# 4 0.000000 0.000000 0.000000 0.061041 0.000000 0.000000
# 5 0.000000 0.000000 0.000000 0.000000 0.061041 0.000000
# 6 0.000000 0.000000 0.000000 0.000000 0.000000 0.025819
#
#
# Mechanical properties :
#
#
# Convention : Reuss Voigt Hill
#
# Bulk Modulus (GPa) = 46.32629 47.33863 46.83246
# Shear Modulus (GPa) = 23.43319 26.76593 25.09956
#
# Velocity S-wave (km/s) = 3.26993 3.49474 3.38420
# Velocity P-wave (km/s) = 5.94938 6.15505 6.05309
#
# Compressibility (1/GPa) = 0.02158601
#
# Stress axis : x y z
#
# Youngs Moduli (GPa) = 73.83642 73.83642 77.85740
#
# Poissons Ratio (x) = 0.08629 0.31158
# Poissons Ratio (y) = 0.08629 0.31158
# Poissons Ratio (z) = 0.29549 0.29549
#
# Static dielectric constant tensor:
#      x y z
#    x 4.058840 0.000000 0.000000 
#    y 0.000000 4.058840 0.000000 
#    z 0.000000 0.000000 3.865300 
# 
# 
# High freq. dielectric constant tensor:
#      x y z
#    x 1.865060 0.000000 0.000000 
#    y 0.000000 1.865060 0.000000 
#    z 0.000000 0.000000 1.861200 
# 
# From -- ./inp_files/4530.got.cif
#   From: 2010.03.12/outbox.cif.g09.slc.cpg/sg94_3_cif.got.tgz:4530.got - 2010.04.08 20:48:32.
