data_PCOD8305445
_publ_section_title
;
Structure prediction by ZEFSAII (Michael W. Deem and Ramdas Pophale) SiO2 
 PCOD8305445
Probable space group: P 41 21 2
;
_chemical_formula_sum "Si O2"
_cell_formula_units_Z 32
_cell_length_a 8.588915
_cell_length_b 8.588915
_cell_length_c 17.534232
_cell_angle_alpha 90.000000
_cell_angle_beta 90.000000
_cell_angle_gamma 90.000000
_cell_volume 1293.490842
_symmetry_space_group_name_H-M "P 41 21 2"
_symmetry_group_IT_number 92
_symmetry_cell_setting 'tetragonal'
loop_
_space_group_symop_operation_xyz
x,y,z
1/2-y,1/2+x,1/4+z
-x,-y,1/2+z
1/2+y,1/2-x,3/4+z
1/2+x,1/2-y,3/4-z
1/2-x,1/2+y,1/4-z
y,x,-z
-y,-x,1/2-z
loop_
_atom_site_type_symbol
_atom_site_label
_atom_site_fract_x
_atom_site_fract_y
_atom_site_fract_z
Si Si1 0.300083 0.046057 0.923652
Si Si2 0.672270 0.965844 0.069601
Si Si3 0.756242 0.940325 0.905938
Si Si4 0.211621 0.979652 0.093829
O O1 0.452134 0.156931 0.908559
O O2 0.139359 0.121147 0.894413
O O3 0.326273 0.903954 0.867230
O O4 0.294642 0.988364 0.010743
O O5 0.852969 0.923980 0.085522
O O6 0.621586 0.143132 0.088777
O O7 0.644423 0.934628 0.980144
O O8 0.819914 0.114306 0.895296
#
# Coordination Sequence:
#
# PCOD8305445 Si02
#       4
#     8   8   8   8
#     4  11  23  43  67  99 135 181 232 286 348 413
#     4  11  22  39  66  98 138 181 229 281 344 410
#     4  11  23  42  67 101 140 180 227 286 342 413
#     4  11  24  44  68  97 137 177 230 287 346 415
#
# _framework density 24.739253000000001
#
# number of rings (size 3 to 8) (size 9 to 14) (size 15 to 20)
#    0.000    1.000    0.000    9.000    0.000    2.000 
#    0.000   15.000    0.000    0.000    0.000    0.000 
#    0.000    0.000    0.000    0.000    0.000    0.000 
#
# Total GULP energy -396462.962396 kJ/mol
# GULP energy per Si atom -12389.467575 kJ/mol
# Density = 2.468295 g / cm^3
# Si number density = 24.739253 Si / 1000 Ang^3
#
#
#
# Elastic Constant Matrix: (Units=GPa)
#
#
# Indices 1 2 3 4 5 6 
#
# 1 79.9431 32.9620 39.9864 0.0000 0.0000 0.0000
# 2 32.9620 79.9431 39.9864 0.0000 0.0000 0.0000
# 3 39.9864 39.9864 74.8374 0.0000 0.0000 0.0000
# 4 0.0000 0.0000 0.0000 41.0137 0.0000 0.0000
# 5 0.0000 0.0000 0.0000 0.0000 41.0137 0.0000
# 6 0.0000 0.0000 0.0000 0.0000 0.0000 68.2036
#
#
#
# Elastic Compliance Matrix: (Units=1/GPa)
#
#
# Indices 1 2 3 4 5 6 
#
# 1 0.017768 -0.003518 -0.007614 0.000000 0.000000 0.000000
# 2 -0.003518 0.017768 -0.007614 0.000000 0.000000 0.000000
# 3 -0.007614 -0.007614 0.021499 0.000000 0.000000 0.000000
# 4 0.000000 0.000000 0.000000 0.024382 0.000000 0.000000
# 5 0.000000 0.000000 0.000000 0.000000 0.024382 0.000000
# 6 0.000000 0.000000 0.000000 0.000000 0.000000 0.014662
#
#
# Mechanical properties :
#
#
# Convention : Reuss Voigt Hill
#
# Bulk Modulus (GPa) = 51.16905 51.17702 51.17304
# Shear Modulus (GPa) = 30.40149 38.16543 34.28346
#
# Velocity S-wave (km/s) = 3.50934 3.93199 3.72666
# Velocity P-wave (km/s) = 6.09498 6.43005 6.26476
#
# Compressibility (1/GPa) = 0.01954306
#
# Stress axis : x y z
#
# Youngs Moduli (GPa) = 56.28209 56.28209 46.51429
#
# Poissons Ratio (x) = 0.19797 0.35416
# Poissons Ratio (y) = 0.19797 0.35416
# Poissons Ratio (z) = 0.42853 0.42853
#
# Static dielectric constant tensor:
#      x y z
#    x 4.618030 0.000000 0.000000 
#    y 0.000000 4.618030 0.000000 
#    z 0.000000 0.000000 4.235700 
# 
# 
# High freq. dielectric constant tensor:
#      x y z
#    x 2.001510 0.000000 0.000000 
#    y 0.000000 2.001510 0.000000 
#    z 0.000000 0.000000 1.966570 
# 
# From -- ./inp_files/3369.got.cif
#   From: 2010.03.12/outbox.cif.g09.slc.cpg/sg92_2_cif.got.tgz:3369.got - 2010.04.08 20:41:11.
