data_PCOD8305134
_publ_section_title
;
Structure prediction by ZEFSAII (Michael W. Deem and Ramdas Pophale) SiO2 
 PCOD8305134
Probable space group: P 41 2 2
;
_chemical_formula_sum "Si O2"
_cell_formula_units_Z 40
_cell_length_a 11.257808
_cell_length_b 11.257808
_cell_length_c 14.717317
_cell_angle_alpha 90.000000
_cell_angle_beta 90.000000
_cell_angle_gamma 90.000000
_cell_volume 1865.246868
_symmetry_space_group_name_H-M "P 41 2 2"
_symmetry_group_IT_number 91
_symmetry_cell_setting 'tetragonal'
loop_
_space_group_symop_operation_xyz
x,y,z
-y,x,1/4+z
-x,-y,1/2+z
y,-x,3/4+z
x,-y,1/2-z
-x,y,-z
y,x,3/4-z
-y,-x,1/4-z
loop_
_atom_site_type_symbol
_atom_site_label
_atom_site_fract_x
_atom_site_fract_y
_atom_site_fract_z
Si Si1 0.482168 0.866535 0.763396
Si Si2 0.850306 0.330465 0.661823
Si Si3 0.973286 0.836048 0.101915
Si Si4 0.513861 0.684148 0.604886
Si Si5 0.698845 0.210637 0.390304
O O1 0.567475 0.812443 0.841191
O O2 0.476147 0.792544 0.670249
O O3 0.352673 0.866245 0.807690
O O4 0.526099 0.000000 0.750000
O O5 0.784679 0.215322 0.625000
O O6 0.818683 0.365911 0.764348
O O7 0.984916 0.278758 0.661324
O O8 0.832521 0.835518 0.111900
O O9 0.035972 0.964029 0.125000
O O10 0.000000 0.800612 0.000000
O O11 0.500000 0.722304 0.500000
O O12 0.434607 0.565394 0.625000
O O13 0.652464 0.665344 0.622965
#
# Coordination Sequence:
#
# PCOD8305134 Si02
#       5
#     8   8   8   8   8
#     4  12  27  46  69 105 149 191 240 305 370 443
#     4  11  21  42  76 103 133 183 246 308 354 425
#     4  11  21  42  72 104 142 188 241 305 364 422
#     4  12  26  49  74 103 150 197 240 311 379 429
#     4  12  25  45  73 109 142 191 248 295 375 448
#
# _framework density 21.444880999999999
#
# number of rings (size 3 to 8) (size 9 to 14) (size 15 to 20)
#    0.000    0.400    8.000    2.400    0.000    6.400 
#    0.000    0.000    0.000    0.000    0.000    0.000 
#    0.000    0.000    0.000    0.000    0.000    0.000 
#
# Total GULP energy -495605.796589 kJ/mol
# GULP energy per Si atom -12390.144915 kJ/mol
# Density = 2.139607 g / cm^3
# Si number density = 21.444881 Si / 1000 Ang^3
#
#
#
# Elastic Constant Matrix: (Units=GPa)
#
#
# Indices 1 2 3 4 5 6 
#
# 1 108.0339 38.2374 51.7338 0.0000 0.0000 0.0000
# 2 38.2374 108.0352 51.7340 0.0000 0.0000 0.0000
# 3 51.7338 51.7340 185.3099 0.0000 0.0000 0.0000
# 4 0.0000 0.0000 0.0000 30.0519 0.0000 0.0000
# 5 0.0000 0.0000 0.0000 0.0000 30.0421 0.0000
# 6 0.0000 0.0000 0.0000 0.0000 0.0000 20.0183
#
#
#
# Elastic Compliance Matrix: (Units=1/GPa)
#
#
# Indices 1 2 3 4 5 6 
#
# 1 0.011423 -0.002904 -0.002378 0.000000 0.000000 0.000000
# 2 -0.002904 0.011423 -0.002378 0.000000 0.000000 0.000000
# 3 -0.002378 -0.002378 0.006724 0.000000 0.000000 0.000000
# 4 0.000000 0.000000 0.000000 0.033276 0.000000 0.000000
# 5 0.000000 0.000000 0.000000 0.000000 0.033287 0.000000
# 6 0.000000 0.000000 0.000000 0.000000 0.000000 0.049954
#
#
# Mechanical properties :
#
#
# Convention : Reuss Voigt Hill
#
# Bulk Modulus (GPa) = 70.18041 76.08771 73.13406
# Shear Modulus (GPa) = 30.09184 33.33406 31.71295
#
# Velocity S-wave (km/s) = 3.75002 3.94687 3.84970
# Velocity P-wave (km/s) = 7.17964 7.50520 7.34422
#
# Compressibility (1/GPa) = 0.01424899
#
# Stress axis : x y z
#
# Youngs Moduli (GPa) = 87.54170 87.54283 148.71515
#
# Poissons Ratio (x) = 0.25424 0.35368
# Poissons Ratio (y) = 0.25424 0.35368
# Poissons Ratio (z) = 0.20820 0.20820
#
# Static dielectric constant tensor:
#      x y z
#    x 7.549160 0.000000 0.000000 
#    y 0.000000 7.554220 0.000000 
#    z 0.000000 0.000000 4.165980 
# 
# 
# High freq. dielectric constant tensor:
#      x y z
#    x 1.841420 0.000000 0.000000 
#    y 0.000000 1.841420 0.000000 
#    z 0.000000 0.000000 1.855420 
# 
# From -- ./inp_files/4766.got.cif
#   From: 2010.03.12/outbox.cif.g09.slc.cpg/sg91_3_cif.got.tgz:4766.got - 2010.04.08 20:27:58.
