data_PCOD8305895
_publ_section_title
;
Structure prediction by ZEFSAII (Michael W. Deem and Ramdas Pophale) SiO2 
 PCOD8305895
Probable space group: P 43 21 2
;
_chemical_formula_sum "Si O2"
_cell_formula_units_Z 48
_cell_length_a 22.458329
_cell_length_b 22.458329
_cell_length_c 5.265667
_cell_angle_alpha 90.000000
_cell_angle_beta 90.000000
_cell_angle_gamma 90.000000
_cell_volume 2655.878910
_symmetry_space_group_name_H-M "P 43 21 2"
_symmetry_group_IT_number 96
_symmetry_cell_setting 'tetragonal'
loop_
_space_group_symop_operation_xyz
x,y,z
1/2-y,1/2+x,3/4+z
-x,-y,1/2+z
1/2+y,1/2-x,1/4+z
1/2+x,1/2-y,1/4-z
1/2-x,1/2+y,3/4-z
y,x,-z
-y,-x,1/2-z
loop_
_atom_site_type_symbol
_atom_site_label
_atom_site_fract_x
_atom_site_fract_y
_atom_site_fract_z
Si Si1 0.004707 0.671365 0.758761
Si Si2 0.279847 0.044614 0.216405
Si Si3 0.941366 0.566628 0.919757
Si Si4 0.376858 0.141569 0.194754
Si Si5 0.216741 0.736313 0.498279
Si Si6 0.363914 0.682819 0.000948
O O1 0.001194 0.717049 0.520861
O O2 0.960886 0.614209 0.702011
O O3 0.073508 0.648295 0.780847
O O4 0.986002 0.702576 0.019978
O O5 0.323688 0.097285 0.125755
O O6 0.213752 0.071182 0.247006
O O7 0.929849 0.499073 0.851306
O O8 0.881936 0.588029 0.059398
O O9 0.348257 0.205976 0.252780
O O10 0.221980 0.778021 0.250000
O O11 0.267607 0.686768 0.489526
O O12 0.223610 0.776391 0.750000
O O13 0.358791 0.641210 0.250000
O O14 0.357419 0.642582 0.750000
#
# Coordination Sequence:
#
# PCOD8305895 Si02
#       6
#     8   8   8   8   8   8
#     4  11  21  33  46  65  91 124 159 199 242 280
#     4  10  21  32  46  67  90 116 158 198 231 278
#     4  11  21  33  48  68  96 131 174 213 247 281
#     4  10  20  33  49  66  90 124 159 200 246 284
#     4   9  19  32  48  67  85 108 149 200 244 287
#     4   9  16  29  47  65  85 111 143 188 237 276
#
# _framework density 18.073112999999999
#
# number of rings (size 3 to 8) (size 9 to 14) (size 15 to 20)
#    0.000    2.000    0.000    5.000    0.000   12.000 
#    0.000    0.000    0.000    0.000    0.000    0.000 
#    0.000    0.000    0.000    0.000    0.000   46.667 
#
# Total GULP energy -594915.890740 kJ/mol
# GULP energy per Si atom -12394.081057 kJ/mol
# Density = 1.803198 g / cm^3
# Si number density = 18.073113 Si / 1000 Ang^3
#
#
#
# Elastic Constant Matrix: (Units=GPa)
#
#
# Indices 1 2 3 4 5 6 
#
# 1 37.8513 27.3989 24.8561 0.0000 0.0000 0.0000
# 2 27.3989 37.8514 24.8562 0.0000 0.0000 0.0000
# 3 24.8561 24.8562 114.5301 0.0000 0.0000 0.0000
# 4 0.0000 0.0000 0.0000 20.8441 0.0000 0.0000
# 5 0.0000 0.0000 0.0000 0.0000 20.8442 0.0000
# 6 0.0000 0.0000 0.0000 0.0000 0.0000 30.3523
#
#
#
# Elastic Compliance Matrix: (Units=1/GPa)
#
#
# Indices 1 2 3 4 5 6 
#
# 1 0.057016 -0.038655 -0.003985 0.000000 0.000000 0.000000
# 2 -0.038655 0.057016 -0.003985 0.000000 0.000000 0.000000
# 3 -0.003985 -0.003985 0.010461 0.000000 0.000000 0.000000
# 4 0.000000 0.000000 0.000000 0.047975 0.000000 0.000000
# 5 0.000000 0.000000 0.000000 0.000000 0.047975 0.000000
# 6 0.000000 0.000000 0.000000 0.000000 0.000000 0.032946
#
#
# Mechanical properties :
#
#
# Convention : Reuss Voigt Hill
#
# Bulk Modulus (GPa) = 32.00571 38.27278 35.13924
# Shear Modulus (GPa) = 14.00348 21.94956 17.97652
#
# Velocity S-wave (km/s) = 2.78659 3.48873 3.15724
# Velocity P-wave (km/s) = 5.30103 6.11972 5.72502
#
# Compressibility (1/GPa) = 0.03124442
#
# Stress axis : x y z
#
# Youngs Moduli (GPa) = 17.53885 17.53889 95.59294
#
# Poissons Ratio (x) = 0.67796 0.38093
# Poissons Ratio (y) = 0.67796 0.38094
# Poissons Ratio (z) = 0.06989 0.06989
#
# Static dielectric constant tensor:
#      x y z
#    x 3.248490 0.000000 0.000000 
#    y 0.000000 3.248490 0.000000 
#    z 0.000000 0.000000 3.420980 
# 
# 
# High freq. dielectric constant tensor:
#      x y z
#    x 1.659480 0.000000 0.000000 
#    y 0.000000 1.659480 0.000000 
#    z 0.000000 0.000000 1.716570 
# 
# From -- ./inp_files/630.got.cif
#   From: 2010.03.12/outbox.cif.g09.slc.cpg/sg96_1_cif.got.tgz:630.got - 2010.04.08 20:56:49.
