data_PCOD8305315
_publ_section_title
;
Structure prediction by ZEFSAII (Michael W. Deem and Ramdas Pophale) SiO2 
 PCOD8305315
Probable space group: P 41 21 2
;
_chemical_formula_sum "Si O2"
_cell_formula_units_Z 40
_cell_length_a 13.896224
_cell_length_b 13.896224
_cell_length_c 8.507940
_cell_angle_alpha 90.000000
_cell_angle_beta 90.000000
_cell_angle_gamma 90.000000
_cell_volume 1642.926106
_symmetry_space_group_name_H-M "P 41 21 2"
_symmetry_group_IT_number 92
_symmetry_cell_setting 'tetragonal'
loop_
_space_group_symop_operation_xyz
x,y,z
1/2-y,1/2+x,1/4+z
-x,-y,1/2+z
1/2+y,1/2-x,3/4+z
1/2+x,1/2-y,3/4-z
1/2-x,1/2+y,1/4-z
y,x,-z
-y,-x,1/2-z
loop_
_atom_site_type_symbol
_atom_site_label
_atom_site_fract_x
_atom_site_fract_y
_atom_site_fract_z
Si Si1 0.273854 0.460963 0.597671
Si Si2 0.731831 0.397658 0.641692
Si Si3 0.431277 0.932674 0.239994
Si Si4 0.613944 0.540847 0.782922
Si Si5 0.319421 0.100698 0.419547
O O1 0.340224 0.491507 0.451329
O O2 0.344258 0.405367 0.721217
O O3 0.230209 0.557714 0.675105
O O4 0.189822 0.388725 0.538511
O O5 0.656859 0.343142 0.750000
O O6 0.832588 0.380141 0.729672
O O7 0.693680 0.509169 0.651623
O O8 0.739218 0.364903 0.459506
O O9 0.541665 0.932444 0.305706
O O10 0.376780 0.016909 0.331729
O O11 0.512940 0.487061 0.750000
#
# Coordination Sequence:
#
# PCOD8305315 Si02
#       5
#     8   8   8   8   8
#     4  11  25  50  78 112 155 203 266 320 392 471
#     4  10  23  43  68 106 152 205 259 310 389 461
#     4  10  21  38  63  99 147 188 234 308 392 441
#     4  10  26  52  72 106 151 212 261 312 395 449
#     4  11  23  44  71 116 149 192 254 323 392 463
#
# _framework density 24.346803000000001
#
# number of rings (size 3 to 8) (size 9 to 14) (size 15 to 20)
#    0.000    1.600    4.000    0.000    2.800   10.400 
#   21.600    0.000    0.000    0.000    0.000    0.000 
#    0.000    0.000    0.000    0.000    0.000    0.000 
#
# Total GULP energy -495618.986608 kJ/mol
# GULP energy per Si atom -12390.474665 kJ/mol
# Density = 2.429139 g / cm^3
# Si number density = 24.346803 Si / 1000 Ang^3
#
#
#
# Elastic Constant Matrix: (Units=GPa)
#
#
# Indices 1 2 3 4 5 6 
#
# 1 113.7763 42.3905 32.5100 0.0000 0.0000 0.0000
# 2 42.3905 113.7719 32.5094 0.0000 0.0000 0.0000
# 3 32.5100 32.5094 81.5968 0.0000 0.0000 0.0000
# 4 0.0000 0.0000 0.0000 36.6146 0.0000 0.0000
# 5 0.0000 0.0000 0.0000 0.0000 36.6150 0.0000
# 6 0.0000 0.0000 0.0000 0.0000 0.0000 44.2501
#
#
#
# Elastic Compliance Matrix: (Units=1/GPa)
#
#
# Indices 1 2 3 4 5 6 
#
# 1 0.010843 -0.003166 -0.003059 0.000000 0.000000 0.000000
# 2 -0.003166 0.010843 -0.003059 0.000000 0.000000 0.000000
# 3 -0.003059 -0.003059 0.014693 0.000000 0.000000 0.000000
# 4 0.000000 0.000000 0.000000 0.027312 0.000000 0.000000
# 5 0.000000 0.000000 0.000000 0.000000 0.027311 0.000000
# 6 0.000000 0.000000 0.000000 0.000000 0.000000 0.022599
#
#
# Mechanical properties :
#
#
# Convention : Reuss Voigt Hill
#
# Bulk Modulus (GPa) = 56.14200 58.21830 57.18015
# Shear Modulus (GPa) = 36.20467 36.94495 36.57481
#
# Velocity S-wave (km/s) = 3.86040 3.89967 3.88008
# Velocity P-wave (km/s) = 6.55588 6.65136 6.60379
#
# Compressibility (1/GPa) = 0.01781198
#
# Stress axis : x y z
#
# Youngs Moduli (GPa) = 92.22809 92.22450 68.06136
#
# Poissons Ratio (x) = 0.29198 0.20817
# Poissons Ratio (y) = 0.29199 0.20818
# Poissons Ratio (z) = 0.28209 0.28209
#
# Static dielectric constant tensor:
#      x y z
#    x 4.652090 0.000000 0.000000 
#    y 0.000000 4.652100 0.000000 
#    z 0.000000 0.000000 4.937090 
# 
# 
# High freq. dielectric constant tensor:
#      x y z
#    x 1.967860 0.000000 0.000000 
#    y 0.000000 1.967860 0.000000 
#    z 0.000000 0.000000 1.957540 
# 
# From -- ./inp_files/1342.got.cif
#   From: 2010.03.12/outbox.cif.g09.slc.cpg/sg92_1_cif.got.tgz:1342.got - 2010.04.08 20:41:11.
