data_PCOD8305122
_publ_section_title
;
Structure prediction by ZEFSAII (Michael W. Deem and Ramdas Pophale) SiO2 
 PCOD8305122
Probable space group: P 41 2 2
;
_chemical_formula_sum "Si O2"
_cell_formula_units_Z 64
_cell_length_a 23.026120
_cell_length_b 23.026120
_cell_length_c 10.382836
_cell_angle_alpha 90.000000
_cell_angle_beta 90.000000
_cell_angle_gamma 90.000000
_cell_volume 5505.002513
_symmetry_space_group_name_H-M "P 41 2 2"
_symmetry_group_IT_number 91
_symmetry_cell_setting 'tetragonal'
loop_
_space_group_symop_operation_xyz
x,y,z
-y,x,1/4+z
-x,-y,1/2+z
y,-x,3/4+z
x,-y,1/2-z
-x,y,-z
y,x,3/4-z
-y,-x,1/4-z
loop_
_atom_site_type_symbol
_atom_site_label
_atom_site_fract_x
_atom_site_fract_y
_atom_site_fract_z
Si Si1 0.074763 0.430687 0.248886
Si Si2 0.568496 0.867679 0.260557
Si Si3 0.375068 0.424820 0.505397
Si Si4 0.252758 0.570699 0.892842
Si Si5 0.562238 0.621126 0.255846
Si Si6 0.430836 0.943613 0.501321
Si Si7 0.869954 0.430088 0.488642
Si Si8 0.744848 0.567116 0.396312
O O1 0.074113 0.500000 0.250000
O O2 0.107190 0.406116 0.375034
O O3 0.009093 0.406697 0.244658
O O4 0.108925 0.406845 0.124544
O O5 0.592367 0.908581 0.374780
O O6 0.499305 0.869460 0.260727
O O7 0.590967 0.801754 0.279925
O O8 0.395138 0.395138 0.375000
O O9 0.307999 0.407410 0.526677
O O10 0.382465 0.493389 0.496006
O O11 0.412847 0.402096 0.623285
O O12 0.251373 0.501686 0.885942
O O13 0.256896 0.594546 0.746827
O O14 0.194731 0.594194 0.962302
O O15 0.581440 0.581440 0.375000
O O16 0.584884 0.686916 0.276883
O O17 0.500000 0.943772 0.500000
O O18 0.407124 0.912697 0.372835
#
# Coordination Sequence:
#
# PCOD8305122 Si02
#       8
#     8   8   8   8   8   8   8   8
#     4   9  16  21  28  49  73  88 106 131 152 164
#     4   9  15  23  35  49  65  87 110 130 147 168
#     4  11  23  34  45  61  74  82  97 127 168 210
#     4   9  16  29  43  53  66  84 106 127 149 187
#     4  11  21  34  49  59  70  86 101 124 160 211
#     4   9  14  21  32  46  67  92 112 127 145 169
#     4   9  15  23  36  48  64  89 110 127 147 173
#     4   9  16  28  44  55  63  83 111 126 144 187
#
# _framework density 11.62579
#
# number of rings (size 3 to 8) (size 9 to 14) (size 15 to 20)
#    0.000    2.500    2.500    1.500    0.000    5.500 
#    0.000    3.750    0.000    0.000    0.000    0.000 
#    0.000    0.000    0.000    0.000    0.000    0.000 
#
# Total GULP energy -793390.122892 kJ/mol
# GULP energy per Si atom -12396.720670 kJ/mol
# Density = 1.159933 g / cm^3
# Si number density = 11.625790 Si / 1000 Ang^3
#
#
#
# Elastic Constant Matrix: (Units=GPa)
#
#
# Indices 1 2 3 4 5 6 
#
# 1 61.4010 20.6100 39.8293 0.0000 0.0000 0.0000
# 2 20.6100 61.4010 39.8293 0.0000 0.0000 0.0000
# 3 39.8293 39.8293 121.3132 0.0000 0.0000 0.0000
# 4 0.0000 0.0000 0.0000 3.9802 0.0000 0.0000
# 5 0.0000 0.0000 0.0000 0.0000 3.9802 0.0000
# 6 0.0000 0.0000 0.0000 0.0000 0.0000 -0.3571
#
#
#
# Elastic Compliance Matrix: (Units=1/GPa)
#
#
# Indices 1 2 3 4 5 6 
#
# 1 0.021209 -0.003306 -0.005878 0.000000 0.000000 0.000000
# 2 -0.003306 0.021209 -0.005878 0.000000 0.000000 0.000000
# 3 -0.005878 -0.005878 0.012103 0.000000 0.000000 0.000000
# 4 0.000000 0.000000 0.000000 0.251245 0.000000 0.000000
# 5 0.000000 0.000000 0.000000 0.000000 0.251245 0.000000
# 6 0.000000 0.000000 0.000000 0.000000 0.000000 -2.800641
#
#
# Mechanical properties :
#
#
# Convention : Reuss Voigt Hill
#
# Bulk Modulus (GPa) = 40.98878 49.40584 45.19731
# Shear Modulus (GPa) = -2.26719 11.11043 4.42162
#
# Velocity S-wave (km/s) = -1.39799 3.09475 1.95232
# Velocity P-wave (km/s) = 5.72079 7.44036 6.63651
#
# Compressibility (1/GPa) = 0.02439692
#
# Stress axis : x y z
#
# Youngs Moduli (GPa) = 47.14997 47.14997 82.62628
#
# Poissons Ratio (x) = 0.15589 0.48566
# Poissons Ratio (y) = 0.15589 0.48566
# Poissons Ratio (z) = 0.27714 0.27714
#
# Static dielectric constant tensor:
#      x y z
#    x 2.290920 0.000000 0.000000 
#    y 0.000000 2.290920 0.000000 
#    z 0.000000 0.000000 2.612700 
# 
# 
# High freq. dielectric constant tensor:
#      x y z
#    x 1.400560 0.000000 0.000000 
#    y 0.000000 1.400560 0.000000 
#    z 0.000000 0.000000 1.458570 
# 
# From -- ./inp_files/4083.got.cif
#   From: 2010.03.12/outbox.cif.g09.slc.cpg/sg91_3_cif.got.tgz:4083.got - 2010.04.08 20:27:58.
