data_PCOD8305345
_publ_section_title
;
Structure prediction by ZEFSAII (Michael W. Deem and Ramdas Pophale) SiO2 
 PCOD8305345
Probable space group: P 41 21 2
;
_chemical_formula_sum "Si O2"
_cell_formula_units_Z 32
_cell_length_a 12.802896
_cell_length_b 12.802896
_cell_length_c 9.119540
_cell_angle_alpha 90.000000
_cell_angle_beta 90.000000
_cell_angle_gamma 90.000000
_cell_volume 1494.821611
_symmetry_space_group_name_H-M "P 41 21 2"
_symmetry_group_IT_number 92
_symmetry_cell_setting 'tetragonal'
loop_
_space_group_symop_operation_xyz
x,y,z
1/2-y,1/2+x,1/4+z
-x,-y,1/2+z
1/2+y,1/2-x,3/4+z
1/2+x,1/2-y,3/4-z
1/2-x,1/2+y,1/4-z
y,x,-z
-y,-x,1/2-z
loop_
_atom_site_type_symbol
_atom_site_label
_atom_site_fract_x
_atom_site_fract_y
_atom_site_fract_z
Si Si1 0.597597 0.036870 0.967546
Si Si2 0.552014 0.589273 0.831368
Si Si3 0.727839 0.707192 0.327046
Si Si4 0.257293 0.127182 0.599038
O O1 0.571482 0.007574 0.800545
O O2 0.674223 0.135560 0.966946
O O3 0.636881 0.930394 0.048998
O O4 0.517159 0.482841 0.750000
O O5 0.654953 0.625701 0.744911
O O6 0.458636 0.670226 0.824356
O O7 0.574419 0.574419 0.000000
O O8 0.714364 0.714364 0.500000
O O9 0.737364 0.825652 0.263843
O O10 0.229060 0.229060 0.500000
#
# Coordination Sequence:
#
# PCOD8305345 Si02
#       4
#     8   8   8   8
#     4  11  25  43  66  98 135 175 221 276 330 397
#     4  10  22  40  65  95 126 168 216 274 329 392
#     4  11  24  43  65  93 132 174 222 271 327 398
#     4  10  21  43  65  88 129 172 216 268 332 388
#
# _framework density 21.407236999999999
#
# number of rings (size 3 to 8) (size 9 to 14) (size 15 to 20)
#    0.000    1.500    2.500    1.500    7.000    1.000 
#    4.500    0.000    0.000    0.000    0.000    0.000 
#    0.000    0.000    0.000    0.000    0.000    0.000 
#
# Total GULP energy -396702.913383 kJ/mol
# GULP energy per Si atom -12396.966043 kJ/mol
# Density = 2.135851 g / cm^3
# Si number density = 21.407237 Si / 1000 Ang^3
#
#
#
# Elastic Constant Matrix: (Units=GPa)
#
#
# Indices 1 2 3 4 5 6 
#
# 1 36.6545 0.7537 -1.6293 0.0000 0.0000 0.0000
# 2 0.7537 36.6548 -1.6297 0.0000 0.0000 0.0000
# 3 -1.6293 -1.6297 124.6114 0.0000 0.0000 0.0000
# 4 0.0000 0.0000 0.0000 42.8651 0.0000 0.0000
# 5 0.0000 0.0000 0.0000 0.0000 42.8648 0.0000
# 6 0.0000 0.0000 0.0000 0.0000 0.0000 10.5201
#
#
#
# Elastic Compliance Matrix: (Units=1/GPa)
#
#
# Indices 1 2 3 4 5 6 
#
# 1 0.027309 -0.000546 0.000350 0.000000 0.000000 0.000000
# 2 -0.000546 0.027308 0.000350 0.000000 0.000000 0.000000
# 3 0.000350 0.000350 0.008034 0.000000 0.000000 0.000000
# 4 0.000000 0.000000 0.000000 0.023329 0.000000 0.000000
# 5 0.000000 0.000000 0.000000 0.000000 0.023329 0.000000
# 6 0.000000 0.000000 0.000000 0.000000 0.000000 0.095056
#
#
# Mechanical properties :
#
#
# Convention : Reuss Voigt Hill
#
# Bulk Modulus (GPa) = 15.88336 21.43444 18.65890
# Shear Modulus (GPa) = 22.21792 32.61174 27.41483
#
# Velocity S-wave (km/s) = 3.22509 3.90731 3.58248
# Velocity P-wave (km/s) = 4.61563 5.51276 5.08402
#
# Compressibility (1/GPa) = 0.06295898
#
# Stress axis : x y z
#
# Youngs Moduli (GPa) = 36.61860 36.61885 124.46943
#
# Poissons Ratio (x) = 0.01999 -0.04355
# Poissons Ratio (y) = 0.01999 -0.04357
# Poissons Ratio (z) = -0.01281 -0.01282
#
# Static dielectric constant tensor:
#      x y z
#    x 3.893100 0.000000 0.000000 
#    y 0.000000 3.893090 0.000000 
#    z 0.000000 0.000000 12.313080 
# 
# 
# High freq. dielectric constant tensor:
#      x y z
#    x 1.835570 0.000000 0.000000 
#    y 0.000000 1.835570 0.000000 
#    z 0.000000 0.000000 1.844750 
# 
# From -- ./inp_files/1134.got.cif
#   From: 2010.03.12/outbox.cif.g09.slc.cpg/sg92_1_cif.got.tgz:1134.got - 2010.04.08 20:41:11.
