data_PCOD8305419
_publ_section_title
;
Structure prediction by ZEFSAII (Michael W. Deem and Ramdas Pophale) SiO2 
 PCOD8305419
Probable space group: P 41 21 2
;
_chemical_formula_sum "Si O2"
_cell_formula_units_Z 36
_cell_length_a 12.875223
_cell_length_b 12.875223
_cell_length_c 10.163355
_cell_angle_alpha 90.000000
_cell_angle_beta 90.000000
_cell_angle_gamma 90.000000
_cell_volume 1684.793255
_symmetry_space_group_name_H-M "P 41 21 2"
_symmetry_group_IT_number 92
_symmetry_cell_setting 'tetragonal'
loop_
_space_group_symop_operation_xyz
x,y,z
1/2-y,1/2+x,1/4+z
-x,-y,1/2+z
1/2+y,1/2-x,3/4+z
1/2+x,1/2-y,3/4-z
1/2-x,1/2+y,1/4-z
y,x,-z
-y,-x,1/2-z
loop_
_atom_site_type_symbol
_atom_site_label
_atom_site_fract_x
_atom_site_fract_y
_atom_site_fract_z
Si Si1 0.028349 0.809147 0.300638
Si Si2 0.685597 0.835166 0.314888
Si Si3 0.365214 0.634787 0.250000
Si Si4 0.245497 0.654922 0.871694
Si Si5 0.913943 0.525552 0.065931
O O1 0.954865 0.879384 0.392425
O O2 0.960239 0.767413 0.178595
O O3 0.079183 0.715815 0.383991
O O4 0.121872 0.878129 0.250000
O O5 0.750542 0.877444 0.438699
O O6 0.757636 0.754503 0.234526
O O7 0.660818 0.930514 0.219573
O O8 0.322530 0.677471 0.750000
O O9 0.127561 0.657669 0.820664
O O10 0.965132 0.505188 0.207998
#
# Coordination Sequence:
#
# PCOD8305419 Si02
#       5
#     8   8   4   8   8
#     4  11  25  44  74  98 142 184 226 289 349 424
#     4  11  23  47  70 101 139 183 236 287 355 414
#     4  10  24  44  66 104 134 182 234 282 350 426
#     4  11  26  46  68 107 141 179 232 290 352 422
#     4  12  25  43  73 105 141 188 236 296 347 417
#
# _framework density 21.367608000000001
#
# number of rings (size 3 to 8) (size 9 to 14) (size 15 to 20)
#    0.000    0.889    3.333    2.667    4.667    1.778 
#    4.000    0.000    0.000    0.000    0.000    0.000 
#    0.000    0.000    0.000    0.000    0.000    0.000 
#
# Total GULP energy -446613.554401 kJ/mol
# GULP energy per Si atom -12405.932067 kJ/mol
# Density = 2.131897 g / cm^3
# Si number density = 21.367608 Si / 1000 Ang^3
#
#
#
# Elastic Constant Matrix: (Units=GPa)
#
#
# Indices 1 2 3 4 5 6 
#
# 1 115.1249 48.4660 43.6281 0.0000 0.0000 0.0000
# 2 48.4660 115.1274 43.6283 0.0000 0.0000 0.0000
# 3 43.6281 43.6283 114.6784 0.0000 0.0000 0.0000
# 4 0.0000 0.0000 0.0000 38.4818 0.0000 0.0000
# 5 0.0000 0.0000 0.0000 0.0000 38.4813 0.0000
# 6 0.0000 0.0000 0.0000 0.0000 0.0000 27.9258
#
#
#
# Elastic Compliance Matrix: (Units=1/GPa)
#
#
# Indices 1 2 3 4 5 6 
#
# 1 0.011335 -0.003666 -0.002918 0.000000 0.000000 0.000000
# 2 -0.003666 0.011335 -0.002918 0.000000 0.000000 0.000000
# 3 -0.002918 -0.002918 0.010940 0.000000 0.000000 0.000000
# 4 0.000000 0.000000 0.000000 0.025986 0.000000 0.000000
# 5 0.000000 0.000000 0.000000 0.000000 0.025987 0.000000
# 6 0.000000 0.000000 0.000000 0.000000 0.000000 0.035809
#
#
# Mechanical properties :
#
#
# Convention : Reuss Voigt Hill
#
# Bulk Modulus (GPa) = 68.45774 68.48616 68.47195
# Shear Modulus (GPa) = 34.41996 34.92498 34.67247
#
# Velocity S-wave (km/s) = 4.01789 4.04726 4.03260
# Velocity P-wave (km/s) = 7.32340 7.34584 7.33463
#
# Compressibility (1/GPa) = 0.01460755
#
# Stress axis : x y z
#
# Youngs Moduli (GPa) = 88.21974 88.22190 91.40806
#
# Poissons Ratio (x) = 0.32344 0.26669
# Poissons Ratio (y) = 0.32344 0.26668
# Poissons Ratio (z) = 0.25739 0.25739
#
# Static dielectric constant tensor:
#      x y z
#    x 3.710710 0.000000 0.000000 
#    y 0.000000 3.710700 0.000000 
#    z 0.000000 0.000000 4.102520 
# 
# 
# High freq. dielectric constant tensor:
#      x y z
#    x 1.834600 0.000000 0.000000 
#    y 0.000000 1.834600 0.000000 
#    z 0.000000 0.000000 1.858550 
# 
# From -- ./inp_files/2021.got.cif
#   From: 2010.03.12/outbox.cif.g09.slc.cpg/sg92_2_cif.got.tgz:2021.got - 2010.04.08 20:41:11.
