data_PCOD8305158
_publ_section_title
;
Structure prediction by ZEFSAII (Michael W. Deem and Ramdas Pophale) SiO2 
 PCOD8305158
Probable space group: P 41 2 2
;
_chemical_formula_sum "Si O2"
_cell_formula_units_Z 36
_cell_length_a 11.213311
_cell_length_b 11.213311
_cell_length_c 11.810069
_cell_angle_alpha 90.000000
_cell_angle_beta 90.000000
_cell_angle_gamma 90.000000
_cell_volume 1484.978514
_symmetry_space_group_name_H-M "P 41 2 2"
_symmetry_group_IT_number 91
_symmetry_cell_setting 'tetragonal'
loop_
_space_group_symop_operation_xyz
x,y,z
-y,x,1/4+z
-x,-y,1/2+z
y,-x,3/4+z
x,-y,1/2-z
-x,y,-z
y,x,3/4-z
-y,-x,1/4-z
loop_
_atom_site_type_symbol
_atom_site_label
_atom_site_fract_x
_atom_site_fract_y
_atom_site_fract_z
Si Si1 0.288958 0.626327 0.293583
Si Si2 0.554185 0.954934 0.360066
Si Si3 0.316902 0.942654 0.062507
Si Si4 0.547059 0.303973 0.211023
Si Si5 0.053592 0.946409 0.125000
O O1 0.243611 0.500000 0.250000
O O2 0.189579 0.712014 0.238270
O O3 0.418588 0.654095 0.243024
O O4 0.288627 0.633252 0.430661
O O5 0.523627 0.816183 0.357866
O O6 0.625176 0.000000 0.250000
O O7 0.647145 0.968963 0.460888
O O8 0.435000 0.040951 0.359122
O O9 0.194327 0.980558 0.122266
O O10 0.597986 0.402015 0.125000
O O11 0.008294 0.000000 0.250000
#
# Coordination Sequence:
#
# PCOD8305158 Si02
#       5
#     8   8   8   8   4
#     4  12  24  43  68 107 148 194 246 305 382 471
#     4  11  23  47  70 108 151 195 255 313 387 462
#     4  11  26  44  78 106 140 205 251 320 388 462
#     4  12  27  42  69 107 152 194 245 314 389 465
#     4  12  32  56  80 112 152 206 272 336 396 462
#
# _framework density 24.242774000000001
#
# number of rings (size 3 to 8) (size 9 to 14) (size 15 to 20)
#    0.000    0.444    4.444    3.333   15.556    0.889 
#    2.000    0.000    0.000    0.000    0.000    0.000 
#    0.000    0.000    0.000    0.000    0.000    0.000 
#
# Total GULP energy -445996.590116 kJ/mol
# GULP energy per Si atom -12388.794170 kJ/mol
# Density = 2.418760 g / cm^3
# Si number density = 24.242774 Si / 1000 Ang^3
#
#
#
# Elastic Constant Matrix: (Units=GPa)
#
#
# Indices 1 2 3 4 5 6 
#
# 1 91.8361 23.0890 13.8889 0.0000 0.0000 0.0000
# 2 23.0890 91.8340 13.8877 0.0000 0.0000 0.0000
# 3 13.8889 13.8877 126.0695 0.0000 0.0000 0.0000
# 4 0.0000 0.0000 0.0000 34.5843 0.0000 0.0000
# 5 0.0000 0.0000 0.0000 0.0000 34.5843 0.0000
# 6 0.0000 0.0000 0.0000 0.0000 0.0000 8.8802
#
#
#
# Elastic Compliance Matrix: (Units=1/GPa)
#
#
# Indices 1 2 3 4 5 6 
#
# 1 0.011743 -0.002803 -0.000985 0.000000 0.000000 0.000000
# 2 -0.002803 0.011743 -0.000985 0.000000 0.000000 0.000000
# 3 -0.000985 -0.000985 0.008149 0.000000 0.000000 0.000000
# 4 0.000000 0.000000 0.000000 0.028915 0.000000 0.000000
# 5 0.000000 0.000000 0.000000 0.000000 0.028915 0.000000
# 6 0.000000 0.000000 0.000000 0.000000 0.000000 0.112610
#
#
# Mechanical properties :
#
#
# Convention : Reuss Voigt Hill
#
# Bulk Modulus (GPa) = 45.27192 45.71898 45.49545
# Shear Modulus (GPa) = 22.83272 32.86802 27.85037
#
# Velocity S-wave (km/s) = 3.07226 3.68609 3.39309
# Velocity P-wave (km/s) = 5.59464 6.08409 5.84449
#
# Compressibility (1/GPa) = 0.02208875
#
# Stress axis : x y z
#
# Youngs Moduli (GPa) = 85.15905 85.15733 122.71281
#
# Poissons Ratio (x) = 0.23873 0.12085
# Poissons Ratio (y) = 0.23874 0.12084
# Poissons Ratio (z) = 0.08387 0.08386
#
# Static dielectric constant tensor:
#      x y z
#    x 4.283710 0.000000 0.000000 
#    y 0.000000 4.283730 0.000000 
#    z 0.000000 0.000000 4.791940 
# 
# 
# High freq. dielectric constant tensor:
#      x y z
#    x 1.943930 0.000000 0.000000 
#    y 0.000000 1.943930 0.000000 
#    z 0.000000 0.000000 1.992400 
# 
# From -- ./inp_files/20035.got.cif
#   From: 2010.03.12/outbox.cif.g09.slc.cpg/sg91_11_cif.got.tgz:20035.got - 2010.04.08 20:27:58.
