data_PCOD8305391
_publ_section_title
;
Structure prediction by ZEFSAII (Michael W. Deem and Ramdas Pophale) SiO2 
 PCOD8305391
Probable space group: P 41 21 2
;
_chemical_formula_sum "Si O2"
_cell_formula_units_Z 40
_cell_length_a 17.780066
_cell_length_b 17.780066
_cell_length_c 5.490899
_cell_angle_alpha 90.000000
_cell_angle_beta 90.000000
_cell_angle_gamma 90.000000
_cell_volume 1735.842002
_symmetry_space_group_name_H-M "P 41 21 2"
_symmetry_group_IT_number 92
_symmetry_cell_setting 'tetragonal'
loop_
_space_group_symop_operation_xyz
x,y,z
1/2-y,1/2+x,1/4+z
-x,-y,1/2+z
1/2+y,1/2-x,3/4+z
1/2+x,1/2-y,3/4-z
1/2-x,1/2+y,1/4-z
y,x,-z
-y,-x,1/2-z
loop_
_atom_site_type_symbol
_atom_site_label
_atom_site_fract_x
_atom_site_fract_y
_atom_site_fract_z
Si Si1 0.860574 0.563284 0.795506
Si Si2 0.086018 0.037670 0.748820
Si Si3 0.266528 0.463841 0.655807
Si Si4 0.158198 0.558514 0.914343
Si Si5 0.786800 0.669565 0.429949
O O1 0.884640 0.497470 0.605094
O O2 0.812797 0.630166 0.675419
O O3 0.804479 0.525740 0.983315
O O4 0.932029 0.600698 0.934425
O O5 0.087390 0.087390 0.500000
O O6 0.157895 0.983314 0.738226
O O7 0.086945 0.086945 0.000000
O O8 0.009930 0.990071 0.750000
O O9 0.240841 0.523645 0.861469
O O10 0.273493 0.381403 0.779098
O O11 0.179599 0.639919 0.015450
O O12 0.748653 0.748653 0.500000
#
# Coordination Sequence:
#
# PCOD8305391 Si02
#       5
#     8   8   8   8   8
#     4  10  22  43  70  95 135 179 228 285 346 423
#     4  10  24  43  67 105 144 184 236 287 349 422
#     4  10  23  41  69  95 137 184 228 287 347 419
#     4  10  22  44  68  98 139 174 233 281 353 416
#     4  10  23  41  71 101 133 179 232 287 349 420
#
# _framework density 23.043572000000001
#
# number of rings (size 3 to 8) (size 9 to 14) (size 15 to 20)
#    0.000    2.000    0.000    1.200    8.400    3.200 
#    7.200    0.000  158.400    0.000    0.000    0.000 
#    0.000    0.000    0.000    0.000    0.000    0.000 
#
# Total GULP energy -495679.207931 kJ/mol
# GULP energy per Si atom -12391.980198 kJ/mol
# Density = 2.299112 g / cm^3
# Si number density = 23.043572 Si / 1000 Ang^3
#
#
#
# Elastic Constant Matrix: (Units=GPa)
#
#
# Indices 1 2 3 4 5 6 
#
# 1 67.0467 33.4530 39.1110 0.0000 0.0000 0.0000
# 2 33.4530 67.0447 39.1110 0.0000 0.0000 0.0000
# 3 39.1110 39.1110 125.9197 0.0000 0.0000 0.0000
# 4 0.0000 0.0000 0.0000 30.6301 0.0000 0.0000
# 5 0.0000 0.0000 0.0000 0.0000 30.6303 0.0000
# 6 0.0000 0.0000 0.0000 0.0000 0.0000 37.2250
#
#
#
# Elastic Compliance Matrix: (Units=1/GPa)
#
#
# Indices 1 2 3 4 5 6 
#
# 1 0.021445 -0.008323 -0.004076 0.000000 0.000000 0.000000
# 2 -0.008323 0.021446 -0.004076 0.000000 0.000000 0.000000
# 3 -0.004076 -0.004076 0.010474 0.000000 0.000000 0.000000
# 4 0.000000 0.000000 0.000000 0.032648 0.000000 0.000000
# 5 0.000000 0.000000 0.000000 0.000000 0.032647 0.000000
# 6 0.000000 0.000000 0.000000 0.000000 0.000000 0.026864
#
#
# Mechanical properties :
#
#
# Convention : Reuss Voigt Hill
#
# Bulk Modulus (GPa) = 48.98271 53.70678 51.34475
# Shear Modulus (GPa) = 26.98645 29.58615 28.28630
#
# Velocity S-wave (km/s) = 3.42585 3.58707 3.50739
# Velocity P-wave (km/s) = 6.07876 6.36501 6.22353
#
# Compressibility (1/GPa) = 0.02041537
#
# Stress axis : x y z
#
# Youngs Moduli (GPa) = 46.63039 46.62873 95.47816
#
# Poissons Ratio (x) = 0.38808 0.38916
# Poissons Ratio (y) = 0.38809 0.38918
# Poissons Ratio (z) = 0.19006 0.19006
#
# Static dielectric constant tensor:
#      x y z
#    x 3.913070 0.000000 0.000000 
#    y 0.000000 3.913070 0.000000 
#    z 0.000000 0.000000 4.679600 
# 
# 
# High freq. dielectric constant tensor:
#      x y z
#    x 1.893970 0.000000 0.000000 
#    y 0.000000 1.893970 0.000000 
#    z 0.000000 0.000000 1.932720 
# 
# From -- ./inp_files/414.got.cif
#   From: 2010.03.12/outbox.cif.g09.slc.cpg/sg92_1_cif.got.tgz:414.got - 2010.04.08 20:41:11.
