data_PCOD8305902
_publ_section_title
;
Structure prediction by ZEFSAII (Michael W. Deem and Ramdas Pophale) SiO2 
 PCOD8305902
Probable space group: P 43 21 2
;
_chemical_formula_sum "Si O2"
_cell_formula_units_Z 56
_cell_length_a 12.407281
_cell_length_b 12.407281
_cell_length_c 17.527594
_cell_angle_alpha 90.000000
_cell_angle_beta 90.000000
_cell_angle_gamma 90.000000
_cell_volume 2698.208719
_symmetry_space_group_name_H-M "P 43 21 2"
_symmetry_group_IT_number 96
_symmetry_cell_setting 'tetragonal'
loop_
_space_group_symop_operation_xyz
x,y,z
1/2-y,1/2+x,3/4+z
-x,-y,1/2+z
1/2+y,1/2-x,1/4+z
1/2+x,1/2-y,1/4-z
1/2-x,1/2+y,3/4-z
y,x,-z
-y,-x,1/2-z
loop_
_atom_site_type_symbol
_atom_site_label
_atom_site_fract_x
_atom_site_fract_y
_atom_site_fract_z
Si Si1 0.047188 0.485989 0.046393
Si Si2 0.907254 0.907254 0.500000
Si Si3 0.578905 0.893204 0.839345
Si Si4 0.271043 0.573618 0.007016
Si Si5 0.782797 0.354127 0.351096
Si Si6 0.308848 0.532144 0.456433
Si Si7 0.663968 0.663968 0.500000
Si Si8 0.851497 0.061196 0.630875
O O1 0.946275 0.553467 0.078387
O O2 0.079994 0.394023 0.106831
O O3 0.018781 0.425082 0.967317
O O4 0.150849 0.564711 0.040693
O O5 0.917025 0.792834 0.541810
O O6 0.000609 0.914883 0.436806
O O7 0.684010 0.947418 0.804561
O O8 0.598107 0.765644 0.850209
O O9 0.268234 0.653402 0.934588
O O10 0.314604 0.458774 0.978192
O O11 0.358694 0.624147 0.066040
O O12 0.802136 0.231813 0.324265
O O13 0.339819 0.429086 0.404443
O O14 0.334848 0.513364 0.545462
#
# Coordination Sequence:
#
# PCOD8305902 Si02
#       8
#     8   4   8   8   8   8   4   8
#     4  11  23  40  66 100 131 172 223 280 332 400
#     4  11  20  38  66 100 123 154 224 272 331 406
#     4  12  24  44  67  98 134 182 230 275 330 410
#     4  11  22  41  63  93 136 169 216 271 348 393
#     4  10  20  35  63  96 127 156 207 274 339 387
#     4  11  26  44  66  95 139 185 221 280 342 412
#     4   9  22  36  58  96 123 158 212 272 325 408
#     4  11  24  44  68  98 134 183 228 277 346 413
#
# _framework density 20.754508999999999
#
# number of rings (size 3 to 8) (size 9 to 14) (size 15 to 20)
#    0.000    1.143    5.714    0.857    2.000    1.143 
#    0.000    2.857    0.000    0.000    0.000    0.000 
#    0.000    0.000    0.000    0.000    0.000    0.000 
#
# Total GULP energy -694261.813906 kJ/mol
# GULP energy per Si atom -12397.532391 kJ/mol
# Density = 2.070727 g / cm^3
# Si number density = 20.754509 Si / 1000 Ang^3
#
#
#
# Elastic Constant Matrix: (Units=GPa)
#
#
# Indices 1 2 3 4 5 6 
#
# 1 90.7021 37.8112 22.4680 0.0000 0.0000 0.0000
# 2 37.8112 90.7021 22.4680 0.0000 0.0000 0.0000
# 3 22.4680 22.4680 69.6942 0.0000 0.0000 0.0000
# 4 0.0000 0.0000 0.0000 26.6624 0.0000 0.0000
# 5 0.0000 0.0000 0.0000 0.0000 26.6624 0.0000
# 6 0.0000 0.0000 0.0000 0.0000 0.0000 29.5555
#
#
#
# Elastic Compliance Matrix: (Units=1/GPa)
#
#
# Indices 1 2 3 4 5 6 
#
# 1 0.013838 -0.005068 -0.002827 0.000000 0.000000 0.000000
# 2 -0.005068 0.013838 -0.002827 0.000000 0.000000 0.000000
# 3 -0.002827 -0.002827 0.016171 0.000000 0.000000 0.000000
# 4 0.000000 0.000000 0.000000 0.037506 0.000000 0.000000
# 5 0.000000 0.000000 0.000000 0.000000 0.037506 0.000000
# 6 0.000000 0.000000 0.000000 0.000000 0.000000 0.033835
#
#
# Mechanical properties :
#
#
# Convention : Reuss Voigt Hill
#
# Bulk Modulus (GPa) = 44.63869 46.28811 45.46340
# Shear Modulus (GPa) = 27.53183 27.79946 27.66564
#
# Velocity S-wave (km/s) = 3.64613 3.66381 3.65498
# Velocity P-wave (km/s) = 6.26740 6.34422 6.30593
#
# Compressibility (1/GPa) = 0.02240209
#
# Stress axis : x y z
#
# Youngs Moduli (GPa) = 72.26285 72.26285 61.83800
#
# Poissons Ratio (x) = 0.36626 0.17483
# Poissons Ratio (y) = 0.36626 0.17483
# Poissons Ratio (z) = 0.20430 0.20430
#
# Static dielectric constant tensor:
#      x y z
#    x 3.726230 0.000000 0.000000 
#    y 0.000000 3.726230 0.000000 
#    z 0.000000 0.000000 3.568760 
# 
# 
# High freq. dielectric constant tensor:
#      x y z
#    x 1.813460 0.000000 0.000000 
#    y 0.000000 1.813460 0.000000 
#    z 0.000000 0.000000 1.795160 
# 
# From -- ./inp_files/3588.got.cif
#   From: 2010.03.12/outbox.cif.g09.slc.cpg/sg96_2_cif.got.tgz:3588.got - 2010.04.08 20:56:49.
