data_PCOD8305535
_publ_section_title
;
Structure prediction by ZEFSAII (Michael W. Deem and Ramdas Pophale) SiO2 
 PCOD8305535
Probable space group: P 42 2 2
;
_chemical_formula_sum "Si O2"
_cell_formula_units_Z 64
_cell_length_a 11.933837
_cell_length_b 11.933837
_cell_length_c 20.620336
_cell_angle_alpha 90.000000
_cell_angle_beta 90.000000
_cell_angle_gamma 90.000000
_cell_volume 2936.675371
_symmetry_space_group_name_H-M "P 42 2 2"
_symmetry_group_IT_number 93
_symmetry_cell_setting 'tetragonal'
loop_
_space_group_symop_operation_xyz
x,y,z
-y,x,1/2+z
-x,-y,z
y,-x,1/2+z
x,-y,-z
-x,y,-z
y,x,1/2-z
-y,-x,1/2-z
loop_
_atom_site_type_symbol
_atom_site_label
_atom_site_fract_x
_atom_site_fract_y
_atom_site_fract_z
Si Si1 0.618821 0.776275 0.521553
Si Si2 0.396034 0.568929 0.826089
Si Si3 0.765495 0.415001 0.229423
Si Si4 0.548370 0.805963 0.141961
Si Si5 0.058281 0.385419 0.865605
Si Si6 0.651295 0.163730 0.048349
Si Si7 0.917759 0.775393 0.059860
Si Si8 0.066032 0.274168 0.415870
O O1 0.500000 0.717642 0.500000
O O2 0.585810 0.877600 0.568279
O O3 0.708324 0.694830 0.557177
O O4 0.682347 0.826530 0.459607
O O5 0.500000 0.500000 0.855341
O O6 0.411286 0.588715 0.750000
O O7 0.280297 0.498467 0.828252
O O8 0.392769 0.684108 0.866225
O O9 0.665165 0.334836 0.250000
O O10 0.813029 0.478514 0.291942
O O11 0.863769 0.346609 0.194451
O O12 0.470748 0.835953 0.080330
O O13 0.651732 0.894172 0.145932
O O14 0.000000 0.500000 0.843132
O O15 0.980402 0.277452 0.878293
O O16 0.730399 0.069604 0.083592
O O17 0.652488 0.122467 0.974203
O O18 0.853171 0.888161 0.082684
O O19 0.000000 0.806293 0.000000
#
# Coordination Sequence:
#
# PCOD8305535 Si02
#       8
#     8   8   8   8   8   8   8   8
#     4  10  19  36  62  90 127 158 196 265 331 385
#     4   9  17  35  56  85 120 158 202 250 313 384
#     4  11  22  39  59  89 128 167 212 261 328 402
#     4  11  21  36  63  88 126 169 213 262 322 390
#     4  11  22  35  60  92 124 159 209 263 328 387
#     4  10  22  40  61  94 122 172 210 262 325 399
#     4   9  20  39  62  91 124 160 214 276 334 380
#     4  10  22  41  65  88 125 170 224 265 320 394
#
# _framework density 21.793353
#
# number of rings (size 3 to 8) (size 9 to 14) (size 15 to 20)
#    0.000    1.875    3.750    1.500    1.750    2.000 
#    0.000   10.625    0.000    0.000    0.000    0.875 
#    0.000    0.000    0.000    0.000    0.000    0.000 
#
# Total GULP energy -793015.720010 kJ/mol
# GULP energy per Si atom -12390.870625 kJ/mol
# Density = 2.174375 g / cm^3
# Si number density = 21.793353 Si / 1000 Ang^3
#
#
#
# Elastic Constant Matrix: (Units=GPa)
#
#
# Indices 1 2 3 4 5 6 
#
# 1 123.5924 54.4181 24.4770 0.0000 0.0000 0.0000
# 2 54.4181 123.5916 24.4766 0.0000 0.0000 0.0000
# 3 24.4770 24.4766 45.4525 0.0000 0.0000 0.0000
# 4 0.0000 0.0000 0.0000 28.0723 0.0000 0.0000
# 5 0.0000 0.0000 0.0000 0.0000 28.0722 0.0000
# 6 0.0000 0.0000 0.0000 0.0000 0.0000 22.9092
#
#
#
# Elastic Compliance Matrix: (Units=1/GPa)
#
#
# Indices 1 2 3 4 5 6 
#
# 1 0.010525 -0.003931 -0.003551 0.000000 0.000000 0.000000
# 2 -0.003931 0.010525 -0.003551 0.000000 0.000000 0.000000
# 3 -0.003551 -0.003551 0.025826 0.000000 0.000000 0.000000
# 4 0.000000 0.000000 0.000000 0.035622 0.000000 0.000000
# 5 0.000000 0.000000 0.000000 0.000000 0.035622 0.000000
# 6 0.000000 0.000000 0.000000 0.000000 0.000000 0.043651
#
#
# Mechanical properties :
#
#
# Convention : Reuss Voigt Hill
#
# Bulk Modulus (GPa) = 40.30677 55.48665 47.89671
# Shear Modulus (GPa) = 26.02704 28.42837 27.22770
#
# Velocity S-wave (km/s) = 3.45956 3.61564 3.53846
# Velocity P-wave (km/s) = 5.87309 6.55333 6.22251
#
# Compressibility (1/GPa) = 0.02480973
#
# Stress axis : x y z
#
# Youngs Moduli (GPa) = 95.00964 95.00928 38.72125
#
# Poissons Ratio (x) = 0.37349 0.13750
# Poissons Ratio (y) = 0.37349 0.13750
# Poissons Ratio (z) = 0.33739 0.33738
#
# Static dielectric constant tensor:
#      x y z
#    x 4.221130 0.000000 0.000000 
#    y 0.000000 4.221110 0.000000 
#    z 0.000000 0.000000 3.588070 
# 
# 
# High freq. dielectric constant tensor:
#      x y z
#    x 1.851480 0.000000 0.000000 
#    y 0.000000 1.851480 0.000000 
#    z 0.000000 0.000000 1.826880 
# 
# From -- ./inp_files/6977.got.cif
#   From: 2010.03.12/outbox.cif.g09.slc.cpg/sg93_4_cif.got.tgz:6977.got - 2010.04.08 20:44:19.
