data_PCOD8305697
_publ_section_title
;
Structure prediction by ZEFSAII (Michael W. Deem and Ramdas Pophale) SiO2 
 PCOD8305697
Probable space group: P 42 21 2
;
_chemical_formula_sum "Si O2"
_cell_formula_units_Z 50
_cell_length_a 8.902077
_cell_length_b 8.902077
_cell_length_c 28.698216
_cell_angle_alpha 90.000000
_cell_angle_beta 90.000000
_cell_angle_gamma 90.000000
_cell_volume 2274.246803
_symmetry_space_group_name_H-M "P 42 21 2"
_symmetry_group_IT_number 94
_symmetry_cell_setting 'tetragonal'
loop_
_space_group_symop_operation_xyz
x,y,z
1/2-y,1/2+x,1/2+z
-x,-y,z
1/2+y,1/2-x,1/2+z
1/2+x,1/2-y,1/2-z
1/2-x,1/2+y,1/2-z
y,x,-z
-y,-x,-z
loop_
_atom_site_type_symbol
_atom_site_label
_atom_site_fract_x
_atom_site_fract_y
_atom_site_fract_z
Si Si1 0.366399 0.772226 0.345911
Si Si2 0.257451 0.333733 0.708675
Si Si3 0.332779 0.054339 0.201486
Si Si4 0.950676 0.761287 0.537512
Si Si5 0.000000 0.000000 0.000000
Si Si6 0.334070 0.549033 0.143822
Si Si7 0.299437 0.051798 0.950236
O O1 0.494515 0.745834 0.307902
O O2 0.243366 0.637555 0.343262
O O3 0.284133 0.928942 0.336919
O O4 0.447466 0.788014 0.394967
O O5 0.424542 0.278217 0.718575
O O6 0.172152 0.333701 0.757011
O O7 0.199686 0.214279 0.670139
O O8 0.500000 0.000000 0.187914
O O9 0.882101 0.882101 0.500000
O O10 0.883682 0.596230 0.532296
O O11 0.923779 0.832406 0.588127
O O12 0.127698 0.711902 0.531582
O O13 0.134897 0.017900 0.965604
O O14 0.500000 0.500000 0.158852
#
# Coordination Sequence:
#
# PCOD8305697 Si02
#       7
#     8   8   8   8   2   8   8
#     4  11  24  45  69  95 134 179 225 275 344 415
#     4  12  24  43  68  94 135 180 225 279 340 411
#     4  12  26  42  66 100 134 173 230 285 336 397
#     4  10  21  43  69  98 136 175 226 278 345 410
#     4  12  24  40  70 100 138 172 228 282 332 432
#     4  11  23  40  68  98 133 175 221 282 337 401
#     4  10  23  41  69 102 131 182 222 278 346 415
#
# _framework density 21.985301
#
# number of rings (size 3 to 8) (size 9 to 14) (size 15 to 20)
#    0.000    0.960    2.400    4.800    2.240    4.160 
#    0.000    0.000    0.000    0.000    0.000    0.000 
#    0.000    0.000    0.000    0.000    0.000    0.000 
#
# Total GULP energy -619618.689416 kJ/mol
# GULP energy per Si atom -12392.373788 kJ/mol
# Density = 2.193526 g / cm^3
# Si number density = 21.985301 Si / 1000 Ang^3
#
#
#
# Elastic Constant Matrix: (Units=GPa)
#
#
# Indices 1 2 3 4 5 6 
#
# 1 91.4079 22.0877 22.8021 0.0000 0.0000 0.0000
# 2 22.0877 91.4079 22.8021 0.0000 0.0000 0.0000
# 3 22.8021 22.8021 34.3936 0.0000 0.0000 0.0000
# 4 0.0000 0.0000 0.0000 27.7748 0.0000 0.0000
# 5 0.0000 0.0000 0.0000 0.0000 27.7748 0.0000
# 6 0.0000 0.0000 0.0000 0.0000 0.0000 41.5875
#
#
#
# Elastic Compliance Matrix: (Units=1/GPa)
#
#
# Indices 1 2 3 4 5 6 
#
# 1 0.013218 -0.001208 -0.007963 0.000000 0.000000 0.000000
# 2 -0.001208 0.013218 -0.007963 0.000000 0.000000 0.000000
# 3 -0.007963 -0.007963 0.039633 0.000000 0.000000 0.000000
# 4 0.000000 0.000000 0.000000 0.036004 0.000000 0.000000
# 5 0.000000 0.000000 0.000000 0.000000 0.036004 0.000000
# 6 0.000000 0.000000 0.000000 0.000000 0.000000 0.024046
#
#
# Mechanical properties :
#
#
# Convention : Reuss Voigt Hill
#
# Bulk Modulus (GPa) = 31.44299 39.17702 35.31001
# Shear Modulus (GPa) = 24.15580 29.39528 26.77554
#
# Velocity S-wave (km/s) = 3.31830 3.66053 3.49361
# Velocity P-wave (km/s) = 5.38650 5.97698 5.68940
#
# Compressibility (1/GPa) = 0.03180359
#
# Stress axis : x y z
#
# Youngs Moduli (GPa) = 75.65384 75.65384 25.23140
#
# Poissons Ratio (x) = 0.09137 0.20091
# Poissons Ratio (y) = 0.09137 0.20091
# Poissons Ratio (z) = 0.60240 0.60240
#
# Static dielectric constant tensor:
#      x y z
#    x 0.000000 0.000000 0.000000 
#    y 0.000000 0.000000 0.000000 
#    z 0.000000 0.000000 0.000000 
# 
# 
# High freq. dielectric constant tensor:
#      x y z
#    x 1.879600 0.000000 0.000000 
#    y 0.000000 1.879600 0.000000 
#    z 0.000000 0.000000 1.853730 
# 
# From -- ./inp_files/5654.got.cif
#   From: 2010.03.12/outbox.cif.g09.slc.cpg/sg94_3_cif.got.tgz:5654.got - 2010.04.08 20:48:32.
