data_PCOD8305100
_publ_section_title
;
Structure prediction by ZEFSAII (Michael W. Deem and Ramdas Pophale) SiO2 
 PCOD8305100
Probable space group: P 41 2 2
;
_chemical_formula_sum "Si O2"
_cell_formula_units_Z 48
_cell_length_a 8.502390
_cell_length_b 8.502390
_cell_length_c 30.695780
_cell_angle_alpha 90.000000
_cell_angle_beta 90.000000
_cell_angle_gamma 90.000000
_cell_volume 2219.017450
_symmetry_space_group_name_H-M "P 41 2 2"
_symmetry_group_IT_number 91
_symmetry_cell_setting 'tetragonal'
loop_
_space_group_symop_operation_xyz
x,y,z
-y,x,1/4+z
-x,-y,1/2+z
y,-x,3/4+z
x,-y,1/2-z
-x,y,-z
y,x,3/4-z
-y,-x,1/4-z
loop_
_atom_site_type_symbol
_atom_site_label
_atom_site_fract_x
_atom_site_fract_y
_atom_site_fract_z
Si Si1 0.938210 0.500000 0.250000
Si Si2 0.245751 0.288703 0.029138
Si Si3 0.867543 0.718538 0.688568
Si Si4 0.865909 0.535718 0.034957
Si Si5 0.118044 0.527164 0.398831
Si Si6 0.030840 0.006978 0.047359
Si Si7 0.824786 0.175215 0.625000
O O1 0.054463 0.385298 0.225468
O O2 0.825131 0.395963 0.280513
O O3 0.254928 0.408783 0.069280
O O4 0.087252 0.183866 0.036574
O O5 0.239559 0.393206 0.984868
O O6 0.690549 0.765322 0.702910
O O7 0.868108 0.626362 0.644181
O O8 0.986454 0.862998 0.679164
O O9 0.946564 0.465418 0.078442
O O10 0.000000 0.582931 0.000000
O O11 0.151855 0.349137 0.389990
O O12 0.151303 0.929662 0.081561
O O13 0.000000 0.920894 0.000000
#
# Coordination Sequence:
#
# PCOD8305100 Si02
#       7
#     4   8   8   8   8   8   4
#     4  12  28  42  70 112 148 192 238 304 364 460
#     4  11  26  47  73 102 147 190 239 296 379 435
#     4  12  26  43  74 106 144 188 253 301 362 443
#     4  10  24  47  72 105 141 197 242 306 371 434
#     4  11  26  43  71 108 141 188 243 308 367 432
#     4  12  23  45  77 105 136 194 249 306 352 442
#     4  12  26  44  76 108 148 184 254 306 366 446
#
# _framework density 21.631195000000002
#
# number of rings (size 3 to 8) (size 9 to 14) (size 15 to 20)
#    0.000    0.667    3.333    4.000    4.667    2.000 
#    0.000    0.000    0.000    0.000    0.000    0.000 
#    0.000    0.000    0.000    0.000    0.000    0.000 
#
# Total GULP energy -594771.323569 kJ/mol
# GULP energy per Si atom -12391.069241 kJ/mol
# Density = 2.158196 g / cm^3
# Si number density = 21.631195 Si / 1000 Ang^3
#
#
#
# Elastic Constant Matrix: (Units=GPa)
#
#
# Indices 1 2 3 4 5 6 
#
# 1 243.8702 -28.3741 90.1609 0.0000 0.0000 0.0000
# 2 -28.3741 243.8598 90.1454 0.0000 0.0000 0.0000
# 3 90.1609 90.1454 209.6556 0.0000 0.0000 0.0000
# 4 0.0000 0.0000 0.0000 37.1970 0.0000 0.0000
# 5 0.0000 0.0000 0.0000 0.0000 37.1970 0.0000
# 6 0.0000 0.0000 0.0000 0.0000 0.0000 46.0457
#
#
#
# Elastic Compliance Matrix: (Units=1/GPa)
#
#
# Indices 1 2 3 4 5 6 
#
# 1 0.005461 0.001788 -0.003117 0.000000 0.000000 0.000000
# 2 0.001788 0.005461 -0.003117 0.000000 0.000000 0.000000
# 3 -0.003117 -0.003117 0.007450 0.000000 0.000000 0.000000
# 4 0.000000 0.000000 0.000000 0.026884 0.000000 0.000000
# 5 0.000000 0.000000 0.000000 0.000000 0.026884 0.000000
# 6 0.000000 0.000000 0.000000 0.000000 0.000000 0.021718
#
#
# Mechanical properties :
#
#
# Convention : Reuss Voigt Hill
#
# Bulk Modulus (GPa) = 105.48797 111.25000 108.36899
# Shear Modulus (GPa) = 47.20999 60.45150 53.83075
#
# Velocity S-wave (km/s) = 4.67679 5.29217 4.99397
# Velocity P-wave (km/s) = 8.83378 9.42787 9.13566
#
# Compressibility (1/GPa) = 0.00947975
#
# Stress axis : x y z
#
# Youngs Moduli (GPa) = 183.11843 183.12100 134.22233
#
# Poissons Ratio (x) = -0.32736 0.41838
# Poissons Ratio (y) = -0.32735 0.41834
# Poissons Ratio (z) = 0.57080 0.57075
#
# Static dielectric constant tensor:
#      x y z
#    x 4.001430 0.000000 0.000000 
#    y 0.000000 4.001420 0.000000 
#    z 0.000000 0.000000 4.283170 
# 
# 
# High freq. dielectric constant tensor:
#      x y z
#    x 1.850070 0.000000 0.000000 
#    y 0.000000 1.850070 0.000000 
#    z 0.000000 0.000000 1.862050 
# 
# From -- ./inp_files/18226.got.cif
#   From: 2010.03.12/outbox.cif.g09.slc.cpg/sg91_10_cif.got.tgz:18226.got - 2010.04.08 20:27:58.
