data_PCOD8305212
_publ_section_title
;
Structure prediction by ZEFSAII (Michael W. Deem and Ramdas Pophale) SiO2 
 PCOD8305212
Probable space group: P 41 21 2
;
_chemical_formula_sum "Si O2"
_cell_formula_units_Z 60
_cell_length_a 14.064671
_cell_length_b 14.064671
_cell_length_c 14.591431
_cell_angle_alpha 90.000000
_cell_angle_beta 90.000000
_cell_angle_gamma 90.000000
_cell_volume 2886.403490
_symmetry_space_group_name_H-M "P 41 21 2"
_symmetry_group_IT_number 92
_symmetry_cell_setting 'tetragonal'
loop_
_space_group_symop_operation_xyz
x,y,z
1/2-y,1/2+x,1/4+z
-x,-y,1/2+z
1/2+y,1/2-x,3/4+z
1/2+x,1/2-y,3/4-z
1/2-x,1/2+y,1/4-z
y,x,-z
-y,-x,1/2-z
loop_
_atom_site_type_symbol
_atom_site_label
_atom_site_fract_x
_atom_site_fract_y
_atom_site_fract_z
Si Si1 0.453518 0.546483 0.750000
Si Si2 0.648061 0.749992 0.718290
Si Si3 0.047402 0.559554 0.233123
Si Si4 0.108929 0.508029 0.601183
Si Si5 0.559206 0.242634 0.253760
Si Si6 0.115716 0.932294 0.144551
Si Si7 0.439803 0.793776 0.398246
Si Si8 0.163353 0.734478 0.825456
O O1 0.463123 0.652202 0.792019
O O2 0.466659 0.474269 0.834382
O O3 0.539701 0.790036 0.705324
O O4 0.663605 0.661957 0.649547
O O5 0.717579 0.838620 0.699106
O O6 0.667909 0.719182 0.823597
O O7 0.152067 0.584932 0.196261
O O8 0.963811 0.558195 0.158061
O O9 0.060875 0.453333 0.275284
O O10 0.020123 0.641864 0.303475
O O11 0.167195 0.582356 0.664755
O O12 0.187593 0.439156 0.555908
O O13 0.648661 0.241554 0.184478
O O14 0.086226 0.913775 0.250000
O O15 0.189196 0.018611 0.136591
O O16 0.184320 0.815681 0.750000
#
# Coordination Sequence:
#
# PCOD8305212 Si02
#       8
#     4   8   8   8   8   8   8   8
#     4  10  24  44  64  96 122 178 234 282 310 402
#     4  10  23  40  65  94 128 166 228 270 326 404
#     4  10  19  34  63  95 127 165 206 266 338 387
#     4  10  18  34  57  96 132 160 205 261 334 405
#     4  10  18  36  64  89 126 161 215 267 330 386
#     4  11  26  47  70  92 133 184 231 268 338 403
#     4  11  21  39  66  92 131 171 221 273 329 401
#     4  11  20  32  59  95 123 165 212 266 325 384
#
# _framework density 20.787116000000001
#
# number of rings (size 3 to 8) (size 9 to 14) (size 15 to 20)
#    0.000    1.600    4.667    1.600    3.733    1.067 
#    3.600    6.000    0.000    0.000    0.000    0.000 
#    0.000    0.000    0.000    0.000    0.000    0.000 
#
# Total GULP energy -743594.916015 kJ/mol
# GULP energy per Si atom -12393.248600 kJ/mol
# Density = 2.073980 g / cm^3
# Si number density = 20.787116 Si / 1000 Ang^3
#
#
#
# Elastic Constant Matrix: (Units=GPa)
#
#
# Indices 1 2 3 4 5 6 
#
# 1 79.1311 18.2650 33.2189 0.0000 0.0000 0.0000
# 2 18.2650 79.1311 33.2187 0.0000 0.0000 0.0000
# 3 33.2189 33.2187 106.5275 0.0000 0.0000 0.0000
# 4 0.0000 0.0000 0.0000 33.6727 0.0000 0.0000
# 5 0.0000 0.0000 0.0000 0.0000 33.6728 0.0000
# 6 0.0000 0.0000 0.0000 0.0000 0.0000 31.8707
#
#
#
# Elastic Compliance Matrix: (Units=1/GPa)
#
#
# Indices 1 2 3 4 5 6 
#
# 1 0.014735 -0.001694 -0.004067 0.000000 0.000000 0.000000
# 2 -0.001694 0.014735 -0.004067 0.000000 0.000000 0.000000
# 3 -0.004067 -0.004067 0.011924 0.000000 0.000000 0.000000
# 4 0.000000 0.000000 0.000000 0.029698 0.000000 0.000000
# 5 0.000000 0.000000 0.000000 0.000000 0.029698 0.000000
# 6 0.000000 0.000000 0.000000 0.000000 0.000000 0.031377
#
#
# Mechanical properties :
#
#
# Convention : Reuss Voigt Hill
#
# Bulk Modulus (GPa) = 45.99940 48.24388 47.12164
# Shear Modulus (GPa) = 31.43308 31.84904 31.64106
#
# Velocity S-wave (km/s) = 3.89285 3.91852 3.90570
# Velocity P-wave (km/s) = 6.51019 6.61302 6.56180
#
# Compressibility (1/GPa) = 0.02173941
#
# Stress axis : x y z
#
# Youngs Moduli (GPa) = 67.86334 67.86357 83.86764
#
# Poissons Ratio (x) = 0.11496 0.34107
# Poissons Ratio (y) = 0.11496 0.34107
# Poissons Ratio (z) = 0.27599 0.27598
#
# Static dielectric constant tensor:
#      x y z
#    x 3.720290 0.000000 0.000000 
#    y 0.000000 3.720280 0.000000 
#    z 0.000000 0.000000 3.842840 
# 
# 
# High freq. dielectric constant tensor:
#      x y z
#    x 1.801030 0.000000 0.000000 
#    y 0.000000 1.801030 0.000000 
#    z 0.000000 0.000000 1.804000 
# 
# From -- ./inp_files/2798.got.cif
#   From: 2010.03.12/outbox.cif.g09.slc.cpg/sg92_2_cif.got.tgz:2798.got - 2010.04.08 20:41:11.
