data_PCOD8305686
_publ_section_title
;
Structure prediction by ZEFSAII (Michael W. Deem and Ramdas Pophale) SiO2 
 PCOD8305686
Probable space group: P 42 21 2
;
_chemical_formula_sum "Si O2"
_cell_formula_units_Z 40
_cell_length_a 11.479536
_cell_length_b 11.479536
_cell_length_c 14.873128
_cell_angle_alpha 90.000000
_cell_angle_beta 90.000000
_cell_angle_gamma 90.000000
_cell_volume 1959.977042
_symmetry_space_group_name_H-M "P 42 21 2"
_symmetry_group_IT_number 94
_symmetry_cell_setting 'tetragonal'
loop_
_space_group_symop_operation_xyz
x,y,z
1/2-y,1/2+x,1/2+z
-x,-y,z
1/2+y,1/2-x,1/2+z
1/2+x,1/2-y,1/2-z
1/2-x,1/2+y,1/2-z
y,x,-z
-y,-x,-z
loop_
_atom_site_type_symbol
_atom_site_label
_atom_site_fract_x
_atom_site_fract_y
_atom_site_fract_z
Si Si1 0.515472 0.716788 0.745110
Si Si2 0.813773 0.812193 0.896340
Si Si3 0.900830 0.903602 0.598957
Si Si4 0.113252 0.550320 0.692616
Si Si5 0.769283 0.088091 0.692490
O O1 0.432865 0.683623 0.661117
O O2 0.443754 0.703423 0.839164
O O3 0.571257 0.845307 0.741264
O O4 0.621549 0.623957 0.744602
O O5 0.719985 0.910023 0.868976
O O6 0.754843 0.686160 0.882523
O O7 0.838868 0.838868 0.000000
O O8 0.861037 0.861037 0.500000
O O9 0.790537 0.964268 0.644969
O O10 0.000000 0.000000 0.589843
O O11 0.155069 0.436277 0.748411
O O12 0.000000 0.500000 0.638685
#
# Coordination Sequence:
#
# PCOD8305686 Si02
#       5
#     8   8   8   8   8
#     4  10  21  39  63  91 126 166 214 260 332 389
#     4  11  24  41  64  97 131 174 218 265 330 404
#     4   9  18  33  61  91 112 149 207 267 319 379
#     4  11  22  41  63  90 127 170 213 271 326 376
#     4  10  21  38  65  89 127 165 214 271 322 385
#
# _framework density 20.408401000000001
#
# number of rings (size 3 to 8) (size 9 to 14) (size 15 to 20)
#    0.000    1.800    4.000    0.000    8.400    0.000 
#    3.600    2.000    0.000    0.000    0.000    0.000 
#    0.000    0.000    0.000    0.000    0.000    0.000 
#
# Total GULP energy -495714.438941 kJ/mol
# GULP energy per Si atom -12392.860974 kJ/mol
# Density = 2.036195 g / cm^3
# Si number density = 20.408401 Si / 1000 Ang^3
#
#
#
# Elastic Constant Matrix: (Units=GPa)
#
#
# Indices 1 2 3 4 5 6 
#
# 1 83.2693 33.4398 44.5949 0.0000 0.0000 0.0000
# 2 33.4398 83.2693 44.5949 0.0000 0.0000 0.0000
# 3 44.5949 44.5949 128.3853 0.0000 0.0000 0.0000
# 4 0.0000 0.0000 0.0000 16.2501 0.0000 0.0000
# 5 0.0000 0.0000 0.0000 0.0000 16.2501 0.0000
# 6 0.0000 0.0000 0.0000 0.0000 0.0000 41.5483
#
#
#
# Elastic Compliance Matrix: (Units=1/GPa)
#
#
# Indices 1 2 3 4 5 6 
#
# 1 0.015867 -0.004202 -0.004052 0.000000 0.000000 0.000000
# 2 -0.004202 0.015867 -0.004052 0.000000 0.000000 0.000000
# 3 -0.004052 -0.004052 0.010604 0.000000 0.000000 0.000000
# 4 0.000000 0.000000 0.000000 0.061538 0.000000 0.000000
# 5 0.000000 0.000000 0.000000 0.000000 0.061538 0.000000
# 6 0.000000 0.000000 0.000000 0.000000 0.000000 0.024068
#
#
# Mechanical properties :
#
#
# Convention : Reuss Voigt Hill
#
# Bulk Modulus (GPa) = 56.41370 60.02032 58.21701
# Shear Modulus (GPa) = 22.72718 26.29599 24.51158
#
# Velocity S-wave (km/s) = 3.34071 3.59345 3.46938
# Velocity P-wave (km/s) = 6.52556 6.83305 6.68107
#
# Compressibility (1/GPa) = 0.01772619
#
# Stress axis : x y z
#
# Youngs Moduli (GPa) = 63.02563 63.02563 94.30562
#
# Poissons Ratio (x) = 0.26483 0.38210
# Poissons Ratio (y) = 0.26483 0.38210
# Poissons Ratio (z) = 0.25536 0.25536
#
# Static dielectric constant tensor:
#      x y z
#    x 3.758920 0.000000 0.000000 
#    y 0.000000 3.758920 0.000000 
#    z 0.000000 0.000000 3.455150 
# 
# 
# High freq. dielectric constant tensor:
#      x y z
#    x 1.804360 0.000000 0.000000 
#    y 0.000000 1.804360 0.000000 
#    z 0.000000 0.000000 1.755620 
# 
# From -- ./inp_files/3385.got.cif
#   From: 2010.03.12/outbox.cif.g09.slc.cpg/sg94_2_cif.got.tgz:3385.got - 2010.04.08 20:48:32.
