data_PCOD8305384
_publ_section_title
;
Structure prediction by ZEFSAII (Michael W. Deem and Ramdas Pophale) SiO2 
 PCOD8305384
Probable space group: P 41 21 2
;
_chemical_formula_sum "Si O2"
_cell_formula_units_Z 56
_cell_length_a 15.758805
_cell_length_b 15.758805
_cell_length_c 9.254834
_cell_angle_alpha 90.000000
_cell_angle_beta 90.000000
_cell_angle_gamma 90.000000
_cell_volume 2298.344874
_symmetry_space_group_name_H-M "P 41 21 2"
_symmetry_group_IT_number 92
_symmetry_cell_setting 'tetragonal'
loop_
_space_group_symop_operation_xyz
x,y,z
1/2-y,1/2+x,1/4+z
-x,-y,1/2+z
1/2+y,1/2-x,3/4+z
1/2+x,1/2-y,3/4-z
1/2-x,1/2+y,1/4-z
y,x,-z
-y,-x,1/2-z
loop_
_atom_site_type_symbol
_atom_site_label
_atom_site_fract_x
_atom_site_fract_y
_atom_site_fract_z
Si Si1 0.678683 0.134348 0.792189
Si Si2 0.315358 0.218175 0.352372
Si Si3 0.062259 0.055564 0.328462
Si Si4 0.907141 0.502838 0.755740
Si Si5 0.335763 0.824615 0.982802
Si Si6 0.750757 0.963109 0.853018
Si Si7 0.729899 0.506883 0.075031
O O1 0.728307 0.169379 0.930295
O O2 0.577127 0.140689 0.818020
O O3 0.700617 0.186401 0.646344
O O4 0.700970 0.034635 0.761482
O O5 0.227434 0.273676 0.378583
O O6 0.305181 0.119286 0.386841
O O7 0.394091 0.246704 0.454700
O O8 0.049440 0.049440 0.500000
O O9 0.160494 0.064715 0.280113
O O10 0.013074 0.136701 0.262508
O O11 0.027972 0.972029 0.250000
O O12 0.838374 0.574729 0.803439
O O13 0.974658 0.541879 0.646185
O O14 0.434165 0.793577 0.982507
O O15 0.774218 0.005219 0.003444
#
# Coordination Sequence:
#
# PCOD8305384 Si02
#       7
#     8   8   8   8   8   8   8
#     4  10  23  41  64  97 131 170 230 279 339 406
#     4  11  22  42  68  92 133 190 218 273 355 409
#     4  10  22  47  68  98 134 179 237 282 339 416
#     4  10  23  40  63  97 138 173 225 279 345 410
#     4  11  23  41  63 102 138 167 231 288 327 418
#     4  10  22  42  70  89 128 184 231 269 339 423
#     4  10  24  43  64  98 137 177 224 284 339 413
#
# _framework density 24.365358000000001
#
# number of rings (size 3 to 8) (size 9 to 14) (size 15 to 20)
#    0.000    1.714    1.429    2.143    6.000    4.571 
#   10.286    0.000    0.000    0.000    0.000    0.000 
#    0.000    0.000    0.000    0.000    0.000    0.000 
#
# Total GULP energy -694155.747211 kJ/mol
# GULP energy per Si atom -12395.638343 kJ/mol
# Density = 2.430990 g / cm^3
# Si number density = 24.365358 Si / 1000 Ang^3
#
#
#
# Elastic Constant Matrix: (Units=GPa)
#
#
# Indices 1 2 3 4 5 6 
#
# 1 113.3182 39.8969 -8.1035 0.0000 0.0000 0.0000
# 2 39.8969 113.3198 -8.1039 0.0000 0.0000 0.0000
# 3 -8.1035 -8.1039 19.1665 0.0000 0.0000 0.0000
# 4 0.0000 0.0000 0.0000 31.5383 0.0000 0.0000
# 5 0.0000 0.0000 0.0000 0.0000 31.5381 0.0000
# 6 0.0000 0.0000 0.0000 0.0000 0.0000 42.8679
#
#
#
# Elastic Compliance Matrix: (Units=1/GPa)
#
#
# Indices 1 2 3 4 5 6 
#
# 1 0.010226 -0.003394 0.002889 0.000000 0.000000 0.000000
# 2 -0.003394 0.010226 0.002889 0.000000 0.000000 0.000000
# 3 0.002889 0.002889 0.054617 0.000000 0.000000 0.000000
# 4 0.000000 0.000000 0.000000 0.031707 0.000000 0.000000
# 5 0.000000 0.000000 0.000000 0.000000 0.031708 0.000000
# 6 0.000000 0.000000 0.000000 0.000000 0.000000 0.023328
#
#
# Mechanical properties :
#
#
# Convention : Reuss Voigt Hill
#
# Bulk Modulus (GPa) = 12.52556 32.57593 22.55074
# Shear Modulus (GPa) = 27.22470 35.99653 31.61061
#
# Velocity S-wave (km/s) = 3.34631 3.84782 3.60579
# Velocity P-wave (km/s) = 4.48132 5.75671 5.15859
#
# Compressibility (1/GPa) = 0.07983678
#
# Stress axis : x y z
#
# Youngs Moduli (GPa) = 97.78842 97.78958 18.30927
#
# Poissons Ratio (x) = 0.33188 -0.05289
# Poissons Ratio (y) = 0.33187 -0.05289
# Poissons Ratio (z) = -0.28248 -0.28250
#
# Static dielectric constant tensor:
#      x y z
#    x 4.456970 0.000000 0.000000 
#    y 0.000000 4.456970 0.000000 
#    z 0.000000 0.000000 4.238640 
# 
# 
# High freq. dielectric constant tensor:
#      x y z
#    x 1.969940 0.000000 0.000000 
#    y 0.000000 1.969940 0.000000 
#    z 0.000000 0.000000 1.970180 
# 
# From -- ./inp_files/2256.got.cif
#   From: 2010.03.12/outbox.cif.g09.slc.cpg/sg92_2_cif.got.tgz:2256.got - 2010.04.08 20:41:11.
