data_PCOD8305408
_publ_section_title
;
Structure prediction by ZEFSAII (Michael W. Deem and Ramdas Pophale) SiO2 
 PCOD8305408
Probable space group: P 41 21 2
;
_chemical_formula_sum "Si O2"
_cell_formula_units_Z 32
_cell_length_a 9.352569
_cell_length_b 9.352569
_cell_length_c 17.069639
_cell_angle_alpha 90.000000
_cell_angle_beta 90.000000
_cell_angle_gamma 90.000000
_cell_volume 1493.090659
_symmetry_space_group_name_H-M "P 41 21 2"
_symmetry_group_IT_number 92
_symmetry_cell_setting 'tetragonal'
loop_
_space_group_symop_operation_xyz
x,y,z
1/2-y,1/2+x,1/4+z
-x,-y,1/2+z
1/2+y,1/2-x,3/4+z
1/2+x,1/2-y,3/4-z
1/2-x,1/2+y,1/4-z
y,x,-z
-y,-x,1/2-z
loop_
_atom_site_type_symbol
_atom_site_label
_atom_site_fract_x
_atom_site_fract_y
_atom_site_fract_z
Si Si1 0.934281 0.837773 0.246131
Si Si2 0.503862 0.015480 0.966818
Si Si3 0.012810 0.714705 0.656541
Si Si4 0.663525 0.264437 0.167835
O O1 0.942718 0.673616 0.267474
O O2 0.872556 0.861194 0.158025
O O3 0.832457 0.904032 0.312425
O O4 0.089269 0.910732 0.250000
O O5 0.342776 0.017612 0.930938
O O6 0.622912 0.933660 0.914302
O O7 0.492452 0.933005 0.047609
O O8 0.170359 0.782168 0.664049
O O9 0.645447 0.354554 0.250000
#
# Coordination Sequence:
#
# PCOD8305408 Si02
#       4
#     8   8   8   8
#     4  12  26  43  69 103 140 177 236 287 351 421
#     4  11  23  42  68  98 141 174 224 290 342 398
#     4  11  23  43  70  97 133 185 229 280 344 418
#     4  10  23  42  70  97 131 179 229 277 342 418
#
# _framework density 21.432053
#
# number of rings (size 3 to 8) (size 9 to 14) (size 15 to 20)
#    0.000    1.000    5.000    2.250    3.500    0.000 
#    0.000    0.000    0.000    0.000    0.000    0.000 
#    0.000    0.000    0.000    0.000    0.000    0.000 
#
# Total GULP energy -396692.086307 kJ/mol
# GULP energy per Si atom -12396.627697 kJ/mol
# Density = 2.138327 g / cm^3
# Si number density = 21.432053 Si / 1000 Ang^3
#
#
#
# Elastic Constant Matrix: (Units=GPa)
#
#
# Indices 1 2 3 4 5 6 
#
# 1 117.9936 54.3118 27.1040 0.0000 0.0000 0.0000
# 2 54.3118 117.9964 27.1035 0.0000 0.0000 0.0000
# 3 27.1040 27.1035 69.1739 0.0000 0.0000 0.0000
# 4 0.0000 0.0000 0.0000 26.3996 0.0000 0.0000
# 5 0.0000 0.0000 0.0000 0.0000 26.3989 0.0000
# 6 0.0000 0.0000 0.0000 0.0000 0.0000 38.4082
#
#
#
# Elastic Compliance Matrix: (Units=1/GPa)
#
#
# Indices 1 2 3 4 5 6 
#
# 1 0.011161 -0.004542 -0.002594 0.000000 0.000000 0.000000
# 2 -0.004542 0.011161 -0.002594 0.000000 0.000000 0.000000
# 3 -0.002594 -0.002594 0.016489 0.000000 0.000000 0.000000
# 4 0.000000 0.000000 0.000000 0.037879 0.000000 0.000000
# 5 0.000000 0.000000 0.000000 0.000000 0.037880 0.000000
# 6 0.000000 0.000000 0.000000 0.000000 0.000000 0.026036
#
#
# Mechanical properties :
#
#
# Convention : Reuss Voigt Hill
#
# Bulk Modulus (GPa) = 51.67093 58.02250 54.84672
# Shear Modulus (GPa) = 30.02715 31.35098 30.68906
#
# Velocity S-wave (km/s) = 3.74711 3.82882 3.78818
# Velocity P-wave (km/s) = 6.54848 6.83213 6.69181
#
# Compressibility (1/GPa) = 0.01935324
#
# Stress axis : x y z
#
# Youngs Moduli (GPa) = 89.59524 89.59785 60.64711
#
# Poissons Ratio (x) = 0.40692 0.15731
# Poissons Ratio (y) = 0.40690 0.15729
# Poissons Ratio (z) = 0.23239 0.23238
#
# Static dielectric constant tensor:
#      x y z
#    x 3.697900 0.000000 0.000000 
#    y 0.000000 3.697900 0.000000 
#    z 0.000000 0.000000 4.142820 
# 
# 
# High freq. dielectric constant tensor:
#      x y z
#    x 1.833360 0.000000 0.000000 
#    y 0.000000 1.833360 0.000000 
#    z 0.000000 0.000000 1.850290 
# 
# From -- ./inp_files/3370.got.cif
#   From: 2010.03.12/outbox.cif.g09.slc.cpg/sg92_2_cif.got.tgz:3370.got - 2010.04.08 20:41:11.
