data_PCOD8305543
_publ_section_title
;
Structure prediction by ZEFSAII (Michael W. Deem and Ramdas Pophale) SiO2 
 PCOD8305543
Probable space group: P 42 2 2
;
_chemical_formula_sum "Si O2"
_cell_formula_units_Z 64
_cell_length_a 11.992756
_cell_length_b 11.992756
_cell_length_c 21.886382
_cell_angle_alpha 90.000000
_cell_angle_beta 90.000000
_cell_angle_gamma 90.000000
_cell_volume 3147.835078
_symmetry_space_group_name_H-M "P 42 2 2"
_symmetry_group_IT_number 93
_symmetry_cell_setting 'tetragonal'
loop_
_space_group_symop_operation_xyz
x,y,z
-y,x,1/2+z
-x,-y,z
y,-x,1/2+z
x,-y,-z
-x,y,-z
y,x,1/2-z
-y,-x,1/2-z
loop_
_atom_site_type_symbol
_atom_site_label
_atom_site_fract_x
_atom_site_fract_y
_atom_site_fract_z
Si Si1 0.807295 0.472790 0.143822
Si Si2 0.235642 0.414561 0.266555
Si Si3 0.692269 0.640078 0.684859
Si Si4 0.835903 0.658792 0.046449
Si Si5 0.072310 0.289863 0.917373
Si Si6 0.213378 0.616611 0.521361
Si Si7 0.868013 0.735675 0.596473
Si Si8 0.933440 0.390728 0.633515
O O1 0.827768 0.541387 0.205863
O O2 0.682514 0.418098 0.148171
O O3 0.822874 0.543516 0.082304
O O4 0.897597 0.371667 0.139266
O O5 0.318733 0.318733 0.250000
O O6 0.308115 0.507959 0.302499
O O7 0.146060 0.358196 0.310798
O O8 0.702200 0.702200 0.750000
O O9 0.799736 0.668162 0.646431
O O10 0.711947 0.709218 0.051263
O O11 0.938792 0.728928 0.077777
O O12 0.873478 0.646359 0.976173
O O13 0.134559 0.170397 0.908544
O O14 0.274743 0.500000 0.500000
O O15 0.144690 0.675194 0.467992
O O16 0.130568 0.573115 0.572800
O O17 0.994936 0.721102 0.618651
O O18 0.000000 0.500000 0.654435
#
# Coordination Sequence:
#
# PCOD8305543 Si02
#       8
#     8   8   8   8   8   8   8   8
#     4  10  20  34  59  86 116 164 213 245 305 379
#     4  11  23  39  56  84 124 158 201 257 318 386
#     4   9  19  36  54  82 118 154 198 244 301 370
#     4  10  20  37  59  89 127 162 201 260 313 382
#     4   9  20  38  60  88 123 161 207 256 315 381
#     4  11  21  35  59  91 121 154 201 257 324 378
#     4  10  20  37  60  88 114 154 204 260 313 372
#     4  12  22  37  62  87 115 154 211 263 313 380
#
# _framework density 20.331432
#
# number of rings (size 3 to 8) (size 9 to 14) (size 15 to 20)
#    0.000    1.750    2.500    1.875    0.000    4.250 
#    2.250    3.125    0.000    9.750    0.000    0.000 
#    0.000    0.000    0.000    0.000    0.000    0.000 
#
# Total GULP energy -792951.390844 kJ/mol
# GULP energy per Si atom -12389.865482 kJ/mol
# Density = 2.028516 g / cm^3
# Si number density = 20.331432 Si / 1000 Ang^3
#
#
#
# Elastic Constant Matrix: (Units=GPa)
#
#
# Indices 1 2 3 4 5 6 
#
# 1 142.9103 16.7305 33.3078 0.0000 0.0000 0.0000
# 2 16.7305 142.9103 33.3078 0.0000 0.0000 0.0000
# 3 33.3078 33.3078 81.1570 0.0000 0.0000 0.0000
# 4 0.0000 0.0000 0.0000 31.2710 0.0000 0.0000
# 5 0.0000 0.0000 0.0000 0.0000 31.2710 0.0000
# 6 0.0000 0.0000 0.0000 0.0000 0.0000 17.6939
#
#
#
# Elastic Compliance Matrix: (Units=1/GPa)
#
#
# Indices 1 2 3 4 5 6 
#
# 1 0.007742 -0.000183 -0.003102 0.000000 0.000000 0.000000
# 2 -0.000183 0.007742 -0.003102 0.000000 0.000000 0.000000
# 3 -0.003102 -0.003102 0.014868 0.000000 0.000000 0.000000
# 4 0.000000 0.000000 0.000000 0.031979 0.000000 0.000000
# 5 0.000000 0.000000 0.000000 0.000000 0.031979 0.000000
# 6 0.000000 0.000000 0.000000 0.000000 0.000000 0.056517
#
#
# Mechanical properties :
#
#
# Convention : Reuss Voigt Hill
#
# Bulk Modulus (GPa) = 56.89353 59.29665 58.09509
# Shear Modulus (GPa) = 29.50560 34.95595 32.23077
#
# Velocity S-wave (km/s) = 3.81363 4.15095 3.98586
# Velocity P-wave (km/s) = 6.88735 7.22511 7.05825
#
# Compressibility (1/GPa) = 0.01757669
#
# Stress axis : x y z
#
# Youngs Moduli (GPa) = 129.16789 129.16789 67.25819
#
# Poissons Ratio (x) = 0.02368 0.20864
# Poissons Ratio (y) = 0.02368 0.20864
# Poissons Ratio (z) = 0.40069 0.40069
#
# Static dielectric constant tensor:
#      x y z
#    x 3.672470 0.000000 0.000000 
#    y 0.000000 3.672470 0.000000 
#    z 0.000000 0.000000 3.899620 
# 
# 
# High freq. dielectric constant tensor:
#      x y z
#    x 1.775670 0.000000 0.000000 
#    y 0.000000 1.775670 0.000000 
#    z 0.000000 0.000000 1.806140 
# 
# From -- ./inp_files/6954.got.cif
#   From: 2010.03.12/outbox.cif.g09.slc.cpg/sg93_4_cif.got.tgz:6954.got - 2010.04.08 20:44:19.
