data_PCOD8305126
_publ_section_title
;
Structure prediction by ZEFSAII (Michael W. Deem and Ramdas Pophale) SiO2 
 PCOD8305126
Probable space group: P 41 2 2
;
_chemical_formula_sum "Si O2"
_cell_formula_units_Z 40
_cell_length_a 11.437265
_cell_length_b 11.437265
_cell_length_c 13.989153
_cell_angle_alpha 90.000000
_cell_angle_beta 90.000000
_cell_angle_gamma 90.000000
_cell_volume 1829.935522
_symmetry_space_group_name_H-M "P 41 2 2"
_symmetry_group_IT_number 91
_symmetry_cell_setting 'tetragonal'
loop_
_space_group_symop_operation_xyz
x,y,z
-y,x,1/4+z
-x,-y,1/2+z
y,-x,3/4+z
x,-y,1/2-z
-x,y,-z
y,x,3/4-z
-y,-x,1/4-z
loop_
_atom_site_type_symbol
_atom_site_label
_atom_site_fract_x
_atom_site_fract_y
_atom_site_fract_z
Si Si1 0.073678 0.750479 0.093710
Si Si2 0.761033 0.374561 0.204586
Si Si3 0.708710 0.406436 0.543191
Si Si4 0.372106 0.020568 0.528853
Si Si5 0.342986 0.254790 0.635867
O O1 0.125824 0.874177 0.125000
O O2 0.172480 0.658003 0.068691
O O3 0.999683 0.701856 0.182664
O O4 0.000000 0.772949 0.000000
O O5 0.723659 0.500000 0.250000
O O6 0.668229 0.331772 0.125000
O O7 0.762409 0.281637 0.291771
O O8 0.895579 0.378124 0.165516
O O9 0.613498 0.386503 0.625000
O O10 0.655957 0.356048 0.444848
O O11 0.736764 0.543770 0.544541
O O12 0.500000 0.064869 0.500000
O O13 0.320301 0.125401 0.593293
#
# Coordination Sequence:
#
# PCOD8305126 Si02
#       5
#     8   8   8   8   8
#     4  11  22  39  66  98 134 178 228 289 337 404
#     4  11  27  47  67  99 137 181 226 283 349 409
#     4  11  21  37  66 101 136 172 224 279 344 407
#     4  11  22  43  68  98 133 175 235 277 328 415
#     4  12  22  42  68 102 136 180 228 283 346 411
#
# _framework density 21.858692000000001
#
# number of rings (size 3 to 8) (size 9 to 14) (size 15 to 20)
#    0.000    0.800    6.000    3.000    0.000    4.800 
#    0.000    2.000    0.000    0.000    0.000    0.000 
#    0.000    0.000    0.000    0.000    0.000    0.000 
#
# Total GULP energy -495752.995209 kJ/mol
# GULP energy per Si atom -12393.824880 kJ/mol
# Density = 2.180894 g / cm^3
# Si number density = 21.858692 Si / 1000 Ang^3
#
#
#
# Elastic Constant Matrix: (Units=GPa)
#
#
# Indices 1 2 3 4 5 6 
#
# 1 92.2603 43.3047 46.5499 0.0000 0.0000 0.0000
# 2 43.3047 92.2579 46.5493 0.0000 0.0000 0.0000
# 3 46.5499 46.5493 115.2705 0.0000 0.0000 0.0000
# 4 0.0000 0.0000 0.0000 37.0267 0.0000 0.0000
# 5 0.0000 0.0000 0.0000 0.0000 37.0268 0.0000
# 6 0.0000 0.0000 0.0000 0.0000 0.0000 10.2318
#
#
#
# Elastic Compliance Matrix: (Units=1/GPa)
#
#
# Indices 1 2 3 4 5 6 
#
# 1 0.015317 -0.005110 -0.004122 0.000000 0.000000 0.000000
# 2 -0.005110 0.015318 -0.004122 0.000000 0.000000 0.000000
# 3 -0.004122 -0.004122 0.012004 0.000000 0.000000 0.000000
# 4 0.000000 0.000000 0.000000 0.027008 0.000000 0.000000
# 5 0.000000 0.000000 0.000000 0.000000 0.027007 0.000000
# 6 0.000000 0.000000 0.000000 0.000000 0.000000 0.097734
#
#
# Mechanical properties :
#
#
# Convention : Reuss Voigt Hill
#
# Bulk Modulus (GPa) = 62.77029 63.62183 63.19606
# Shear Modulus (GPa) = 22.08412 27.74937 24.91675
#
# Velocity S-wave (km/s) = 3.18199 3.56685 3.37990
# Velocity P-wave (km/s) = 6.50222 6.79208 6.64873
#
# Compressibility (1/GPa) = 0.01593110
#
# Stress axis : x y z
#
# Youngs Moduli (GPa) = 65.28649 65.28477 83.30231
#
# Poissons Ratio (x) = 0.33360 0.34337
# Poissons Ratio (y) = 0.33360 0.34338
# Poissons Ratio (z) = 0.26911 0.26911
#
# Static dielectric constant tensor:
#      x y z
#    x 4.024620 0.000000 0.000000 
#    y 0.000000 4.024630 0.000000 
#    z 0.000000 0.000000 4.075820 
# 
# 
# High freq. dielectric constant tensor:
#      x y z
#    x 1.853270 0.000000 0.000000 
#    y 0.000000 1.853270 0.000000 
#    z 0.000000 0.000000 1.862820 
# 
# From -- ./inp_files/4698.got.cif
#   From: 2010.03.12/outbox.cif.g09.slc.cpg/sg91_3_cif.got.tgz:4698.got - 2010.04.08 20:27:58.
