data_PCOD8305380
_publ_section_title
;
Structure prediction by ZEFSAII (Michael W. Deem and Ramdas Pophale) SiO2 
 PCOD8305380
Probable space group: P 41 21 2
;
_chemical_formula_sum "Si O2"
_cell_formula_units_Z 48
_cell_length_a 8.684051
_cell_length_b 8.684051
_cell_length_c 29.378789
_cell_angle_alpha 90.000000
_cell_angle_beta 90.000000
_cell_angle_gamma 90.000000
_cell_volume 2215.535028
_symmetry_space_group_name_H-M "P 41 21 2"
_symmetry_group_IT_number 92
_symmetry_cell_setting 'tetragonal'
loop_
_space_group_symop_operation_xyz
x,y,z
1/2-y,1/2+x,1/4+z
-x,-y,1/2+z
1/2+y,1/2-x,3/4+z
1/2+x,1/2-y,3/4-z
1/2-x,1/2+y,1/4-z
y,x,-z
-y,-x,1/2-z
loop_
_atom_site_type_symbol
_atom_site_label
_atom_site_fract_x
_atom_site_fract_y
_atom_site_fract_z
Si Si1 0.404816 0.353165 0.753879
Si Si2 0.816660 0.385226 0.562522
Si Si3 0.031829 0.551519 0.886263
Si Si4 0.417061 0.115446 0.023285
Si Si5 0.212436 0.263740 0.337692
Si Si6 0.047053 0.984084 0.299151
O O1 0.471276 0.528725 0.750000
O O2 0.290191 0.335435 0.796400
O O3 0.552058 0.251410 0.765574
O O4 0.321897 0.293750 0.708283
O O5 0.893471 0.489474 0.523585
O O6 0.638394 0.432073 0.572830
O O7 0.903719 0.404871 0.609764
O O8 0.013139 0.508640 0.939336
O O9 0.156687 0.688219 0.880873
O O10 0.866367 0.600134 0.866161
O O11 0.400160 0.288541 0.041740
O O12 0.076171 0.140211 0.326965
O O13 0.973973 0.026028 0.250000
#
# Coordination Sequence:
#
# PCOD8305380 Si02
#       6
#     8   8   8   8   8   8
#     4  12  24  42  68  96 135 176 224 277 338 389
#     4  11  22  41  68  94 126 175 224 273 331 404
#     4  11  25  43  64  96 137 173 225 275 346 401
#     4  10  22  42  64  93 128 174 222 273 325 402
#     4  11  24  44  65  98 139 174 220 289 339 400
#     4   9  18  41  67  88 127 172 222 269 329 395
#
# _framework density 21.665195000000001
#
# number of rings (size 3 to 8) (size 9 to 14) (size 15 to 20)
#    0.000    1.333    6.667    1.500    2.333    4.000 
#    0.000    0.833    0.000    0.000    0.000    0.000 
#    0.000    0.000    0.000    0.000    0.000    0.000 
#
# Total GULP energy -595105.647075 kJ/mol
# GULP energy per Si atom -12398.034314 kJ/mol
# Density = 2.161588 g / cm^3
# Si number density = 21.665195 Si / 1000 Ang^3
#
#
#
# Elastic Constant Matrix: (Units=GPa)
#
#
# Indices 1 2 3 4 5 6 
#
# 1 63.1076 35.3917 10.3800 0.0000 0.0000 0.0000
# 2 35.3917 63.1069 10.3800 0.0000 0.0000 0.0000
# 3 10.3800 10.3800 68.5154 0.0000 0.0000 0.0000
# 4 0.0000 0.0000 0.0000 32.3135 0.0000 0.0000
# 5 0.0000 0.0000 0.0000 0.0000 32.3136 0.0000
# 6 0.0000 0.0000 0.0000 0.0000 0.0000 50.4889
#
#
#
# Elastic Compliance Matrix: (Units=1/GPa)
#
#
# Indices 1 2 3 4 5 6 
#
# 1 0.023284 -0.012797 -0.001589 0.000000 0.000000 0.000000
# 2 -0.012797 0.023284 -0.001589 0.000000 0.000000 0.000000
# 3 -0.001589 -0.001589 0.015077 0.000000 0.000000 0.000000
# 4 0.000000 0.000000 0.000000 0.030947 0.000000 0.000000
# 5 0.000000 0.000000 0.000000 0.000000 0.030947 0.000000
# 6 0.000000 0.000000 0.000000 0.000000 0.000000 0.019806
#
#
# Mechanical properties :
#
#
# Convention : Reuss Voigt Hill
#
# Bulk Modulus (GPa) = 33.67461 34.11479 33.89470
# Shear Modulus (GPa) = 26.99898 32.26173 29.63036
#
# Velocity S-wave (km/s) = 3.53397 3.86308 3.70218
# Velocity P-wave (km/s) = 5.67705 5.97314 5.82697
#
# Compressibility (1/GPa) = 0.02969596
#
# Stress axis : x y z
#
# Youngs Moduli (GPa) = 42.94810 42.94761 66.32767
#
# Poissons Ratio (x) = 0.54959 0.10538
# Poissons Ratio (y) = 0.54960 0.10538
# Poissons Ratio (z) = 0.06824 0.06824
#
# Static dielectric constant tensor:
#      x y z
#    x 3.883220 0.000000 0.000000 
#    y 0.000000 3.883220 0.000000 
#    z 0.000000 0.000000 3.900150 
# 
# 
# High freq. dielectric constant tensor:
#      x y z
#    x 1.846470 0.000000 0.000000 
#    y 0.000000 1.846470 0.000000 
#    z 0.000000 0.000000 1.844360 
# 
# From -- ./inp_files/4514.got.cif
#   From: 2010.03.12/outbox.cif.g09.slc.cpg/sg92_3_cif.got.tgz:4514.got - 2010.04.08 20:41:11.
