data_PCOD8305964
_publ_section_title
;
Structure prediction by ZEFSAII (Michael W. Deem and Ramdas Pophale) SiO2 
 PCOD8305964
Probable space group: P 43 21 2
;
_chemical_formula_sum "Si O2"
_cell_formula_units_Z 48
_cell_length_a 11.397208
_cell_length_b 11.397208
_cell_length_c 17.893942
_cell_angle_alpha 90.000000
_cell_angle_beta 90.000000
_cell_angle_gamma 90.000000
_cell_volume 2324.357756
_symmetry_space_group_name_H-M "P 43 21 2"
_symmetry_group_IT_number 96
_symmetry_cell_setting 'tetragonal'
loop_
_space_group_symop_operation_xyz
x,y,z
1/2-y,1/2+x,3/4+z
-x,-y,1/2+z
1/2+y,1/2-x,1/4+z
1/2+x,1/2-y,1/4-z
1/2-x,1/2+y,3/4-z
y,x,-z
-y,-x,1/2-z
loop_
_atom_site_type_symbol
_atom_site_label
_atom_site_fract_x
_atom_site_fract_y
_atom_site_fract_z
Si Si1 0.663211 0.817266 0.306029
Si Si2 0.906439 0.001999 0.077473
Si Si3 0.816831 0.747023 0.855422
Si Si4 0.873582 0.862284 0.410808
Si Si5 0.935130 0.546248 0.947907
Si Si6 0.817350 0.567005 0.107553
O O1 0.595904 0.695747 0.316830
O O2 0.743977 0.806576 0.233477
O O3 0.744278 0.846245 0.376921
O O4 0.572160 0.923124 0.293961
O O5 0.014332 0.070052 0.115938
O O6 0.863760 0.892116 0.126887
O O7 0.947170 0.947170 0.000000
O O8 0.879021 0.632506 0.887453
O O9 0.688761 0.747001 0.892606
O O10 0.859483 0.859483 0.500000
O O11 0.957501 0.761730 0.379920
O O12 0.921949 0.415141 0.920492
O O13 0.871195 0.550869 0.026537
#
# Coordination Sequence:
#
# PCOD8305964 Si02
#       6
#     8   8   8   8   8   8
#     4  11  24  45  68  98 135 182 227 284 343 413
#     4  10  23  44  68  96 137 182 217 283 349 401
#     4  11  22  43  70  97 137 175 223 287 345 405
#     4  11  27  44  69  98 143 183 229 284 342 421
#     4  11  25  43  69 100 135 173 228 285 342 405
#     4  12  25  41  71 100 133 177 228 282 341 412
#
# _framework density 20.650866000000001
#
# number of rings (size 3 to 8) (size 9 to 14) (size 15 to 20)
#    0.000    1.000    1.667    5.500    7.000    0.667 
#    3.000    0.000    0.000    0.000    0.000    0.000 
#    0.000    0.000    0.000    0.000    0.000    0.000 
#
# Total GULP energy -595425.422694 kJ/mol
# GULP energy per Si atom -12404.696306 kJ/mol
# Density = 2.060386 g / cm^3
# Si number density = 20.650866 Si / 1000 Ang^3
#
#
#
# Elastic Constant Matrix: (Units=GPa)
#
#
# Indices 1 2 3 4 5 6 
#
# 1 88.7449 27.7208 25.1189 0.0000 0.0000 0.0000
# 2 27.7208 88.7449 25.1189 0.0000 0.0000 0.0000
# 3 25.1189 25.1189 96.4522 0.0000 0.0000 0.0000
# 4 0.0000 0.0000 0.0000 30.2123 0.0000 0.0000
# 5 0.0000 0.0000 0.0000 0.0000 30.2123 0.0000
# 6 0.0000 0.0000 0.0000 0.0000 0.0000 39.9620
#
#
#
# Elastic Compliance Matrix: (Units=1/GPa)
#
#
# Indices 1 2 3 4 5 6 
#
# 1 0.013030 -0.003357 -0.002519 0.000000 0.000000 0.000000
# 2 -0.003357 0.013030 -0.002519 0.000000 0.000000 0.000000
# 3 -0.002519 -0.002519 0.011680 0.000000 0.000000 0.000000
# 4 0.000000 0.000000 0.000000 0.033099 0.000000 0.000000
# 5 0.000000 0.000000 0.000000 0.000000 0.033099 0.000000
# 6 0.000000 0.000000 0.000000 0.000000 0.000000 0.025024
#
#
# Mechanical properties :
#
#
# Convention : Reuss Voigt Hill
#
# Bulk Modulus (GPa) = 47.73439 47.76212 47.74825
# Shear Modulus (GPa) = 32.73639 33.14288 32.93964
#
# Velocity S-wave (km/s) = 3.98582 4.01048 3.99817
# Velocity P-wave (km/s) = 6.65939 6.68011 6.66976
#
# Compressibility (1/GPa) = 0.02094926
#
# Stress axis : x y z
#
# Youngs Moduli (GPa) = 76.74662 76.74662 85.61711
#
# Poissons Ratio (x) = 0.25764 0.21568
# Poissons Ratio (y) = 0.25764 0.21568
# Poissons Ratio (z) = 0.19333 0.19333
#
# Static dielectric constant tensor:
#      x y z
#    x 3.971290 0.000000 0.000000 
#    y 0.000000 3.971290 0.000000 
#    z 0.000000 0.000000 3.710930 
# 
# 
# High freq. dielectric constant tensor:
#      x y z
#    x 1.820680 0.000000 0.000000 
#    y 0.000000 1.820680 0.000000 
#    z 0.000000 0.000000 1.810690 
# 
# From -- ./inp_files/3127.got.cif
#   From: 2010.03.12/outbox.cif.g09.slc.cpg/sg96_2_cif.got.tgz:3127.got - 2010.04.08 20:56:49.
