data_PCOD8305298
_publ_section_title
;
Structure prediction by ZEFSAII (Michael W. Deem and Ramdas Pophale) SiO2 
 PCOD8305298
Probable space group: P 41 21 2
;
_chemical_formula_sum "Si O2"
_cell_formula_units_Z 40
_cell_length_a 14.728052
_cell_length_b 14.728052
_cell_length_c 8.736439
_cell_angle_alpha 90.000000
_cell_angle_beta 90.000000
_cell_angle_gamma 90.000000
_cell_volume 1895.069171
_symmetry_space_group_name_H-M "P 41 21 2"
_symmetry_group_IT_number 92
_symmetry_cell_setting 'tetragonal'
loop_
_space_group_symop_operation_xyz
x,y,z
1/2-y,1/2+x,1/4+z
-x,-y,1/2+z
1/2+y,1/2-x,3/4+z
1/2+x,1/2-y,3/4-z
1/2-x,1/2+y,1/4-z
y,x,-z
-y,-x,1/2-z
loop_
_atom_site_type_symbol
_atom_site_label
_atom_site_fract_x
_atom_site_fract_y
_atom_site_fract_z
Si Si1 0.978788 0.096081 0.611597
Si Si2 0.768876 0.121469 0.529610
Si Si3 0.255666 0.255666 0.500000
Si Si4 0.221171 0.221171 0.000000
Si Si5 0.497330 0.892361 0.348115
Si Si6 0.253820 0.095633 0.268882
O O1 0.975516 0.024485 0.750000
O O2 0.876422 0.105539 0.549170
O O3 0.009104 0.195210 0.673893
O O4 0.054619 0.054619 0.500000
O O5 0.757501 0.158206 0.359441
O O6 0.722236 0.186244 0.654536
O O7 0.706593 0.032966 0.542801
O O8 0.259904 0.162864 0.409153
O O9 0.208697 0.138688 0.117653
O O10 0.459498 0.936466 0.191744
O O11 0.425032 0.859462 0.476146
#
# Coordination Sequence:
#
# PCOD8305298 Si02
#       6
#     8   8   4   4   8   8
#     4  12  26  44  68 105 138 179 234 297 344 426
#     4  11  23  49  67 100 140 187 226 285 365 416
#     4  10  26  44  72  98 136 186 228 280 348 432
#     4  10  20  44  76  94 136 188 226 264 376 420
#     4  12  27  47  71 103 137 187 240 296 344 416
#     4  11  23  46  70 102 137 180 229 290 348 420
#
# _framework density 21.107410000000002
#
# number of rings (size 3 to 8) (size 9 to 14) (size 15 to 20)
#    0.000    0.800    6.000    0.000    8.400    0.000 
#    3.600    0.000    0.000    0.000    0.000    0.000 
#    0.000    0.000    0.000    0.000    0.000    0.000 
#
# Total GULP energy -495653.490502 kJ/mol
# GULP energy per Si atom -12391.337263 kJ/mol
# Density = 2.105937 g / cm^3
# Si number density = 21.107410 Si / 1000 Ang^3
#
#
#
# Elastic Constant Matrix: (Units=GPa)
#
#
# Indices 1 2 3 4 5 6 
#
# 1 98.9520 37.8109 36.3423 0.0000 0.0000 0.0000
# 2 37.8109 98.9510 36.3411 0.0000 0.0000 0.0000
# 3 36.3423 36.3411 115.1283 0.0000 0.0000 0.0000
# 4 0.0000 0.0000 0.0000 26.2372 0.0000 0.0000
# 5 0.0000 0.0000 0.0000 0.0000 26.2370 0.0000
# 6 0.0000 0.0000 0.0000 0.0000 0.0000 38.4970
#
#
#
# Elastic Compliance Matrix: (Units=1/GPa)
#
#
# Indices 1 2 3 4 5 6 
#
# 1 0.012571 -0.003785 -0.002773 0.000000 0.000000 0.000000
# 2 -0.003785 0.012571 -0.002773 0.000000 0.000000 0.000000
# 3 -0.002773 -0.002773 0.010437 0.000000 0.000000 0.000000
# 4 0.000000 0.000000 0.000000 0.038114 0.000000 0.000000
# 5 0.000000 0.000000 0.000000 0.000000 0.038114 0.000000
# 6 0.000000 0.000000 0.000000 0.000000 0.000000 0.025976
#
#
# Mechanical properties :
#
#
# Convention : Reuss Voigt Hill
#
# Bulk Modulus (GPa) = 59.11867 59.33554 59.22711
# Shear Modulus (GPa) = 30.84818 31.69673 31.27245
#
# Velocity S-wave (km/s) = 3.82709 3.87936 3.85331
# Velocity P-wave (km/s) = 6.89914 6.94537 6.92229
#
# Compressibility (1/GPa) = 0.01691513
#
# Stress axis : x y z
#
# Youngs Moduli (GPa) = 79.54950 79.54923 95.81429
#
# Poissons Ratio (x) = 0.30109 0.26574
# Poissons Ratio (y) = 0.30109 0.26572
# Poissons Ratio (z) = 0.22063 0.22061
#
# Static dielectric constant tensor:
#      x y z
#    x 3.824980 0.000000 0.000000 
#    y 0.000000 3.824980 0.000000 
#    z 0.000000 0.000000 3.990480 
# 
# 
# High freq. dielectric constant tensor:
#      x y z
#    x 1.829320 0.000000 0.000000 
#    y 0.000000 1.829320 0.000000 
#    z 0.000000 0.000000 1.839870 
# 
# From -- ./inp_files/1370.got.cif
#   From: 2010.03.12/outbox.cif.g09.slc.cpg/sg92_1_cif.got.tgz:1370.got - 2010.04.08 20:41:11.
