data_PCOD8305481
_publ_section_title
;
Structure prediction by ZEFSAII (Michael W. Deem and Ramdas Pophale) SiO2 
 PCOD8305481
Probable space group: P 41 21 2
;
_chemical_formula_sum "Si O2"
_cell_formula_units_Z 52
_cell_length_a 16.237270
_cell_length_b 16.237270
_cell_length_c 8.796969
_cell_angle_alpha 90.000000
_cell_angle_beta 90.000000
_cell_angle_gamma 90.000000
_cell_volume 2319.311526
_symmetry_space_group_name_H-M "P 41 21 2"
_symmetry_group_IT_number 92
_symmetry_cell_setting 'tetragonal'
loop_
_space_group_symop_operation_xyz
x,y,z
1/2-y,1/2+x,1/4+z
-x,-y,1/2+z
1/2+y,1/2-x,3/4+z
1/2+x,1/2-y,3/4-z
1/2-x,1/2+y,1/4-z
y,x,-z
-y,-x,1/2-z
loop_
_atom_site_type_symbol
_atom_site_label
_atom_site_fract_x
_atom_site_fract_y
_atom_site_fract_z
Si Si1 0.527871 0.472130 0.250000
Si Si2 0.721407 0.981311 0.809092
Si Si3 0.223178 0.892218 0.841378
Si Si4 0.165499 0.661152 0.140018
Si Si5 0.550172 0.635950 0.385529
Si Si6 0.792568 0.960586 0.125945
Si Si7 0.689603 0.229075 0.536462
O O1 0.515877 0.543278 0.374498
O O2 0.516529 0.385252 0.334276
O O3 0.661534 0.921454 0.713173
O O4 0.686922 0.072708 0.826314
O O5 0.806140 0.982248 0.712470
O O6 0.737450 0.946745 0.976345
O O7 0.180670 0.819331 0.750000
O O8 0.248107 0.966591 0.728219
O O9 0.162013 0.926972 0.967405
O O10 0.301241 0.852802 0.930886
O O11 0.219873 0.729746 0.051584
O O12 0.206457 0.647316 0.303858
O O13 0.630403 0.630403 0.500000
O O14 0.793170 0.873349 0.211418
#
# Coordination Sequence:
#
# PCOD8305481 Si02
#       7
#     4   8   8   8   8   8   8
#     4  12  26  40  64 106 150 190 236 294 366 446
#     4  12  26  49  76 104 142 196 253 310 371 444
#     4  12  24  43  71 104 146 199 239 295 374 441
#     4  11  26  51  75 105 142 197 250 307 374 443
#     4  12  24  43  67 100 147 195 239 288 366 450
#     4  12  27  43  68 112 145 191 250 303 369 443
#     4  11  26  45  74 107 150 191 244 304 375 446
#
# _framework density 22.420445999999998
#
# number of rings (size 3 to 8) (size 9 to 14) (size 15 to 20)
#    0.000    0.308    4.615    3.692    7.538    1.231 
#    0.000    1.538    0.000    0.000    0.000    0.000 
#    0.000    0.000    0.000    0.000    0.000    0.000 
#
# Total GULP energy -644713.911148 kJ/mol
# GULP energy per Si atom -12398.344445 kJ/mol
# Density = 2.236942 g / cm^3
# Si number density = 22.420446 Si / 1000 Ang^3
#
#
#
# Elastic Constant Matrix: (Units=GPa)
#
#
# Indices 1 2 3 4 5 6 
#
# 1 106.9204 43.5249 47.8726 0.0000 0.0000 0.0000
# 2 43.5249 106.9205 47.8723 0.0000 0.0000 0.0000
# 3 47.8726 47.8723 154.6618 0.0000 0.0000 0.0000
# 4 0.0000 0.0000 0.0000 37.6764 0.0000 0.0000
# 5 0.0000 0.0000 0.0000 0.0000 37.6761 0.0000
# 6 0.0000 0.0000 0.0000 0.0000 0.0000 20.7079
#
#
#
# Elastic Compliance Matrix: (Units=1/GPa)
#
#
# Indices 1 2 3 4 5 6 
#
# 1 0.012026 -0.003748 -0.002562 0.000000 0.000000 0.000000
# 2 -0.003748 0.012026 -0.002562 0.000000 0.000000 0.000000
# 3 -0.002562 -0.002562 0.008052 0.000000 0.000000 0.000000
# 4 0.000000 0.000000 0.000000 0.026542 0.000000 0.000000
# 5 0.000000 0.000000 0.000000 0.000000 0.026542 0.000000
# 6 0.000000 0.000000 0.000000 0.000000 0.000000 0.048291
#
#
# Mechanical properties :
#
#
# Convention : Reuss Voigt Hill
#
# Bulk Modulus (GPa) = 69.64614 71.89359 70.76987
# Shear Modulus (GPa) = 32.04943 34.49427 33.27185
#
# Velocity S-wave (km/s) = 3.78494 3.92665 3.85645
# Velocity P-wave (km/s) = 7.08746 7.25905 7.17377
#
# Compressibility (1/GPa) = 0.01435830
#
# Stress axis : x y z
#
# Youngs Moduli (GPa) = 83.15484 83.15514 124.19536
#
# Poissons Ratio (x) = 0.31169 0.31821
# Poissons Ratio (y) = 0.31168 0.31820
# Poissons Ratio (z) = 0.21306 0.21305
#
# Static dielectric constant tensor:
#      x y z
#    x 3.870300 0.000000 0.000000 
#    y 0.000000 3.870310 0.000000 
#    z 0.000000 0.000000 4.575610 
# 
# 
# High freq. dielectric constant tensor:
#      x y z
#    x 1.863940 0.000000 0.000000 
#    y 0.000000 1.863940 0.000000 
#    z 0.000000 0.000000 1.919590 
# 
# From -- ./inp_files/1584.got.cif
#   From: 2010.03.12/outbox.cif.g09.slc.cpg/sg92_1_cif.got.tgz:1584.got - 2010.04.08 20:41:11.
