data_PCOD8305238
_publ_section_title
;
Structure prediction by ZEFSAII (Michael W. Deem and Ramdas Pophale) SiO2 
 PCOD8305238
Probable space group: P 41 21 2
;
_chemical_formula_sum "Si O2"
_cell_formula_units_Z 36
_cell_length_a 11.273216
_cell_length_b 11.273216
_cell_length_c 14.862137
_cell_angle_alpha 90.000000
_cell_angle_beta 90.000000
_cell_angle_gamma 90.000000
_cell_volume 1888.760610
_symmetry_space_group_name_H-M "P 41 21 2"
_symmetry_group_IT_number 92
_symmetry_cell_setting 'tetragonal'
loop_
_space_group_symop_operation_xyz
x,y,z
1/2-y,1/2+x,1/4+z
-x,-y,1/2+z
1/2+y,1/2-x,3/4+z
1/2+x,1/2-y,3/4-z
1/2-x,1/2+y,1/4-z
y,x,-z
-y,-x,1/2-z
loop_
_atom_site_type_symbol
_atom_site_label
_atom_site_fract_x
_atom_site_fract_y
_atom_site_fract_z
Si Si1 0.449058 0.414721 0.180343
Si Si2 0.029754 0.970247 0.750000
Si Si3 0.285970 0.822108 0.339105
Si Si4 0.245968 0.586415 0.439427
Si Si5 0.481670 0.196205 0.744667
O O1 0.559744 0.440257 0.250000
O O2 0.468680 0.484947 0.089544
O O3 0.425313 0.277470 0.149758
O O4 0.332160 0.466238 0.226420
O O5 0.996040 0.831177 0.750776
O O6 0.207701 0.792300 0.250000
O O7 0.305990 0.705907 0.400544
O O8 0.415310 0.864445 0.305918
O O9 0.136531 0.620450 0.501612
O O10 0.192780 0.510894 0.359144
#
# Coordination Sequence:
#
# PCOD8305238 Si02
#       5
#     8   4   8   8   8
#     4  11  19  33  59  95 127 155 206 256 311 373
#     4  12  20  36  60  92 120 162 200 260 322 372
#     4   9  17  32  59  92 120 156 212 258 297 358
#     4  10  21  34  63  85 124 163 206 260 320 367
#     4  10  19  38  58  93 120 163 212 262 304 369
#
# _framework density 19.060117000000002
#
# number of rings (size 3 to 8) (size 9 to 14) (size 15 to 20)
#    0.000    1.778    5.556    0.667    0.000    0.000 
#    0.000    2.222    7.333    0.000    0.000    0.000 
#    0.000    0.000    0.000    0.000    0.000    0.000 
#
# Total GULP energy -446042.090516 kJ/mol
# GULP energy per Si atom -12390.058070 kJ/mol
# Density = 1.901674 g / cm^3
# Si number density = 19.060117 Si / 1000 Ang^3
#
#
#
# Elastic Constant Matrix: (Units=GPa)
#
#
# Indices 1 2 3 4 5 6 
#
# 1 79.6654 58.6951 19.2885 0.0000 0.0000 0.0000
# 2 58.6951 79.6636 19.2872 0.0000 0.0000 0.0000
# 3 19.2885 19.2872 47.2630 0.0000 0.0000 0.0000
# 4 0.0000 0.0000 0.0000 24.4508 0.0000 0.0000
# 5 0.0000 0.0000 0.0000 0.0000 24.4513 0.0000
# 6 0.0000 0.0000 0.0000 0.0000 0.0000 35.5043
#
#
#
# Elastic Compliance Matrix: (Units=1/GPa)
#
#
# Indices 1 2 3 4 5 6 
#
# 1 0.027922 -0.019767 -0.003329 0.000000 0.000000 0.000000
# 2 -0.019767 0.027922 -0.003328 0.000000 0.000000 0.000000
# 3 -0.003329 -0.003328 0.023875 0.000000 0.000000 0.000000
# 4 0.000000 0.000000 0.000000 0.040899 0.000000 0.000000
# 5 0.000000 0.000000 0.000000 0.000000 0.040898 0.000000
# 6 0.000000 0.000000 0.000000 0.000000 0.000000 0.028166
#
#
# Mechanical properties :
#
#
# Convention : Reuss Voigt Hill
#
# Bulk Modulus (GPa) = 37.21240 44.57038 40.89139
# Shear Modulus (GPa) = 19.88197 24.16935 22.02566
#
# Velocity S-wave (km/s) = 3.23324 3.56484 3.40308
# Velocity P-wave (km/s) = 5.78831 6.35445 6.07797
#
# Compressibility (1/GPa) = 0.02687277
#
# Stress axis : x y z
#
# Youngs Moduli (GPa) = 35.81418 35.81380 41.88540
#
# Poissons Ratio (x) = 0.70792 0.13943
# Poissons Ratio (y) = 0.70792 0.13938
# Poissons Ratio (z) = 0.11922 0.11917
#
# Static dielectric constant tensor:
#      x y z
#    x 3.614150 0.000000 0.000000 
#    y 0.000000 3.614110 0.000000 
#    z 0.000000 0.000000 3.762110 
# 
# 
# High freq. dielectric constant tensor:
#      x y z
#    x 1.719590 0.000000 0.000000 
#    y 0.000000 1.719590 0.000000 
#    z 0.000000 0.000000 1.740470 
# 
# From -- ./inp_files/1995.got.cif
#   From: 2010.03.12/outbox.cif.g09.slc.cpg/sg92_1_cif.got.tgz:1995.got - 2010.04.08 20:41:11.
