data_PCOD8305457
_publ_section_title
;
Structure prediction by ZEFSAII (Michael W. Deem and Ramdas Pophale) SiO2 
 PCOD8305457
Probable space group: P 41 21 2
;
_chemical_formula_sum "Si O2"
_cell_formula_units_Z 40
_cell_length_a 18.553460
_cell_length_b 18.553460
_cell_length_c 4.811184
_cell_angle_alpha 90.000000
_cell_angle_beta 90.000000
_cell_angle_gamma 90.000000
_cell_volume 1656.158092
_symmetry_space_group_name_H-M "P 41 21 2"
_symmetry_group_IT_number 92
_symmetry_cell_setting 'tetragonal'
loop_
_space_group_symop_operation_xyz
x,y,z
1/2-y,1/2+x,1/4+z
-x,-y,1/2+z
1/2+y,1/2-x,3/4+z
1/2+x,1/2-y,3/4-z
1/2-x,1/2+y,1/4-z
y,x,-z
-y,-x,1/2-z
loop_
_atom_site_type_symbol
_atom_site_label
_atom_site_fract_x
_atom_site_fract_y
_atom_site_fract_z
Si Si1 0.812060 0.924680 0.940027
Si Si2 0.106019 0.525998 0.126497
Si Si3 0.493868 0.264377 0.697303
Si Si4 0.641603 0.164560 0.249880
Si Si5 0.735340 0.145980 0.746986
O O1 0.794510 0.994736 0.135709
O O2 0.889515 0.889515 0.000000
O O3 0.811181 0.949482 0.622830
O O4 0.750188 0.864428 0.966371
O O5 0.178870 0.511641 0.302129
O O6 0.051026 0.571985 0.309430
O O7 0.124762 0.567606 0.838607
O O8 0.417142 0.280150 0.844541
O O9 0.660905 0.154214 0.572920
O O10 0.707852 0.131713 0.062268
O O11 0.782426 0.217575 0.750000
#
# Coordination Sequence:
#
# PCOD8305457 Si02
#       5
#     8   8   8   8   8
#     4  11  23  42  68  94 128 169 217 284 341 396
#     4  11  25  38  62  97 143 197 228 276 329 414
#     4  11  25  42  62  98 131 172 230 273 333 414
#     4  11  24  41  63  94 129 172 236 268 325 396
#     4  12  24  43  66  92 130 174 226 286 337 388
#
# _framework density 24.152284999999999
#
# number of rings (size 3 to 8) (size 9 to 14) (size 15 to 20)
#    0.000    0.800    2.000    6.000    5.600    0.000 
#    0.000    0.000    0.000    2.400    0.000    0.000 
#    0.000    0.000    0.000    0.000    0.000    0.000 
#
# Total GULP energy -495915.333366 kJ/mol
# GULP energy per Si atom -12397.883334 kJ/mol
# Density = 2.409731 g / cm^3
# Si number density = 24.152285 Si / 1000 Ang^3
#
#
#
# Elastic Constant Matrix: (Units=GPa)
#
#
# Indices 1 2 3 4 5 6 
#
# 1 44.8656 27.9274 5.3395 0.0000 0.0000 0.0000
# 2 27.9274 44.8579 5.3387 0.0000 0.0000 0.0000
# 3 5.3395 5.3387 74.5123 0.0000 0.0000 0.0000
# 4 0.0000 0.0000 0.0000 18.7511 0.0000 0.0000
# 5 0.0000 0.0000 0.0000 0.0000 18.7513 0.0000
# 6 0.0000 0.0000 0.0000 0.0000 0.0000 41.1094
#
#
#
# Elastic Compliance Matrix: (Units=1/GPa)
#
#
# Indices 1 2 3 4 5 6 
#
# 1 0.036465 -0.022584 -0.000995 0.000000 0.000000 0.000000
# 2 -0.022584 0.036471 -0.000995 0.000000 0.000000 0.000000
# 3 -0.000995 -0.000995 0.013563 0.000000 0.000000 0.000000
# 4 0.000000 0.000000 0.000000 0.053330 0.000000 0.000000
# 5 0.000000 0.000000 0.000000 0.000000 0.053330 0.000000
# 6 0.000000 0.000000 0.000000 0.000000 0.000000 0.024325
#
#
# Mechanical properties :
#
#
# Convention : Reuss Voigt Hill
#
# Bulk Modulus (GPa) = 26.77216 26.82745 26.79980
# Shear Modulus (GPa) = 17.91591 24.09770 21.00681
#
# Velocity S-wave (km/s) = 2.72654 3.16213 2.95238
# Velocity P-wave (km/s) = 4.58484 4.94609 4.76889
#
# Compressibility (1/GPa) = 0.03735224
#
# Stress axis : x y z
#
# Youngs Moduli (GPa) = 27.42376 27.41905 73.72909
#
# Poissons Ratio (x) = 0.61922 0.07336
# Poissons Ratio (y) = 0.61933 0.07334
# Poissons Ratio (z) = 0.02729 0.02727
#
# Static dielectric constant tensor:
#      x y z
#    x 4.171810 0.000000 0.000000 
#    y 0.000000 4.171810 0.000000 
#    z 0.000000 0.000000 4.375150 
# 
# 
# High freq. dielectric constant tensor:
#      x y z
#    x 1.938140 0.000000 0.000000 
#    y 0.000000 1.938140 0.000000 
#    z 0.000000 0.000000 1.975550 
# 
# From -- ./inp_files/425.got.cif
#   From: 2010.03.12/outbox.cif.g09.slc.cpg/sg92_1_cif.got.tgz:425.got - 2010.04.08 20:41:11.
