data_PCOD8305877
_publ_section_title
;
Structure prediction by ZEFSAII (Michael W. Deem and Ramdas Pophale) SiO2 
 PCOD8305877
Probable space group: P 43 21 2
;
_chemical_formula_sum "Si O2"
_cell_formula_units_Z 40
_cell_length_a 15.900748
_cell_length_b 15.900748
_cell_length_c 8.721839
_cell_angle_alpha 90.000000
_cell_angle_beta 90.000000
_cell_angle_gamma 90.000000
_cell_volume 2205.175584
_symmetry_space_group_name_H-M "P 43 21 2"
_symmetry_group_IT_number 96
_symmetry_cell_setting 'tetragonal'
loop_
_space_group_symop_operation_xyz
x,y,z
1/2-y,1/2+x,3/4+z
-x,-y,1/2+z
1/2+y,1/2-x,1/4+z
1/2+x,1/2-y,1/4-z
1/2-x,1/2+y,3/4-z
y,x,-z
-y,-x,1/2-z
loop_
_atom_site_type_symbol
_atom_site_label
_atom_site_fract_x
_atom_site_fract_y
_atom_site_fract_z
Si Si1 0.844104 0.844104 0.000000
Si Si2 0.526327 0.089478 0.892845
Si Si3 0.986103 0.225258 0.421277
Si Si4 0.282876 0.239673 0.299706
Si Si5 0.209406 0.396814 0.441869
Si Si6 0.818634 0.181367 0.250000
O O1 0.769080 0.839402 0.870215
O O2 0.933531 0.836323 0.913804
O O3 0.451107 0.039942 0.809259
O O4 0.503273 0.186916 0.914701
O O5 0.611370 0.079866 0.792409
O O6 0.970282 0.240191 0.604142
O O7 0.907468 0.182285 0.336971
O O8 0.219019 0.316452 0.329754
O O9 0.372047 0.247490 0.392089
O O10 0.306801 0.240845 0.120180
#
# Coordination Sequence:
#
# PCOD8305877 Si02
#       6
#     4   8   8   8   8   4
#     4  10  18  36  62  76 106 152 188 222 276 328
#     4  10  19  31  49  78 110 140 174 222 279 323
#     4  10  19  36  54  79 106 147 182 229 262 330
#     4   9  16  34  55  79 100 145 180 218 261 333
#     4   8  16  32  55  73 106 143 185 204 270 329
#     4  10  22  34  56  82 114 140 184 232 280 310
#
# _framework density 18.139144000000002
#
# number of rings (size 3 to 8) (size 9 to 14) (size 15 to 20)
#    0.000    2.800    4.000    0.000    0.000    1.600 
#    0.000    6.000    0.000    0.000    0.000    0.000 
#    0.000    0.000    0.000    0.000    0.000    0.000 
#
# Total GULP energy -495531.569468 kJ/mol
# GULP energy per Si atom -12388.289237 kJ/mol
# Density = 1.809786 g / cm^3
# Si number density = 18.139144 Si / 1000 Ang^3
#
#
#
# Elastic Constant Matrix: (Units=GPa)
#
#
# Indices 1 2 3 4 5 6 
#
# 1 76.3347 32.0754 27.9490 0.0000 0.0000 0.0000
# 2 32.0754 76.3343 27.9491 0.0000 0.0000 0.0000
# 3 27.9490 27.9491 86.3322 0.0000 0.0000 0.0000
# 4 0.0000 0.0000 0.0000 21.0182 0.0000 0.0000
# 5 0.0000 0.0000 0.0000 0.0000 21.0182 0.0000
# 6 0.0000 0.0000 0.0000 0.0000 0.0000 24.4718
#
#
#
# Elastic Compliance Matrix: (Units=1/GPa)
#
#
# Indices 1 2 3 4 5 6 
#
# 1 0.016833 -0.005761 -0.003585 0.000000 0.000000 0.000000
# 2 -0.005761 0.016833 -0.003585 0.000000 0.000000 0.000000
# 3 -0.003585 -0.003585 0.013904 0.000000 0.000000 0.000000
# 4 0.000000 0.000000 0.000000 0.047578 0.000000 0.000000
# 5 0.000000 0.000000 0.000000 0.000000 0.047578 0.000000
# 6 0.000000 0.000000 0.000000 0.000000 0.000000 0.040863
#
#
# Mechanical properties :
#
#
# Convention : Reuss Voigt Hill
#
# Bulk Modulus (GPa) = 46.06011 46.10537 46.08274
# Shear Modulus (GPa) = 23.07477 23.37015 23.22246
#
# Velocity S-wave (km/s) = 3.57052 3.59330 3.58193
# Velocity P-wave (km/s) = 6.51505 6.53364 6.52436
#
# Compressibility (1/GPa) = 0.02171076
#
# Stress axis : x y z
#
# Youngs Moduli (GPa) = 59.40599 59.40564 71.92117
#
# Poissons Ratio (x) = 0.34223 0.25781
# Poissons Ratio (y) = 0.34223 0.25781
# Poissons Ratio (z) = 0.21295 0.21295
#
# Static dielectric constant tensor:
#      x y z
#    x 3.291740 0.000000 0.000000 
#    y 0.000000 3.291740 0.000000 
#    z 0.000000 0.000000 3.312600 
# 
# 
# High freq. dielectric constant tensor:
#      x y z
#    x 1.690960 0.000000 0.000000 
#    y 0.000000 1.690960 0.000000 
#    z 0.000000 0.000000 1.679080 
# 
# From -- ./inp_files/1452.got.cif
#   From: 2010.03.12/outbox.cif.g09.slc.cpg/sg96_1_cif.got.tgz:1452.got - 2010.04.08 20:56:49.
