data_PCOD8305988
_publ_section_title
;
Structure prediction by ZEFSAII (Michael W. Deem and Ramdas Pophale) SiO2 
 PCOD8305988
Probable space group: P 43 21 2
;
_chemical_formula_sum "Si O2"
_cell_formula_units_Z 64
_cell_length_a 11.104202
_cell_length_b 11.104202
_cell_length_c 24.190414
_cell_angle_alpha 90.000000
_cell_angle_beta 90.000000
_cell_angle_gamma 90.000000
_cell_volume 2982.757924
_symmetry_space_group_name_H-M "P 43 21 2"
_symmetry_group_IT_number 96
_symmetry_cell_setting 'tetragonal'
loop_
_space_group_symop_operation_xyz
x,y,z
1/2-y,1/2+x,3/4+z
-x,-y,1/2+z
1/2+y,1/2-x,1/4+z
1/2+x,1/2-y,1/4-z
1/2-x,1/2+y,3/4-z
y,x,-z
-y,-x,1/2-z
loop_
_atom_site_type_symbol
_atom_site_label
_atom_site_fract_x
_atom_site_fract_y
_atom_site_fract_z
Si Si1 0.734150 0.954105 0.616503
Si Si2 0.723340 0.133694 0.447234
Si Si3 0.526196 0.066006 0.273005
Si Si4 0.428526 0.632176 0.077524
Si Si5 0.017558 0.125942 0.136835
Si Si6 0.269885 0.115746 0.759285
Si Si7 0.793694 0.307750 0.838276
Si Si8 0.097719 0.685493 0.218546
O O1 0.694685 0.898819 0.675055
O O2 0.637121 0.907737 0.572049
O O3 0.863666 0.899572 0.599976
O O4 0.738904 0.099046 0.621777
O O5 0.797533 0.242396 0.477272
O O6 0.673507 0.024125 0.484220
O O7 0.808634 0.081986 0.399897
O O8 0.612961 0.966205 0.245480
O O9 0.417707 0.992470 0.300832
O O10 0.469051 0.501957 0.095174
O O11 0.414009 0.720569 0.130929
O O12 0.524314 0.688157 0.033968
O O13 0.302097 0.615576 0.047398
O O14 0.049507 0.203429 0.190461
O O15 0.850340 0.345535 0.779239
O O16 0.696230 0.203168 0.826701
#
# Coordination Sequence:
#
# PCOD8305988 Si02
#       8
#     8   8   8   8   8   8   8   8
#     4  11  21  43  67  94 131 185 221 279 355 414
#     4  11  24  45  66 100 139 177 234 296 341 416
#     4  12  24  44  70 100 141 186 227 293 355 427
#     4  12  24  44  71 103 136 185 244 293 348 438
#     4  11  25  44  69  97 140 182 233 293 347 421
#     4  11  25  43  71 100 135 187 242 281 357 437
#     4  11  23  40  68 103 132 179 234 291 356 411
#     4  11  23  42  69  99 138 179 234 288 357 423
#
# _framework density 21.456651999999998
#
# number of rings (size 3 to 8) (size 9 to 14) (size 15 to 20)
#    0.000    0.750    6.250    1.125    3.500    4.500 
#    4.500    0.000    0.000    0.000    0.000    0.000 
#    0.000    0.000    0.000    0.000    0.000    0.000 
#
# Total GULP energy -793304.223472 kJ/mol
# GULP energy per Si atom -12395.378492 kJ/mol
# Density = 2.140782 g / cm^3
# Si number density = 21.456652 Si / 1000 Ang^3
#
#
#
# Elastic Constant Matrix: (Units=GPa)
#
#
# Indices 1 2 3 4 5 6 
#
# 1 86.1545 41.0371 32.5900 0.0000 0.0000 0.0000
# 2 41.0371 86.1545 32.5900 0.0000 0.0000 0.0000
# 3 32.5900 32.5900 65.4537 0.0000 0.0000 0.0000
# 4 0.0000 0.0000 0.0000 23.1940 0.0000 0.0000
# 5 0.0000 0.0000 0.0000 0.0000 23.1940 0.0000
# 6 0.0000 0.0000 0.0000 0.0000 0.0000 34.1308
#
#
#
# Elastic Compliance Matrix: (Units=1/GPa)
#
#
# Indices 1 2 3 4 5 6 
#
# 1 0.016360 -0.005804 -0.005256 0.000000 0.000000 0.000000
# 2 -0.005804 0.016360 -0.005256 0.000000 0.000000 0.000000
# 3 -0.005256 -0.005256 0.020512 0.000000 0.000000 0.000000
# 4 0.000000 0.000000 0.000000 0.043115 0.000000 0.000000
# 5 0.000000 0.000000 0.000000 0.000000 0.043115 0.000000
# 6 0.000000 0.000000 0.000000 0.000000 0.000000 0.029299
#
#
# Mechanical properties :
#
#
# Convention : Reuss Voigt Hill
#
# Bulk Modulus (GPa) = 48.54386 50.02187 49.28286
# Shear Modulus (GPa) = 24.00867 24.87345 24.44106
#
# Velocity S-wave (km/s) = 3.34868 3.40846 3.37870
# Velocity P-wave (km/s) = 6.13391 6.23327 6.18379
#
# Compressibility (1/GPa) = 0.02059993
#
# Stress axis : x y z
#
# Youngs Moduli (GPa) = 61.12496 61.12496 48.75284
#
# Poissons Ratio (x) = 0.35480 0.25623
# Poissons Ratio (y) = 0.35480 0.25623
# Poissons Ratio (z) = 0.32125 0.32125
#
# Static dielectric constant tensor:
#      x y z
#    x 3.980020 0.000000 0.000000 
#    y 0.000000 3.980020 0.000000 
#    z 0.000000 0.000000 3.666980 
# 
# 
# High freq. dielectric constant tensor:
#      x y z
#    x 1.846210 0.000000 0.000000 
#    y 0.000000 1.846210 0.000000 
#    z 0.000000 0.000000 1.830360 
# 
# From -- ./inp_files/4217.got.cif
#   From: 2010.03.12/outbox.cif.g09.slc.cpg/sg96_3_cif.got.tgz:4217.got - 2010.04.08 20:56:49.
