data_PCOD8305401
_publ_section_title
;
Structure prediction by ZEFSAII (Michael W. Deem and Ramdas Pophale) SiO2 
 PCOD8305401
Probable space group: P 41 21 2
;
_chemical_formula_sum "Si O2"
_cell_formula_units_Z 48
_cell_length_a 12.872598
_cell_length_b 12.872598
_cell_length_c 15.717240
_cell_angle_alpha 90.000000
_cell_angle_beta 90.000000
_cell_angle_gamma 90.000000
_cell_volume 2604.406068
_symmetry_space_group_name_H-M "P 41 21 2"
_symmetry_group_IT_number 92
_symmetry_cell_setting 'tetragonal'
loop_
_space_group_symop_operation_xyz
x,y,z
1/2-y,1/2+x,1/4+z
-x,-y,1/2+z
1/2+y,1/2-x,3/4+z
1/2+x,1/2-y,3/4-z
1/2-x,1/2+y,1/4-z
y,x,-z
-y,-x,1/2-z
loop_
_atom_site_type_symbol
_atom_site_label
_atom_site_fract_x
_atom_site_fract_y
_atom_site_fract_z
Si Si1 0.362774 0.837913 0.559195
Si Si2 0.152418 0.030847 0.926996
Si Si3 0.709256 0.374085 0.996506
Si Si4 0.134870 0.451877 0.246526
Si Si5 0.940625 0.540128 0.342777
Si Si6 0.169420 0.914546 0.664404
O O1 0.357064 0.717510 0.537356
O O2 0.364679 0.903220 0.472609
O O3 0.469949 0.859664 0.606594
O O4 0.267183 0.867495 0.617593
O O5 0.162106 0.105825 0.846268
O O6 0.268147 0.003076 0.956504
O O7 0.089991 0.928307 0.899023
O O8 0.088359 0.088359 0.000000
O O9 0.829830 0.344469 0.988007
O O10 0.693363 0.467962 0.061325
O O11 0.123786 0.503457 0.153740
O O12 0.028995 0.469652 0.298987
O O13 0.151759 0.848242 0.750000
#
# Coordination Sequence:
#
# PCOD8305401 Si02
#       6
#     8   8   8   8   8   8
#     4  11  22  39  62  90 123 153 203 252 308 345
#     4  11  23  40  63  84 124 167 201 243 312 369
#     4  11  22  39  61  89 120 157 206 249 298 365
#     4  11  19  38  62  85 119 160 202 245 301 364
#     4  10  23  36  61  92 119 153 202 256 296 362
#     4  10  23  38  61  91 117 159 204 246 299 365
#
# _framework density 18.430306999999999
#
# number of rings (size 3 to 8) (size 9 to 14) (size 15 to 20)
#    0.000    1.333    5.000    1.000    0.000    2.667 
#    0.000    0.000    0.000    0.000    0.000    0.000 
#    0.000    0.000    0.000    0.000    0.000    0.000 
#
# Total GULP energy -595358.058211 kJ/mol
# GULP energy per Si atom -12403.292879 kJ/mol
# Density = 1.838836 g / cm^3
# Si number density = 18.430307 Si / 1000 Ang^3
#
#
#
# Elastic Constant Matrix: (Units=GPa)
#
#
# Indices 1 2 3 4 5 6 
#
# 1 81.2230 43.7750 34.7335 0.0000 0.0000 0.0000
# 2 43.7750 81.2242 34.7340 0.0000 0.0000 0.0000
# 3 34.7335 34.7340 87.8143 0.0000 0.0000 0.0000
# 4 0.0000 0.0000 0.0000 30.1947 0.0000 0.0000
# 5 0.0000 0.0000 0.0000 0.0000 30.1947 0.0000
# 6 0.0000 0.0000 0.0000 0.0000 0.0000 27.7808
#
#
#
# Elastic Compliance Matrix: (Units=1/GPa)
#
#
# Indices 1 2 3 4 5 6 
#
# 1 0.018479 -0.008225 -0.004056 0.000000 0.000000 0.000000
# 2 -0.008225 0.018479 -0.004056 0.000000 0.000000 0.000000
# 3 -0.004056 -0.004056 0.014596 0.000000 0.000000 0.000000
# 4 0.000000 0.000000 0.000000 0.033118 0.000000 0.000000
# 5 0.000000 0.000000 0.000000 0.000000 0.033118 0.000000
# 6 0.000000 0.000000 0.000000 0.000000 0.000000 0.035996
#
#
# Mechanical properties :
#
#
# Convention : Reuss Voigt Hill
#
# Bulk Modulus (GPa) = 52.96360 52.97185 52.96773
# Shear Modulus (GPa) = 25.93997 26.76865 26.35431
#
# Velocity S-wave (km/s) = 3.75569 3.81520 3.78556
# Velocity P-wave (km/s) = 6.89975 6.94347 6.92165
#
# Compressibility (1/GPa) = 0.01888089
#
# Stress axis : x y z
#
# Youngs Moduli (GPa) = 54.11604 54.11668 68.51113
#
# Poissons Ratio (x) = 0.44509 0.27787
# Poissons Ratio (y) = 0.44508 0.27788
# Poissons Ratio (z) = 0.21949 0.21949
#
# Static dielectric constant tensor:
#      x y z
#    x 3.519290 0.000000 0.000000 
#    y 0.000000 3.519280 0.000000 
#    z 0.000000 0.000000 3.632050 
# 
# 
# High freq. dielectric constant tensor:
#      x y z
#    x 1.716170 0.000000 0.000000 
#    y 0.000000 1.716170 0.000000 
#    z 0.000000 0.000000 1.731790 
# 
# From -- ./inp_files/3125.got.cif
#   From: 2010.03.12/outbox.cif.g09.slc.cpg/sg92_2_cif.got.tgz:3125.got - 2010.04.08 20:41:11.
