data_PCOD8305940
_publ_section_title
;
Structure prediction by ZEFSAII (Michael W. Deem and Ramdas Pophale) SiO2 
 PCOD8305940
Probable space group: P 43 21 2
;
_chemical_formula_sum "Si O2"
_cell_formula_units_Z 48
_cell_length_a 16.341690
_cell_length_b 16.341690
_cell_length_c 9.523303
_cell_angle_alpha 90.000000
_cell_angle_beta 90.000000
_cell_angle_gamma 90.000000
_cell_volume 2543.205990
_symmetry_space_group_name_H-M "P 43 21 2"
_symmetry_group_IT_number 96
_symmetry_cell_setting 'tetragonal'
loop_
_space_group_symop_operation_xyz
x,y,z
1/2-y,1/2+x,3/4+z
-x,-y,1/2+z
1/2+y,1/2-x,1/4+z
1/2+x,1/2-y,1/4-z
1/2-x,1/2+y,3/4-z
y,x,-z
-y,-x,1/2-z
loop_
_atom_site_type_symbol
_atom_site_label
_atom_site_fract_x
_atom_site_fract_y
_atom_site_fract_z
Si Si1 0.163663 0.836338 0.250000
Si Si2 0.335578 0.853829 0.748038
Si Si3 0.534283 0.465718 0.750000
Si Si4 0.139984 0.116105 0.737794
Si Si5 0.748606 0.743683 0.263872
Si Si6 0.511776 0.223773 0.125977
Si Si7 0.354122 0.485374 0.656706
O O1 0.205493 0.805437 0.391175
O O2 0.065351 0.826055 0.268682
O O3 0.286716 0.816829 0.616303
O O4 0.304015 0.817075 0.894770
O O5 0.431514 0.837784 0.717407
O O6 0.324489 0.951126 0.770833
O O7 0.563775 0.412458 0.880337
O O8 0.438777 0.450126 0.720581
O O9 0.183190 0.199357 0.686280
O O10 0.217684 0.064340 0.779591
O O11 0.081501 0.136633 0.870856
O O12 0.464925 0.283472 0.232412
#
# Coordination Sequence:
#
# PCOD8305940 Si02
#       7
#     4   8   4   8   8   8   8
#     4  12  23  38  56  94 133 160 204 246 306 372
#     4  10  22  39  67  86 112 159 216 257 305 364
#     4  12  23  32  54  96 127 164 190 238 314 368
#     4  11  22  38  58  87 131 160 198 248 310 369
#     4  10  22  39  60  91 122 166 206 246 303 381
#     4  11  22  40  64  85 116 162 213 259 302 370
#     4  12  22  34  58  92 128 157 197 247 306 372
#
# _framework density 18.873815
#
# number of rings (size 3 to 8) (size 9 to 14) (size 15 to 20)
#    0.000    1.000    6.667    0.500    2.333    0.000 
#    0.000    0.000    7.333    0.000    0.000    0.000 
#    0.000    0.000    0.000    0.000    0.000    0.000 
#
# Total GULP energy -594680.329863 kJ/mol
# GULP energy per Si atom -12389.173539 kJ/mol
# Density = 1.883086 g / cm^3
# Si number density = 18.873815 Si / 1000 Ang^3
#
#
#
# Elastic Constant Matrix: (Units=GPa)
#
#
# Indices 1 2 3 4 5 6 
#
# 1 94.2705 62.7411 38.5477 0.0000 0.0000 0.0000
# 2 62.7411 94.2718 38.5476 0.0000 0.0000 0.0000
# 3 38.5477 38.5476 78.4374 0.0000 0.0000 0.0000
# 4 0.0000 0.0000 0.0000 25.5313 0.0000 0.0000
# 5 0.0000 0.0000 0.0000 0.0000 25.5307 0.0000
# 6 0.0000 0.0000 0.0000 0.0000 0.0000 33.2955
#
#
#
# Elastic Compliance Matrix: (Units=1/GPa)
#
#
# Indices 1 2 3 4 5 6 
#
# 1 0.020055 -0.011661 -0.004126 0.000000 0.000000 0.000000
# 2 -0.011661 0.020055 -0.004125 0.000000 0.000000 0.000000
# 3 -0.004126 -0.004125 0.016804 0.000000 0.000000 0.000000
# 4 0.000000 0.000000 0.000000 0.039168 0.000000 0.000000
# 5 0.000000 0.000000 0.000000 0.000000 0.039169 0.000000
# 6 0.000000 0.000000 0.000000 0.000000 0.000000 0.030034
#
#
# Mechanical properties :
#
#
# Convention : Reuss Voigt Hill
#
# Bulk Modulus (GPa) = 58.50969 60.73917 59.62443
# Shear Modulus (GPa) = 23.71863 25.34772 24.53317
#
# Velocity S-wave (km/s) = 3.54884 3.66869 3.60926
# Velocity P-wave (km/s) = 6.91810 7.08500 7.00205
#
# Compressibility (1/GPa) = 0.01709119
#
# Stress axis : x y z
#
# Youngs Moduli (GPa) = 49.86188 49.86282 59.50992
#
# Poissons Ratio (x) = 0.58143 0.24551
# Poissons Ratio (y) = 0.58142 0.24550
# Poissons Ratio (z) = 0.20571 0.20570
#
# Static dielectric constant tensor:
#      x y z
#    x 3.648780 0.000000 0.000000 
#    y 0.000000 3.648750 0.000000 
#    z 0.000000 0.000000 3.531490 
# 
# 
# High freq. dielectric constant tensor:
#      x y z
#    x 1.731030 0.000000 0.000000 
#    y 0.000000 1.731030 0.000000 
#    z 0.000000 0.000000 1.729700 
# 
# From -- ./inp_files/1520.got.cif
#   From: 2010.03.12/outbox.cif.g09.slc.cpg/sg96_1_cif.got.tgz:1520.got - 2010.04.08 20:56:49.
