data_PCOD8305997
_publ_section_title
;
Structure prediction by ZEFSAII (Michael W. Deem and Ramdas Pophale) SiO2 
 PCOD8305997
Probable space group: P 43 21 2
;
_chemical_formula_sum "Si O2"
_cell_formula_units_Z 40
_cell_length_a 11.245522
_cell_length_b 11.245522
_cell_length_c 14.267297
_cell_angle_alpha 90.000000
_cell_angle_beta 90.000000
_cell_angle_gamma 90.000000
_cell_volume 1804.267561
_symmetry_space_group_name_H-M "P 43 21 2"
_symmetry_group_IT_number 96
_symmetry_cell_setting 'tetragonal'
loop_
_space_group_symop_operation_xyz
x,y,z
1/2-y,1/2+x,3/4+z
-x,-y,1/2+z
1/2+y,1/2-x,1/4+z
1/2+x,1/2-y,1/4-z
1/2-x,1/2+y,3/4-z
y,x,-z
-y,-x,1/2-z
loop_
_atom_site_type_symbol
_atom_site_label
_atom_site_fract_x
_atom_site_fract_y
_atom_site_fract_z
Si Si1 0.891753 0.375225 0.021403
Si Si2 0.496329 0.318890 0.549407
Si Si3 0.337958 0.476114 0.079790
Si Si4 0.775845 0.134557 0.988237
Si Si5 0.876912 0.494715 0.463191
O O1 0.838539 0.261182 0.966047
O O2 0.944112 0.325939 0.118989
O O3 0.782390 0.468583 0.026011
O O4 0.991270 0.451160 0.967389
O O5 0.402802 0.402802 0.500000
O O6 0.616304 0.388347 0.578336
O O7 0.439852 0.263223 0.643181
O O8 0.360278 0.428306 0.184432
O O9 0.407133 0.407133 0.000000
O O10 0.198588 0.465186 0.053474
O O11 0.647416 0.136695 0.038605
#
# Coordination Sequence:
#
# PCOD8305997 Si02
#       5
#     8   8   8   8   8
#     4  12  25  44  73 104 145 197 245 312 374 443
#     4  11  26  46  69 107 150 194 250 303 382 455
#     4  11  23  45  71 102 144 186 243 310 365 443
#     4  12  25  46  71 107 147 197 245 312 375 450
#     4  12  24  44  69 104 142 188 252 300 371 446
#
# _framework density 22.169658999999999
#
# number of rings (size 3 to 8) (size 9 to 14) (size 15 to 20)
#    0.000    0.400    6.000    3.000    0.000    0.000 
#    0.000    0.000    0.000    0.000    0.000    0.000 
#    0.000    0.000    0.000    0.000    0.000    0.000 
#
# Total GULP energy -495675.477797 kJ/mol
# GULP energy per Si atom -12391.886945 kJ/mol
# Density = 2.211920 g / cm^3
# Si number density = 22.169659 Si / 1000 Ang^3
#
#
#
# Elastic Constant Matrix: (Units=GPa)
#
#
# Indices 1 2 3 4 5 6 
#
# 1 122.3474 50.5265 21.3967 0.0000 0.0000 0.0000
# 2 50.5265 122.3474 21.3967 0.0000 0.0000 0.0000
# 3 21.3967 21.3967 90.4495 0.0000 0.0000 0.0000
# 4 0.0000 0.0000 0.0000 31.9111 0.0000 0.0000
# 5 0.0000 0.0000 0.0000 0.0000 31.9111 0.0000
# 6 0.0000 0.0000 0.0000 0.0000 0.0000 36.8895
#
#
#
# Elastic Compliance Matrix: (Units=1/GPa)
#
#
# Indices 1 2 3 4 5 6 
#
# 1 0.010034 -0.003890 -0.001454 0.000000 0.000000 0.000000
# 2 -0.003890 0.010034 -0.001454 0.000000 0.000000 0.000000
# 3 -0.001454 -0.001454 0.011744 0.000000 0.000000 0.000000
# 4 0.000000 0.000000 0.000000 0.031337 0.000000 0.000000
# 5 0.000000 0.000000 0.000000 0.000000 0.031337 0.000000
# 6 0.000000 0.000000 0.000000 0.000000 0.000000 0.027108
#
#
# Mechanical properties :
#
#
# Convention : Reuss Voigt Hill
#
# Bulk Modulus (GPa) = 54.88995 57.97602 56.43298
# Shear Modulus (GPa) = 35.39586 36.26398 35.82992
#
# Velocity S-wave (km/s) = 4.00007 4.04883 4.02452
# Velocity P-wave (km/s) = 6.79315 6.93290 6.86338
#
# Compressibility (1/GPa) = 0.01821827
#
# Stress axis : x y z
#
# Youngs Moduli (GPa) = 99.66167 99.66167 85.15294
#
# Poissons Ratio (x) = 0.38764 0.12377
# Poissons Ratio (y) = 0.38764 0.12377
# Poissons Ratio (z) = 0.14486 0.14486
#
# Static dielectric constant tensor:
#      x y z
#    x 4.150340 0.000000 0.000000 
#    y 0.000000 4.150340 0.000000 
#    z 0.000000 0.000000 3.847460 
# 
# 
# High freq. dielectric constant tensor:
#      x y z
#    x 1.879650 0.000000 0.000000 
#    y 0.000000 1.879650 0.000000 
#    z 0.000000 0.000000 1.868570 
# 
# From -- ./inp_files/2616.got.cif
#   From: 2010.03.12/outbox.cif.g09.slc.cpg/sg96_2_cif.got.tgz:2616.got - 2010.04.08 20:56:49.
