data_PCOD8305557
_publ_section_title
;
Structure prediction by ZEFSAII (Michael W. Deem and Ramdas Pophale) SiO2 
 PCOD8305557
Probable space group: P 42 2 2
;
_chemical_formula_sum "Si O2"
_cell_formula_units_Z 40
_cell_length_a 11.327370
_cell_length_b 11.327370
_cell_length_c 13.806319
_cell_angle_alpha 90.000000
_cell_angle_beta 90.000000
_cell_angle_gamma 90.000000
_cell_volume 1771.479280
_symmetry_space_group_name_H-M "P 42 2 2"
_symmetry_group_IT_number 93
_symmetry_cell_setting 'tetragonal'
loop_
_space_group_symop_operation_xyz
x,y,z
-y,x,1/2+z
-x,-y,z
y,-x,1/2+z
x,-y,-z
-x,y,-z
y,x,1/2-z
-y,-x,1/2-z
loop_
_atom_site_type_symbol
_atom_site_label
_atom_site_fract_x
_atom_site_fract_y
_atom_site_fract_z
Si Si1 0.681435 0.170542 0.315191
Si Si2 0.573990 0.619058 0.140692
Si Si3 0.751359 0.921096 0.292230
Si Si4 0.129238 0.473460 0.316407
Si Si5 0.372681 0.189892 0.472487
O O1 0.718186 0.281815 0.250000
O O2 0.548333 0.135829 0.283690
O O3 0.696850 0.203647 0.426718
O O4 0.765463 0.061162 0.289629
O O5 0.500000 0.500000 0.121775
O O6 0.621274 0.621274 0.250000
O O7 0.507839 0.747565 0.122133
O O8 0.680731 0.606069 0.067898
O O9 0.874280 0.874280 0.250000
O O10 0.662064 0.870147 0.212633
O O11 0.708182 0.887441 0.400766
O O12 0.000000 0.500000 0.368479
O O13 0.500000 0.131279 0.500000
#
# Coordination Sequence:
#
# PCOD8305557 Si02
#       5
#     8   8   8   8   8
#     4  11  26  41  64  98 137 173 225 285 342 410
#     4  11  22  38  67 102 140 183 225 284 354 420
#     4  11  21  43  71  96 128 177 229 280 342 402
#     4  10  20  39  66  93 133 181 223 268 343 414
#     4  12  22  40  68 104 132 169 229 283 337 414
#
# _framework density 22.580000999999999
#
# number of rings (size 3 to 8) (size 9 to 14) (size 15 to 20)
#    0.000    1.000    6.000    0.600    5.600    1.600 
#    0.000    2.000    0.000    3.600    0.000    0.000 
#    0.000    0.000    0.000    0.000    0.000    0.000 
#
# Total GULP energy -495553.623927 kJ/mol
# GULP energy per Si atom -12388.840598 kJ/mol
# Density = 2.252861 g / cm^3
# Si number density = 22.580001 Si / 1000 Ang^3
#
#
#
# Elastic Constant Matrix: (Units=GPa)
#
#
# Indices 1 2 3 4 5 6 
#
# 1 89.9587 8.4953 -0.5643 0.0000 0.0000 0.0000
# 2 8.4953 89.9564 -0.5656 0.0000 0.0000 0.0000
# 3 -0.5643 -0.5656 51.4014 0.0000 0.0000 0.0000
# 4 0.0000 0.0000 0.0000 14.4334 0.0000 0.0000
# 5 0.0000 0.0000 0.0000 0.0000 14.4331 0.0000
# 6 0.0000 0.0000 0.0000 0.0000 0.0000 28.6539
#
#
#
# Elastic Compliance Matrix: (Units=1/GPa)
#
#
# Indices 1 2 3 4 5 6 
#
# 1 0.011217 -0.001059 0.000111 0.000000 0.000000 0.000000
# 2 -0.001059 0.011217 0.000112 0.000000 0.000000 0.000000
# 3 0.000111 0.000112 0.019457 0.000000 0.000000 0.000000
# 4 0.000000 0.000000 0.000000 0.069284 0.000000 0.000000
# 5 0.000000 0.000000 0.000000 0.000000 0.069285 0.000000
# 6 0.000000 0.000000 0.000000 0.000000 0.000000 0.034899
#
#
# Mechanical properties :
#
#
# Convention : Reuss Voigt Hill
#
# Bulk Modulus (GPa) = 24.86286 27.33858 26.10072
# Shear Modulus (GPa) = 21.69792 26.43416 24.06604
#
# Velocity S-wave (km/s) = 3.10326 3.42525 3.26822
# Velocity P-wave (km/s) = 4.88623 5.27037 5.08193
#
# Compressibility (1/GPa) = 0.04022064
#
# Stress axis : x y z
#
# Youngs Moduli (GPa) = 89.15133 89.14909 51.39490
#
# Poissons Ratio (x) = 0.09437 -0.00573
# Poissons Ratio (y) = 0.09437 -0.00575
# Poissons Ratio (z) = -0.00994 -0.00997
#
# Static dielectric constant tensor:
#      x y z
#    x 4.136530 0.000000 0.000000 
#    y 0.000000 4.136540 0.000000 
#    z 0.000000 0.000000 3.857520 
# 
# 
# High freq. dielectric constant tensor:
#      x y z
#    x 1.888340 0.000000 0.000000 
#    y 0.000000 1.888340 0.000000 
#    z 0.000000 0.000000 1.867330 
# 
# From -- ./inp_files/4364.got.cif
#   From: 2010.03.12/outbox.cif.g09.slc.cpg/sg93_3_cif.got.tgz:4364.got - 2010.04.08 20:44:19.
