data_PCOD8305865
_publ_section_title
;
Structure prediction by ZEFSAII (Michael W. Deem and Ramdas Pophale) SiO2 
 PCOD8305865
Probable space group: P 43 2 2
;
_chemical_formula_sum "Si O2"
_cell_formula_units_Z 48
_cell_length_a 8.920663
_cell_length_b 8.920663
_cell_length_c 26.696065
_cell_angle_alpha 90.000000
_cell_angle_beta 90.000000
_cell_angle_gamma 90.000000
_cell_volume 2124.425557
_symmetry_space_group_name_H-M "P 43 2 2"
_symmetry_group_IT_number 95
_symmetry_cell_setting 'tetragonal'
loop_
_space_group_symop_operation_xyz
x,y,z
-y,x,3/4+z
-x,-y,1/2+z
y,-x,1/4+z
x,-y,1/2-z
-x,y,-z
y,x,1/4-z
-y,-x,3/4-z
loop_
_atom_site_type_symbol
_atom_site_label
_atom_site_fract_x
_atom_site_fract_y
_atom_site_fract_z
Si Si1 0.232283 0.500000 0.250000
Si Si2 0.046622 0.575628 0.343169
Si Si3 0.103871 0.933442 0.086522
Si Si4 0.779422 0.599500 0.475578
Si Si5 0.745459 0.494623 0.367655
Si Si6 0.787717 0.395631 0.573878
Si Si7 0.142014 0.000000 0.250000
O O1 0.131622 0.585381 0.290562
O O2 0.344815 0.610355 0.222248
O O3 0.989526 0.739459 0.360551
O O4 0.155382 0.513645 0.385591
O O5 0.897474 0.472430 0.335118
O O6 0.967708 0.967708 0.125000
O O7 0.112752 0.756134 0.073994
O O8 0.078851 0.030196 0.037768
O O9 0.814443 0.529950 0.422103
O O10 0.802554 0.477435 0.519914
O O11 0.875580 0.749690 0.477675
O O12 0.659267 0.340734 0.375000
O O13 0.640996 0.616847 0.339707
#
# Coordination Sequence:
#
# PCOD8305865 Si02
#       7
#     4   8   8   8   8   8   4
#     4  12  24  42  72 100 136 194 242 298 356 438
#     4  11  25  44  67 101 140 185 240 293 360 437
#     4  11  25  44  70 101 140 184 234 294 360 431
#     4  12  24  45  72 102 138 185 243 291 355 436
#     4  11  25  44  67 101 141 183 232 300 361 422
#     4  11  25  45  73 103 138 185 243 293 360 434
#     4  12  24  44  72 100 136 180 232 284 348 422
#
# _framework density 22.594345000000001
#
# number of rings (size 3 to 8) (size 9 to 14) (size 15 to 20)
#    0.000    0.667    3.333    5.000    0.000    5.333 
#    0.000    0.000    0.000    0.000    0.000    0.000 
#    0.000    0.000    0.000    0.000    0.000    0.000 
#
# Total GULP energy -595058.286509 kJ/mol
# GULP energy per Si atom -12397.047636 kJ/mol
# Density = 2.254292 g / cm^3
# Si number density = 22.594345 Si / 1000 Ang^3
#
#
#
# Elastic Constant Matrix: (Units=GPa)
#
#
# Indices 1 2 3 4 5 6 
#
# 1 76.0980 15.9193 20.9467 0.0000 0.0000 0.0000
# 2 15.9193 76.0996 20.9486 0.0000 0.0000 0.0000
# 3 20.9467 20.9486 96.4409 0.0000 0.0000 0.0000
# 4 0.0000 0.0000 0.0000 32.4881 0.0000 0.0000
# 5 0.0000 0.0000 0.0000 0.0000 32.4877 0.0000
# 6 0.0000 0.0000 0.0000 0.0000 0.0000 47.0710
#
#
#
# Elastic Compliance Matrix: (Units=1/GPa)
#
#
# Indices 1 2 3 4 5 6 
#
# 1 0.014339 -0.002278 -0.002619 0.000000 0.000000 0.000000
# 2 -0.002278 0.014338 -0.002620 0.000000 0.000000 0.000000
# 3 -0.002619 -0.002620 0.011507 0.000000 0.000000 0.000000
# 4 0.000000 0.000000 0.000000 0.030781 0.000000 0.000000
# 5 0.000000 0.000000 0.000000 0.000000 0.030781 0.000000
# 6 0.000000 0.000000 0.000000 0.000000 0.000000 0.021245
#
#
# Mechanical properties :
#
#
# Convention : Reuss Voigt Hill
#
# Bulk Modulus (GPa) = 39.76295 40.47418 40.11857
# Shear Modulus (GPa) = 34.15115 35.13096 34.64106
#
# Velocity S-wave (km/s) = 3.89201 3.94744 3.91982
# Velocity P-wave (km/s) = 6.15092 6.22324 6.18719
#
# Compressibility (1/GPa) = 0.02514904
#
# Stress axis : x y z
#
# Youngs Moduli (GPa) = 69.74184 69.74263 86.90360
#
# Poissons Ratio (x) = 0.15890 0.22763
# Poissons Ratio (y) = 0.15890 0.22766
# Poissons Ratio (z) = 0.18268 0.18270
#
# Static dielectric constant tensor:
#      x y z
#    x 4.306490 0.000000 0.000000 
#    y 0.000000 4.306490 0.000000 
#    z 0.000000 0.000000 3.928540 
# 
# 
# High freq. dielectric constant tensor:
#      x y z
#    x 1.899360 0.000000 0.000000 
#    y 0.000000 1.899360 0.000000 
#    z 0.000000 0.000000 1.891990 
# 
# From -- ./inp_files/8021.got.cif
#   From: 2010.03.12/outbox.cif.g09.slc.cpg/sg95_5_cif.got.tgz:8021.got - 2010.04.08 20:51:55.
