data_PCOD8305404
_publ_section_title
;
Structure prediction by ZEFSAII (Michael W. Deem and Ramdas Pophale) SiO2 
 PCOD8305404
Probable space group: P 41 21 2
;
_chemical_formula_sum "Si O2"
_cell_formula_units_Z 48
_cell_length_a 12.049043
_cell_length_b 12.049043
_cell_length_c 16.254119
_cell_angle_alpha 90.000000
_cell_angle_beta 90.000000
_cell_angle_gamma 90.000000
_cell_volume 2359.763849
_symmetry_space_group_name_H-M "P 41 21 2"
_symmetry_group_IT_number 92
_symmetry_cell_setting 'tetragonal'
loop_
_space_group_symop_operation_xyz
x,y,z
1/2-y,1/2+x,1/4+z
-x,-y,1/2+z
1/2+y,1/2-x,3/4+z
1/2+x,1/2-y,3/4-z
1/2-x,1/2+y,1/4-z
y,x,-z
-y,-x,1/2-z
loop_
_atom_site_type_symbol
_atom_site_label
_atom_site_fract_x
_atom_site_fract_y
_atom_site_fract_z
Si Si1 0.657221 0.068274 0.917088
Si Si2 0.974643 0.514241 0.947680
Si Si3 0.557078 0.374895 0.664846
Si Si4 0.181450 0.399624 0.306897
Si Si5 0.534669 0.614985 0.582525
Si Si6 0.168297 0.195786 0.764405
O O1 0.788406 0.069949 0.896344
O O2 0.621345 0.189923 0.947943
O O3 0.593358 0.022818 0.837751
O O4 0.615921 0.986163 0.988736
O O5 0.886679 0.567136 0.886770
O O6 0.932777 0.396109 0.980840
O O7 0.625229 0.374772 0.750000
O O8 0.448975 0.304653 0.687638
O O9 0.532986 0.499811 0.633087
O O10 0.620800 0.306959 0.594242
O O11 0.211283 0.271936 0.295225
O O12 0.612502 0.612502 0.500000
O O13 0.413384 0.635861 0.548305
#
# Coordination Sequence:
#
# PCOD8305404 Si02
#       6
#     8   8   8   8   8   8
#     4  11  21  42  68  97 130 175 214 275 327 387
#     4  10  23  40  68  97 136 167 227 270 325 395
#     4  11  23  42  65  96 130 174 217 271 327 395
#     4  11  22  42  64  97 133 176 217 273 327 386
#     4  10  24  43  63  97 137 170 219 271 328 394
#     4  11  23  41  65  96 134 169 220 274 328 389
#
# _framework density 20.341018999999999
#
# number of rings (size 3 to 8) (size 9 to 14) (size 15 to 20)
#    0.000    1.333    3.333    2.000    0.000    6.000 
#    0.000    0.000    0.000    0.000    0.000    0.000 
#    0.000    0.000    0.000    0.000    0.000    0.000 
#
# Total GULP energy -594687.393368 kJ/mol
# GULP energy per Si atom -12389.320695 kJ/mol
# Density = 2.029472 g / cm^3
# Si number density = 20.341019 Si / 1000 Ang^3
#
#
#
# Elastic Constant Matrix: (Units=GPa)
#
#
# Indices 1 2 3 4 5 6 
#
# 1 77.3476 12.9565 21.9405 0.0000 0.0000 0.0000
# 2 12.9565 77.3480 21.9406 0.0000 0.0000 0.0000
# 3 21.9405 21.9406 75.1554 0.0000 0.0000 0.0000
# 4 0.0000 0.0000 0.0000 18.6589 0.0000 0.0000
# 5 0.0000 0.0000 0.0000 0.0000 18.6587 0.0000
# 6 0.0000 0.0000 0.0000 0.0000 0.0000 -131.2919
#
#
#
# Elastic Compliance Matrix: (Units=1/GPa)
#
#
# Indices 1 2 3 4 5 6 
#
# 1 0.014217 -0.001313 -0.003767 0.000000 0.000000 0.000000
# 2 -0.001313 0.014217 -0.003767 0.000000 0.000000 0.000000
# 3 -0.003767 -0.003767 0.015505 0.000000 0.000000 0.000000
# 4 0.000000 0.000000 0.000000 0.053594 0.000000 0.000000
# 5 0.000000 0.000000 0.000000 0.000000 0.053594 0.000000
# 6 0.000000 0.000000 0.000000 0.000000 0.000000 -0.007617
#
#
# Mechanical properties :
#
#
# Convention : Reuss Voigt Hill
#
# Bulk Modulus (GPa) = 38.10253 38.16959 38.13606
# Shear Modulus (GPa) = 29.41971 -7.26064 11.07953
#
# Velocity S-wave (km/s) = 3.80718 -1.89135 2.33639
# Velocity P-wave (km/s) = 6.17242 3.74646 5.10562
#
# Compressibility (1/GPa) = 0.02624497
#
# Stress axis : x y z
#
# Youngs Moduli (GPa) = 70.33744 70.33773 64.49389
#
# Poissons Ratio (x) = 0.09235 0.24296
# Poissons Ratio (y) = 0.09235 0.24296
# Poissons Ratio (z) = 0.26498 0.26498
#
# Static dielectric constant tensor:
#      x y z
#    x 3.648130 0.000000 0.000000 
#    y 0.000000 3.648130 0.000000 
#    z 0.000000 0.000000 3.975590 
# 
# 
# High freq. dielectric constant tensor:
#      x y z
#    x 1.794910 0.000000 0.000000 
#    y 0.000000 1.794910 0.000000 
#    z 0.000000 0.000000 1.809490 
# 
# From -- ./inp_files/3146.got.cif
#   From: 2010.03.12/outbox.cif.g09.slc.cpg/sg92_2_cif.got.tgz:3146.got - 2010.04.08 20:41:11.
