data_PCOD8305226
_publ_section_title
;
Structure prediction by ZEFSAII (Michael W. Deem and Ramdas Pophale) SiO2 
 PCOD8305226
Probable space group: P 41 21 2
;
_chemical_formula_sum "Si O2"
_cell_formula_units_Z 40
_cell_length_a 15.386977
_cell_length_b 15.386977
_cell_length_c 8.276981
_cell_angle_alpha 90.000000
_cell_angle_beta 90.000000
_cell_angle_gamma 90.000000
_cell_volume 1959.650251
_symmetry_space_group_name_H-M "P 41 21 2"
_symmetry_group_IT_number 92
_symmetry_cell_setting 'tetragonal'
loop_
_space_group_symop_operation_xyz
x,y,z
1/2-y,1/2+x,1/4+z
-x,-y,1/2+z
1/2+y,1/2-x,3/4+z
1/2+x,1/2-y,3/4-z
1/2-x,1/2+y,1/4-z
y,x,-z
-y,-x,1/2-z
loop_
_atom_site_type_symbol
_atom_site_label
_atom_site_fract_x
_atom_site_fract_y
_atom_site_fract_z
Si Si1 0.525715 0.825071 0.998272
Si Si2 0.178432 0.821569 0.250000
Si Si3 0.407586 0.013014 0.301290
Si Si4 0.170079 0.170079 0.500000
Si Si5 0.826690 0.670175 0.756944
Si Si6 0.013598 0.775076 0.073208
O O1 0.584014 0.794573 0.148553
O O2 0.572057 0.911184 0.930074
O O3 0.426352 0.842600 0.052066
O O4 0.528999 0.751107 0.862039
O O5 0.179840 0.732599 0.350264
O O6 0.095707 0.830622 0.131697
O O7 0.431085 0.036338 0.117451
O O8 0.306761 0.991765 0.306458
O O9 0.181935 0.245005 0.368050
O O10 0.076739 0.173255 0.588528
#
# Coordination Sequence:
#
# PCOD8305226 Si02
#       6
#     8   4   8   4   8   8
#     4  10  19  39  62  92 119 161 202 246 323 383
#     4  12  28  38  56  96 132 162 208 260 308 366
#     4  10  19  32  58  93 124 154 191 251 319 372
#     4  10  20  44  68  80 120 176 216 248 308 370
#     4  11  23  39  64  94 129 161 201 259 320 383
#     4  10  23  39  60  90 121 170 211 254 304 367
#
# _framework density 20.411804
#
# number of rings (size 3 to 8) (size 9 to 14) (size 15 to 20)
#    0.000    1.600    6.000    1.200    5.600    1.600 
#    0.000    4.000    0.000    0.000    0.000    0.000 
#    0.000    0.000    0.000    0.000    0.000    0.000 
#
# Total GULP energy -496034.387608 kJ/mol
# GULP energy per Si atom -12400.859690 kJ/mol
# Density = 2.036535 g / cm^3
# Si number density = 20.411804 Si / 1000 Ang^3
#
#
#
# Elastic Constant Matrix: (Units=GPa)
#
#
# Indices 1 2 3 4 5 6 
#
# 1 113.0875 45.3370 44.8766 0.0000 0.0000 0.0000
# 2 45.3370 113.0876 44.8765 0.0000 0.0000 0.0000
# 3 44.8766 44.8765 64.4341 0.0000 0.0000 0.0000
# 4 0.0000 0.0000 0.0000 27.7158 0.0000 0.0000
# 5 0.0000 0.0000 0.0000 0.0000 27.7162 0.0000
# 6 0.0000 0.0000 0.0000 0.0000 0.0000 29.2253
#
#
#
# Elastic Compliance Matrix: (Units=1/GPa)
#
#
# Indices 1 2 3 4 5 6 
#
# 1 0.012593 -0.002167 -0.007261 0.000000 0.000000 0.000000
# 2 -0.002167 0.012593 -0.007261 0.000000 0.000000 0.000000
# 3 -0.007261 -0.007261 0.025634 0.000000 0.000000 0.000000
# 4 0.000000 0.000000 0.000000 0.036081 0.000000 0.000000
# 5 0.000000 0.000000 0.000000 0.000000 0.036080 0.000000
# 6 0.000000 0.000000 0.000000 0.000000 0.000000 0.034217
#
#
# Mechanical properties :
#
#
# Convention : Reuss Voigt Hill
#
# Bulk Modulus (GPa) = 57.33678 62.30993 59.82336
# Shear Modulus (GPa) = 25.45938 27.29939 26.37938
#
# Velocity S-wave (km/s) = 3.53553 3.66106 3.59884
# Velocity P-wave (km/s) = 6.69459 6.96160 6.82940
#
# Compressibility (1/GPa) = 0.01744081
#
# Stress axis : x y z
#
# Youngs Moduli (GPa) = 79.40904 79.40923 39.00999
#
# Poissons Ratio (x) = 0.17208 0.28327
# Poissons Ratio (y) = 0.17208 0.28327
# Poissons Ratio (z) = 0.57662 0.57662
#
# Static dielectric constant tensor:
#      x y z
#    x 3.770980 0.000000 0.000000 
#    y 0.000000 3.770990 0.000000 
#    z 0.000000 0.000000 3.605950 
# 
# 
# High freq. dielectric constant tensor:
#      x y z
#    x 1.792350 0.000000 0.000000 
#    y 0.000000 1.792350 0.000000 
#    z 0.000000 0.000000 1.795160 
# 
# From -- ./inp_files/1360.got.cif
#   From: 2010.03.12/outbox.cif.g09.slc.cpg/sg92_1_cif.got.tgz:1360.got - 2010.04.08 20:41:11.
