data_PCOD8305566
_publ_section_title
;
Structure prediction by ZEFSAII (Michael W. Deem and Ramdas Pophale) SiO2 
 PCOD8305566
Probable space group: P 42 2 2
;
_chemical_formula_sum "Si O2"
_cell_formula_units_Z 56
_cell_length_a 11.305022
_cell_length_b 11.305022
_cell_length_c 21.789431
_cell_angle_alpha 90.000000
_cell_angle_beta 90.000000
_cell_angle_gamma 90.000000
_cell_volume 2784.766033
_symmetry_space_group_name_H-M "P 42 2 2"
_symmetry_group_IT_number 93
_symmetry_cell_setting 'tetragonal'
loop_
_space_group_symop_operation_xyz
x,y,z
-y,x,1/2+z
-x,-y,z
y,-x,1/2+z
x,-y,-z
-x,y,-z
y,x,1/2-z
-y,-x,1/2-z
loop_
_atom_site_type_symbol
_atom_site_label
_atom_site_fract_x
_atom_site_fract_y
_atom_site_fract_z
Si Si1 0.395655 0.862086 0.684945
Si Si2 0.299683 0.778090 0.186262
Si Si3 0.759612 0.633775 0.984101
Si Si4 0.627409 0.959992 0.179779
Si Si5 0.363413 0.539510 0.396892
Si Si6 0.898889 0.352009 0.129217
Si Si7 0.298026 0.747627 0.896073
O O1 0.384027 0.883409 0.757650
O O2 0.532962 0.853575 0.667104
O O3 0.329856 0.744005 0.662680
O O4 0.330467 0.965383 0.645943
O O5 0.283035 0.716966 0.250000
O O6 0.416473 0.708734 0.162933
O O7 0.181920 0.758938 0.146373
O O8 0.303972 0.919436 0.192860
O O9 0.641910 0.662896 0.945761
O O10 0.880086 0.634771 0.943753
O O11 0.736588 0.500000 0.000000
O O12 0.779966 0.722397 0.042437
O O13 0.694630 0.883720 0.127068
O O14 0.500000 0.000000 0.154612
O O15 0.500000 0.500000 0.385048
O O16 0.296125 0.424297 0.419678
#
# Coordination Sequence:
#
# PCOD8305566 Si02
#       7
#     8   8   8   8   8   8   8
#     4  11  21  41  65  96 132 159 219 284 331 394
#     4  11  21  41  65  88 128 176 215 262 330 399
#     4  11  21  39  62  93 132 167 210 264 323 399
#     4  12  23  41  63  92 134 176 214 267 327 407
#     4  11  22  36  61  95 129 167 212 261 328 392
#     4  10  21  38  67  93 121 170 217 270 331 384
#     4  12  24  38  61  95 133 169 212 268 331 390
#
# _framework density 20.109407999999998
#
# number of rings (size 3 to 8) (size 9 to 14) (size 15 to 20)
#    0.000    0.857    7.143    1.714    0.000    0.857 
#    2.571    3.571    0.000    0.000    0.000    4.000 
#    0.000    0.000    0.000    0.000    0.000    0.000 
#
# Total GULP energy -693847.447332 kJ/mol
# GULP energy per Si atom -12390.132988 kJ/mol
# Density = 2.006364 g / cm^3
# Si number density = 20.109408 Si / 1000 Ang^3
#
#
#
# Elastic Constant Matrix: (Units=GPa)
#
#
# Indices 1 2 3 4 5 6 
#
# 1 46.8229 14.1938 32.4447 0.0000 0.0000 0.0000
# 2 14.1938 46.8219 32.4446 0.0000 0.0000 0.0000
# 3 32.4447 32.4446 106.7951 0.0000 0.0000 0.0000
# 4 0.0000 0.0000 0.0000 111.1518 0.0000 0.0000
# 5 0.0000 0.0000 0.0000 0.0000 111.1089 0.0000
# 6 0.0000 0.0000 0.0000 0.0000 0.0000 21.0823
#
#
#
# Elastic Compliance Matrix: (Units=1/GPa)
#
#
# Indices 1 2 3 4 5 6 
#
# 1 0.027429 -0.003218 -0.007355 0.000000 0.000000 0.000000
# 2 -0.003218 0.027430 -0.007356 0.000000 0.000000 0.000000
# 3 -0.007355 -0.007356 0.013833 0.000000 0.000000 0.000000
# 4 0.000000 0.000000 0.000000 0.008997 0.000000 0.000000
# 5 0.000000 0.000000 0.000000 0.000000 0.009000 0.000000
# 6 0.000000 0.000000 0.000000 0.000000 0.000000 0.047433
#
#
# Mechanical properties :
#
#
# Convention : Reuss Voigt Hill
#
# Bulk Modulus (GPa) = 30.45634 39.84512 35.15073
# Shear Modulus (GPa) = 27.63568 56.75906 42.19737
#
# Velocity S-wave (km/s) = 3.71113 5.31850 4.58579
# Velocity P-wave (km/s) = 5.79150 7.58765 6.74959
#
# Compressibility (1/GPa) = 0.03283389
#
# Stress axis : x y z
#
# Youngs Moduli (GPa) = 36.45725 36.45635 72.29098
#
# Poissons Ratio (x) = 0.11733 0.53173
# Poissons Ratio (y) = 0.11733 0.53174
# Poissons Ratio (z) = 0.26816 0.26816
#
# Static dielectric constant tensor:
#      x y z
#    x 0.754830 0.000000 0.000000 
#    y 0.000000 0.755430 0.000000 
#    z 0.000000 0.000000 4.304170 
# 
# 
# High freq. dielectric constant tensor:
#      x y z
#    x 1.771660 0.000000 0.000000 
#    y 0.000000 1.771660 0.000000 
#    z 0.000000 0.000000 1.791200 
# 
# From -- ./inp_files/6263.got.cif
#   From: 2010.03.12/outbox.cif.g09.slc.cpg/sg93_4_cif.got.tgz:6263.got - 2010.04.08 20:44:19.
