data_PCOD8305725
_publ_section_title
;
Structure prediction by ZEFSAII (Michael W. Deem and Ramdas Pophale) SiO2 
 PCOD8305725
Probable space group: P 42 21 2
;
_chemical_formula_sum "Si O2"
_cell_formula_units_Z 40
_cell_length_a 8.594981
_cell_length_b 8.594981
_cell_length_c 23.708300
_cell_angle_alpha 90.000000
_cell_angle_beta 90.000000
_cell_angle_gamma 90.000000
_cell_volume 1751.419804
_symmetry_space_group_name_H-M "P 42 21 2"
_symmetry_group_IT_number 94
_symmetry_cell_setting 'tetragonal'
loop_
_space_group_symop_operation_xyz
x,y,z
1/2-y,1/2+x,1/2+z
-x,-y,z
1/2+y,1/2-x,1/2+z
1/2+x,1/2-y,1/2-z
1/2-x,1/2+y,1/2-z
y,x,-z
-y,-x,-z
loop_
_atom_site_type_symbol
_atom_site_label
_atom_site_fract_x
_atom_site_fract_y
_atom_site_fract_z
Si Si1 0.673392 0.178480 0.944702
Si Si2 0.353929 0.112459 0.141609
Si Si3 0.516475 0.178283 0.248568
Si Si4 0.819054 0.200388 0.828887
Si Si5 0.316048 0.183579 0.945993
O O1 0.726298 0.254407 0.885454
O O2 0.495888 0.225926 0.956310
O O3 0.699873 0.996950 0.931754
O O4 0.770430 0.229570 0.000000
O O5 0.397314 0.207262 0.197309
O O6 0.301636 0.245259 0.099251
O O7 0.500000 0.000000 0.122050
O O8 0.207443 0.000319 0.154692
O O9 0.471049 0.279143 0.303951
O O10 0.684834 0.221879 0.223523
O O11 0.500000 0.000000 0.268390
O O12 0.212466 0.212466 0.000000
#
# Coordination Sequence:
#
# PCOD8305725 Si02
#       5
#     8   8   8   8   8
#     4  11  27  46  69 105 137 182 239 294 361 429
#     4   9  22  44  69 100 137 185 231 290 351 421
#     4   9  22  41  66 100 139 181 230 287 341 410
#     4  10  22  43  71  98 145 180 236 287 344 431
#     4  11  26  44  74  95 140 183 230 299 353 428
#
# _framework density 22.838614
#
# number of rings (size 3 to 8) (size 9 to 14) (size 15 to 20)
#    0.000    2.400    0.000    1.200   14.000    4.800 
#    3.600    8.000    0.000    0.000    0.000    0.000 
#    0.000    0.000    0.000    0.000    0.000    0.000 
#
# Total GULP energy -495587.682571 kJ/mol
# GULP energy per Si atom -12389.692064 kJ/mol
# Density = 2.278663 g / cm^3
# Si number density = 22.838614 Si / 1000 Ang^3
#
#
#
# Elastic Constant Matrix: (Units=GPa)
#
#
# Indices 1 2 3 4 5 6 
#
# 1 52.4227 37.5008 35.1746 0.0000 0.0000 0.0000
# 2 37.5008 52.4246 35.1749 0.0000 0.0000 0.0000
# 3 35.1746 35.1749 102.2243 0.0000 0.0000 0.0000
# 4 0.0000 0.0000 0.0000 56.9140 0.0000 0.0000
# 5 0.0000 0.0000 0.0000 0.0000 56.9141 0.0000
# 6 0.0000 0.0000 0.0000 0.0000 0.0000 41.4944
#
#
#
# Elastic Compliance Matrix: (Units=1/GPa)
#
#
# Indices 1 2 3 4 5 6 
#
# 1 0.041115 -0.025897 -0.005236 0.000000 0.000000 0.000000
# 2 -0.025897 0.041113 -0.005236 0.000000 0.000000 0.000000
# 3 -0.005236 -0.005236 0.013386 0.000000 0.000000 0.000000
# 4 0.000000 0.000000 0.000000 0.017570 0.000000 0.000000
# 5 0.000000 0.000000 0.000000 0.000000 0.017570 0.000000
# 6 0.000000 0.000000 0.000000 0.000000 0.000000 0.024100
#
#
# Mechanical properties :
#
#
# Convention : Reuss Voigt Hill
#
# Bulk Modulus (GPa) = 43.71553 46.97470 45.34512
# Shear Modulus (GPa) = 21.25691 37.67925 29.46808
#
# Velocity S-wave (km/s) = 3.05412 4.06618 3.59594
# Velocity P-wave (km/s) = 5.62312 6.53130 6.09415
#
# Compressibility (1/GPa) = 0.02287517
#
# Stress axis : x y z
#
# Youngs Moduli (GPa) = 24.32212 24.32312 74.70643
#
# Poissons Ratio (x) = 0.62991 0.39117
# Poissons Ratio (y) = 0.62988 0.39115
# Poissons Ratio (z) = 0.12735 0.12735
#
# Static dielectric constant tensor:
#      x y z
#    x 3.972440 0.000000 0.000000 
#    y 0.000000 3.972430 0.000000 
#    z 0.000000 0.000000 4.165460 
# 
# 
# High freq. dielectric constant tensor:
#      x y z
#    x 1.896160 0.000000 0.000000 
#    y 0.000000 1.896160 0.000000 
#    z 0.000000 0.000000 1.910520 
# 
# From -- ./inp_files/4988.got.cif
#   From: 2010.03.12/outbox.cif.g09.slc.cpg/sg94_3_cif.got.tgz:4988.got - 2010.04.08 20:48:32.
