data_PCOD8305008
_publ_section_title
;
Structure prediction by ZEFSAII (Michael W. Deem and Ramdas Pophale) SiO2 
 PCOD8305008
Probable space group: P 41 2 2
;
_chemical_formula_sum "Si O2"
_cell_formula_units_Z 48
_cell_length_a 13.702034
_cell_length_b 13.702034
_cell_length_c 12.642022
_cell_angle_alpha 90.000000
_cell_angle_beta 90.000000
_cell_angle_gamma 90.000000
_cell_volume 2373.485722
_symmetry_space_group_name_H-M "P 41 2 2"
_symmetry_group_IT_number 91
_symmetry_cell_setting 'tetragonal'
loop_
_space_group_symop_operation_xyz
x,y,z
-y,x,1/4+z
-x,-y,1/2+z
y,-x,3/4+z
x,-y,1/2-z
-x,y,-z
y,x,3/4-z
-y,-x,1/4-z
loop_
_atom_site_type_symbol
_atom_site_label
_atom_site_fract_x
_atom_site_fract_y
_atom_site_fract_z
Si Si1 0.548008 0.706006 0.687236
Si Si2 0.923092 0.447892 0.409257
Si Si3 0.676119 0.323881 0.625000
Si Si4 0.389806 0.166941 0.528655
Si Si5 0.646084 0.304053 0.279469
Si Si6 0.655144 0.955918 0.442083
Si Si7 0.787907 0.212094 0.125000
O O1 0.572039 0.818483 0.709211
O O2 0.596724 0.650678 0.785697
O O3 0.589802 0.674621 0.573641
O O4 0.432980 0.683607 0.686031
O O5 0.934914 0.371332 0.313869
O O6 0.925367 0.561993 0.377844
O O7 0.000000 0.423469 0.500000
O O8 0.782796 0.335309 0.679039
O O9 0.500000 0.132157 0.500000
O O10 0.399119 0.240867 0.625764
O O11 0.327838 0.072512 0.565756
O O12 0.739004 0.250703 0.231844
O O13 0.754245 0.901021 0.397477
#
# Coordination Sequence:
#
# PCOD8305008 Si02
#       7
#     8   8   4   8   8   8   4
#     4  11  21  38  56  82 121 170 207 262 306 369
#     4  11  20  35  63  91 121 160 208 264 319 368
#     4  10  22  36  61  90 133 156 214 262 316 370
#     4  11  20  39  65  95 121 167 210 268 317 375
#     4  11  24  37  60  80 123 166 212 258 305 369
#     4  11  23  36  62  94 123 160 207 260 321 379
#     4  12  24  40  55  90 129 160 204 258 322 384
#
# _framework density 20.223420999999998
#
# number of rings (size 3 to 8) (size 9 to 14) (size 15 to 20)
#    0.000    1.000    6.667    2.000    0.000    0.667 
#    0.000    2.500    0.000    0.000    0.000    4.667 
#    0.000    0.000    0.000    0.000    0.000    0.000 
#
# Total GULP energy -594989.480856 kJ/mol
# GULP energy per Si atom -12395.614185 kJ/mol
# Density = 2.017739 g / cm^3
# Si number density = 20.223421 Si / 1000 Ang^3
#
#
#
# Elastic Constant Matrix: (Units=GPa)
#
#
# Indices 1 2 3 4 5 6 
#
# 1 83.8188 41.9742 17.7118 0.0000 0.0000 0.0000
# 2 41.9742 83.8185 17.7122 0.0000 0.0000 0.0000
# 3 17.7118 17.7122 75.3709 0.0000 0.0000 0.0000
# 4 0.0000 0.0000 0.0000 28.5740 0.0000 0.0000
# 5 0.0000 0.0000 0.0000 0.0000 28.5738 0.0000
# 6 0.0000 0.0000 0.0000 0.0000 0.0000 29.9242
#
#
#
# Elastic Compliance Matrix: (Units=1/GPa)
#
#
# Indices 1 2 3 4 5 6 
#
# 1 0.016205 -0.007693 -0.002000 0.000000 0.000000 0.000000
# 2 -0.007693 0.016206 -0.002001 0.000000 0.000000 0.000000
# 3 -0.002000 -0.002001 0.014208 0.000000 0.000000 0.000000
# 4 0.000000 0.000000 0.000000 0.034997 0.000000 0.000000
# 5 0.000000 0.000000 0.000000 0.000000 0.034997 0.000000
# 6 0.000000 0.000000 0.000000 0.000000 0.000000 0.033418
#
#
# Mechanical properties :
#
#
# Convention : Reuss Voigt Hill
#
# Bulk Modulus (GPa) = 43.04454 44.20050 43.62252
# Shear Modulus (GPa) = 27.59966 28.45508 28.02737
#
# Velocity S-wave (km/s) = 3.69824 3.75512 3.72679
# Velocity P-wave (km/s) = 6.29021 6.38003 6.33528
#
# Compressibility (1/GPa) = 0.02323175
#
# Stress axis : x y z
#
# Youngs Moduli (GPa) = 61.70771 61.70730 70.38307
#
# Poissons Ratio (x) = 0.47469 0.14080
# Poissons Ratio (y) = 0.47469 0.14081
# Poissons Ratio (z) = 0.12344 0.12345
#
# Static dielectric constant tensor:
#      x y z
#    x 3.629960 0.000000 0.000000 
#    y 0.000000 3.629970 0.000000 
#    z 0.000000 0.000000 3.825230 
# 
# 
# High freq. dielectric constant tensor:
#      x y z
#    x 1.766420 0.000000 0.000000 
#    y 0.000000 1.766430 0.000000 
#    z 0.000000 0.000000 1.812260 
# 
# From -- ./inp_files/20273.got.cif
#   From: 2010.03.12/outbox.cif.g09.slc.cpg/sg91_11_cif.got.tgz:20273.got - 2010.04.08 20:27:58.
