data_PCOD8305630
_publ_section_title
;
Structure prediction by ZEFSAII (Michael W. Deem and Ramdas Pophale) SiO2 
 PCOD8305630
Probable space group: P 42 21 2
;
_chemical_formula_sum "Si O2"
_cell_formula_units_Z 56
_cell_length_a 21.457807
_cell_length_b 21.457807
_cell_length_c 7.540977
_cell_angle_alpha 90.000000
_cell_angle_beta 90.000000
_cell_angle_gamma 90.000000
_cell_volume 3472.148456
_symmetry_space_group_name_H-M "P 42 21 2"
_symmetry_group_IT_number 94
_symmetry_cell_setting 'tetragonal'
loop_
_space_group_symop_operation_xyz
x,y,z
1/2-y,1/2+x,1/2+z
-x,-y,z
1/2+y,1/2-x,1/2+z
1/2+x,1/2-y,1/2-z
1/2-x,1/2+y,1/2-z
y,x,-z
-y,-x,-z
loop_
_atom_site_type_symbol
_atom_site_label
_atom_site_fract_x
_atom_site_fract_y
_atom_site_fract_z
Si Si1 0.221379 0.882947 0.193994
Si Si2 0.721024 0.384435 0.497559
Si Si3 0.715234 0.180936 0.495928
Si Si4 0.714545 0.616635 0.707685
Si Si5 0.476279 0.684673 0.199996
Si Si6 0.054151 0.049405 0.204197
Si Si7 0.020640 0.189399 0.700611
O O1 0.277964 0.856891 0.312515
O O2 0.157384 0.847401 0.246910
O O3 0.214639 0.955614 0.228590
O O4 0.238992 0.870796 0.990325
O O5 0.665727 0.334274 0.500000
O O6 0.789604 0.353458 0.493763
O O7 0.718257 0.427014 0.672402
O O8 0.716836 0.423988 0.318306
O O9 0.762548 0.237453 0.500000
O O10 0.729327 0.134928 0.660509
O O11 0.696233 0.545184 0.728038
O O12 0.464440 0.611082 0.191178
O O13 0.468436 0.711235 0.001596
O O14 0.114926 0.018764 0.288204
O O15 0.067337 0.067337 0.000000
O O16 0.000000 0.000000 0.223537
#
# Coordination Sequence:
#
# PCOD8305630 Si02
#       7
#     8   8   8   8   8   8   8
#     4  10  19  33  53  76 100 135 177 219 256 293
#     4  11  22  38  50  74 110 142 174 213 264 309
#     4   9  20  36  54  71 101 137 175 217 260 311
#     4  10  19  33  53  76 100 135 177 219 256 293
#     4  12  21  32  51  74 105 141 177 211 255 304
#     4  11  21  33  47  70 107 149 182 215 249 292
#     4  12  21  32  51  74 105 141 177 211 255 304
#
# _framework density 16.128343000000001
#
# number of rings (size 3 to 8) (size 9 to 14) (size 15 to 20)
#    0.000    1.286    5.714    1.286    0.000    5.714 
#    0.000    2.857    0.000    0.000    0.000    0.000 
#    0.000    3.429    0.000    0.000    0.000    0.000 
#
# Total GULP energy -694506.947900 kJ/mol
# GULP energy per Si atom -12401.909784 kJ/mol
# Density = 1.609163 g / cm^3
# Si number density = 16.128343 Si / 1000 Ang^3
#
#
#
# Elastic Constant Matrix: (Units=GPa)
#
#
# Indices 1 2 3 4 5 6 
#
# 1 45.5087 43.2371 13.4326 0.0000 0.0000 0.0000
# 2 43.2371 45.5116 13.4353 0.0000 0.0000 0.0000
# 3 13.4326 13.4353 95.4079 0.0000 0.0000 0.0000
# 4 0.0000 0.0000 0.0000 11.0120 0.0000 0.0000
# 5 0.0000 0.0000 0.0000 0.0000 11.0123 0.0000
# 6 0.0000 0.0000 0.0000 0.0000 0.0000 19.9931
#
#
#
# Elastic Compliance Matrix: (Units=1/GPa)
#
#
# Indices 1 2 3 4 5 6 
#
# 1 0.225855 -0.214080 -0.001652 0.000000 0.000000 0.000000
# 2 -0.214080 0.225844 -0.001663 0.000000 0.000000 0.000000
# 3 -0.001652 -0.001663 0.010948 0.000000 0.000000 0.000000
# 4 0.000000 0.000000 0.000000 0.090810 0.000000 0.000000
# 5 0.000000 0.000000 0.000000 0.000000 0.090808 0.000000
# 6 0.000000 0.000000 0.000000 0.000000 0.000000 0.050017
#
#
# Mechanical properties :
#
#
# Convention : Reuss Voigt Hill
#
# Bulk Modulus (GPa) = 35.89579 36.29314 36.09446
# Shear Modulus (GPa) = 4.39229 16.15834 10.27532
#
# Velocity S-wave (km/s) = 1.65204 3.16865 2.52682
# Velocity P-wave (km/s) = 5.09349 5.99489 5.56248
#
# Compressibility (1/GPa) = 0.02785842
#
# Stress axis : x y z
#
# Youngs Moduli (GPa) = 4.42761 4.42783 91.34086
#
# Poissons Ratio (x) = 0.94791 0.15088
# Poissons Ratio (y) = 0.94786 0.15187
# Poissons Ratio (z) = 0.00731 0.00736
#
# Static dielectric constant tensor:
#      x y z
#    x 2.969460 0.000000 0.000000 
#    y 0.000000 2.969470 0.000000 
#    z 0.000000 0.000000 3.329190 
# 
# 
# High freq. dielectric constant tensor:
#      x y z
#    x 1.594800 0.000000 0.000000 
#    y 0.000000 1.594800 0.000000 
#    z 0.000000 0.000000 1.642230 
# 
# From -- ./inp_files/1788.got.cif
#   From: 2010.03.12/outbox.cif.g09.slc.cpg/sg94_1_cif.got.tgz:1788.got - 2010.04.08 20:48:32.
