data_PCOD8305745
_publ_section_title
;
Structure prediction by ZEFSAII (Michael W. Deem and Ramdas Pophale) SiO2 
 PCOD8305745
Probable space group: P 42 21 2
;
_chemical_formula_sum "Si O2"
_cell_formula_units_Z 58
_cell_length_a 17.756718
_cell_length_b 17.756718
_cell_length_c 8.176224
_cell_angle_alpha 90.000000
_cell_angle_beta 90.000000
_cell_angle_gamma 90.000000
_cell_volume 2577.971882
_symmetry_space_group_name_H-M "P 42 21 2"
_symmetry_group_IT_number 94
_symmetry_cell_setting 'tetragonal'
loop_
_space_group_symop_operation_xyz
x,y,z
1/2-y,1/2+x,1/2+z
-x,-y,z
1/2+y,1/2-x,1/2+z
1/2+x,1/2-y,1/2-z
1/2-x,1/2+y,1/2-z
y,x,-z
-y,-x,-z
loop_
_atom_site_type_symbol
_atom_site_label
_atom_site_fract_x
_atom_site_fract_y
_atom_site_fract_z
Si Si1 0.387175 0.146591 0.290778
Si Si2 0.200106 0.837957 0.679301
Si Si3 0.953068 0.695004 0.224570
Si Si4 0.385918 0.538654 0.237440
Si Si5 0.130811 0.698810 0.843792
Si Si6 0.771747 0.462110 0.353854
Si Si7 0.500000 0.500000 0.500000
Si Si8 0.158571 0.998011 0.613807
O O1 0.357961 0.212704 0.177335
O O2 0.477480 0.135044 0.269966
O O3 0.363589 0.170279 0.472268
O O4 0.345470 0.072175 0.230901
O O5 0.192305 0.807696 0.500000
O O6 0.181069 0.773411 0.812040
O O7 0.153905 0.916486 0.703284
O O8 0.872913 0.654558 0.236255
O O9 0.966329 0.757662 0.366257
O O10 0.955284 0.733209 0.047826
O O11 0.306162 0.574517 0.290967
O O12 0.424890 0.493258 0.386188
O O13 0.444265 0.604338 0.202284
O O14 0.368024 0.488580 0.075482
O O15 0.048103 0.725835 0.795447
#
# Coordination Sequence:
#
# PCOD8305745 Si02
#       8
#     8   8   8   8   8   8   2   8
#     4  10  24  45  69  99 136 180 229 283 351 410
#     4  11  23  41  68  98 132 177 228 284 343 417
#     4  10  23  45  70 100 137 176 234 292 346 414
#     4  11  25  44  68  96 141 184 233 287 341 424
#     4  11  24  42  69 100 136 178 225 288 349 416
#     4  11  24  44  67 101 139 179 232 285 349 419
#     4  12  28  42  64 100 140 198 232 284 344 416
#     4  10  24  44  69  99 132 183 238 286 348 415
#
# _framework density 22.498305999999999
#
# number of rings (size 3 to 8) (size 9 to 14) (size 15 to 20)
#    0.000    1.379    0.000    3.724    5.793    4.414 
#    1.241    2.759    0.000    0.000    0.000    0.000 
#    0.000    0.000    0.000    0.000    0.000    0.000 
#
# Total GULP energy -718936.819750 kJ/mol
# GULP energy per Si atom -12395.462409 kJ/mol
# Density = 2.244710 g / cm^3
# Si number density = 22.498306 Si / 1000 Ang^3
#
#
#
# Elastic Constant Matrix: (Units=GPa)
#
#
# Indices 1 2 3 4 5 6 
#
# 1 99.6095 34.7840 35.2296 0.0000 0.0000 0.0000
# 2 34.7840 99.6086 35.2293 0.0000 0.0000 0.0000
# 3 35.2296 35.2293 72.3198 0.0000 0.0000 0.0000
# 4 0.0000 0.0000 0.0000 34.5676 0.0000 0.0000
# 5 0.0000 0.0000 0.0000 0.0000 34.5678 0.0000
# 6 0.0000 0.0000 0.0000 0.0000 0.0000 31.0024
#
#
#
# Elastic Compliance Matrix: (Units=1/GPa)
#
#
# Indices 1 2 3 4 5 6 
#
# 1 0.012710 -0.002717 -0.004868 0.000000 0.000000 0.000000
# 2 -0.002717 0.012710 -0.004868 0.000000 0.000000 0.000000
# 3 -0.004868 -0.004868 0.018570 0.000000 0.000000 0.000000
# 4 0.000000 0.000000 0.000000 0.028929 0.000000 0.000000
# 5 0.000000 0.000000 0.000000 0.000000 0.028929 0.000000
# 6 0.000000 0.000000 0.000000 0.000000 0.000000 0.032256
#
#
# Mechanical properties :
#
#
# Convention : Reuss Voigt Hill
#
# Bulk Modulus (GPa) = 52.39879 53.55819 52.97849
# Shear Modulus (GPa) = 30.23548 31.11389 30.67468
#
# Velocity S-wave (km/s) = 3.66990 3.72283 3.69646
# Velocity P-wave (km/s) = 6.42637 6.50664 6.46663
#
# Compressibility (1/GPa) = 0.01908441
#
# Stress axis : x y z
#
# Youngs Moduli (GPa) = 78.68120 78.68064 53.84990
#
# Poissons Ratio (x) = 0.21374 0.26214
# Poissons Ratio (y) = 0.21374 0.26214
# Poissons Ratio (z) = 0.38302 0.38301
#
# Static dielectric constant tensor:
#      x y z
#    x 4.240920 0.000000 0.000000 
#    y 0.000000 4.240930 0.000000 
#    z 0.000000 0.000000 4.175890 
# 
# 
# High freq. dielectric constant tensor:
#      x y z
#    x 1.885990 0.000000 0.000000 
#    y 0.000000 1.885990 0.000000 
#    z 0.000000 0.000000 1.897150 
# 
# From -- ./inp_files/1733.got.cif
#   From: 2010.03.12/outbox.cif.g09.slc.cpg/sg94_1_cif.got.tgz:1733.got - 2010.04.08 20:48:32.
