data_PCOD8305552
_publ_section_title
;
Structure prediction by ZEFSAII (Michael W. Deem and Ramdas Pophale) SiO2 
 PCOD8305552
Probable space group: P 42 2 2
;
_chemical_formula_sum "Si O2"
_cell_formula_units_Z 38
_cell_length_a 8.927145
_cell_length_b 8.927145
_cell_length_c 23.476176
_cell_angle_alpha 90.000000
_cell_angle_beta 90.000000
_cell_angle_gamma 90.000000
_cell_volume 1870.908442
_symmetry_space_group_name_H-M "P 42 2 2"
_symmetry_group_IT_number 93
_symmetry_cell_setting 'tetragonal'
loop_
_space_group_symop_operation_xyz
x,y,z
-y,x,1/2+z
-x,-y,z
y,-x,1/2+z
x,-y,-z
-x,y,-z
y,x,1/2-z
-y,-x,1/2-z
loop_
_atom_site_type_symbol
_atom_site_label
_atom_site_fract_x
_atom_site_fract_y
_atom_site_fract_z
Si Si1 0.453506 0.673443 0.800399
Si Si2 0.982841 0.668501 0.066575
Si Si3 0.684878 0.847284 0.096865
Si Si4 0.136743 0.109962 0.859101
Si Si5 0.247706 0.247706 0.750000
Si Si6 0.000000 0.500000 0.500000
O O1 0.500000 0.500000 0.812070
O O2 0.326589 0.673412 0.750000
O O3 0.410752 0.748170 0.859621
O O4 0.585811 0.774026 0.774213
O O5 0.826655 0.744562 0.082865
O O6 0.000000 0.500000 0.091660
O O7 0.117110 0.771323 0.089976
O O8 0.000000 0.663296 0.000000
O O9 0.720240 0.006262 0.127271
O O10 0.598115 0.887483 0.038885
O O11 0.139253 0.207648 0.801891
O O12 0.000000 0.000000 0.853305
#
# Coordination Sequence:
#
# PCOD8305552 Si02
#       6
#     8   8   8   8   4   2
#     4   9  22  40  61  92 125 172 218 266 333 395
#     4  10  23  41  64  92 124 169 221 272 331 395
#     4  11  23  42  65  93 132 169 219 272 335 409
#     4  10  22  39  62  91 124 166 215 269 324 392
#     4  10  20  38  60  88 130 162 210 262 322 390
#     4  12  24  40  64 100 128 172 214 270 346 396
#
# _framework density 20.310987999999998
#
# number of rings (size 3 to 8) (size 9 to 14) (size 15 to 20)
#    0.000    2.105    0.000    2.842    5.895    6.316 
#    3.789    0.000    0.000    0.000    0.000    0.000 
#    0.000    0.000    0.000    0.000    0.000    0.000 
#
# Total GULP energy -470898.098171 kJ/mol
# GULP energy per Si atom -12392.055215 kJ/mol
# Density = 2.026476 g / cm^3
# Si number density = 20.310988 Si / 1000 Ang^3
#
#
#
# Elastic Constant Matrix: (Units=GPa)
#
#
# Indices 1 2 3 4 5 6 
#
# 1 75.9103 65.7720 57.0573 0.0000 0.0000 0.0000
# 2 65.7720 75.9101 57.0571 0.0000 0.0000 0.0000
# 3 57.0573 57.0571 140.3594 0.0000 0.0000 0.0000
# 4 0.0000 0.0000 0.0000 44.0152 0.0000 0.0000
# 5 0.0000 0.0000 0.0000 0.0000 44.0153 0.0000
# 6 0.0000 0.0000 0.0000 0.0000 0.0000 22.9668
#
#
#
# Elastic Compliance Matrix: (Units=1/GPa)
#
#
# Indices 1 2 3 4 5 6 
#
# 1 0.054565 -0.044071 -0.004266 0.000000 0.000000 0.000000
# 2 -0.044071 0.054565 -0.004266 0.000000 0.000000 0.000000
# 3 -0.004266 -0.004266 0.010593 0.000000 0.000000 0.000000
# 4 0.000000 0.000000 0.000000 0.022719 0.000000 0.000000
# 5 0.000000 0.000000 0.000000 0.000000 0.022719 0.000000
# 6 0.000000 0.000000 0.000000 0.000000 0.000000 0.043541
#
#
# Mechanical properties :
#
#
# Convention : Reuss Voigt Hill
#
# Bulk Modulus (GPa) = 68.88411 72.43918 70.66164
# Shear Modulus (GPa) = 15.68635 29.68569 22.68602
#
# Velocity S-wave (km/s) = 2.78206 3.82718 3.34568
# Velocity P-wave (km/s) = 6.65644 7.43453 7.05621
#
# Compressibility (1/GPa) = 0.01451714
#
# Stress axis : x y z
#
# Youngs Moduli (GPa) = 18.32670 18.32664 94.40404
#
# Poissons Ratio (x) = 0.80768 0.40271
# Poissons Ratio (y) = 0.80768 0.40271
# Poissons Ratio (z) = 0.07818 0.07818
#
# Static dielectric constant tensor:
#      x y z
#    x 3.914560 0.000000 0.000000 
#    y 0.000000 3.914550 0.000000 
#    z 0.000000 0.000000 3.699930 
# 
# 
# High freq. dielectric constant tensor:
#      x y z
#    x 1.794230 0.000000 0.000000 
#    y 0.000000 1.794230 0.000000 
#    z 0.000000 0.000000 1.805480 
# 
# From -- ./inp_files/6756.got.cif
#   From: 2010.03.12/outbox.cif.g09.slc.cpg/sg93_4_cif.got.tgz:6756.got - 2010.04.08 20:44:19.
