data_PCOD8305950
_publ_section_title
;
Structure prediction by ZEFSAII (Michael W. Deem and Ramdas Pophale) SiO2 
 PCOD8305950
Probable space group: P 43 21 2
;
_chemical_formula_sum "Si O2"
_cell_formula_units_Z 40
_cell_length_a 18.984601
_cell_length_b 18.984601
_cell_length_c 4.995068
_cell_angle_alpha 90.000000
_cell_angle_beta 90.000000
_cell_angle_gamma 90.000000
_cell_volume 1800.297808
_symmetry_space_group_name_H-M "P 43 21 2"
_symmetry_group_IT_number 96
_symmetry_cell_setting 'tetragonal'
loop_
_space_group_symop_operation_xyz
x,y,z
1/2-y,1/2+x,3/4+z
-x,-y,1/2+z
1/2+y,1/2-x,1/4+z
1/2+x,1/2-y,1/4-z
1/2-x,1/2+y,3/4-z
y,x,-z
-y,-x,1/2-z
loop_
_atom_site_type_symbol
_atom_site_label
_atom_site_fract_x
_atom_site_fract_y
_atom_site_fract_z
Si Si1 0.732611 0.382165 0.278365
Si Si2 0.609027 0.679045 0.251052
Si Si3 0.406753 0.946673 0.108144
Si Si4 0.159354 0.387620 0.124496
Si Si5 0.052028 0.166888 0.527803
O O1 0.690001 0.310000 0.250000
O O2 0.813277 0.361162 0.243395
O O3 0.721779 0.418992 0.562288
O O4 0.705628 0.437656 0.059723
O O5 0.650397 0.650397 0.500000
O O6 0.608851 0.763127 0.254317
O O7 0.529854 0.649286 0.253559
O O8 0.652261 0.652261 0.000000
O O9 0.392121 0.902385 0.375742
O O10 0.416119 0.026228 0.200636
O O11 0.346653 0.942442 0.876157
O O12 0.092930 0.092930 0.500000
#
# Coordination Sequence:
#
# PCOD8305950 Si02
#       5
#     8   8   8   8   8
#     4  10  22  42  67  98 134 172 228 284 342 415
#     4  12  27  46  68 104 145 181 234 297 361 426
#     4  12  27  47  66 102 141 184 237 287 345 421
#     4  12  26  42  75  98 140 187 233 289 358 417
#     4  10  23  43  71 102 135 183 235 285 343 424
#
# _framework density 22.218544000000001
#
# number of rings (size 3 to 8) (size 9 to 14) (size 15 to 20)
#    0.000    0.800    0.000    6.600    8.400    3.200 
#    0.000    0.000    0.000    0.000    0.000    0.000 
#    0.000    0.000    0.000    0.000    0.000    0.000 
#
# Total GULP energy -496173.293621 kJ/mol
# GULP energy per Si atom -12404.332341 kJ/mol
# Density = 2.216797 g / cm^3
# Si number density = 22.218544 Si / 1000 Ang^3
#
#
#
# Elastic Constant Matrix: (Units=GPa)
#
#
# Indices 1 2 3 4 5 6 
#
# 1 93.8531 28.8851 29.1969 0.0000 0.0000 0.0000
# 2 28.8851 93.8509 29.1985 0.0000 0.0000 0.0000
# 3 29.1969 29.1985 120.6277 0.0000 0.0000 0.0000
# 4 0.0000 0.0000 0.0000 42.7341 0.0000 0.0000
# 5 0.0000 0.0000 0.0000 0.0000 42.7360 0.0000
# 6 0.0000 0.0000 0.0000 0.0000 0.0000 18.4908
#
#
#
# Elastic Compliance Matrix: (Units=1/GPa)
#
#
# Indices 1 2 3 4 5 6 
#
# 1 0.012300 -0.003092 -0.002229 0.000000 0.000000 0.000000
# 2 -0.003092 0.012300 -0.002229 0.000000 0.000000 0.000000
# 3 -0.002229 -0.002229 0.009369 0.000000 0.000000 0.000000
# 4 0.000000 0.000000 0.000000 0.023401 0.000000 0.000000
# 5 0.000000 0.000000 0.000000 0.000000 0.023399 0.000000
# 6 0.000000 0.000000 0.000000 0.000000 0.000000 0.054081
#
#
# Mechanical properties :
#
#
# Convention : Reuss Voigt Hill
#
# Bulk Modulus (GPa) = 52.99514 53.65477 53.32496
# Shear Modulus (GPa) = 32.00210 35.52892 33.76551
#
# Velocity S-wave (km/s) = 3.79929 4.00317 3.90256
# Velocity P-wave (km/s) = 6.56884 6.75042 6.66025
#
# Compressibility (1/GPa) = 0.01886965
#
# Stress axis : x y z
#
# Youngs Moduli (GPa) = 81.30112 81.29831 106.73614
#
# Poissons Ratio (x) = 0.25140 0.23787
# Poissons Ratio (y) = 0.25141 0.23790
# Poissons Ratio (z) = 0.18119 0.18121
#
# Static dielectric constant tensor:
#      x y z
#    x 4.048550 0.000000 0.000000 
#    y 0.000000 4.048550 0.000000 
#    z 0.000000 0.000000 4.333720 
# 
# 
# High freq. dielectric constant tensor:
#      x y z
#    x 1.878290 0.000000 0.000000 
#    y 0.000000 1.878290 0.000000 
#    z 0.000000 0.000000 1.900520 
# 
# From -- ./inp_files/402.got.cif
#   From: 2010.03.12/outbox.cif.g09.slc.cpg/sg96_1_cif.got.tgz:402.got - 2010.04.08 20:56:49.
