data_PCOD8305094
_publ_section_title
;
Structure prediction by ZEFSAII (Michael W. Deem and Ramdas Pophale) SiO2 
 PCOD8305094
Probable space group: P 41 2 2
;
_chemical_formula_sum "Si O2"
_cell_formula_units_Z 48
_cell_length_a 8.517564
_cell_length_b 8.517564
_cell_length_c 28.909486
_cell_angle_alpha 90.000000
_cell_angle_beta 90.000000
_cell_angle_gamma 90.000000
_cell_volume 2097.351308
_symmetry_space_group_name_H-M "P 41 2 2"
_symmetry_group_IT_number 91
_symmetry_cell_setting 'tetragonal'
loop_
_space_group_symop_operation_xyz
x,y,z
-y,x,1/4+z
-x,-y,1/2+z
y,-x,3/4+z
x,-y,1/2-z
-x,y,-z
y,x,3/4-z
-y,-x,1/4-z
loop_
_atom_site_type_symbol
_atom_site_label
_atom_site_fract_x
_atom_site_fract_y
_atom_site_fract_z
Si Si1 0.234493 0.000000 0.250000
Si Si2 0.182687 0.950089 0.078436
Si Si3 0.277719 0.711829 0.676946
Si Si4 0.500000 0.275994 0.500000
Si Si5 0.924175 0.296875 0.921328
Si Si6 0.761509 0.486797 0.502671
Si Si7 0.048175 0.549699 0.323691
O O1 0.122036 0.926239 0.211407
O O2 0.357397 0.874209 0.271515
O O3 0.137597 0.862404 0.125000
O O4 0.364324 0.930706 0.067994
O O5 0.167169 0.136054 0.083534
O O6 0.332147 0.667854 0.625000
O O7 0.414861 0.672600 0.712734
O O8 0.122605 0.614661 0.690616
O O9 0.246252 0.897499 0.680908
O O10 0.623755 0.387618 0.527813
O O11 0.392724 0.172943 0.535382
O O12 0.905404 0.394959 0.874515
O O13 0.855095 0.401424 0.962438
#
# Coordination Sequence:
#
# PCOD8305094 Si02
#       7
#     4   8   8   4   8   8   8
#     4  12  26  48  80 110 150 194 262 314 376 456
#     4  12  28  46  78 110 145 201 254 313 374 451
#     4  10  24  45  72 106 148 197 246 306 377 459
#     4  12  30  44  70 108 154 198 246 320 378 448
#     4  11  26  47  76 107 144 200 252 307 380 454
#     4  12  26  48  74 111 150 198 248 315 383 447
#     4  11  27  47  72 107 153 192 253 310 380 453
#
# _framework density 22.886009000000001
#
# number of rings (size 3 to 8) (size 9 to 14) (size 15 to 20)
#    0.000    0.667    3.333    2.500   14.000    0.000 
#    0.000    0.000    0.000    0.000    0.000    0.000 
#    0.000    0.000    0.000    0.000    0.000    0.000 
#
# Total GULP energy -594977.882837 kJ/mol
# GULP energy per Si atom -12395.372559 kJ/mol
# Density = 2.283392 g / cm^3
# Si number density = 22.886009 Si / 1000 Ang^3
#
#
#
# Elastic Constant Matrix: (Units=GPa)
#
#
# Indices 1 2 3 4 5 6 
#
# 1 122.0348 68.6078 86.7244 0.0000 0.0000 0.0000
# 2 68.6078 122.0347 86.7222 0.0000 0.0000 0.0000
# 3 86.7244 86.7222 225.2178 0.0000 0.0000 0.0000
# 4 0.0000 0.0000 0.0000 34.0511 0.0000 0.0000
# 5 0.0000 0.0000 0.0000 0.0000 34.0509 0.0000
# 6 0.0000 0.0000 0.0000 0.0000 0.0000 88.4408
#
#
#
# Elastic Compliance Matrix: (Units=1/GPa)
#
#
# Indices 1 2 3 4 5 6 
#
# 1 0.013396 -0.005322 -0.003109 0.000000 0.000000 0.000000
# 2 -0.005322 0.013395 -0.003109 0.000000 0.000000 0.000000
# 3 -0.003109 -0.003109 0.006834 0.000000 0.000000 0.000000
# 4 0.000000 0.000000 0.000000 0.029368 0.000000 0.000000
# 5 0.000000 0.000000 0.000000 0.000000 0.029368 0.000000
# 6 0.000000 0.000000 0.000000 0.000000 0.000000 0.011307
#
#
# Mechanical properties :
#
#
# Convention : Reuss Voigt Hill
#
# Bulk Modulus (GPa) = 94.81872 105.93290 100.37581
# Shear Modulus (GPa) = 38.38399 46.45743 42.42071
#
# Velocity S-wave (km/s) = 4.09978 4.51038 4.30998
# Velocity P-wave (km/s) = 7.99573 8.57394 8.28988
#
# Compressibility (1/GPa) = 0.01054644
#
# Stress axis : x y z
#
# Youngs Moduli (GPa) = 74.65089 74.65220 146.31708
#
# Poissons Ratio (x) = 0.39727 0.45492
# Poissons Ratio (y) = 0.39726 0.45488
# Poissons Ratio (z) = 0.23210 0.23208
#
# Static dielectric constant tensor:
#      x y z
#    x 4.379730 0.000000 0.000000 
#    y 0.000000 4.379730 0.000000 
#    z 0.000000 0.000000 4.091060 
# 
# 
# High freq. dielectric constant tensor:
#      x y z
#    x 1.920790 0.000000 0.000000 
#    y 0.000000 1.920790 0.000000 
#    z 0.000000 0.000000 1.896240 
# 
# From -- ./inp_files/8022.got.cif
#   From: 2010.03.12/outbox.cif.g09.slc.cpg/sg91_5_cif.got.tgz:8022.got - 2010.04.08 20:27:58.
