data_PCOD8305955
_publ_section_title
;
Structure prediction by ZEFSAII (Michael W. Deem and Ramdas Pophale) SiO2 
 PCOD8305955
Probable space group: P 43 21 2
;
_chemical_formula_sum "Si O2"
_cell_formula_units_Z 40
_cell_length_a 15.424864
_cell_length_b 15.424864
_cell_length_c 6.737446
_cell_angle_alpha 90.000000
_cell_angle_beta 90.000000
_cell_angle_gamma 90.000000
_cell_volume 1603.016470
_symmetry_space_group_name_H-M "P 43 21 2"
_symmetry_group_IT_number 96
_symmetry_cell_setting 'tetragonal'
loop_
_space_group_symop_operation_xyz
x,y,z
1/2-y,1/2+x,3/4+z
-x,-y,1/2+z
1/2+y,1/2-x,1/4+z
1/2+x,1/2-y,1/4-z
1/2-x,1/2+y,3/4-z
y,x,-z
-y,-x,1/2-z
loop_
_atom_site_type_symbol
_atom_site_label
_atom_site_fract_x
_atom_site_fract_y
_atom_site_fract_z
Si Si1 0.396663 0.047350 0.534053
Si Si2 0.184116 0.149497 0.271702
Si Si3 0.291924 0.872740 0.047597
Si Si4 0.490925 0.722018 0.483816
Si Si5 0.042314 0.832767 0.172665
O O1 0.451842 0.076270 0.721958
O O2 0.405256 0.110933 0.344692
O O3 0.298695 0.048157 0.601991
O O4 0.159613 0.159613 0.500000
O O5 0.272159 0.203531 0.222765
O O6 0.096315 0.183523 0.156644
O O7 0.195356 0.047856 0.225208
O O8 0.236631 0.885067 0.250723
O O9 0.249683 0.933828 0.882257
O O10 0.536686 0.660509 0.317770
O O11 0.072505 0.927496 0.250000
#
# Coordination Sequence:
#
# PCOD8305955 Si02
#       5
#     8   8   8   8   8
#     4  12  23  42  68 107 149 197 244 314 384 463
#     4  10  22  50  75 106 159 199 250 331 390 451
#     4  12  23  46  77 109 145 197 261 311 391 472
#     4  11  26  47  75 111 150 203 259 315 392 470
#     4  11  25  48  74 105 150 198 251 319 382 458
#
# _framework density 24.952959
#
# number of rings (size 3 to 8) (size 9 to 14) (size 15 to 20)
#    0.000    0.800    6.000    1.800    0.000    3.200 
#   10.800    8.000    0.000    0.000    0.000    0.000 
#    0.000    0.000    0.000    0.000    0.000    0.000 
#
# Total GULP energy -495790.721785 kJ/mol
# GULP energy per Si atom -12394.768045 kJ/mol
# Density = 2.489616 g / cm^3
# Si number density = 24.952959 Si / 1000 Ang^3
#
#
#
# Elastic Constant Matrix: (Units=GPa)
#
#
# Indices 1 2 3 4 5 6 
#
# 1 147.4015 49.7134 23.3012 0.0000 0.0000 0.0000
# 2 49.7134 147.3989 23.3011 0.0000 0.0000 0.0000
# 3 23.3012 23.3011 25.8587 0.0000 0.0000 0.0000
# 4 0.0000 0.0000 0.0000 33.8295 0.0000 0.0000
# 5 0.0000 0.0000 0.0000 0.0000 33.8300 0.0000
# 6 0.0000 0.0000 0.0000 0.0000 0.0000 51.5936
#
#
#
# Elastic Compliance Matrix: (Units=1/GPa)
#
#
# Indices 1 2 3 4 5 6 
#
# 1 0.008342 -0.001895 -0.005809 0.000000 0.000000 0.000000
# 2 -0.001895 0.008342 -0.005809 0.000000 0.000000 0.000000
# 3 -0.005809 -0.005809 0.049141 0.000000 0.000000 0.000000
# 4 0.000000 0.000000 0.000000 0.029560 0.000000 0.000000
# 5 0.000000 0.000000 0.000000 0.000000 0.029560 0.000000
# 6 0.000000 0.000000 0.000000 0.000000 0.000000 0.019382
#
#
# Mechanical properties :
#
#
# Convention : Reuss Voigt Hill
#
# Bulk Modulus (GPa) = 25.77465 57.03229 41.40347
# Shear Modulus (GPa) = 27.13195 38.80685 32.96940
#
# Velocity S-wave (km/s) = 3.30104 3.94788 3.63886
# Velocity P-wave (km/s) = 4.98807 6.60958 5.85523
#
# Compressibility (1/GPa) = 0.03879782
#
# Stress axis : x y z
#
# Youngs Moduli (GPa) = 119.88087 119.87850 20.34977
#
# Poissons Ratio (x) = 0.22718 0.11821
# Poissons Ratio (y) = 0.22719 0.11821
# Poissons Ratio (z) = 0.69638 0.69638
#
# Static dielectric constant tensor:
#      x y z
#    x 4.767090 0.000000 0.000000 
#    y 0.000000 4.767100 0.000000 
#    z 0.000000 0.000000 4.293070 
# 
# 
# High freq. dielectric constant tensor:
#      x y z
#    x 2.001670 0.000000 0.000000 
#    y 0.000000 2.001670 0.000000 
#    z 0.000000 0.000000 1.981480 
# 
# From -- ./inp_files/1334.got.cif
#   From: 2010.03.12/outbox.cif.g09.slc.cpg/sg96_1_cif.got.tgz:1334.got - 2010.04.08 20:56:49.
