data_PCOD8305991
_publ_section_title
;
Structure prediction by ZEFSAII (Michael W. Deem and Ramdas Pophale) SiO2 
 PCOD8305991
Probable space group: P 43 21 2
;
_chemical_formula_sum "Si O2"
_cell_formula_units_Z 44
_cell_length_a 9.164737
_cell_length_b 9.164737
_cell_length_c 25.637489
_cell_angle_alpha 90.000000
_cell_angle_beta 90.000000
_cell_angle_gamma 90.000000
_cell_volume 2153.354341
_symmetry_space_group_name_H-M "P 43 21 2"
_symmetry_group_IT_number 96
_symmetry_cell_setting 'tetragonal'
loop_
_space_group_symop_operation_xyz
x,y,z
1/2-y,1/2+x,3/4+z
-x,-y,1/2+z
1/2+y,1/2-x,1/4+z
1/2+x,1/2-y,1/4-z
1/2-x,1/2+y,3/4-z
y,x,-z
-y,-x,1/2-z
loop_
_atom_site_type_symbol
_atom_site_label
_atom_site_fract_x
_atom_site_fract_y
_atom_site_fract_z
Si Si1 0.903187 0.669225 0.177516
Si Si2 0.916134 0.106409 0.869493
Si Si3 0.532867 0.683961 0.669016
Si Si4 0.532778 0.844261 0.565717
Si Si5 0.697525 0.302476 0.250000
Si Si6 0.159041 0.204241 0.788705
O O1 0.746404 0.646872 0.150154
O O2 0.890338 0.722148 0.236115
O O3 0.005037 0.781558 0.146642
O O4 0.988513 0.516580 0.180992
O O5 0.014443 0.003586 0.907228
O O6 0.012375 0.162592 0.820685
O O7 0.478264 0.780260 0.620729
O O8 0.458689 0.725912 0.723961
O O9 0.700035 0.728627 0.676686
O O10 0.694153 0.793125 0.549226
O O11 0.432761 0.761298 0.523054
#
# Coordination Sequence:
#
# PCOD8305991 Si02
#       6
#     8   8   8   8   4   8
#     4  12  25  46  65 100 141 176 225 281 354 410
#     4  11  26  43  65 101 135 180 222 287 343 406
#     4  11  21  45  69  93 136 172 237 280 330 405
#     4  11  24  40  69  99 129 185 225 286 334 410
#     4  12  22  44  70  98 136 176 240 288 332 410
#     4  11  24  43  67  98 131 177 230 273 340 408
#
# _framework density 20.433237999999999
#
# number of rings (size 3 to 8) (size 9 to 14) (size 15 to 20)
#    0.000    0.727    5.455    1.636    7.636    2.909 
#    0.000    0.000    0.000    0.000    0.000    0.000 
#    0.000    0.000    0.000    0.000    0.000    0.000 
#
# Total GULP energy -545288.437979 kJ/mol
# GULP energy per Si atom -12392.919045 kJ/mol
# Density = 2.038673 g / cm^3
# Si number density = 20.433238 Si / 1000 Ang^3
#
#
#
# Elastic Constant Matrix: (Units=GPa)
#
#
# Indices 1 2 3 4 5 6 
#
# 1 31.1662 102.4032 25.2169 0.0000 0.0000 0.0000
# 2 102.4032 31.1666 25.2117 0.0000 0.0000 0.0000
# 3 25.2169 25.2117 81.4024 0.0000 0.0000 0.0000
# 4 0.0000 0.0000 0.0000 29.4617 0.0000 0.0000
# 5 0.0000 0.0000 0.0000 0.0000 29.4613 0.0000
# 6 0.0000 0.0000 0.0000 0.0000 0.0000 50.1862
#
#
#
# Elastic Compliance Matrix: (Units=1/GPa)
#
#
# Indices 1 2 3 4 5 6 
#
# 1 -0.002780 0.011258 -0.002626 0.000000 0.000000 0.000000
# 2 0.011258 -0.002780 -0.002627 0.000000 0.000000 0.000000
# 3 -0.002626 -0.002627 0.013912 0.000000 0.000000 0.000000
# 4 0.000000 0.000000 0.000000 0.033942 0.000000 0.000000
# 5 0.000000 0.000000 0.000000 0.000000 0.033943 0.000000
# 6 0.000000 0.000000 0.000000 0.000000 0.000000 0.019926
#
#
# Mechanical properties :
#
#
# Convention : Reuss Voigt Hill
#
# Bulk Modulus (GPa) = 49.10752 49.93320 49.52036
# Shear Modulus (GPa) = 54.98163 21.21540 38.09851
#
# Velocity S-wave (km/s) = 5.19291 3.22573 4.32271
# Velocity P-wave (km/s) = 7.74858 6.19387 7.01443
#
# Compressibility (1/GPa) = 0.02036348
#
# Stress axis : x y z
#
# Youngs Moduli (GPa) = -359.71769 -359.77436 71.88286
#
# Poissons Ratio (x) = 4.05032 0.18874
# Poissons Ratio (y) = 4.04968 0.18881
# Poissons Ratio (z) = -0.94447 -0.94500
#
# Static dielectric constant tensor:
#      x y z
#    x 3.981160 0.000000 0.000000 
#    y 0.000000 3.981150 0.000000 
#    z 0.000000 0.000000 3.717200 
# 
# 
# High freq. dielectric constant tensor:
#      x y z
#    x 1.804910 0.000000 0.000000 
#    y 0.000000 1.804910 0.000000 
#    z 0.000000 0.000000 1.806280 
# 
# From -- ./inp_files/4415.got.cif
#   From: 2010.03.12/outbox.cif.g09.slc.cpg/sg96_3_cif.got.tgz:4415.got - 2010.04.08 20:56:49.
