data_PCOD8305680
_publ_section_title
;
Structure prediction by ZEFSAII (Michael W. Deem and Ramdas Pophale) SiO2 
 PCOD8305680
Probable space group: P 42 21 2
;
_chemical_formula_sum "Si O2"
_cell_formula_units_Z 58
_cell_length_a 16.167917
_cell_length_b 16.167917
_cell_length_c 10.649950
_cell_angle_alpha 90.000000
_cell_angle_beta 90.000000
_cell_angle_gamma 90.000000
_cell_volume 2783.913332
_symmetry_space_group_name_H-M "P 42 21 2"
_symmetry_group_IT_number 94
_symmetry_cell_setting 'tetragonal'
loop_
_space_group_symop_operation_xyz
x,y,z
1/2-y,1/2+x,1/2+z
-x,-y,z
1/2+y,1/2-x,1/2+z
1/2+x,1/2-y,1/2-z
1/2-x,1/2+y,1/2-z
y,x,-z
-y,-x,-z
loop_
_atom_site_type_symbol
_atom_site_label
_atom_site_fract_x
_atom_site_fract_y
_atom_site_fract_z
Si Si1 0.382449 0.813542 0.606931
Si Si2 0.832188 0.179148 0.863652
Si Si3 0.293200 0.689026 0.187520
Si Si4 0.000000 0.000000 0.500000
Si Si5 0.559306 0.745816 0.183580
Si Si6 0.179041 0.025199 0.443671
Si Si7 0.306207 0.955289 0.246844
Si Si8 0.412813 0.809910 0.320902
O O1 0.356597 0.732373 0.683638
O O2 0.309869 0.881444 0.610946
O O3 0.468517 0.844971 0.668619
O O4 0.396801 0.785530 0.464488
O O5 0.739411 0.216180 0.869334
O O6 0.827762 0.109370 0.754910
O O7 0.898430 0.250100 0.840407
O O8 0.856969 0.143032 0.000000
O O9 0.318210 0.623495 0.080867
O O10 0.366520 0.749924 0.224247
O O11 0.083845 0.998840 0.415242
O O12 0.509147 0.799339 0.286993
O O13 0.497933 0.700321 0.087088
O O14 0.246945 0.980697 0.359999
O O15 0.384333 0.904467 0.299843
#
# Coordination Sequence:
#
# PCOD8305680 Si02
#       8
#     8   8   8   2   8   8   8   8
#     4  10  21  42  59  91 121 169 214 266 315 400
#     4  10  21  37  59  90 117 164 205 264 305 384
#     4   9  22  36  64  84 119 158 214 251 320 369
#     4  12  24  32  64  88 126 152 192 250 336 352
#     4  11  23  38  63  90 127 165 220 260 333 382
#     4  11  22  41  57  94 124 159 203 271 311 398
#     4  10  22  39  62  85 127 165 210 260 328 369
#     4  11  21  39  62  89 120 170 209 267 316 395
#
# _framework density 20.833983
#
# number of rings (size 3 to 8) (size 9 to 14) (size 15 to 20)
#    0.000    1.655    1.379    2.897    4.828    0.552 
#    2.483    1.379    0.000    0.000    0.000    5.793 
#    0.000    0.000    0.000    0.000    0.000    0.000 
#
# Total GULP energy -718997.471461 kJ/mol
# GULP energy per Si atom -12396.508129 kJ/mol
# Density = 2.078656 g / cm^3
# Si number density = 20.833983 Si / 1000 Ang^3
#
#
#
# Elastic Constant Matrix: (Units=GPa)
#
#
# Indices 1 2 3 4 5 6 
#
# 1 77.7318 14.6562 20.3189 0.0000 0.0000 0.0000
# 2 14.6562 77.7319 20.3191 0.0000 0.0000 0.0000
# 3 20.3189 20.3191 109.6000 0.0000 0.0000 0.0000
# 4 0.0000 0.0000 0.0000 33.1971 0.0000 0.0000
# 5 0.0000 0.0000 0.0000 0.0000 33.1970 0.0000
# 6 0.0000 0.0000 0.0000 0.0000 0.0000 21.0341
#
#
#
# Elastic Compliance Matrix: (Units=1/GPa)
#
#
# Indices 1 2 3 4 5 6 
#
# 1 0.013819 -0.002035 -0.002185 0.000000 0.000000 0.000000
# 2 -0.002035 0.013819 -0.002185 0.000000 0.000000 0.000000
# 3 -0.002185 -0.002185 0.009934 0.000000 0.000000 0.000000
# 4 0.000000 0.000000 0.000000 0.030123 0.000000 0.000000
# 5 0.000000 0.000000 0.000000 0.000000 0.030123 0.000000
# 6 0.000000 0.000000 0.000000 0.000000 0.000000 0.047542
#
#
# Mechanical properties :
#
#
# Convention : Reuss Voigt Hill
#
# Bulk Modulus (GPa) = 40.38005 41.73914 41.05960
# Shear Modulus (GPa) = 30.04364 31.47027 30.75696
#
# Velocity S-wave (km/s) = 3.80155 3.89076 3.84642
# Velocity P-wave (km/s) = 6.22037 6.34521 6.28310
#
# Compressibility (1/GPa) = 0.02476470
#
# Stress axis : x y z
#
# Youngs Moduli (GPa) = 72.36173 72.36177 100.66247
#
# Poissons Ratio (x) = 0.14722 0.21993
# Poissons Ratio (y) = 0.14722 0.21993
# Poissons Ratio (z) = 0.15810 0.15810
#
# Static dielectric constant tensor:
#      x y z
#    x 3.819650 0.000000 0.000000 
#    y 0.000000 3.819650 0.000000 
#    z 0.000000 0.000000 3.662060 
# 
# 
# High freq. dielectric constant tensor:
#      x y z
#    x 1.812350 0.000000 0.000000 
#    y 0.000000 1.812350 0.000000 
#    z 0.000000 0.000000 1.820060 
# 
# From -- ./inp_files/1727.got.cif
#   From: 2010.03.12/outbox.cif.g09.slc.cpg/sg94_1_cif.got.tgz:1727.got - 2010.04.08 20:48:32.
