data_PCOD8305365
_publ_section_title
;
Structure prediction by ZEFSAII (Michael W. Deem and Ramdas Pophale) SiO2 
 PCOD8305365
Probable space group: P 41 21 2
;
_chemical_formula_sum "Si O2"
_cell_formula_units_Z 48
_cell_length_a 11.547757
_cell_length_b 11.547757
_cell_length_c 17.470158
_cell_angle_alpha 90.000000
_cell_angle_beta 90.000000
_cell_angle_gamma 90.000000
_cell_volume 2329.657654
_symmetry_space_group_name_H-M "P 41 21 2"
_symmetry_group_IT_number 92
_symmetry_cell_setting 'tetragonal'
loop_
_space_group_symop_operation_xyz
x,y,z
1/2-y,1/2+x,1/4+z
-x,-y,1/2+z
1/2+y,1/2-x,3/4+z
1/2+x,1/2-y,3/4-z
1/2-x,1/2+y,1/4-z
y,x,-z
-y,-x,1/2-z
loop_
_atom_site_type_symbol
_atom_site_label
_atom_site_fract_x
_atom_site_fract_y
_atom_site_fract_z
Si Si1 0.735153 0.884495 0.449360
Si Si2 0.630024 0.765199 0.165494
Si Si3 0.147025 0.517150 0.034266
Si Si4 0.354840 0.683585 0.027832
Si Si5 0.432609 0.992698 0.612674
Si Si6 0.087988 0.786424 0.805704
O O1 0.837928 0.837928 0.500000
O O2 0.617702 0.824438 0.478917
O O3 0.751790 0.874505 0.357878
O O4 0.733070 0.019651 0.470948
O O5 0.739808 0.785226 0.217974
O O6 0.643610 0.635961 0.129844
O O7 0.606650 0.872001 0.104617
O O8 0.272922 0.573902 0.045099
O O9 0.064798 0.523230 0.109071
O O10 0.074913 0.577909 0.966512
O O11 0.477384 0.652533 0.986430
O O12 0.346888 0.935757 0.675478
O O13 0.199987 0.800014 0.750000
#
# Coordination Sequence:
#
# PCOD8305365 Si02
#       6
#     8   8   8   8   8   8
#     4  11  25  41  66  91 126 178 209 259 321 389
#     4  10  22  41  66  92 127 162 217 261 320 387
#     4  11  23  41  62  92 126 159 217 255 312 385
#     4  11  24  40  65  96 129 164 214 268 322 380
#     4  10  22  38  67  92 122 168 206 265 311 380
#     4  11  20  40  66  94 124 164 207 264 329 369
#
# _framework density 20.603884999999998
#
# number of rings (size 3 to 8) (size 9 to 14) (size 15 to 20)
#    0.000    1.333    3.333    2.000   14.000    0.667 
#    0.000    1.667    0.000    0.000    0.000    0.000 
#    0.000    0.000    0.000    0.000    0.000    0.000 
#
# Total GULP energy -594646.689211 kJ/mol
# GULP energy per Si atom -12388.472692 kJ/mol
# Density = 2.055699 g / cm^3
# Si number density = 20.603885 Si / 1000 Ang^3
#
#
#
# Elastic Constant Matrix: (Units=GPa)
#
#
# Indices 1 2 3 4 5 6 
#
# 1 71.0582 74.2376 24.0385 0.0000 0.0000 0.0000
# 2 74.2376 71.0596 24.0387 0.0000 0.0000 0.0000
# 3 24.0385 24.0387 57.5357 0.0000 0.0000 0.0000
# 4 0.0000 0.0000 0.0000 28.5970 0.0000 0.0000
# 5 0.0000 0.0000 0.0000 0.0000 28.5970 0.0000
# 6 0.0000 0.0000 0.0000 0.0000 0.0000 37.0904
#
#
#
# Elastic Compliance Matrix: (Units=1/GPa)
#
#
# Indices 1 2 3 4 5 6 
#
# 1 -0.153307 0.161292 -0.003337 0.000000 0.000000 0.000000
# 2 0.161292 -0.153304 -0.003337 0.000000 0.000000 0.000000
# 3 -0.003337 -0.003337 0.020169 0.000000 0.000000 0.000000
# 4 0.000000 0.000000 0.000000 0.034969 0.000000 0.000000
# 5 0.000000 0.000000 0.000000 0.000000 0.034969 0.000000
# 6 0.000000 0.000000 0.000000 0.000000 0.000000 0.026961
#
#
# Mechanical properties :
#
#
# Convention : Reuss Voigt Hill
#
# Bulk Modulus (GPa) = 43.86989 49.36479 46.61734
# Shear Modulus (GPa) = -10.17951 24.01279 6.91664
#
# Velocity S-wave (km/s) = -2.22515 3.41757 1.83419
# Velocity P-wave (km/s) = 3.83882 6.29159 5.21155
#
# Compressibility (1/GPa) = 0.02279468
#
# Stress axis : x y z
#
# Youngs Moduli (GPa) = -6.52285 -6.52299 49.58158
#
# Poissons Ratio (x) = 1.05211 0.16543
# Poissons Ratio (y) = 1.05209 0.16546
# Poissons Ratio (z) = -0.02176 -0.02177
#
# Static dielectric constant tensor:
#      x y z
#    x 3.794400 0.000000 0.000000 
#    y 0.000000 3.794400 0.000000 
#    z 0.000000 0.000000 3.657050 
# 
# 
# High freq. dielectric constant tensor:
#      x y z
#    x 1.803100 0.000000 0.000000 
#    y 0.000000 1.803100 0.000000 
#    z 0.000000 0.000000 1.804000 
# 
# From -- ./inp_files/3129.got.cif
#   From: 2010.03.12/outbox.cif.g09.slc.cpg/sg92_2_cif.got.tgz:3129.got - 2010.04.08 20:41:11.
