data_PCOD8305923
_publ_section_title
;
Structure prediction by ZEFSAII (Michael W. Deem and Ramdas Pophale) SiO2 
 PCOD8305923
Probable space group: P 43 21 2
;
_chemical_formula_sum "Si O2"
_cell_formula_units_Z 56
_cell_length_a 15.352763
_cell_length_b 15.352763
_cell_length_c 10.788461
_cell_angle_alpha 90.000000
_cell_angle_beta 90.000000
_cell_angle_gamma 90.000000
_cell_volume 2542.919356
_symmetry_space_group_name_H-M "P 43 21 2"
_symmetry_group_IT_number 96
_symmetry_cell_setting 'tetragonal'
loop_
_space_group_symop_operation_xyz
x,y,z
1/2-y,1/2+x,3/4+z
-x,-y,1/2+z
1/2+y,1/2-x,1/4+z
1/2+x,1/2-y,1/4-z
1/2-x,1/2+y,3/4-z
y,x,-z
-y,-x,1/2-z
loop_
_atom_site_type_symbol
_atom_site_label
_atom_site_fract_x
_atom_site_fract_y
_atom_site_fract_z
Si Si1 0.983196 0.437244 0.657264
Si Si2 0.752975 0.166980 0.136874
Si Si3 0.746376 0.449452 0.882256
Si Si4 0.321545 0.646011 0.945787
Si Si5 0.491746 0.558811 0.874326
Si Si6 0.133921 0.832413 0.125215
Si Si7 0.712084 0.969099 0.135439
O O1 0.995210 0.479368 0.793287
O O2 0.882511 0.424242 0.620021
O O3 0.033568 0.346753 0.665906
O O4 0.822870 0.177131 0.250000
O O5 0.703611 0.074445 0.147343
O O6 0.691874 0.251658 0.144490
O O7 0.792636 0.172895 0.998622
O O8 0.711997 0.364340 0.953830
O O9 0.690204 0.534529 0.912362
O O10 0.736643 0.437172 0.735602
O O11 0.267752 0.566363 0.002686
O O12 0.397840 0.603973 0.866309
O O13 0.500883 0.499118 0.750000
O O14 0.563350 0.634537 0.862087
O O15 0.501301 0.501301 0.000000
O O16 0.190998 0.809002 0.250000
#
# Coordination Sequence:
#
# PCOD8305923 Si02
#       7
#     8   8   8   8   8   8   8
#     4  10  22  43  67  96 129 177 229 277 339 420
#     4  11  27  44  66 104 142 178 234 286 357 416
#     4  10  21  39  64 101 130 169 231 281 336 406
#     4  12  23  42  66 103 141 175 230 300 341 413
#     4  11  25  40  68 100 137 180 229 278 346 421
#     4  10  21  42  64  94 134 174 226 277 337 418
#     4  10  23  42  70  95 136 188 229 274 347 435
#
# _framework density 22.021933000000001
#
# number of rings (size 3 to 8) (size 9 to 14) (size 15 to 20)
#    0.000    1.429    2.857    3.429    6.000    4.571 
#    0.000    1.429    0.000    0.000    0.000    0.000 
#    0.000    0.000    0.000    0.000    0.000    0.000 
#
# Total GULP energy -693887.427683 kJ/mol
# GULP energy per Si atom -12390.846923 kJ/mol
# Density = 2.197181 g / cm^3
# Si number density = 22.021933 Si / 1000 Ang^3
#
#
#
# Elastic Constant Matrix: (Units=GPa)
#
#
# Indices 1 2 3 4 5 6 
#
# 1 76.3746 27.6400 29.2727 0.0000 0.0000 0.0000
# 2 27.6400 76.3751 29.2720 0.0000 0.0000 0.0000
# 3 29.2727 29.2720 136.9877 0.0000 0.0000 0.0000
# 4 0.0000 0.0000 0.0000 29.5185 0.0000 0.0000
# 5 0.0000 0.0000 0.0000 0.0000 29.5184 0.0000
# 6 0.0000 0.0000 0.0000 0.0000 0.0000 31.8380
#
#
#
# Elastic Compliance Matrix: (Units=1/GPa)
#
#
# Indices 1 2 3 4 5 6 
#
# 1 0.015724 -0.004795 -0.002335 0.000000 0.000000 0.000000
# 2 -0.004795 0.015724 -0.002335 0.000000 0.000000 0.000000
# 3 -0.002335 -0.002335 0.008298 0.000000 0.000000 0.000000
# 4 0.000000 0.000000 0.000000 0.033877 0.000000 0.000000
# 5 0.000000 0.000000 0.000000 0.000000 0.033877 0.000000
# 6 0.000000 0.000000 0.000000 0.000000 0.000000 0.031409
#
#
# Mechanical properties :
#
#
# Convention : Reuss Voigt Hill
#
# Bulk Modulus (GPa) = 48.04513 51.34520 49.69516
# Shear Modulus (GPa) = 30.34378 31.74517 31.04447
#
# Velocity S-wave (km/s) = 3.71602 3.80086 3.75868
# Velocity P-wave (km/s) = 6.34634 6.52902 6.43833
#
# Compressibility (1/GPa) = 0.02081377
#
# Stress axis : x y z
#
# Youngs Moduli (GPa) = 63.59753 63.59823 120.51181
#
# Poissons Ratio (x) = 0.30498 0.28143
# Poissons Ratio (y) = 0.30498 0.28142
# Poissons Ratio (z) = 0.14852 0.14851
#
# Static dielectric constant tensor:
#      x y z
#    x 3.843410 0.000000 0.000000 
#    y 0.000000 3.843410 0.000000 
#    z 0.000000 0.000000 4.209540 
# 
# 
# High freq. dielectric constant tensor:
#      x y z
#    x 1.856850 0.000000 0.000000 
#    y 0.000000 1.856850 0.000000 
#    z 0.000000 0.000000 1.884270 
# 
# From -- ./inp_files/2265.got.cif
#   From: 2010.03.12/outbox.cif.g09.slc.cpg/sg96_2_cif.got.tgz:2265.got - 2010.04.08 20:56:49.
