data_PCOD8305378
_publ_section_title
;
Structure prediction by ZEFSAII (Michael W. Deem and Ramdas Pophale) SiO2 
 PCOD8305378
Probable space group: P 41 21 2
;
_chemical_formula_sum "Si O2"
_cell_formula_units_Z 40
_cell_length_a 12.283366
_cell_length_b 12.283366
_cell_length_c 14.187831
_cell_angle_alpha 90.000000
_cell_angle_beta 90.000000
_cell_angle_gamma 90.000000
_cell_volume 2140.675268
_symmetry_space_group_name_H-M "P 41 21 2"
_symmetry_group_IT_number 92
_symmetry_cell_setting 'tetragonal'
loop_
_space_group_symop_operation_xyz
x,y,z
1/2-y,1/2+x,1/4+z
-x,-y,1/2+z
1/2+y,1/2-x,3/4+z
1/2+x,1/2-y,3/4-z
1/2-x,1/2+y,1/4-z
y,x,-z
-y,-x,1/2-z
loop_
_atom_site_type_symbol
_atom_site_label
_atom_site_fract_x
_atom_site_fract_y
_atom_site_fract_z
Si Si1 0.552058 0.552058 0.000000
Si Si2 0.841139 0.853948 0.693951
Si Si3 0.242191 0.242191 0.000000
Si Si4 0.985720 0.324513 0.714919
Si Si5 0.614300 0.972423 0.987617
Si Si6 0.510925 0.233779 0.427588
O O1 0.558999 0.440983 0.938368
O O2 0.556555 0.652917 0.926710
O O3 0.810874 0.812821 0.590858
O O4 0.878507 0.752245 0.760529
O O5 0.740040 0.913480 0.741270
O O6 0.218316 0.371084 0.004376
O O7 0.010593 0.449594 0.742100
O O8 0.987375 0.315621 0.601839
O O9 0.564590 0.854068 0.977142
O O10 0.700167 0.963172 0.071748
#
# Coordination Sequence:
#
# PCOD8305378 Si02
#       6
#     4   8   4   8   8   8
#     4   8  21  46  58  93 132 160 220 258 317 396
#     4  10  23  45  62  95 132 173 220 266 337 386
#     4  12  25  42  68  93 136 184 216 282 333 392
#     4  11  23  44  63  97 129 167 223 270 331 401
#     4  10  22  41  68  96 126 168 219 271 333 391
#     4   9  22  41  64  95 129 168 211 276 320 399
#
# _framework density 18.685692
#
# number of rings (size 3 to 8) (size 9 to 14) (size 15 to 20)
#    1.200    0.800    2.000    0.600    5.600    4.000 
#    7.200    0.000    0.000    0.000    0.000    0.000 
#    0.000    0.000    0.000    0.000    0.000    0.000 
#
# Total GULP energy -495712.519637 kJ/mol
# GULP energy per Si atom -12392.812991 kJ/mol
# Density = 1.864316 g / cm^3
# Si number density = 18.685692 Si / 1000 Ang^3
#
#
#
# Elastic Constant Matrix: (Units=GPa)
#
#
# Indices 1 2 3 4 5 6 
#
# 1 68.2883 14.8814 39.8233 0.0000 0.0000 0.0000
# 2 14.8814 68.2883 39.8233 0.0000 0.0000 0.0000
# 3 39.8233 39.8233 155.7264 0.0000 0.0000 0.0000
# 4 0.0000 0.0000 0.0000 28.5785 0.0000 0.0000
# 5 0.0000 0.0000 0.0000 0.0000 28.5785 0.0000
# 6 0.0000 0.0000 0.0000 0.0000 0.0000 35.4999
#
#
#
# Elastic Compliance Matrix: (Units=1/GPa)
#
#
# Indices 1 2 3 4 5 6 
#
# 1 0.017324 -0.001401 -0.004072 0.000000 0.000000 0.000000
# 2 -0.001401 0.017324 -0.004072 0.000000 0.000000 0.000000
# 3 -0.004072 -0.004072 0.008504 0.000000 0.000000 0.000000
# 4 0.000000 0.000000 0.000000 0.034991 0.000000 0.000000
# 5 0.000000 0.000000 0.000000 0.000000 0.034991 0.000000
# 6 0.000000 0.000000 0.000000 0.000000 0.000000 0.028169
#
#
# Mechanical properties :
#
#
# Convention : Reuss Voigt Hill
#
# Bulk Modulus (GPa) = 41.55849 53.48434 47.52142
# Shear Modulus (GPa) = 29.68896 31.71639 30.70268
#
# Velocity S-wave (km/s) = 3.99038 4.12438 4.05793
# Velocity P-wave (km/s) = 6.59696 7.16700 6.88788
#
# Compressibility (1/GPa) = 0.02406247
#
# Stress axis : x y z
#
# Youngs Moduli (GPa) = 57.72466 57.72466 117.59007
#
# Poissons Ratio (x) = 0.08085 0.47882
# Poissons Ratio (y) = 0.08085 0.47882
# Poissons Ratio (z) = 0.23505 0.23505
#
# Static dielectric constant tensor:
#      x y z
#    x 3.381220 0.000000 0.000000 
#    y 0.000000 3.381220 0.000000 
#    z 0.000000 0.000000 3.436740 
# 
# 
# High freq. dielectric constant tensor:
#      x y z
#    x 1.726460 0.000000 0.000000 
#    y 0.000000 1.726460 0.000000 
#    z 0.000000 0.000000 1.724990 
# 
# From -- ./inp_files/2677.got.cif
#   From: 2010.03.12/outbox.cif.g09.slc.cpg/sg92_2_cif.got.tgz:2677.got - 2010.04.08 20:41:11.
