data_PCOD8305467
_publ_section_title
;
Structure prediction by ZEFSAII (Michael W. Deem and Ramdas Pophale) SiO2 
 PCOD8305467
Probable space group: P 41 21 2
;
_chemical_formula_sum "Si O2"
_cell_formula_units_Z 40
_cell_length_a 8.413424
_cell_length_b 8.413424
_cell_length_c 25.447337
_cell_angle_alpha 90.000000
_cell_angle_beta 90.000000
_cell_angle_gamma 90.000000
_cell_volume 1801.307649
_symmetry_space_group_name_H-M "P 41 21 2"
_symmetry_group_IT_number 92
_symmetry_cell_setting 'tetragonal'
loop_
_space_group_symop_operation_xyz
x,y,z
1/2-y,1/2+x,1/4+z
-x,-y,1/2+z
1/2+y,1/2-x,3/4+z
1/2+x,1/2-y,3/4-z
1/2-x,1/2+y,1/4-z
y,x,-z
-y,-x,1/2-z
loop_
_atom_site_type_symbol
_atom_site_label
_atom_site_fract_x
_atom_site_fract_y
_atom_site_fract_z
Si Si1 0.362886 0.142537 0.310499
Si Si2 0.946704 0.731336 0.035181
Si Si3 0.220983 0.281166 0.939575
Si Si4 0.459462 0.407937 0.869749
Si Si5 0.734542 0.478059 0.091450
O O1 0.408500 0.165173 0.249743
O O2 0.504953 0.197804 0.349209
O O3 0.205318 0.246865 0.323046
O O4 0.339361 0.957623 0.320080
O O5 0.829794 0.587969 0.051058
O O6 0.017392 0.813910 0.086568
O O7 0.857428 0.857428 0.000000
O O8 0.387021 0.267868 0.906866
O O9 0.095286 0.155705 0.917972
O O10 0.245883 0.245883 0.000000
O O11 0.529069 0.548016 0.906991
#
# Coordination Sequence:
#
# PCOD8305467 Si02
#       5
#     8   8   8   8   8
#     4  11  25  44  74 103 146 187 243 298 364 431
#     4  12  24  45  71 104 136 193 240 291 365 428
#     4  11  27  47  71 108 148 192 246 302 369 432
#     4  11  26  48  70 105 149 189 242 300 358 435
#     4  11  23  47  70 104 142 182 243 297 356 433
#
# _framework density 22.206088999999999
#
# number of rings (size 3 to 8) (size 9 to 14) (size 15 to 20)
#    0.000    0.800    6.000    0.600    5.600    6.400 
#    0.000    0.000    0.000    0.000    0.000    0.000 
#    0.000    0.000    0.000    0.000    0.000    0.000 
#
# Total GULP energy -496047.634283 kJ/mol
# GULP energy per Si atom -12401.190857 kJ/mol
# Density = 2.215555 g / cm^3
# Si number density = 22.206089 Si / 1000 Ang^3
#
#
#
# Elastic Constant Matrix: (Units=GPa)
#
#
# Indices 1 2 3 4 5 6 
#
# 1 87.6686 62.9855 59.4609 0.0000 0.0000 0.0000
# 2 62.9855 87.6686 59.4609 0.0000 0.0000 0.0000
# 3 59.4609 59.4609 144.7451 0.0000 0.0000 0.0000
# 4 0.0000 0.0000 0.0000 45.3464 0.0000 0.0000
# 5 0.0000 0.0000 0.0000 0.0000 45.3464 0.0000
# 6 0.0000 0.0000 0.0000 0.0000 0.0000 41.1173
#
#
#
# Elastic Compliance Matrix: (Units=1/GPa)
#
#
# Indices 1 2 3 4 5 6 
#
# 1 0.025168 -0.015345 -0.004035 0.000000 0.000000 0.000000
# 2 -0.015345 0.025168 -0.004035 0.000000 0.000000 0.000000
# 3 -0.004035 -0.004035 0.010224 0.000000 0.000000 0.000000
# 4 0.000000 0.000000 0.000000 0.022052 0.000000 0.000000
# 5 0.000000 0.000000 0.000000 0.000000 0.022052 0.000000
# 6 0.000000 0.000000 0.000000 0.000000 0.000000 0.024321
#
#
# Mechanical properties :
#
#
# Convention : Reuss Voigt Hill
#
# Bulk Modulus (GPa) = 72.83832 75.98853 74.41342
# Shear Modulus (GPa) = 27.71703 35.57369 31.64536
#
# Velocity S-wave (km/s) = 3.53678 4.00682 3.77911
# Velocity P-wave (km/s) = 7.03923 7.46325 7.25434
#
# Compressibility (1/GPa) = 0.01372904
#
# Stress axis : x y z
#
# Youngs Moduli (GPa) = 39.73241 39.73241 97.80845
#
# Poissons Ratio (x) = 0.60971 0.39468
# Poissons Ratio (y) = 0.60971 0.39468
# Poissons Ratio (z) = 0.16033 0.16033
#
# Static dielectric constant tensor:
#      x y z
#    x 4.093150 0.000000 0.000000 
#    y 0.000000 4.093150 0.000000 
#    z 0.000000 0.000000 4.444390 
# 
# 
# High freq. dielectric constant tensor:
#      x y z
#    x 1.873380 0.000000 0.000000 
#    y 0.000000 1.873380 0.000000 
#    z 0.000000 0.000000 1.890150 
# 
# From -- ./inp_files/3812.got.cif
#   From: 2010.03.12/outbox.cif.g09.slc.cpg/sg92_2_cif.got.tgz:3812.got - 2010.04.08 20:41:11.
