data_PCOD8305418
_publ_section_title
;
Structure prediction by ZEFSAII (Michael W. Deem and Ramdas Pophale) SiO2 
 PCOD8305418
Probable space group: P 41 21 2
;
_chemical_formula_sum "Si O2"
_cell_formula_units_Z 32
_cell_length_a 8.178154
_cell_length_b 8.178154
_cell_length_c 18.906933
_cell_angle_alpha 90.000000
_cell_angle_beta 90.000000
_cell_angle_gamma 90.000000
_cell_volume 1264.537328
_symmetry_space_group_name_H-M "P 41 21 2"
_symmetry_group_IT_number 92
_symmetry_cell_setting 'tetragonal'
loop_
_space_group_symop_operation_xyz
x,y,z
1/2-y,1/2+x,1/4+z
-x,-y,1/2+z
1/2+y,1/2-x,3/4+z
1/2+x,1/2-y,3/4-z
1/2-x,1/2+y,1/4-z
y,x,-z
-y,-x,1/2-z
loop_
_atom_site_type_symbol
_atom_site_label
_atom_site_fract_x
_atom_site_fract_y
_atom_site_fract_z
Si Si1 0.247558 0.592336 0.688967
Si Si2 0.421679 0.076969 0.042015
Si Si3 0.200849 0.683603 0.356433
Si Si4 0.924008 0.051984 0.327223
O O1 0.384188 0.615812 0.750000
O O2 0.338761 0.556560 0.616358
O O3 0.151168 0.757612 0.679382
O O4 0.117647 0.446845 0.706123
O O5 0.368494 0.247768 0.082018
O O6 0.327430 0.924008 0.078478
O O7 0.367138 0.080469 0.960199
O O8 0.378602 0.611874 0.380232
O O9 0.994053 0.005948 0.250000
#
# Coordination Sequence:
#
# PCOD8305418 Si02
#       4
#     8   8   8   8
#     4  10  24  43  72 104 141 187 238 299 357 425
#     4  10  24  45  69 105 138 192 239 296 366 419
#     4  10  24  45  70  98 147 181 243 301 351 440
#     4  10  24  44  67 105 138 187 240 292 360 423
#
# _framework density 25.305696999999999
#
# number of rings (size 3 to 8) (size 9 to 14) (size 15 to 20)
#    0.000    2.000    0.000    0.000   24.500    4.000 
#    4.500    0.000    0.000    0.000    0.000    0.000 
#    0.000    0.000    0.000    0.000    0.000    0.000 
#
# Total GULP energy -396689.175410 kJ/mol
# GULP energy per Si atom -12396.536732 kJ/mol
# Density = 2.524810 g / cm^3
# Si number density = 25.305697 Si / 1000 Ang^3
#
#
#
# Elastic Constant Matrix: (Units=GPa)
#
#
# Indices 1 2 3 4 5 6 
#
# 1 66.3254 40.9246 50.8466 0.0000 0.0000 0.0000
# 2 40.9246 66.3260 50.8467 0.0000 0.0000 0.0000
# 3 50.8466 50.8467 162.7558 0.0000 0.0000 0.0000
# 4 0.0000 0.0000 0.0000 36.1334 0.0000 0.0000
# 5 0.0000 0.0000 0.0000 0.0000 36.1334 0.0000
# 6 0.0000 0.0000 0.0000 0.0000 0.0000 42.7554
#
#
#
# Elastic Compliance Matrix: (Units=1/GPa)
#
#
# Indices 1 2 3 4 5 6 
#
# 1 0.026309 -0.013060 -0.004139 0.000000 0.000000 0.000000
# 2 -0.013060 0.026308 -0.004139 0.000000 0.000000 0.000000
# 3 -0.004139 -0.004139 0.008730 0.000000 0.000000 0.000000
# 4 0.000000 0.000000 0.000000 0.027675 0.000000 0.000000
# 5 0.000000 0.000000 0.000000 0.000000 0.027675 0.000000
# 6 0.000000 0.000000 0.000000 0.000000 0.000000 0.023389
#
#
# Mechanical properties :
#
#
# Convention : Reuss Voigt Hill
#
# Bulk Modulus (GPa) = 53.55783 64.51589 59.03686
# Shear Modulus (GPa) = 26.45700 33.19040 29.82370
#
# Velocity S-wave (km/s) = 3.23692 3.62550 3.43671
# Velocity P-wave (km/s) = 5.93131 6.56320 6.25524
#
# Compressibility (1/GPa) = 0.01867141
#
# Stress axis : x y z
#
# Youngs Moduli (GPa) = 38.01047 38.01090 114.54365
#
# Poissons Ratio (x) = 0.49642 0.47410
# Poissons Ratio (y) = 0.49641 0.47409
# Poissons Ratio (z) = 0.15733 0.15732
#
# Static dielectric constant tensor:
#      x y z
#    x 4.838740 0.000000 0.000000 
#    y 0.000000 4.838730 0.000000 
#    z 0.000000 0.000000 5.188080 
# 
# 
# High freq. dielectric constant tensor:
#      x y z
#    x 2.010840 0.000000 0.000000 
#    y 0.000000 2.010840 0.000000 
#    z 0.000000 0.000000 2.017380 
# 
# From -- ./inp_files/3365.got.cif
#   From: 2010.03.12/outbox.cif.g09.slc.cpg/sg92_2_cif.got.tgz:3365.got - 2010.04.08 20:41:11.
