data_PCOD8305528
_publ_section_title
;
Structure prediction by ZEFSAII (Michael W. Deem and Ramdas Pophale) SiO2 
 PCOD8305528
Probable space group: P 42 2 2
;
_chemical_formula_sum "Si O2"
_cell_formula_units_Z 38
_cell_length_a 9.548859
_cell_length_b 9.548859
_cell_length_c 21.515912
_cell_angle_alpha 90.000000
_cell_angle_beta 90.000000
_cell_angle_gamma 90.000000
_cell_volume 1961.836094
_symmetry_space_group_name_H-M "P 42 2 2"
_symmetry_group_IT_number 93
_symmetry_cell_setting 'tetragonal'
loop_
_space_group_symop_operation_xyz
x,y,z
-y,x,1/2+z
-x,-y,z
y,-x,1/2+z
x,-y,-z
-x,y,-z
y,x,1/2-z
-y,-x,1/2-z
loop_
_atom_site_type_symbol
_atom_site_label
_atom_site_fract_x
_atom_site_fract_y
_atom_site_fract_z
Si Si1 0.740949 0.832061 0.932904
Si Si2 0.372179 0.083529 0.374630
Si Si3 0.660606 0.518934 0.926815
Si Si4 0.863234 0.084034 0.315145
Si Si5 0.500000 0.000000 0.000000
Si Si6 0.753753 0.000000 0.500000
O O1 0.708073 0.674723 0.911941
O O2 0.804629 0.894928 0.869892
O O3 0.858426 0.845331 0.988021
O O4 0.598160 0.905400 0.955839
O O5 0.408256 0.248382 0.385370
O O6 0.345459 0.016051 0.441511
O O7 0.500000 0.000000 0.344320
O O8 0.244853 0.042957 0.329928
O O9 0.500000 0.500000 0.907319
O O10 0.684071 0.500000 0.000000
O O11 0.832516 0.167485 0.250000
O O12 0.000000 0.000000 0.303901
#
# Coordination Sequence:
#
# PCOD8305528 Si02
#       6
#     8   8   8   8   2   4
#     4  11  24  38  59  90 129 164 208 259 319 394
#     4  11  18  36  65  91 118 160 212 251 295 381
#     4  11  20  33  59  95 133 161 194 251 319 386
#     4  10  24  43  65  88 118 166 225 265 312 370
#     4  12  28  38  50  96 144 170 188 268 368 378
#     4  10  19  33  60  92 117 156 215 242 293 372
#
# _framework density 19.369609000000001
#
# number of rings (size 3 to 8) (size 9 to 14) (size 15 to 20)
#    0.000    1.263    6.316    1.579    5.895    0.000 
#    1.895    0.000    0.000    0.632    0.000    0.000 
#    0.000    0.000    0.000    0.000    0.000    0.000 
#
# Total GULP energy -470750.639507 kJ/mol
# GULP energy per Si atom -12388.174724 kJ/mol
# Density = 1.932552 g / cm^3
# Si number density = 19.369609 Si / 1000 Ang^3
#
#
#
# Elastic Constant Matrix: (Units=GPa)
#
#
# Indices 1 2 3 4 5 6 
#
# 1 122.1631 45.7595 42.6750 0.0000 0.0000 0.0000
# 2 45.7595 122.1630 42.6750 0.0000 0.0000 0.0000
# 3 42.6750 42.6750 92.1344 0.0000 0.0000 0.0000
# 4 0.0000 0.0000 0.0000 28.8410 0.0000 0.0000
# 5 0.0000 0.0000 0.0000 0.0000 28.8404 0.0000
# 6 0.0000 0.0000 0.0000 0.0000 0.0000 41.6183
#
#
#
# Elastic Compliance Matrix: (Units=1/GPa)
#
#
# Indices 1 2 3 4 5 6 
#
# 1 0.010439 -0.002650 -0.003608 0.000000 0.000000 0.000000
# 2 -0.002650 0.010439 -0.003608 0.000000 0.000000 0.000000
# 3 -0.003608 -0.003608 0.014196 0.000000 0.000000 0.000000
# 4 0.000000 0.000000 0.000000 0.034673 0.000000 0.000000
# 5 0.000000 0.000000 0.000000 0.000000 0.034674 0.000000
# 6 0.000000 0.000000 0.000000 0.000000 0.000000 0.024028
#
#
# Mechanical properties :
#
#
# Convention : Reuss Voigt Hill
#
# Bulk Modulus (GPa) = 65.17738 66.51993 65.84866
# Shear Modulus (GPa) = 32.61760 33.55002 33.08381
#
# Velocity S-wave (km/s) = 4.10806 4.16636 4.13731
# Velocity P-wave (km/s) = 7.49826 7.58694 7.54273
#
# Compressibility (1/GPa) = 0.01534275
#
# Stress axis : x y z
#
# Youngs Moduli (GPa) = 95.79849 95.79839 70.44402
#
# Poissons Ratio (x) = 0.25385 0.25413
# Poissons Ratio (y) = 0.25385 0.25413
# Poissons Ratio (z) = 0.34560 0.34560
#
# Static dielectric constant tensor:
#      x y z
#    x 3.889210 0.000000 0.000000 
#    y 0.000000 3.889210 0.000000 
#    z 0.000000 0.000000 4.089310 
# 
# 
# High freq. dielectric constant tensor:
#      x y z
#    x 1.759850 0.000000 0.000000 
#    y 0.000000 1.759850 0.000000 
#    z 0.000000 0.000000 1.721300 
# 
# From -- ./inp_files/6754.got.cif
#   From: 2010.03.12/outbox.cif.g09.slc.cpg/sg93_4_cif.got.tgz:6754.got - 2010.04.08 20:44:19.
