data_PCOD8305610
_publ_section_title
;
Structure prediction by ZEFSAII (Michael W. Deem and Ramdas Pophale) SiO2 
 PCOD8305610
Probable space group: P 42 2 2
;
_chemical_formula_sum "Si O2"
_cell_formula_units_Z 20
_cell_length_a 5.073491
_cell_length_b 5.073491
_cell_length_c 32.287501
_cell_angle_alpha 90.000000
_cell_angle_beta 90.000000
_cell_angle_gamma 90.000000
_cell_volume 831.090315
_symmetry_space_group_name_H-M "P 42 2 2"
_symmetry_group_IT_number 93
_symmetry_cell_setting 'tetragonal'
loop_
_space_group_symop_operation_xyz
x,y,z
-y,x,1/2+z
-x,-y,z
y,-x,1/2+z
x,-y,-z
-x,y,-z
y,x,1/2-z
-y,-x,1/2-z
loop_
_atom_site_type_symbol
_atom_site_label
_atom_site_fract_x
_atom_site_fract_y
_atom_site_fract_z
Si Si1 0.679425 0.259162 0.571211
Si Si2 0.500000 0.000000 0.692398
Si Si3 0.500000 0.000000 0.000000
Si Si4 0.000000 0.000000 0.136163
Si Si5 0.500000 0.500000 0.250000
O O1 0.500000 0.500000 0.585552
O O2 0.815341 0.310586 0.527136
O O3 0.909228 0.236309 0.605738
O O4 0.500000 0.000000 0.568055
O O5 0.470685 0.750943 0.721280
O O6 0.248412 0.071202 0.664457
#
# Coordination Sequence:
#
# PCOD8305610 Si02
#       5
#     8   4   2   4   2
#     4  12  29  51  76 117 159 219 272 344 402 475
#     4  12  28  50  85 113 166 192 262 319 395 496
#     4  12  30  46  82 108 172 212 296 332 418 456
#     4  12  28  52  82 118 158 210 262 332 400 482
#     4  12  28  52  80 124 150 208 248 314 408 482
#
# _framework density 24.064772999999999
#
# number of rings (size 3 to 8) (size 9 to 14) (size 15 to 20)
#    0.000    0.000    2.000    5.400    2.800   15.200 
#    0.000    0.000    0.000    0.000    0.000    0.000 
#    0.000    0.000    0.000    0.000    0.000    0.000 
#
# Total GULP energy -248005.001389 kJ/mol
# GULP energy per Si atom -12400.250069 kJ/mol
# Density = 2.401000 g / cm^3
# Si number density = 24.064773 Si / 1000 Ang^3
#
#
#
# Elastic Constant Matrix: (Units=GPa)
#
#
# Indices 1 2 3 4 5 6 
#
# 1 205.0255 87.9834 100.9688 0.0000 0.0000 0.0000
# 2 87.9834 205.0255 100.9688 0.0000 0.0000 0.0000
# 3 100.9688 100.9688 203.6516 0.0000 0.0000 0.0000
# 4 0.0000 0.0000 0.0000 152.8977 0.0000 0.0000
# 5 0.0000 0.0000 0.0000 0.0000 152.8977 0.0000
# 6 0.0000 0.0000 0.0000 0.0000 0.0000 29.8172
#
#
#
# Elastic Compliance Matrix: (Units=1/GPa)
#
#
# Indices 1 2 3 4 5 6 
#
# 1 0.006864 -0.001680 -0.002570 0.000000 0.000000 0.000000
# 2 -0.001680 0.006864 -0.002570 0.000000 0.000000 0.000000
# 3 -0.002570 -0.002570 0.007459 0.000000 0.000000 0.000000
# 4 0.000000 0.000000 0.000000 0.006540 0.000000 0.000000
# 5 0.000000 0.000000 0.000000 0.000000 0.006540 0.000000
# 6 0.000000 0.000000 0.000000 0.000000 0.000000 0.033538
#
#
# Mechanical properties :
#
#
# Convention : Reuss Voigt Hill
#
# Bulk Modulus (GPa) = 132.51500 132.61608 132.56554
# Shear Modulus (GPa) = 59.55073 88.70798 74.12935
#
# Velocity S-wave (km/s) = 4.97993 6.07801 5.55616
# Velocity P-wave (km/s) = 9.39424 10.22173 9.81671
#
# Compressibility (1/GPa) = 0.00754632
#
# Stress axis : x y z
#
# Youngs Moduli (GPa) = 145.68511 145.68511 134.06531
#
# Poissons Ratio (x) = 0.24472 0.34459
# Poissons Ratio (y) = 0.24472 0.34459
# Poissons Ratio (z) = 0.37446 0.37446
#
# Static dielectric constant tensor:
#      x y z
#    x 4.739240 0.000000 0.000000 
#    y 0.000000 4.739240 0.000000 
#    z 0.000000 0.000000 4.865680 
# 
# 
# High freq. dielectric constant tensor:
#      x y z
#    x 1.971970 0.000000 0.000000 
#    y 0.000000 1.971970 0.000000 
#    z 0.000000 0.000000 1.976610 
# 
# From -- ./inp_files/7566.got.cif
#   From: 2010.03.12/outbox.cif.g09.slc.cpg/sg93_4_cif.got.tgz:7566.got - 2010.04.08 20:44:19.
