data_PCOD8305962
_publ_section_title
;
Structure prediction by ZEFSAII (Michael W. Deem and Ramdas Pophale) SiO2 
 PCOD8305962
Probable space group: P 43 21 2
;
_chemical_formula_sum "Si O2"
_cell_formula_units_Z 40
_cell_length_a 14.471981
_cell_length_b 14.471981
_cell_length_c 8.668754
_cell_angle_alpha 90.000000
_cell_angle_beta 90.000000
_cell_angle_gamma 90.000000
_cell_volume 1815.568529
_symmetry_space_group_name_H-M "P 43 21 2"
_symmetry_group_IT_number 96
_symmetry_cell_setting 'tetragonal'
loop_
_space_group_symop_operation_xyz
x,y,z
1/2-y,1/2+x,3/4+z
-x,-y,1/2+z
1/2+y,1/2-x,1/4+z
1/2+x,1/2-y,1/4-z
1/2-x,1/2+y,3/4-z
y,x,-z
-y,-x,1/2-z
loop_
_atom_site_type_symbol
_atom_site_label
_atom_site_fract_x
_atom_site_fract_y
_atom_site_fract_z
Si Si1 0.716755 0.415425 0.824042
Si Si2 0.933986 0.067833 0.570704
Si Si3 0.776491 0.360653 0.167031
Si Si4 0.417452 0.066813 0.479040
Si Si5 0.724496 0.056257 0.496711
O O1 0.678175 0.321826 0.750000
O O2 0.652642 0.500891 0.774785
O O3 0.809812 0.439763 0.732592
O O4 0.730031 0.398598 0.008119
O O5 0.942544 0.057457 0.750000
O O6 0.830176 0.088831 0.515907
O O7 0.971493 0.971493 0.500000
O O8 0.718766 0.281235 0.250000
O O9 0.780749 0.446269 0.288291
O O10 0.880075 0.322933 0.134079
O O11 0.480891 0.054046 0.624879
O O12 0.432689 0.168019 0.405536
#
# Coordination Sequence:
#
# PCOD8305962 Si02
#       5
#     8   8   8   8   8
#     4  10  23  43  66 100 129 169 226 275 337 395
#     4  11  22  40  66  97 133 173 218 281 333 393
#     4  11  24  46  71  98 134 181 220 282 333 404
#     4  11  22  44  64  92 132 181 218 271 336 397
#     4  11  22  42  67  94 135 173 223 265 340 394
#
# _framework density 22.031665
#
# number of rings (size 3 to 8) (size 9 to 14) (size 15 to 20)
#    0.000    1.200    6.000    0.600    0.000    7.200 
#   10.800    0.000    0.000    0.000    0.000    0.000 
#    0.000    0.000    0.000    0.000    0.000    0.000 
#
# Total GULP energy -495854.386381 kJ/mol
# GULP energy per Si atom -12396.359660 kJ/mol
# Density = 2.198152 g / cm^3
# Si number density = 22.031665 Si / 1000 Ang^3
#
#
#
# Elastic Constant Matrix: (Units=GPa)
#
#
# Indices 1 2 3 4 5 6 
#
# 1 167.1231 63.0285 47.6284 0.0000 0.0000 0.0000
# 2 63.0285 167.1217 47.6289 0.0000 0.0000 0.0000
# 3 47.6284 47.6289 38.7134 0.0000 0.0000 0.0000
# 4 0.0000 0.0000 0.0000 27.0234 0.0000 0.0000
# 5 0.0000 0.0000 0.0000 0.0000 27.0220 0.0000
# 6 0.0000 0.0000 0.0000 0.0000 0.0000 35.5116
#
#
#
# Elastic Compliance Matrix: (Units=1/GPa)
#
#
# Indices 1 2 3 4 5 6 
#
# 1 0.009230 -0.000377 -0.010891 0.000000 0.000000 0.000000
# 2 -0.000377 0.009230 -0.010892 0.000000 0.000000 0.000000
# 3 -0.010891 -0.010892 0.052631 0.000000 0.000000 0.000000
# 4 0.000000 0.000000 0.000000 0.037005 0.000000 0.000000
# 5 0.000000 0.000000 0.000000 0.000000 0.037007 0.000000
# 6 0.000000 0.000000 0.000000 0.000000 0.000000 0.028160
#
#
# Mechanical properties :
#
#
# Convention : Reuss Voigt Hill
#
# Bulk Modulus (GPa) = 37.35548 76.61444 56.98496
# Shear Modulus (GPa) = 22.07449 32.22287 27.14868
#
# Velocity S-wave (km/s) = 3.16878 3.82851 3.51416
# Velocity P-wave (km/s) = 5.51184 7.37519 6.51053
#
# Compressibility (1/GPa) = 0.02676983
#
# Stress axis : x y z
#
# Youngs Moduli (GPa) = 108.34569 108.34309 19.00034
#
# Poissons Ratio (x) = 0.04083 0.20694
# Poissons Ratio (y) = 0.04083 0.20695
# Poissons Ratio (z) = 1.18004 1.18006
#
# Static dielectric constant tensor:
#      x y z
#    x 4.343390 0.000000 0.000000 
#    y 0.000000 4.343340 0.000000 
#    z 0.000000 0.000000 3.429270 
# 
# 
# High freq. dielectric constant tensor:
#      x y z
#    x 1.886690 0.000000 0.000000 
#    y 0.000000 1.886690 0.000000 
#    z 0.000000 0.000000 1.829350 
# 
# From -- ./inp_files/1274.got.cif
#   From: 2010.03.12/outbox.cif.g09.slc.cpg/sg96_1_cif.got.tgz:1274.got - 2010.04.08 20:56:49.
