data_PCOD8305280
_publ_section_title
;
Structure prediction by ZEFSAII (Michael W. Deem and Ramdas Pophale) SiO2 
 PCOD8305280
Probable space group: P 41 21 2
;
_chemical_formula_sum "Si O2"
_cell_formula_units_Z 56
_cell_length_a 15.544495
_cell_length_b 15.544495
_cell_length_c 11.076658
_cell_angle_alpha 90.000000
_cell_angle_beta 90.000000
_cell_angle_gamma 90.000000
_cell_volume 2676.467547
_symmetry_space_group_name_H-M "P 41 21 2"
_symmetry_group_IT_number 92
_symmetry_cell_setting 'tetragonal'
loop_
_space_group_symop_operation_xyz
x,y,z
1/2-y,1/2+x,1/4+z
-x,-y,1/2+z
1/2+y,1/2-x,3/4+z
1/2+x,1/2-y,3/4-z
1/2-x,1/2+y,1/4-z
y,x,-z
-y,-x,1/2-z
loop_
_atom_site_type_symbol
_atom_site_label
_atom_site_fract_x
_atom_site_fract_y
_atom_site_fract_z
Si Si1 0.495377 0.355527 0.986535
Si Si2 0.137998 0.625119 0.914487
Si Si3 0.866011 0.675418 0.564215
Si Si4 0.945801 0.302729 0.627365
Si Si5 0.705408 0.177023 0.324049
Si Si6 0.813904 0.820298 0.254499
Si Si7 0.725611 0.048974 0.524157
O O1 0.597803 0.375603 0.988234
O O2 0.469754 0.305979 0.862730
O O3 0.445483 0.445483 0.000000
O O4 0.470440 0.297236 0.102913
O O5 0.139206 0.522214 0.935727
O O6 0.130250 0.642441 0.771265
O O7 0.060475 0.671640 0.986181
O O8 0.223032 0.664058 0.974222
O O9 0.820150 0.646733 0.439912
O O10 0.826776 0.764233 0.617160
O O11 0.852025 0.596145 0.655940
O O12 0.965281 0.687353 0.537088
O O13 0.783081 0.216920 0.250000
O O14 0.649201 0.249331 0.396996
O O15 0.752864 0.111332 0.414813
#
# Coordination Sequence:
#
# PCOD8305280 Si02
#       7
#     8   8   8   8   8   8   8
#     4  10  22  37  64  96 119 149 214 275 319 359
#     4  10  21  37  56  90 123 166 210 246 310 371
#     4  10  20  39  63  88 125 159 209 252 308 377
#     4  10  21  35  58  92 121 162 205 254 307 372
#     4   9  20  39  63  82 118 172 206 240 308 385
#     4   9  20  39  64  84 120 164 210 256 320 375
#     4  10  22  39  60  97 121 163 208 255 309 380
#
# _framework density 20.923100999999999
#
# number of rings (size 3 to 8) (size 9 to 14) (size 15 to 20)
#    0.000    2.286    0.000    2.571    8.000    4.000 
#    7.714    0.714   15.714    0.000    0.000    0.000 
#    0.000    0.000    0.000    0.000    0.000    0.000 
#
# Total GULP energy -693902.945100 kJ/mol
# GULP energy per Si atom -12391.124020 kJ/mol
# Density = 2.087548 g / cm^3
# Si number density = 20.923101 Si / 1000 Ang^3
#
#
#
# Elastic Constant Matrix: (Units=GPa)
#
#
# Indices 1 2 3 4 5 6 
#
# 1 79.9089 39.1600 47.7351 0.0000 0.0000 0.0000
# 2 39.1600 79.9093 47.7349 0.0000 0.0000 0.0000
# 3 47.7351 47.7349 128.5012 0.0000 0.0000 0.0000
# 4 0.0000 0.0000 0.0000 27.0776 0.0000 0.0000
# 5 0.0000 0.0000 0.0000 0.0000 27.0776 0.0000
# 6 0.0000 0.0000 0.0000 0.0000 0.0000 20.8789
#
#
#
# Elastic Compliance Matrix: (Units=1/GPa)
#
#
# Indices 1 2 3 4 5 6 
#
# 1 0.018251 -0.006290 -0.004443 0.000000 0.000000 0.000000
# 2 -0.006290 0.018251 -0.004443 0.000000 0.000000 0.000000
# 3 -0.004443 -0.004443 0.011083 0.000000 0.000000 0.000000
# 4 0.000000 0.000000 0.000000 0.036931 0.000000 0.000000
# 5 0.000000 0.000000 0.000000 0.000000 0.036931 0.000000
# 6 0.000000 0.000000 0.000000 0.000000 0.000000 0.047895
#
#
# Mechanical properties :
#
#
# Convention : Reuss Voigt Hill
#
# Bulk Modulus (GPa) = 58.03042 61.95326 59.99184
# Shear Modulus (GPa) = 24.33822 25.25277 24.79549
#
# Velocity S-wave (km/s) = 3.41430 3.47786 3.44623
# Velocity P-wave (km/s) = 6.58321 6.76769 6.67609
#
# Compressibility (1/GPa) = 0.01723234
#
# Stress axis : x y z
#
# Youngs Moduli (GPa) = 54.79193 54.79247 90.22710
#
# Poissons Ratio (x) = 0.34463 0.40091
# Poissons Ratio (y) = 0.34462 0.40090
# Poissons Ratio (z) = 0.24346 0.24345
#
# Static dielectric constant tensor:
#      x y z
#    x 3.702690 0.000000 0.000000 
#    y 0.000000 3.702690 0.000000 
#    z 0.000000 0.000000 4.230650 
# 
# 
# High freq. dielectric constant tensor:
#      x y z
#    x 1.799600 0.000000 0.000000 
#    y 0.000000 1.799600 0.000000 
#    z 0.000000 0.000000 1.832350 
# 
# From -- ./inp_files/2285.got.cif
#   From: 2010.03.12/outbox.cif.g09.slc.cpg/sg92_2_cif.got.tgz:2285.got - 2010.04.08 20:41:11.
