data_PCOD8305372
_publ_section_title
;
Structure prediction by ZEFSAII (Michael W. Deem and Ramdas Pophale) SiO2 
 PCOD8305372
Probable space group: P 41 21 2
;
_chemical_formula_sum "Si O2"
_cell_formula_units_Z 52
_cell_length_a 19.903688
_cell_length_b 19.903688
_cell_length_c 6.367130
_cell_angle_alpha 90.000000
_cell_angle_beta 90.000000
_cell_angle_gamma 90.000000
_cell_volume 2522.381821
_symmetry_space_group_name_H-M "P 41 21 2"
_symmetry_group_IT_number 92
_symmetry_cell_setting 'tetragonal'
loop_
_space_group_symop_operation_xyz
x,y,z
1/2-y,1/2+x,1/4+z
-x,-y,1/2+z
1/2+y,1/2-x,3/4+z
1/2+x,1/2-y,3/4-z
1/2-x,1/2+y,1/4-z
y,x,-z
-y,-x,1/2-z
loop_
_atom_site_type_symbol
_atom_site_label
_atom_site_fract_x
_atom_site_fract_y
_atom_site_fract_z
Si Si1 0.943970 0.851183 0.880006
Si Si2 0.747746 0.900958 0.798494
Si Si3 0.608767 0.830299 0.731836
Si Si4 0.642455 0.357546 0.750000
Si Si5 0.211761 0.463937 0.163620
Si Si6 0.414737 0.303360 0.477512
Si Si7 0.905657 0.517420 0.962043
O O1 0.924867 0.856949 0.637090
O O2 0.024225 0.843922 0.882431
O O3 0.918875 0.918875 0.000000
O O4 0.906399 0.785430 0.977279
O O5 0.679015 0.861240 0.803217
O O6 0.792230 0.856754 0.642998
O O7 0.740118 0.978132 0.733248
O O8 0.593190 0.824335 0.482031
O O9 0.605995 0.756224 0.824102
O O10 0.556535 0.882729 0.830713
O O11 0.273105 0.432008 0.293701
O O12 0.159980 0.499512 0.324618
O O13 0.352501 0.352501 0.500000
O O14 0.951775 0.558525 0.799972
#
# Coordination Sequence:
#
# PCOD8305372 Si02
#       7
#     8   8   8   4   8   8   8
#     4  10  22  44  67  96 129 174 223 278 335 410
#     4  11  22  39  70  92 131 173 224 266 331 396
#     4  11  25  42  65  97 136 181 218 276 338 402
#     4  10  22  40  70  96 124 170 222 270 324 402
#     4  11  23  43  65  94 136 181 218 278 341 391
#     4  11  25  45  67  99 139 174 224 291 350 409
#     4  11  26  39  62  96 135 176 231 271 324 393
#
# _framework density 20.615435999999999
#
# number of rings (size 3 to 8) (size 9 to 14) (size 15 to 20)
#    0.000    1.231    3.077    1.846    6.462    6.154 
#    1.385    0.000    0.000    0.000    0.000    0.000 
#    0.000    0.000    0.000    0.000    0.000    0.000 
#
# Total GULP energy -644704.423950 kJ/mol
# GULP energy per Si atom -12398.161999 kJ/mol
# Density = 2.056851 g / cm^3
# Si number density = 20.615436 Si / 1000 Ang^3
#
#
#
# Elastic Constant Matrix: (Units=GPa)
#
#
# Indices 1 2 3 4 5 6 
#
# 1 51.7774 83.6794 34.5607 0.0000 0.0000 0.0000
# 2 83.6794 51.7771 34.5609 0.0000 0.0000 0.0000
# 3 34.5607 34.5609 103.2600 0.0000 0.0000 0.0000
# 4 0.0000 0.0000 0.0000 24.6860 0.0000 0.0000
# 5 0.0000 0.0000 0.0000 0.0000 24.6856 0.0000
# 6 0.0000 0.0000 0.0000 0.0000 0.0000 23.1364
#
#
#
# Elastic Compliance Matrix: (Units=1/GPa)
#
#
# Indices 1 2 3 4 5 6 
#
# 1 -0.011221 0.020124 -0.002980 0.000000 0.000000 0.000000
# 2 0.020124 -0.011222 -0.002980 0.000000 0.000000 0.000000
# 3 -0.002980 -0.002980 0.011679 0.000000 0.000000 0.000000
# 4 0.000000 0.000000 0.000000 0.040509 0.000000 0.000000
# 5 0.000000 0.000000 0.000000 0.000000 0.040509 0.000000
# 6 0.000000 0.000000 0.000000 0.000000 0.000000 0.043222
#
#
# Mechanical properties :
#
#
# Convention : Reuss Voigt Hill
#
# Bulk Modulus (GPa) = 56.92905 56.93515 56.93210
# Shear Modulus (GPa) = 54.94406 18.10252 36.52329
#
# Velocity S-wave (km/s) = 5.16815 2.96650 4.21366
# Velocity P-wave (km/s) = 7.95536 6.27783 7.16585
#
# Compressibility (1/GPa) = 0.01756572
#
# Stress axis : x y z
#
# Youngs Moduli (GPa) = -89.11559 -89.11456 85.62413
#
# Poissons Ratio (x) = 1.79338 0.25515
# Poissons Ratio (y) = 1.79340 0.25514
# Poissons Ratio (z) = -0.26555 -0.26554
#
# Static dielectric constant tensor:
#      x y z
#    x 3.717130 0.000000 0.000000 
#    y 0.000000 3.717130 0.000000 
#    z 0.000000 0.000000 3.981410 
# 
# 
# High freq. dielectric constant tensor:
#      x y z
#    x 1.803750 0.000000 0.000000 
#    y 0.000000 1.803750 0.000000 
#    z 0.000000 0.000000 1.819440 
# 
# From -- ./inp_files/712.got.cif
#   From: 2010.03.12/outbox.cif.g09.slc.cpg/sg92_1_cif.got.tgz:712.got - 2010.04.08 20:41:11.
