data_PCOD8305929
_publ_section_title
;
Structure prediction by ZEFSAII (Michael W. Deem and Ramdas Pophale) SiO2 
 PCOD8305929
Probable space group: P 43 21 2
;
_chemical_formula_sum "Si O2"
_cell_formula_units_Z 56
_cell_length_a 12.099176
_cell_length_b 12.099176
_cell_length_c 18.081370
_cell_angle_alpha 90.000000
_cell_angle_beta 90.000000
_cell_angle_gamma 90.000000
_cell_volume 2646.932837
_symmetry_space_group_name_H-M "P 43 21 2"
_symmetry_group_IT_number 96
_symmetry_cell_setting 'tetragonal'
loop_
_space_group_symop_operation_xyz
x,y,z
1/2-y,1/2+x,3/4+z
-x,-y,1/2+z
1/2+y,1/2-x,1/4+z
1/2+x,1/2-y,1/4-z
1/2-x,1/2+y,3/4-z
y,x,-z
-y,-x,1/2-z
loop_
_atom_site_type_symbol
_atom_site_label
_atom_site_fract_x
_atom_site_fract_y
_atom_site_fract_z
Si Si1 0.241374 0.793239 0.910685
Si Si2 0.311780 0.827750 0.438288
Si Si3 0.801189 0.124582 0.674543
Si Si4 0.131147 0.501455 0.791361
Si Si5 0.058302 0.391497 0.514851
Si Si6 0.296394 0.973110 0.631992
Si Si7 0.424307 0.687945 0.816181
O O1 0.298281 0.912403 0.911788
O O2 0.115941 0.802310 0.878061
O O3 0.312727 0.705800 0.863323
O O4 0.225476 0.752605 0.993987
O O5 0.240405 0.816619 0.365361
O O6 0.430970 0.762950 0.439605
O O7 0.341648 0.957263 0.438439
O O8 0.873981 0.126020 0.750000
O O9 0.671933 0.124690 0.692324
O O10 0.844024 0.023911 0.622123
O O11 0.101068 0.597600 0.848294
O O12 0.196829 0.546899 0.721517
O O13 0.023071 0.449740 0.754102
O O14 0.049875 0.327250 0.437851
O O15 0.402639 0.597362 0.750000
#
# Coordination Sequence:
#
# PCOD8305929 Si02
#       7
#     8   8   8   8   8   8   8
#     4  11  22  41  67  97 135 177 232 293 351 421
#     4  10  23  40  65 103 140 175 233 296 363 419
#     4  12  24  43  72 102 143 190 242 293 365 448
#     4  11  21  39  70  94 133 177 235 283 345 425
#     4  10  22  38  68 101 130 177 237 292 342 427
#     4  10  21  41  64  99 131 173 229 295 349 414
#     4  12  25  44  67 104 143 189 238 299 365 436
#
# _framework density 21.156562999999998
#
# number of rings (size 3 to 8) (size 9 to 14) (size 15 to 20)
#    0.000    1.143    5.714    0.857    2.000    1.143 
#    0.000    3.571    0.000    0.000    0.000    0.000 
#    0.000    0.000    0.000    0.000    0.000    0.000 
#
# Total GULP energy -693932.771228 kJ/mol
# GULP energy per Si atom -12391.656629 kJ/mol
# Density = 2.110841 g / cm^3
# Si number density = 21.156563 Si / 1000 Ang^3
#
#
#
# Elastic Constant Matrix: (Units=GPa)
#
#
# Indices 1 2 3 4 5 6 
#
# 1 89.9903 34.8985 39.1706 0.0000 0.0000 0.0000
# 2 34.8985 89.9908 39.1708 0.0000 0.0000 0.0000
# 3 39.1706 39.1708 94.1415 0.0000 0.0000 0.0000
# 4 0.0000 0.0000 0.0000 32.6350 0.0000 0.0000
# 5 0.0000 0.0000 0.0000 0.0000 32.6349 0.0000
# 6 0.0000 0.0000 0.0000 0.0000 0.0000 31.7524
#
#
#
# Elastic Compliance Matrix: (Units=1/GPa)
#
#
# Indices 1 2 3 4 5 6 
#
# 1 0.014493 -0.003658 -0.004508 0.000000 0.000000 0.000000
# 2 -0.003658 0.014493 -0.004508 0.000000 0.000000 0.000000
# 3 -0.004508 -0.004508 0.014374 0.000000 0.000000 0.000000
# 4 0.000000 0.000000 0.000000 0.030642 0.000000 0.000000
# 5 0.000000 0.000000 0.000000 0.000000 0.030642 0.000000
# 6 0.000000 0.000000 0.000000 0.000000 0.000000 0.031494
#
#
# Mechanical properties :
#
#
# Convention : Reuss Voigt Hill
#
# Bulk Modulus (GPa) = 55.52171 55.62246 55.57209
# Shear Modulus (GPa) = 29.85228 30.12998 29.99113
#
# Velocity S-wave (km/s) = 3.76043 3.77788 3.76916
# Velocity P-wave (km/s) = 6.71972 6.73630 6.72802
#
# Compressibility (1/GPa) = 0.01801097
#
# Stress axis : x y z
#
# Youngs Moduli (GPa) = 68.99736 68.99769 69.57016
#
# Poissons Ratio (x) = 0.25240 0.31364
# Poissons Ratio (y) = 0.25240 0.31364
# Poissons Ratio (z) = 0.31106 0.31106
#
# Static dielectric constant tensor:
#      x y z
#    x 3.895320 0.000000 0.000000 
#    y 0.000000 3.895320 0.000000 
#    z 0.000000 0.000000 4.022900 
# 
# 
# High freq. dielectric constant tensor:
#      x y z
#    x 1.824320 0.000000 0.000000 
#    y 0.000000 1.824320 0.000000 
#    z 0.000000 0.000000 1.840270 
# 
# From -- ./inp_files/3566.got.cif
#   From: 2010.03.12/outbox.cif.g09.slc.cpg/sg96_2_cif.got.tgz:3566.got - 2010.04.08 20:56:49.
