data_PCOD8305252
_publ_section_title
;
Structure prediction by ZEFSAII (Michael W. Deem and Ramdas Pophale) SiO2 
 PCOD8305252
Probable space group: P 41 21 2
;
_chemical_formula_sum "Si O2"
_cell_formula_units_Z 48
_cell_length_a 9.335354
_cell_length_b 9.335354
_cell_length_c 30.134408
_cell_angle_alpha 90.000000
_cell_angle_beta 90.000000
_cell_angle_gamma 90.000000
_cell_volume 2626.178530
_symmetry_space_group_name_H-M "P 41 21 2"
_symmetry_group_IT_number 92
_symmetry_cell_setting 'tetragonal'
loop_
_space_group_symop_operation_xyz
x,y,z
1/2-y,1/2+x,1/4+z
-x,-y,1/2+z
1/2+y,1/2-x,3/4+z
1/2+x,1/2-y,3/4-z
1/2-x,1/2+y,1/4-z
y,x,-z
-y,-x,1/2-z
loop_
_atom_site_type_symbol
_atom_site_label
_atom_site_fract_x
_atom_site_fract_y
_atom_site_fract_z
Si Si1 0.424238 0.093526 0.003186
Si Si2 0.110376 0.577163 0.575480
Si Si3 0.908736 0.102076 0.322279
Si Si4 0.903295 0.903295 0.500000
Si Si5 0.603965 0.923205 0.073235
Si Si6 0.928633 0.071368 0.750000
Si Si7 0.593843 0.612967 0.826574
O O1 0.258992 0.068608 0.012736
O O2 0.498618 0.014606 0.043549
O O3 0.463746 0.260496 0.002641
O O4 0.465252 0.022366 0.956023
O O5 0.240917 0.472956 0.563531
O O6 0.056549 0.555808 0.625735
O O7 0.161737 0.741575 0.568786
O O8 0.742309 0.102571 0.308409
O O9 0.927319 0.056896 0.373413
O O10 0.992723 0.985774 0.293643
O O11 0.988181 0.952152 0.543437
O O12 0.761239 0.984637 0.066092
#
# Coordination Sequence:
#
# PCOD8305252 Si02
#       7
#     8   8   8   4   8   4   8
#     4  10  21  36  53  75 105 139 174 212 257 308
#     4   9  19  37  56  76 105 137 172 215 260 308
#     4  10  20  35  55  79 106 136 173 215 261 311
#     4   9  20  37  54  74 104 139 174 213 256 308
#     4  10  20  34  55  80 104 134 172 215 261 308
#     4  11  22  35  52  76 106 139 174 213 256 306
#     4   9  19  36  56  78 105 137 173 216 261 307
#
# _framework density 18.277508000000001
#
# number of rings (size 3 to 8) (size 9 to 14) (size 15 to 20)
#    0.000    2.333    0.000    2.000    0.000    6.000 
#    0.000    0.000    0.000    0.000    0.000    0.000 
#    0.000    0.000    0.000    0.000    0.000    0.000 
#
# Total GULP energy -595259.652500 kJ/mol
# GULP energy per Si atom -12401.242760 kJ/mol
# Density = 1.823591 g / cm^3
# Si number density = 18.277508 Si / 1000 Ang^3
#
#
#
# Elastic Constant Matrix: (Units=GPa)
#
#
# Indices 1 2 3 4 5 6 
#
# 1 122.7377 68.9305 82.5988 0.0000 0.0000 0.0000
# 2 68.9305 122.7384 82.5991 0.0000 0.0000 0.0000
# 3 82.5988 82.5991 130.9054 0.0000 0.0000 0.0000
# 4 0.0000 0.0000 0.0000 33.9859 0.0000 0.0000
# 5 0.0000 0.0000 0.0000 0.0000 33.9862 0.0000
# 6 0.0000 0.0000 0.0000 0.0000 0.0000 31.5604
#
#
#
# Elastic Compliance Matrix: (Units=1/GPa)
#
#
# Indices 1 2 3 4 5 6 
#
# 1 0.015011 -0.003574 -0.007217 0.000000 0.000000 0.000000
# 2 -0.003574 0.015011 -0.007217 0.000000 0.000000 0.000000
# 3 -0.007217 -0.007217 0.016747 0.000000 0.000000 0.000000
# 4 0.000000 0.000000 0.000000 0.029424 0.000000 0.000000
# 5 0.000000 0.000000 0.000000 0.000000 0.029424 0.000000
# 6 0.000000 0.000000 0.000000 0.000000 0.000000 0.031685
#
#
# Mechanical properties :
#
#
# Convention : Reuss Voigt Hill
#
# Bulk Modulus (GPa) = 92.98784 93.84869 93.41827
# Shear Modulus (GPa) = 28.26441 29.39007 28.82724
#
# Velocity S-wave (km/s) = 3.93670 4.01433 3.97570
# Velocity P-wave (km/s) = 8.46460 8.54075 8.50276
#
# Compressibility (1/GPa) = 0.01075409
#
# Stress axis : x y z
#
# Youngs Moduli (GPa) = 66.61710 66.61747 59.71392
#
# Poissons Ratio (x) = 0.23807 0.43095
# Poissons Ratio (y) = 0.23806 0.43095
# Poissons Ratio (z) = 0.48077 0.48077
#
# Static dielectric constant tensor:
#      x y z
#    x 3.517330 0.000000 0.000000 
#    y 0.000000 3.517330 0.000000 
#    z 0.000000 0.000000 3.502200 
# 
# 
# High freq. dielectric constant tensor:
#      x y z
#    x 1.708950 0.000000 0.000000 
#    y 0.000000 1.708950 0.000000 
#    z 0.000000 0.000000 1.720860 
# 
# From -- ./inp_files/4550.got.cif
#   From: 2010.03.12/outbox.cif.g09.slc.cpg/sg92_3_cif.got.tgz:4550.got - 2010.04.08 20:41:11.
