data_PCOD8305592
_publ_section_title
;
Structure prediction by ZEFSAII (Michael W. Deem and Ramdas Pophale) SiO2 
 PCOD8305592
Probable space group: P 42 2 2
;
_chemical_formula_sum "Si O2"
_cell_formula_units_Z 40
_cell_length_a 17.989353
_cell_length_b 17.989353
_cell_length_c 5.788239
_cell_angle_alpha 90.000000
_cell_angle_beta 90.000000
_cell_angle_gamma 90.000000
_cell_volume 1873.171506
_symmetry_space_group_name_H-M "P 42 2 2"
_symmetry_group_IT_number 93
_symmetry_cell_setting 'tetragonal'
loop_
_space_group_symop_operation_xyz
x,y,z
-y,x,1/2+z
-x,-y,z
y,-x,1/2+z
x,-y,-z
-x,y,-z
y,x,1/2-z
-y,-x,1/2-z
loop_
_atom_site_type_symbol
_atom_site_label
_atom_site_fract_x
_atom_site_fract_y
_atom_site_fract_z
Si Si1 0.186696 0.077261 0.375119
Si Si2 0.288958 0.180069 0.670366
Si Si3 0.819233 0.572931 0.134537
Si Si4 0.331843 0.923246 0.919199
Si Si5 0.460642 0.660477 0.756392
O O1 0.114623 0.114623 0.250000
O O2 0.220613 0.137596 0.548640
O O3 0.253500 0.058178 0.202270
O O4 0.161661 0.000000 0.500000
O O5 0.258919 0.258919 0.750000
O O6 0.358462 0.205183 0.522085
O O7 0.319067 0.132305 0.876394
O O8 0.890955 0.601849 0.267832
O O9 0.748004 0.554719 0.292007
O O10 0.845822 0.500000 0.000000
O O11 0.366557 0.000000 0.000000
O O12 0.500000 0.648743 0.500000
O O13 0.384550 0.615451 0.750000
O O14 0.500000 0.634970 0.000000
#
# Coordination Sequence:
#
# PCOD8305592 Si02
#       5
#     8   8   8   8   8
#     4  11  22  40  67 104 136 174 232 290 354 429
#     4  11  23  40  72 101 129 181 235 285 348 423
#     4  10  27  43  65 101 140 175 231 293 348 422
#     4  11  23  42  72  94 134 181 229 292 345 422
#     4  11  26  46  73 105 144 188 237 297 361 431
#
# _framework density 21.354157000000001
#
# number of rings (size 3 to 8) (size 9 to 14) (size 15 to 20)
#    0.000    1.200    4.000    0.600    8.400    1.200 
#    0.000    3.000    0.000   10.800    0.000    0.000 
#    0.000    0.000    0.000    0.000    0.000    0.000 
#
# Total GULP energy -495591.474186 kJ/mol
# GULP energy per Si atom -12389.786855 kJ/mol
# Density = 2.130555 g / cm^3
# Si number density = 21.354157 Si / 1000 Ang^3
#
#
#
# Elastic Constant Matrix: (Units=GPa)
#
#
# Indices 1 2 3 4 5 6 
#
# 1 74.4044 92.0945 33.1145 0.0000 0.0000 0.0000
# 2 92.0945 74.4024 33.1138 0.0000 0.0000 0.0000
# 3 33.1145 33.1138 101.9536 0.0000 0.0000 0.0000
# 4 0.0000 0.0000 0.0000 116.6804 0.0000 0.0000
# 5 0.0000 0.0000 0.0000 0.0000 116.6972 0.0000
# 6 0.0000 0.0000 0.0000 0.0000 0.0000 47.5548
#
#
#
# Elastic Compliance Matrix: (Units=1/GPa)
#
#
# Indices 1 2 3 4 5 6 
#
# 1 -0.024814 0.031711 -0.002240 0.000000 0.000000 0.000000
# 2 0.031711 -0.024815 -0.002240 0.000000 0.000000 0.000000
# 3 -0.002240 -0.002240 0.011264 0.000000 0.000000 0.000000
# 4 0.000000 0.000000 0.000000 0.008570 0.000000 0.000000
# 5 0.000000 0.000000 0.000000 0.000000 0.008569 0.000000
# 6 0.000000 0.000000 0.000000 0.000000 0.000000 0.021028
#
#
# Mechanical properties :
#
#
# Convention : Reuss Voigt Hill
#
# Bulk Modulus (GPa) = 62.12256 63.04513 62.58385
# Shear Modulus (GPa) = -101.43300 62.34901 -19.54200
#
# Velocity S-wave (km/s) = -6.89953 5.40934 -3.02841
# Velocity P-wave (km/s) = 5.85804 8.28265 4.14039
#
# Compressibility (1/GPa) = 0.01609721
#
# Stress axis : x y z
#
# Youngs Moduli (GPa) = -40.29981 -40.29881 88.78168
#
# Poissons Ratio (x) = 1.27794 0.19888
# Poissons Ratio (y) = 1.27797 0.19889
# Poissons Ratio (z) = -0.09027 -0.09028
#
# Static dielectric constant tensor:
#      x y z
#    x 3.828360 0.000000 0.000000 
#    y 0.000000 3.828360 0.000000 
#    z 0.000000 0.000000 4.122490 
# 
# 
# High freq. dielectric constant tensor:
#      x y z
#    x 1.839910 0.000000 0.000000 
#    y 0.000000 1.839910 0.000000 
#    z 0.000000 0.000000 1.849960 
# 
# From -- ./inp_files/478.got.cif
#   From: 2010.03.12/outbox.cif.g09.slc.cpg/sg93_1_cif.got.tgz:478.got - 2010.04.08 20:44:19.
