data_PCOD8305325
_publ_section_title
;
Structure prediction by ZEFSAII (Michael W. Deem and Ramdas Pophale) SiO2 
 PCOD8305325
Probable space group: P 41 21 2
;
_chemical_formula_sum "Si O2"
_cell_formula_units_Z 40
_cell_length_a 11.800971
_cell_length_b 11.800971
_cell_length_c 13.990652
_cell_angle_alpha 90.000000
_cell_angle_beta 90.000000
_cell_angle_gamma 90.000000
_cell_volume 1948.379002
_symmetry_space_group_name_H-M "P 41 21 2"
_symmetry_group_IT_number 92
_symmetry_cell_setting 'tetragonal'
loop_
_space_group_symop_operation_xyz
x,y,z
1/2-y,1/2+x,1/4+z
-x,-y,1/2+z
1/2+y,1/2-x,3/4+z
1/2+x,1/2-y,3/4-z
1/2-x,1/2+y,1/4-z
y,x,-z
-y,-x,1/2-z
loop_
_atom_site_type_symbol
_atom_site_label
_atom_site_fract_x
_atom_site_fract_y
_atom_site_fract_z
Si Si1 0.301820 0.878750 0.004873
Si Si2 0.744097 0.087124 0.014031
Si Si3 0.785545 0.470418 0.424199
Si Si4 0.798340 0.866047 0.101638
Si Si5 0.141627 0.321959 0.039258
O O1 0.171774 0.842868 0.018907
O O2 0.367569 0.825652 0.096009
O O3 0.344598 0.819186 0.907748
O O4 0.314180 0.014469 0.001858
O O5 0.682586 0.036853 0.921308
O O6 0.640580 0.136836 0.073396
O O7 0.807938 0.998121 0.080350
O O8 0.661165 0.411855 0.414379
O O9 0.798594 0.558312 0.510901
O O10 0.797576 0.797576 0.000000
O O11 0.216678 0.216678 0.000000
#
# Coordination Sequence:
#
# PCOD8305325 Si02
#       5
#     8   8   8   8   8
#     4  11  26  43  67 104 138 175 238 280 341 418
#     4  10  21  42  66  97 131 176 223 283 339 403
#     4  10  21  40  65  92 136 169 222 279 337 400
#     4   9  22  42  71  99 131 178 227 277 345 406
#     4  12  26  44  67  99 140 184 227 281 347 411
#
# _framework density 20.529886000000001
#
# number of rings (size 3 to 8) (size 9 to 14) (size 15 to 20)
#    0.000    1.600    2.000    1.200    8.400    5.600 
#    0.000    0.000    0.000    0.000    0.000    0.000 
#    0.000    0.000    0.000    0.000    0.000    0.000 
#
# Total GULP energy -495662.484065 kJ/mol
# GULP energy per Si atom -12391.562102 kJ/mol
# Density = 2.048316 g / cm^3
# Si number density = 20.529886 Si / 1000 Ang^3
#
#
#
# Elastic Constant Matrix: (Units=GPa)
#
#
# Indices 1 2 3 4 5 6 
#
# 1 93.6757 46.7451 38.9088 0.0000 0.0000 0.0000
# 2 46.7451 93.6757 38.9088 0.0000 0.0000 0.0000
# 3 38.9088 38.9088 98.0881 0.0000 0.0000 0.0000
# 4 0.0000 0.0000 0.0000 35.6616 0.0000 0.0000
# 5 0.0000 0.0000 0.0000 0.0000 35.6616 0.0000
# 6 0.0000 0.0000 0.0000 0.0000 0.0000 14.7196
#
#
#
# Elastic Compliance Matrix: (Units=1/GPa)
#
#
# Indices 1 2 3 4 5 6 
#
# 1 0.015218 -0.006090 -0.003621 0.000000 0.000000 0.000000
# 2 -0.006090 0.015218 -0.003621 0.000000 0.000000 0.000000
# 3 -0.003621 -0.003621 0.013067 0.000000 0.000000 0.000000
# 4 0.000000 0.000000 0.000000 0.028041 0.000000 0.000000
# 5 0.000000 0.000000 0.000000 0.000000 0.028041 0.000000
# 6 0.000000 0.000000 0.000000 0.000000 0.000000 0.067937
#
#
# Mechanical properties :
#
#
# Convention : Reuss Voigt Hill
#
# Bulk Modulus (GPa) = 59.38173 59.39613 59.38893
# Shear Modulus (GPa) = 25.02507 27.93369 26.47938
#
# Velocity S-wave (km/s) = 3.49515 3.69268 3.59527
# Velocity P-wave (km/s) = 6.72870 6.86845 6.79893
#
# Compressibility (1/GPa) = 0.01684020
#
# Stress axis : x y z
#
# Youngs Moduli (GPa) = 65.71146 65.71146 76.52583
#
# Poissons Ratio (x) = 0.40018 0.27709
# Poissons Ratio (y) = 0.40018 0.27709
# Poissons Ratio (z) = 0.23793 0.23793
#
# Static dielectric constant tensor:
#      x y z
#    x 3.795700 0.000000 0.000000 
#    y 0.000000 3.795700 0.000000 
#    z 0.000000 0.000000 3.908360 
# 
# 
# High freq. dielectric constant tensor:
#      x y z
#    x 1.799920 0.000000 0.000000 
#    y 0.000000 1.799920 0.000000 
#    z 0.000000 0.000000 1.812130 
# 
# From -- ./inp_files/2605.got.cif
#   From: 2010.03.12/outbox.cif.g09.slc.cpg/sg92_2_cif.got.tgz:2605.got - 2010.04.08 20:41:11.
