data_PCOD8305194
_publ_section_title
;
Structure prediction by ZEFSAII (Michael W. Deem and Ramdas Pophale) SiO2 
 PCOD8305194
Probable space group: P 41 21 2
;
_chemical_formula_sum "Si O2"
_cell_formula_units_Z 56
_cell_length_a 13.799832
_cell_length_b 13.799832
_cell_length_c 16.081340
_cell_angle_alpha 90.000000
_cell_angle_beta 90.000000
_cell_angle_gamma 90.000000
_cell_volume 3062.455824
_symmetry_space_group_name_H-M "P 41 21 2"
_symmetry_group_IT_number 92
_symmetry_cell_setting 'tetragonal'
loop_
_space_group_symop_operation_xyz
x,y,z
1/2-y,1/2+x,1/4+z
-x,-y,1/2+z
1/2+y,1/2-x,3/4+z
1/2+x,1/2-y,3/4-z
1/2-x,1/2+y,1/4-z
y,x,-z
-y,-x,1/2-z
loop_
_atom_site_type_symbol
_atom_site_label
_atom_site_fract_x
_atom_site_fract_y
_atom_site_fract_z
Si Si1 0.395825 0.001594 0.182887
Si Si2 0.445095 0.169135 0.484724
Si Si3 0.459845 0.368573 0.425093
Si Si4 0.256416 0.828334 0.884157
Si Si5 0.538630 0.158324 0.114546
Si Si6 0.870717 0.546552 0.742311
Si Si7 0.369833 0.658851 0.655736
O O1 0.454668 0.097863 0.158474
O O2 0.337156 0.031857 0.264642
O O3 0.453728 0.901586 0.202782
O O4 0.331248 0.978730 0.100614
O O5 0.498461 0.269388 0.465284
O O6 0.362692 0.183391 0.553782
O O7 0.525095 0.097508 0.520642
O O8 0.393833 0.135901 0.398833
O O9 0.445000 0.445000 0.500000
O O10 0.358682 0.346706 0.377041
O O11 0.549180 0.402132 0.367774
O O12 0.288323 0.890684 0.963989
O O13 0.290559 0.717375 0.897667
O O14 0.537267 0.270917 0.142812
O O15 0.338271 0.661730 0.750000
#
# Coordination Sequence:
#
# PCOD8305194 Si02
#       7
#     8   8   8   8   8   8   8
#     4   9  20  32  51  83 114 148 183 229 293 340
#     4  10  17  30  52  79 116 138 174 231 291 346
#     4  10  22  36  50  79 111 145 186 232 279 349
#     4  11  19  33  53  84 113 139 189 238 289 351
#     4  10  20  32  51  83 117 144 183 232 290 355
#     4  10  17  30  53  80 113 148 178 233 288 336
#     4  12  22  33  56  82 111 152 185 234 303 345
#
# _framework density 18.285976999999999
#
# number of rings (size 3 to 8) (size 9 to 14) (size 15 to 20)
#    0.000    1.714    5.714    0.429    4.000    0.000 
#    0.000    1.429    0.000    0.000    0.000    7.000 
#    0.000    0.000    0.000    0.000    0.000    0.000 
#
# Total GULP energy -693732.409084 kJ/mol
# GULP energy per Si atom -12388.078734 kJ/mol
# Density = 1.824436 g / cm^3
# Si number density = 18.285977 Si / 1000 Ang^3
#
#
#
# Elastic Constant Matrix: (Units=GPa)
#
#
# Indices 1 2 3 4 5 6 
#
# 1 60.9534 19.8293 31.8619 0.0000 0.0000 0.0000
# 2 19.8293 60.9532 31.8618 0.0000 0.0000 0.0000
# 3 31.8619 31.8618 122.0426 0.0000 0.0000 0.0000
# 4 0.0000 0.0000 0.0000 25.2121 0.0000 0.0000
# 5 0.0000 0.0000 0.0000 0.0000 25.2121 0.0000
# 6 0.0000 0.0000 0.0000 0.0000 0.0000 17.0394
#
#
#
# Elastic Compliance Matrix: (Units=1/GPa)
#
#
# Indices 1 2 3 4 5 6 
#
# 1 0.019953 -0.004364 -0.004070 0.000000 0.000000 0.000000
# 2 -0.004364 0.019953 -0.004070 0.000000 0.000000 0.000000
# 3 -0.004070 -0.004070 0.010319 0.000000 0.000000 0.000000
# 4 0.000000 0.000000 0.000000 0.039664 0.000000 0.000000
# 5 0.000000 0.000000 0.000000 0.000000 0.039664 0.000000
# 6 0.000000 0.000000 0.000000 0.000000 0.000000 0.058688
#
#
# Mechanical properties :
#
#
# Convention : Reuss Voigt Hill
#
# Bulk Modulus (GPa) = 39.65427 45.67281 42.66354
# Shear Modulus (GPa) = 22.55780 24.18578 23.37179
#
# Velocity S-wave (km/s) = 3.51609 3.64076 3.57897
# Velocity P-wave (km/s) = 6.18195 6.53488 6.36087
#
# Compressibility (1/GPa) = 0.02521797
#
# Stress axis : x y z
#
# Youngs Moduli (GPa) = 50.11768 50.11761 96.90900
#
# Poissons Ratio (x) = 0.21870 0.39442
# Poissons Ratio (y) = 0.21870 0.39441
# Poissons Ratio (z) = 0.20398 0.20398
#
# Static dielectric constant tensor:
#      x y z
#    x 3.199110 0.000000 0.000000 
#    y 0.000000 3.199110 0.000000 
#    z 0.000000 0.000000 3.461970 
# 
# 
# High freq. dielectric constant tensor:
#      x y z
#    x 1.682450 0.000000 0.000000 
#    y 0.000000 1.682450 0.000000 
#    z 0.000000 0.000000 1.708730 
# 
# From -- ./inp_files/2764.got.cif
#   From: 2010.03.12/outbox.cif.g09.slc.cpg/sg92_2_cif.got.tgz:2764.got - 2010.04.08 20:41:11.
