data_PCOD8305244
_publ_section_title
;
Structure prediction by ZEFSAII (Michael W. Deem and Ramdas Pophale) SiO2 
 PCOD8305244
Probable space group: P 41 21 2
;
_chemical_formula_sum "Si O2"
_cell_formula_units_Z 64
_cell_length_a 28.877247
_cell_length_b 28.877247
_cell_length_c 5.255120
_cell_angle_alpha 90.000000
_cell_angle_beta 90.000000
_cell_angle_gamma 90.000000
_cell_volume 4382.220364
_symmetry_space_group_name_H-M "P 41 21 2"
_symmetry_group_IT_number 92
_symmetry_cell_setting 'tetragonal'
loop_
_space_group_symop_operation_xyz
x,y,z
1/2-y,1/2+x,1/4+z
-x,-y,1/2+z
1/2+y,1/2-x,3/4+z
1/2+x,1/2-y,3/4-z
1/2-x,1/2+y,1/4-z
y,x,-z
-y,-x,1/2-z
loop_
_atom_site_type_symbol
_atom_site_label
_atom_site_fract_x
_atom_site_fract_y
_atom_site_fract_z
Si Si1 0.003747 0.633311 0.990157
Si Si2 0.331330 0.183869 0.993314
Si Si3 0.328663 0.034884 0.035020
Si Si4 0.045496 0.448120 0.328787
Si Si5 0.357539 0.716522 0.747326
Si Si6 0.610255 0.095943 0.806092
Si Si7 0.253184 0.105925 0.996368
Si Si8 0.705413 0.779481 0.995240
O O1 0.988927 0.657461 0.728677
O O2 0.969869 0.588714 0.047504
O O3 0.000863 0.668918 0.227963
O O4 0.057335 0.615613 0.968006
O O5 0.327372 0.215466 0.741770
O O6 0.381893 0.160330 0.996351
O O7 0.291788 0.145315 0.987193
O O8 0.325549 0.215922 0.242051
O O9 0.362641 0.075943 0.126339
O O10 0.277227 0.055455 0.004372
O O11 0.054585 0.500670 0.396564
O O12 0.091726 0.431284 0.189839
O O13 0.333882 0.666119 0.750000
O O14 0.388519 0.721021 0.494171
O O15 0.318651 0.755679 0.748426
O O16 0.390290 0.721650 0.994258
O O17 0.729095 0.729095 0.000000
#
# Coordination Sequence:
#
# PCOD8305244 Si02
#       8
#     8   8   8   8   8   8   8   8
#     4  11  21  33  45  57  71  92 122 159 196 238
#     4   9  18  27  41  58  75  95 113 138 176 214
#     4  10  21  32  44  56  71  95 120 148 191 231
#     4  11  21  33  47  60  74  96 128 167 213 253
#     4   9  15  23  38  57  75  93 111 133 162 199
#     4  10  20  32  44  59  76  93 120 158 196 236
#     4   9  16  27  38  53  74  93 114 138 166 214
#     4   9  16  27  41  58  77  95 113 131 158 209
#
# _framework density 14.604469999999999
#
# number of rings (size 3 to 8) (size 9 to 14) (size 15 to 20)
#    0.000    2.250    0.000    4.500    0.000   12.000 
#    0.000    0.000    0.000    0.000    0.000    0.000 
#    0.000    0.000    0.000    0.000    0.000    0.000 
#
# Total GULP energy -793262.948668 kJ/mol
# GULP energy per Si atom -12394.733573 kJ/mol
# Density = 1.457123 g / cm^3
# Si number density = 14.604470 Si / 1000 Ang^3
#
#
#
# Elastic Constant Matrix: (Units=GPa)
#
#
# Indices 1 2 3 4 5 6 
#
# 1 29.4973 24.6121 22.3349 0.0000 0.0000 0.0000
# 2 24.6121 29.4977 22.3353 0.0000 0.0000 0.0000
# 3 22.3349 22.3353 105.5869 0.0000 0.0000 0.0000
# 4 0.0000 0.0000 0.0000 17.3447 0.0000 0.0000
# 5 0.0000 0.0000 0.0000 0.0000 17.3447 0.0000
# 6 0.0000 0.0000 0.0000 0.0000 0.0000 25.3284
#
#
#
# Elastic Compliance Matrix: (Units=1/GPa)
#
#
# Indices 1 2 3 4 5 6 
#
# 1 0.113542 -0.091150 -0.004736 0.000000 0.000000 0.000000
# 2 -0.091150 0.113541 -0.004737 0.000000 0.000000 0.000000
# 3 -0.004736 -0.004737 0.011475 0.000000 0.000000 0.000000
# 4 0.000000 0.000000 0.000000 0.057654 0.000000 0.000000
# 5 0.000000 0.000000 0.000000 0.000000 0.057654 0.000000
# 6 0.000000 0.000000 0.000000 0.000000 0.000000 0.039481
#
#
# Mechanical properties :
#
#
# Convention : Reuss Voigt Hill
#
# Bulk Modulus (GPa) = 26.80161 33.68295 30.24228
# Shear Modulus (GPa) = 8.23680 18.35688 13.29684
#
# Velocity S-wave (km/s) = 2.37743 3.54918 3.02066
# Velocity P-wave (km/s) = 5.09193 6.31736 5.73745
#
# Compressibility (1/GPa) = 0.03731120
#
# Stress axis : x y z
#
# Youngs Moduli (GPa) = 8.80730 8.80739 87.14825
#
# Poissons Ratio (x) = 0.80280 0.41275
# Poissons Ratio (y) = 0.80279 0.41279
# Poissons Ratio (z) = 0.04171 0.04172
#
# Static dielectric constant tensor:
#      x y z
#    x 2.675430 0.000000 0.000000 
#    y 0.000000 2.675430 0.000000 
#    z 0.000000 0.000000 2.999680 
# 
# 
# High freq. dielectric constant tensor:
#      x y z
#    x 1.511480 0.000000 0.000000 
#    y 0.000000 1.511480 0.000000 
#    z 0.000000 0.000000 1.580720 
# 
# From -- ./inp_files/885.got.cif
#   From: 2010.03.12/outbox.cif.g09.slc.cpg/sg92_1_cif.got.tgz:885.got - 2010.04.08 20:41:11.
