data_PCOD8305483
_publ_section_title
;
Structure prediction by ZEFSAII (Michael W. Deem and Ramdas Pophale) SiO2 
 PCOD8305483
Probable space group: P 41 21 2
;
_chemical_formula_sum "Si O2"
_cell_formula_units_Z 28
_cell_length_a 7.924799
_cell_length_b 7.924799
_cell_length_c 17.599533
_cell_angle_alpha 90.000000
_cell_angle_beta 90.000000
_cell_angle_gamma 90.000000
_cell_volume 1105.293601
_symmetry_space_group_name_H-M "P 41 21 2"
_symmetry_group_IT_number 92
_symmetry_cell_setting 'tetragonal'
loop_
_space_group_symop_operation_xyz
x,y,z
1/2-y,1/2+x,1/4+z
-x,-y,1/2+z
1/2+y,1/2-x,3/4+z
1/2+x,1/2-y,3/4-z
1/2-x,1/2+y,1/4-z
y,x,-z
-y,-x,1/2-z
loop_
_atom_site_type_symbol
_atom_site_label
_atom_site_fract_x
_atom_site_fract_y
_atom_site_fract_z
Si Si1 0.240975 0.759026 0.250000
Si Si2 0.066006 0.774596 0.394648
Si Si3 0.894369 0.727606 0.100203
Si Si4 0.412392 0.925544 0.808194
O O1 0.068598 0.758870 0.301437
O O2 0.257186 0.615623 0.184982
O O3 0.169369 0.607739 0.422594
O O4 0.146115 0.952194 0.418328
O O5 0.720569 0.829093 0.109906
O O6 0.928611 0.614166 0.174091
O O7 0.878995 0.601714 0.029731
#
# Coordination Sequence:
#
# PCOD8305483 Si02
#       4
#     4   8   8   8
#     4  12  28  52  84 120 168 216 288 346 430 502
#     4  12  27  51  83 119 164 224 278 351 421 516
#     4  11  27  47  77 114 160 208 277 343 415 498
#     4  11  26  48  75 114 157 208 270 340 416 495
#
# _framework density 25.332637999999999
#
# number of rings (size 3 to 8) (size 9 to 14) (size 15 to 20)
#    0.000    0.571    2.857    3.429   12.000    0.000 
#    0.000    0.000    0.000    0.000    0.000    0.000 
#    0.000    0.000    0.000    0.000    0.000    0.000 
#
# Total GULP energy -346881.372642 kJ/mol
# GULP energy per Si atom -12388.620451 kJ/mol
# Density = 2.527498 g / cm^3
# Si number density = 25.332638 Si / 1000 Ang^3
#
#
#
# Elastic Constant Matrix: (Units=GPa)
#
#
# Indices 1 2 3 4 5 6 
#
# 1 111.7575 37.6908 30.8298 0.0000 0.0000 0.0000
# 2 37.6908 111.7574 30.8295 0.0000 0.0000 0.0000
# 3 30.8298 30.8295 135.9585 0.0000 0.0000 0.0000
# 4 0.0000 0.0000 0.0000 49.0123 0.0000 0.0000
# 5 0.0000 0.0000 0.0000 0.0000 49.0122 0.0000
# 6 0.0000 0.0000 0.0000 0.0000 0.0000 38.3470
#
#
#
# Elastic Compliance Matrix: (Units=1/GPa)
#
#
# Indices 1 2 3 4 5 6 
#
# 1 0.010442 -0.003060 -0.001674 0.000000 0.000000 0.000000
# 2 -0.003060 0.010442 -0.001674 0.000000 0.000000 0.000000
# 3 -0.001674 -0.001674 0.008114 0.000000 0.000000 0.000000
# 4 0.000000 0.000000 0.000000 0.020403 0.000000 0.000000
# 5 0.000000 0.000000 0.000000 0.000000 0.020403 0.000000
# 6 0.000000 0.000000 0.000000 0.000000 0.000000 0.026078
#
#
# Mechanical properties :
#
#
# Convention : Reuss Voigt Hill
#
# Bulk Modulus (GPa) = 61.79513 62.01931 61.90722
# Shear Modulus (GPa) = 43.82481 44.61584 44.22033
#
# Velocity S-wave (km/s) = 4.16381 4.20122 4.18255
# Velocity P-wave (km/s) = 6.89658 6.93316 6.91490
#
# Compressibility (1/GPa) = 0.01618251
#
# Stress axis : x y z
#
# Youngs Moduli (GPa) = 95.77045 95.77053 123.23879
#
# Poissons Ratio (x) = 0.29303 0.20629
# Poissons Ratio (y) = 0.29303 0.20629
# Poissons Ratio (z) = 0.16031 0.16031
#
# Static dielectric constant tensor:
#      x y z
#    x 4.813370 0.000000 0.000000 
#    y 0.000000 4.813380 0.000000 
#    z 0.000000 0.000000 4.710710 
# 
# 
# High freq. dielectric constant tensor:
#      x y z
#    x 2.013380 0.000000 0.000000 
#    y 0.000000 2.013380 0.000000 
#    z 0.000000 0.000000 2.016260 
# 
# From -- ./inp_files/2957.got.cif
#   From: 2010.03.12/outbox.cif.g09.slc.cpg/sg92_2_cif.got.tgz:2957.got - 2010.04.08 20:41:11.
