data_PCOD8305432
_publ_section_title
;
Structure prediction by ZEFSAII (Michael W. Deem and Ramdas Pophale) SiO2 
 PCOD8305432
Probable space group: P 41 21 2
;
_chemical_formula_sum "Si O2"
_cell_formula_units_Z 48
_cell_length_a 13.556729
_cell_length_b 13.556729
_cell_length_c 9.222047
_cell_angle_alpha 90.000000
_cell_angle_beta 90.000000
_cell_angle_gamma 90.000000
_cell_volume 1694.872997
_symmetry_space_group_name_H-M "P 41 21 2"
_symmetry_group_IT_number 92
_symmetry_cell_setting 'tetragonal'
loop_
_space_group_symop_operation_xyz
x,y,z
1/2-y,1/2+x,1/4+z
-x,-y,1/2+z
1/2+y,1/2-x,3/4+z
1/2+x,1/2-y,3/4-z
1/2-x,1/2+y,1/4-z
y,x,-z
-y,-x,1/2-z
loop_
_atom_site_type_symbol
_atom_site_label
_atom_site_fract_x
_atom_site_fract_y
_atom_site_fract_z
Si Si1 0.246514 0.532131 0.824200
Si Si2 0.385094 0.531556 0.080272
Si Si3 0.695387 0.159871 0.357711
Si Si4 0.417289 0.069802 0.077070
Si Si5 0.566509 0.238193 0.609175
Si Si6 0.881590 0.101318 0.091346
O O1 0.215589 0.642334 0.776561
O O2 0.158082 0.453928 0.820268
O O3 0.330197 0.498147 0.711892
O O4 0.285006 0.528614 0.987941
O O5 0.352797 0.593573 0.398410
O O6 0.369734 0.474479 0.235587
O O7 0.471547 0.471547 0.000000
O O8 0.630479 0.171608 0.500076
O O9 0.717281 0.046609 0.312833
O O10 0.807645 0.197271 0.394632
O O11 0.436633 0.974501 0.174415
O O12 0.303156 0.083957 0.024227
O O13 0.925373 0.074628 0.250000
#
# Coordination Sequence:
#
# PCOD8305432 Si02
#       6
#     8   8   8   8   8   8
#     4  11  28  55  87 130 178 235 295 368 461 542
#     4  10  27  58  89 126 181 237 303 379 454 538
#     4  12  28  50  86 132 171 234 296 362 450 542
#     4  12  27  51  88 125 175 233 290 374 456 545
#     4  12  27  52  86 128 174 236 297 372 452 539
#     4  11  27  57  92 134 177 237 306 376 448 550
#
# _framework density 28.320706999999999
#
# number of rings (size 3 to 8) (size 9 to 14) (size 15 to 20)
#    0.000    0.667    1.667    3.000    7.000    2.667 
#    6.000    5.000    0.000    0.000    0.000    0.000 
#    0.000    0.000    0.000    0.000    0.000    0.000 
#
# Total GULP energy -594813.456326 kJ/mol
# GULP energy per Si atom -12391.947007 kJ/mol
# Density = 2.825625 g / cm^3
# Si number density = 28.320707 Si / 1000 Ang^3
#
#
#
# Elastic Constant Matrix: (Units=GPa)
#
#
# Indices 1 2 3 4 5 6 
#
# 1 115.5867 48.3167 45.0095 0.0000 0.0000 0.0000
# 2 48.3167 115.5869 45.0093 0.0000 0.0000 0.0000
# 3 45.0095 45.0093 188.8426 0.0000 0.0000 0.0000
# 4 0.0000 0.0000 0.0000 34.4390 0.0000 0.0000
# 5 0.0000 0.0000 0.0000 0.0000 34.4396 0.0000
# 6 0.0000 0.0000 0.0000 0.0000 0.0000 59.8224
#
#
#
# Elastic Compliance Matrix: (Units=1/GPa)
#
#
# Indices 1 2 3 4 5 6 
#
# 1 0.010943 -0.003923 -0.001673 0.000000 0.000000 0.000000
# 2 -0.003923 0.010943 -0.001673 0.000000 0.000000 0.000000
# 3 -0.001673 -0.001673 0.006093 0.000000 0.000000 0.000000
# 4 0.000000 0.000000 0.000000 0.029037 0.000000 0.000000
# 5 0.000000 0.000000 0.000000 0.000000 0.029036 0.000000
# 6 0.000000 0.000000 0.000000 0.000000 0.000000 0.016716
#
#
# Mechanical properties :
#
#
# Convention : Reuss Voigt Hill
#
# Bulk Modulus (GPa) = 74.40239 77.40968 75.90603
# Shear Modulus (GPa) = 41.05559 44.51893 42.78726
#
# Velocity S-wave (km/s) = 3.81158 3.96909 3.89113
# Velocity P-wave (km/s) = 6.76012 6.95683 6.85918
#
# Compressibility (1/GPa) = 0.01344043
#
# Stress axis : x y z
#
# Youngs Moduli (GPa) = 91.38438 91.38465 164.12256
#
# Poissons Ratio (x) = 0.35847 0.27461
# Poissons Ratio (y) = 0.35847 0.27461
# Poissons Ratio (z) = 0.15291 0.15290
#
# Static dielectric constant tensor:
#      x y z
#    x 5.606490 0.000000 0.000000 
#    y 0.000000 5.606490 0.000000 
#    z 0.000000 0.000000 5.852390 
# 
# 
# High freq. dielectric constant tensor:
#      x y z
#    x 2.167930 0.000000 0.000000 
#    y 0.000000 2.167930 0.000000 
#    z 0.000000 0.000000 2.171230 
# 
# From -- ./inp_files/1514.got.cif
#   From: 2010.03.12/outbox.cif.g09.slc.cpg/sg92_1_cif.got.tgz:1514.got - 2010.04.08 20:41:11.
