data_PCOD8305146
_publ_section_title
;
Structure prediction by ZEFSAII (Michael W. Deem and Ramdas Pophale) SiO2 
 PCOD8305146
Probable space group: P 41 2 2
;
_chemical_formula_sum "Si O2"
_cell_formula_units_Z 56
_cell_length_a 14.940917
_cell_length_b 14.940917
_cell_length_c 11.738768
_cell_angle_alpha 90.000000
_cell_angle_beta 90.000000
_cell_angle_gamma 90.000000
_cell_volume 2620.456929
_symmetry_space_group_name_H-M "P 41 2 2"
_symmetry_group_IT_number 91
_symmetry_cell_setting 'tetragonal'
loop_
_space_group_symop_operation_xyz
x,y,z
-y,x,1/4+z
-x,-y,1/2+z
y,-x,3/4+z
x,-y,1/2-z
-x,y,-z
y,x,3/4-z
-y,-x,1/4-z
loop_
_atom_site_type_symbol
_atom_site_label
_atom_site_fract_x
_atom_site_fract_y
_atom_site_fract_z
Si Si1 0.662154 0.485540 0.623144
Si Si2 0.246254 0.215570 0.001587
Si Si3 0.758949 0.017252 0.944569
Si Si4 0.630207 0.000000 0.750000
Si Si5 0.076752 0.306948 0.089069
Si Si6 0.398795 0.341747 0.999695
Si Si7 0.045451 0.045451 0.375000
Si Si8 0.498387 0.859766 0.135954
O O1 0.692919 0.500000 0.750000
O O2 0.605217 0.394784 0.625000
O O3 0.605142 0.569261 0.577873
O O4 0.759856 0.478789 0.563342
O O5 0.250798 0.250798 0.875000
O O6 0.337316 0.261257 0.051948
O O7 0.233508 0.110028 0.989685
O O8 0.162859 0.246117 0.074894
O O9 0.693605 0.044494 0.843071
O O10 0.850313 0.975170 0.895008
O O11 0.711268 0.949552 0.030803
O O12 0.575375 0.077821 0.690904
O O13 0.105414 0.407982 0.065157
O O14 0.000000 0.278582 0.000000
O O15 0.370605 0.370605 0.875000
O O16 0.500000 0.305700 0.000000
O O17 0.000000 0.015794 0.500000
O O18 0.500000 0.868560 0.000000
#
# Coordination Sequence:
#
# PCOD8305146 Si02
#       8
#     8   8   8   4   8   8   4   8
#     4  11  23  41  65  98 135 183 237 281 346 417
#     4  11  25  45  68 107 137 180 242 289 354 433
#     4  12  27  47  71 105 144 184 237 299 375 437
#     4  12  26  46  68 100 144 184 240 296 370 442
#     4  12  23  45  78 101 144 188 236 306 358 434
#     4  11  23  41  65  95 141 179 226 287 347 410
#     4  12  28  50  78 112 148 194 242 306 382 450
#     4  11  24  45  68  99 140 189 243 294 354 431
#
# _framework density 21.37032
#
# number of rings (size 3 to 8) (size 9 to 14) (size 15 to 20)
#    0.000    0.571    5.714    2.571    1.000    3.429 
#    3.857    0.000    0.000    0.000    0.000    0.000 
#    0.000    0.000    0.000    0.000    0.000    0.000 
#
# Total GULP energy -693948.542393 kJ/mol
# GULP energy per Si atom -12391.938257 kJ/mol
# Density = 2.132168 g / cm^3
# Si number density = 21.370320 Si / 1000 Ang^3
#
#
#
# Elastic Constant Matrix: (Units=GPa)
#
#
# Indices 1 2 3 4 5 6 
#
# 1 124.5181 93.6465 29.1337 0.0000 0.0000 0.0000
# 2 93.6465 124.5192 29.1339 0.0000 0.0000 0.0000
# 3 29.1337 29.1339 88.9617 0.0000 0.0000 0.0000
# 4 0.0000 0.0000 0.0000 29.8666 0.0000 0.0000
# 5 0.0000 0.0000 0.0000 0.0000 29.8664 0.0000
# 6 0.0000 0.0000 0.0000 0.0000 0.0000 7.5862
#
#
#
# Elastic Compliance Matrix: (Units=1/GPa)
#
#
# Indices 1 2 3 4 5 6 
#
# 1 0.018707 -0.013684 -0.001645 0.000000 0.000000 0.000000
# 2 -0.013684 0.018707 -0.001645 0.000000 0.000000 0.000000
# 3 -0.001645 -0.001645 0.012318 0.000000 0.000000 0.000000
# 4 0.000000 0.000000 0.000000 0.033482 0.000000 0.000000
# 5 0.000000 0.000000 0.000000 0.000000 0.033482 0.000000
# 6 0.000000 0.000000 0.000000 0.000000 0.000000 0.131818
#
#
# Mechanical properties :
#
#
# Convention : Reuss Voigt Hill
#
# Bulk Modulus (GPa) = 63.35386 71.31413 67.33400
# Shear Modulus (GPa) = 17.37767 25.86951 21.62359
#
# Velocity S-wave (km/s) = 2.85470 3.48305 3.18441
# Velocity P-wave (km/s) = 6.36992 7.04405 6.71545
#
# Compressibility (1/GPa) = 0.01578436
#
# Stress axis : x y z
#
# Youngs Moduli (GPa) = 53.45472 53.45520 81.18062
#
# Poissons Ratio (x) = 0.73150 0.13354
# Poissons Ratio (y) = 0.73149 0.13354
# Poissons Ratio (z) = 0.08793 0.08793
#
# Static dielectric constant tensor:
#      x y z
#    x 3.817680 0.000000 0.000000 
#    y 0.000000 3.817720 0.000000 
#    z 0.000000 0.000000 4.022350 
# 
# 
# High freq. dielectric constant tensor:
#      x y z
#    x 1.845740 0.000000 0.000000 
#    y 0.000000 1.845740 0.000000 
#    z 0.000000 0.000000 1.845820 
# 
# From -- ./inp_files/10867.got.cif
#   From: 2010.03.12/outbox.cif.g09.slc.cpg/sg91_6_cif.got.tgz:10867.got - 2010.04.08 20:27:58.
