data_PCOD8305520
_publ_section_title
;
Structure prediction by ZEFSAII (Michael W. Deem and Ramdas Pophale) SiO2 
 PCOD8305520
Probable space group: P 42 2 2
;
_chemical_formula_sum "Si O2"
_cell_formula_units_Z 64
_cell_length_a 11.849279
_cell_length_b 11.849279
_cell_length_c 24.242072
_cell_angle_alpha 90.000000
_cell_angle_beta 90.000000
_cell_angle_gamma 90.000000
_cell_volume 3403.718127
_symmetry_space_group_name_H-M "P 42 2 2"
_symmetry_group_IT_number 93
_symmetry_cell_setting 'tetragonal'
loop_
_space_group_symop_operation_xyz
x,y,z
-y,x,1/2+z
-x,-y,z
y,-x,1/2+z
x,-y,-z
-x,y,-z
y,x,1/2-z
-y,-x,1/2-z
loop_
_atom_site_type_symbol
_atom_site_label
_atom_site_fract_x
_atom_site_fract_y
_atom_site_fract_z
Si Si1 0.159535 0.493283 0.242224
Si Si2 0.496218 0.376133 0.316731
Si Si3 0.254073 0.869507 0.699076
Si Si4 0.709341 0.694461 0.616443
Si Si5 0.631993 0.366585 0.000301
Si Si6 0.502521 0.125568 0.866305
Si Si7 0.121764 0.737206 0.204703
Si Si8 0.283980 0.307004 0.387248
O O1 0.294431 0.511955 0.236029
O O2 0.124577 0.389902 0.203193
O O3 0.124383 0.458683 0.302956
O O4 0.099138 0.609439 0.225159
O O5 0.500000 0.500000 0.292229
O O6 0.596722 0.361545 0.359952
O O7 0.377571 0.356015 0.346256
O O8 0.197463 0.802538 0.750000
O O9 0.229406 0.804993 0.640966
O O10 0.206817 0.997919 0.696545
O O11 0.688574 0.700821 0.551086
O O12 0.818627 0.619503 0.628550
O O13 0.733766 0.814767 0.645565
O O14 0.632182 0.500000 0.000000
O O15 0.500000 0.325168 0.000000
O O16 0.710041 0.332837 0.948171
O O17 0.598733 0.190126 0.899191
O O18 0.500000 0.000000 0.890426
O O19 0.192914 0.807087 0.250000
#
# Coordination Sequence:
#
# PCOD8305520 Si02
#       8
#     8   8   8   8   8   8   8   8
#     4  10  22  36  54  83 123 155 180 236 310 370
#     4  10  18  33  54  86 118 147 193 233 295 361
#     4  11  23  39  60  86 119 160 202 244 294 355
#     4  11  22  37  57  87 117 156 195 243 296 350
#     4  11  20  36  61  89 123 154 195 244 295 359
#     4  12  22  36  54  80 118 153 186 237 308 363
#     4  11  23  39  60  86 119 160 202 244 294 355
#     4  11  22  37  57  87 117 156 195 243 296 350
#
# _framework density 18.802966000000001
#
# number of rings (size 3 to 8) (size 9 to 14) (size 15 to 20)
#    0.000    1.125    6.250    1.125    0.000    0.250 
#    2.250    1.875    0.000    0.750    0.000    0.000 
#    0.000    4.000    0.000    0.000    0.000    0.000 
#
# Total GULP energy -793364.567862 kJ/mol
# GULP energy per Si atom -12396.321373 kJ/mol
# Density = 1.876017 g / cm^3
# Si number density = 18.802966 Si / 1000 Ang^3
#
#
#
# Elastic Constant Matrix: (Units=GPa)
#
#
# Indices 1 2 3 4 5 6 
#
# 1 105.4838 19.3981 23.4703 0.0000 0.0000 0.0000
# 2 19.3981 105.4846 23.4705 0.0000 0.0000 0.0000
# 3 23.4703 23.4705 107.4012 0.0000 0.0000 0.0000
# 4 0.0000 0.0000 0.0000 -7.2917 0.0000 0.0000
# 5 0.0000 0.0000 0.0000 0.0000 -7.2925 0.0000
# 6 0.0000 0.0000 0.0000 0.0000 0.0000 8.9180
#
#
#
# Elastic Compliance Matrix: (Units=1/GPa)
#
#
# Indices 1 2 3 4 5 6 
#
# 1 0.010170 -0.001446 -0.001906 0.000000 0.000000 0.000000
# 2 -0.001446 0.010170 -0.001906 0.000000 0.000000 0.000000
# 3 -0.001906 -0.001906 0.010144 0.000000 0.000000 0.000000
# 4 0.000000 0.000000 0.000000 -0.137142 0.000000 0.000000
# 5 0.000000 0.000000 0.000000 0.000000 -0.137128 0.000000
# 6 0.000000 0.000000 0.000000 0.000000 0.000000 0.112133
#
#
# Mechanical properties :
#
#
# Convention : Reuss Voigt Hill
#
# Bulk Modulus (GPa) = 50.08394 50.11637 50.10015
# Shear Modulus (GPa) = -43.67625 15.66881 -14.00372
#
# Velocity S-wave (km/s) = -4.82481 2.88985 -2.73199
# Velocity P-wave (km/s) = 2.08432 6.15193 4.09279
#
# Compressibility (1/GPa) = 0.01996648
#
# Stress axis : x y z
#
# Youngs Moduli (GPa) = 98.32598 98.32675 98.57911
#
# Poissons Ratio (x) = 0.14219 0.18794
# Poissons Ratio (y) = 0.14219 0.18794
# Poissons Ratio (z) = 0.18746 0.18746
#
# Static dielectric constant tensor:
#      x y z
#    x 3.608590 0.000000 0.000000 
#    y 0.000000 3.608600 0.000000 
#    z 0.000000 0.000000 3.494200 
# 
# 
# High freq. dielectric constant tensor:
#      x y z
#    x 1.719540 0.000000 0.000000 
#    y 0.000000 1.719540 0.000000 
#    z 0.000000 0.000000 1.715060 
# 
# From -- ./inp_files/6967.got.cif
#   From: 2010.03.12/outbox.cif.g09.slc.cpg/sg93_4_cif.got.tgz:6967.got - 2010.04.08 20:44:19.
