data_PCOD8305752
_publ_section_title
;
Structure prediction by ZEFSAII (Michael W. Deem and Ramdas Pophale) SiO2 
 PCOD8305752
Probable space group: P 42 21 2
;
_chemical_formula_sum "Si O2"
_cell_formula_units_Z 40
_cell_length_a 8.609018
_cell_length_b 8.609018
_cell_length_c 23.347080
_cell_angle_alpha 90.000000
_cell_angle_beta 90.000000
_cell_angle_gamma 90.000000
_cell_volume 1730.373292
_symmetry_space_group_name_H-M "P 42 21 2"
_symmetry_group_IT_number 94
_symmetry_cell_setting 'tetragonal'
loop_
_space_group_symop_operation_xyz
x,y,z
1/2-y,1/2+x,1/2+z
-x,-y,z
1/2+y,1/2-x,1/2+z
1/2+x,1/2-y,1/2-z
1/2-x,1/2+y,1/2-z
y,x,-z
-y,-x,-z
loop_
_atom_site_type_symbol
_atom_site_label
_atom_site_fract_x
_atom_site_fract_y
_atom_site_fract_z
Si Si1 0.683790 0.158713 0.946051
Si Si2 0.361041 0.106093 0.145735
Si Si3 0.539914 0.328931 0.228950
Si Si4 0.821758 0.181212 0.823286
Si Si5 0.328600 0.199183 0.945240
O O1 0.782142 0.194929 0.889811
O O2 0.509259 0.205970 0.928072
O O3 0.709943 0.978755 0.961258
O O4 0.740876 0.259125 0.000000
O O5 0.439396 0.213702 0.191627
O O6 0.265858 0.211985 0.101805
O O7 0.500000 0.000000 0.116683
O O8 0.240423 0.998714 0.180952
O O9 0.500000 0.500000 0.206846
O O10 0.491962 0.310135 0.296480
O O11 0.719087 0.290389 0.218226
O O12 0.306920 0.306920 0.000000
#
# Coordination Sequence:
#
# PCOD8305752 Si02
#       5
#     8   8   8   8   8
#     4  11  27  48  72 106 140 188 242 301 369 438
#     4  10  24  44  71 103 143 189 237 298 360 430
#     4  11  24  43  69 102 141 189 236 292 356 421
#     4  11  25  44  72 104 146 186 241 296 358 439
#     4  11  26  45  75 101 141 185 238 301 362 441
#
# _framework density 23.116396999999999
#
# number of rings (size 3 to 8) (size 9 to 14) (size 15 to 20)
#    0.000    1.200    0.000    3.600   14.000    2.400 
#    7.200    0.000    0.000    0.000    0.000    0.000 
#    0.000    0.000    0.000    0.000    0.000    0.000 
#
# Total GULP energy -495863.738033 kJ/mol
# GULP energy per Si atom -12396.593451 kJ/mol
# Density = 2.306378 g / cm^3
# Si number density = 23.116397 Si / 1000 Ang^3
#
#
#
# Elastic Constant Matrix: (Units=GPa)
#
#
# Indices 1 2 3 4 5 6 
#
# 1 104.0828 28.7708 32.4402 0.0000 0.0000 0.0000
# 2 28.7708 104.0824 32.4398 0.0000 0.0000 0.0000
# 3 32.4402 32.4398 96.6624 0.0000 0.0000 0.0000
# 4 0.0000 0.0000 0.0000 -8.8118 0.0000 0.0000
# 5 0.0000 0.0000 0.0000 0.0000 -8.8080 0.0000
# 6 0.0000 0.0000 0.0000 0.0000 0.0000 40.7312
#
#
#
# Elastic Compliance Matrix: (Units=1/GPa)
#
#
# Indices 1 2 3 4 5 6 
#
# 1 0.011140 -0.002138 -0.003021 0.000000 0.000000 0.000000
# 2 -0.002138 0.011140 -0.003021 0.000000 0.000000 0.000000
# 3 -0.003021 -0.003021 0.012373 0.000000 0.000000 0.000000
# 4 0.000000 0.000000 0.000000 -0.113484 0.000000 0.000000
# 5 0.000000 0.000000 0.000000 0.000000 -0.113534 0.000000
# 6 0.000000 0.000000 0.000000 0.000000 0.000000 0.024551
#
#
# Mechanical properties :
#
#
# Convention : Reuss Voigt Hill
#
# Bulk Modulus (GPa) = 54.66512 54.68104 54.67308
# Shear Modulus (GPa) = -34.39869 18.70074 -7.84897
#
# Velocity S-wave (km/s) = -3.86173 2.84735 -1.84466
# Velocity P-wave (km/s) = 1.95325 5.87502 4.37784
#
# Compressibility (1/GPa) = 0.01829320
#
# Stress axis : x y z
#
# Youngs Moduli (GPa) = 89.76394 89.76379 80.81998
#
# Poissons Ratio (x) = 0.19190 0.24418
# Poissons Ratio (y) = 0.19190 0.24418
# Poissons Ratio (z) = 0.27120 0.27120
#
# Static dielectric constant tensor:
#      x y z
#    x 5.011250 0.000000 0.000000 
#    y 0.000000 5.011210 0.000000 
#    z 0.000000 0.000000 4.006270 
# 
# 
# High freq. dielectric constant tensor:
#      x y z
#    x 1.930000 0.000000 0.000000 
#    y 0.000000 1.930000 0.000000 
#    z 0.000000 0.000000 1.908380 
# 
# From -- ./inp_files/4989.got.cif
#   From: 2010.03.12/outbox.cif.g09.slc.cpg/sg94_3_cif.got.tgz:4989.got - 2010.04.08 20:48:32.
