data_PCOD8305242
_publ_section_title
;
Structure prediction by ZEFSAII (Michael W. Deem and Ramdas Pophale) SiO2 
 PCOD8305242
Probable space group: P 41 21 2
;
_chemical_formula_sum "Si O2"
_cell_formula_units_Z 32
_cell_length_a 10.769827
_cell_length_b 10.769827
_cell_length_c 9.460819
_cell_angle_alpha 90.000000
_cell_angle_beta 90.000000
_cell_angle_gamma 90.000000
_cell_volume 1097.352577
_symmetry_space_group_name_H-M "P 41 21 2"
_symmetry_group_IT_number 92
_symmetry_cell_setting 'tetragonal'
loop_
_space_group_symop_operation_xyz
x,y,z
1/2-y,1/2+x,1/4+z
-x,-y,1/2+z
1/2+y,1/2-x,3/4+z
1/2+x,1/2-y,3/4-z
1/2-x,1/2+y,1/4-z
y,x,-z
-y,-x,1/2-z
loop_
_atom_site_type_symbol
_atom_site_label
_atom_site_fract_x
_atom_site_fract_y
_atom_site_fract_z
Si Si1 0.201595 0.833333 0.917439
Si Si2 0.108078 0.184914 0.156552
Si Si3 0.688011 0.539760 0.411556
Si Si4 0.911844 0.585520 0.065092
O O1 0.309851 0.794382 0.025650
O O2 0.072238 0.858739 0.002597
O O3 0.166867 0.716699 0.812031
O O4 0.234952 0.965948 0.841555
O O5 0.110673 0.067552 0.261016
O O6 0.152061 0.152061 0.000000
O O7 0.666583 0.666583 0.500000
O O8 0.834118 0.510987 0.406508
O O9 0.913841 0.455535 0.150091
#
# Coordination Sequence:
#
# PCOD8305242 Si02
#       4
#     8   8   8   8
#     4  10  22  42  69 110 144 193 258 316 392 485
#     4  11  22  38  73 104 140 196 244 312 391 478
#     4  10  19  39  69 107 137 188 256 305 381 476
#     4   9  20  41  76 110 157 201 255 329 390 468
#
# _framework density 29.161092
#
# number of rings (size 3 to 8) (size 9 to 14) (size 15 to 20)
#    0.000    2.000    2.500    0.750    0.000    0.000 
#    0.000    7.500    0.000   15.000   26.000    0.000 
#    0.000    0.000    0.000    0.000    0.000    0.000 
#
# Total GULP energy -396493.205264 kJ/mol
# GULP energy per Si atom -12390.412665 kJ/mol
# Density = 2.909472 g / cm^3
# Si number density = 29.161092 Si / 1000 Ang^3
#
#
#
# Elastic Constant Matrix: (Units=GPa)
#
#
# Indices 1 2 3 4 5 6 
#
# 1 143.5767 87.8876 97.5499 0.0000 0.0000 0.0000
# 2 87.8876 143.5767 97.5499 0.0000 0.0000 0.0000
# 3 97.5499 97.5499 168.1814 0.0000 0.0000 0.0000
# 4 0.0000 0.0000 0.0000 68.4898 0.0000 0.0000
# 5 0.0000 0.0000 0.0000 0.0000 68.4898 0.0000
# 6 0.0000 0.0000 0.0000 0.0000 0.0000 52.3248
#
#
#
# Elastic Compliance Matrix: (Units=1/GPa)
#
#
# Indices 1 2 3 4 5 6 
#
# 1 0.013205 -0.004752 -0.004903 0.000000 0.000000 0.000000
# 2 -0.004752 0.013205 -0.004903 0.000000 0.000000 0.000000
# 3 -0.004903 -0.004903 0.011634 0.000000 0.000000 0.000000
# 4 0.000000 0.000000 0.000000 0.014601 0.000000 0.000000
# 5 0.000000 0.000000 0.000000 0.000000 0.014601 0.000000
# 6 0.000000 0.000000 0.000000 0.000000 0.000000 0.019111
#
#
# Mechanical properties :
#
#
# Convention : Reuss Voigt Hill
#
# Bulk Modulus (GPa) = 112.00982 113.47885 112.74433
# Shear Modulus (GPa) = 42.21259 49.35071 45.78165
#
# Velocity S-wave (km/s) = 3.80882 4.11828 3.96657
# Velocity P-wave (km/s) = 7.60506 7.84937 7.72818
#
# Compressibility (1/GPa) = 0.00892779
#
# Stress axis : x y z
#
# Youngs Moduli (GPa) = 75.72932 75.72932 85.95717
#
# Poissons Ratio (x) = 0.35986 0.42145
# Poissons Ratio (y) = 0.35986 0.42145
# Poissons Ratio (z) = 0.37130 0.37130
#
# Static dielectric constant tensor:
#      x y z
#    x 5.731590 0.000000 0.000000 
#    y 0.000000 5.731590 0.000000 
#    z 0.000000 0.000000 5.723920 
# 
# 
# High freq. dielectric constant tensor:
#      x y z
#    x 2.198250 0.000000 0.000000 
#    y 0.000000 2.198250 0.000000 
#    z 0.000000 0.000000 2.220160 
# 
# From -- ./inp_files/1931.got.cif
#   From: 2010.03.12/outbox.cif.g09.slc.cpg/sg92_1_cif.got.tgz:1931.got - 2010.04.08 20:41:11.
