data_PCOD8305453
_publ_section_title
;
Structure prediction by ZEFSAII (Michael W. Deem and Ramdas Pophale) SiO2 
 PCOD8305453
Probable space group: P 41 21 2
;
_chemical_formula_sum "Si O2"
_cell_formula_units_Z 48
_cell_length_a 8.765148
_cell_length_b 8.765148
_cell_length_c 28.363771
_cell_angle_alpha 90.000000
_cell_angle_beta 90.000000
_cell_angle_gamma 90.000000
_cell_volume 2179.126678
_symmetry_space_group_name_H-M "P 41 21 2"
_symmetry_group_IT_number 92
_symmetry_cell_setting 'tetragonal'
loop_
_space_group_symop_operation_xyz
x,y,z
1/2-y,1/2+x,1/4+z
-x,-y,1/2+z
1/2+y,1/2-x,3/4+z
1/2+x,1/2-y,3/4-z
1/2-x,1/2+y,1/4-z
y,x,-z
-y,-x,1/2-z
loop_
_atom_site_type_symbol
_atom_site_label
_atom_site_fract_x
_atom_site_fract_y
_atom_site_fract_z
Si Si1 0.674570 0.325431 0.250000
Si Si2 0.061723 0.987197 0.419588
Si Si3 0.051963 0.294846 0.073693
Si Si4 0.485268 0.818720 0.979357
Si Si5 0.275116 0.171723 0.825100
Si Si6 0.536253 0.498287 0.433508
Si Si7 0.303758 0.303758 0.000000
O O1 0.627533 0.422004 0.204687
O O2 0.844558 0.378159 0.263206
O O3 0.092271 0.053597 0.367672
O O4 0.182495 0.850381 0.429165
O O5 0.886678 0.941275 0.424814
O O6 0.112446 0.349124 0.125280
O O7 0.148109 0.334800 0.027254
O O8 0.895336 0.385584 0.062822
O O9 0.517620 0.644483 0.964170
O O10 0.404371 0.848870 0.029223
O O11 0.094851 0.129911 0.822166
O O12 0.682349 0.564522 0.460644
#
# Coordination Sequence:
#
# PCOD8305453 Si02
#       7
#     4   8   8   8   8   8   4
#     4  12  26  44  68 108 134 190 228 300 360 432
#     4  11  26  46  70 103 143 182 242 299 357 426
#     4  11  27  42  72 101 140 185 237 297 351 425
#     4  12  25  45  68 102 144 181 237 289 368 426
#     4  11  22  46  69 101 141 185 234 300 347 433
#     4  11  24  44  74  99 144 188 232 298 362 428
#     4  12  20  46  66 106 126 190 234 284 356 414
#
# _framework density 22.027173999999999
#
# number of rings (size 3 to 8) (size 9 to 14) (size 15 to 20)
#    0.000    0.667    5.000    2.500    4.667    1.333 
#    3.000    0.000    0.000    0.000    0.000    0.000 
#    0.000    0.000    0.000    0.000    0.000    0.000 
#
# Total GULP energy -594672.801056 kJ/mol
# GULP energy per Si atom -12389.016689 kJ/mol
# Density = 2.197704 g / cm^3
# Si number density = 22.027174 Si / 1000 Ang^3
#
#
#
# Elastic Constant Matrix: (Units=GPa)
#
#
# Indices 1 2 3 4 5 6 
#
# 1 157.4033 -35.7674 43.8142 0.0000 0.0000 0.0000
# 2 -35.7674 157.3998 43.8112 0.0000 0.0000 0.0000
# 3 43.8142 43.8112 173.3164 0.0000 0.0000 0.0000
# 4 0.0000 0.0000 0.0000 16.8076 0.0000 0.0000
# 5 0.0000 0.0000 0.0000 0.0000 16.8063 0.0000
# 6 0.0000 0.0000 0.0000 0.0000 0.0000 30.4226
#
#
#
# Elastic Compliance Matrix: (Units=1/GPa)
#
#
# Indices 1 2 3 4 5 6 
#
# 1 0.007614 0.002438 -0.002541 0.000000 0.000000 0.000000
# 2 0.002438 0.007614 -0.002541 0.000000 0.000000 0.000000
# 3 -0.002541 -0.002541 0.007054 0.000000 0.000000 0.000000
# 4 0.000000 0.000000 0.000000 0.059497 0.000000 0.000000
# 5 0.000000 0.000000 0.000000 0.000000 0.059501 0.000000
# 6 0.000000 0.000000 0.000000 0.000000 0.000000 0.032870
#
#
# Mechanical properties :
#
#
# Convention : Reuss Voigt Hill
#
# Bulk Modulus (GPa) = 58.84348 65.75950 62.30149
# Shear Modulus (GPa) = 27.01159 41.89139 34.45149
#
# Velocity S-wave (km/s) = 3.50563 4.36570 3.95909
# Velocity P-wave (km/s) = 6.56947 7.43849 7.01744
#
# Compressibility (1/GPa) = 0.01699424
#
# Stress axis : x y z
#
# Youngs Moduli (GPa) = 131.33140 131.32960 141.75366
#
# Poissons Ratio (x) = -0.32012 0.36020
# Poissons Ratio (y) = -0.32013 0.36020
# Poissons Ratio (z) = 0.33372 0.33371
#
# Static dielectric constant tensor:
#      x y z
#    x 4.227780 0.000000 0.000000 
#    y 0.000000 4.227830 0.000000 
#    z 0.000000 0.000000 4.526010 
# 
# 
# High freq. dielectric constant tensor:
#      x y z
#    x 1.853800 0.000000 0.000000 
#    y 0.000000 1.853800 0.000000 
#    z 0.000000 0.000000 1.899950 
# 
# From -- ./inp_files/4565.got.cif
#   From: 2010.03.12/outbox.cif.g09.slc.cpg/sg92_3_cif.got.tgz:4565.got - 2010.04.08 20:41:11.
