data_PCOD8305875
_publ_section_title
;
Structure prediction by ZEFSAII (Michael W. Deem and Ramdas Pophale) SiO2 
 PCOD8305875
Probable space group: P 43 21 2
;
_chemical_formula_sum "Si O2"
_cell_formula_units_Z 40
_cell_length_a 14.485427
_cell_length_b 14.485427
_cell_length_c 8.038124
_cell_angle_alpha 90.000000
_cell_angle_beta 90.000000
_cell_angle_gamma 90.000000
_cell_volume 1686.620230
_symmetry_space_group_name_H-M "P 43 21 2"
_symmetry_group_IT_number 96
_symmetry_cell_setting 'tetragonal'
loop_
_space_group_symop_operation_xyz
x,y,z
1/2-y,1/2+x,3/4+z
-x,-y,1/2+z
1/2+y,1/2-x,1/4+z
1/2+x,1/2-y,1/4-z
1/2-x,1/2+y,3/4-z
y,x,-z
-y,-x,1/2-z
loop_
_atom_site_type_symbol
_atom_site_label
_atom_site_fract_x
_atom_site_fract_y
_atom_site_fract_z
Si Si1 0.375653 0.773646 0.799733
Si Si2 0.470381 0.748725 0.158990
Si Si3 0.426851 0.434695 0.303325
Si Si4 0.848962 0.307150 0.733694
Si Si5 0.765952 0.567583 0.318975
O O1 0.309007 0.690994 0.750000
O O2 0.316456 0.869264 0.792298
O O3 0.457264 0.781422 0.661678
O O4 0.421252 0.746643 0.977841
O O5 0.486370 0.647684 0.237720
O O6 0.405286 0.798515 0.294422
O O7 0.574123 0.791834 0.157801
O O8 0.414939 0.414939 0.500000
O O9 0.527171 0.472830 0.250000
O O10 0.408856 0.342661 0.196751
O O11 0.775600 0.224401 0.750000
O O12 0.904477 0.319105 0.902815
#
# Coordination Sequence:
#
# PCOD8305875 Si02
#       5
#     8   8   8   8   8
#     4  10  21  39  66  91 127 179 217 274 343 398
#     4  10  20  35  62  87 121 168 209 269 324 392
#     4  12  22  38  62 103 132 171 223 276 335 398
#     4  10  17  35  60  82 120 158 207 258 326 378
#     4  10  20  38  65  86 131 168 217 271 331 396
#
# _framework density 23.716066999999999
#
# number of rings (size 3 to 8) (size 9 to 14) (size 15 to 20)
#    0.000    1.600    6.000    1.200    0.000    0.800 
#    0.000    0.000   30.800    0.000    0.000    0.000 
#    0.000    0.000    0.000    0.000    0.000    0.000 
#
# Total GULP energy -495551.091331 kJ/mol
# GULP energy per Si atom -12388.777283 kJ/mol
# Density = 2.366209 g / cm^3
# Si number density = 23.716067 Si / 1000 Ang^3
#
#
#
# Elastic Constant Matrix: (Units=GPa)
#
#
# Indices 1 2 3 4 5 6 
#
# 1 163.1926 125.8080 22.2585 0.0000 0.0000 0.0000
# 2 125.8080 163.1969 22.2606 0.0000 0.0000 0.0000
# 3 22.2585 22.2606 27.9187 0.0000 0.0000 0.0000
# 4 0.0000 0.0000 0.0000 10.2416 0.0000 0.0000
# 5 0.0000 0.0000 0.0000 0.0000 10.2392 0.0000
# 6 0.0000 0.0000 0.0000 0.0000 0.0000 58.8626
#
#
#
# Elastic Compliance Matrix: (Units=1/GPa)
#
#
# Indices 1 2 3 4 5 6 
#
# 1 0.015346 -0.011401 -0.003144 0.000000 0.000000 0.000000
# 2 -0.011401 0.015346 -0.003146 0.000000 0.000000 0.000000
# 3 -0.003144 -0.003146 0.040833 0.000000 0.000000 0.000000
# 4 0.000000 0.000000 0.000000 0.097641 0.000000 0.000000
# 5 0.000000 0.000000 0.000000 0.000000 0.097663 0.000000
# 6 0.000000 0.000000 0.000000 0.000000 0.000000 0.016989
#
#
# Mechanical properties :
#
#
# Convention : Reuss Voigt Hill
#
# Bulk Modulus (GPa) = 27.66828 77.21804 52.44316
# Shear Modulus (GPa) = 15.09439 28.13412 21.61426
#
# Velocity S-wave (km/s) = 2.52556 3.44799 3.02218
# Velocity P-wave (km/s) = 4.49404 6.96287 5.85995
#
# Compressibility (1/GPa) = 0.03614247
#
# Stress axis : x y z
#
# Youngs Moduli (GPa) = 65.16323 65.16367 24.48974
#
# Poissons Ratio (x) = 0.74296 0.07700
# Poissons Ratio (y) = 0.74295 0.07705
# Poissons Ratio (z) = 0.20488 0.20501
#
# Static dielectric constant tensor:
#      x y z
#    x 4.787200 0.000000 0.000000 
#    y 0.000000 4.787190 0.000000 
#    z 0.000000 0.000000 3.802120 
# 
# 
# High freq. dielectric constant tensor:
#      x y z
#    x 1.952350 0.000000 0.000000 
#    y 0.000000 1.952350 0.000000 
#    z 0.000000 0.000000 1.890380 
# 
# From -- ./inp_files/2039.got.cif
#   From: 2010.03.12/outbox.cif.g09.slc.cpg/sg96_2_cif.got.tgz:2039.got - 2010.04.08 20:56:49.
