data_PCOD8305694
_publ_section_title
;
Structure prediction by ZEFSAII (Michael W. Deem and Ramdas Pophale) SiO2 
 PCOD8305694
Probable space group: P 42 21 2
;
_chemical_formula_sum "Si O2"
_cell_formula_units_Z 48
_cell_length_a 8.996364
_cell_length_b 8.996364
_cell_length_c 29.684757
_cell_angle_alpha 90.000000
_cell_angle_beta 90.000000
_cell_angle_gamma 90.000000
_cell_volume 2402.522901
_symmetry_space_group_name_H-M "P 42 21 2"
_symmetry_group_IT_number 94
_symmetry_cell_setting 'tetragonal'
loop_
_space_group_symop_operation_xyz
x,y,z
1/2-y,1/2+x,1/2+z
-x,-y,z
1/2+y,1/2-x,1/2+z
1/2+x,1/2-y,1/2-z
1/2-x,1/2+y,1/2-z
y,x,-z
-y,-x,-z
loop_
_atom_site_type_symbol
_atom_site_label
_atom_site_fract_x
_atom_site_fract_y
_atom_site_fract_z
Si Si1 0.306456 0.162711 0.144841
Si Si2 0.681515 0.199115 0.806500
Si Si3 0.344757 0.123287 0.624778
Si Si4 0.830834 0.537887 0.119964
Si Si5 0.129195 0.119047 0.449072
Si Si6 0.084992 0.152451 0.225384
O O1 0.479389 0.200690 0.156439
O O2 0.218637 0.289878 0.117280
O O3 0.210603 0.120945 0.188264
O O4 0.337986 0.016391 0.114321
O O5 0.789111 0.231845 0.848562
O O6 0.517471 0.212700 0.829183
O O7 0.704613 0.323368 0.768721
O O8 0.719049 0.032515 0.788725
O O9 0.270059 0.089022 0.576812
O O10 0.764355 0.453910 0.077371
O O11 0.000000 0.500000 0.113406
O O12 0.166680 0.166680 0.500000
O O13 0.000000 0.000000 0.447731
O O14 0.000000 0.000000 0.235665
#
# Coordination Sequence:
#
# PCOD8305694 Si02
#       6
#     8   8   8   8   8   8
#     4  11  22  40  62  91 123 165 217 258 320 375
#     4  11  25  39  61  85 125 172 215 265 318 376
#     4  10  22  41  65  90 124 168 203 265 325 390
#     4  11  23  41  65  94 127 170 212 267 324 392
#     4  10  21  42  68  97 128 161 207 258 325 399
#     4  12  25  40  58  91 128 170 221 271 314 378
#
# _framework density 19.978997
#
# number of rings (size 3 to 8) (size 9 to 14) (size 15 to 20)
#    0.000    1.167    5.000    1.000    4.667    0.000 
#    6.000    0.000    0.000    1.000    0.000    0.000 
#    0.000    0.000    0.000    0.000    0.000    0.000 
#
# Total GULP energy -594638.007004 kJ/mol
# GULP energy per Si atom -12388.291813 kJ/mol
# Density = 1.993352 g / cm^3
# Si number density = 19.978997 Si / 1000 Ang^3
#
#
#
# Elastic Constant Matrix: (Units=GPa)
#
#
# Indices 1 2 3 4 5 6 
#
# 1 118.3714 47.0583 52.0375 0.0000 0.0000 0.0000
# 2 47.0583 118.3714 52.0375 0.0000 0.0000 0.0000
# 3 52.0375 52.0375 130.1551 0.0000 0.0000 0.0000
# 4 0.0000 0.0000 0.0000 21.1735 0.0000 0.0000
# 5 0.0000 0.0000 0.0000 0.0000 21.1735 0.0000
# 6 0.0000 0.0000 0.0000 0.0000 0.0000 36.8679
#
#
#
# Elastic Compliance Matrix: (Units=1/GPa)
#
#
# Indices 1 2 3 4 5 6 
#
# 1 0.011049 -0.002973 -0.003229 0.000000 0.000000 0.000000
# 2 -0.002973 0.011049 -0.003229 0.000000 0.000000 0.000000
# 3 -0.003229 -0.003229 0.010265 0.000000 0.000000 0.000000
# 4 0.000000 0.000000 0.000000 0.047229 0.000000 0.000000
# 5 0.000000 0.000000 0.000000 0.000000 0.047229 0.000000
# 6 0.000000 0.000000 0.000000 0.000000 0.000000 0.027124
#
#
# Mechanical properties :
#
#
# Convention : Reuss Voigt Hill
#
# Bulk Modulus (GPa) = 74.06461 74.35159 74.20810
# Shear Modulus (GPa) = 28.19941 30.22728 29.21335
#
# Velocity S-wave (km/s) = 3.76101 3.89389 3.82802
# Velocity P-wave (km/s) = 7.48411 7.58368 7.53406
#
# Compressibility (1/GPa) = 0.01350172
#
# Stress axis : x y z
#
# Youngs Moduli (GPa) = 90.50205 90.50205 97.41739
#
# Poissons Ratio (x) = 0.26908 0.31456
# Poissons Ratio (y) = 0.26908 0.31456
# Poissons Ratio (z) = 0.29223 0.29223
#
# Static dielectric constant tensor:
#      x y z
#    x 3.818100 0.000000 0.000000 
#    y 0.000000 3.818100 0.000000 
#    z 0.000000 0.000000 3.606250 
# 
# 
# High freq. dielectric constant tensor:
#      x y z
#    x 1.790850 0.000000 0.000000 
#    y 0.000000 1.790850 0.000000 
#    z 0.000000 0.000000 1.750710 
# 
# From -- ./inp_files/5564.got.cif
#   From: 2010.03.12/outbox.cif.g09.slc.cpg/sg94_3_cif.got.tgz:5564.got - 2010.04.08 20:48:32.
