data_PCOD8305836
_publ_section_title
;
Structure prediction by ZEFSAII (Michael W. Deem and Ramdas Pophale) SiO2 
 PCOD8305836
Probable space group: P 43 2 2
;
_chemical_formula_sum "Si O2"
_cell_formula_units_Z 48
_cell_length_a 14.672757
_cell_length_b 14.672757
_cell_length_c 10.962547
_cell_angle_alpha 90.000000
_cell_angle_beta 90.000000
_cell_angle_gamma 90.000000
_cell_volume 2360.124529
_symmetry_space_group_name_H-M "P 43 2 2"
_symmetry_group_IT_number 95
_symmetry_cell_setting 'tetragonal'
loop_
_space_group_symop_operation_xyz
x,y,z
-y,x,3/4+z
-x,-y,1/2+z
y,-x,1/4+z
x,-y,1/2-z
-x,y,-z
y,x,1/4-z
-y,-x,3/4-z
loop_
_atom_site_type_symbol
_atom_site_label
_atom_site_fract_x
_atom_site_fract_y
_atom_site_fract_z
Si Si1 0.472648 0.150256 0.210526
Si Si2 0.744544 0.390157 0.395884
Si Si3 0.957297 0.351981 0.626557
Si Si4 0.782185 0.263399 0.602698
Si Si5 0.357509 0.121486 0.437536
Si Si6 0.400294 0.288234 0.039501
O O1 0.521325 0.239728 0.270692
O O2 0.547462 0.086314 0.145340
O O3 0.418321 0.098300 0.318169
O O4 0.404103 0.189144 0.108154
O O5 0.636930 0.363071 0.375000
O O6 0.787280 0.301664 0.464756
O O7 0.798677 0.403441 0.268628
O O8 0.883097 0.273776 0.660302
O O9 0.000000 0.319937 0.500000
O O10 0.028533 0.353204 0.736869
O O11 0.742153 0.160135 0.604812
O O12 0.715352 0.329767 0.678340
O O13 0.368561 0.368561 0.125000
O O14 0.500000 0.316927 0.000000
#
# Coordination Sequence:
#
# PCOD8305836 Si02
#       6
#     8   8   8   8   8   8
#     4  11  22  36  61  89 121 175 210 273 332 386
#     4   9  18  33  55  83 122 167 208 260 318 389
#     4  11  22  36  60  96 135 161 211 277 324 397
#     4  10  21  39  61  87 126 179 212 262 337 402
#     4  11  21  38  60  91 134 171 212 262 345 397
#     4  12  23  43  66  86 126 178 226 268 325 391
#
# _framework density 20.337910000000001
#
# number of rings (size 3 to 8) (size 9 to 14) (size 15 to 20)
#    0.000    1.333    8.333    0.500    0.000    2.667 
#    0.000    0.833    0.000    0.000    0.000    0.000 
#   10.000    0.000    0.000    0.000    0.000    0.000 
#
# Total GULP energy -594690.698151 kJ/mol
# GULP energy per Si atom -12389.389545 kJ/mol
# Density = 2.029162 g / cm^3
# Si number density = 20.337910 Si / 1000 Ang^3
#
#
#
# Elastic Constant Matrix: (Units=GPa)
#
#
# Indices 1 2 3 4 5 6 
#
# 1 92.1115 56.4938 44.9906 0.0000 0.0000 0.0000
# 2 56.4938 92.1111 44.9907 0.0000 0.0000 0.0000
# 3 44.9906 44.9907 94.5407 0.0000 0.0000 0.0000
# 4 0.0000 0.0000 0.0000 35.2840 0.0000 0.0000
# 5 0.0000 0.0000 0.0000 0.0000 35.2840 0.0000
# 6 0.0000 0.0000 0.0000 0.0000 0.0000 17.7988
#
#
#
# Elastic Compliance Matrix: (Units=1/GPa)
#
#
# Indices 1 2 3 4 5 6 
#
# 1 0.018765 -0.009311 -0.004499 0.000000 0.000000 0.000000
# 2 -0.009311 0.018765 -0.004499 0.000000 0.000000 0.000000
# 3 -0.004499 -0.004499 0.014859 0.000000 0.000000 0.000000
# 4 0.000000 0.000000 0.000000 0.028341 0.000000 0.000000
# 5 0.000000 0.000000 0.000000 0.000000 0.028341 0.000000
# 6 0.000000 0.000000 0.000000 0.000000 0.000000 0.056184
#
#
# Mechanical properties :
#
#
# Convention : Reuss Voigt Hill
#
# Bulk Modulus (GPa) = 63.40773 63.52373 63.46573
# Shear Modulus (GPa) = 24.13948 26.49256 25.31602
#
# Velocity S-wave (km/s) = 3.44891 3.61310 3.53196
# Velocity P-wave (km/s) = 6.86329 6.97911 6.92144
#
# Compressibility (1/GPa) = 0.01577095
#
# Stress axis : x y z
#
# Youngs Moduli (GPa) = 53.29177 53.29150 67.29863
#
# Poissons Ratio (x) = 0.49622 0.30275
# Poissons Ratio (y) = 0.49622 0.30275
# Poissons Ratio (z) = 0.23974 0.23974
#
# Static dielectric constant tensor:
#      x y z
#    x 3.660070 0.000000 0.000000 
#    y 0.000000 3.660070 0.000000 
#    z 0.000000 0.000000 4.007590 
# 
# 
# High freq. dielectric constant tensor:
#      x y z
#    x 1.761840 0.000000 0.000000 
#    y 0.000000 1.761840 0.000000 
#    z 0.000000 0.000000 1.819610 
# 
# From -- ./inp_files/3838.got.cif
#   From: 2010.03.12/outbox.cif.g09.slc.cpg/sg95_2_cif.got.tgz:3838.got - 2010.04.08 20:51:55.
