data_PCOD8305433
_publ_section_title
;
Structure prediction by ZEFSAII (Michael W. Deem and Ramdas Pophale) SiO2 
 PCOD8305433
Probable space group: P 41 21 2
;
_chemical_formula_sum "Si O2"
_cell_formula_units_Z 48
_cell_length_a 20.492045
_cell_length_b 20.492045
_cell_length_c 5.281054
_cell_angle_alpha 90.000000
_cell_angle_beta 90.000000
_cell_angle_gamma 90.000000
_cell_volume 2217.640836
_symmetry_space_group_name_H-M "P 41 21 2"
_symmetry_group_IT_number 92
_symmetry_cell_setting 'tetragonal'
loop_
_space_group_symop_operation_xyz
x,y,z
1/2-y,1/2+x,1/4+z
-x,-y,1/2+z
1/2+y,1/2-x,3/4+z
1/2+x,1/2-y,3/4-z
1/2-x,1/2+y,1/4-z
y,x,-z
-y,-x,1/2-z
loop_
_atom_site_type_symbol
_atom_site_label
_atom_site_fract_x
_atom_site_fract_y
_atom_site_fract_z
Si Si1 0.410602 0.356636 0.749344
Si Si2 0.323212 0.978381 0.396363
Si Si3 0.244264 0.143624 0.006215
Si Si4 0.248099 0.002758 0.882595
Si Si5 0.235172 0.319009 0.323734
Si Si6 0.644300 0.880978 0.859977
O O1 0.399226 0.399226 0.500000
O O2 0.482322 0.325133 0.721407
O O3 0.363014 0.294717 0.765061
O O4 0.401126 0.401126 0.000000
O O5 0.267190 0.969955 0.613532
O O6 0.369596 0.914201 0.406516
O O7 0.363659 0.044885 0.464477
O O8 0.296756 0.982600 0.110387
O O9 0.279675 0.122931 0.266586
O O10 0.169139 0.169139 0.000000
O O11 0.287630 0.204582 0.922367
O O12 0.247054 0.080188 0.827826
O O13 0.260208 0.260208 0.500000
O O14 0.177352 0.363448 0.439408
#
# Coordination Sequence:
#
# PCOD8305433 Si02
#       6
#     8   8   8   8   8   8
#     4  11  23  37  60  90 120 155 196 248 304 363
#     4  11  24  40  61  86 122 166 205 247 298 353
#     4  11  22  37  60  89 121 154 200 253 308 360
#     4  11  23  40  61  89 122 158 198 250 306 366
#     4  11  20  32  60  91 119 151 199 251 309 354
#     4  11  23  40  59  88 124 163 205 253 299 366
#
# _framework density 21.644621999999998
#
# number of rings (size 3 to 8) (size 9 to 14) (size 15 to 20)
#    0.000    1.000    5.000    2.500    4.667    0.000 
#    0.000    3.333    0.000    1.000    0.000    0.000 
#    0.000    0.000    0.000    0.000    0.000    0.000 
#
# Total GULP energy -594645.682717 kJ/mol
# GULP energy per Si atom -12388.451723 kJ/mol
# Density = 2.159536 g / cm^3
# Si number density = 21.644622 Si / 1000 Ang^3
#
#
#
# Elastic Constant Matrix: (Units=GPa)
#
#
# Indices 1 2 3 4 5 6 
#
# 1 59.0727 32.8880 8.7928 0.0000 0.0000 0.0000
# 2 32.8880 59.0727 8.7928 0.0000 0.0000 0.0000
# 3 8.7928 8.7928 86.5424 0.0000 0.0000 0.0000
# 4 0.0000 0.0000 0.0000 26.3263 0.0000 0.0000
# 5 0.0000 0.0000 0.0000 0.0000 26.3263 0.0000
# 6 0.0000 0.0000 0.0000 0.0000 0.0000 26.9892
#
#
#
# Elastic Compliance Matrix: (Units=1/GPa)
#
#
# Indices 1 2 3 4 5 6 
#
# 1 0.024640 -0.013550 -0.001127 0.000000 0.000000 0.000000
# 2 -0.013550 0.024640 -0.001127 0.000000 0.000000 0.000000
# 3 -0.001127 -0.001127 0.011784 0.000000 0.000000 0.000000
# 4 0.000000 0.000000 0.000000 0.037985 0.000000 0.000000
# 5 0.000000 0.000000 0.000000 0.000000 0.037985 0.000000
# 6 0.000000 0.000000 0.000000 0.000000 0.000000 0.037052
#
#
# Mechanical properties :
#
#
# Convention : Reuss Voigt Hill
#
# Bulk Modulus (GPa) = 33.94845 33.95946 33.95396
# Shear Modulus (GPa) = 23.20058 26.20929 24.70493
#
# Velocity S-wave (km/s) = 3.27752 3.48356 3.38211
# Velocity P-wave (km/s) = 5.48100 5.64835 5.56531
#
# Compressibility (1/GPa) = 0.02945642
#
# Stress axis : x y z
#
# Youngs Moduli (GPa) = 40.58448 40.58448 84.86095
#
# Poissons Ratio (x) = 0.54993 0.09562
# Poissons Ratio (y) = 0.54993 0.09562
# Poissons Ratio (z) = 0.04573 0.04573
#
# Static dielectric constant tensor:
#      x y z
#    x 4.357520 0.000000 0.000000 
#    y 0.000000 4.357520 0.000000 
#    z 0.000000 0.000000 3.725850 
# 
# 
# High freq. dielectric constant tensor:
#      x y z
#    x 1.836110 0.000000 0.000000 
#    y 0.000000 1.836110 0.000000 
#    z 0.000000 0.000000 1.846440 
# 
# From -- ./inp_files/660.got.cif
#   From: 2010.03.12/outbox.cif.g09.slc.cpg/sg92_1_cif.got.tgz:660.got - 2010.04.08 20:41:11.
