data_PCOD8305503
_publ_section_title
;
Structure prediction by ZEFSAII (Michael W. Deem and Ramdas Pophale) SiO2 
 PCOD8305503
Probable space group: P 41 21 2
;
_chemical_formula_sum "Si O2"
_cell_formula_units_Z 28
_cell_length_a 14.508752
_cell_length_b 14.508752
_cell_length_c 4.721422
_cell_angle_alpha 90.000000
_cell_angle_beta 90.000000
_cell_angle_gamma 90.000000
_cell_volume 993.877672
_symmetry_space_group_name_H-M "P 41 21 2"
_symmetry_group_IT_number 92
_symmetry_cell_setting 'tetragonal'
loop_
_space_group_symop_operation_xyz
x,y,z
1/2-y,1/2+x,1/4+z
-x,-y,1/2+z
1/2+y,1/2-x,3/4+z
1/2+x,1/2-y,3/4-z
1/2-x,1/2+y,1/4-z
y,x,-z
-y,-x,1/2-z
loop_
_atom_site_type_symbol
_atom_site_label
_atom_site_fract_x
_atom_site_fract_y
_atom_site_fract_z
Si Si1 0.730783 0.108231 0.633817
Si Si2 0.365721 0.961062 0.641966
Si Si3 0.399626 0.399626 0.500000
Si Si4 0.898619 0.898619 0.000000
Si Si5 0.191565 0.191565 0.000000
O O1 0.679261 0.027341 0.452713
O O2 0.834836 0.119142 0.523075
O O3 0.680958 0.208146 0.600935
O O4 0.717718 0.086306 0.966328
O O5 0.452532 0.895949 0.707993
O O6 0.501218 0.384441 0.380053
O O7 0.824463 0.884182 0.747733
#
# Coordination Sequence:
#
# PCOD8305503 Si02
#       5
#     8   8   4   4   4
#     4  12  28  51  84 118 168 216 277 355 423 504
#     4  12  27  49  81 122 159 215 274 348 430 511
#     4  12  31  57  80 133 169 234 290 356 428 510
#     4  12  30  54  90 116 182 224 292 352 426 524
#     4  12  29  53  80 129 155 222 288 346 432 502
#
# _framework density 28.172484000000001
#
# number of rings (size 3 to 8) (size 9 to 14) (size 15 to 20)
#    0.000    0.000    0.000    8.571   12.000    8.000 
#    0.000    0.000    0.000    0.000    0.000    0.000 
#    0.000    0.000    0.000    0.000    0.000    0.000 
#
# Total GULP energy -346978.085359 kJ/mol
# GULP energy per Si atom -12392.074477 kJ/mol
# Density = 2.810836 g / cm^3
# Si number density = 28.172484 Si / 1000 Ang^3
#
#
#
# Elastic Constant Matrix: (Units=GPa)
#
#
# Indices 1 2 3 4 5 6 
#
# 1 76.9682 79.9645 57.6399 0.0000 0.0000 0.0000
# 2 79.9645 76.9682 57.6399 0.0000 0.0000 0.0000
# 3 57.6399 57.6399 184.8394 0.0000 0.0000 0.0000
# 4 0.0000 0.0000 0.0000 48.8113 0.0000 0.0000
# 5 0.0000 0.0000 0.0000 0.0000 48.8113 0.0000
# 6 0.0000 0.0000 0.0000 0.0000 0.0000 41.5166
#
#
#
# Elastic Compliance Matrix: (Units=1/GPa)
#
#
# Indices 1 2 3 4 5 6 
#
# 1 -0.162741 0.171006 -0.002578 0.000000 0.000000 0.000000
# 2 0.171006 -0.162741 -0.002578 0.000000 0.000000 0.000000
# 3 -0.002578 -0.002578 0.007018 0.000000 0.000000 0.000000
# 4 0.000000 0.000000 0.000000 0.020487 0.000000 0.000000
# 5 0.000000 0.000000 0.000000 0.000000 0.020487 0.000000
# 6 0.000000 0.000000 0.000000 0.000000 0.000000 0.024087
#
#
# Mechanical properties :
#
#
# Convention : Reuss Voigt Hill
#
# Bulk Modulus (GPa) = 75.53617 81.02938 78.28278
# Shear Modulus (GPa) = -8.61040 37.39660 14.39310
#
# Velocity S-wave (km/s) = -1.75013 3.64732 2.26274
# Velocity P-wave (km/s) = 4.77350 6.82361 5.88846
#
# Compressibility (1/GPa) = 0.01323869
#
# Stress axis : x y z
#
# Youngs Moduli (GPa) = -6.14474 -6.14474 142.49818
#
# Poissons Ratio (x) = 1.05079 0.36729
# Poissons Ratio (y) = 1.05079 0.36729
# Poissons Ratio (z) = -0.01584 -0.01584
#
# Static dielectric constant tensor:
#      x y z
#    x 5.210580 0.000000 0.000000 
#    y 0.000000 5.210580 0.000000 
#    z 0.000000 0.000000 5.676140 
# 
# 
# High freq. dielectric constant tensor:
#      x y z
#    x 2.143980 0.000000 0.000000 
#    y 0.000000 2.143980 0.000000 
#    z 0.000000 0.000000 2.169320 
# 
# From -- ./inp_files/248.got.cif
#   From: 2010.03.12/outbox.cif.g09.slc.cpg/sg92_1_cif.got.tgz:248.got - 2010.04.08 20:41:11.
