data_PCOD8305411
_publ_section_title
;
Structure prediction by ZEFSAII (Michael W. Deem and Ramdas Pophale) SiO2 
 PCOD8305411
Probable space group: P 41 21 2
;
_chemical_formula_sum "Si O2"
_cell_formula_units_Z 48
_cell_length_a 11.163156
_cell_length_b 11.163156
_cell_length_c 17.224334
_cell_angle_alpha 90.000000
_cell_angle_beta 90.000000
_cell_angle_gamma 90.000000
_cell_volume 2146.428499
_symmetry_space_group_name_H-M "P 41 21 2"
_symmetry_group_IT_number 92
_symmetry_cell_setting 'tetragonal'
loop_
_space_group_symop_operation_xyz
x,y,z
1/2-y,1/2+x,1/4+z
-x,-y,1/2+z
1/2+y,1/2-x,3/4+z
1/2+x,1/2-y,3/4-z
1/2-x,1/2+y,1/4-z
y,x,-z
-y,-x,1/2-z
loop_
_atom_site_type_symbol
_atom_site_label
_atom_site_fract_x
_atom_site_fract_y
_atom_site_fract_z
Si Si1 0.235688 0.475445 0.384686
Si Si2 0.082402 0.156817 0.823194
Si Si3 0.382820 0.516664 0.901121
Si Si4 0.098661 0.516664 0.541060
Si Si5 0.820947 0.587813 0.306997
Si Si6 0.301563 0.431300 0.650892
O O1 0.327944 0.583561 0.370608
O O2 0.169887 0.518456 0.461708
O O3 0.317555 0.356317 0.395850
O O4 0.146599 0.456369 0.312436
O O5 0.114270 0.294132 0.840492
O O6 0.092090 0.126106 0.731315
O O7 0.947918 0.113777 0.844580
O O8 0.248945 0.487087 0.873086
O O9 0.457486 0.605316 0.844837
O O10 0.179560 0.472618 0.611676
O O11 0.991095 0.427692 0.524721
O O12 0.727005 0.613582 0.237930
#
# Coordination Sequence:
#
# PCOD8305411 Si02
#       6
#     8   8   8   8   8   8
#     4  11  24  44  70  95 139 178 233 283 352 423
#     4  10  23  46  65  91 132 189 222 276 347 417
#     4  10  23  43  68  91 133 180 229 272 347 416
#     4  12  24  39  68 105 131 173 229 292 344 412
#     4  12  25  38  67  99 136 167 228 284 344 415
#     4  11  23  42  67  99 130 180 222 287 350 406
#
# _framework density 22.362731
#
# number of rings (size 3 to 8) (size 9 to 14) (size 15 to 20)
#    0.000    1.000    3.333    3.000    4.667    1.333 
#    0.000    0.000    3.667    0.000    0.000    0.000 
#    0.000    0.000    0.000    0.000    0.000    0.000 
#
# Total GULP energy -595012.979415 kJ/mol
# GULP energy per Si atom -12396.103738 kJ/mol
# Density = 2.231183 g / cm^3
# Si number density = 22.362731 Si / 1000 Ang^3
#
#
#
# Elastic Constant Matrix: (Units=GPa)
#
#
# Indices 1 2 3 4 5 6 
#
# 1 87.1410 25.9777 10.3156 0.0000 0.0000 0.0000
# 2 25.9777 87.1410 10.3156 0.0000 0.0000 0.0000
# 3 10.3156 10.3156 32.5593 0.0000 0.0000 0.0000
# 4 0.0000 0.0000 0.0000 32.5128 0.0000 0.0000
# 5 0.0000 0.0000 0.0000 0.0000 32.5128 0.0000
# 6 0.0000 0.0000 0.0000 0.0000 0.0000 40.0278
#
#
#
# Elastic Compliance Matrix: (Units=1/GPa)
#
#
# Indices 1 2 3 4 5 6 
#
# 1 0.012866 -0.003484 -0.002973 0.000000 0.000000 0.000000
# 2 -0.003484 0.012866 -0.002973 0.000000 0.000000 0.000000
# 3 -0.002973 -0.002973 0.032597 0.000000 0.000000 0.000000
# 4 0.000000 0.000000 0.000000 0.030757 0.000000 0.000000
# 5 0.000000 0.000000 0.000000 0.000000 0.030757 0.000000
# 6 0.000000 0.000000 0.000000 0.000000 0.000000 0.024983
#
#
# Mechanical properties :
#
#
# Convention : Reuss Voigt Hill
#
# Bulk Modulus (GPa) = 25.33489 33.33990 29.33739
# Shear Modulus (GPa) = 28.27409 31.69285 29.98347
#
# Velocity S-wave (km/s) = 3.55961 3.76868 3.66564
# Velocity P-wave (km/s) = 5.31490 5.82051 5.57344
#
# Compressibility (1/GPa) = 0.03947127
#
# Stress axis : x y z
#
# Youngs Moduli (GPa) = 77.72397 77.72397 30.67792
#
# Poissons Ratio (x) = 0.27076 0.09119
# Poissons Ratio (y) = 0.27076 0.09119
# Poissons Ratio (z) = 0.23104 0.23104
#
# Static dielectric constant tensor:
#      x y z
#    x 4.097490 0.000000 0.000000 
#    y 0.000000 4.097490 0.000000 
#    z 0.000000 0.000000 3.782820 
# 
# 
# High freq. dielectric constant tensor:
#      x y z
#    x 1.886450 0.000000 0.000000 
#    y 0.000000 1.886450 0.000000 
#    z 0.000000 0.000000 1.857400 
# 
# From -- ./inp_files/3089.got.cif
#   From: 2010.03.12/outbox.cif.g09.slc.cpg/sg92_2_cif.got.tgz:3089.got - 2010.04.08 20:41:11.
