data_PCOD8305757
_publ_section_title
;
Structure prediction by ZEFSAII (Michael W. Deem and Ramdas Pophale) SiO2 
 PCOD8305757
Probable space group: P 42 21 2
;
_chemical_formula_sum "Si O2"
_cell_formula_units_Z 56
_cell_length_a 14.495046
_cell_length_b 14.495046
_cell_length_c 11.308929
_cell_angle_alpha 90.000000
_cell_angle_beta 90.000000
_cell_angle_gamma 90.000000
_cell_volume 2376.077891
_symmetry_space_group_name_H-M "P 42 21 2"
_symmetry_group_IT_number 94
_symmetry_cell_setting 'tetragonal'
loop_
_space_group_symop_operation_xyz
x,y,z
1/2-y,1/2+x,1/2+z
-x,-y,z
1/2+y,1/2-x,1/2+z
1/2+x,1/2-y,1/2-z
1/2-x,1/2+y,1/2-z
y,x,-z
-y,-x,-z
loop_
_atom_site_type_symbol
_atom_site_label
_atom_site_fract_x
_atom_site_fract_y
_atom_site_fract_z
Si Si1 0.421653 0.287514 0.065590
Si Si2 0.297253 0.830865 0.242033
Si Si3 0.489068 0.731066 0.835857
Si Si4 0.326502 0.840577 0.764855
Si Si5 0.908395 0.956767 0.732335
Si Si6 0.753165 0.597265 0.494873
Si Si7 0.401568 0.728485 0.429975
O O1 0.393025 0.198873 0.143989
O O2 0.471058 0.366168 0.140601
O O3 0.332982 0.332982 0.000000
O O4 0.494772 0.245711 0.973395
O O5 0.254101 0.730246 0.232983
O O6 0.322503 0.861080 0.106821
O O7 0.374818 0.818472 0.346204
O O8 0.222390 0.909399 0.276753
O O9 0.434281 0.814122 0.771280
O O10 0.431055 0.637951 0.833370
O O11 0.302383 0.900551 0.878683
O O12 0.845448 0.943656 0.843448
O O13 0.000000 0.000000 0.786128
O O14 0.656507 0.656507 0.500000
O O15 0.743534 0.485551 0.475568
O O16 0.311905 0.688096 0.500000
#
# Coordination Sequence:
#
# PCOD8305757 Si02
#       7
#     8   8   8   8   8   8   8
#     4  12  24  42  72 107 156 197 253 329 395 467
#     4  11  25  46  68 108 150 196 255 311 380 477
#     4  12  26  41  74 109 146 202 261 311 386 481
#     4  11  24  46  69 104 150 207 248 312 403 453
#     4  12  24  41  68 117 152 189 256 321 396 459
#     4  10  25  45  71 102 152 197 250 323 381 461
#     4  12  27  43  75 107 155 204 255 317 405 472
#
# _framework density 23.568252000000001
#
# number of rings (size 3 to 8) (size 9 to 14) (size 15 to 20)
#    0.000    0.571    5.714    1.286    8.000    1.143 
#    0.000    0.714    0.000    1.714    0.000    0.000 
#    0.000    0.000    0.000    0.000    0.000    0.000 
#
# Total GULP energy -693805.491063 kJ/mol
# GULP energy per Si atom -12389.383769 kJ/mol
# Density = 2.351461 g / cm^3
# Si number density = 23.568252 Si / 1000 Ang^3
#
#
#
# Elastic Constant Matrix: (Units=GPa)
#
#
# Indices 1 2 3 4 5 6 
#
# 1 80.6901 44.2021 30.9162 0.0000 0.0000 0.0000
# 2 44.2021 80.6905 30.9176 0.0000 0.0000 0.0000
# 3 30.9162 30.9176 119.0253 0.0000 0.0000 0.0000
# 4 0.0000 0.0000 0.0000 27.0314 0.0000 0.0000
# 5 0.0000 0.0000 0.0000 0.0000 27.0324 0.0000
# 6 0.0000 0.0000 0.0000 0.0000 0.0000 34.6601
#
#
#
# Elastic Compliance Matrix: (Units=1/GPa)
#
#
# Indices 1 2 3 4 5 6 
#
# 1 0.018297 -0.009109 -0.002387 0.000000 0.000000 0.000000
# 2 -0.009109 0.018297 -0.002387 0.000000 0.000000 0.000000
# 3 -0.002387 -0.002387 0.009641 0.000000 0.000000 0.000000
# 4 0.000000 0.000000 0.000000 0.036994 0.000000 0.000000
# 5 0.000000 0.000000 0.000000 0.000000 0.036993 0.000000
# 6 0.000000 0.000000 0.000000 0.000000 0.000000 0.028852
#
#
# Mechanical properties :
#
#
# Convention : Reuss Voigt Hill
#
# Bulk Modulus (GPa) = 54.13697 54.71974 54.42835
# Shear Modulus (GPa) = 27.32296 29.36943 28.34620
#
# Velocity S-wave (km/s) = 3.40856 3.53391 3.47180
# Velocity P-wave (km/s) = 6.20574 6.31817 6.26221
#
# Compressibility (1/GPa) = 0.01847167
#
# Stress axis : x y z
#
# Youngs Moduli (GPa) = 54.65279 54.65256 103.71844
#
# Poissons Ratio (x) = 0.49782 0.24753
# Poissons Ratio (y) = 0.49782 0.24757
# Poissons Ratio (z) = 0.13043 0.13045
#
# Static dielectric constant tensor:
#      x y z
#    x 4.279610 0.000000 0.000000 
#    y 0.000000 4.279610 0.000000 
#    z 0.000000 0.000000 4.870900 
# 
# 
# High freq. dielectric constant tensor:
#      x y z
#    x 1.912450 0.000000 0.000000 
#    y 0.000000 1.912450 0.000000 
#    z 0.000000 0.000000 1.958050 
# 
# From -- ./inp_files/2720.got.cif
#   From: 2010.03.12/outbox.cif.g09.slc.cpg/sg94_2_cif.got.tgz:2720.got - 2010.04.08 20:48:32.
