data_PCOD8305871
_publ_section_title
;
Structure prediction by ZEFSAII (Michael W. Deem and Ramdas Pophale) SiO2 
 PCOD8305871
Probable space group: P 43 21 2
;
_chemical_formula_sum "Si O2"
_cell_formula_units_Z 44
_cell_length_a 14.106357
_cell_length_b 14.106357
_cell_length_c 11.160479
_cell_angle_alpha 90.000000
_cell_angle_beta 90.000000
_cell_angle_gamma 90.000000
_cell_volume 2220.815991
_symmetry_space_group_name_H-M "P 43 21 2"
_symmetry_group_IT_number 96
_symmetry_cell_setting 'tetragonal'
loop_
_space_group_symop_operation_xyz
x,y,z
1/2-y,1/2+x,3/4+z
-x,-y,1/2+z
1/2+y,1/2-x,1/4+z
1/2+x,1/2-y,1/4-z
1/2-x,1/2+y,3/4-z
y,x,-z
-y,-x,1/2-z
loop_
_atom_site_type_symbol
_atom_site_label
_atom_site_fract_x
_atom_site_fract_y
_atom_site_fract_z
Si Si1 0.120176 0.120176 0.500000
Si Si2 0.315267 0.126105 0.384046
Si Si3 0.162133 0.837868 0.750000
Si Si4 0.367700 0.550053 0.988154
Si Si5 0.779926 0.576865 0.915943
Si Si6 0.429183 0.429183 0.500000
Si Si7 0.267452 0.218461 0.780730
O O1 0.229482 0.106541 0.472862
O O2 0.056849 0.103798 0.380978
O O3 0.393772 0.186123 0.452423
O O4 0.290358 0.188415 0.268359
O O5 0.341653 0.018839 0.349380
O O6 0.236628 0.816899 0.645388
O O7 0.053414 0.825978 0.707679
O O8 0.470428 0.570556 0.925039
O O9 0.288407 0.621678 0.939480
O O10 0.808075 0.652535 0.815752
O O11 0.664671 0.568282 0.915324
#
# Coordination Sequence:
#
# PCOD8305871 Si02
#       7
#     4   8   4   8   8   4   8
#     4  10  15  36  64  86 115 150 202 278 290 363
#     4  11  21  37  66  94 121 161 217 261 314 379
#     4  11  26  42  60  92 135 178 198 258 333 380
#     4  10  22  40  62  97 118 161 218 254 323 377
#     4  12  21  39  68  96 123 163 216 269 323 362
#     4  11  19  34  66  98 114 144 212 280 307 353
#     4  11  22  41  63  88 133 166 205 266 318 388
#
# _framework density 19.812539000000001
#
# number of rings (size 3 to 8) (size 9 to 14) (size 15 to 20)
#    0.000    1.091    9.091    1.091    0.000    0.000 
#    6.545    1.818    0.000    0.000    0.000    0.000 
#    0.000    0.000    0.000    0.000    0.000    0.000 
#
# Total GULP energy -545079.106587 kJ/mol
# GULP energy per Si atom -12388.161513 kJ/mol
# Density = 1.976744 g / cm^3
# Si number density = 19.812539 Si / 1000 Ang^3
#
#
#
# Elastic Constant Matrix: (Units=GPa)
#
#
# Indices 1 2 3 4 5 6 
#
# 1 123.5111 41.9281 19.5768 0.0000 0.0000 0.0000
# 2 41.9281 123.5100 19.5759 0.0000 0.0000 0.0000
# 3 19.5768 19.5759 39.5093 0.0000 0.0000 0.0000
# 4 0.0000 0.0000 0.0000 18.5446 0.0000 0.0000
# 5 0.0000 0.0000 0.0000 0.0000 18.5451 0.0000
# 6 0.0000 0.0000 0.0000 0.0000 0.0000 41.6899
#
#
#
# Elastic Compliance Matrix: (Units=1/GPa)
#
#
# Indices 1 2 3 4 5 6 
#
# 1 0.009553 -0.002705 -0.003393 0.000000 0.000000 0.000000
# 2 -0.002705 0.009553 -0.003393 0.000000 0.000000 0.000000
# 3 -0.003393 -0.003393 0.028673 0.000000 0.000000 0.000000
# 4 0.000000 0.000000 0.000000 0.053924 0.000000 0.000000
# 5 0.000000 0.000000 0.000000 0.000000 0.053923 0.000000
# 6 0.000000 0.000000 0.000000 0.000000 0.000000 0.023987
#
#
# Mechanical properties :
#
#
# Convention : Reuss Voigt Hill
#
# Bulk Modulus (GPa) = 34.72666 49.85467 42.29066
# Shear Modulus (GPa) = 24.01638 29.45255 26.73447
#
# Velocity S-wave (km/s) = 3.48542 3.85978 3.67736
# Velocity P-wave (km/s) = 5.81061 6.71429 6.27873
#
# Compressibility (1/GPa) = 0.02879632
#
# Stress axis : x y z
#
# Youngs Moduli (GPa) = 104.68455 104.68440 34.87637
#
# Poissons Ratio (x) = 0.28317 0.11834
# Poissons Ratio (y) = 0.28317 0.11832
# Poissons Ratio (z) = 0.35519 0.35516
#
# Static dielectric constant tensor:
#      x y z
#    x 3.696580 0.000000 0.000000 
#    y 0.000000 3.696570 0.000000 
#    z 0.000000 0.000000 3.164860 
# 
# 
# High freq. dielectric constant tensor:
#      x y z
#    x 1.777170 0.000000 0.000000 
#    y 0.000000 1.777170 0.000000 
#    z 0.000000 0.000000 1.739250 
# 
# From -- ./inp_files/2162.got.cif
#   From: 2010.03.12/outbox.cif.g09.slc.cpg/sg96_2_cif.got.tgz:2162.got - 2010.04.08 20:56:49.
