data_PCOD8305327
_publ_section_title
;
Structure prediction by ZEFSAII (Michael W. Deem and Ramdas Pophale) SiO2 
 PCOD8305327
Probable space group: P 41 21 2
;
_chemical_formula_sum "Si O2"
_cell_formula_units_Z 60
_cell_length_a 12.086066
_cell_length_b 12.086066
_cell_length_c 19.738110
_cell_angle_alpha 90.000000
_cell_angle_beta 90.000000
_cell_angle_gamma 90.000000
_cell_volume 2883.204771
_symmetry_space_group_name_H-M "P 41 21 2"
_symmetry_group_IT_number 92
_symmetry_cell_setting 'tetragonal'
loop_
_space_group_symop_operation_xyz
x,y,z
1/2-y,1/2+x,1/4+z
-x,-y,1/2+z
1/2+y,1/2-x,3/4+z
1/2+x,1/2-y,3/4-z
1/2-x,1/2+y,1/4-z
y,x,-z
-y,-x,1/2-z
loop_
_atom_site_type_symbol
_atom_site_label
_atom_site_fract_x
_atom_site_fract_y
_atom_site_fract_z
Si Si1 0.539582 0.963825 0.880287
Si Si2 0.821193 0.327287 0.634439
Si Si3 0.641653 0.020904 0.272742
Si Si4 0.616251 0.552309 0.426985
Si Si5 0.761315 0.238686 0.250000
Si Si6 0.146940 0.018381 0.054090
Si Si7 0.194829 0.723332 0.484762
Si Si8 0.240058 0.161105 0.359129
O O1 0.432324 0.938723 0.835404
O O2 0.637835 0.888447 0.851956
O O3 0.573319 0.092304 0.876475
O O4 0.509309 0.936284 0.957272
O O5 0.872124 0.225819 0.676446
O O6 0.717996 0.374114 0.676081
O O7 0.787237 0.284538 0.560386
O O8 0.740655 0.108061 0.260290
O O9 0.694726 0.903166 0.290158
O O10 0.559947 0.559947 0.500000
O O11 0.528351 0.589252 0.371057
O O12 0.647023 0.425468 0.413451
O O13 0.692986 0.284867 0.186427
O O14 0.224735 0.926482 0.020284
O O15 0.054301 0.054301 0.000000
O O16 0.230534 0.732116 0.562818
#
# Coordination Sequence:
#
# PCOD8305327 Si02
#       8
#     8   8   8   8   4   8   8   8
#     4  10  21  40  68  92 121 172 218 260 322 401
#     4  10  21  41  64  94 127 167 216 272 333 406
#     4  11  22  41  65  95 126 167 218 265 325 386
#     4  10  22  41  65  93 125 170 217 268 339 402
#     4  10  24  42  62  94 128 172 222 266 322 394
#     4  11  24  42  64 100 131 168 215 278 342 393
#     4  11  23  42  66  96 132 170 215 277 334 393
#     4  10  22  42  64  90 128 172 215 264 324 399
#
# _framework density 20.810176999999999
#
# number of rings (size 3 to 8) (size 9 to 14) (size 15 to 20)
#    0.000    1.600    1.333    2.800    0.933    4.267 
#    8.400    0.000    0.000    0.000    0.000    0.000 
#    0.000    0.000    0.000    0.000    0.000    0.000 
#
# Total GULP energy -744383.165323 kJ/mol
# GULP energy per Si atom -12406.386089 kJ/mol
# Density = 2.076281 g / cm^3
# Si number density = 20.810177 Si / 1000 Ang^3
#
#
#
# Elastic Constant Matrix: (Units=GPa)
#
#
# Indices 1 2 3 4 5 6 
#
# 1 90.8671 40.4310 46.9869 0.0000 0.0000 0.0000
# 2 40.4310 90.8664 46.9869 0.0000 0.0000 0.0000
# 3 46.9869 46.9869 129.4970 0.0000 0.0000 0.0000
# 4 0.0000 0.0000 0.0000 30.2223 0.0000 0.0000
# 5 0.0000 0.0000 0.0000 0.0000 30.2223 0.0000
# 6 0.0000 0.0000 0.0000 0.0000 0.0000 30.4304
#
#
#
# Elastic Compliance Matrix: (Units=1/GPa)
#
#
# Indices 1 2 3 4 5 6 
#
# 1 0.015058 -0.004770 -0.003733 0.000000 0.000000 0.000000
# 2 -0.004770 0.015058 -0.003733 0.000000 0.000000 0.000000
# 3 -0.003733 -0.003733 0.010431 0.000000 0.000000 0.000000
# 4 0.000000 0.000000 0.000000 0.033088 0.000000 0.000000
# 5 0.000000 0.000000 0.000000 0.000000 0.033088 0.000000
# 6 0.000000 0.000000 0.000000 0.000000 0.000000 0.032862
#
#
# Mechanical properties :
#
#
# Convention : Reuss Voigt Hill
#
# Bulk Modulus (GPa) = 62.20651 64.44889 63.32770
# Shear Modulus (GPa) = 29.51352 29.96338 29.73845
#
# Velocity S-wave (km/s) = 3.77002 3.79864 3.78436
# Velocity P-wave (km/s) = 6.99342 7.09061 7.04218
#
# Compressibility (1/GPa) = 0.01607549
#
# Stress axis : x y z
#
# Youngs Moduli (GPa) = 66.41184 66.41124 95.86710
#
# Poissons Ratio (x) = 0.31675 0.35786
# Poissons Ratio (y) = 0.31676 0.35787
# Poissons Ratio (z) = 0.24791 0.24791
#
# Static dielectric constant tensor:
#      x y z
#    x 3.753570 0.000000 0.000000 
#    y 0.000000 3.753580 0.000000 
#    z 0.000000 0.000000 3.731790 
# 
# 
# High freq. dielectric constant tensor:
#      x y z
#    x 1.815350 0.000000 0.000000 
#    y 0.000000 1.815350 0.000000 
#    z 0.000000 0.000000 1.823310 
# 
# From -- ./inp_files/3616.got.cif
#   From: 2010.03.12/outbox.cif.g09.slc.cpg/sg92_2_cif.got.tgz:3616.got - 2010.04.08 20:41:11.
