data_PCOD8305132
_publ_section_title
;
Structure prediction by ZEFSAII (Michael W. Deem and Ramdas Pophale) SiO2 
 PCOD8305132
Probable space group: P 41 2 2
;
_chemical_formula_sum "Si O2"
_cell_formula_units_Z 36
_cell_length_a 11.401236
_cell_length_b 11.401236
_cell_length_c 12.730285
_cell_angle_alpha 90.000000
_cell_angle_beta 90.000000
_cell_angle_gamma 90.000000
_cell_volume 1654.786608
_symmetry_space_group_name_H-M "P 41 2 2"
_symmetry_group_IT_number 91
_symmetry_cell_setting 'tetragonal'
loop_
_space_group_symop_operation_xyz
x,y,z
-y,x,1/4+z
-x,-y,1/2+z
y,-x,3/4+z
x,-y,1/2-z
-x,y,-z
y,x,3/4-z
-y,-x,1/4-z
loop_
_atom_site_type_symbol
_atom_site_label
_atom_site_fract_x
_atom_site_fract_y
_atom_site_fract_z
Si Si1 0.118640 0.175916 0.551089
Si Si2 0.104393 0.500000 0.250000
Si Si3 0.577831 0.238244 0.103578
Si Si4 0.864441 0.573355 0.970156
Si Si5 0.958769 0.278433 0.233827
O O1 0.162182 0.285278 0.476879
O O2 0.104465 0.217004 0.669651
O O3 0.000000 0.126470 0.500000
O O4 0.202879 0.064780 0.563162
O O5 0.175541 0.492474 0.360021
O O6 0.019236 0.393636 0.276596
O O7 0.636983 0.363018 0.125000
O O8 0.489294 0.217886 0.197630
O O9 0.681239 0.138848 0.100402
O O10 0.500000 0.241735 0.000000
O O11 0.000000 0.550145 0.000000
#
# Coordination Sequence:
#
# PCOD8305132 Si02
#       5
#     8   4   8   8   8
#     4  11  23  40  68  99 151 185 221 295 360 421
#     4  12  22  40  68  96 136 188 246 268 338 422
#     4  12  26  47  76 100 141 182 234 303 357 422
#     4  11  21  42  69  99 138 186 233 289 349 423
#     4  12  23  42  68 106 140 186 232 289 355 432
#
# _framework density 21.75507
#
# number of rings (size 3 to 8) (size 9 to 14) (size 15 to 20)
#    0.000    0.444   10.000    0.667    3.111    1.778 
#    0.000    0.000    9.778    0.000    0.000    0.000 
#    0.000    0.000    0.000    0.000    0.000    0.000 
#
# Total GULP energy -446011.436009 kJ/mol
# GULP energy per Si atom -12389.206556 kJ/mol
# Density = 2.170555 g / cm^3
# Si number density = 21.755070 Si / 1000 Ang^3
#
#
#
# Elastic Constant Matrix: (Units=GPa)
#
#
# Indices 1 2 3 4 5 6 
#
# 1 94.2425 69.1699 38.4465 0.0000 0.0000 0.0000
# 2 69.1699 94.2403 38.4460 0.0000 0.0000 0.0000
# 3 38.4465 38.4460 141.0030 0.0000 0.0000 0.0000
# 4 0.0000 0.0000 0.0000 14.3759 0.0000 0.0000
# 5 0.0000 0.0000 0.0000 0.0000 14.3757 0.0000
# 6 0.0000 0.0000 0.0000 0.0000 0.0000 28.0444
#
#
#
# Elastic Compliance Matrix: (Units=1/GPa)
#
#
# Indices 1 2 3 4 5 6 
#
# 1 0.023453 -0.016433 -0.001914 0.000000 0.000000 0.000000
# 2 -0.016433 0.023453 -0.001914 0.000000 0.000000 0.000000
# 3 -0.001914 -0.001914 0.008136 0.000000 0.000000 0.000000
# 4 0.000000 0.000000 0.000000 0.069561 0.000000 0.000000
# 5 0.000000 0.000000 0.000000 0.000000 0.069562 0.000000
# 6 0.000000 0.000000 0.000000 0.000000 0.000000 0.035658
#
#
# Mechanical properties :
#
#
# Convention : Reuss Voigt Hill
#
# Bulk Modulus (GPa) = 68.87185 69.06785 68.96985
# Shear Modulus (GPa) = 18.16961 23.58742 20.87852
#
# Velocity S-wave (km/s) = 2.89310 3.29633 3.10128
# Velocity P-wave (km/s) = 6.54879 6.80475 6.67799
#
# Compressibility (1/GPa) = 0.01451972
#
# Stress axis : x y z
#
# Youngs Moduli (GPa) = 42.63876 42.63782 122.91229
#
# Poissons Ratio (x) = 0.70066 0.23527
# Poissons Ratio (y) = 0.70068 0.23527
# Poissons Ratio (z) = 0.08162 0.08162
#
# Static dielectric constant tensor:
#      x y z
#    x 3.752400 0.000000 0.000000 
#    y 0.000000 3.752400 0.000000 
#    z 0.000000 0.000000 -0.098840 
# 
# 
# High freq. dielectric constant tensor:
#      x y z
#    x 1.841320 0.000000 0.000000 
#    y 0.000000 1.841320 0.000000 
#    z 0.000000 0.000000 1.863820 
# 
# From -- ./inp_files/3522.got.cif
#   From: 2010.03.12/outbox.cif.g09.slc.cpg/sg91_2_cif.got.tgz:3522.got - 2010.04.08 20:27:58.
