data_PCOD8305339
_publ_section_title
;
Structure prediction by ZEFSAII (Michael W. Deem and Ramdas Pophale) SiO2 
 PCOD8305339
Probable space group: P 41 21 2
;
_chemical_formula_sum "Si O2"
_cell_formula_units_Z 40
_cell_length_a 7.606538
_cell_length_b 7.606538
_cell_length_c 23.851192
_cell_angle_alpha 90.000000
_cell_angle_beta 90.000000
_cell_angle_gamma 90.000000
_cell_volume 1380.016144
_symmetry_space_group_name_H-M "P 41 21 2"
_symmetry_group_IT_number 92
_symmetry_cell_setting 'tetragonal'
loop_
_space_group_symop_operation_xyz
x,y,z
1/2-y,1/2+x,1/4+z
-x,-y,1/2+z
1/2+y,1/2-x,3/4+z
1/2+x,1/2-y,3/4-z
1/2-x,1/2+y,1/4-z
y,x,-z
-y,-x,1/2-z
loop_
_atom_site_type_symbol
_atom_site_label
_atom_site_fract_x
_atom_site_fract_y
_atom_site_fract_z
Si Si1 0.149266 0.082871 0.696534
Si Si2 0.762836 0.749610 0.085023
Si Si3 0.014101 0.585761 0.335434
Si Si4 0.306553 0.306553 0.000000
Si Si5 0.953899 0.953899 0.000000
Si Si6 0.688943 0.799482 0.304051
O O1 0.256098 0.185757 0.648179
O O2 0.277647 0.083327 0.749657
O O3 0.967775 0.185071 0.705808
O O4 0.097483 0.876572 0.681710
O O5 0.799011 0.919225 0.046161
O O6 0.908130 0.593756 0.075245
O O7 0.872794 0.740447 0.330525
O O8 0.168127 0.628717 0.287913
O O9 0.089135 0.584352 0.399018
O O10 0.136153 0.933983 0.033421
#
# Coordination Sequence:
#
# PCOD8305339 Si02
#       6
#     8   8   8   4   4   8
#     4  11  24  40  64  94 130 169 215 270 329 393
#     4  11  24  42  66  96 131 170 216 270 328 393
#     4  10  23  41  64  93 130 170 219 272 328 394
#     4  10  21  42  63  88 124 170 215 268 325 384
#     4  10  21  42  67  92 126 170 221 272 325 390
#     4  10  23  41  64  95 130 173 221 273 329 391
#
# _framework density 28.985171000000001
#
# number of rings (size 3 to 8) (size 9 to 14) (size 15 to 20)
#    0.000    1.600    0.000    4.200    0.000   12.800 
#    0.000    1.000    0.000    0.000    0.000    0.000 
#    0.000    0.000    0.000    0.000    0.000    0.000 
#
# Total GULP energy -495706.142149 kJ/mol
# GULP energy per Si atom -12392.653554 kJ/mol
# Density = 2.891920 g / cm^3
# Si number density = 28.985171 Si / 1000 Ang^3
#
#
#
# Elastic Constant Matrix: (Units=GPa)
#
#
# Indices 1 2 3 4 5 6 
#
# 1 40.8778 -16.9870 16.1524 0.0000 0.0000 0.0000
# 2 -16.9870 40.8778 16.1524 0.0000 0.0000 0.0000
# 3 16.1524 16.1524 175.3793 0.0000 0.0000 0.0000
# 4 0.0000 0.0000 0.0000 55.2933 0.0000 0.0000
# 5 0.0000 0.0000 0.0000 0.0000 55.2933 0.0000
# 6 0.0000 0.0000 0.0000 0.0000 0.0000 40.0447
#
#
#
# Elastic Compliance Matrix: (Units=1/GPa)
#
#
# Indices 1 2 3 4 5 6 
#
# 1 0.032546 0.015265 -0.004403 0.000000 0.000000 0.000000
# 2 0.015265 0.032546 -0.004403 0.000000 0.000000 0.000000
# 3 -0.004403 -0.004403 0.006513 0.000000 0.000000 0.000000
# 4 0.000000 0.000000 0.000000 0.018085 0.000000 0.000000
# 5 0.000000 0.000000 0.000000 0.000000 0.018085 0.000000
# 6 0.000000 0.000000 0.000000 0.000000 0.000000 0.024972
#
#
# Mechanical properties :
#
#
# Convention : Reuss Voigt Hill
#
# Bulk Modulus (GPa) = 11.83125 31.97450 21.90287
# Shear Modulus (GPa) = 33.78223 46.24741 40.01482
#
# Velocity S-wave (km/s) = 3.41765 3.99877 3.71958
# Velocity P-wave (km/s) = 4.43446 5.68995 5.10098
#
# Compressibility (1/GPa) = 0.08452194
#
# Stress axis : x y z
#
# Youngs Moduli (GPa) = 30.72530 30.72530 153.53835
#
# Poissons Ratio (x) = -0.46902 0.67609
# Poissons Ratio (y) = -0.46902 0.67609
# Poissons Ratio (z) = 0.13530 0.13530
#
# Static dielectric constant tensor:
#      x y z
#    x 5.732540 0.000000 0.000000 
#    y 0.000000 5.732540 0.000000 
#    z 0.000000 0.000000 5.414920 
# 
# 
# High freq. dielectric constant tensor:
#      x y z
#    x 2.187610 0.000000 0.000000 
#    y 0.000000 2.187610 0.000000 
#    z 0.000000 0.000000 2.188530 
# 
# From -- ./inp_files/3831.got.cif
#   From: 2010.03.12/outbox.cif.g09.slc.cpg/sg92_2_cif.got.tgz:3831.got - 2010.04.08 20:41:11.
