data_PCOD8305150
_publ_section_title
;
Structure prediction by ZEFSAII (Michael W. Deem and Ramdas Pophale) SiO2 
 PCOD8305150
Probable space group: P 41 2 2
;
_chemical_formula_sum "Si O2"
_cell_formula_units_Z 40
_cell_length_a 8.521766
_cell_length_b 8.521766
_cell_length_c 23.490747
_cell_angle_alpha 90.000000
_cell_angle_beta 90.000000
_cell_angle_gamma 90.000000
_cell_volume 1705.909693
_symmetry_space_group_name_H-M "P 41 2 2"
_symmetry_group_IT_number 91
_symmetry_cell_setting 'tetragonal'
loop_
_space_group_symop_operation_xyz
x,y,z
-y,x,1/4+z
-x,-y,1/2+z
y,-x,3/4+z
x,-y,1/2-z
-x,y,-z
y,x,3/4-z
-y,-x,1/4-z
loop_
_atom_site_type_symbol
_atom_site_label
_atom_site_fract_x
_atom_site_fract_y
_atom_site_fract_z
Si Si1 0.321940 0.827053 0.775117
Si Si2 0.324587 0.833270 0.375834
Si Si3 0.654008 0.114635 0.699428
Si Si4 0.329672 0.174676 0.924893
Si Si5 0.831422 0.328553 0.773798
O O1 0.192333 0.800946 0.824213
O O2 0.488897 0.792300 0.806573
O O3 0.300214 0.699641 0.724990
O O4 0.295760 0.000000 0.750000
O O5 0.497933 0.801148 0.399664
O O6 0.294545 0.717084 0.322398
O O7 0.307246 0.015735 0.357215
O O8 0.801958 0.220419 0.717834
O O9 0.608374 0.000000 0.750000
O O10 0.202822 0.202822 0.875000
O O11 0.302405 0.003488 0.951306
O O12 0.803877 0.500000 0.750000
#
# Coordination Sequence:
#
# PCOD8305150 Si02
#       5
#     8   8   8   8   8
#     4  11  23  43  71 102 137 180 232 285 342 413
#     4  11  23  44  70  99 141 183 224 283 346 411
#     4   9  21  43  66  94 136 178 221 276 337 404
#     4  12  25  45  70  99 136 179 233 288 341 410
#     4  11  24  45  70 102 139 178 230 286 342 408
#
# _framework density 23.447901999999999
#
# number of rings (size 3 to 8) (size 9 to 14) (size 15 to 20)
#    0.000    1.200    0.000    7.800    0.000    5.600 
#    0.000   23.000    0.000    0.000    0.000    0.000 
#    0.000    0.000    0.000    0.000    0.000    0.000 
#
# Total GULP energy -495833.056398 kJ/mol
# GULP energy per Si atom -12395.826410 kJ/mol
# Density = 2.339453 g / cm^3
# Si number density = 23.447902 Si / 1000 Ang^3
#
#
#
# Elastic Constant Matrix: (Units=GPa)
#
#
# Indices 1 2 3 4 5 6 
#
# 1 116.2566 96.2410 71.2961 0.0000 0.0000 0.0000
# 2 96.2410 116.2566 71.2961 0.0000 0.0000 0.0000
# 3 71.2961 71.2961 137.7244 0.0000 0.0000 0.0000
# 4 0.0000 0.0000 0.0000 50.4811 0.0000 0.0000
# 5 0.0000 0.0000 0.0000 0.0000 50.4811 0.0000
# 6 0.0000 0.0000 0.0000 0.0000 0.0000 33.6019
#
#
#
# Elastic Compliance Matrix: (Units=1/GPa)
#
#
# Indices 1 2 3 4 5 6 
#
# 1 0.028586 -0.021375 -0.003733 0.000000 0.000000 0.000000
# 2 -0.021375 0.028586 -0.003733 0.000000 0.000000 0.000000
# 3 -0.003733 -0.003733 0.011126 0.000000 0.000000 0.000000
# 4 0.000000 0.000000 0.000000 0.019809 0.000000 0.000000
# 5 0.000000 0.000000 0.000000 0.000000 0.019809 0.000000
# 6 0.000000 0.000000 0.000000 0.000000 0.000000 0.029760
#
#
# Mechanical properties :
#
#
# Convention : Reuss Voigt Hill
#
# Bulk Modulus (GPa) = 94.19829 94.21154 94.20491
# Shear Modulus (GPa) = 25.13872 35.67314 30.40593
#
# Velocity S-wave (km/s) = 3.27786 3.90472 3.60494
# Velocity P-wave (km/s) = 7.38827 7.78431 7.58887
#
# Compressibility (1/GPa) = 0.01061590
#
# Stress axis : x y z
#
# Youngs Moduli (GPa) = 34.98233 34.98233 89.88262
#
# Poissons Ratio (x) = 0.74775 0.33551
# Poissons Ratio (y) = 0.74775 0.33551
# Poissons Ratio (z) = 0.13058 0.13058
#
# Static dielectric constant tensor:
#      x y z
#    x 4.261530 0.000000 0.000000 
#    y 0.000000 4.261530 0.000000 
#    z 0.000000 0.000000 4.648400 
# 
# 
# High freq. dielectric constant tensor:
#      x y z
#    x 1.921160 0.000000 0.000000 
#    y 0.000000 1.921160 0.000000 
#    z 0.000000 0.000000 1.947690 
# 
# From -- ./inp_files/13155.got.cif
#   From: 2010.03.12/outbox.cif.g09.slc.cpg/sg91_7_cif.got.tgz:13155.got - 2010.04.08 20:27:58.
