data_PCOD8305580
_publ_section_title
;
Structure prediction by ZEFSAII (Michael W. Deem and Ramdas Pophale) SiO2 
 PCOD8305580
Probable space group: P 42 2 2
;
_chemical_formula_sum "Si O2"
_cell_formula_units_Z 44
_cell_length_a 8.611948
_cell_length_b 8.611948
_cell_length_c 27.634233
_cell_angle_alpha 90.000000
_cell_angle_beta 90.000000
_cell_angle_gamma 90.000000
_cell_volume 2049.510807
_symmetry_space_group_name_H-M "P 42 2 2"
_symmetry_group_IT_number 93
_symmetry_cell_setting 'tetragonal'
loop_
_space_group_symop_operation_xyz
x,y,z
-y,x,1/2+z
-x,-y,z
y,-x,1/2+z
x,-y,-z
-x,y,-z
y,x,1/2-z
-y,-x,1/2-z
loop_
_atom_site_type_symbol
_atom_site_label
_atom_site_fract_x
_atom_site_fract_y
_atom_site_fract_z
Si Si1 0.647578 0.392923 0.436445
Si Si2 0.673880 0.803433 0.108704
Si Si3 0.000000 0.500000 0.675796
Si Si4 0.494467 0.745803 0.746393
Si Si5 0.177027 0.823342 0.510641
Si Si6 0.824581 0.498825 0.859537
O O1 0.500000 0.500000 0.451014
O O2 0.779652 0.505925 0.416307
O O3 0.709169 0.298164 0.483390
O O4 0.614355 0.271060 0.393807
O O5 0.650099 0.954872 0.142518
O O6 0.731709 0.662932 0.141725
O O7 0.805635 0.814659 0.068192
O O8 0.854974 0.543119 0.709133
O O9 0.593986 0.593986 0.750000
O O10 0.314034 0.685967 0.750000
O O11 0.543546 0.831824 0.696803
O O12 0.000000 0.785665 0.500000
O O13 0.226570 0.000000 0.500000
O O14 0.000000 0.500000 0.879978
#
# Coordination Sequence:
#
# PCOD8305580 Si02
#       6
#     8   8   4   8   8   8
#     4  10  23  41  64  97 130 172 230 283 336 401
#     4  11  23  38  65  94 126 172 225 279 337 407
#     4  12  22  40  67 100 132 169 222 284 340 406
#     4  11  23  40  65  93 131 173 224 273 337 400
#     4  11  24  43  64  93 135 182 221 280 353 425
#     4  11  22  39  62  93 130 175 221 280 342 410
#
# _framework density 21.468539
#
# number of rings (size 3 to 8) (size 9 to 14) (size 15 to 20)
#    0.000    1.091    2.727    3.818    5.091    5.818 
#    0.000    4.545    0.000    6.000    0.000    0.000 
#    0.000    0.000    0.000    0.000    0.000    0.000 
#
# Total GULP energy -545341.252465 kJ/mol
# GULP energy per Si atom -12394.119374 kJ/mol
# Density = 2.141968 g / cm^3
# Si number density = 21.468539 Si / 1000 Ang^3
#
#
#
# Elastic Constant Matrix: (Units=GPa)
#
#
# Indices 1 2 3 4 5 6 
#
# 1 100.7291 30.8832 42.1895 0.0000 0.0000 0.0000
# 2 30.8832 100.7287 42.1895 0.0000 0.0000 0.0000
# 3 42.1895 42.1895 147.7190 0.0000 0.0000 0.0000
# 4 0.0000 0.0000 0.0000 33.4935 0.0000 0.0000
# 5 0.0000 0.0000 0.0000 0.0000 33.4934 0.0000
# 6 0.0000 0.0000 0.0000 0.0000 0.0000 20.9019
#
#
#
# Elastic Compliance Matrix: (Units=1/GPa)
#
#
# Indices 1 2 3 4 5 6 
#
# 1 0.011809 -0.002508 -0.002656 0.000000 0.000000 0.000000
# 2 -0.002508 0.011809 -0.002656 0.000000 0.000000 0.000000
# 3 -0.002656 -0.002656 0.008287 0.000000 0.000000 0.000000
# 4 0.000000 0.000000 0.000000 0.029857 0.000000 0.000000
# 5 0.000000 0.000000 0.000000 0.000000 0.029857 0.000000
# 6 0.000000 0.000000 0.000000 0.000000 0.000000 0.047843
#
#
# Mechanical properties :
#
#
# Convention : Reuss Voigt Hill
#
# Bulk Modulus (GPa) = 61.48736 64.41124 62.94930
# Shear Modulus (GPa) = 31.14791 33.17206 32.15999
#
# Velocity S-wave (km/s) = 3.81315 3.93510 3.87461
# Velocity P-wave (km/s) = 6.93467 7.12141 7.02866
#
# Compressibility (1/GPa) = 0.01626350
#
# Stress axis : x y z
#
# Youngs Moduli (GPa) = 84.67962 84.67925 120.67048
#
# Poissons Ratio (x) = 0.21238 0.32056
# Poissons Ratio (y) = 0.21238 0.32056
# Poissons Ratio (z) = 0.22495 0.22495
#
# Static dielectric constant tensor:
#      x y z
#    x 3.876530 0.000000 0.000000 
#    y 0.000000 3.876530 0.000000 
#    z 0.000000 0.000000 4.241460 
# 
# 
# High freq. dielectric constant tensor:
#      x y z
#    x 1.833510 0.000000 0.000000 
#    y 0.000000 1.833510 0.000000 
#    z 0.000000 0.000000 1.863890 
# 
# From -- ./inp_files/7681.got.cif
#   From: 2010.03.12/outbox.cif.g09.slc.cpg/sg93_4_cif.got.tgz:7681.got - 2010.04.08 20:44:19.
