data_PCOD8305289
_publ_section_title
;
Structure prediction by ZEFSAII (Michael W. Deem and Ramdas Pophale) SiO2 
 PCOD8305289
Probable space group: P 41 21 2
;
_chemical_formula_sum "Si O2"
_cell_formula_units_Z 40
_cell_length_a 14.385284
_cell_length_b 14.385284
_cell_length_c 9.285309
_cell_angle_alpha 90.000000
_cell_angle_beta 90.000000
_cell_angle_gamma 90.000000
_cell_volume 1921.468378
_symmetry_space_group_name_H-M "P 41 21 2"
_symmetry_group_IT_number 92
_symmetry_cell_setting 'tetragonal'
loop_
_space_group_symop_operation_xyz
x,y,z
1/2-y,1/2+x,1/4+z
-x,-y,1/2+z
1/2+y,1/2-x,3/4+z
1/2+x,1/2-y,3/4-z
1/2-x,1/2+y,1/4-z
y,x,-z
-y,-x,1/2-z
loop_
_atom_site_type_symbol
_atom_site_label
_atom_site_fract_x
_atom_site_fract_y
_atom_site_fract_z
Si Si1 0.920017 0.554865 0.254645
Si Si2 0.231689 0.954538 0.644215
Si Si3 0.856757 0.785251 0.712716
Si Si4 0.217936 0.871436 0.942313
Si Si5 0.055726 0.254541 0.915060
O O1 0.953450 0.469706 0.351531
O O2 0.810900 0.548465 0.226056
O O3 0.946224 0.647881 0.336798
O O4 0.264642 0.910315 0.796053
O O5 0.147860 0.891841 0.581536
O O6 0.202351 0.061803 0.669111
O O7 0.772139 0.722704 0.769469
O O8 0.895099 0.735445 0.569719
O O9 0.820274 0.889021 0.681186
O O10 0.223017 0.948688 0.067443
#
# Coordination Sequence:
#
# PCOD8305289 Si02
#       5
#     8   8   8   8   8
#     4  12  26  40  62 100 132 170 218 274 334 398
#     4  10  22  39  66  92 130 172 218 268 335 392
#     4  10  20  40  68  92 129 171 217 277 326 394
#     4  10  20  40  68  92 129 171 217 277 326 394
#     4  10  22  39  66  92 130 172 218 268 335 392
#
# _framework density 20.817412000000001
#
# number of rings (size 3 to 8) (size 9 to 14) (size 15 to 20)
#    0.000    1.600    2.000    2.400    8.400    0.000 
#    0.000    0.000   35.200    0.000    0.000    0.000 
#    0.000    0.000    0.000    0.000    0.000    0.000 
#
# Total GULP energy -496069.869888 kJ/mol
# GULP energy per Si atom -12401.746747 kJ/mol
# Density = 2.077003 g / cm^3
# Si number density = 20.817412 Si / 1000 Ang^3
#
#
#
# Elastic Constant Matrix: (Units=GPa)
#
#
# Indices 1 2 3 4 5 6 
#
# 1 96.6894 55.7073 21.7489 0.0000 0.0000 0.0000
# 2 55.7073 96.6894 21.7489 0.0000 0.0000 0.0000
# 3 21.7489 21.7489 35.2374 0.0000 0.0000 0.0000
# 4 0.0000 0.0000 0.0000 41.0415 0.0000 0.0000
# 5 0.0000 0.0000 0.0000 0.0000 41.0415 0.0000
# 6 0.0000 0.0000 0.0000 0.0000 0.0000 22.6036
#
#
#
# Elastic Compliance Matrix: (Units=1/GPa)
#
#
# Indices 1 2 3 4 5 6 
#
# 1 0.016183 -0.008218 -0.004916 0.000000 0.000000 0.000000
# 2 -0.008218 0.016183 -0.004916 0.000000 0.000000 0.000000
# 3 -0.004916 -0.004916 0.034447 0.000000 0.000000 0.000000
# 4 0.000000 0.000000 0.000000 0.024366 0.000000 0.000000
# 5 0.000000 0.000000 0.000000 0.000000 0.024366 0.000000
# 6 0.000000 0.000000 0.000000 0.000000 0.000000 0.044241
#
#
# Mechanical properties :
#
#
# Convention : Reuss Voigt Hill
#
# Bulk Modulus (GPa) = 32.55936 47.44735 40.00335
# Shear Modulus (GPa) = 24.25734 29.56471 26.91103
#
# Velocity S-wave (km/s) = 3.41727 3.77263 3.59934
# Velocity P-wave (km/s) = 5.58970 6.46673 6.04414
#
# Compressibility (1/GPa) = 0.03071314
#
# Stress axis : x y z
#
# Youngs Moduli (GPa) = 61.79354 61.79354 29.02975
#
# Poissons Ratio (x) = 0.50782 0.14271
# Poissons Ratio (y) = 0.50782 0.14271
# Poissons Ratio (z) = 0.30378 0.30378
#
# Static dielectric constant tensor:
#      x y z
#    x 3.782790 0.000000 0.000000 
#    y 0.000000 3.782790 0.000000 
#    z 0.000000 0.000000 3.810670 
# 
# 
# High freq. dielectric constant tensor:
#      x y z
#    x 1.813570 0.000000 0.000000 
#    y 0.000000 1.813570 0.000000 
#    z 0.000000 0.000000 1.813800 
# 
# From -- ./inp_files/1289.got.cif
#   From: 2010.03.12/outbox.cif.g09.slc.cpg/sg92_1_cif.got.tgz:1289.got - 2010.04.08 20:41:11.
