data_PCOD8305733
_publ_section_title
;
Structure prediction by ZEFSAII (Michael W. Deem and Ramdas Pophale) SiO2 
 PCOD8305733
Probable space group: P 42 21 2
;
_chemical_formula_sum "Si O2"
_cell_formula_units_Z 40
_cell_length_a 9.101638
_cell_length_b 9.101638
_cell_length_c 23.357032
_cell_angle_alpha 90.000000
_cell_angle_beta 90.000000
_cell_angle_gamma 90.000000
_cell_volume 1934.892193
_symmetry_space_group_name_H-M "P 42 21 2"
_symmetry_group_IT_number 94
_symmetry_cell_setting 'tetragonal'
loop_
_space_group_symop_operation_xyz
x,y,z
1/2-y,1/2+x,1/2+z
-x,-y,z
1/2+y,1/2-x,1/2+z
1/2+x,1/2-y,1/2-z
1/2-x,1/2+y,1/2-z
y,x,-z
-y,-x,-z
loop_
_atom_site_type_symbol
_atom_site_label
_atom_site_fract_x
_atom_site_fract_y
_atom_site_fract_z
Si Si1 0.363265 0.594568 0.655586
Si Si2 0.975288 0.334144 0.771800
Si Si3 0.310980 0.143404 0.952227
Si Si4 0.314546 0.199762 0.319098
Si Si5 0.860074 0.695427 0.550322
O O1 0.500000 0.500000 0.630673
O O2 0.419230 0.726480 0.693669
O O3 0.272387 0.672876 0.606371
O O4 0.256319 0.482254 0.689661
O O5 0.805403 0.291537 0.781599
O O6 0.000000 0.500000 0.793275
O O7 0.033187 0.313148 0.706036
O O8 0.466670 0.224698 0.949341
O O9 0.326523 0.971723 0.964988
O O10 0.211224 0.211224 0.000000
O O11 0.267053 0.202222 0.386050
O O12 0.793437 0.793437 0.500000
#
# Coordination Sequence:
#
# PCOD8305733 Si02
#       5
#     8   8   8   8   8
#     4   9  21  40  61  95 127 162 214 263 321 381
#     4  11  23  38  65  94 127 164 214 262 316 378
#     4  10  23  39  68  90 121 170 209 264 321 388
#     4  10  23  41  66  91 130 169 210 267 316 388
#     4  10  24  43  63  93 129 167 214 267 325 382
#
# _framework density 20.672986000000002
#
# number of rings (size 3 to 8) (size 9 to 14) (size 15 to 20)
#    0.000    2.000    0.000    1.200   16.800    2.000 
#    0.000    0.000    4.400    0.000    0.000    0.000 
#    0.000    0.000    0.000    0.000    0.000    0.000 
#
# Total GULP energy -495869.179228 kJ/mol
# GULP energy per Si atom -12396.729481 kJ/mol
# Density = 2.062593 g / cm^3
# Si number density = 20.672986 Si / 1000 Ang^3
#
#
#
# Elastic Constant Matrix: (Units=GPa)
#
#
# Indices 1 2 3 4 5 6 
#
# 1 36.5214 76.8371 57.6101 0.0000 0.0000 0.0000
# 2 76.8371 36.5214 57.6101 0.0000 0.0000 0.0000
# 3 57.6101 57.6101 109.1613 0.0000 0.0000 0.0000
# 4 0.0000 0.0000 0.0000 29.7447 0.0000 0.0000
# 5 0.0000 0.0000 0.0000 0.0000 29.7447 0.0000
# 6 0.0000 0.0000 0.0000 0.0000 0.0000 23.9313
#
#
#
# Elastic Compliance Matrix: (Units=1/GPa)
#
#
# Indices 1 2 3 4 5 6 
#
# 1 -0.002888 0.021917 -0.010043 0.000000 0.000000 0.000000
# 2 0.021917 -0.002888 -0.010043 0.000000 0.000000 0.000000
# 3 -0.010043 -0.010043 0.019761 0.000000 0.000000 0.000000
# 4 0.000000 0.000000 0.000000 0.033619 0.000000 0.000000
# 5 0.000000 0.000000 0.000000 0.000000 0.033619 0.000000
# 6 0.000000 0.000000 0.000000 0.000000 0.000000 0.041786
#
#
# Mechanical properties :
#
#
# Convention : Reuss Voigt Hill
#
# Bulk Modulus (GPa) = 56.66212 62.92430 59.79321
# Shear Modulus (GPa) = 39.92618 16.02727 27.97673
#
# Velocity S-wave (km/s) = 4.39945 2.78740 3.68271
# Velocity P-wave (km/s) = 7.29898 6.39245 6.86071
#
# Compressibility (1/GPa) = 0.01764847
#
# Stress axis : x y z
#
# Youngs Moduli (GPa) = -346.31877 -346.31877 50.60502
#
# Poissons Ratio (x) = 7.59018 0.50821
# Poissons Ratio (y) = 7.59018 0.50821
# Poissons Ratio (z) = -3.47798 -3.47798
#
# Static dielectric constant tensor:
#      x y z
#    x 3.855920 0.000000 0.000000 
#    y 0.000000 3.855920 0.000000 
#    z 0.000000 0.000000 3.796070 
# 
# 
# High freq. dielectric constant tensor:
#      x y z
#    x 1.813680 0.000000 0.000000 
#    y 0.000000 1.813680 0.000000 
#    z 0.000000 0.000000 1.803580 
# 
# From -- ./inp_files/4913.got.cif
#   From: 2010.03.12/outbox.cif.g09.slc.cpg/sg94_3_cif.got.tgz:4913.got - 2010.04.08 20:48:32.
