data_PCOD8305526
_publ_section_title
;
Structure prediction by ZEFSAII (Michael W. Deem and Ramdas Pophale) SiO2 
 PCOD8305526
Probable space group: P 42 2 2
;
_chemical_formula_sum "Si O2"
_cell_formula_units_Z 64
_cell_length_a 11.492324
_cell_length_b 11.492324
_cell_length_c 26.643188
_cell_angle_alpha 90.000000
_cell_angle_beta 90.000000
_cell_angle_gamma 90.000000
_cell_volume 3518.859381
_symmetry_space_group_name_H-M "P 42 2 2"
_symmetry_group_IT_number 93
_symmetry_cell_setting 'tetragonal'
loop_
_space_group_symop_operation_xyz
x,y,z
-y,x,1/2+z
-x,-y,z
y,-x,1/2+z
x,-y,-z
-x,y,-z
y,x,1/2-z
-y,-x,1/2-z
loop_
_atom_site_type_symbol
_atom_site_label
_atom_site_fract_x
_atom_site_fract_y
_atom_site_fract_z
Si Si1 0.709896 0.666568 0.906518
Si Si2 0.658975 0.408184 0.881121
Si Si3 0.291013 0.158374 0.315998
Si Si4 0.752977 0.526123 0.661427
Si Si5 0.152422 0.668901 0.257926
Si Si6 0.898747 0.668784 0.295700
Si Si7 0.627276 0.635985 0.009114
Si Si8 0.618132 0.933723 0.653049
O O1 0.646556 0.544717 0.892085
O O2 0.626650 0.765130 0.881492
O O3 0.713600 0.688617 0.966599
O O4 0.842966 0.664439 0.888168
O O5 0.775260 0.385720 0.849929
O O6 0.550028 0.362298 0.848561
O O7 0.667659 0.337238 0.934103
O O8 0.162803 0.215573 0.318205
O O9 0.346319 0.152672 0.260336
O O10 0.279602 0.028932 0.338951
O O11 0.746220 0.597104 0.713576
O O12 0.864219 0.439676 0.668176
O O13 0.200306 0.799695 0.250000
O O14 0.129589 0.600061 0.206426
O O15 0.037842 0.679148 0.293229
O O16 0.622180 0.500000 0.000000
O O17 0.500000 0.690944 0.000000
O O18 0.500000 0.000000 0.636514
#
# Coordination Sequence:
#
# PCOD8305526 Si02
#       8
#     8   8   8   8   8   8   8   8
#     4  11  20  32  52  80 106 150 184 214 271 333
#     4  10  19  33  52  77 108 148 179 217 271 333
#     4   9  18  35  54  73 100 149 183 216 280 317
#     4  11  20  31  51  78 108 139 182 213 265 333
#     4  11  21  35  53  78 107 143 183 222 271 324
#     4   9  20  35  53  76 108 143 177 226 274 326
#     4   9  17  31  50  72 108 143 177 219 266 325
#     4  11  20  35  53  72 114 149 175 225 268 314
#
# _framework density 18.187712999999999
#
# number of rings (size 3 to 8) (size 9 to 14) (size 15 to 20)
#    0.000    1.875    3.750    2.250    0.000    0.000 
#    0.000    5.625    0.000    0.000    0.000   14.875 
#    0.000    0.000   17.000    0.000    0.000    0.000 
#
# Total GULP energy -792904.485653 kJ/mol
# GULP energy per Si atom -12389.132588 kJ/mol
# Density = 1.814632 g / cm^3
# Si number density = 18.187713 Si / 1000 Ang^3
#
#
#
# Elastic Constant Matrix: (Units=GPa)
#
#
# Indices 1 2 3 4 5 6 
#
# 1 84.0220 34.3266 42.2520 0.0000 0.0000 0.0000
# 2 34.3266 84.0210 42.2520 0.0000 0.0000 0.0000
# 3 42.2520 42.2520 103.2300 0.0000 0.0000 0.0000
# 4 0.0000 0.0000 0.0000 20.9485 0.0000 0.0000
# 5 0.0000 0.0000 0.0000 0.0000 20.9484 0.0000
# 6 0.0000 0.0000 0.0000 0.0000 0.0000 20.5975
#
#
#
# Elastic Compliance Matrix: (Units=1/GPa)
#
#
# Indices 1 2 3 4 5 6 
#
# 1 0.016031 -0.004092 -0.004886 0.000000 0.000000 0.000000
# 2 -0.004092 0.016031 -0.004887 0.000000 0.000000 0.000000
# 3 -0.004886 -0.004887 0.013687 0.000000 0.000000 0.000000
# 4 0.000000 0.000000 0.000000 0.047736 0.000000 0.000000
# 5 0.000000 0.000000 0.000000 0.000000 0.047736 0.000000
# 6 0.000000 0.000000 0.000000 0.000000 0.000000 0.048550
#
#
# Mechanical properties :
#
#
# Convention : Reuss Voigt Hill
#
# Bulk Modulus (GPa) = 55.49809 56.54822 56.02316
# Shear Modulus (GPa) = 22.37064 22.66171 22.51617
#
# Velocity S-wave (km/s) = 3.51092 3.53369 3.52232
# Velocity P-wave (km/s) = 6.85680 6.91435 6.88563
#
# Compressibility (1/GPa) = 0.01801864
#
# Stress axis : x y z
#
# Youngs Moduli (GPa) = 62.38041 62.37958 73.06085
#
# Poissons Ratio (x) = 0.25526 0.35701
# Poissons Ratio (y) = 0.25526 0.35702
# Poissons Ratio (z) = 0.30482 0.30482
#
# Static dielectric constant tensor:
#      x y z
#    x 3.295970 0.000000 0.000000 
#    y 0.000000 3.295970 0.000000 
#    z 0.000000 0.000000 3.529880 
# 
# 
# High freq. dielectric constant tensor:
#      x y z
#    x 1.684810 0.000000 0.000000 
#    y 0.000000 1.684810 0.000000 
#    z 0.000000 0.000000 1.692100 
# 
# From -- ./inp_files/6978.got.cif
#   From: 2010.03.12/outbox.cif.g09.slc.cpg/sg93_4_cif.got.tgz:6978.got - 2010.04.08 20:44:19.
