data_PCOD8305349
_publ_section_title
;
Structure prediction by ZEFSAII (Michael W. Deem and Ramdas Pophale) SiO2 
 PCOD8305349
Probable space group: P 41 21 2
;
_chemical_formula_sum "Si O2"
_cell_formula_units_Z 48
_cell_length_a 11.273716
_cell_length_b 11.273716
_cell_length_c 18.652760
_cell_angle_alpha 90.000000
_cell_angle_beta 90.000000
_cell_angle_gamma 90.000000
_cell_volume 2370.703728
_symmetry_space_group_name_H-M "P 41 21 2"
_symmetry_group_IT_number 92
_symmetry_cell_setting 'tetragonal'
loop_
_space_group_symop_operation_xyz
x,y,z
1/2-y,1/2+x,1/4+z
-x,-y,1/2+z
1/2+y,1/2-x,3/4+z
1/2+x,1/2-y,3/4-z
1/2-x,1/2+y,1/4-z
y,x,-z
-y,-x,1/2-z
loop_
_atom_site_type_symbol
_atom_site_label
_atom_site_fract_x
_atom_site_fract_y
_atom_site_fract_z
Si Si1 0.587303 0.064700 0.590641
Si Si2 0.036326 0.425680 0.539778
Si Si3 0.155761 0.031021 0.059631
Si Si4 0.672022 0.458990 0.933822
Si Si5 0.555012 0.696962 0.920314
Si Si6 0.822740 0.001868 0.006440
O O1 0.480285 0.036905 0.538368
O O2 0.599443 0.207100 0.595874
O O3 0.547055 0.012631 0.665814
O O4 0.706885 0.000591 0.565547
O O5 0.168961 0.403598 0.567391
O O6 0.973479 0.298510 0.535375
O O7 0.104369 0.066929 0.138487
O O8 0.135007 0.135007 0.000000
O O9 0.091192 0.915514 0.029155
O O10 0.664364 0.602720 0.924442
O O11 0.663582 0.449017 0.021444
O O12 0.509886 0.690059 0.840778
O O13 0.866803 0.866803 0.000000
#
# Coordination Sequence:
#
# PCOD8305349 Si02
#       6
#     8   8   8   8   8   8
#     4  11  25  43  67  97 132 175 221 274 327 407
#     4  11  24  42  66 100 132 168 225 277 340 390
#     4  11  23  45  69  93 134 180 220 271 339 397
#     4  10  22  43  69  95 129 178 222 268 342 399
#     4  10  21  43  69  97 130 171 222 279 334 402
#     4  11  23  43  66  96 131 171 219 277 332 401
#
# _framework density 20.247152
#
# number of rings (size 3 to 8) (size 9 to 14) (size 15 to 20)
#    0.000    1.333    5.000    1.000    7.000    0.000 
#    6.000    0.000    3.667    0.000    0.000    0.000 
#    0.000    0.000    0.000    0.000    0.000    0.000 
#
# Total GULP energy -594714.122599 kJ/mol
# GULP energy per Si atom -12389.877554 kJ/mol
# Density = 2.020107 g / cm^3
# Si number density = 20.247152 Si / 1000 Ang^3
#
#
#
# Elastic Constant Matrix: (Units=GPa)
#
#
# Indices 1 2 3 4 5 6 
#
# 1 80.8636 15.6086 20.2139 0.0000 0.0000 0.0000
# 2 15.6086 80.8636 20.2139 0.0000 0.0000 0.0000
# 3 20.2139 20.2139 106.9882 0.0000 0.0000 0.0000
# 4 0.0000 0.0000 0.0000 33.9047 0.0000 0.0000
# 5 0.0000 0.0000 0.0000 0.0000 33.9047 0.0000
# 6 0.0000 0.0000 0.0000 0.0000 0.0000 18.9258
#
#
#
# Elastic Compliance Matrix: (Units=1/GPa)
#
#
# Indices 1 2 3 4 5 6 
#
# 1 0.013291 -0.002034 -0.002127 0.000000 0.000000 0.000000
# 2 -0.002034 0.013291 -0.002127 0.000000 0.000000 0.000000
# 3 -0.002127 -0.002127 0.010151 0.000000 0.000000 0.000000
# 4 0.000000 0.000000 0.000000 0.029494 0.000000 0.000000
# 5 0.000000 0.000000 0.000000 0.000000 0.029494 0.000000
# 6 0.000000 0.000000 0.000000 0.000000 0.000000 0.052838
#
#
# Mechanical properties :
#
#
# Convention : Reuss Voigt Hill
#
# Bulk Modulus (GPa) = 41.39578 42.30979 41.85279
# Shear Modulus (GPa) = 29.55324 31.52562 30.53943
#
# Velocity S-wave (km/s) = 3.82465 3.95022 3.88794
# Velocity P-wave (km/s) = 6.32404 6.46124 6.39301
#
# Compressibility (1/GPa) = 0.02415705
#
# Stress axis : x y z
#
# Youngs Moduli (GPa) = 75.24044 75.24044 98.51730
#
# Poissons Ratio (x) = 0.15302 0.20953
# Poissons Ratio (y) = 0.15302 0.20953
# Poissons Ratio (z) = 0.16002 0.16002
#
# Static dielectric constant tensor:
#      x y z
#    x 3.818040 0.000000 0.000000 
#    y 0.000000 3.818040 0.000000 
#    z 0.000000 0.000000 4.064210 
# 
# 
# High freq. dielectric constant tensor:
#      x y z
#    x 1.781430 0.000000 0.000000 
#    y 0.000000 1.781430 0.000000 
#    z 0.000000 0.000000 1.808490 
# 
# From -- ./inp_files/3105.got.cif
#   From: 2010.03.12/outbox.cif.g09.slc.cpg/sg92_2_cif.got.tgz:3105.got - 2010.04.08 20:41:11.
