data_PCOD8305859
_publ_section_title
;
Structure prediction by ZEFSAII (Michael W. Deem and Ramdas Pophale) SiO2 
 PCOD8305859
Probable space group: P 43 2 2
;
_chemical_formula_sum "Si O2"
_cell_formula_units_Z 56
_cell_length_a 15.461545
_cell_length_b 15.461545
_cell_length_c 13.417408
_cell_angle_alpha 90.000000
_cell_angle_beta 90.000000
_cell_angle_gamma 90.000000
_cell_volume 3207.557154
_symmetry_space_group_name_H-M "P 43 2 2"
_symmetry_group_IT_number 95
_symmetry_cell_setting 'tetragonal'
loop_
_space_group_symop_operation_xyz
x,y,z
-y,x,3/4+z
-x,-y,1/2+z
y,-x,1/4+z
x,-y,1/2-z
-x,y,-z
y,x,1/4-z
-y,-x,3/4-z
loop_
_atom_site_type_symbol
_atom_site_label
_atom_site_fract_x
_atom_site_fract_y
_atom_site_fract_z
Si Si1 0.699571 0.291579 0.992623
Si Si2 0.202862 0.615699 0.636054
Si Si3 0.133558 0.585840 0.189157
Si Si4 0.598709 0.055181 0.470159
Si Si5 0.450604 0.401627 0.226007
Si Si6 0.366578 0.342613 0.734181
Si Si7 0.836593 0.431127 0.463224
O O1 0.716548 0.283453 0.875000
O O2 0.650068 0.378504 0.039563
O O3 0.789402 0.308599 0.051694
O O4 0.653790 0.208680 0.038188
O O5 0.117076 0.643051 0.697796
O O6 0.282979 0.615275 0.714883
O O7 0.196633 0.521686 0.583721
O O8 0.155573 0.500000 0.250000
O O9 0.043824 0.632256 0.222418
O O10 0.125716 0.556329 0.074046
O O11 0.500000 0.051461 0.500000
O O12 0.610464 0.091507 0.358456
O O13 0.469204 0.500000 0.250000
O O14 0.396318 0.396318 0.125000
O O15 0.542928 0.357694 0.208040
O O16 0.383315 0.383315 0.625000
O O17 0.359358 0.239334 0.721492
#
# Coordination Sequence:
#
# PCOD8305859 Si02
#       7
#     8   8   8   8   8   8   8
#     4  11  22  36  53  76 109 149 184 238 281 330
#     4  11  21  36  53  80 111 141 189 244 283 333
#     4  11  22  37  57  76 104 151 198 239 293 338
#     4   9  21  37  56  78 103 141 193 247 288 341
#     4  11  23  31  42  66 101 145 193 224 255 318
#     4  12  23  33  51  76 107 153 183 229 288 329
#     4  11  21  36  54  76 107 142 192 236 289 339
#
# _framework density 17.458769
#
# number of rings (size 3 to 8) (size 9 to 14) (size 15 to 20)
#    0.000    1.143    4.286    3.000    4.000    0.000 
#    0.000    2.143    0.000    0.000    0.000    0.000 
#    0.000    0.000   14.571    0.000    0.000    0.000 
#
# Total GULP energy -693738.540022 kJ/mol
# GULP energy per Si atom -12388.188215 kJ/mol
# Density = 1.741903 g / cm^3
# Si number density = 17.458769 Si / 1000 Ang^3
#
#
#
# Elastic Constant Matrix: (Units=GPa)
#
#
# Indices 1 2 3 4 5 6 
#
# 1 85.6485 27.6599 25.9426 0.0000 0.0000 0.0000
# 2 27.6599 85.6485 25.9425 0.0000 0.0000 0.0000
# 3 25.9426 25.9425 111.8240 0.0000 0.0000 0.0000
# 4 0.0000 0.0000 0.0000 22.0148 0.0000 0.0000
# 5 0.0000 0.0000 0.0000 0.0000 22.0148 0.0000
# 6 0.0000 0.0000 0.0000 0.0000 0.0000 9.9345
#
#
#
# Elastic Compliance Matrix: (Units=1/GPa)
#
#
# Indices 1 2 3 4 5 6 
#
# 1 0.013560 -0.003685 -0.002291 0.000000 0.000000 0.000000
# 2 -0.003685 0.013560 -0.002291 0.000000 0.000000 0.000000
# 3 -0.002291 -0.002291 0.010006 0.000000 0.000000 0.000000
# 4 0.000000 0.000000 0.000000 0.045424 0.000000 0.000000
# 5 0.000000 0.000000 0.000000 0.000000 0.045424 0.000000
# 6 0.000000 0.000000 0.000000 0.000000 0.000000 0.100659
#
#
# Mechanical properties :
#
#
# Convention : Reuss Voigt Hill
#
# Bulk Modulus (GPa) = 48.56448 49.13455 48.84952
# Shear Modulus (GPa) = 19.83895 24.36455 22.10175
#
# Velocity S-wave (km/s) = 3.37461 3.73976 3.56186
# Velocity P-wave (km/s) = 6.56209 6.84485 6.70496
#
# Compressibility (1/GPa) = 0.02059118
#
# Stress axis : x y z
#
# Youngs Moduli (GPa) = 73.74839 73.74842 99.94467
#
# Poissons Ratio (x) = 0.27177 0.22896
# Poissons Ratio (y) = 0.27177 0.22895
# Poissons Ratio (z) = 0.16894 0.16894
#
# Static dielectric constant tensor:
#      x y z
#    x 3.251860 0.000000 0.000000 
#    y 0.000000 3.251860 0.000000 
#    z 0.000000 0.000000 3.568490 
# 
# 
# High freq. dielectric constant tensor:
#      x y z
#    x 1.640760 0.000000 0.000000 
#    y 0.000000 1.640760 0.000000 
#    z 0.000000 0.000000 1.707470 
# 
# From -- ./inp_files/5002.got.cif
#   From: 2010.03.12/outbox.cif.g09.slc.cpg/sg95_3_cif.got.tgz:5002.got - 2010.04.08 20:51:55.
