data_PCOD8305232
_publ_section_title
;
Structure prediction by ZEFSAII (Michael W. Deem and Ramdas Pophale) SiO2 
 PCOD8305232
Probable space group: P 41 21 2
;
_chemical_formula_sum "Si O2"
_cell_formula_units_Z 56
_cell_length_a 16.027379
_cell_length_b 16.027379
_cell_length_c 10.989171
_cell_angle_alpha 90.000000
_cell_angle_beta 90.000000
_cell_angle_gamma 90.000000
_cell_volume 2822.863934
_symmetry_space_group_name_H-M "P 41 21 2"
_symmetry_group_IT_number 92
_symmetry_cell_setting 'tetragonal'
loop_
_space_group_symop_operation_xyz
x,y,z
1/2-y,1/2+x,1/4+z
-x,-y,1/2+z
1/2+y,1/2-x,3/4+z
1/2+x,1/2-y,3/4-z
1/2-x,1/2+y,1/4-z
y,x,-z
-y,-x,1/2-z
loop_
_atom_site_type_symbol
_atom_site_label
_atom_site_fract_x
_atom_site_fract_y
_atom_site_fract_z
Si Si1 0.411176 0.787621 0.410519
Si Si2 0.027792 0.134779 0.720113
Si Si3 0.584333 0.220843 0.637251
Si Si4 0.270507 0.275088 0.859141
Si Si5 0.946136 0.525795 0.596015
Si Si6 0.588650 0.609604 0.309445
Si Si7 0.517765 0.631667 0.061055
O O1 0.419719 0.719542 0.518206
O O2 0.418576 0.745574 0.276282
O O3 0.316697 0.821184 0.423105
O O4 0.479543 0.858999 0.424353
O O5 0.980501 0.130441 0.590204
O O6 0.959650 0.143404 0.824824
O O7 0.081527 0.051847 0.737120
O O8 0.676023 0.236202 0.580056
O O9 0.565798 0.123509 0.635513
O O10 0.512532 0.271364 0.561838
O O11 0.341177 0.320308 0.778213
O O12 0.291326 0.291326 0.000000
O O13 0.991887 0.495968 0.720065
O O14 0.524990 0.598991 0.198555
O O15 0.608572 0.608572 0.000000
#
# Coordination Sequence:
#
# PCOD8305232 Si02
#       7
#     8   8   8   8   8   8   8
#     4  10  20  35  62  90 119 150 198 257 312 351
#     4  11  20  34  58  88 123 153 194 257 301 358
#     4  10  21  36  61  86 119 155 203 252 303 371
#     4  10  19  34  58  92 117 146 193 257 312 347
#     4  10  23  42  65  89 118 160 211 259 311 375
#     4  11  22  34  58  87 122 154 201 250 302 367
#     4  12  24  39  57  87 128 169 202 245 315 378
#
# _framework density 19.838009
#
# number of rings (size 3 to 8) (size 9 to 14) (size 15 to 20)
#    0.000    1.429    5.714    1.286    6.000    0.000 
#    2.571    0.000    0.000    1.714    0.000    0.000 
#    0.000    0.000    0.000    0.000    0.000    0.000 
#
# Total GULP energy -693891.501026 kJ/mol
# GULP energy per Si atom -12390.919661 kJ/mol
# Density = 1.979286 g / cm^3
# Si number density = 19.838009 Si / 1000 Ang^3
#
#
#
# Elastic Constant Matrix: (Units=GPa)
#
#
# Indices 1 2 3 4 5 6 
#
# 1 61.9950 15.1373 17.3496 0.0000 0.0000 0.0000
# 2 15.1373 61.9950 17.3496 0.0000 0.0000 0.0000
# 3 17.3496 17.3496 57.7024 0.0000 0.0000 0.0000
# 4 0.0000 0.0000 0.0000 21.7373 0.0000 0.0000
# 5 0.0000 0.0000 0.0000 0.0000 21.7373 0.0000
# 6 0.0000 0.0000 0.0000 0.0000 0.0000 34.6147
#
#
#
# Elastic Compliance Matrix: (Units=1/GPa)
#
#
# Indices 1 2 3 4 5 6 
#
# 1 0.018167 -0.003174 -0.004508 0.000000 0.000000 0.000000
# 2 -0.003174 0.018167 -0.004508 0.000000 0.000000 0.000000
# 3 -0.004508 -0.004508 0.020041 0.000000 0.000000 0.000000
# 4 0.000000 0.000000 0.000000 0.046004 0.000000 0.000000
# 5 0.000000 0.000000 0.000000 0.000000 0.046004 0.000000
# 6 0.000000 0.000000 0.000000 0.000000 0.000000 0.028890
#
#
# Mechanical properties :
#
#
# Convention : Reuss Voigt Hill
#
# Bulk Modulus (GPa) = 31.25499 31.26280 31.25889
# Shear Modulus (GPa) = 23.54966 24.40825 23.97896
#
# Velocity S-wave (km/s) = 3.44917 3.51148 3.48046
# Velocity P-wave (km/s) = 5.62598 5.67749 5.65179
#
# Compressibility (1/GPa) = 0.03199489
#
# Stress axis : x y z
#
# Youngs Moduli (GPa) = 55.04507 55.04507 49.89744
#
# Poissons Ratio (x) = 0.17473 0.22493
# Poissons Ratio (y) = 0.17473 0.22493
# Poissons Ratio (z) = 0.24814 0.24814
#
# Static dielectric constant tensor:
#      x y z
#    x 3.688180 0.000000 0.000000 
#    y 0.000000 3.688180 0.000000 
#    z 0.000000 0.000000 3.644680 
# 
# 
# High freq. dielectric constant tensor:
#      x y z
#    x 1.773640 0.000000 0.000000 
#    y 0.000000 1.773640 0.000000 
#    z 0.000000 0.000000 1.731670 
# 
# From -- ./inp_files/2296.got.cif
#   From: 2010.03.12/outbox.cif.g09.slc.cpg/sg92_2_cif.got.tgz:2296.got - 2010.04.08 20:41:11.
