data_PCOD8305170
_publ_section_title
;
Structure prediction by ZEFSAII (Michael W. Deem and Ramdas Pophale) SiO2 
 PCOD8305170
Probable space group: P 41 2 2
;
_chemical_formula_sum "Si O2"
_cell_formula_units_Z 60
_cell_length_a 17.126369
_cell_length_b 17.126369
_cell_length_c 8.827881
_cell_angle_alpha 90.000000
_cell_angle_beta 90.000000
_cell_angle_gamma 90.000000
_cell_volume 2589.327979
_symmetry_space_group_name_H-M "P 41 2 2"
_symmetry_group_IT_number 91
_symmetry_cell_setting 'tetragonal'
loop_
_space_group_symop_operation_xyz
x,y,z
-y,x,1/4+z
-x,-y,1/2+z
y,-x,3/4+z
x,-y,1/2-z
-x,y,-z
y,x,3/4-z
-y,-x,1/4-z
loop_
_atom_site_type_symbol
_atom_site_label
_atom_site_fract_x
_atom_site_fract_y
_atom_site_fract_z
Si Si1 0.116266 0.116266 0.875000
Si Si2 0.010085 0.805320 0.831931
Si Si3 0.586306 0.312320 0.515203
Si Si4 0.884027 0.254700 0.894408
Si Si5 0.544312 0.143880 0.640333
Si Si6 0.080353 0.414927 0.944626
Si Si7 0.114058 0.345106 0.634865
Si Si8 0.278587 0.286803 0.695185
O O1 0.042188 0.120109 0.762832
O O2 0.195735 0.106823 0.782691
O O3 0.077156 0.739912 0.849659
O O4 0.931719 0.771585 0.755141
O O5 0.000000 0.838802 0.000000
O O6 0.500000 0.349115 0.500000
O O7 0.634163 0.365838 0.625000
O O8 0.576954 0.225950 0.582944
O O9 0.635223 0.314154 0.357523
O O10 0.793238 0.261382 0.853498
O O11 0.914258 0.336806 0.955186
O O12 0.500000 0.100001 0.500000
O O13 0.475356 0.151041 0.767057
O O14 0.616272 0.096314 0.718963
O O15 0.079698 0.399708 0.766134
O O16 0.000000 0.455651 0.000000
O O17 0.208335 0.344461 0.651161
O O18 0.276235 0.276235 0.875000
#
# Coordination Sequence:
#
# PCOD8305170 Si02
#       8
#     4   8   8   8   8   8   8   8
#     4  12  22  48  70 106 144 192 244 314 380 430
#     4  12  28  42  74 113 149 192 258 317 379 461
#     4  11  25  48  72 104 146 190 245 322 376 444
#     4  12  21  45  75 109 149 190 251 314 383 440
#     4  11  27  44  67 104 152 200 241 297 371 449
#     4  12  23  43  70 106 156 205 233 301 377 466
#     4  12  24  46  70 112 146 198 255 299 368 463
#     4  12  23  43  79 109 140 192 256 313 380 447
#
# _framework density 23.172034
#
# number of rings (size 3 to 8) (size 9 to 14) (size 15 to 20)
#    0.000    0.267    7.333    2.400    3.733    2.133 
#    0.000    1.333    0.000    6.400    0.000    0.000 
#    0.000    0.000    0.000    0.000    0.000    0.000 
#
# Total GULP energy -743565.761687 kJ/mol
# GULP energy per Si atom -12392.762695 kJ/mol
# Density = 2.311929 g / cm^3
# Si number density = 23.172034 Si / 1000 Ang^3
#
#
#
# Elastic Constant Matrix: (Units=GPa)
#
#
# Indices 1 2 3 4 5 6 
#
# 1 80.6694 36.4343 47.9724 0.0000 0.0000 0.0000
# 2 36.4343 80.6746 47.9721 0.0000 0.0000 0.0000
# 3 47.9724 47.9721 144.8681 0.0000 0.0000 0.0000
# 4 0.0000 0.0000 0.0000 34.4941 0.0000 0.0000
# 5 0.0000 0.0000 0.0000 0.0000 34.4931 0.0000
# 6 0.0000 0.0000 0.0000 0.0000 0.0000 22.6477
#
#
#
# Elastic Compliance Matrix: (Units=1/GPa)
#
#
# Indices 1 2 3 4 5 6 
#
# 1 0.017163 -0.005443 -0.003881 0.000000 0.000000 0.000000
# 2 -0.005443 0.017161 -0.003880 0.000000 0.000000 0.000000
# 3 -0.003881 -0.003880 0.009473 0.000000 0.000000 0.000000
# 4 0.000000 0.000000 0.000000 0.028990 0.000000 0.000000
# 5 0.000000 0.000000 0.000000 0.000000 0.028991 0.000000
# 6 0.000000 0.000000 0.000000 0.000000 0.000000 0.044155
#
#
# Mechanical properties :
#
#
# Convention : Reuss Voigt Hill
#
# Bulk Modulus (GPa) = 57.51147 63.44107 60.47627
# Shear Modulus (GPa) = 28.06820 29.91587 28.99204
#
# Velocity S-wave (km/s) = 3.48414 3.59699 3.54102
# Velocity P-wave (km/s) = 6.40772 6.68497 6.54782
#
# Compressibility (1/GPa) = 0.01738783
#
# Stress axis : x y z
#
# Youngs Moduli (GPa) = 58.26637 58.27127 105.56471
#
# Poissons Ratio (x) = 0.31719 0.40968
# Poissons Ratio (y) = 0.31716 0.40962
# Poissons Ratio (z) = 0.22612 0.22611
#
# Static dielectric constant tensor:
#      x y z
#    x 4.408440 0.000000 0.000000 
#    y 0.000000 4.408460 0.000000 
#    z 0.000000 0.000000 4.447380 
# 
# 
# High freq. dielectric constant tensor:
#      x y z
#    x 1.904870 0.000000 0.000000 
#    y 0.000000 1.904870 0.000000 
#    z 0.000000 0.000000 1.928240 
# 
# From -- ./inp_files/15313.got.cif
#   From: 2010.03.12/outbox.cif.g09.slc.cpg/sg91_8_cif.got.tgz:15313.got - 2010.04.08 20:27:58.
