data_PCOD8305292
_publ_section_title
;
Structure prediction by ZEFSAII (Michael W. Deem and Ramdas Pophale) SiO2 
 PCOD8305292
Probable space group: P 41 21 2
;
_chemical_formula_sum "Si O2"
_cell_formula_units_Z 60
_cell_length_a 11.263156
_cell_length_b 11.263156
_cell_length_c 21.388213
_cell_angle_alpha 90.000000
_cell_angle_beta 90.000000
_cell_angle_gamma 90.000000
_cell_volume 2713.280535
_symmetry_space_group_name_H-M "P 41 21 2"
_symmetry_group_IT_number 92
_symmetry_cell_setting 'tetragonal'
loop_
_space_group_symop_operation_xyz
x,y,z
1/2-y,1/2+x,1/4+z
-x,-y,1/2+z
1/2+y,1/2-x,3/4+z
1/2+x,1/2-y,3/4-z
1/2-x,1/2+y,1/4-z
y,x,-z
-y,-x,1/2-z
loop_
_atom_site_type_symbol
_atom_site_label
_atom_site_fract_x
_atom_site_fract_y
_atom_site_fract_z
Si Si1 0.399182 0.176710 0.455992
Si Si2 0.627555 0.532263 0.136423
Si Si3 0.569504 0.285960 0.897148
Si Si4 0.447640 0.049520 0.928496
Si Si5 0.480135 0.738704 0.082414
Si Si6 0.541623 0.615610 0.566942
Si Si7 0.359955 0.640046 0.750000
Si Si8 0.334557 0.171104 0.035816
O O1 0.418628 0.252365 0.393440
O O2 0.439095 0.242417 0.520704
O O3 0.261886 0.138483 0.460273
O O4 0.480622 0.066533 0.441882
O O5 0.537747 0.644697 0.131793
O O6 0.585216 0.419970 0.094741
O O7 0.640738 0.478691 0.206442
O O8 0.541687 0.156868 0.925129
O O9 0.673301 0.355382 0.936380
O O10 0.445894 0.356498 0.890259
O O11 0.621295 0.268514 0.828471
O O12 0.365222 0.040020 0.866732
O O13 0.369806 0.065555 0.990437
O O14 0.552191 0.552191 0.500000
O O15 0.554370 0.760319 0.569474
O O16 0.284833 0.284833 0.000000
#
# Coordination Sequence:
#
# PCOD8305292 Si02
#       8
#     8   8   8   8   8   8   4   8
#     4  12  26  49  72 100 150 189 241 305 368 447
#     4  11  25  46  77  98 137 190 239 299 361 436
#     4  11  21  38  69 100 135 186 234 284 364 417
#     4  12  25  42  68 109 141 188 238 300 356 435
#     4  11  23  47  73 104 147 194 240 297 378 434
#     4  10  20  41  69  99 133 181 231 275 358 428
#     4  12  28  52  72 114 138 188 260 302 362 454
#     4  11  21  39  61  98 147 169 224 297 335 418
#
# _framework density 22.113451999999999
#
# number of rings (size 3 to 8) (size 9 to 14) (size 15 to 20)
#    0.000    0.800    5.333    3.200    1.867    2.133 
#    2.400    0.000    0.000    0.000    0.000    0.000 
#    0.000    0.000    0.000    0.000    0.000    0.000 
#
# Total GULP energy -743457.821597 kJ/mol
# GULP energy per Si atom -12390.963693 kJ/mol
# Density = 2.206312 g / cm^3
# Si number density = 22.113452 Si / 1000 Ang^3
#
#
#
# Elastic Constant Matrix: (Units=GPa)
#
#
# Indices 1 2 3 4 5 6 
#
# 1 91.5540 21.9736 31.5592 0.0000 0.0000 0.0000
# 2 21.9736 91.5536 31.5586 0.0000 0.0000 0.0000
# 3 31.5592 31.5586 72.7809 0.0000 0.0000 0.0000
# 4 0.0000 0.0000 0.0000 33.9102 0.0000 0.0000
# 5 0.0000 0.0000 0.0000 0.0000 33.9106 0.0000
# 6 0.0000 0.0000 0.0000 0.0000 0.0000 44.6406
#
#
#
# Elastic Compliance Matrix: (Units=1/GPa)
#
#
# Indices 1 2 3 4 5 6 
#
# 1 0.012989 -0.001383 -0.005033 0.000000 0.000000 0.000000
# 2 -0.001383 0.012989 -0.005033 0.000000 0.000000 0.000000
# 3 -0.005033 -0.005033 0.018104 0.000000 0.000000 0.000000
# 4 0.000000 0.000000 0.000000 0.029490 0.000000 0.000000
# 5 0.000000 0.000000 0.000000 0.000000 0.029489 0.000000
# 6 0.000000 0.000000 0.000000 0.000000 0.000000 0.022401
#
#
# Mechanical properties :
#
#
# Convention : Reuss Voigt Hill
#
# Bulk Modulus (GPa) = 47.20005 47.34125 47.27065
# Shear Modulus (GPa) = 32.17057 33.87874 33.02466
#
# Velocity S-wave (km/s) = 3.81832 3.91838 3.86867
# Velocity P-wave (km/s) = 6.38985 6.47506 6.43260
#
# Compressibility (1/GPa) = 0.02118642
#
# Stress axis : x y z
#
# Youngs Moduli (GPa) = 76.98692 76.98703 55.23509
#
# Poissons Ratio (x) = 0.10645 0.27799
# Poissons Ratio (y) = 0.10645 0.27798
# Poissons Ratio (z) = 0.38746 0.38745
#
# Static dielectric constant tensor:
#      x y z
#    x 4.186010 0.000000 0.000000 
#    y 0.000000 4.186010 0.000000 
#    z 0.000000 0.000000 3.567900 
# 
# 
# High freq. dielectric constant tensor:
#      x y z
#    x 1.875960 0.000000 0.000000 
#    y 0.000000 1.875960 0.000000 
#    z 0.000000 0.000000 1.853620 
# 
# From -- ./inp_files/3612.got.cif
#   From: 2010.03.12/outbox.cif.g09.slc.cpg/sg92_2_cif.got.tgz:3612.got - 2010.04.08 20:41:11.
