data_PCOD8305276
_publ_section_title
;
Structure prediction by ZEFSAII (Michael W. Deem and Ramdas Pophale) SiO2 
 PCOD8305276
Probable space group: P 41 21 2
;
_chemical_formula_sum "Si O2"
_cell_formula_units_Z 48
_cell_length_a 9.378602
_cell_length_b 9.378602
_cell_length_c 27.883956
_cell_angle_alpha 90.000000
_cell_angle_beta 90.000000
_cell_angle_gamma 90.000000
_cell_volume 2452.621895
_symmetry_space_group_name_H-M "P 41 21 2"
_symmetry_group_IT_number 92
_symmetry_cell_setting 'tetragonal'
loop_
_space_group_symop_operation_xyz
x,y,z
1/2-y,1/2+x,1/4+z
-x,-y,1/2+z
1/2+y,1/2-x,3/4+z
1/2+x,1/2-y,3/4-z
1/2-x,1/2+y,1/4-z
y,x,-z
-y,-x,1/2-z
loop_
_atom_site_type_symbol
_atom_site_label
_atom_site_fract_x
_atom_site_fract_y
_atom_site_fract_z
Si Si1 0.768765 0.843187 0.407492
Si Si2 0.169420 0.476525 0.651539
Si Si3 0.058904 0.058904 0.000000
Si Si4 0.793504 0.114197 0.347835
Si Si5 0.784286 0.215715 0.250000
Si Si6 0.558425 0.125033 0.901207
Si Si7 0.542522 0.774101 0.741390
O O1 0.835862 0.902053 0.456513
O O2 0.599270 0.812045 0.412547
O O3 0.858872 0.708088 0.390610
O O4 0.781304 0.953642 0.364315
O O5 0.310602 0.410767 0.629670
O O6 0.199784 0.644714 0.649844
O O7 0.159507 0.420236 0.706380
O O8 0.034069 0.441798 0.619307
O O9 0.893007 0.082891 0.987221
O O10 0.834162 0.110108 0.292007
O O11 0.623320 0.196499 0.231255
O O12 0.643854 0.132802 0.951143
#
# Coordination Sequence:
#
# PCOD8305276 Si02
#       7
#     8   8   4   8   4   8   8
#     4  11  25  41  61  91 129 167 209 255 317 368
#     4  10  21  38  64  90 123 157 206 256 304 370
#     4  11  22  40  67  88 124 166 205 256 311 382
#     4  10  20  40  59  93 119 160 208 258 305 365
#     4   9  18  36  65  86 120 154 205 252 307 366
#     4  11  24  42  62  91 128 167 206 259 307 378
#     4  10  20  38  65  91 116 164 203 250 319 367
#
# _framework density 19.570892000000001
#
# number of rings (size 3 to 8) (size 9 to 14) (size 15 to 20)
#    0.000    1.667    3.333    1.000    2.333    1.333 
#    6.000    0.833    0.000    0.000    0.000    0.000 
#    0.000    0.000    0.000    0.000    0.000    0.000 
#
# Total GULP energy -595123.020482 kJ/mol
# GULP energy per Si atom -12398.396260 kJ/mol
# Density = 1.952635 g / cm^3
# Si number density = 19.570892 Si / 1000 Ang^3
#
#
#
# Elastic Constant Matrix: (Units=GPa)
#
#
# Indices 1 2 3 4 5 6 
#
# 1 55.0654 20.2488 32.8349 0.0000 0.0000 0.0000
# 2 20.2488 55.0654 32.8347 0.0000 0.0000 0.0000
# 3 32.8349 32.8347 119.4709 0.0000 0.0000 0.0000
# 4 0.0000 0.0000 0.0000 31.6706 0.0000 0.0000
# 5 0.0000 0.0000 0.0000 0.0000 31.6708 0.0000
# 6 0.0000 0.0000 0.0000 0.0000 0.0000 25.4171
#
#
#
# Elastic Compliance Matrix: (Units=1/GPa)
#
#
# Indices 1 2 3 4 5 6 
#
# 1 0.023092 -0.005630 -0.004799 0.000000 0.000000 0.000000
# 2 -0.005630 0.023092 -0.004799 0.000000 0.000000 0.000000
# 3 -0.004799 -0.004799 0.011008 0.000000 0.000000 0.000000
# 4 0.000000 0.000000 0.000000 0.031575 0.000000 0.000000
# 5 0.000000 0.000000 0.000000 0.000000 0.031575 0.000000
# 6 0.000000 0.000000 0.000000 0.000000 0.000000 0.039344
#
#
# Mechanical properties :
#
#
# Convention : Reuss Voigt Hill
#
# Bulk Modulus (GPa) = 37.40282 44.60425 41.00354
# Shear Modulus (GPa) = 25.11872 27.33058 26.22465
#
# Velocity S-wave (km/s) = 3.58645 3.74102 3.66455
# Velocity P-wave (km/s) = 6.02520 6.44212 6.23715
#
# Compressibility (1/GPa) = 0.02673595
#
# Stress axis : x y z
#
# Youngs Moduli (GPa) = 43.30467 43.30478 90.84089
#
# Poissons Ratio (x) = 0.24380 0.43597
# Poissons Ratio (y) = 0.24380 0.43597
# Poissons Ratio (z) = 0.20783 0.20783
#
# Static dielectric constant tensor:
#      x y z
#    x 3.535950 0.000000 0.000000 
#    y 0.000000 3.535940 0.000000 
#    z 0.000000 0.000000 3.692610 
# 
# 
# High freq. dielectric constant tensor:
#      x y z
#    x 1.754430 0.000000 0.000000 
#    y 0.000000 1.754430 0.000000 
#    z 0.000000 0.000000 1.778780 
# 
# From -- ./inp_files/4543.got.cif
#   From: 2010.03.12/outbox.cif.g09.slc.cpg/sg92_3_cif.got.tgz:4543.got - 2010.04.08 20:41:11.
