data_PCOD8305628
_publ_section_title
;
Structure prediction by ZEFSAII (Michael W. Deem and Ramdas Pophale) SiO2 
 PCOD8305628
Probable space group: P 42 21 2
;
_chemical_formula_sum "Si O2"
_cell_formula_units_Z 64
_cell_length_a 21.151238
_cell_length_b 21.151238
_cell_length_c 8.285713
_cell_angle_alpha 90.000000
_cell_angle_beta 90.000000
_cell_angle_gamma 90.000000
_cell_volume 3706.819767
_symmetry_space_group_name_H-M "P 42 21 2"
_symmetry_group_IT_number 94
_symmetry_cell_setting 'tetragonal'
loop_
_space_group_symop_operation_xyz
x,y,z
1/2-y,1/2+x,1/2+z
-x,-y,z
1/2+y,1/2-x,1/2+z
1/2+x,1/2-y,1/2-z
1/2-x,1/2+y,1/2-z
y,x,-z
-y,-x,-z
loop_
_atom_site_type_symbol
_atom_site_label
_atom_site_fract_x
_atom_site_fract_y
_atom_site_fract_z
Si Si1 0.550325 0.887425 0.539700
Si Si2 0.377981 0.716966 0.951064
Si Si3 0.207456 0.622281 0.348406
Si Si4 0.126387 0.523393 0.152239
Si Si5 0.836210 0.668585 0.338569
Si Si6 0.257232 0.846288 0.472597
Si Si7 0.257389 0.987893 0.549482
Si Si8 0.695177 0.955886 0.855347
O O1 0.569610 0.953472 0.460150
O O2 0.525992 0.900462 0.720058
O O3 0.607666 0.835725 0.543662
O O4 0.495468 0.860622 0.430375
O O5 0.362205 0.731858 0.763334
O O6 0.352122 0.647879 0.000000
O O7 0.338199 0.766454 0.061383
O O8 0.454072 0.716263 0.976109
O O9 0.158494 0.583669 0.238170
O O10 0.173319 0.685945 0.408228
O O11 0.232629 0.580071 0.499714
O O12 0.174151 0.487900 0.033175
O O13 0.778370 0.664083 0.213407
O O14 0.903891 0.661107 0.253235
O O15 0.197199 0.802802 0.500000
O O16 0.231991 0.917589 0.509962
O O17 0.260274 0.000031 0.743195
#
# Coordination Sequence:
#
# PCOD8305628 Si02
#       8
#     8   8   8   8   8   8   8   8
#     4  11  18  34  50  69  97 139 181 211 253 293
#     4  10  19  34  54  79 104 133 175 220 265 320
#     4   9  18  32  52  77 100 136 174 216 268 302
#     4  10  19  33  53  68  98 141 178 218 253 305
#     4  10  19  34  51  73 102 135 173 215 261 305
#     4  11  21  33  53  78 107 136 170 222 270 320
#     4  10  19  33  52  72 101 139 169 211 275 313
#     4   9  19  31  51  70 101 141 171 209 253 310
#
# _framework density 17.265474999999999
#
# number of rings (size 3 to 8) (size 9 to 14) (size 15 to 20)
#    0.000    2.000    5.000    1.500    0.000    0.000 
#    0.000    1.875    0.000    0.375    0.000    0.000 
#    0.000    0.000    8.500    0.000    0.000    0.000 
#
# Total GULP energy -793185.596812 kJ/mol
# GULP energy per Si atom -12393.524950 kJ/mol
# Density = 1.722618 g / cm^3
# Si number density = 17.265475 Si / 1000 Ang^3
#
#
#
# Elastic Constant Matrix: (Units=GPa)
#
#
# Indices 1 2 3 4 5 6 
#
# 1 63.9969 38.4157 26.6340 0.0000 0.0000 0.0000
# 2 38.4157 64.0024 26.6359 0.0000 0.0000 0.0000
# 3 26.6340 26.6359 90.6336 0.0000 0.0000 0.0000
# 4 0.0000 0.0000 0.0000 19.1078 0.0000 0.0000
# 5 0.0000 0.0000 0.0000 0.0000 19.1075 0.0000
# 6 0.0000 0.0000 0.0000 0.0000 0.0000 18.6944
#
#
#
# Elastic Compliance Matrix: (Units=1/GPa)
#
#
# Indices 1 2 3 4 5 6 
#
# 1 0.025307 -0.013780 -0.003387 0.000000 0.000000 0.000000
# 2 -0.013780 0.025305 -0.003387 0.000000 0.000000 0.000000
# 3 -0.003387 -0.003387 0.013024 0.000000 0.000000 0.000000
# 4 0.000000 0.000000 0.000000 0.052335 0.000000 0.000000
# 5 0.000000 0.000000 0.000000 0.000000 0.052335 0.000000
# 6 0.000000 0.000000 0.000000 0.000000 0.000000 0.053492
#
#
# Mechanical properties :
#
#
# Convention : Reuss Voigt Hill
#
# Bulk Modulus (GPa) = 44.39034 44.66710 44.52872
# Shear Modulus (GPa) = 18.48989 19.84510 19.16749
#
# Velocity S-wave (km/s) = 3.27604 3.39397 3.33553
# Velocity P-wave (km/s) = 6.33057 6.42539 6.37816
#
# Compressibility (1/GPa) = 0.02252742
#
# Stress axis : x y z
#
# Youngs Moduli (GPa) = 39.51403 39.51718 76.77980
#
# Poissons Ratio (x) = 0.54457 0.26006
# Poissons Ratio (y) = 0.54452 0.26008
# Poissons Ratio (z) = 0.13384 0.13386
#
# Static dielectric constant tensor:
#      x y z
#    x 2.992020 0.000000 0.000000 
#    y 0.000000 2.992010 0.000000 
#    z 0.000000 0.000000 3.658760 
# 
# 
# High freq. dielectric constant tensor:
#      x y z
#    x 1.633830 0.000000 0.000000 
#    y 0.000000 1.633830 0.000000 
#    z 0.000000 0.000000 1.690090 
# 
# From -- ./inp_files/1801.got.cif
#   From: 2010.03.12/outbox.cif.g09.slc.cpg/sg94_1_cif.got.tgz:1801.got - 2010.04.08 20:48:32.
