data_PCOD8305129
_publ_section_title
;
Structure prediction by ZEFSAII (Michael W. Deem and Ramdas Pophale) SiO2 
 PCOD8305129
Probable space group: P 41 2 2
;
_chemical_formula_sum "Si O2"
_cell_formula_units_Z 32
_cell_length_a 7.705944
_cell_length_b 7.705944
_cell_length_c 25.565068
_cell_angle_alpha 90.000000
_cell_angle_beta 90.000000
_cell_angle_gamma 90.000000
_cell_volume 1518.093950
_symmetry_space_group_name_H-M "P 41 2 2"
_symmetry_group_IT_number 91
_symmetry_cell_setting 'tetragonal'
loop_
_space_group_symop_operation_xyz
x,y,z
-y,x,1/4+z
-x,-y,1/2+z
y,-x,3/4+z
x,-y,1/2-z
-x,y,-z
y,x,3/4-z
-y,-x,1/4-z
loop_
_atom_site_type_symbol
_atom_site_label
_atom_site_fract_x
_atom_site_fract_y
_atom_site_fract_z
Si Si1 0.660426 0.834920 0.538766
Si Si2 0.651597 0.616363 0.105038
Si Si3 0.660918 0.209567 0.572824
Si Si4 0.498638 0.193668 0.249730
O O1 0.500000 0.803140 0.500000
O O2 0.632587 0.793895 0.599933
O O3 0.805566 0.700341 0.518277
O O4 0.713477 0.037952 0.539504
O O5 0.489188 0.510813 0.125000
O O6 0.548762 0.792857 0.086318
O O7 0.741443 0.512105 0.059060
O O8 0.779792 0.220209 0.625000
O O9 0.690550 0.379343 0.537169
O O10 0.426480 0.000000 0.250000
#
# Coordination Sequence:
#
# PCOD8305129 Si02
#       4
#     8   8   8   8
#     4  12  23  41  70  98 126 176 231 272 339 410
#     4  11  21  40  67  91 125 173 220 272 329 400
#     4  11  23  44  68  96 132 176 223 279 341 402
#     4  12  24  42  63  97 138 171 220 278 337 402
#
# _framework density 21.079066999999998
#
# number of rings (size 3 to 8) (size 9 to 14) (size 15 to 20)
#    0.000    0.500    7.500    3.750    0.000    1.000 
#    0.000    3.750    0.000    0.000    0.000    0.000 
#    0.000    0.000    0.000    0.000    0.000    0.000 
#
# Total GULP energy -396576.899283 kJ/mol
# GULP energy per Si atom -12393.028103 kJ/mol
# Density = 2.103109 g / cm^3
# Si number density = 21.079067 Si / 1000 Ang^3
#
#
#
# Elastic Constant Matrix: (Units=GPa)
#
#
# Indices 1 2 3 4 5 6 
#
# 1 100.0591 19.6174 33.5807 0.0000 0.0000 0.0000
# 2 19.6174 100.0589 33.5804 0.0000 0.0000 0.0000
# 3 33.5807 33.5804 140.4130 0.0000 0.0000 0.0000
# 4 0.0000 0.0000 0.0000 28.8202 0.0000 0.0000
# 5 0.0000 0.0000 0.0000 0.0000 28.8209 0.0000
# 6 0.0000 0.0000 0.0000 0.0000 0.0000 16.2948
#
#
#
# Elastic Compliance Matrix: (Units=1/GPa)
#
#
# Indices 1 2 3 4 5 6 
#
# 1 0.011041 -0.001390 -0.002308 0.000000 0.000000 0.000000
# 2 -0.001390 0.011041 -0.002308 0.000000 0.000000 0.000000
# 3 -0.002308 -0.002308 0.008226 0.000000 0.000000 0.000000
# 4 0.000000 0.000000 0.000000 0.034698 0.000000 0.000000
# 5 0.000000 0.000000 0.000000 0.000000 0.034697 0.000000
# 6 0.000000 0.000000 0.000000 0.000000 0.000000 0.061369
#
#
# Mechanical properties :
#
#
# Convention : Reuss Voigt Hill
#
# Bulk Modulus (GPa) = 54.65779 57.12090 55.88935
# Shear Modulus (GPa) = 27.90427 31.70400 29.80414
#
# Velocity S-wave (km/s) = 3.64234 3.88242 3.76429
# Velocity P-wave (km/s) = 6.60871 6.87421 6.74277
#
# Compressibility (1/GPa) = 0.01829565
#
# Stress axis : x y z
#
# Youngs Moduli (GPa) = 90.56935 90.56926 121.56795
#
# Poissons Ratio (x) = 0.12590 0.28060
# Poissons Ratio (y) = 0.12590 0.28059
# Poissons Ratio (z) = 0.20905 0.20904
#
# Static dielectric constant tensor:
#      x y z
#    x 2.743070 0.000000 0.000000 
#    y 0.000000 2.743120 0.000000 
#    z 0.000000 0.000000 3.869280 
# 
# 
# High freq. dielectric constant tensor:
#      x y z
#    x 1.807330 0.000000 0.000000 
#    y 0.000000 1.807330 0.000000 
#    z 0.000000 0.000000 1.854240 
# 
# From -- ./inp_files/6615.got.cif
#   From: 2010.03.12/outbox.cif.g09.slc.cpg/sg91_4_cif.got.tgz:6615.got - 2010.04.08 20:27:58.
