data_PCOD8305231
_publ_section_title
;
Structure prediction by ZEFSAII (Michael W. Deem and Ramdas Pophale) SiO2 
 PCOD8305231
Probable space group: P 41 21 2
;
_chemical_formula_sum "Si O2"
_cell_formula_units_Z 48
_cell_length_a 12.228354
_cell_length_b 12.228354
_cell_length_c 17.853455
_cell_angle_alpha 90.000000
_cell_angle_beta 90.000000
_cell_angle_gamma 90.000000
_cell_volume 2669.674287
_symmetry_space_group_name_H-M "P 41 21 2"
_symmetry_group_IT_number 92
_symmetry_cell_setting 'tetragonal'
loop_
_space_group_symop_operation_xyz
x,y,z
1/2-y,1/2+x,1/4+z
-x,-y,1/2+z
1/2+y,1/2-x,3/4+z
1/2+x,1/2-y,3/4-z
1/2-x,1/2+y,1/4-z
y,x,-z
-y,-x,1/2-z
loop_
_atom_site_type_symbol
_atom_site_label
_atom_site_fract_x
_atom_site_fract_y
_atom_site_fract_z
Si Si1 0.568646 0.800957 0.672237
Si Si2 0.202842 0.965715 0.266562
Si Si3 0.171235 0.327111 0.546727
Si Si4 0.553267 0.904908 0.414711
Si Si5 0.125771 0.568986 0.500482
Si Si6 0.248657 0.710284 0.961097
O O1 0.577112 0.730096 0.598525
O O2 0.452826 0.786079 0.714591
O O3 0.660198 0.755807 0.727467
O O4 0.585548 0.925532 0.646669
O O5 0.083496 0.916505 0.250000
O O6 0.291656 0.921062 0.206942
O O7 0.195467 0.096296 0.265350
O O8 0.252632 0.252632 0.500000
O O9 0.179244 0.452045 0.519525
O O10 0.201729 0.317536 0.633875
O O11 0.623976 0.912310 0.338872
O O12 0.585296 0.004149 0.468869
O O13 0.199171 0.658190 0.542571
#
# Coordination Sequence:
#
# PCOD8305231 Si02
#       6
#     8   8   8   8   8   8
#     4   9  19  36  55  82 108 143 183 222 269 326
#     4  10  19  35  56  78 109 143 179 218 272 327
#     4  10  22  35  58  81 111 146 183 223 274 324
#     4  10  19  34  58  83 105 142 182 234 265 314
#     4  11  21  35  58  82 112 138 188 229 273 319
#     4  10  22  35  55  82 109 146 178 224 274 327
#
# _framework density 17.979721999999999
#
# number of rings (size 3 to 8) (size 9 to 14) (size 15 to 20)
#    0.000    2.000    1.667    2.000    9.333    0.667 
#    0.000    0.000    0.000    0.000    0.000    0.000 
#    0.000    0.000    0.000    0.000    0.000    0.000 
#
# Total GULP energy -595247.058185 kJ/mol
# GULP energy per Si atom -12400.980379 kJ/mol
# Density = 1.793880 g / cm^3
# Si number density = 17.979722 Si / 1000 Ang^3
#
#
#
# Elastic Constant Matrix: (Units=GPa)
#
#
# Indices 1 2 3 4 5 6 
#
# 1 44.6129 19.2861 9.0023 0.0000 0.0000 0.0000
# 2 19.2861 44.6112 9.0025 0.0000 0.0000 0.0000
# 3 9.0023 9.0025 60.0172 0.0000 0.0000 0.0000
# 4 0.0000 0.0000 0.0000 28.1603 0.0000 0.0000
# 5 0.0000 0.0000 0.0000 0.0000 28.1605 0.0000
# 6 0.0000 0.0000 0.0000 0.0000 0.0000 31.4656
#
#
#
# Elastic Compliance Matrix: (Units=1/GPa)
#
#
# Indices 1 2 3 4 5 6 
#
# 1 0.027912 -0.011572 -0.002451 0.000000 0.000000 0.000000
# 2 -0.011572 0.027913 -0.002451 0.000000 0.000000 0.000000
# 3 -0.002451 -0.002451 0.017397 0.000000 0.000000 0.000000
# 4 0.000000 0.000000 0.000000 0.035511 0.000000 0.000000
# 5 0.000000 0.000000 0.000000 0.000000 0.035511 0.000000
# 6 0.000000 0.000000 0.000000 0.000000 0.000000 0.031781
#
#
# Mechanical properties :
#
#
# Convention : Reuss Voigt Hill
#
# Bulk Modulus (GPa) = 24.82982 24.86922 24.84952
# Shear Modulus (GPa) = 22.48215 25.02065 23.75140
#
# Velocity S-wave (km/s) = 3.53996 3.73447 3.63851
# Velocity P-wave (km/s) = 5.52705 5.69709 5.61272
#
# Compressibility (1/GPa) = 0.04027415
#
# Stress axis : x y z
#
# Youngs Moduli (GPa) = 35.82653 35.82511 57.48058
#
# Poissons Ratio (x) = 0.41458 0.14088
# Poissons Ratio (y) = 0.41460 0.14089
# Poissons Ratio (z) = 0.08781 0.08781
#
# Static dielectric constant tensor:
#      x y z
#    x 3.229130 0.000000 0.000000 
#    y 0.000000 3.229130 0.000000 
#    z 0.000000 0.000000 3.395740 
# 
# 
# High freq. dielectric constant tensor:
#      x y z
#    x 1.687480 0.000000 0.000000 
#    y 0.000000 1.687480 0.000000 
#    z 0.000000 0.000000 1.710070 
# 
# From -- ./inp_files/3093.got.cif
#   From: 2010.03.12/outbox.cif.g09.slc.cpg/sg92_2_cif.got.tgz:3093.got - 2010.04.08 20:41:11.
