data_PCOD8305603
_publ_section_title
;
Structure prediction by ZEFSAII (Michael W. Deem and Ramdas Pophale) SiO2 
 PCOD8305603
Probable space group: P 42 2 2
;
_chemical_formula_sum "Si O2"
_cell_formula_units_Z 48
_cell_length_a 9.038629
_cell_length_b 9.038629
_cell_length_c 28.103218
_cell_angle_alpha 90.000000
_cell_angle_beta 90.000000
_cell_angle_gamma 90.000000
_cell_volume 2295.943379
_symmetry_space_group_name_H-M "P 42 2 2"
_symmetry_group_IT_number 93
_symmetry_cell_setting 'tetragonal'
loop_
_space_group_symop_operation_xyz
x,y,z
-y,x,1/2+z
-x,-y,z
y,-x,1/2+z
x,-y,-z
-x,y,-z
y,x,1/2-z
-y,-x,1/2-z
loop_
_atom_site_type_symbol
_atom_site_label
_atom_site_fract_x
_atom_site_fract_y
_atom_site_fract_z
Si Si1 0.188136 0.662401 0.204988
Si Si2 0.161182 0.683713 0.793759
Si Si3 0.658907 0.790161 0.888613
Si Si4 0.687879 0.740438 0.111262
Si Si5 0.173794 0.025526 0.054424
Si Si6 0.472935 0.330501 0.550255
O O1 0.262681 0.737320 0.250000
O O2 0.213075 0.486489 0.208240
O O3 0.268308 0.730823 0.159379
O O4 0.014961 0.699821 0.204242
O O5 0.225871 0.774130 0.750000
O O6 0.229306 0.765409 0.839343
O O7 0.481255 0.796625 0.883319
O O8 0.705457 0.692113 0.933907
O O9 0.729172 0.944322 0.904639
O O10 0.779036 0.809284 0.067130
O O11 0.706497 0.569999 0.096613
O O12 0.000000 0.000000 0.061643
O O13 0.222702 0.000000 0.000000
O O14 0.500000 0.500000 0.539022
O O15 0.500000 0.243951 0.500000
#
# Coordination Sequence:
#
# PCOD8305603 Si02
#       6
#     8   8   8   8   8   8
#     4  11  25  44  67  95 129 169 216 270 333 400
#     4  11  25  44  67  95 129 169 216 270 333 400
#     4  11  22  40  67  96 131 170 218 273 325 388
#     4  11  22  40  67  96 131 170 218 273 325 388
#     4  11  25  43  63  93 137 183 223 267 324 393
#     4   9  18  34  61  97 131 163 207 261 318 373
#
# _framework density 20.90644
#
# number of rings (size 3 to 8) (size 9 to 14) (size 15 to 20)
#    0.000    1.333    1.667    3.500    2.333    4.667 
#    0.000    0.000    0.000    4.000    0.000    0.000 
#    0.000    0.000    0.000    0.000    0.000    0.000 
#
# Total GULP energy -594883.839521 kJ/mol
# GULP energy per Si atom -12393.413323 kJ/mol
# Density = 2.085886 g / cm^3
# Si number density = 20.906440 Si / 1000 Ang^3
#
#
#
# Elastic Constant Matrix: (Units=GPa)
#
#
# Indices 1 2 3 4 5 6 
#
# 1 86.3083 38.1041 44.8071 0.0000 0.0000 0.0000
# 2 38.1041 86.3090 44.8058 0.0000 0.0000 0.0000
# 3 44.8071 44.8058 165.3405 0.0000 0.0000 0.0000
# 4 0.0000 0.0000 0.0000 36.7430 0.0000 0.0000
# 5 0.0000 0.0000 0.0000 0.0000 36.7433 0.0000
# 6 0.0000 0.0000 0.0000 0.0000 0.0000 26.5632
#
#
#
# Elastic Compliance Matrix: (Units=1/GPa)
#
#
# Indices 1 2 3 4 5 6 
#
# 1 0.015366 -0.005379 -0.002707 0.000000 0.000000 0.000000
# 2 -0.005379 0.015366 -0.002706 0.000000 0.000000 0.000000
# 3 -0.002707 -0.002706 0.007515 0.000000 0.000000 0.000000
# 4 0.000000 0.000000 0.000000 0.027216 0.000000 0.000000
# 5 0.000000 0.000000 0.000000 0.000000 0.027216 0.000000
# 6 0.000000 0.000000 0.000000 0.000000 0.000000 0.037646
#
#
# Mechanical properties :
#
#
# Convention : Reuss Voigt Hill
#
# Bulk Modulus (GPa) = 60.01143 65.93243 62.97193
# Shear Modulus (GPa) = 31.75343 34.02594 32.88968
#
# Velocity S-wave (km/s) = 3.90145 4.03865 3.97064
# Velocity P-wave (km/s) = 7.00444 7.30431 7.15594
#
# Compressibility (1/GPa) = 0.01666349
#
# Stress axis : x y z
#
# Youngs Moduli (GPa) = 65.07786 65.07909 133.06693
#
# Poissons Ratio (x) = 0.35005 0.36016
# Poissons Ratio (y) = 0.35004 0.36013
# Poissons Ratio (z) = 0.17614 0.17613
#
# Static dielectric constant tensor:
#      x y z
#    x 3.668280 0.000000 0.000000 
#    y 0.000000 3.668280 0.000000 
#    z 0.000000 0.000000 4.170950 
# 
# 
# High freq. dielectric constant tensor:
#      x y z
#    x 1.818860 0.000000 0.000000 
#    y 0.000000 1.818860 0.000000 
#    z 0.000000 0.000000 1.840140 
# 
# From -- ./inp_files/7805.got.cif
#   From: 2010.03.12/outbox.cif.g09.slc.cpg/sg93_4_cif.got.tgz:7805.got - 2010.04.08 20:44:19.
