data_PCOD8305622
_publ_section_title
;
Structure prediction by ZEFSAII (Michael W. Deem and Ramdas Pophale) SiO2 
 PCOD8305622
Probable space group: P 42 21 2
;
_chemical_formula_sum "Si O2"
_cell_formula_units_Z 44
_cell_length_a 14.745261
_cell_length_b 14.745261
_cell_length_c 12.355737
_cell_angle_alpha 90.000000
_cell_angle_beta 90.000000
_cell_angle_gamma 90.000000
_cell_volume 2686.417970
_symmetry_space_group_name_H-M "P 42 21 2"
_symmetry_group_IT_number 94
_symmetry_cell_setting 'tetragonal'
loop_
_space_group_symop_operation_xyz
x,y,z
1/2-y,1/2+x,1/2+z
-x,-y,z
1/2+y,1/2-x,1/2+z
1/2+x,1/2-y,1/2-z
1/2-x,1/2+y,1/2-z
y,x,-z
-y,-x,-z
loop_
_atom_site_type_symbol
_atom_site_label
_atom_site_fract_x
_atom_site_fract_y
_atom_site_fract_z
Si Si1 0.791002 0.182941 0.376558
Si Si2 0.398630 0.015076 0.238359
Si Si3 0.851346 0.682374 0.306132
Si Si4 0.952482 0.303333 0.355014
Si Si5 0.511479 0.245377 0.914364
Si Si6 0.309398 0.690603 0.000000
O O1 0.779198 0.220803 0.500000
O O2 0.704815 0.209323 0.301671
O O3 0.882167 0.223895 0.324789
O O4 0.804079 0.074031 0.372599
O O5 0.402856 0.100449 0.158843
O O6 0.333405 0.043299 0.335038
O O7 0.500000 0.000000 0.284587
O O8 0.357501 0.926772 0.177359
O O9 0.806010 0.726142 0.414095
O O10 0.955394 0.715123 0.286456
O O11 0.980209 0.305895 0.479023
O O12 0.596861 0.310646 0.933369
#
# Coordination Sequence:
#
# PCOD8305622 Si02
#       6
#     8   8   8   8   8   4
#     4   9  17  32  48  64  92 121 151 187 219 264
#     4   9  17  29  46  67  92 118 148 186 226 270
#     4   9  18  30  45  69  93 118 151 182 225 271
#     4   9  17  30  47  67  91 118 147 186 228 266
#     4   9  18  29  45  68  91 120 152 183 222 265
#     4  10  18  30  47  68  96 120 147 186 224 266
#
# _framework density 16.378686999999999
#
# number of rings (size 3 to 8) (size 9 to 14) (size 15 to 20)
#    0.000    2.909    0.000    1.091    0.000    3.636 
#    0.000   15.000    0.000    0.000    0.000    0.000 
#    0.000   36.364    0.000    0.545    0.000    0.000 
#
# Total GULP energy -545191.096763 kJ/mol
# GULP energy per Si atom -12390.706745 kJ/mol
# Density = 1.634141 g / cm^3
# Si number density = 16.378687 Si / 1000 Ang^3
#
#
#
# Elastic Constant Matrix: (Units=GPa)
#
#
# Indices 1 2 3 4 5 6 
#
# 1 101.5086 72.4940 52.1753 0.0000 0.0000 0.0000
# 2 72.4940 101.5078 52.1756 0.0000 0.0000 0.0000
# 3 52.1753 52.1756 61.3607 0.0000 0.0000 0.0000
# 4 0.0000 0.0000 0.0000 27.9765 0.0000 0.0000
# 5 0.0000 0.0000 0.0000 0.0000 27.9765 0.0000
# 6 0.0000 0.0000 0.0000 0.0000 0.0000 31.0703
#
#
#
# Elastic Compliance Matrix: (Units=1/GPa)
#
#
# Indices 1 2 3 4 5 6 
#
# 1 0.023096 -0.011369 -0.009971 0.000000 0.000000 0.000000
# 2 -0.011369 0.023097 -0.009972 0.000000 0.000000 0.000000
# 3 -0.009971 -0.009972 0.033255 0.000000 0.000000 0.000000
# 4 0.000000 0.000000 0.000000 0.035744 0.000000 0.000000
# 5 0.000000 0.000000 0.000000 0.000000 0.035744 0.000000
# 6 0.000000 0.000000 0.000000 0.000000 0.000000 0.032185
#
#
# Mechanical properties :
#
#
# Convention : Reuss Voigt Hill
#
# Bulk Modulus (GPa) = 59.44370 68.67412 64.05891
# Shear Modulus (GPa) = 19.89218 23.24015 21.56616
#
# Velocity S-wave (km/s) = 3.48877 3.77095 3.63260
# Velocity P-wave (km/s) = 7.25264 7.80897 7.53594
#
# Compressibility (1/GPa) = 0.01682264
#
# Stress axis : x y z
#
# Youngs Moduli (GPa) = 43.29699 43.29603 30.07051
#
# Poissons Ratio (x) = 0.49225 0.29985
# Poissons Ratio (y) = 0.49226 0.29986
# Poissons Ratio (z) = 0.43173 0.43175
#
# Static dielectric constant tensor:
#      x y z
#    x 3.278410 0.000000 0.000000 
#    y 0.000000 3.278410 0.000000 
#    z 0.000000 0.000000 3.056260 
# 
# 
# High freq. dielectric constant tensor:
#      x y z
#    x 1.629480 0.000000 0.000000 
#    y 0.000000 1.629480 0.000000 
#    z 0.000000 0.000000 1.615230 
# 
# From -- ./inp_files/2541.got.cif
#   From: 2010.03.12/outbox.cif.g09.slc.cpg/sg94_2_cif.got.tgz:2541.got - 2010.04.08 20:48:32.
