data_PCOD8305147
_publ_section_title
;
Structure prediction by ZEFSAII (Michael W. Deem and Ramdas Pophale) SiO2 
 PCOD8305147
Probable space group: P 41 2 2
;
_chemical_formula_sum "Si O2"
_cell_formula_units_Z 60
_cell_length_a 10.906566
_cell_length_b 10.906566
_cell_length_c 21.416764
_cell_angle_alpha 90.000000
_cell_angle_beta 90.000000
_cell_angle_gamma 90.000000
_cell_volume 2547.592224
_symmetry_space_group_name_H-M "P 41 2 2"
_symmetry_group_IT_number 91
_symmetry_cell_setting 'tetragonal'
loop_
_space_group_symop_operation_xyz
x,y,z
-y,x,1/4+z
-x,-y,1/2+z
y,-x,3/4+z
x,-y,1/2-z
-x,y,-z
y,x,3/4-z
-y,-x,1/4-z
loop_
_atom_site_type_symbol
_atom_site_label
_atom_site_fract_x
_atom_site_fract_y
_atom_site_fract_z
Si Si1 0.217458 0.044522 0.999124
Si Si2 0.800573 0.247154 0.691922
Si Si3 0.643608 0.982752 0.379542
Si Si4 0.000000 0.770942 0.500000
Si Si5 0.410672 0.838212 0.418556
Si Si6 0.477173 0.757205 0.903704
Si Si7 0.738548 0.380811 0.460937
Si Si8 0.623458 0.571598 0.530030
O O1 0.338598 0.062436 0.041753
O O2 0.184641 0.907256 0.017735
O O3 0.241088 0.040969 0.924994
O O4 0.114924 0.143220 0.017715
O O5 0.813760 0.186241 0.625000
O O6 0.795651 0.394638 0.684104
O O7 0.678703 0.200050 0.727690
O O8 0.548577 0.881399 0.405860
O O9 0.685982 0.961861 0.308334
O O10 0.590877 0.119113 0.382070
O O11 0.354369 0.819124 0.349956
O O12 0.395858 0.715565 0.460152
O O13 0.391823 0.688857 0.953657
O O14 0.493583 0.663283 0.844840
O O15 0.722004 0.526995 0.476854
O O16 0.500000 0.516329 0.500000
#
# Coordination Sequence:
#
# PCOD8305147 Si02
#       8
#     8   8   8   4   8   8   8   8
#     4  12  27  52  74 109 151 200 260 323 388 457
#     4  12  24  43  73 107 145 195 253 313 384 455
#     4  12  26  50  81 107 148 207 258 323 386 476
#     4  12  30  50  82 112 150 204 270 328 390 472
#     4  11  27  45  72 112 153 202 253 315 387 470
#     4  11  23  42  72 106 149 201 256 305 390 469
#     4  11  24  41  69 105 152 197 247 310 384 459
#     4  11  23  42  68 108 161 192 246 313 388 462
#
# _framework density 23.551649999999999
#
# number of rings (size 3 to 8) (size 9 to 14) (size 15 to 20)
#    0.000    0.533    4.000    4.400    3.733    2.667 
#    2.400    0.000    0.000    0.000    0.000    0.000 
#    0.000    0.000    0.000    0.000    0.000    0.000 
#
# Total GULP energy -743363.690457 kJ/mol
# GULP energy per Si atom -12389.394841 kJ/mol
# Density = 2.349804 g / cm^3
# Si number density = 23.551650 Si / 1000 Ang^3
#
#
#
# Elastic Constant Matrix: (Units=GPa)
#
#
# Indices 1 2 3 4 5 6 
#
# 1 85.7398 23.3287 33.6043 0.0000 0.0000 0.0000
# 2 23.3287 85.7402 33.6044 0.0000 0.0000 0.0000
# 3 33.6043 33.6044 145.7774 0.0000 0.0000 0.0000
# 4 0.0000 0.0000 0.0000 34.7885 0.0000 0.0000
# 5 0.0000 0.0000 0.0000 0.0000 34.7886 0.0000
# 6 0.0000 0.0000 0.0000 0.0000 0.0000 24.0566
#
#
#
# Elastic Compliance Matrix: (Units=1/GPa)
#
#
# Indices 1 2 3 4 5 6 
#
# 1 0.013355 -0.002668 -0.002463 0.000000 0.000000 0.000000
# 2 -0.002668 0.013355 -0.002463 0.000000 0.000000 0.000000
# 3 -0.002463 -0.002463 0.007996 0.000000 0.000000 0.000000
# 4 0.000000 0.000000 0.000000 0.028745 0.000000 0.000000
# 5 0.000000 0.000000 0.000000 0.000000 0.028745 0.000000
# 6 0.000000 0.000000 0.000000 0.000000 0.000000 0.041569
#
#
# Mechanical properties :
#
#
# Convention : Reuss Voigt Hill
#
# Bulk Modulus (GPa) = 51.24318 55.37025 53.30672
# Shear Modulus (GPa) = 32.16291 33.84139 33.00215
#
# Velocity S-wave (km/s) = 3.69946 3.79476 3.74741
# Velocity P-wave (km/s) = 6.32874 6.53922 6.43484
#
# Compressibility (1/GPa) = 0.01951479
#
# Stress axis : x y z
#
# Youngs Moduli (GPa) = 74.88021 74.88061 125.07023
#
# Poissons Ratio (x) = 0.19979 0.30810
# Poissons Ratio (y) = 0.19979 0.30810
# Poissons Ratio (z) = 0.18446 0.18446
#
# Static dielectric constant tensor:
#      x y z
#    x 4.195960 0.000000 0.000000 
#    y 0.000000 4.195960 0.000000 
#    z 0.000000 0.000000 4.444650 
# 
# 
# High freq. dielectric constant tensor:
#      x y z
#    x 1.921460 0.000000 0.000000 
#    y 0.000000 1.921460 0.000000 
#    z 0.000000 0.000000 1.954030 
# 
# From -- ./inp_files/6463.got.cif
#   From: 2010.03.12/outbox.cif.g09.slc.cpg/sg91_4_cif.got.tgz:6463.got - 2010.04.08 20:27:58.
