data_PCOD8305003
_publ_section_title
;
Structure prediction by ZEFSAII (Michael W. Deem and Ramdas Pophale) SiO2 
 PCOD8305003
Probable space group: P 41 2 2
;
_chemical_formula_sum "Si O2"
_cell_formula_units_Z 40
_cell_length_a 15.238293
_cell_length_b 15.238293
_cell_length_c 8.071104
_cell_angle_alpha 90.000000
_cell_angle_beta 90.000000
_cell_angle_gamma 90.000000
_cell_volume 1874.155334
_symmetry_space_group_name_H-M "P 41 2 2"
_symmetry_group_IT_number 91
_symmetry_cell_setting 'tetragonal'
loop_
_space_group_symop_operation_xyz
x,y,z
-y,x,1/4+z
-x,-y,1/2+z
y,-x,3/4+z
x,-y,1/2-z
-x,y,-z
y,x,3/4-z
-y,-x,1/4-z
loop_
_atom_site_type_symbol
_atom_site_label
_atom_site_fract_x
_atom_site_fract_y
_atom_site_fract_z
Si Si1 0.739668 0.536725 0.067688
Si Si2 0.834986 0.737730 0.745173
Si Si3 0.576225 0.083755 0.635818
Si Si4 0.897878 0.947779 0.101316
Si Si5 0.694154 0.357745 0.944329
O O1 0.757742 0.500000 0.250000
O O2 0.669647 0.615850 0.071091
O O3 0.830620 0.571540 0.998299
O O4 0.701538 0.463119 0.943808
O O5 0.757719 0.757719 0.875000
O O6 0.913792 0.674342 0.807206
O O7 0.869331 0.833795 0.694177
O O8 0.787879 0.684522 0.599211
O O9 0.500000 0.081735 0.500000
O O10 0.566173 0.000000 0.750000
O O11 0.990159 0.913463 0.187195
O O12 0.849523 0.000000 0.250000
O O13 0.675821 0.324180 0.125000
#
# Coordination Sequence:
#
# PCOD8305003 Si02
#       5
#     8   8   8   8   8
#     4  10  21  44  71  99 139 174 225 279 337 405
#     4  12  26  41  70 100 133 179 225 277 342 406
#     4  12  26  45  68  98 136 182 225 279 339 408
#     4  10  26  46  68  94 133 172 222 285 344 398
#     4  10  22  42  74 100 137 178 222 279 337 403
#
# _framework density 21.342949000000001
#
# number of rings (size 3 to 8) (size 9 to 14) (size 15 to 20)
#    0.000    1.200    4.000    0.600   11.200    0.800 
#    3.600    0.000   35.200    0.000    0.000    0.000 
#    0.000    0.000    0.000    0.000    0.000    0.000 
#
# Total GULP energy -495710.753683 kJ/mol
# GULP energy per Si atom -12392.768842 kJ/mol
# Density = 2.129437 g / cm^3
# Si number density = 21.342949 Si / 1000 Ang^3
#
#
#
# Elastic Constant Matrix: (Units=GPa)
#
#
# Indices 1 2 3 4 5 6 
#
# 1 134.6591 75.1495 51.4969 0.0000 0.0000 0.0000
# 2 75.1495 134.6591 51.4971 0.0000 0.0000 0.0000
# 3 51.4969 51.4971 42.4295 0.0000 0.0000 0.0000
# 4 0.0000 0.0000 0.0000 38.3494 0.0000 0.0000
# 5 0.0000 0.0000 0.0000 0.0000 38.3532 0.0000
# 6 0.0000 0.0000 0.0000 0.0000 0.0000 39.4512
#
#
#
# Elastic Compliance Matrix: (Units=1/GPa)
#
#
# Indices 1 2 3 4 5 6 
#
# 1 0.014298 -0.002506 -0.014312 0.000000 0.000000 0.000000
# 2 -0.002506 0.014298 -0.014312 0.000000 0.000000 0.000000
# 3 -0.014312 -0.014312 0.058309 0.000000 0.000000 0.000000
# 4 0.000000 0.000000 0.000000 0.026076 0.000000 0.000000
# 5 0.000000 0.000000 0.000000 0.000000 0.026073 0.000000
# 6 0.000000 0.000000 0.000000 0.000000 0.000000 0.025348
#
#
# Mechanical properties :
#
#
# Convention : Reuss Voigt Hill
#
# Bulk Modulus (GPa) = 40.57520 74.22607 57.40063
# Shear Modulus (GPa) = 21.28769 32.13771 26.71270
#
# Velocity S-wave (km/s) = 3.16161 3.88464 3.54162
# Velocity P-wave (km/s) = 5.69034 7.41444 6.60885
#
# Compressibility (1/GPa) = 0.02464560
#
# Stress axis : x y z
#
# Youngs Moduli (GPa) = 69.94025 69.93994 17.14988
#
# Poissons Ratio (x) = 0.17527 0.24545
# Poissons Ratio (y) = 0.17527 0.24545
# Poissons Ratio (z) = 1.00097 1.00098
#
# Static dielectric constant tensor:
#      x y z
#    x 3.938080 0.000000 0.000000 
#    y 0.000000 3.937990 0.000000 
#    z 0.000000 0.000000 4.143240 
# 
# 
# High freq. dielectric constant tensor:
#      x y z
#    x 1.839750 0.000000 0.000000 
#    y 0.000000 1.839750 0.000000 
#    z 0.000000 0.000000 1.850810 
# 
# From -- ./inp_files/2410.got.cif
#   From: 2010.03.12/outbox.cif.g09.slc.cpg/sg91_2_cif.got.tgz:2410.got - 2010.04.08 20:27:58.
