data_PCOD8305364
_publ_section_title
;
Structure prediction by ZEFSAII (Michael W. Deem and Ramdas Pophale) SiO2 
 PCOD8305364
Probable space group: P 41 21 2
;
_chemical_formula_sum "Si O2"
_cell_formula_units_Z 56
_cell_length_a 14.321357
_cell_length_b 14.321357
_cell_length_c 12.475963
_cell_angle_alpha 90.000000
_cell_angle_beta 90.000000
_cell_angle_gamma 90.000000
_cell_volume 2558.835810
_symmetry_space_group_name_H-M "P 41 21 2"
_symmetry_group_IT_number 92
_symmetry_cell_setting 'tetragonal'
loop_
_space_group_symop_operation_xyz
x,y,z
1/2-y,1/2+x,1/4+z
-x,-y,1/2+z
1/2+y,1/2-x,3/4+z
1/2+x,1/2-y,3/4-z
1/2-x,1/2+y,1/4-z
y,x,-z
-y,-x,1/2-z
loop_
_atom_site_type_symbol
_atom_site_label
_atom_site_fract_x
_atom_site_fract_y
_atom_site_fract_z
Si Si1 0.497959 0.648305 0.475371
Si Si2 0.765121 0.453082 0.729247
Si Si3 0.108949 0.615436 0.569278
Si Si4 0.764151 0.617210 0.024904
Si Si5 0.201984 0.075198 0.780843
Si Si6 0.932057 0.328312 0.670657
Si Si7 0.893021 0.567547 0.193077
O O1 0.551669 0.551669 0.500000
O O2 0.492503 0.687637 0.353450
O O3 0.389926 0.631039 0.506160
O O4 0.554508 0.720746 0.549271
O O5 0.844887 0.531841 0.738650
O O6 0.710121 0.431053 0.839332
O O7 0.824804 0.361822 0.690136
O O8 0.097326 0.665720 0.680200
O O9 0.208535 0.630989 0.513322
O O10 0.088863 0.507957 0.598650
O O11 0.697132 0.525984 0.027105
O O12 0.709433 0.709433 0.000000
O O13 0.819604 0.637465 0.135245
O O14 0.967172 0.339631 0.548340
O O15 0.011130 0.385881 0.736111
#
# Coordination Sequence:
#
# PCOD8305364 Si02
#       7
#     8   8   8   8   8   8   8
#     4  12  28  47  67  99 144 191 241 290 363 437
#     4  11  24  43  71 102 135 183 234 300 360 441
#     4  10  22  39  68  99 135 172 229 286 364 419
#     4  10  22  38  63  92 132 176 230 281 344 424
#     4  10  24  44  67  94 136 189 233 290 350 439
#     4  12  24  41  71 102 142 176 229 297 363 427
#     4  11  22  40  65 104 137 174 223 297 361 425
#
# _framework density 21.884951000000001
#
# number of rings (size 3 to 8) (size 9 to 14) (size 15 to 20)
#    0.000    1.143    2.857    2.571    6.000    4.571 
#    0.000    5.000    0.000    0.000    0.000    0.000 
#    0.000    0.000    0.000    0.000    0.000    0.000 
#
# Total GULP energy -694051.421002 kJ/mol
# GULP energy per Si atom -12393.775375 kJ/mol
# Density = 2.183514 g / cm^3
# Si number density = 21.884951 Si / 1000 Ang^3
#
#
#
# Elastic Constant Matrix: (Units=GPa)
#
#
# Indices 1 2 3 4 5 6 
#
# 1 87.1528 31.9395 9.3054 0.0000 0.0000 0.0000
# 2 31.9395 87.1528 9.3054 0.0000 0.0000 0.0000
# 3 9.3054 9.3054 54.6187 0.0000 0.0000 0.0000
# 4 0.0000 0.0000 0.0000 23.1836 0.0000 0.0000
# 5 0.0000 0.0000 0.0000 0.0000 23.1836 0.0000
# 6 0.0000 0.0000 0.0000 0.0000 0.0000 43.9550
#
#
#
# Elastic Compliance Matrix: (Units=1/GPa)
#
#
# Indices 1 2 3 4 5 6 
#
# 1 0.013369 -0.004743 -0.001470 0.000000 0.000000 0.000000
# 2 -0.004743 0.013369 -0.001470 0.000000 0.000000 0.000000
# 3 -0.001470 -0.001470 0.018810 0.000000 0.000000 0.000000
# 4 0.000000 0.000000 0.000000 0.043134 0.000000 0.000000
# 5 0.000000 0.000000 0.000000 0.000000 0.043134 0.000000
# 6 0.000000 0.000000 0.000000 0.000000 0.000000 0.022751
#
#
# Mechanical properties :
#
#
# Convention : Reuss Voigt Hill
#
# Bulk Modulus (GPa) = 33.13037 36.66941 34.89989
# Shear Modulus (GPa) = 27.77916 29.95605 28.86761
#
# Velocity S-wave (km/s) = 3.56663 3.70374 3.63583
# Velocity P-wave (km/s) = 5.66854 5.92302 5.79718
#
# Compressibility (1/GPa) = 0.03018378
#
# Stress axis : x y z
#
# Youngs Moduli (GPa) = 74.79962 74.79962 53.16457
#
# Poissons Ratio (x) = 0.35474 0.07814
# Poissons Ratio (y) = 0.35474 0.07814
# Poissons Ratio (z) = 0.10993 0.10993
#
# Static dielectric constant tensor:
#      x y z
#    x 4.146300 0.000000 0.000000 
#    y 0.000000 4.146300 0.000000 
#    z 0.000000 0.000000 4.801640 
# 
# 
# High freq. dielectric constant tensor:
#      x y z
#    x 1.855660 0.000000 0.000000 
#    y 0.000000 1.855660 0.000000 
#    z 0.000000 0.000000 1.863590 
# 
# From -- ./inp_files/2248.got.cif
#   From: 2010.03.12/outbox.cif.g09.slc.cpg/sg92_2_cif.got.tgz:2248.got - 2010.04.08 20:41:11.
