data_PCOD8305021
_publ_section_title
;
Structure prediction by ZEFSAII (Michael W. Deem and Ramdas Pophale) SiO2 
 PCOD8305021
Probable space group: P 41 2 2
;
_chemical_formula_sum "Si O2"
_cell_formula_units_Z 32
_cell_length_a 9.040901
_cell_length_b 9.040901
_cell_length_c 17.510930
_cell_angle_alpha 90.000000
_cell_angle_beta 90.000000
_cell_angle_gamma 90.000000
_cell_volume 1431.306486
_symmetry_space_group_name_H-M "P 41 2 2"
_symmetry_group_IT_number 91
_symmetry_cell_setting 'tetragonal'
loop_
_space_group_symop_operation_xyz
x,y,z
-y,x,1/4+z
-x,-y,1/2+z
y,-x,3/4+z
x,-y,1/2-z
-x,y,-z
y,x,3/4-z
-y,-x,1/4-z
loop_
_atom_site_type_symbol
_atom_site_label
_atom_site_fract_x
_atom_site_fract_y
_atom_site_fract_z
Si Si1 0.007862 0.408261 0.409404
Si Si2 0.409175 0.771420 0.923426
Si Si3 0.490152 0.277087 0.909286
Si Si4 0.090798 0.094289 0.575725
O O1 0.894308 0.510950 0.362901
O O2 0.979017 0.239573 0.383245
O O3 0.000000 0.422801 0.500000
O O4 0.165875 0.470262 0.385510
O O5 0.357634 0.620679 0.886028
O O6 0.266794 0.879787 0.937283
O O7 0.500000 0.739422 0.000000
O O8 0.338313 0.338313 0.875000
O O9 0.500000 0.299703 0.000000
O O10 0.000000 0.067228 0.500000
O O11 0.053302 0.946699 0.625000
#
# Coordination Sequence:
#
# PCOD8305021 Si02
#       4
#     8   8   8   8
#     4  10  22  40  61  90 127 169 214 266 329 397
#     4  11  23  40  64  92 126 171 218 267 325 395
#     4  11  23  39  61  92 127 167 216 272 327 388
#     4  10  22  39  62  92 126 165 211 263 320 384
#
# _framework density 22.357198
#
# number of rings (size 3 to 8) (size 9 to 14) (size 15 to 20)
#    0.000    1.500    0.000    4.500    0.000    9.000 
#    0.000    0.000    0.000    0.000    0.000    0.000 
#    0.000    0.000    0.000    0.000    0.000    0.000 
#
# Total GULP energy -396625.611493 kJ/mol
# GULP energy per Si atom -12394.550359 kJ/mol
# Density = 2.230631 g / cm^3
# Si number density = 22.357198 Si / 1000 Ang^3
#
#
#
# Elastic Constant Matrix: (Units=GPa)
#
#
# Indices 1 2 3 4 5 6 
#
# 1 55.9054 29.8461 26.4528 0.0000 0.0000 0.0000
# 2 29.8461 55.9065 26.4526 0.0000 0.0000 0.0000
# 3 26.4528 26.4526 128.8404 0.0000 0.0000 0.0000
# 4 0.0000 0.0000 0.0000 40.4132 0.0000 0.0000
# 5 0.0000 0.0000 0.0000 0.0000 40.4130 0.0000
# 6 0.0000 0.0000 0.0000 0.0000 0.0000 45.2216
#
#
#
# Elastic Compliance Matrix: (Units=1/GPa)
#
#
# Indices 1 2 3 4 5 6 
#
# 1 0.025863 -0.012510 -0.002742 0.000000 0.000000 0.000000
# 2 -0.012510 0.025863 -0.002741 0.000000 0.000000 0.000000
# 3 -0.002742 -0.002741 0.008887 0.000000 0.000000 0.000000
# 4 0.000000 0.000000 0.000000 0.024744 0.000000 0.000000
# 5 0.000000 0.000000 0.000000 0.000000 0.024744 0.000000
# 6 0.000000 0.000000 0.000000 0.000000 0.000000 0.022113
#
#
# Mechanical properties :
#
#
# Convention : Reuss Voigt Hill
#
# Bulk Modulus (GPa) = 40.60581 45.12838 42.86710
# Shear Modulus (GPa) = 28.34291 35.73629 32.03960
#
# Velocity S-wave (km/s) = 3.56438 4.00237 3.78971
# Velocity P-wave (km/s) = 5.92803 6.44884 6.19391
#
# Compressibility (1/GPa) = 0.02462702
#
# Stress axis : x y z
#
# Youngs Moduli (GPa) = 38.66475 38.66567 112.52013
#
# Poissons Ratio (x) = 0.48371 0.30849
# Poissons Ratio (y) = 0.48370 0.30847
# Poissons Ratio (z) = 0.10600 0.10600
#
# Static dielectric constant tensor:
#      x y z
#    x 4.345010 0.000000 0.000000 
#    y 0.000000 4.345000 0.000000 
#    z 0.000000 0.000000 3.923250 
# 
# 
# High freq. dielectric constant tensor:
#      x y z
#    x 1.884030 0.000000 0.000000 
#    y 0.000000 1.884030 0.000000 
#    z 0.000000 0.000000 1.885660 
# 
# From -- ./inp_files/17126.got.cif
#   From: 2010.03.12/outbox.cif.g09.slc.cpg/sg91_9_cif.got.tgz:17126.got - 2010.04.08 20:27:58.
