data_PCOD8305240
_publ_section_title
;
Structure prediction by ZEFSAII (Michael W. Deem and Ramdas Pophale) SiO2 
 PCOD8305240
Probable space group: P 41 21 2
;
_chemical_formula_sum "Si O2"
_cell_formula_units_Z 40
_cell_length_a 14.686414
_cell_length_b 14.686414
_cell_length_c 8.330766
_cell_angle_alpha 90.000000
_cell_angle_beta 90.000000
_cell_angle_gamma 90.000000
_cell_volume 1796.869218
_symmetry_space_group_name_H-M "P 41 21 2"
_symmetry_group_IT_number 92
_symmetry_cell_setting 'tetragonal'
loop_
_space_group_symop_operation_xyz
x,y,z
1/2-y,1/2+x,1/4+z
-x,-y,1/2+z
1/2+y,1/2-x,3/4+z
1/2+x,1/2-y,3/4-z
1/2-x,1/2+y,1/4-z
y,x,-z
-y,-x,1/2-z
loop_
_atom_site_type_symbol
_atom_site_label
_atom_site_fract_x
_atom_site_fract_y
_atom_site_fract_z
Si Si1 0.368065 0.264794 0.869623
Si Si2 0.983309 0.113799 0.099539
Si Si3 0.807499 0.329473 0.189157
Si Si4 0.087193 0.452295 0.038988
Si Si5 0.296841 0.005037 0.741159
O O1 0.409132 0.353217 0.781278
O O2 0.315786 0.202130 0.743897
O O3 0.441461 0.196804 0.953042
O O4 0.296248 0.296248 0.000000
O O5 0.032163 0.203273 0.169016
O O6 0.053279 0.053279 0.000000
O O7 0.939908 0.060093 0.250000
O O8 0.714334 0.285667 0.250000
O O9 0.799241 0.439626 0.177969
O O10 0.895764 0.299097 0.293108
O O11 0.059301 0.552408 0.106100
O O12 0.029215 0.380157 0.143497
#
# Coordination Sequence:
#
# PCOD8305240 Si02
#       5
#     8   8   8   8   8
#     4  10  21  41  67  94 129 175 223 272 339 400
#     4  11  23  42  68  92 133 175 225 286 339 396
#     4  10  21  40  66  94 129 174 218 279 337 399
#     4  11  21  43  63  96 131 177 213 273 337 401
#     4  10  19  38  66  86 130 166 214 266 335 396
#
# _framework density 22.260942
#
# number of rings (size 3 to 8) (size 9 to 14) (size 15 to 20)
#    0.000    1.600    6.000    3.000    0.000    4.000 
#    7.200    2.000    0.000    0.000    0.000    0.000 
#    0.000    0.000    0.000    0.000    0.000    0.000 
#
# Total GULP energy -495730.440454 kJ/mol
# GULP energy per Si atom -12393.261011 kJ/mol
# Density = 2.221028 g / cm^3
# Si number density = 22.260942 Si / 1000 Ang^3
#
#
#
# Elastic Constant Matrix: (Units=GPa)
#
#
# Indices 1 2 3 4 5 6 
#
# 1 87.4673 54.0075 43.8878 0.0000 0.0000 0.0000
# 2 54.0075 87.4656 43.8884 0.0000 0.0000 0.0000
# 3 43.8878 43.8884 57.5418 0.0000 0.0000 0.0000
# 4 0.0000 0.0000 0.0000 34.7637 0.0000 0.0000
# 5 0.0000 0.0000 0.0000 0.0000 34.7639 0.0000
# 6 0.0000 0.0000 0.0000 0.0000 0.0000 34.3315
#
#
#
# Elastic Compliance Matrix: (Units=1/GPa)
#
#
# Indices 1 2 3 4 5 6 
#
# 1 0.021652 -0.008235 -0.010234 0.000000 0.000000 0.000000
# 2 -0.008235 0.021653 -0.010235 0.000000 0.000000 0.000000
# 3 -0.010234 -0.010235 0.032990 0.000000 0.000000 0.000000
# 4 0.000000 0.000000 0.000000 0.028766 0.000000 0.000000
# 5 0.000000 0.000000 0.000000 0.000000 0.028765 0.000000
# 6 0.000000 0.000000 0.000000 0.000000 0.000000 0.029128
#
#
# Mechanical properties :
#
#
# Convention : Reuss Voigt Hill
#
# Bulk Modulus (GPa) = 52.93907 57.33804 55.13855
# Shear Modulus (GPa) = 22.05968 26.81788 24.43878
#
# Velocity S-wave (km/s) = 3.15137 3.47465 3.31695
# Velocity P-wave (km/s) = 6.08886 6.47385 6.28431
#
# Compressibility (1/GPa) = 0.01888964
#
# Stress axis : x y z
#
# Youngs Moduli (GPa) = 46.18447 46.18228 30.31182
#
# Poissons Ratio (x) = 0.38029 0.31020
# Poissons Ratio (y) = 0.38031 0.31024
# Poissons Ratio (z) = 0.47264 0.47267
#
# Static dielectric constant tensor:
#      x y z
#    x 4.189970 0.000000 0.000000 
#    y 0.000000 4.189980 0.000000 
#    z 0.000000 0.000000 3.918210 
# 
# 
# High freq. dielectric constant tensor:
#      x y z
#    x 1.874970 0.000000 0.000000 
#    y 0.000000 1.874970 0.000000 
#    z 0.000000 0.000000 1.857270 
# 
# From -- ./inp_files/1314.got.cif
#   From: 2010.03.12/outbox.cif.g09.slc.cpg/sg92_1_cif.got.tgz:1314.got - 2010.04.08 20:41:11.
