data_PCOD8305598
_publ_section_title
;
Structure prediction by ZEFSAII (Michael W. Deem and Ramdas Pophale) SiO2 
 PCOD8305598
Probable space group: P 42 2 2
;
_chemical_formula_sum "Si O2"
_cell_formula_units_Z 48
_cell_length_a 9.480387
_cell_length_b 9.480387
_cell_length_c 28.023912
_cell_angle_alpha 90.000000
_cell_angle_beta 90.000000
_cell_angle_gamma 90.000000
_cell_volume 2518.725811
_symmetry_space_group_name_H-M "P 42 2 2"
_symmetry_group_IT_number 93
_symmetry_cell_setting 'tetragonal'
loop_
_space_group_symop_operation_xyz
x,y,z
-y,x,1/2+z
-x,-y,z
y,-x,1/2+z
x,-y,-z
-x,y,-z
y,x,1/2-z
-y,-x,1/2-z
loop_
_atom_site_type_symbol
_atom_site_label
_atom_site_fract_x
_atom_site_fract_y
_atom_site_fract_z
Si Si1 0.748578 0.177826 0.108514
Si Si2 0.519576 0.664466 0.944051
Si Si3 0.667805 0.664613 0.195872
Si Si4 0.982561 0.163189 0.948387
Si Si5 0.346335 0.665014 0.303742
Si Si6 0.844212 0.288688 0.607905
O O1 0.672127 0.279738 0.070528
O O2 0.907830 0.201585 0.092641
O O3 0.739818 0.234748 0.162084
O O4 0.696983 0.014371 0.108415
O O5 0.500000 0.500000 0.929511
O O6 0.424803 0.769585 0.913304
O O7 0.500000 0.686458 0.000000
O O8 0.707420 0.707420 0.250000
O O9 0.721224 0.504965 0.185583
O O10 0.501086 0.663443 0.188057
O O11 0.738098 0.780431 0.160860
O O12 0.832512 0.205454 0.927680
O O13 0.000000 0.000000 0.958621
O O14 0.000000 0.240870 0.000000
O O15 0.299557 0.700444 0.250000
#
# Coordination Sequence:
#
# PCOD8305598 Si02
#       6
#     8   8   8   8   8   8
#     4  11  21  36  60  86 114 148 196 245 289 343
#     4  11  23  37  57  87 121 153 189 237 290 347
#     4   9  18  35  58  81 111 153 190 231 289 346
#     4   9  20  38  57  79 115 155 189 231 292 351
#     4   9  18  35  58  81 111 153 190 231 289 346
#     4  11  21  36  60  86 114 148 196 245 289 343
#
# _framework density 19.057254
#
# number of rings (size 3 to 8) (size 9 to 14) (size 15 to 20)
#    0.000    2.000    1.667    3.500    0.000    2.667 
#    3.000    3.333    0.000    6.000    0.000    0.000 
#    0.000    0.000    0.000    0.000    0.000    0.000 
#
# Total GULP energy -594863.991015 kJ/mol
# GULP energy per Si atom -12392.999813 kJ/mol
# Density = 1.901388 g / cm^3
# Si number density = 19.057254 Si / 1000 Ang^3
#
#
#
# Elastic Constant Matrix: (Units=GPa)
#
#
# Indices 1 2 3 4 5 6 
#
# 1 65.9802 14.4609 39.3281 0.0000 0.0000 0.0000
# 2 14.4609 65.9800 39.3279 0.0000 0.0000 0.0000
# 3 39.3281 39.3279 147.4095 0.0000 0.0000 0.0000
# 4 0.0000 0.0000 0.0000 20.5648 0.0000 0.0000
# 5 0.0000 0.0000 0.0000 0.0000 20.5650 0.0000
# 6 0.0000 0.0000 0.0000 0.0000 0.0000 16.2940
#
#
#
# Elastic Compliance Matrix: (Units=1/GPa)
#
#
# Indices 1 2 3 4 5 6 
#
# 1 0.018115 -0.001296 -0.004487 0.000000 0.000000 0.000000
# 2 -0.001296 0.018115 -0.004487 0.000000 0.000000 0.000000
# 3 -0.004487 -0.004487 0.009178 0.000000 0.000000 0.000000
# 4 0.000000 0.000000 0.000000 0.048627 0.000000 0.000000
# 5 0.000000 0.000000 0.000000 0.000000 0.048626 0.000000
# 6 0.000000 0.000000 0.000000 0.000000 0.000000 0.061372
#
#
# Mechanical properties :
#
#
# Convention : Reuss Voigt Hill
#
# Bulk Modulus (GPa) = 40.21319 51.73373 45.97346
# Shear Modulus (GPa) = 21.47192 23.90161 22.68676
#
# Velocity S-wave (km/s) = 3.36029 3.54531 3.45404
# Velocity P-wave (km/s) = 6.01684 6.63056 6.33115
#
# Compressibility (1/GPa) = 0.02486746
#
# Stress axis : x y z
#
# Youngs Moduli (GPa) = 55.20384 55.20377 108.95420
#
# Poissons Ratio (x) = 0.07152 0.48891
# Poissons Ratio (y) = 0.07152 0.48890
# Poissons Ratio (z) = 0.24771 0.24771
#
# Static dielectric constant tensor:
#      x y z
#    x 3.563430 0.000000 0.000000 
#    y 0.000000 3.563430 0.000000 
#    z 0.000000 0.000000 3.968240 
# 
# 
# High freq. dielectric constant tensor:
#      x y z
#    x 1.724700 0.000000 0.000000 
#    y 0.000000 1.724700 0.000000 
#    z 0.000000 0.000000 1.762090 
# 
# From -- ./inp_files/7796.got.cif
#   From: 2010.03.12/outbox.cif.g09.slc.cpg/sg93_4_cif.got.tgz:7796.got - 2010.04.08 20:44:19.
