data_PCOD8305477
_publ_section_title
;
Structure prediction by ZEFSAII (Michael W. Deem and Ramdas Pophale) SiO2 
 PCOD8305477
Probable space group: P 41 21 2
;
_chemical_formula_sum "Si O2"
_cell_formula_units_Z 28
_cell_length_a 8.409809
_cell_length_b 8.409809
_cell_length_c 16.197568
_cell_angle_alpha 90.000000
_cell_angle_beta 90.000000
_cell_angle_gamma 90.000000
_cell_volume 1145.571173
_symmetry_space_group_name_H-M "P 41 21 2"
_symmetry_group_IT_number 92
_symmetry_cell_setting 'tetragonal'
loop_
_space_group_symop_operation_xyz
x,y,z
1/2-y,1/2+x,1/4+z
-x,-y,1/2+z
1/2+y,1/2-x,3/4+z
1/2+x,1/2-y,3/4-z
1/2-x,1/2+y,1/4-z
y,x,-z
-y,-x,1/2-z
loop_
_atom_site_type_symbol
_atom_site_label
_atom_site_fract_x
_atom_site_fract_y
_atom_site_fract_z
Si Si1 0.712302 0.287699 0.750000
Si Si2 0.273409 0.524491 0.531350
Si Si3 0.738629 0.412253 0.329864
Si Si4 0.884152 0.251250 0.906579
O O1 0.870661 0.289718 0.807913
O O2 0.709493 0.438579 0.687617
O O3 0.418052 0.418052 0.500000
O O4 0.143949 0.421238 0.581569
O O5 0.340550 0.661179 0.588609
O O6 0.184271 0.597033 0.453201
O O7 0.650899 0.349102 0.250000
O O8 0.731957 0.601661 0.328986
#
# Coordination Sequence:
#
# PCOD8305477 Si02
#       4
#     4   8   8   8
#     4  12  32  52  82 114 166 210 276 332 418 486
#     4  11  27  48  79 115 155 209 274 338 409 483
#     4  11  25  46  80 109 159 206 265 336 406 492
#     4  12  29  52  78 117 162 213 268 337 408 493
#
# _framework density 24.441953000000002
#
# number of rings (size 3 to 8) (size 9 to 14) (size 15 to 20)
#    0.000    0.571    1.429    3.429   18.000    0.000 
#    0.000    0.000    0.000    0.000    0.000    0.000 
#    0.000    0.000    0.000    0.000    0.000    0.000 
#
# Total GULP energy -347304.124854 kJ/mol
# GULP energy per Si atom -12403.718745 kJ/mol
# Density = 2.438632 g / cm^3
# Si number density = 24.441953 Si / 1000 Ang^3
#
#
#
# Elastic Constant Matrix: (Units=GPa)
#
#
# Indices 1 2 3 4 5 6 
#
# 1 107.5024 53.2762 48.3415 0.0000 0.0000 0.0000
# 2 53.2762 107.5015 48.3411 0.0000 0.0000 0.0000
# 3 48.3415 48.3411 145.9759 0.0000 0.0000 0.0000
# 4 0.0000 0.0000 0.0000 41.4856 0.0000 0.0000
# 5 0.0000 0.0000 0.0000 0.0000 41.4861 0.0000
# 6 0.0000 0.0000 0.0000 0.0000 0.0000 35.1486
#
#
#
# Elastic Compliance Matrix: (Units=1/GPa)
#
#
# Indices 1 2 3 4 5 6 
#
# 1 0.013104 -0.005338 -0.002572 0.000000 0.000000 0.000000
# 2 -0.005338 0.013104 -0.002572 0.000000 0.000000 0.000000
# 3 -0.002572 -0.002572 0.008554 0.000000 0.000000 0.000000
# 4 0.000000 0.000000 0.000000 0.024105 0.000000 0.000000
# 5 0.000000 0.000000 0.000000 0.000000 0.024104 0.000000
# 6 0.000000 0.000000 0.000000 0.000000 0.000000 0.028451
#
#
# Mechanical properties :
#
#
# Convention : Reuss Voigt Hill
#
# Bulk Modulus (GPa) = 72.46926 73.43304 72.95115
# Shear Modulus (GPa) = 36.50065 37.69211 37.09638
#
# Velocity S-wave (km/s) = 3.86860 3.93123 3.90004
# Velocity P-wave (km/s) = 7.04760 7.12146 7.08462
#
# Compressibility (1/GPa) = 0.01379896
#
# Stress axis : x y z
#
# Youngs Moduli (GPa) = 76.31351 76.31303 116.90631
#
# Poissons Ratio (x) = 0.40732 0.30067
# Poissons Ratio (y) = 0.40733 0.30067
# Poissons Ratio (z) = 0.19627 0.19627
#
# Static dielectric constant tensor:
#      x y z
#    x 4.622480 0.000000 0.000000 
#    y 0.000000 4.622470 0.000000 
#    z 0.000000 0.000000 4.599820 
# 
# 
# High freq. dielectric constant tensor:
#      x y z
#    x 1.979040 0.000000 0.000000 
#    y 0.000000 1.979040 0.000000 
#    z 0.000000 0.000000 1.985010 
# 
# From -- ./inp_files/2967.got.cif
#   From: 2010.03.12/outbox.cif.g09.slc.cpg/sg92_2_cif.got.tgz:2967.got - 2010.04.08 20:41:11.
