data_PCOD8305192
_publ_section_title
;
Structure prediction by ZEFSAII (Michael W. Deem and Ramdas Pophale) SiO2 
 PCOD8305192
Probable space group: P 41 21 2
;
_chemical_formula_sum "Si O2"
_cell_formula_units_Z 52
_cell_length_a 16.863469
_cell_length_b 16.863469
_cell_length_c 9.556284
_cell_angle_alpha 90.000000
_cell_angle_beta 90.000000
_cell_angle_gamma 90.000000
_cell_volume 2717.583426
_symmetry_space_group_name_H-M "P 41 21 2"
_symmetry_group_IT_number 92
_symmetry_cell_setting 'tetragonal'
loop_
_space_group_symop_operation_xyz
x,y,z
1/2-y,1/2+x,1/4+z
-x,-y,1/2+z
1/2+y,1/2-x,3/4+z
1/2+x,1/2-y,3/4-z
1/2-x,1/2+y,1/4-z
y,x,-z
-y,-x,1/2-z
loop_
_atom_site_type_symbol
_atom_site_label
_atom_site_fract_x
_atom_site_fract_y
_atom_site_fract_z
Si Si1 0.046603 0.306848 0.471324
Si Si2 0.043565 0.043565 0.000000
Si Si3 0.187654 0.425976 0.493140
Si Si4 0.152361 0.202318 0.298190
Si Si5 0.563916 0.563916 0.500000
Si Si6 0.533943 0.285790 0.010160
Si Si7 0.451058 0.725770 0.196732
Si Si8 0.726403 0.726403 0.000000
O O1 0.109443 0.377432 0.451377
O O2 0.081039 0.226288 0.402738
O O3 0.024730 0.287209 0.632101
O O4 0.968600 0.332799 0.388764
O O5 0.132206 0.029142 0.939670
O O6 0.978978 0.026308 0.882969
O O7 0.215592 0.484259 0.370734
O O8 0.260460 0.366441 0.518144
O O9 0.157614 0.107535 0.298829
O O10 0.131196 0.235555 0.141929
O O11 0.233322 0.239732 0.357862
O O12 0.545104 0.658794 0.508556
O O13 0.554174 0.247614 0.858459
#
# Coordination Sequence:
#
# PCOD8305192 Si02
#       8
#     8   4   8   8   4   8   8   4
#     4  10  22  39  64  83 118 161 214 249 301 364
#     4  10  20  31  46  86 118 160 179 240 292 382
#     4  10  22  40  60  89 115 163 205 258 300 368
#     4  10  16  35  60  85 111 160 193 247 296 376
#     4  10  22  27  50  84 126 152 191 224 310 366
#     4  11  19  36  55  87 122 155 192 249 305 382
#     4  10  20  34  57  85 125 149 198 250 314 367
#     4  10  20  36  66  90 116 154 222 248 296 380
#
# _framework density 19.134647000000001
#
# number of rings (size 3 to 8) (size 9 to 14) (size 15 to 20)
#    0.000    1.846    6.154    0.000    2.154    3.077 
#    0.000    6.154    0.000    0.000    0.000    0.000 
#    0.000    0.000    0.000    0.000    0.000    0.000 
#
# Total GULP energy -644414.282055 kJ/mol
# GULP energy per Si atom -12392.582347 kJ/mol
# Density = 1.909110 g / cm^3
# Si number density = 19.134647 Si / 1000 Ang^3
#
#
#
# Elastic Constant Matrix: (Units=GPa)
#
#
# Indices 1 2 3 4 5 6 
#
# 1 69.2702 44.8399 39.5226 0.0000 0.0000 0.0000
# 2 44.8399 69.2702 39.5226 0.0000 0.0000 0.0000
# 3 39.5226 39.5226 150.0855 0.0000 0.0000 0.0000
# 4 0.0000 0.0000 0.0000 19.8598 0.0000 0.0000
# 5 0.0000 0.0000 0.0000 0.0000 19.8598 0.0000
# 6 0.0000 0.0000 0.0000 0.0000 0.0000 24.3775
#
#
#
# Elastic Compliance Matrix: (Units=1/GPa)
#
#
# Indices 1 2 3 4 5 6 
#
# 1 0.025826 -0.015107 -0.002823 0.000000 0.000000 0.000000
# 2 -0.015107 0.025826 -0.002823 0.000000 0.000000 0.000000
# 3 -0.002823 -0.002823 0.008149 0.000000 0.000000 0.000000
# 4 0.000000 0.000000 0.000000 0.050353 0.000000 0.000000
# 5 0.000000 0.000000 0.000000 0.000000 0.050353 0.000000
# 6 0.000000 0.000000 0.000000 0.000000 0.000000 0.041021
#
#
# Mechanical properties :
#
#
# Convention : Reuss Voigt Hill
#
# Bulk Modulus (GPa) = 54.65539 59.59957 57.12748
# Shear Modulus (GPa) = 20.06972 23.80216 21.93594
#
# Velocity S-wave (km/s) = 3.24214 3.53077 3.38952
# Velocity P-wave (km/s) = 6.53000 6.91642 6.72598
#
# Compressibility (1/GPa) = 0.01829646
#
# Stress axis : x y z
#
# Youngs Moduli (GPa) = 38.72101 38.72101 122.70790
#
# Poissons Ratio (x) = 0.58496 0.34635
# Poissons Ratio (y) = 0.58496 0.34635
# Poissons Ratio (z) = 0.10929 0.10929
#
# Static dielectric constant tensor:
#      x y z
#    x 3.310790 0.000000 0.000000 
#    y 0.000000 3.310790 0.000000 
#    z 0.000000 0.000000 3.925580 
# 
# 
# High freq. dielectric constant tensor:
#      x y z
#    x 1.721160 0.000000 0.000000 
#    y 0.000000 1.721160 0.000000 
#    z 0.000000 0.000000 1.757140 
# 
# From -- ./inp_files/1608.got.cif
#   From: 2010.03.12/outbox.cif.g09.slc.cpg/sg92_1_cif.got.tgz:1608.got - 2010.04.08 20:41:11.
