data_PCOD8305915
_publ_section_title
;
Structure prediction by ZEFSAII (Michael W. Deem and Ramdas Pophale) SiO2 
 PCOD8305915
Probable space group: P 43 21 2
;
_chemical_formula_sum "Si O2"
_cell_formula_units_Z 64
_cell_length_a 11.701894
_cell_length_b 11.701894
_cell_length_c 27.057486
_cell_angle_alpha 90.000000
_cell_angle_beta 90.000000
_cell_angle_gamma 90.000000
_cell_volume 3705.098533
_symmetry_space_group_name_H-M "P 43 21 2"
_symmetry_group_IT_number 96
_symmetry_cell_setting 'tetragonal'
loop_
_space_group_symop_operation_xyz
x,y,z
1/2-y,1/2+x,3/4+z
-x,-y,1/2+z
1/2+y,1/2-x,1/4+z
1/2+x,1/2-y,1/4-z
1/2-x,1/2+y,3/4-z
y,x,-z
-y,-x,1/2-z
loop_
_atom_site_type_symbol
_atom_site_label
_atom_site_fract_x
_atom_site_fract_y
_atom_site_fract_z
Si Si1 0.936691 0.107538 0.641274
Si Si2 0.369065 0.880822 0.344368
Si Si3 0.186142 0.633122 0.261075
Si Si4 0.456623 0.375633 0.722078
Si Si5 0.192198 0.714080 0.498224
Si Si6 0.181302 0.164836 0.660168
Si Si7 0.019564 0.266318 0.821437
Si Si8 0.372514 0.913621 0.093649
O O1 0.903369 0.233685 0.659319
O O2 0.911289 0.089690 0.582555
O O3 0.866974 0.016938 0.675203
O O4 0.070059 0.086417 0.652587
O O5 0.420028 0.842053 0.292130
O O6 0.400379 0.787379 0.385608
O O7 0.435085 0.996185 0.357077
O O8 0.248154 0.751847 0.250000
O O9 0.269127 0.541721 0.287810
O O10 0.071163 0.656812 0.291376
O O11 0.521668 0.478332 0.750000
O O12 0.347041 0.341057 0.755864
O O13 0.312421 0.705479 0.468195
O O14 0.213020 0.646132 0.549384
O O15 0.091825 0.652360 0.465480
O O16 0.167250 0.289729 0.633369
O O17 0.015722 0.306751 0.878688
#
# Coordination Sequence:
#
# PCOD8305915 Si02
#       8
#     8   8   8   8   8   8   8   8
#     4  11  18  31  51  80 115 145 162 220 287 340
#     4  11  16  30  49  79 114 135 168 213 282 335
#     4  11  19  27  51  87 111 133 167 223 277 344
#     4  11  22  35  53  77 109 145 188 221 280 341
#     4  10  21  33  48  78 104 146 185 226 269 340
#     4   9  17  29  46  75 117 138 163 207 284 343
#     4  12  19  31  55  78 111 141 182 219 280 343
#     4   9  18  29  47  72 104 139 170 222 273 317
#
# _framework density 17.273495
#
# number of rings (size 3 to 8) (size 9 to 14) (size 15 to 20)
#    0.750    0.750    6.250    3.000    0.000    0.000 
#    0.000    0.000    2.750    0.000    0.000    0.000 
#    0.000    0.000    0.000    0.000    0.000    0.000 
#
# Total GULP energy -792951.443446 kJ/mol
# GULP energy per Si atom -12389.866304 kJ/mol
# Density = 1.723418 g / cm^3
# Si number density = 17.273495 Si / 1000 Ang^3
#
#
#
# Elastic Constant Matrix: (Units=GPa)
#
#
# Indices 1 2 3 4 5 6 
#
# 1 59.5514 14.8496 4.4884 0.0000 0.0000 0.0000
# 2 14.8496 59.5524 4.4894 0.0000 0.0000 0.0000
# 3 4.4884 4.4894 50.9235 0.0000 0.0000 0.0000
# 4 0.0000 0.0000 0.0000 24.0806 0.0000 0.0000
# 5 0.0000 0.0000 0.0000 0.0000 24.0807 0.0000
# 6 0.0000 0.0000 0.0000 0.0000 0.0000 12.7316
#
#
#
# Elastic Compliance Matrix: (Units=1/GPa)
#
#
# Indices 1 2 3 4 5 6 
#
# 1 0.017978 -0.004393 -0.001197 0.000000 0.000000 0.000000
# 2 -0.004393 0.017978 -0.001198 0.000000 0.000000 0.000000
# 3 -0.001197 -0.001198 0.019848 0.000000 0.000000 0.000000
# 4 0.000000 0.000000 0.000000 0.041527 0.000000 0.000000
# 5 0.000000 0.000000 0.000000 0.000000 0.041527 0.000000
# 6 0.000000 0.000000 0.000000 0.000000 0.000000 0.078545
#
#
# Mechanical properties :
#
#
# Convention : Reuss Voigt Hill
#
# Bulk Modulus (GPa) = 23.68066 24.18688 23.93377
# Shear Modulus (GPa) = 20.40364 21.92524 21.16444
#
# Velocity S-wave (km/s) = 3.44060 3.56659 3.50416
# Velocity P-wave (km/s) = 5.43348 5.56718 5.50073
#
# Compressibility (1/GPa) = 0.04222855
#
# Stress axis : x y z
#
# Youngs Moduli (GPa) = 55.62420 55.62507 50.38185
#
# Poissons Ratio (x) = 0.24434 0.06032
# Poissons Ratio (y) = 0.24433 0.06034
# Poissons Ratio (z) = 0.06660 0.06662
#
# Static dielectric constant tensor:
#      x y z
#    x 3.002250 0.000000 0.000000 
#    y 0.000000 3.002250 0.000000 
#    z 0.000000 0.000000 3.191410 
# 
# 
# High freq. dielectric constant tensor:
#      x y z
#    x 1.631850 0.000000 0.000000 
#    y 0.000000 1.631850 0.000000 
#    z 0.000000 0.000000 1.661160 
# 
# From -- ./inp_files/4223.got.cif
#   From: 2010.03.12/outbox.cif.g09.slc.cpg/sg96_3_cif.got.tgz:4223.got - 2010.04.08 20:56:49.
