data_PCOD8305491
_publ_section_title
;
Structure prediction by ZEFSAII (Michael W. Deem and Ramdas Pophale) SiO2 
 PCOD8305491
Probable space group: P 41 21 2
;
_chemical_formula_sum "Si O2"
_cell_formula_units_Z 32
_cell_length_a 9.180388
_cell_length_b 9.180388
_cell_length_c 17.272033
_cell_angle_alpha 90.000000
_cell_angle_beta 90.000000
_cell_angle_gamma 90.000000
_cell_volume 1455.678717
_symmetry_space_group_name_H-M "P 41 21 2"
_symmetry_group_IT_number 92
_symmetry_cell_setting 'tetragonal'
loop_
_space_group_symop_operation_xyz
x,y,z
1/2-y,1/2+x,1/4+z
-x,-y,1/2+z
1/2+y,1/2-x,3/4+z
1/2+x,1/2-y,3/4-z
1/2-x,1/2+y,1/4-z
y,x,-z
-y,-x,1/2-z
loop_
_atom_site_type_symbol
_atom_site_label
_atom_site_fract_x
_atom_site_fract_y
_atom_site_fract_z
Si Si1 0.181764 0.181764 0.500000
Si Si2 0.210782 0.458377 0.405049
Si Si3 0.186829 0.813172 0.250000
Si Si4 0.687404 0.022961 0.513662
Si Si5 0.964824 0.036863 0.891112
O O1 0.164940 0.348893 0.473426
O O2 0.091632 0.138247 0.576510
O O3 0.163953 0.401161 0.320132
O O4 0.120294 0.604207 0.423352
O O5 0.383886 0.486109 0.397993
O O6 0.355297 0.859115 0.256941
O O7 0.117713 0.876904 0.326066
O O8 0.857431 0.016083 0.535394
#
# Coordination Sequence:
#
# PCOD8305491 Si02
#       5
#     4   8   4   8   8
#     4  12  30  46  74 108 148 190 244 316 362 440
#     4  12  28  45  73 110 145 194 247 305 365 444
#     4  12  26  44  76 104 134 200 238 300 370 438
#     4  12  24  48  74 105 147 189 248 302 368 446
#     4  12  25  52  72 103 152 194 245 304 377 439
#
# _framework density 21.982873999999999
#
# number of rings (size 3 to 8) (size 9 to 14) (size 15 to 20)
#    0.000    0.000    7.500    0.750   10.500    2.000 
#    0.000    0.000    0.000    0.000    0.000    0.000 
#    0.000    0.000    0.000    0.000    0.000    0.000 
#
# Total GULP energy -396631.249926 kJ/mol
# GULP energy per Si atom -12394.726560 kJ/mol
# Density = 2.193284 g / cm^3
# Si number density = 21.982874 Si / 1000 Ang^3
#
#
#
# Elastic Constant Matrix: (Units=GPa)
#
#
# Indices 1 2 3 4 5 6 
#
# 1 122.3383 56.7553 50.5266 0.0000 0.0000 0.0000
# 2 56.7553 122.3370 50.5255 0.0000 0.0000 0.0000
# 3 50.5266 50.5255 103.8701 0.0000 0.0000 0.0000
# 4 0.0000 0.0000 0.0000 49.9857 0.0000 0.0000
# 5 0.0000 0.0000 0.0000 0.0000 49.9858 0.0000
# 6 0.0000 0.0000 0.0000 0.0000 0.0000 30.2305
#
#
#
# Elastic Compliance Matrix: (Units=1/GPa)
#
#
# Indices 1 2 3 4 5 6 
#
# 1 0.011472 -0.003776 -0.003744 0.000000 0.000000 0.000000
# 2 -0.003776 0.011472 -0.003744 0.000000 0.000000 0.000000
# 3 -0.003744 -0.003744 0.013269 0.000000 0.000000 0.000000
# 4 0.000000 0.000000 0.000000 0.020006 0.000000 0.000000
# 5 0.000000 0.000000 0.000000 0.000000 0.020006 0.000000
# 6 0.000000 0.000000 0.000000 0.000000 0.000000 0.033079
#
#
# Mechanical properties :
#
#
# Convention : Reuss Voigt Hill
#
# Bulk Modulus (GPa) = 73.06184 73.79558 73.42871
# Shear Modulus (GPa) = 36.65884 38.75627 37.70755
#
# Velocity S-wave (km/s) = 4.08807 4.20339 4.14613
# Velocity P-wave (km/s) = 7.45594 7.56310 7.50971
#
# Compressibility (1/GPa) = 0.01368704
#
# Stress axis : x y z
#
# Youngs Moduli (GPa) = 87.16883 87.16870 75.36108
#
# Poissons Ratio (x) = 0.32915 0.28213
# Poissons Ratio (y) = 0.32915 0.28212
# Poissons Ratio (z) = 0.32633 0.32632
#
# Static dielectric constant tensor:
#      x y z
#    x 3.930240 0.000000 0.000000 
#    y 0.000000 3.930250 0.000000 
#    z 0.000000 0.000000 4.364380 
# 
# 
# High freq. dielectric constant tensor:
#      x y z
#    x 1.864520 0.000000 0.000000 
#    y 0.000000 1.864520 0.000000 
#    z 0.000000 0.000000 1.891510 
# 
# From -- ./inp_files/3424.got.cif
#   From: 2010.03.12/outbox.cif.g09.slc.cpg/sg92_2_cif.got.tgz:3424.got - 2010.04.08 20:41:11.
