data_PCOD8305925
_publ_section_title
;
Structure prediction by ZEFSAII (Michael W. Deem and Ramdas Pophale) SiO2 
 PCOD8305925
Probable space group: P 43 21 2
;
_chemical_formula_sum "Si O2"
_cell_formula_units_Z 48
_cell_length_a 11.361783
_cell_length_b 11.361783
_cell_length_c 18.167657
_cell_angle_alpha 90.000000
_cell_angle_beta 90.000000
_cell_angle_gamma 90.000000
_cell_volume 2345.264894
_symmetry_space_group_name_H-M "P 43 21 2"
_symmetry_group_IT_number 96
_symmetry_cell_setting 'tetragonal'
loop_
_space_group_symop_operation_xyz
x,y,z
1/2-y,1/2+x,3/4+z
-x,-y,1/2+z
1/2+y,1/2-x,1/4+z
1/2+x,1/2-y,1/4-z
1/2-x,1/2+y,3/4-z
y,x,-z
-y,-x,1/2-z
loop_
_atom_site_type_symbol
_atom_site_label
_atom_site_fract_x
_atom_site_fract_y
_atom_site_fract_z
Si Si1 0.778047 0.735658 0.787391
Si Si2 0.835018 0.638991 0.497705
Si Si3 0.129687 0.600704 0.917647
Si Si4 0.540671 0.797653 0.854024
Si Si5 0.118788 0.439621 0.397101
Si Si6 0.493832 0.679960 0.004309
O O1 0.785633 0.696444 0.701554
O O2 0.646959 0.723207 0.818301
O O3 0.866066 0.645972 0.827801
O O4 0.828750 0.867642 0.793532
O O5 0.715111 0.715111 0.500000
O O6 0.890760 0.626733 0.579347
O O7 0.809469 0.517196 0.452902
O O8 0.937322 0.706303 0.454787
O O9 0.993573 0.603529 0.943904
O O10 0.484349 0.734686 0.923867
O O11 0.590070 0.925960 0.876498
O O12 0.234460 0.424946 0.446836
O O13 0.551182 0.551182 0.000000
#
# Coordination Sequence:
#
# PCOD8305925 Si02
#       6
#     8   8   8   8   8   8
#     4  11  22  39  65  92 128 165 210 265 322 386
#     4  11  25  41  66  95 129 170 212 271 328 386
#     4  11  23  42  65  94 123 166 225 261 320 394
#     4  10  23  40  67  89 124 172 216 261 316 387
#     4  10  21  40  63  93 120 169 219 263 304 390
#     4  11  22  39  63  92 131 162 211 265 331 377
#
# _framework density 20.466771999999999
#
# number of rings (size 3 to 8) (size 9 to 14) (size 15 to 20)
#    0.000    1.333    3.333    2.000   14.000    0.667 
#    0.000    1.667    0.000    0.000    0.000    0.000 
#    0.000    0.000    0.000    0.000    0.000    0.000 
#
# Total GULP energy -594894.834205 kJ/mol
# GULP energy per Si atom -12393.642379 kJ/mol
# Density = 2.042019 g / cm^3
# Si number density = 20.466772 Si / 1000 Ang^3
#
#
#
# Elastic Constant Matrix: (Units=GPa)
#
#
# Indices 1 2 3 4 5 6 
#
# 1 64.9936 36.6574 36.7344 0.0000 0.0000 0.0000
# 2 36.6574 64.9936 36.7344 0.0000 0.0000 0.0000
# 3 36.7344 36.7344 115.3977 0.0000 0.0000 0.0000
# 4 0.0000 0.0000 0.0000 34.6688 0.0000 0.0000
# 5 0.0000 0.0000 0.0000 0.0000 34.6688 0.0000
# 6 0.0000 0.0000 0.0000 0.0000 0.0000 31.6695
#
#
#
# Elastic Compliance Matrix: (Units=1/GPa)
#
#
# Indices 1 2 3 4 5 6 
#
# 1 0.024034 -0.011257 -0.004067 0.000000 0.000000 0.000000
# 2 -0.011257 0.024034 -0.004067 0.000000 0.000000 0.000000
# 3 -0.004067 -0.004067 0.011255 0.000000 0.000000 0.000000
# 4 0.000000 0.000000 0.000000 0.028844 0.000000 0.000000
# 5 0.000000 0.000000 0.000000 0.000000 0.028844 0.000000
# 6 0.000000 0.000000 0.000000 0.000000 0.000000 0.031576
#
#
# Mechanical properties :
#
#
# Convention : Reuss Voigt Hill
#
# Bulk Modulus (GPa) = 48.68481 51.73749 50.21115
# Shear Modulus (GPa) = 25.74433 29.21867 27.48150
#
# Velocity S-wave (km/s) = 3.55048 3.78248 3.66831
# Velocity P-wave (km/s) = 6.37548 6.66407 6.52137
#
# Compressibility (1/GPa) = 0.02054029
#
# Stress axis : x y z
#
# Youngs Moduli (GPa) = 41.60779 41.60779 88.84769
#
# Poissons Ratio (x) = 0.46836 0.36138
# Poissons Ratio (y) = 0.46836 0.36138
# Poissons Ratio (z) = 0.16924 0.16924
#
# Static dielectric constant tensor:
#      x y z
#    x 3.692920 0.000000 0.000000 
#    y 0.000000 3.692920 0.000000 
#    z 0.000000 0.000000 3.789590 
# 
# 
# High freq. dielectric constant tensor:
#      x y z
#    x 1.795370 0.000000 0.000000 
#    y 0.000000 1.795370 0.000000 
#    z 0.000000 0.000000 1.808770 
# 
# From -- ./inp_files/3106.got.cif
#   From: 2010.03.12/outbox.cif.g09.slc.cpg/sg96_2_cif.got.tgz:3106.got - 2010.04.08 20:56:49.
