data_PCOD8305978
_publ_section_title
;
Structure prediction by ZEFSAII (Michael W. Deem and Ramdas Pophale) SiO2 
 PCOD8305978
Probable space group: P 43 21 2
;
_chemical_formula_sum "Si O2"
_cell_formula_units_Z 32
_cell_length_a 8.989026
_cell_length_b 8.989026
_cell_length_c 18.702278
_cell_angle_alpha 90.000000
_cell_angle_beta 90.000000
_cell_angle_gamma 90.000000
_cell_volume 1511.192472
_symmetry_space_group_name_H-M "P 43 21 2"
_symmetry_group_IT_number 96
_symmetry_cell_setting 'tetragonal'
loop_
_space_group_symop_operation_xyz
x,y,z
1/2-y,1/2+x,3/4+z
-x,-y,1/2+z
1/2+y,1/2-x,1/4+z
1/2+x,1/2-y,1/4-z
1/2-x,1/2+y,3/4-z
y,x,-z
-y,-x,1/2-z
loop_
_atom_site_type_symbol
_atom_site_label
_atom_site_fract_x
_atom_site_fract_y
_atom_site_fract_z
Si Si1 0.994155 0.209074 0.704738
Si Si2 0.337933 0.805616 0.684313
Si Si3 0.306763 0.145161 0.666231
Si Si4 0.332356 0.235807 0.207911
O O1 0.921620 0.078381 0.750000
O O2 0.874887 0.292136 0.656326
O O3 0.126976 0.137844 0.656543
O O4 0.066968 0.325508 0.761037
O O5 0.229878 0.770123 0.750000
O O6 0.496170 0.722318 0.694536
O O7 0.261663 0.741439 0.614144
O O8 0.368420 0.981066 0.680215
O O9 0.345643 0.254437 0.733482
#
# Coordination Sequence:
#
# PCOD8305978 Si02
#       4
#     8   8   8   8
#     4  10  25  44  72 105 147 181 243 289 361 424
#     4  12  26  46  74 102 147 183 248 292 369 425
#     4  10  26  43  74 102 142 190 234 298 355 424
#     4  10  28  41  76 103 141 187 238 296 360 425
#
# _framework density 21.175332000000001
#
# number of rings (size 3 to 8) (size 9 to 14) (size 15 to 20)
#    1.500    0.000    0.000    2.250   17.500    0.000 
#    0.000    0.000    0.000    0.000    0.000    0.000 
#    0.000    0.000    0.000    0.000    0.000    0.000 
#
# Total GULP energy -396651.778403 kJ/mol
# GULP energy per Si atom -12395.368075 kJ/mol
# Density = 2.112714 g / cm^3
# Si number density = 21.175332 Si / 1000 Ang^3
#
#
#
# Elastic Constant Matrix: (Units=GPa)
#
#
# Indices 1 2 3 4 5 6 
#
# 1 112.1662 16.4948 58.8399 0.0000 0.0000 0.0000
# 2 16.4948 112.1646 58.8414 0.0000 0.0000 0.0000
# 3 58.8399 58.8414 150.4233 0.0000 0.0000 0.0000
# 4 0.0000 0.0000 0.0000 43.0298 0.0000 0.0000
# 5 0.0000 0.0000 0.0000 0.0000 43.0295 0.0000
# 6 0.0000 0.0000 0.0000 0.0000 0.0000 29.2134
#
#
#
# Elastic Compliance Matrix: (Units=1/GPa)
#
#
# Indices 1 2 3 4 5 6 
#
# 1 0.011277 0.000825 -0.004734 0.000000 0.000000 0.000000
# 2 0.000825 0.011278 -0.004734 0.000000 0.000000 0.000000
# 3 -0.004734 -0.004734 0.010352 0.000000 0.000000 0.000000
# 4 0.000000 0.000000 0.000000 0.023240 0.000000 0.000000
# 5 0.000000 0.000000 0.000000 0.000000 0.023240 0.000000
# 6 0.000000 0.000000 0.000000 0.000000 0.000000 0.034231
#
#
# Mechanical properties :
#
#
# Convention : Reuss Voigt Hill
#
# Bulk Modulus (GPa) = 64.01968 71.45626 67.73797
# Shear Modulus (GPa) = 36.73493 39.09309 37.91401
#
# Velocity S-wave (km/s) = 4.16961 4.30136 4.23600
# Velocity P-wave (km/s) = 7.31298 7.64769 7.48221
#
# Compressibility (1/GPa) = 0.01562020
#
# Stress axis : x y z
#
# Youngs Moduli (GPa) = 88.67317 88.67046 96.60369
#
# Poissons Ratio (x) = -0.07315 0.45732
# Poissons Ratio (y) = -0.07316 0.45734
# Poissons Ratio (z) = 0.41978 0.41979
#
# Static dielectric constant tensor:
#      x y z
#    x 3.675420 0.000000 0.000000 
#    y 0.000000 3.675420 0.000000 
#    z 0.000000 0.000000 3.779720 
# 
# 
# High freq. dielectric constant tensor:
#      x y z
#    x 1.824920 0.000000 0.000000 
#    y 0.000000 1.824920 0.000000 
#    z 0.000000 0.000000 1.836910 
# 
# From -- ./inp_files/3360.got.cif
#   From: 2010.03.12/outbox.cif.g09.slc.cpg/sg96_2_cif.got.tgz:3360.got - 2010.04.08 20:56:49.
