data_PCOD8305703
_publ_section_title
;
Structure prediction by ZEFSAII (Michael W. Deem and Ramdas Pophale) SiO2 
 PCOD8305703
Probable space group: P 42 21 2
;
_chemical_formula_sum "Si O2"
_cell_formula_units_Z 60
_cell_length_a 18.642972
_cell_length_b 18.642972
_cell_length_c 7.703250
_cell_angle_alpha 90.000000
_cell_angle_beta 90.000000
_cell_angle_gamma 90.000000
_cell_volume 2677.344690
_symmetry_space_group_name_H-M "P 42 21 2"
_symmetry_group_IT_number 94
_symmetry_cell_setting 'tetragonal'
loop_
_space_group_symop_operation_xyz
x,y,z
1/2-y,1/2+x,1/2+z
-x,-y,z
1/2+y,1/2-x,1/2+z
1/2+x,1/2-y,1/2-z
1/2-x,1/2+y,1/2-z
y,x,-z
-y,-x,-z
loop_
_atom_site_type_symbol
_atom_site_label
_atom_site_fract_x
_atom_site_fract_y
_atom_site_fract_z
Si Si1 0.036738 0.143896 0.556725
Si Si2 0.121258 0.683204 0.921657
Si Si3 0.332748 0.912136 0.447599
Si Si4 0.048855 0.285935 0.408224
Si Si5 0.757691 0.671429 0.759235
Si Si6 0.465447 0.831623 0.466430
Si Si7 0.286999 0.632026 0.355243
Si Si8 0.131994 0.868007 0.500000
O O1 0.065646 0.065646 0.500000
O O2 0.060222 0.200401 0.408548
O O3 0.077601 0.170254 0.729838
O O4 0.950038 0.143358 0.563069
O O5 0.129925 0.703580 0.717710
O O6 0.176113 0.620820 0.966292
O O7 0.143420 0.745420 0.057529
O O8 0.039724 0.654888 0.936210
O O9 0.306259 0.880925 0.628203
O O10 0.419409 0.904946 0.445482
O O11 0.309315 0.994579 0.438160
O O12 0.015226 0.305708 0.225275
O O13 0.795018 0.751069 0.770075
O O14 0.677636 0.660911 0.835001
O O15 0.414853 0.774623 0.558514
O O16 0.343137 0.656864 0.500000
#
# Coordination Sequence:
#
# PCOD8305703 Si02
#       8
#     8   8   8   8   8   8   8   4
#     4  12  25  44  73 102 139 190 241 296 372 443
#     4  11  22  38  65 100 135 183 235 292 361 433
#     4  10  22  37  62  96 137 184 234 289 360 430
#     4  11  21  41  65  93 138 184 233 293 358 430
#     4  11  22  43  70  99 139 179 237 301 367 425
#     4  10  22  37  63  96 138 182 233 296 358 430
#     4  11  23  43  72 102 137 186 243 308 363 438
#     4  12  25  46  76 102 144 190 233 310 372 438
#
# _framework density 22.410264999999999
#
# number of rings (size 3 to 8) (size 9 to 14) (size 15 to 20)
#    0.000    1.067    4.667    1.800    1.867    0.533 
#    0.000    3.333    5.867    2.400    0.000    0.000 
#    0.000    0.000    0.000    0.000    0.000    0.000 
#
# Total GULP energy -743332.966514 kJ/mol
# GULP energy per Si atom -12388.882775 kJ/mol
# Density = 2.235926 g / cm^3
# Si number density = 22.410265 Si / 1000 Ang^3
#
#
#
# Elastic Constant Matrix: (Units=GPa)
#
#
# Indices 1 2 3 4 5 6 
#
# 1 104.3202 50.9180 17.6527 0.0000 0.0000 0.0000
# 2 50.9180 104.3185 17.6526 0.0000 0.0000 0.0000
# 3 17.6527 17.6526 53.6683 0.0000 0.0000 0.0000
# 4 0.0000 0.0000 0.0000 22.7767 0.0000 0.0000
# 5 0.0000 0.0000 0.0000 0.0000 22.7760 0.0000
# 6 0.0000 0.0000 0.0000 0.0000 0.0000 32.3357
#
#
#
# Elastic Compliance Matrix: (Units=1/GPa)
#
#
# Indices 1 2 3 4 5 6 
#
# 1 0.012844 -0.005882 -0.002290 0.000000 0.000000 0.000000
# 2 -0.005882 0.012844 -0.002290 0.000000 0.000000 0.000000
# 3 -0.002290 -0.002290 0.020140 0.000000 0.000000 0.000000
# 4 0.000000 0.000000 0.000000 0.043905 0.000000 0.000000
# 5 0.000000 0.000000 0.000000 0.000000 0.043906 0.000000
# 6 0.000000 0.000000 0.000000 0.000000 0.000000 0.030926
#
#
# Mechanical properties :
#
#
# Convention : Reuss Voigt Hill
#
# Bulk Modulus (GPa) = 40.15397 48.30595 44.22996
# Shear Modulus (GPa) = 25.80117 27.31659 26.55888
#
# Velocity S-wave (km/s) = 3.39678 3.49511 3.44629
# Velocity P-wave (km/s) = 5.77414 6.15547 5.96785
#
# Compressibility (1/GPa) = 0.02490414
#
# Stress axis : x y z
#
# Youngs Moduli (GPa) = 77.85585 77.85463 49.65357
#
# Poissons Ratio (x) = 0.45792 0.11371
# Poissons Ratio (y) = 0.45793 0.11371
# Poissons Ratio (z) = 0.17830 0.17830
#
# Static dielectric constant tensor:
#      x y z
#    x 4.118480 0.000000 0.000000 
#    y 0.000000 4.118450 0.000000 
#    z 0.000000 0.000000 6.502620 
# 
# 
# High freq. dielectric constant tensor:
#      x y z
#    x 1.880660 0.000000 0.000000 
#    y 0.000000 1.880660 0.000000 
#    z 0.000000 0.000000 1.889240 
# 
# From -- ./inp_files/1747.got.cif
#   From: 2010.03.12/outbox.cif.g09.slc.cpg/sg94_1_cif.got.tgz:1747.got - 2010.04.08 20:48:32.
