data_PCOD8305728
_publ_section_title
;
Structure prediction by ZEFSAII (Michael W. Deem and Ramdas Pophale) SiO2 
 PCOD8305728
Probable space group: P 42 21 2
;
_chemical_formula_sum "Si O2"
_cell_formula_units_Z 40
_cell_length_a 11.842931
_cell_length_b 11.842931
_cell_length_c 13.385906
_cell_angle_alpha 90.000000
_cell_angle_beta 90.000000
_cell_angle_gamma 90.000000
_cell_volume 1877.440442
_symmetry_space_group_name_H-M "P 42 21 2"
_symmetry_group_IT_number 94
_symmetry_cell_setting 'tetragonal'
loop_
_space_group_symop_operation_xyz
x,y,z
1/2-y,1/2+x,1/2+z
-x,-y,z
1/2+y,1/2-x,1/2+z
1/2+x,1/2-y,1/2-z
1/2-x,1/2+y,1/2-z
y,x,-z
-y,-x,-z
loop_
_atom_site_type_symbol
_atom_site_label
_atom_site_fract_x
_atom_site_fract_y
_atom_site_fract_z
Si Si1 0.604651 0.226963 0.551688
Si Si2 0.374071 0.987402 0.666283
Si Si3 0.401838 0.582468 0.288016
Si Si4 0.282331 0.951246 0.872529
Si Si5 0.787617 0.810662 0.610266
O O1 0.706128 0.293873 0.500000
O O2 0.669609 0.123846 0.607351
O O3 0.540051 0.310605 0.630140
O O4 0.508176 0.178438 0.476764
O O5 0.374529 0.963587 0.785147
O O6 0.500000 0.000000 0.629550
O O7 0.311730 0.102266 0.635827
O O8 0.500000 0.500000 0.253148
O O9 0.473344 0.679831 0.337870
O O10 0.330729 0.613537 0.189836
O O11 0.247662 0.820210 0.886521
O O12 0.835833 0.835833 0.500000
#
# Coordination Sequence:
#
# PCOD8305728 Si02
#       5
#     8   8   8   8   8
#     4  10  22  45  69 100 135 177 229 282 347 400
#     4  11  24  43  66  99 136 175 223 279 343 408
#     4  10  23  42  66  98 128 173 227 279 328 399
#     4  10  23  40  69  98 128 175 220 279 332 402
#     4  11  24  42  65  99 134 175 223 273 346 407
#
# _framework density 21.305603000000001
#
# number of rings (size 3 to 8) (size 9 to 14) (size 15 to 20)
#    0.000    1.600    2.000    1.200    5.600    5.600 
#    7.200    0.000    0.000    0.000    0.000    0.000 
#    0.000    0.000    0.000    0.000    0.000    0.000 
#
# Total GULP energy -495646.915188 kJ/mol
# GULP energy per Si atom -12391.172880 kJ/mol
# Density = 2.125711 g / cm^3
# Si number density = 21.305603 Si / 1000 Ang^3
#
#
#
# Elastic Constant Matrix: (Units=GPa)
#
#
# Indices 1 2 3 4 5 6 
#
# 1 91.8311 19.2280 52.9488 0.0000 0.0000 0.0000
# 2 19.2280 91.8316 52.9488 0.0000 0.0000 0.0000
# 3 52.9488 52.9488 176.5887 0.0000 0.0000 0.0000
# 4 0.0000 0.0000 0.0000 65.3939 0.0000 0.0000
# 5 0.0000 0.0000 0.0000 0.0000 65.3973 0.0000
# 6 0.0000 0.0000 0.0000 0.0000 0.0000 20.5847
#
#
#
# Elastic Compliance Matrix: (Units=1/GPa)
#
#
# Indices 1 2 3 4 5 6 
#
# 1 0.013191 -0.000582 -0.003781 0.000000 0.000000 0.000000
# 2 -0.000582 0.013191 -0.003781 0.000000 0.000000 0.000000
# 3 -0.003781 -0.003781 0.007930 0.000000 0.000000 0.000000
# 4 0.000000 0.000000 0.000000 0.015292 0.000000 0.000000
# 5 0.000000 0.000000 0.000000 0.000000 0.015291 0.000000
# 6 0.000000 0.000000 0.000000 0.000000 0.000000 0.048580
#
#
# Mechanical properties :
#
#
# Convention : Reuss Voigt Hill
#
# Bulk Modulus (GPa) = 55.47689 67.83361 61.65525
# Shear Modulus (GPa) = 36.82657 45.95024 41.38841
#
# Velocity S-wave (km/s) = 4.16202 4.64909 4.41228
# Velocity P-wave (km/s) = 7.01368 7.79270 7.41343
#
# Compressibility (1/GPa) = 0.01802552
#
# Stress axis : x y z
#
# Youngs Moduli (GPa) = 75.80694 75.80739 126.10084
#
# Poissons Ratio (x) = 0.04413 0.47676
# Poissons Ratio (y) = 0.04413 0.47676
# Poissons Ratio (z) = 0.28661 0.28661
#
# Static dielectric constant tensor:
#      x y z
#    x 2.387460 0.000000 0.000000 
#    y 0.000000 2.387210 0.000000 
#    z 0.000000 0.000000 4.605220 
# 
# 
# High freq. dielectric constant tensor:
#      x y z
#    x 1.827760 0.000000 0.000000 
#    y 0.000000 1.827760 0.000000 
#    z 0.000000 0.000000 1.855960 
# 
# From -- ./inp_files/3382.got.cif
#   From: 2010.03.12/outbox.cif.g09.slc.cpg/sg94_2_cif.got.tgz:3382.got - 2010.04.08 20:48:32.
