data_PCOD8305976
_publ_section_title
;
Structure prediction by ZEFSAII (Michael W. Deem and Ramdas Pophale) SiO2 
 PCOD8305976
Probable space group: P 43 21 2
;
_chemical_formula_sum "Si O2"
_cell_formula_units_Z 60
_cell_length_a 17.698085
_cell_length_b 17.698085
_cell_length_c 9.389645
_cell_angle_alpha 90.000000
_cell_angle_beta 90.000000
_cell_angle_gamma 90.000000
_cell_volume 2941.045383
_symmetry_space_group_name_H-M "P 43 21 2"
_symmetry_group_IT_number 96
_symmetry_cell_setting 'tetragonal'
loop_
_space_group_symop_operation_xyz
x,y,z
1/2-y,1/2+x,3/4+z
-x,-y,1/2+z
1/2+y,1/2-x,1/4+z
1/2+x,1/2-y,1/4-z
1/2-x,1/2+y,3/4-z
y,x,-z
-y,-x,1/2-z
loop_
_atom_site_type_symbol
_atom_site_label
_atom_site_fract_x
_atom_site_fract_y
_atom_site_fract_z
Si Si1 0.531947 0.346288 0.508355
Si Si2 0.195325 0.814109 0.586671
Si Si3 0.310208 0.690919 0.584384
Si Si4 0.546032 0.224444 0.000396
Si Si5 0.458625 0.232034 0.718987
Si Si6 0.053164 0.559736 0.040248
Si Si7 0.516381 0.516381 0.500000
Si Si8 0.841166 0.033614 0.451524
O O1 0.617392 0.314898 0.515638
O O2 0.476623 0.290639 0.592951
O O3 0.525468 0.432122 0.567920
O O4 0.514613 0.348296 0.342167
O O5 0.172327 0.827674 0.750000
O O6 0.228219 0.729617 0.567486
O O7 0.254351 0.876576 0.535894
O O8 0.118714 0.823738 0.497767
O O9 0.327421 0.672580 0.750000
O O10 0.368510 0.751346 0.523601
O O11 0.522306 0.242983 0.838969
O O12 0.540592 0.134838 0.028191
O O13 0.493116 0.270407 0.107830
O O14 0.456158 0.146719 0.660833
O O15 0.037422 0.509606 0.177018
O O16 0.527569 0.579099 0.620799
#
# Coordination Sequence:
#
# PCOD8305976 Si02
#       8
#     8   8   8   8   8   8   4   8
#     4  12  26  42  64 101 138 178 217 283 341 401
#     4  11  22  41  68  97 126 175 221 269 326 402
#     4  11  22  42  68  96 130 168 227 273 327 402
#     4  11  21  43  68  93 129 174 222 271 334 400
#     4  11  24  44  64  96 137 173 217 275 340 404
#     4  10  24  46  72  98 130 176 231 287 339 401
#     4  12  22  40  68  94 136 178 232 268 332 410
#     4  12  23  42  66 100 134 175 231 277 332 407
#
# _framework density 20.40091
#
# number of rings (size 3 to 8) (size 9 to 14) (size 15 to 20)
#    0.000    0.800    6.000    1.200    0.000    2.667 
#    7.200    1.333    0.000    0.000    0.000    0.000 
#    0.000    0.000    0.000    0.000    0.000    0.000 
#
# Total GULP energy -744106.129124 kJ/mol
# GULP energy per Si atom -12401.768819 kJ/mol
# Density = 2.035448 g / cm^3
# Si number density = 20.400910 Si / 1000 Ang^3
#
#
#
# Elastic Constant Matrix: (Units=GPa)
#
#
# Indices 1 2 3 4 5 6 
#
# 1 126.3992 54.5133 44.6032 0.0000 0.0000 0.0000
# 2 54.5133 126.3992 44.6029 0.0000 0.0000 0.0000
# 3 44.6032 44.6029 81.4988 0.0000 0.0000 0.0000
# 4 0.0000 0.0000 0.0000 26.4844 0.0000 0.0000
# 5 0.0000 0.0000 0.0000 0.0000 26.4843 0.0000
# 6 0.0000 0.0000 0.0000 0.0000 0.0000 38.3930
#
#
#
# Elastic Compliance Matrix: (Units=1/GPa)
#
#
# Indices 1 2 3 4 5 6 
#
# 1 0.010741 -0.003170 -0.004143 0.000000 0.000000 0.000000
# 2 -0.003170 0.010741 -0.004143 0.000000 0.000000 0.000000
# 3 -0.004143 -0.004143 0.016805 0.000000 0.000000 0.000000
# 4 0.000000 0.000000 0.000000 0.037758 0.000000 0.000000
# 5 0.000000 0.000000 0.000000 0.000000 0.037758 0.000000
# 6 0.000000 0.000000 0.000000 0.000000 0.000000 0.026046
#
#
# Mechanical properties :
#
#
# Convention : Reuss Voigt Hill
#
# Bulk Modulus (GPa) = 65.04788 69.08177 67.06482
# Shear Modulus (GPa) = 29.78193 30.97753 30.37973
#
# Velocity S-wave (km/s) = 3.82492 3.90094 3.86312
# Velocity P-wave (km/s) = 7.17361 7.36379 7.26932
#
# Compressibility (1/GPa) = 0.01537329
#
# Stress axis : x y z
#
# Youngs Moduli (GPa) = 93.10343 93.10369 59.50551
#
# Poissons Ratio (x) = 0.29516 0.24655
# Poissons Ratio (y) = 0.29516 0.24654
# Poissons Ratio (z) = 0.38575 0.38575
#
# Static dielectric constant tensor:
#      x y z
#    x 3.865660 0.000000 0.000000 
#    y 0.000000 3.865660 0.000000 
#    z 0.000000 0.000000 3.445250 
# 
# 
# High freq. dielectric constant tensor:
#      x y z
#    x 1.810500 0.000000 0.000000 
#    y 0.000000 1.810500 0.000000 
#    z 0.000000 0.000000 1.777100 
# 
# From -- ./inp_files/1619.got.cif
#   From: 2010.03.12/outbox.cif.g09.slc.cpg/sg96_1_cif.got.tgz:1619.got - 2010.04.08 20:56:49.
