data_PCOD8305332
_publ_section_title
;
Structure prediction by ZEFSAII (Michael W. Deem and Ramdas Pophale) SiO2 
 PCOD8305332
Probable space group: P 41 21 2
;
_chemical_formula_sum "Si O2"
_cell_formula_units_Z 56
_cell_length_a 11.267954
_cell_length_b 11.267954
_cell_length_c 17.792811
_cell_angle_alpha 90.000000
_cell_angle_beta 90.000000
_cell_angle_gamma 90.000000
_cell_volume 2259.096051
_symmetry_space_group_name_H-M "P 41 21 2"
_symmetry_group_IT_number 92
_symmetry_cell_setting 'tetragonal'
loop_
_space_group_symop_operation_xyz
x,y,z
1/2-y,1/2+x,1/4+z
-x,-y,1/2+z
1/2+y,1/2-x,3/4+z
1/2+x,1/2-y,3/4-z
1/2-x,1/2+y,1/4-z
y,x,-z
-y,-x,1/2-z
loop_
_atom_site_type_symbol
_atom_site_label
_atom_site_fract_x
_atom_site_fract_y
_atom_site_fract_z
Si Si1 0.890483 0.109518 0.250000
Si Si2 0.573362 0.238702 0.040295
Si Si3 0.242743 0.242743 0.000000
Si Si4 0.947735 0.956246 0.110163
Si Si5 0.866235 0.548158 0.039562
Si Si6 0.965633 0.618039 0.458797
Si Si7 0.058341 0.800297 0.351902
Si Si8 0.966045 0.279545 0.459324
O O1 0.919509 0.248841 0.243302
O O2 0.947000 0.059354 0.325021
O O3 0.593430 0.326570 0.110389
O O4 0.483502 0.130129 0.060478
O O5 0.699455 0.173791 0.020835
O O6 0.526767 0.317019 0.970908
O O7 0.102870 0.270509 0.997291
O O8 0.305388 0.299085 0.925946
O O9 0.860445 0.997113 0.041827
O O10 0.088829 0.953665 0.090171
O O11 0.954752 0.658405 0.023497
O O12 0.928117 0.428018 0.010576
O O13 0.837549 0.520276 0.126244
O O14 0.025896 0.671319 0.384396
#
# Coordination Sequence:
#
# PCOD8305332 Si02
#       8
#     4   8   4   8   8   8   8   8
#     4  10  21  42  66  97 138 192 230 293 350 436
#     4  10  21  41  66  99 130 177 237 283 354 415
#     4  10  21  42  64  99 142 174 232 289 352 434
#     4  11  20  42  65  98 135 184 226 283 359 424
#     4  10  24  44  68 103 138 185 239 294 361 421
#     4  10  23  39  73  99 133 179 232 291 356 413
#     4  11  20  42  69  94 133 186 228 288 355 429
#     4  10  25  40  71 102 139 184 236 295 358 434
#
# _framework density 24.788675999999999
#
# number of rings (size 3 to 8) (size 9 to 14) (size 15 to 20)
#    0.000    1.714    4.286    0.000   16.000    1.143 
#    0.000    0.000    3.143    0.000    0.000    0.000 
#    0.000    0.000    0.000    0.000    0.000    0.000 
#
# Total GULP energy -693881.298329 kJ/mol
# GULP energy per Si atom -12390.737470 kJ/mol
# Density = 2.473226 g / cm^3
# Si number density = 24.788676 Si / 1000 Ang^3
#
#
#
# Elastic Constant Matrix: (Units=GPa)
#
#
# Indices 1 2 3 4 5 6 
#
# 1 104.9490 49.6808 13.2077 0.0000 0.0000 0.0000
# 2 49.6808 104.9488 13.2076 0.0000 0.0000 0.0000
# 3 13.2077 13.2076 29.7999 0.0000 0.0000 0.0000
# 4 0.0000 0.0000 0.0000 29.4076 0.0000 0.0000
# 5 0.0000 0.0000 0.0000 0.0000 29.4077 0.0000
# 6 0.0000 0.0000 0.0000 0.0000 0.0000 48.5941
#
#
#
# Elastic Compliance Matrix: (Units=1/GPa)
#
#
# Indices 1 2 3 4 5 6 
#
# 1 0.012545 -0.005548 -0.003101 0.000000 0.000000 0.000000
# 2 -0.005548 0.012545 -0.003101 0.000000 0.000000 0.000000
# 3 -0.003101 -0.003101 0.036306 0.000000 0.000000 0.000000
# 4 0.000000 0.000000 0.000000 0.034005 0.000000 0.000000
# 5 0.000000 0.000000 0.000000 0.000000 0.034005 0.000000
# 6 0.000000 0.000000 0.000000 0.000000 0.000000 0.020579
#
#
# Mechanical properties :
#
#
# Convention : Reuss Voigt Hill
#
# Bulk Modulus (GPa) = 26.38841 43.54331 34.96586
# Shear Modulus (GPa) = 26.86474 32.38865 29.62670
#
# Velocity S-wave (km/s) = 3.29561 3.61860 3.46087
# Velocity P-wave (km/s) = 5.01496 5.92140 5.48693
#
# Compressibility (1/GPa) = 0.03789542
#
# Stress axis : x y z
#
# Youngs Moduli (GPa) = 79.71167 79.71164 27.54361
#
# Poissons Ratio (x) = 0.44227 0.08542
# Poissons Ratio (y) = 0.44227 0.08541
# Poissons Ratio (z) = 0.24720 0.24719
#
# Static dielectric constant tensor:
#      x y z
#    x 4.833050 0.000000 0.000000 
#    y 0.000000 4.833040 0.000000 
#    z 0.000000 0.000000 4.164990 
# 
# 
# High freq. dielectric constant tensor:
#      x y z
#    x 1.990240 0.000000 0.000000 
#    y 0.000000 1.990240 0.000000 
#    z 0.000000 0.000000 1.966430 
# 
# From -- ./inp_files/3608.got.cif
#   From: 2010.03.12/outbox.cif.g09.slc.cpg/sg92_2_cif.got.tgz:3608.got - 2010.04.08 20:41:11.
