data_PCOD8305446
_publ_section_title
;
Structure prediction by ZEFSAII (Michael W. Deem and Ramdas Pophale) SiO2 
 PCOD8305446
Probable space group: P 41 21 2
;
_chemical_formula_sum "Si O2"
_cell_formula_units_Z 40
_cell_length_a 15.429326
_cell_length_b 15.429326
_cell_length_c 7.655720
_cell_angle_alpha 90.000000
_cell_angle_beta 90.000000
_cell_angle_gamma 90.000000
_cell_volume 1822.552098
_symmetry_space_group_name_H-M "P 41 21 2"
_symmetry_group_IT_number 92
_symmetry_cell_setting 'tetragonal'
loop_
_space_group_symop_operation_xyz
x,y,z
1/2-y,1/2+x,1/4+z
-x,-y,1/2+z
1/2+y,1/2-x,3/4+z
1/2+x,1/2-y,3/4-z
1/2-x,1/2+y,1/4-z
y,x,-z
-y,-x,1/2-z
loop_
_atom_site_type_symbol
_atom_site_label
_atom_site_fract_x
_atom_site_fract_y
_atom_site_fract_z
Si Si1 0.550471 0.311655 0.286332
Si Si2 0.171607 0.854484 0.445357
Si Si3 0.039701 0.396292 0.903036
Si Si4 0.155409 0.662700 0.858784
Si Si5 0.974505 0.247438 0.116110
O O1 0.598110 0.401891 0.250000
O O2 0.457598 0.316348 0.194132
O O3 0.605174 0.234471 0.203352
O O4 0.539040 0.295490 0.493179
O O5 0.180721 0.819280 0.250000
O O6 0.246691 0.809284 0.561411
O O7 0.079467 0.830425 0.529061
O O8 0.114663 0.399749 0.758508
O O9 0.951748 0.433019 0.820829
O O10 0.028229 0.297225 0.967341
O O11 0.089274 0.681274 0.701749
#
# Coordination Sequence:
#
# PCOD8305446 Si02
#       5
#     8   8   8   8   8
#     4  11  23  40  65  94 122 163 218 269 318 380
#     4  11  24  43  65  90 127 171 211 257 322 392
#     4  12  23  38  62  95 128 163 212 270 326 385
#     4  11  22  40  62  89 124 165 209 255 317 386
#     4  11  23  43  63  88 127 170 204 255 322 383
#
# _framework density 21.947244999999999
#
# number of rings (size 3 to 8) (size 9 to 14) (size 15 to 20)
#    0.000    0.800    0.000   10.800    0.000    3.200 
#    0.000    2.000    0.000    0.000    0.000    0.000 
#    0.000    0.000    0.000    0.000    0.000    0.000 
#
# Total GULP energy -496276.938488 kJ/mol
# GULP energy per Si atom -12406.923462 kJ/mol
# Density = 2.189729 g / cm^3
# Si number density = 21.947245 Si / 1000 Ang^3
#
#
#
# Elastic Constant Matrix: (Units=GPa)
#
#
# Indices 1 2 3 4 5 6 
#
# 1 79.6050 46.9892 29.7646 0.0000 0.0000 0.0000
# 2 46.9892 79.6028 29.7646 0.0000 0.0000 0.0000
# 3 29.7646 29.7646 102.3208 0.0000 0.0000 0.0000
# 4 0.0000 0.0000 0.0000 43.0283 0.0000 0.0000
# 5 0.0000 0.0000 0.0000 0.0000 43.0286 0.0000
# 6 0.0000 0.0000 0.0000 0.0000 0.0000 50.1659
#
#
#
# Elastic Compliance Matrix: (Units=1/GPa)
#
#
# Indices 1 2 3 4 5 6 
#
# 1 0.019906 -0.010755 -0.002662 0.000000 0.000000 0.000000
# 2 -0.010755 0.019906 -0.002662 0.000000 0.000000 0.000000
# 3 -0.002662 -0.002662 0.011322 0.000000 0.000000 0.000000
# 4 0.000000 0.000000 0.000000 0.023241 0.000000 0.000000
# 5 0.000000 0.000000 0.000000 0.000000 0.023240 0.000000
# 6 0.000000 0.000000 0.000000 0.000000 0.000000 0.019934
#
#
# Mechanical properties :
#
#
# Convention : Reuss Voigt Hill
#
# Bulk Modulus (GPa) = 52.69788 52.72948 52.71368
# Shear Modulus (GPa) = 32.04469 37.57857 34.81163
#
# Velocity S-wave (km/s) = 3.82524 4.14239 3.98697
# Velocity P-wave (km/s) = 6.60100 6.85251 6.72793
#
# Compressibility (1/GPa) = 0.01897609
#
# Stress axis : x y z
#
# Youngs Moduli (GPa) = 50.23674 50.23520 88.32428
#
# Poissons Ratio (x) = 0.54028 0.23511
# Poissons Ratio (y) = 0.54029 0.23513
# Poissons Ratio (z) = 0.13373 0.13373
#
# Static dielectric constant tensor:
#      x y z
#    x 3.997510 0.000000 0.000000 
#    y 0.000000 3.997510 0.000000 
#    z 0.000000 0.000000 4.066480 
# 
# 
# High freq. dielectric constant tensor:
#      x y z
#    x 1.861780 0.000000 0.000000 
#    y 0.000000 1.861780 0.000000 
#    z 0.000000 0.000000 1.877450 
# 
# From -- ./inp_files/1337.got.cif
#   From: 2010.03.12/outbox.cif.g09.slc.cpg/sg92_1_cif.got.tgz:1337.got - 2010.04.08 20:41:11.
