data_PCOD8305069
_publ_section_title
;
Structure prediction by ZEFSAII (Michael W. Deem and Ramdas Pophale) SiO2 
 PCOD8305069
Probable space group: P 41 2 2
;
_chemical_formula_sum "Si O2"
_cell_formula_units_Z 48
_cell_length_a 11.719459
_cell_length_b 11.719459
_cell_length_c 17.373650
_cell_angle_alpha 90.000000
_cell_angle_beta 90.000000
_cell_angle_gamma 90.000000
_cell_volume 2386.196455
_symmetry_space_group_name_H-M "P 41 2 2"
_symmetry_group_IT_number 91
_symmetry_cell_setting 'tetragonal'
loop_
_space_group_symop_operation_xyz
x,y,z
-y,x,1/4+z
-x,-y,1/2+z
y,-x,3/4+z
x,-y,1/2-z
-x,y,-z
y,x,3/4-z
-y,-x,1/4-z
loop_
_atom_site_type_symbol
_atom_site_label
_atom_site_fract_x
_atom_site_fract_y
_atom_site_fract_z
Si Si1 0.506909 0.961506 0.673058
Si Si2 0.298852 0.444730 0.927344
Si Si3 0.070850 0.923532 0.424157
Si Si4 0.335536 0.675027 0.416550
Si Si5 0.671789 0.065680 0.960401
Si Si6 0.316100 0.087434 0.606934
O O1 0.456823 0.835529 0.671359
O O2 0.595110 0.987457 0.605931
O O3 0.574117 0.000000 0.750000
O O4 0.398892 0.046572 0.674309
O O5 0.338355 0.338355 0.875000
O O6 0.353309 0.559966 0.890935
O O7 0.333094 0.421957 0.016729
O O8 0.197668 0.956646 0.444412
O O9 0.055048 0.813855 0.370736
O O10 0.000000 0.900441 0.500000
O O11 0.029596 0.029596 0.375000
O O12 0.349330 0.796688 0.462506
O O13 0.225772 0.674605 0.359043
O O14 0.639103 0.988533 0.034382
#
# Coordination Sequence:
#
# PCOD8305069 Si02
#       6
#     8   8   8   8   8   8
#     4  11  22  40  65  93 127 165 207 260 317 371
#     4  11  22  41  67  93 124 162 212 267 319 373
#     4  11  22  38  61  93 129 165 209 257 312 371
#     4  10  23  41  65  94 126 164 213 266 318 374
#     4  10  23  40  62  93 127 167 210 259 311 377
#     4  11  21  39  63  92 128 163 212 259 313 372
#
# _framework density 20.115696
#
# number of rings (size 3 to 8) (size 9 to 14) (size 15 to 20)
#    0.000    1.333    3.333    2.500    2.333    4.000 
#    3.000    3.333    0.000    0.000    0.000    0.000 
#    0.000    0.000    0.000    0.000    0.000    0.000 
#
# Total GULP energy -594736.847677 kJ/mol
# GULP energy per Si atom -12390.350993 kJ/mol
# Density = 2.006991 g / cm^3
# Si number density = 20.115696 Si / 1000 Ang^3
#
#
#
# Elastic Constant Matrix: (Units=GPa)
#
#
# Indices 1 2 3 4 5 6 
#
# 1 115.3433 10.9857 51.7850 0.0000 0.0000 0.0000
# 2 10.9857 115.3433 51.7850 0.0000 0.0000 0.0000
# 3 51.7850 51.7850 123.3496 0.0000 0.0000 0.0000
# 4 0.0000 0.0000 0.0000 34.8530 0.0000 0.0000
# 5 0.0000 0.0000 0.0000 0.0000 34.8530 0.0000
# 6 0.0000 0.0000 0.0000 0.0000 0.0000 41.2400
#
#
#
# Elastic Compliance Matrix: (Units=1/GPa)
#
#
# Indices 1 2 3 4 5 6 
#
# 1 0.010826 0.001244 -0.005067 0.000000 0.000000 0.000000
# 2 0.001244 0.010826 -0.005067 0.000000 0.000000 0.000000
# 3 -0.005067 -0.005067 0.012362 0.000000 0.000000 0.000000
# 4 0.000000 0.000000 0.000000 0.028692 0.000000 0.000000
# 5 0.000000 0.000000 0.000000 0.000000 0.028692 0.000000
# 6 0.000000 0.000000 0.000000 0.000000 0.000000 0.024248
#
#
# Mechanical properties :
#
#
# Convention : Reuss Voigt Hill
#
# Bulk Modulus (GPa) = 61.60327 64.79415 63.19871
# Shear Modulus (GPa) = 36.01282 38.15456 37.08369
#
# Velocity S-wave (km/s) = 4.23577 4.35990 4.29828
# Velocity P-wave (km/s) = 7.39008 7.59116 7.49129
#
# Compressibility (1/GPa) = 0.01623290
#
# Stress axis : x y z
#
# Youngs Moduli (GPa) = 92.36709 92.36709 80.89404
#
# Poissons Ratio (x) = -0.11490 0.40992
# Poissons Ratio (y) = -0.11490 0.40992
# Poissons Ratio (z) = 0.46806 0.46806
#
# Static dielectric constant tensor:
#      x y z
#    x 3.897130 0.000000 0.000000 
#    y 0.000000 3.897130 0.000000 
#    z 0.000000 0.000000 3.730070 
# 
# 
# High freq. dielectric constant tensor:
#      x y z
#    x 1.786100 0.000000 0.000000 
#    y 0.000000 1.786100 0.000000 
#    z 0.000000 0.000000 1.788590 
# 
# From -- ./inp_files/5562.got.cif
#   From: 2010.03.12/outbox.cif.g09.slc.cpg/sg91_3_cif.got.tgz:5562.got - 2010.04.08 20:27:58.
