data_PCOD8305450
_publ_section_title
;
Structure prediction by ZEFSAII (Michael W. Deem and Ramdas Pophale) SiO2 
 PCOD8305450
Probable space group: P 41 21 2
;
_chemical_formula_sum "Si O2"
_cell_formula_units_Z 32
_cell_length_a 13.593098
_cell_length_b 13.593098
_cell_length_c 9.006605
_cell_angle_alpha 90.000000
_cell_angle_beta 90.000000
_cell_angle_gamma 90.000000
_cell_volume 1664.171240
_symmetry_space_group_name_H-M "P 41 21 2"
_symmetry_group_IT_number 92
_symmetry_cell_setting 'tetragonal'
loop_
_space_group_symop_operation_xyz
x,y,z
1/2-y,1/2+x,1/4+z
-x,-y,1/2+z
1/2+y,1/2-x,3/4+z
1/2+x,1/2-y,3/4-z
1/2-x,1/2+y,1/4-z
y,x,-z
-y,-x,1/2-z
loop_
_atom_site_type_symbol
_atom_site_label
_atom_site_fract_x
_atom_site_fract_y
_atom_site_fract_z
Si Si1 0.386497 0.766025 0.993289
Si Si2 0.096246 0.868603 0.092986
Si Si3 0.245775 0.754226 0.250000
Si Si4 0.900367 0.238970 0.153796
Si Si5 0.119946 0.119946 0.500000
O O1 0.343243 0.861897 0.910398
O O2 0.344640 0.673537 0.899461
O O3 0.347836 0.759640 0.162072
O O4 0.504742 0.765925 0.997910
O O5 0.075215 0.924786 0.250000
O O6 0.153818 0.765741 0.132735
O O7 0.994155 0.852372 0.011949
O O8 0.167161 0.930719 0.983055
O O9 0.816994 0.183007 0.250000
#
# Coordination Sequence:
#
# PCOD8305450 Si02
#       5
#     8   8   4   8   4
#     4  11  24  39  65  88 124 171 208 258 318 373
#     4   9  22  38  57  93 127 149 200 263 318 372
#     4   8  22  41  58  87 124 170 198 256 320 380
#     4  11  22  43  61  91 128 165 215 261 310 375
#     4  12  22  33  64 101 116 164 204 268 324 358
#
# _framework density 19.22879
#
# number of rings (size 3 to 8) (size 9 to 14) (size 15 to 20)
#    0.750    1.000    3.750    0.000    7.000    0.000 
#    0.000    2.500    0.000    0.000    0.000    0.000 
#    0.000    0.000    0.000    0.000    0.000    0.000 
#
# Total GULP energy -396439.035414 kJ/mol
# GULP energy per Si atom -12388.719857 kJ/mol
# Density = 1.918502 g / cm^3
# Si number density = 19.228790 Si / 1000 Ang^3
#
#
#
# Elastic Constant Matrix: (Units=GPa)
#
#
# Indices 1 2 3 4 5 6 
#
# 1 79.5949 63.0185 37.8805 0.0000 0.0000 0.0000
# 2 63.0185 79.5939 37.8807 0.0000 0.0000 0.0000
# 3 37.8805 37.8807 98.7210 0.0000 0.0000 0.0000
# 4 0.0000 0.0000 0.0000 32.2706 0.0000 0.0000
# 5 0.0000 0.0000 0.0000 0.0000 32.2711 0.0000
# 6 0.0000 0.0000 0.0000 0.0000 0.0000 18.2161
#
#
#
# Elastic Compliance Matrix: (Units=1/GPa)
#
#
# Indices 1 2 3 4 5 6 
#
# 1 0.034568 -0.025761 -0.003379 0.000000 0.000000 0.000000
# 2 -0.025761 0.034568 -0.003380 0.000000 0.000000 0.000000
# 3 -0.003379 -0.003380 0.012723 0.000000 0.000000 0.000000
# 4 0.000000 0.000000 0.000000 0.030988 0.000000 0.000000
# 5 0.000000 0.000000 0.000000 0.000000 0.030987 0.000000
# 6 0.000000 0.000000 0.000000 0.000000 0.000000 0.054897
#
#
# Mechanical properties :
#
#
# Convention : Reuss Voigt Hill
#
# Bulk Modulus (GPa) = 59.45399 59.49658 59.47529
# Shear Modulus (GPa) = 18.56136 24.49356 21.52746
#
# Velocity S-wave (km/s) = 3.11028 3.57290 3.34959
# Velocity P-wave (km/s) = 6.62456 6.93032 6.77917
#
# Compressibility (1/GPa) = 0.01681973
#
# Stress axis : x y z
#
# Youngs Moduli (GPa) = 28.92878 28.92826 78.59750
#
# Poissons Ratio (x) = 0.74521 0.26560
# Poissons Ratio (y) = 0.74523 0.26563
# Poissons Ratio (z) = 0.09776 0.09777
#
# Static dielectric constant tensor:
#      x y z
#    x 3.242960 0.000000 0.000000 
#    y 0.000000 3.242970 0.000000 
#    z 0.000000 0.000000 3.765860 
# 
# 
# High freq. dielectric constant tensor:
#      x y z
#    x 1.723170 0.000000 0.000000 
#    y 0.000000 1.723170 0.000000 
#    z 0.000000 0.000000 1.773000 
# 
# From -- ./inp_files/1165.got.cif
#   From: 2010.03.12/outbox.cif.g09.slc.cpg/sg92_1_cif.got.tgz:1165.got - 2010.04.08 20:41:11.
