data_PCOD8305853
_publ_section_title
;
Structure prediction by ZEFSAII (Michael W. Deem and Ramdas Pophale) SiO2 
 PCOD8305853
Probable space group: P 43 2 2
;
_chemical_formula_sum "Si O2"
_cell_formula_units_Z 56
_cell_length_a 11.613613
_cell_length_b 11.613613
_cell_length_c 19.197838
_cell_angle_alpha 90.000000
_cell_angle_beta 90.000000
_cell_angle_gamma 90.000000
_cell_volume 2589.327731
_symmetry_space_group_name_H-M "P 43 2 2"
_symmetry_group_IT_number 95
_symmetry_cell_setting 'tetragonal'
loop_
_space_group_symop_operation_xyz
x,y,z
-y,x,3/4+z
-x,-y,1/2+z
y,-x,1/4+z
x,-y,1/2-z
-x,y,-z
y,x,1/4-z
-y,-x,3/4-z
loop_
_atom_site_type_symbol
_atom_site_label
_atom_site_fract_x
_atom_site_fract_y
_atom_site_fract_z
Si Si1 0.938116 0.266982 0.072634
Si Si2 0.745164 0.905040 0.441573
Si Si3 0.437336 0.176735 0.839066
Si Si4 0.631242 0.377457 0.496801
Si Si5 0.167002 0.494804 0.562018
Si Si6 0.847538 0.323396 0.840604
Si Si7 0.153141 0.689736 0.830077
O O1 0.872478 0.144890 0.073262
O O2 0.847668 0.372021 0.082510
O O3 0.032589 0.268474 0.133402
O O4 0.000000 0.285020 0.000000
O O5 0.672105 0.883647 0.372387
O O6 0.690871 0.839532 0.507695
O O7 0.746651 0.041880 0.456643
O O8 0.403075 0.309675 0.821883
O O9 0.469325 0.114276 0.765375
O O10 0.542963 0.165056 0.891838
O O11 0.500000 0.415869 0.500000
O O12 0.697186 0.456606 0.438691
O O13 0.643645 0.241944 0.478231
O O14 0.108187 0.416118 0.621441
O O15 0.740707 0.259294 0.875000
O O16 0.210224 0.789777 0.875000
#
# Coordination Sequence:
#
# PCOD8305853 Si02
#       7
#     8   8   8   8   8   8   8
#     4  12  23  45  70  89 133 189 224 272 351 414
#     4  12  27  41  68 103 132 180 232 290 339 411
#     4  10  23  43  65 100 132 176 221 285 343 414
#     4   9  21  42  68 101 140 178 223 282 349 413
#     4   9  21  40  71  95 133 181 227 271 349 415
#     4  12  25  46  65  97 135 178 238 283 343 423
#     4  10  23  43  66 106 139 172 234 295 336 412
#
# _framework density 21.627234999999999
#
# number of rings (size 3 to 8) (size 9 to 14) (size 15 to 20)
#    0.857    0.571    2.857    1.286    4.000    1.714 
#    2.571    0.000    0.000    0.000    0.000    0.000 
#    0.000    0.000    0.000    0.000    0.000    0.000 
#
# Total GULP energy -694234.638088 kJ/mol
# GULP energy per Si atom -12397.047109 kJ/mol
# Density = 2.157801 g / cm^3
# Si number density = 21.627235 Si / 1000 Ang^3
#
#
#
# Elastic Constant Matrix: (Units=GPa)
#
#
# Indices 1 2 3 4 5 6 
#
# 1 83.7011 35.9817 1.8908 0.0000 0.0000 0.0000
# 2 35.9817 83.7003 1.8907 0.0000 0.0000 0.0000
# 3 1.8908 1.8907 54.5032 0.0000 0.0000 0.0000
# 4 0.0000 0.0000 0.0000 23.8388 0.0000 0.0000
# 5 0.0000 0.0000 0.0000 0.0000 23.8406 0.0000
# 6 0.0000 0.0000 0.0000 0.0000 0.0000 16.9074
#
#
#
# Elastic Compliance Matrix: (Units=1/GPa)
#
#
# Indices 1 2 3 4 5 6 
#
# 1 0.014660 -0.006296 -0.000290 0.000000 0.000000 0.000000
# 2 -0.006296 0.014660 -0.000290 0.000000 0.000000 0.000000
# 3 -0.000290 -0.000290 0.018368 0.000000 0.000000 0.000000
# 4 0.000000 0.000000 0.000000 0.041948 0.000000 0.000000
# 5 0.000000 0.000000 0.000000 0.000000 0.041945 0.000000
# 6 0.000000 0.000000 0.000000 0.000000 0.000000 0.059146
#
#
# Mechanical properties :
#
#
# Convention : Reuss Voigt Hill
#
# Bulk Modulus (GPa) = 29.46705 33.49234 31.47969
# Shear Modulus (GPa) = 23.17047 25.06012 24.11529
#
# Velocity S-wave (km/s) = 3.27671 3.40770 3.34285
# Velocity P-wave (km/s) = 5.28870 5.56804 5.43016
#
# Compressibility (1/GPa) = 0.03393621
#
# Stress axis : x y z
#
# Youngs Moduli (GPa) = 68.21165 68.21099 54.44345
#
# Poissons Ratio (x) = 0.42944 0.01580
# Poissons Ratio (y) = 0.42944 0.01580
# Poissons Ratio (z) = 0.01979 0.01979
#
# Static dielectric constant tensor:
#      x y z
#    x 3.796090 0.000000 0.000000 
#    y 0.000000 3.796090 0.000000 
#    z 0.000000 0.000000 3.850100 
# 
# 
# High freq. dielectric constant tensor:
#      x y z
#    x 1.843370 0.000000 0.000000 
#    y 0.000000 1.843370 0.000000 
#    z 0.000000 0.000000 1.845600 
# 
# From -- ./inp_files/6451.got.cif
#   From: 2010.03.12/outbox.cif.g09.slc.cpg/sg95_4_cif.got.tgz:6451.got - 2010.04.08 20:51:55.
