data_PCOD8305121
_publ_section_title
;
Structure prediction by ZEFSAII (Michael W. Deem and Ramdas Pophale) SiO2 
 PCOD8305121
Probable space group: P 41 2 2
;
_chemical_formula_sum "Si O2"
_cell_formula_units_Z 56
_cell_length_a 20.782768
_cell_length_b 20.782768
_cell_length_c 10.285544
_cell_angle_alpha 90.000000
_cell_angle_beta 90.000000
_cell_angle_gamma 90.000000
_cell_volume 4442.567606
_symmetry_space_group_name_H-M "P 41 2 2"
_symmetry_group_IT_number 91
_symmetry_cell_setting 'tetragonal'
loop_
_space_group_symop_operation_xyz
x,y,z
-y,x,1/4+z
-x,-y,1/2+z
y,-x,3/4+z
x,-y,1/2-z
-x,y,-z
y,x,3/4-z
-y,-x,1/4-z
loop_
_atom_site_type_symbol
_atom_site_label
_atom_site_fract_x
_atom_site_fract_y
_atom_site_fract_z
Si Si1 0.577857 0.951916 0.641262
Si Si2 0.804128 0.568222 0.406748
Si Si3 0.310539 0.636205 0.002801
Si Si4 0.421452 0.190408 0.144645
Si Si5 0.612017 0.329147 0.253293
Si Si6 0.514672 0.384526 0.642516
Si Si7 0.424481 0.051434 0.851731
O O1 0.605395 0.881029 0.668916
O O2 0.599626 0.970640 0.494941
O O3 0.501231 0.949726 0.648741
O O4 0.606545 0.000000 0.750000
O O5 0.804069 0.493781 0.446256
O O6 0.788865 0.579153 0.255615
O O7 0.747123 0.598714 0.491378
O O8 0.875607 0.597723 0.435342
O O9 0.235719 0.624966 0.977308
O O10 0.342150 0.666760 0.876423
O O11 0.315877 0.684124 0.125000
O O12 0.344779 0.569190 0.034716
O O13 0.647115 0.352886 0.125000
O O14 0.549543 0.375453 0.271945
O O15 0.500000 0.355344 0.500000
O O16 0.541370 0.458631 0.625000
O O17 0.395639 0.000000 0.750000
#
# Coordination Sequence:
#
# PCOD8305121 Si02
#       7
#     8   8   8   8   8   8   8
#     4   8  14  25  41  60  79  97 116 140 171 232
#     4   9  17  28  46  61  75  97 124 155 188 239
#     4  11  21  34  45  55  77  97 121 168 208 239
#     4   9  16  29  45  58  76  99 122 149 197 235
#     4  12  22  33  49  60  70  95 136 164 196 257
#     4  11  22  37  43  53  73  90 119 169 220 245
#     4   8  14  26  41  60  83  96 111 143 183 223
#
# _framework density 12.605323
#
# number of rings (size 3 to 8) (size 9 to 14) (size 15 to 20)
#    0.000    2.286    5.714    1.714    0.000    1.143 
#    2.571    0.000    0.000    0.000    0.000    0.000 
#    0.000    0.000    0.000    0.000    0.000    0.000 
#
# Total GULP energy -693909.729590 kJ/mol
# GULP energy per Si atom -12391.245171 kJ/mol
# Density = 1.257663 g / cm^3
# Si number density = 12.605323 Si / 1000 Ang^3
#
#
#
# Elastic Constant Matrix: (Units=GPa)
#
#
# Indices 1 2 3 4 5 6 
#
# 1 66.6504 20.6842 42.2763 0.0000 0.0000 0.0000
# 2 20.6842 66.6505 42.2768 0.0000 0.0000 0.0000
# 3 42.2763 42.2768 94.1394 0.0000 0.0000 0.0000
# 4 0.0000 0.0000 0.0000 14.8013 0.0000 0.0000
# 5 0.0000 0.0000 0.0000 0.0000 14.7993 0.0000
# 6 0.0000 0.0000 0.0000 0.0000 0.0000 6.8838
#
#
#
# Elastic Compliance Matrix: (Units=1/GPa)
#
#
# Indices 1 2 3 4 5 6 
#
# 1 0.021006 -0.000749 -0.009097 0.000000 0.000000 0.000000
# 2 -0.000749 0.021007 -0.009098 0.000000 0.000000 0.000000
# 3 -0.009097 -0.009098 0.018794 0.000000 0.000000 0.000000
# 4 0.000000 0.000000 0.000000 0.067562 0.000000 0.000000
# 5 0.000000 0.000000 0.000000 0.000000 0.067571 0.000000
# 6 0.000000 0.000000 0.000000 0.000000 0.000000 0.145268
#
#
# Mechanical properties :
#
#
# Convention : Reuss Voigt Hill
#
# Bulk Modulus (GPa) = 43.63099 48.65721 46.14410
# Shear Modulus (GPa) = 12.92878 15.44376 14.18627
#
# Velocity S-wave (km/s) = 3.20607 3.50405 3.35837
# Velocity P-wave (km/s) = 6.95654 7.41994 7.19197
#
# Compressibility (1/GPa) = 0.02291949
#
# Stress axis : x y z
#
# Youngs Moduli (GPa) = 47.60443 47.60398 53.20936
#
# Poissons Ratio (x) = 0.03563 0.48407
# Poissons Ratio (y) = 0.03563 0.48408
# Poissons Ratio (z) = 0.43308 0.43309
#
# Static dielectric constant tensor:
#      x y z
#    x 2.453780 0.000000 0.000000 
#    y 0.000000 2.453780 0.000000 
#    z 0.000000 0.000000 2.755980 
# 
# 
# High freq. dielectric constant tensor:
#      x y z
#    x 1.444730 0.000000 0.000000 
#    y 0.000000 1.444730 0.000000 
#    z 0.000000 0.000000 1.489770 
# 
# From -- ./inp_files/19771.got.cif
#   From: 2010.03.12/outbox.cif.g09.slc.cpg/sg91_10_cif.got.tgz:19771.got - 2010.04.08 20:27:58.
