data_PCOD8305211
_publ_section_title
;
Structure prediction by ZEFSAII (Michael W. Deem and Ramdas Pophale) SiO2 
 PCOD8305211
Probable space group: P 41 21 2
;
_chemical_formula_sum "Si O2"
_cell_formula_units_Z 48
_cell_length_a 13.561722
_cell_length_b 13.561722
_cell_length_c 14.255447
_cell_angle_alpha 90.000000
_cell_angle_beta 90.000000
_cell_angle_gamma 90.000000
_cell_volume 2621.866140
_symmetry_space_group_name_H-M "P 41 21 2"
_symmetry_group_IT_number 92
_symmetry_cell_setting 'tetragonal'
loop_
_space_group_symop_operation_xyz
x,y,z
1/2-y,1/2+x,1/4+z
-x,-y,1/2+z
1/2+y,1/2-x,3/4+z
1/2+x,1/2-y,3/4-z
1/2-x,1/2+y,1/4-z
y,x,-z
-y,-x,1/2-z
loop_
_atom_site_type_symbol
_atom_site_label
_atom_site_fract_x
_atom_site_fract_y
_atom_site_fract_z
Si Si1 0.888365 0.740479 0.088837
Si Si2 0.417005 0.076475 0.936798
Si Si3 0.360237 0.917430 0.386052
Si Si4 0.131516 0.651345 0.512799
Si Si5 0.791123 0.932171 0.109950
Si Si6 0.221962 0.851549 0.548836
O O1 0.885744 0.858391 0.115052
O O2 0.788225 0.688181 0.117401
O O3 0.977539 0.687128 0.139979
O O4 0.897835 0.724180 0.977637
O O5 0.535842 0.075023 0.939419
O O6 0.375748 0.135411 0.848474
O O7 0.371199 0.124243 0.032120
O O8 0.384216 0.963382 0.930571
O O9 0.284149 0.859368 0.452173
O O10 0.224548 0.585704 0.548029
O O11 0.139497 0.769164 0.529630
O O12 0.823720 0.045342 0.088041
#
# Coordination Sequence:
#
# PCOD8305211 Si02
#       6
#     8   8   8   8   8   8
#     4   9  17  31  50  82 103 140 178 226 277 340
#     4  10  21  34  53  83 113 145 189 241 279 331
#     4  10  18  33  58  78 111 144 192 230 284 329
#     4  10  22  34  53  86 114 145 186 233 291 336
#     4   9  19  31  52  78 112 139 180 227 283 340
#     4  10  19  33  55  82 112 145 183 233 288 341
#
# _framework density 18.307569999999998
#
# number of rings (size 3 to 8) (size 9 to 14) (size 15 to 20)
#    0.000    2.333    1.667    1.000    9.333    0.667 
#    0.000    0.000    0.000   16.000   13.000    0.000 
#    0.000    0.000    0.000    0.000    0.000    0.000 
#
# Total GULP energy -594764.890739 kJ/mol
# GULP energy per Si atom -12390.935224 kJ/mol
# Density = 1.826590 g / cm^3
# Si number density = 18.307570 Si / 1000 Ang^3
#
#
#
# Elastic Constant Matrix: (Units=GPa)
#
#
# Indices 1 2 3 4 5 6 
#
# 1 52.6314 -3.4485 25.5426 0.0000 0.0000 0.0000
# 2 -3.4485 52.6314 25.5426 0.0000 0.0000 0.0000
# 3 25.5426 25.5426 66.3532 0.0000 0.0000 0.0000
# 4 0.0000 0.0000 0.0000 22.8384 0.0000 0.0000
# 5 0.0000 0.0000 0.0000 0.0000 22.8384 0.0000
# 6 0.0000 0.0000 0.0000 0.0000 0.0000 27.7636
#
#
#
# Elastic Compliance Matrix: (Units=1/GPa)
#
#
# Indices 1 2 3 4 5 6 
#
# 1 0.025855 0.008023 -0.013041 0.000000 0.000000 0.000000
# 2 0.008023 0.025855 -0.013041 0.000000 0.000000 0.000000
# 3 -0.013041 -0.013041 0.025111 0.000000 0.000000 0.000000
# 4 0.000000 0.000000 0.000000 0.043786 0.000000 0.000000
# 5 0.000000 0.000000 0.000000 0.000000 0.043786 0.000000
# 6 0.000000 0.000000 0.000000 0.000000 0.000000 0.036018
#
#
# Mechanical properties :
#
#
# Convention : Reuss Voigt Hill
#
# Bulk Modulus (GPa) = 24.56879 29.65440 27.11159
# Shear Modulus (GPa) = 19.99221 22.95336 21.47279
#
# Velocity S-wave (km/s) = 3.30816 3.54469 3.42847
# Velocity P-wave (km/s) = 5.29538 5.74336 5.52391
#
# Compressibility (1/GPa) = 0.04070205
#
# Stress axis : x y z
#
# Youngs Moduli (GPa) = 38.67752 38.67752 39.82269
#
# Poissons Ratio (x) = -0.31031 0.51934
# Poissons Ratio (y) = -0.31031 0.51934
# Poissons Ratio (z) = 0.50440 0.50440
#
# Static dielectric constant tensor:
#      x y z
#    x 3.383280 0.000000 0.000000 
#    y 0.000000 3.383280 0.000000 
#    z 0.000000 0.000000 3.399820 
# 
# 
# High freq. dielectric constant tensor:
#      x y z
#    x 1.691120 0.000000 0.000000 
#    y 0.000000 1.691120 0.000000 
#    z 0.000000 0.000000 1.719860 
# 
# From -- ./inp_files/2715.got.cif
#   From: 2010.03.12/outbox.cif.g09.slc.cpg/sg92_2_cif.got.tgz:2715.got - 2010.04.08 20:41:11.
