data_PCOD8305269
_publ_section_title
;
Structure prediction by ZEFSAII (Michael W. Deem and Ramdas Pophale) SiO2 
 PCOD8305269
Probable space group: P 41 21 2
;
_chemical_formula_sum "Si O2"
_cell_formula_units_Z 40
_cell_length_a 11.481094
_cell_length_b 11.481094
_cell_length_c 14.504797
_cell_angle_alpha 90.000000
_cell_angle_beta 90.000000
_cell_angle_gamma 90.000000
_cell_volume 1911.957351
_symmetry_space_group_name_H-M "P 41 21 2"
_symmetry_group_IT_number 92
_symmetry_cell_setting 'tetragonal'
loop_
_space_group_symop_operation_xyz
x,y,z
1/2-y,1/2+x,1/4+z
-x,-y,1/2+z
1/2+y,1/2-x,3/4+z
1/2+x,1/2-y,3/4-z
1/2-x,1/2+y,1/4-z
y,x,-z
-y,-x,1/2-z
loop_
_atom_site_type_symbol
_atom_site_label
_atom_site_fract_x
_atom_site_fract_y
_atom_site_fract_z
Si Si1 0.748175 0.517090 0.424257
Si Si2 0.102820 0.579519 0.565010
Si Si3 0.048894 0.626325 0.992430
Si Si4 0.549939 0.270707 0.601944
Si Si5 0.735751 0.264250 0.750000
Si Si6 0.497135 0.497135 0.500000
O O1 0.769950 0.545926 0.316559
O O2 0.820214 0.404034 0.458734
O O3 0.788692 0.628255 0.483476
O O4 0.612657 0.491052 0.437690
O O5 0.167119 0.530076 0.656209
O O6 0.194494 0.594739 0.483722
O O7 0.000933 0.490735 0.538213
O O8 0.045663 0.704243 0.586380
O O9 0.662298 0.304577 0.661710
O O10 0.489382 0.388507 0.568493
#
# Coordination Sequence:
#
# PCOD8305269 Si02
#       6
#     8   8   8   8   4   4
#     4  10  20  37  63  96 126 166 218 271 335 390
#     4   9  20  40  71  90 120 169 229 267 315 385
#     4   9  17  38  70  94 115 163 231 277 304 387
#     4  11  23  44  62  98 132 176 217 272 333 400
#     4  11  22  36  68  91 134 166 212 277 330 392
#     4  11  26  42  54  97 146 168 212 267 344 398
#
# _framework density 20.920968999999999
#
# number of rings (size 3 to 8) (size 9 to 14) (size 15 to 20)
#    0.000    2.000    2.000    1.200    0.000    3.200 
#   18.000    0.000    0.000    0.000    0.000    0.000 
#    0.000    0.000    0.000    0.000    0.000    0.000 
#
# Total GULP energy -496162.912145 kJ/mol
# GULP energy per Si atom -12404.072804 kJ/mol
# Density = 2.087335 g / cm^3
# Si number density = 20.920969 Si / 1000 Ang^3
#
#
#
# Elastic Constant Matrix: (Units=GPa)
#
#
# Indices 1 2 3 4 5 6 
#
# 1 76.8028 48.5973 39.4330 0.0000 0.0000 0.0000
# 2 48.5973 76.8025 39.4341 0.0000 0.0000 0.0000
# 3 39.4330 39.4341 126.6919 0.0000 0.0000 0.0000
# 4 0.0000 0.0000 0.0000 35.6109 0.0000 0.0000
# 5 0.0000 0.0000 0.0000 0.0000 35.6107 0.0000
# 6 0.0000 0.0000 0.0000 0.0000 0.0000 18.0671
#
#
#
# Elastic Compliance Matrix: (Units=1/GPa)
#
#
# Indices 1 2 3 4 5 6 
#
# 1 0.022685 -0.012769 -0.003086 0.000000 0.000000 0.000000
# 2 -0.012769 0.022685 -0.003086 0.000000 0.000000 0.000000
# 3 -0.003086 -0.003086 0.009814 0.000000 0.000000 0.000000
# 4 0.000000 0.000000 0.000000 0.028081 0.000000 0.000000
# 5 0.000000 0.000000 0.000000 0.000000 0.028081 0.000000
# 6 0.000000 0.000000 0.000000 0.000000 0.000000 0.055349
#
#
# Mechanical properties :
#
#
# Convention : Reuss Voigt Hill
#
# Bulk Modulus (GPa) = 57.80220 59.46956 58.63588
# Shear Modulus (GPa) = 23.77028 28.04659 25.90844
#
# Velocity S-wave (km/s) = 3.37440 3.66539 3.52290
# Velocity P-wave (km/s) = 6.54759 6.81182 6.68101
#
# Compressibility (1/GPa) = 0.01730038
#
# Stress axis : x y z
#
# Youngs Moduli (GPa) = 44.08256 44.08190 101.89113
#
# Poissons Ratio (x) = 0.56290 0.31444
# Poissons Ratio (y) = 0.56291 0.31448
# Poissons Ratio (z) = 0.13604 0.13606
#
# Static dielectric constant tensor:
#      x y z
#    x 3.587220 0.000000 0.000000 
#    y 0.000000 3.587230 0.000000 
#    z 0.000000 0.000000 4.005580 
# 
# 
# High freq. dielectric constant tensor:
#      x y z
#    x 1.807260 0.000000 0.000000 
#    y 0.000000 1.807260 0.000000 
#    z 0.000000 0.000000 1.829900 
# 
# From -- ./inp_files/2656.got.cif
#   From: 2010.03.12/outbox.cif.g09.slc.cpg/sg92_2_cif.got.tgz:2656.got - 2010.04.08 20:41:11.
