data_PCOD8305769
_publ_section_title
;
Structure prediction by ZEFSAII (Michael W. Deem and Ramdas Pophale) SiO2 
 PCOD8305769
Probable space group: P 42 21 2
;
_chemical_formula_sum "Si O2"
_cell_formula_units_Z 48
_cell_length_a 8.857806
_cell_length_b 8.857806
_cell_length_c 28.143846
_cell_angle_alpha 90.000000
_cell_angle_beta 90.000000
_cell_angle_gamma 90.000000
_cell_volume 2208.186621
_symmetry_space_group_name_H-M "P 42 21 2"
_symmetry_group_IT_number 94
_symmetry_cell_setting 'tetragonal'
loop_
_space_group_symop_operation_xyz
x,y,z
1/2-y,1/2+x,1/2+z
-x,-y,z
1/2+y,1/2-x,1/2+z
1/2+x,1/2-y,1/2-z
1/2-x,1/2+y,1/2-z
y,x,-z
-y,-x,-z
loop_
_atom_site_type_symbol
_atom_site_label
_atom_site_fract_x
_atom_site_fract_y
_atom_site_fract_z
Si Si1 0.165351 0.541167 0.037505
Si Si2 0.567552 0.160404 0.718363
Si Si3 0.365949 0.801519 0.068087
Si Si4 0.324845 0.535723 0.375269
Si Si5 0.831681 0.167691 0.602353
Si Si6 0.346858 0.421249 0.204626
O O1 0.220601 0.697085 0.059941
O O2 0.289065 0.417820 0.053945
O O3 0.000000 0.500000 0.057635
O O4 0.157587 0.550441 0.980861
O O5 0.510999 0.284103 0.679942
O O6 0.747234 0.148559 0.719898
O O7 0.505212 0.208165 0.769735
O O8 0.500000 0.000000 0.703441
O O9 0.495751 0.728292 0.100797
O O10 0.295124 0.946443 0.092578
O O11 0.500000 0.500000 0.385081
O O12 0.295530 0.706730 0.390136
O O13 0.941632 0.176301 0.648078
O O14 0.500000 0.500000 0.221754
#
# Coordination Sequence:
#
# PCOD8305769 Si02
#       6
#     8   8   8   8   8   8
#     4  11  23  39  61  94 129 168 220 273 325 386
#     4  11  24  41  65  94 128 170 215 269 328 393
#     4  11  23  41  65  93 129 173 218 269 329 391
#     4  11  23  42  66  93 128 170 215 267 328 392
#     4  11  23  41  65  93 127 171 217 269 327 388
#     4  11  23  41  63  93 127 165 215 266 325 392
#
# _framework density 21.737290999999999
#
# number of rings (size 3 to 8) (size 9 to 14) (size 15 to 20)
#    0.000    1.000    0.000    8.000    0.000    4.667 
#    0.000    5.000    0.000    0.000    0.000    1.167 
#    0.000    0.000    0.000    0.000    0.000    0.000 
#
# Total GULP energy -595307.083421 kJ/mol
# GULP energy per Si atom -12402.230905 kJ/mol
# Density = 2.168782 g / cm^3
# Si number density = 21.737291 Si / 1000 Ang^3
#
#
#
# Elastic Constant Matrix: (Units=GPa)
#
#
# Indices 1 2 3 4 5 6 
#
# 1 99.1565 45.3013 45.5700 0.0000 0.0000 0.0000
# 2 45.3013 99.1565 45.5700 0.0000 0.0000 0.0000
# 3 45.5700 45.5700 125.6659 0.0000 0.0000 0.0000
# 4 0.0000 0.0000 0.0000 28.9485 0.0000 0.0000
# 5 0.0000 0.0000 0.0000 0.0000 28.9485 0.0000
# 6 0.0000 0.0000 0.0000 0.0000 0.0000 44.9794
#
#
#
# Elastic Compliance Matrix: (Units=1/GPa)
#
#
# Indices 1 2 3 4 5 6 
#
# 1 0.013772 -0.004796 -0.003255 0.000000 0.000000 0.000000
# 2 -0.004796 0.013772 -0.003255 0.000000 0.000000 0.000000
# 3 -0.003255 -0.003255 0.010318 0.000000 0.000000 0.000000
# 4 0.000000 0.000000 0.000000 0.034544 0.000000 0.000000
# 5 0.000000 0.000000 0.000000 0.000000 0.034544 0.000000
# 6 0.000000 0.000000 0.000000 0.000000 0.000000 0.022232
#
#
# Mechanical properties :
#
#
# Convention : Reuss Voigt Hill
#
# Bulk Modulus (GPa) = 65.57162 66.31795 65.94479
# Shear Modulus (GPa) = 31.87174 33.07779 32.47476
#
# Velocity S-wave (km/s) = 3.83328 3.90514 3.86938
# Velocity P-wave (km/s) = 7.05855 7.13502 7.09689
#
# Compressibility (1/GPa) = 0.01525050
#
# Stress axis : x y z
#
# Youngs Moduli (GPa) = 72.61023 72.61023 96.91524
#
# Poissons Ratio (x) = 0.34825 0.31546
# Poissons Ratio (y) = 0.34825 0.31546
# Poissons Ratio (z) = 0.23634 0.23634
#
# Static dielectric constant tensor:
#      x y z
#    x 3.894140 0.000000 0.000000 
#    y 0.000000 3.894140 0.000000 
#    z 0.000000 0.000000 3.932620 
# 
# 
# High freq. dielectric constant tensor:
#      x y z
#    x 1.860270 0.000000 0.000000 
#    y 0.000000 1.860270 0.000000 
#    z 0.000000 0.000000 1.857390 
# 
# From -- ./inp_files/5609.got.cif
#   From: 2010.03.12/outbox.cif.g09.slc.cpg/sg94_3_cif.got.tgz:5609.got - 2010.04.08 20:48:32.
