data_PCOD8305188
_publ_section_title
;
Structure prediction by ZEFSAII (Michael W. Deem and Ramdas Pophale) SiO2 
 PCOD8305188
Probable space group: P 41 2 2
;
_chemical_formula_sum "Si O2"
_cell_formula_units_Z 40
_cell_length_a 17.120871
_cell_length_b 17.120871
_cell_length_c 6.864980
_cell_angle_alpha 90.000000
_cell_angle_beta 90.000000
_cell_angle_gamma 90.000000
_cell_volume 2012.291934
_symmetry_space_group_name_H-M "P 41 2 2"
_symmetry_group_IT_number 91
_symmetry_cell_setting 'tetragonal'
loop_
_space_group_symop_operation_xyz
x,y,z
-y,x,1/4+z
-x,-y,1/2+z
y,-x,3/4+z
x,-y,1/2-z
-x,y,-z
y,x,3/4-z
-y,-x,1/4-z
loop_
_atom_site_type_symbol
_atom_site_label
_atom_site_fract_x
_atom_site_fract_y
_atom_site_fract_z
Si Si1 0.422592 0.422592 0.375000
Si Si2 0.297813 0.816737 0.520536
Si Si3 0.788344 0.912147 0.804838
Si Si4 0.920473 0.343718 0.885097
Si Si5 0.558241 0.739818 0.674058
Si Si6 0.500000 0.853400 0.000000
O O1 0.500000 0.421930 0.500000
O O2 0.420584 0.345396 0.247651
O O3 0.247792 0.752209 0.625000
O O4 0.245264 0.874891 0.392666
O O5 0.341665 0.856439 0.698378
O O6 0.360007 0.778549 0.378293
O O7 0.864430 0.864430 0.875000
O O8 0.814053 0.000000 0.750000
O O9 0.724540 0.911648 0.976482
O O10 0.911438 0.426924 0.779292
O O11 0.000000 0.335953 0.000000
O O12 0.500000 0.726656 0.500000
O O13 0.514002 0.796271 0.821054
#
# Coordination Sequence:
#
# PCOD8305188 Si02
#       6
#     4   8   8   8   8   4
#     4  12  28  46  66  96 136 188 240 292 348 404
#     4  12  26  42  74 104 137 185 232 287 350 419
#     4  12  26  47  74 108 143 183 233 291 353 423
#     4  12  26  45  72 106 144 184 227 280 354 428
#     4  12  27  44  68 101 142 182 234 295 348 410
#     4  12  26  46  68 108 144 182 230 288 352 418
#
# _framework density 19.877832000000001
#
# number of rings (size 3 to 8) (size 9 to 14) (size 15 to 20)
#    0.000    0.000    9.000    0.600    7.000    2.400 
#    0.000    2.000    0.000    0.000    0.000    0.000 
#    0.000    0.000    0.000    0.000    0.000    0.000 
#
# Total GULP energy -496057.688737 kJ/mol
# GULP energy per Si atom -12401.442218 kJ/mol
# Density = 1.983259 g / cm^3
# Si number density = 19.877832 Si / 1000 Ang^3
#
#
#
# Elastic Constant Matrix: (Units=GPa)
#
#
# Indices 1 2 3 4 5 6 
#
# 1 128.5152 34.7987 35.1804 0.0000 0.0000 0.0000
# 2 34.7987 128.5191 35.1792 0.0000 0.0000 0.0000
# 3 35.1804 35.1792 94.8711 0.0000 0.0000 0.0000
# 4 0.0000 0.0000 0.0000 44.0024 0.0000 0.0000
# 5 0.0000 0.0000 0.0000 0.0000 44.0042 0.0000
# 6 0.0000 0.0000 0.0000 0.0000 0.0000 25.9507
#
#
#
# Elastic Compliance Matrix: (Units=1/GPa)
#
#
# Indices 1 2 3 4 5 6 
#
# 1 0.008979 -0.001691 -0.002702 0.000000 0.000000 0.000000
# 2 -0.001691 0.008979 -0.002702 0.000000 0.000000 0.000000
# 3 -0.002702 -0.002702 0.012545 0.000000 0.000000 0.000000
# 4 0.000000 0.000000 0.000000 0.022726 0.000000 0.000000
# 5 0.000000 0.000000 0.000000 0.000000 0.022725 0.000000
# 6 0.000000 0.000000 0.000000 0.000000 0.000000 0.038535
#
#
# Mechanical properties :
#
#
# Convention : Reuss Voigt Hill
#
# Bulk Modulus (GPa) = 61.31104 62.46911 61.89007
# Shear Modulus (GPa) = 37.28097 39.24128 38.26113
#
# Velocity S-wave (km/s) = 4.33541 4.44793 4.39203
# Velocity P-wave (km/s) = 7.48144 7.60747 7.54471
#
# Compressibility (1/GPa) = 0.01631028
#
# Stress axis : x y z
#
# Youngs Moduli (GPa) = 111.37151 111.37614 79.71500
#
# Poissons Ratio (x) = 0.18839 0.21542
# Poissons Ratio (y) = 0.18838 0.21540
# Poissons Ratio (z) = 0.30097 0.30095
#
# Static dielectric constant tensor:
#      x y z
#    x 3.716610 0.000000 0.000000 
#    y 0.000000 3.716620 0.000000 
#    z 0.000000 0.000000 3.852120 
# 
# 
# High freq. dielectric constant tensor:
#      x y z
#    x 1.786830 0.000000 0.000000 
#    y 0.000000 1.786830 0.000000 
#    z 0.000000 0.000000 1.797960 
# 
# From -- ./inp_files/858.got.cif
#   From: 2010.03.12/outbox.cif.g09.slc.cpg/sg91_1_cif.got.tgz:858.got - 2010.04.08 20:27:58.
