data_PCOD8305031
_publ_section_title
;
Structure prediction by ZEFSAII (Michael W. Deem and Ramdas Pophale) SiO2 
 PCOD8305031
Probable space group: P 41 2 2
;
_chemical_formula_sum "Si O2"
_cell_formula_units_Z 48
_cell_length_a 11.885984
_cell_length_b 11.885984
_cell_length_c 16.850768
_cell_angle_alpha 90.000000
_cell_angle_beta 90.000000
_cell_angle_gamma 90.000000
_cell_volume 2380.619474
_symmetry_space_group_name_H-M "P 41 2 2"
_symmetry_group_IT_number 91
_symmetry_cell_setting 'tetragonal'
loop_
_space_group_symop_operation_xyz
x,y,z
-y,x,1/4+z
-x,-y,1/2+z
y,-x,3/4+z
x,-y,1/2-z
-x,y,-z
y,x,3/4-z
-y,-x,1/4-z
loop_
_atom_site_type_symbol
_atom_site_label
_atom_site_fract_x
_atom_site_fract_y
_atom_site_fract_z
Si Si1 0.310481 0.554972 0.559948
Si Si2 0.455464 0.945667 0.674648
Si Si3 0.655201 0.936904 0.560490
Si Si4 0.962802 0.132168 0.412597
Si Si5 0.086275 0.705913 0.340821
Si Si6 0.680662 0.329580 0.347565
O O1 0.368400 0.631601 0.625000
O O2 0.179955 0.583721 0.560022
O O3 0.329475 0.424977 0.584350
O O4 0.351580 0.584857 0.470021
O O5 0.533928 0.957913 0.598286
O O6 0.520269 0.000000 0.750000
O O7 0.341522 0.018389 0.665729
O O8 0.752958 0.980522 0.616646
O O9 0.669148 0.800955 0.550422
O O10 0.658199 0.014981 0.483357
O O11 0.838801 0.082327 0.410546
O O12 0.000000 0.161037 0.500000
O O13 0.037118 0.037118 0.375000
O O14 0.215449 0.663642 0.351065
#
# Coordination Sequence:
#
# PCOD8305031 Si02
#       6
#     8   8   8   8   8   8
#     4  11  22  42  67  91 126 168 215 265 324 379
#     4  11  22  40  65  92 124 161 213 269 311 367
#     4  10  22  40  65  91 126 168 212 257 318 381
#     4  11  22  39  60  92 132 172 205 253 317 386
#     4  11  22  39  63  94 128 163 214 260 317 377
#     4  10  23  41  66  95 126 167 216 266 321 380
#
# _framework density 20.16282
#
# number of rings (size 3 to 8) (size 9 to 14) (size 15 to 20)
#    0.000    1.333    3.333    2.500    0.000    5.333 
#    0.000    3.333    0.000    0.000    0.000    0.000 
#    0.000    0.000    0.000    0.000    0.000    0.000 
#
# Total GULP energy -594895.522459 kJ/mol
# GULP energy per Si atom -12393.656718 kJ/mol
# Density = 2.011693 g / cm^3
# Si number density = 20.162820 Si / 1000 Ang^3
#
#
#
# Elastic Constant Matrix: (Units=GPa)
#
#
# Indices 1 2 3 4 5 6 
#
# 1 98.0651 38.2244 41.3752 0.0000 0.0000 0.0000
# 2 38.2244 98.0647 41.3763 0.0000 0.0000 0.0000
# 3 41.3752 41.3763 105.7480 0.0000 0.0000 0.0000
# 4 0.0000 0.0000 0.0000 35.1276 0.0000 0.0000
# 5 0.0000 0.0000 0.0000 0.0000 35.1277 0.0000
# 6 0.0000 0.0000 0.0000 0.0000 0.0000 24.5483
#
#
#
# Elastic Compliance Matrix: (Units=1/GPa)
#
#
# Indices 1 2 3 4 5 6 
#
# 1 0.013167 -0.003544 -0.003765 0.000000 0.000000 0.000000
# 2 -0.003544 0.013167 -0.003766 0.000000 0.000000 0.000000
# 3 -0.003765 -0.003766 0.012403 0.000000 0.000000 0.000000
# 4 0.000000 0.000000 0.000000 0.028468 0.000000 0.000000
# 5 0.000000 0.000000 0.000000 0.000000 0.028468 0.000000
# 6 0.000000 0.000000 0.000000 0.000000 0.000000 0.040736
#
#
# Mechanical properties :
#
#
# Convention : Reuss Voigt Hill
#
# Bulk Modulus (GPa) = 60.28244 60.42554 60.35399
# Shear Modulus (GPa) = 30.47154 31.02084 30.74619
#
# Velocity S-wave (km/s) = 3.89173 3.92665 3.90923
# Velocity P-wave (km/s) = 7.08215 7.11280 7.09749
#
# Compressibility (1/GPa) = 0.01658858
#
# Stress axis : x y z
#
# Youngs Moduli (GPa) = 75.94609 75.94492 80.62563
#
# Poissons Ratio (x) = 0.26913 0.30358
# Poissons Ratio (y) = 0.26913 0.30360
# Poissons Ratio (z) = 0.28596 0.28597
#
# Static dielectric constant tensor:
#      x y z
#    x 3.771650 0.000000 0.000000 
#    y 0.000000 3.771650 0.000000 
#    z 0.000000 0.000000 3.771350 
# 
# 
# High freq. dielectric constant tensor:
#      x y z
#    x 1.793730 0.000000 0.000000 
#    y 0.000000 1.793730 0.000000 
#    z 0.000000 0.000000 1.792600 
# 
# From -- ./inp_files/5580.got.cif
#   From: 2010.03.12/outbox.cif.g09.slc.cpg/sg91_3_cif.got.tgz:5580.got - 2010.04.08 20:27:58.
