data_PCOD8305558
_publ_section_title
;
Structure prediction by ZEFSAII (Michael W. Deem and Ramdas Pophale) SiO2 
 PCOD8305558
Probable space group: P 42 2 2
;
_chemical_formula_sum "Si O2"
_cell_formula_units_Z 56
_cell_length_a 11.696771
_cell_length_b 11.696771
_cell_length_c 19.615049
_cell_angle_alpha 90.000000
_cell_angle_beta 90.000000
_cell_angle_gamma 90.000000
_cell_volume 2683.622176
_symmetry_space_group_name_H-M "P 42 2 2"
_symmetry_group_IT_number 93
_symmetry_cell_setting 'tetragonal'
loop_
_space_group_symop_operation_xyz
x,y,z
-y,x,1/2+z
-x,-y,z
y,-x,1/2+z
x,-y,-z
-x,y,-z
y,x,1/2-z
-y,-x,1/2-z
loop_
_atom_site_type_symbol
_atom_site_label
_atom_site_fract_x
_atom_site_fract_y
_atom_site_fract_z
Si Si1 0.398688 0.726766 0.701689
Si Si2 0.574594 0.189229 0.938353
Si Si3 0.555777 0.621254 0.434970
Si Si4 0.133754 0.982609 0.424082
Si Si5 0.788915 0.842552 0.141465
Si Si6 0.095383 0.801283 0.314962
Si Si7 0.129012 0.539603 0.304115
O O1 0.386396 0.613605 0.750000
O O2 0.461205 0.700092 0.631004
O O3 0.264336 0.753327 0.687640
O O4 0.475277 0.824125 0.736967
O O5 0.605018 0.315983 0.959998
O O6 0.696844 0.129918 0.919944
O O7 0.498756 0.197435 0.870593
O O8 0.500000 0.130395 0.000000
O O9 0.500000 0.500000 0.419578
O O10 0.500000 0.684284 0.500000
O O11 0.150519 0.861188 0.383611
O O12 0.185934 0.000000 0.500000
O O13 0.192170 0.085835 0.383822
O O14 0.000000 0.000000 0.427918
O O15 0.793342 0.958423 0.184642
O O16 0.121369 0.878632 0.250000
O O17 0.146551 0.675627 0.301192
O O18 0.000000 0.500000 0.314269
#
# Coordination Sequence:
#
# PCOD8305558 Si02
#       7
#     8   8   8   8   8   8   8
#     4  11  22  41  70  92 126 184 226 270 343 414
#     4  11  22  39  68  97 130 179 216 280 348 411
#     4  10  20  40  66  97 131 163 228 284 325 401
#     4   9  21  39  61  92 129 170 219 274 330 406
#     4  10  22  42  70  96 127 177 231 271 341 416
#     4  11  25  42  64 100 134 172 222 289 338 396
#     4  12  25  44  61  96 137 172 224 284 346 409
#
# _framework density 20.867318999999998
#
# number of rings (size 3 to 8) (size 9 to 14) (size 15 to 20)
#    0.000    1.429    5.714    0.000    6.000    3.714 
#    0.000    0.000    0.000    0.000    0.000    0.000 
#    0.000    0.000    0.000    0.000    0.000    0.000 
#
# Total GULP energy -693767.976640 kJ/mol
# GULP energy per Si atom -12388.713869 kJ/mol
# Density = 2.081982 g / cm^3
# Si number density = 20.867319 Si / 1000 Ang^3
#
#
#
# Elastic Constant Matrix: (Units=GPa)
#
#
# Indices 1 2 3 4 5 6 
#
# 1 105.1630 26.8844 51.7378 0.0000 0.0000 0.0000
# 2 26.8844 105.1631 51.7381 0.0000 0.0000 0.0000
# 3 51.7378 51.7381 161.2539 0.0000 0.0000 0.0000
# 4 0.0000 0.0000 0.0000 17.8736 0.0000 0.0000
# 5 0.0000 0.0000 0.0000 0.0000 17.8740 0.0000
# 6 0.0000 0.0000 0.0000 0.0000 0.0000 24.2750
#
#
#
# Elastic Compliance Matrix: (Units=1/GPa)
#
#
# Indices 1 2 3 4 5 6 
#
# 1 0.011446 -0.001329 -0.003246 0.000000 0.000000 0.000000
# 2 -0.001329 0.011446 -0.003246 0.000000 0.000000 0.000000
# 3 -0.003246 -0.003246 0.008284 0.000000 0.000000 0.000000
# 4 0.000000 0.000000 0.000000 0.055948 0.000000 0.000000
# 5 0.000000 0.000000 0.000000 0.000000 0.055947 0.000000
# 6 0.000000 0.000000 0.000000 0.000000 0.000000 0.041195
#
#
# Mechanical properties :
#
#
# Convention : Reuss Voigt Hill
#
# Bulk Modulus (GPa) = 64.37527 70.25562 67.31545
# Shear Modulus (GPa) = 24.38006 28.08585 26.23296
#
# Velocity S-wave (km/s) = 3.42180 3.67267 3.54945
# Velocity P-wave (km/s) = 6.82117 7.19204 7.00906
#
# Compressibility (1/GPa) = 0.01553392
#
# Stress axis : x y z
#
# Youngs Moduli (GPa) = 87.36882 87.36877 120.71068
#
# Poissons Ratio (x) = 0.11613 0.39181
# Poissons Ratio (y) = 0.11613 0.39181
# Poissons Ratio (z) = 0.28359 0.28359
#
# Static dielectric constant tensor:
#      x y z
#    x 4.200820 0.000000 0.000000 
#    y 0.000000 4.200790 0.000000 
#    z 0.000000 0.000000 4.121860 
# 
# 
# High freq. dielectric constant tensor:
#      x y z
#    x 1.804330 0.000000 0.000000 
#    y 0.000000 1.804330 0.000000 
#    z 0.000000 0.000000 1.830130 
# 
# From -- ./inp_files/6265.got.cif
#   From: 2010.03.12/outbox.cif.g09.slc.cpg/sg93_4_cif.got.tgz:6265.got - 2010.04.08 20:44:19.
