data_PCOD8305772
_publ_section_title
;
Structure prediction by ZEFSAII (Michael W. Deem and Ramdas Pophale) SiO2 
 PCOD8305772
Probable space group: P 42 21 2
;
_chemical_formula_sum "Si O2"
_cell_formula_units_Z 48
_cell_length_a 9.292469
_cell_length_b 9.292469
_cell_length_c 26.781977
_cell_angle_alpha 90.000000
_cell_angle_beta 90.000000
_cell_angle_gamma 90.000000
_cell_volume 2312.623181
_symmetry_space_group_name_H-M "P 42 21 2"
_symmetry_group_IT_number 94
_symmetry_cell_setting 'tetragonal'
loop_
_space_group_symop_operation_xyz
x,y,z
1/2-y,1/2+x,1/2+z
-x,-y,z
1/2+y,1/2-x,1/2+z
1/2+x,1/2-y,1/2-z
1/2-x,1/2+y,1/2-z
y,x,-z
-y,-x,-z
loop_
_atom_site_type_symbol
_atom_site_label
_atom_site_fract_x
_atom_site_fract_y
_atom_site_fract_z
Si Si1 0.584780 0.353512 0.321938
Si Si2 0.132688 0.413731 0.850401
Si Si3 0.112399 0.606446 0.153632
Si Si4 0.732906 0.484582 0.058000
Si Si5 0.413335 0.644087 0.210743
Si Si6 0.009443 0.762887 0.446921
O O1 0.500000 0.500000 0.319946
O O2 0.741231 0.376078 0.346696
O O3 0.478586 0.252315 0.354153
O O4 0.609196 0.289641 0.266020
O O5 0.270040 0.475826 0.822924
O O6 0.134757 0.461715 0.908463
O O7 0.000000 0.500000 0.825774
O O8 0.146813 0.529930 0.100553
O O9 0.256669 0.628864 0.185629
O O10 0.000000 0.500000 0.181781
O O11 0.628311 0.618100 0.067152
O O12 0.646024 0.335109 0.060188
O O13 0.800450 0.513827 0.003111
O O14 0.500000 0.500000 0.217775
#
# Coordination Sequence:
#
# PCOD8305772 Si02
#       6
#     8   8   8   8   8   8
#     4  11  26  42  59  91 132 169 210 267 328 391
#     4  12  24  40  64  90 123 169 215 261 327 397
#     4  12  23  37  64  96 125 164 212 274 330 380
#     4   9  18  35  64  93 124 157 210 265 311 373
#     4  11  23  42  64  87 123 170 221 264 315 390
#     4   9  18  36  62  95 122 159 210 262 309 377
#
# _framework density 20.755652000000001
#
# number of rings (size 3 to 8) (size 9 to 14) (size 15 to 20)
#    0.000    1.333    1.667    6.000    0.000    6.000 
#    0.000    0.000    0.000    0.000    0.000    0.000 
#    0.000    0.000    0.000    0.000    0.000    0.000 
#
# Total GULP energy -594798.953998 kJ/mol
# GULP energy per Si atom -12391.644875 kJ/mol
# Density = 2.070841 g / cm^3
# Si number density = 20.755652 Si / 1000 Ang^3
#
#
#
# Elastic Constant Matrix: (Units=GPa)
#
#
# Indices 1 2 3 4 5 6 
#
# 1 99.5300 41.0424 34.4021 0.0000 0.0000 0.0000
# 2 41.0424 99.5300 34.4021 0.0000 0.0000 0.0000
# 3 34.4021 34.4021 120.7329 0.0000 0.0000 0.0000
# 4 0.0000 0.0000 0.0000 62.9095 0.0000 0.0000
# 5 0.0000 0.0000 0.0000 0.0000 62.9095 0.0000
# 6 0.0000 0.0000 0.0000 0.0000 0.0000 38.7446
#
#
#
# Elastic Compliance Matrix: (Units=1/GPa)
#
#
# Indices 1 2 3 4 5 6 
#
# 1 0.012682 -0.004415 -0.002356 0.000000 0.000000 0.000000
# 2 -0.004415 0.012682 -0.002356 0.000000 0.000000 0.000000
# 3 -0.002356 -0.002356 0.009625 0.000000 0.000000 0.000000
# 4 0.000000 0.000000 0.000000 0.015896 0.000000 0.000000
# 5 0.000000 0.000000 0.000000 0.000000 0.015896 0.000000
# 6 0.000000 0.000000 0.000000 0.000000 0.000000 0.025810
#
#
# Mechanical properties :
#
#
# Convention : Reuss Voigt Hill
#
# Bulk Modulus (GPa) = 59.75010 59.94291 59.84651
# Shear Modulus (GPa) = 42.94680 46.90916 44.92798
#
# Velocity S-wave (km/s) = 4.55374 4.75917 4.65759
# Velocity P-wave (km/s) = 7.51656 7.69042 7.60399
#
# Compressibility (1/GPa) = 0.01673637
#
# Stress axis : x y z
#
# Youngs Moduli (GPa) = 78.85086 78.85086 103.89455
#
# Poissons Ratio (x) = 0.34816 0.24473
# Poissons Ratio (y) = 0.34816 0.24473
# Poissons Ratio (z) = 0.18574 0.18574
#
# Static dielectric constant tensor:
#      x y z
#    x 3.646290 0.000000 0.000000 
#    y 0.000000 3.646290 0.000000 
#    z 0.000000 0.000000 3.975660 
# 
# 
# High freq. dielectric constant tensor:
#      x y z
#    x 1.810870 0.000000 0.000000 
#    y 0.000000 1.810870 0.000000 
#    z 0.000000 0.000000 1.814350 
# 
# From -- ./inp_files/5597.got.cif
#   From: 2010.03.12/outbox.cif.g09.slc.cpg/sg94_3_cif.got.tgz:5597.got - 2010.04.08 20:48:32.
