data_PCOD8305803
_publ_section_title
;
Structure prediction by ZEFSAII (Michael W. Deem and Ramdas Pophale) SiO2 
 PCOD8305803
Probable space group: P 42 21 2
;
_chemical_formula_sum "Si O2"
_cell_formula_units_Z 20
_cell_length_a 7.490013
_cell_length_b 7.490013
_cell_length_c 13.613379
_cell_angle_alpha 90.000000
_cell_angle_beta 90.000000
_cell_angle_gamma 90.000000
_cell_volume 763.714574
_symmetry_space_group_name_H-M "P 42 21 2"
_symmetry_group_IT_number 94
_symmetry_cell_setting 'tetragonal'
loop_
_space_group_symop_operation_xyz
x,y,z
1/2-y,1/2+x,1/2+z
-x,-y,z
1/2+y,1/2-x,1/2+z
1/2+x,1/2-y,1/2-z
1/2-x,1/2+y,1/2-z
y,x,-z
-y,-x,-z
loop_
_atom_site_type_symbol
_atom_site_label
_atom_site_fract_x
_atom_site_fract_y
_atom_site_fract_z
Si Si1 0.028737 0.798094 0.127865
Si Si2 0.714558 0.714558 0.000000
Si Si3 0.061732 0.296450 0.346868
O O1 0.237499 0.754309 0.117506
O O2 0.910342 0.685277 0.050332
O O3 0.953223 0.769841 0.236199
O O4 0.000000 0.000000 0.097646
O O5 0.567271 0.683060 0.083493
O O6 0.000000 0.500000 0.351241
#
# Coordination Sequence:
#
# PCOD8305803 Si02
#       3
#     8   4   8
#     4  12  25  53  77 115 163 213 278 345 412 490
#     4  12  27  50  85 118 162 223 270 345 416 494
#     4  12  26  50  81 112 163 217 276 345 413 495
#
# _framework density 26.187791000000001
#
# number of rings (size 3 to 8) (size 9 to 14) (size 15 to 20)
#    0.000    0.000    8.000    0.600    0.000    1.600 
#   14.400    0.000    0.000    0.000    0.000    0.000 
#    0.000    0.000    0.000    0.000    0.000    0.000 
#
# Total GULP energy -248102.571233 kJ/mol
# GULP energy per Si atom -12405.128562 kJ/mol
# Density = 2.612819 g / cm^3
# Si number density = 26.187791 Si / 1000 Ang^3
#
#
#
# Elastic Constant Matrix: (Units=GPa)
#
#
# Indices 1 2 3 4 5 6 
#
# 1 125.9861 23.1111 34.6218 0.0000 0.0000 0.0000
# 2 23.1111 125.9861 34.6218 0.0000 0.0000 0.0000
# 3 34.6218 34.6218 166.3369 0.0000 0.0000 0.0000
# 4 0.0000 0.0000 0.0000 50.9113 0.0000 0.0000
# 5 0.0000 0.0000 0.0000 0.0000 50.9113 0.0000
# 6 0.0000 0.0000 0.0000 0.0000 0.0000 30.9069
#
#
#
# Elastic Compliance Matrix: (Units=1/GPa)
#
#
# Indices 1 2 3 4 5 6 
#
# 1 0.008573 -0.001148 -0.001545 0.000000 0.000000 0.000000
# 2 -0.001148 0.008573 -0.001545 0.000000 0.000000 0.000000
# 3 -0.001545 -0.001545 0.006655 0.000000 0.000000 0.000000
# 4 0.000000 0.000000 0.000000 0.019642 0.000000 0.000000
# 5 0.000000 0.000000 0.000000 0.000000 0.019642 0.000000
# 6 0.000000 0.000000 0.000000 0.000000 0.000000 0.032355
#
#
# Mechanical properties :
#
#
# Convention : Reuss Voigt Hill
#
# Bulk Modulus (GPa) = 65.26092 67.00202 66.13147
# Shear Modulus (GPa) = 45.86111 48.27621 47.06866
#
# Velocity S-wave (km/s) = 4.18932 4.29821 4.24412
# Velocity P-wave (km/s) = 6.95522 7.09039 7.02313
#
# Compressibility (1/GPa) = 0.01532311
#
# Stress axis : x y z
#
# Youngs Moduli (GPa) = 116.65012 116.65012 150.25791
#
# Poissons Ratio (x) = 0.13390 0.23221
# Poissons Ratio (y) = 0.13390 0.23221
# Poissons Ratio (z) = 0.18027 0.18027
#
# Static dielectric constant tensor:
#      x y z
#    x 5.056050 0.000000 0.000000 
#    y 0.000000 5.056050 0.000000 
#    z 0.000000 0.000000 5.164890 
# 
# 
# High freq. dielectric constant tensor:
#      x y z
#    x 2.049520 0.000000 0.000000 
#    y 0.000000 2.049520 0.000000 
#    z 0.000000 0.000000 2.080790 
# 
# From -- ./inp_files/1888.got.cif
#   From: 2010.03.12/outbox.cif.g09.slc.cpg/sg94_1_cif.got.tgz:1888.got - 2010.04.08 20:48:32.
