data_PCOD8305272
_publ_section_title
;
Structure prediction by ZEFSAII (Michael W. Deem and Ramdas Pophale) SiO2 
 PCOD8305272
Probable space group: P 41 21 2
;
_chemical_formula_sum "Si O2"
_cell_formula_units_Z 40
_cell_length_a 8.504913
_cell_length_b 8.504913
_cell_length_c 29.133878
_cell_angle_alpha 90.000000
_cell_angle_beta 90.000000
_cell_angle_gamma 90.000000
_cell_volume 2107.356679
_symmetry_space_group_name_H-M "P 41 21 2"
_symmetry_group_IT_number 92
_symmetry_cell_setting 'tetragonal'
loop_
_space_group_symop_operation_xyz
x,y,z
1/2-y,1/2+x,1/4+z
-x,-y,1/2+z
1/2+y,1/2-x,3/4+z
1/2+x,1/2-y,3/4-z
1/2-x,1/2+y,1/4-z
y,x,-z
-y,-x,1/2-z
loop_
_atom_site_type_symbol
_atom_site_label
_atom_site_fract_x
_atom_site_fract_y
_atom_site_fract_z
Si Si1 0.473694 0.859332 0.409168
Si Si2 0.568097 0.181686 0.742234
Si Si3 0.432500 0.351904 0.129970
Si Si4 0.425271 0.032992 0.325163
Si Si5 0.524406 0.621215 0.792161
O O1 0.537411 0.912908 0.457802
O O2 0.282902 0.848544 0.411256
O O3 0.537739 0.690381 0.395322
O O4 0.523672 0.992094 0.371389
O O5 0.733199 0.266802 0.750000
O O6 0.439682 0.304169 0.723295
O O7 0.523287 0.107247 0.790917
O O8 0.530927 0.261032 0.089631
O O9 0.536539 0.464267 0.161902
O O10 0.470883 0.196046 0.302832
O O11 0.404497 0.595504 0.750000
#
# Coordination Sequence:
#
# PCOD8305272 Si02
#       5
#     8   8   8   8   8
#     4  10  20  37  65  89 128 163 226 254 327 377
#     4  11  20  40  64  93 125 177 213 266 316 394
#     4  10  21  39  62  96 124 171 206 272 314 386
#     4  10  24  37  65  94 128 165 218 266 323 383
#     4  11  23  40  65  92 132 169 214 261 338 376
#
# _framework density 18.981123
#
# number of rings (size 3 to 8) (size 9 to 14) (size 15 to 20)
#    1.200    0.400    2.000    4.800    2.800    0.000 
#    0.000    0.000    0.000    0.000    0.000    0.000 
#    0.000    0.000    0.000    0.000    0.000    0.000 
#
# Total GULP energy -495623.132182 kJ/mol
# GULP energy per Si atom -12390.578305 kJ/mol
# Density = 1.893792 g / cm^3
# Si number density = 18.981123 Si / 1000 Ang^3
#
#
#
# Elastic Constant Matrix: (Units=GPa)
#
#
# Indices 1 2 3 4 5 6 
#
# 1 55.0204 25.8007 11.2682 0.0000 0.0000 0.0000
# 2 25.8007 55.0246 11.2700 0.0000 0.0000 0.0000
# 3 11.2682 11.2700 77.7493 0.0000 0.0000 0.0000
# 4 0.0000 0.0000 0.0000 28.9833 0.0000 0.0000
# 5 0.0000 0.0000 0.0000 0.0000 28.9834 0.0000
# 6 0.0000 0.0000 0.0000 0.0000 0.0000 18.9332
#
#
#
# Elastic Compliance Matrix: (Units=1/GPa)
#
#
# Indices 1 2 3 4 5 6 
#
# 1 0.023558 -0.010664 -0.001869 0.000000 0.000000 0.000000
# 2 -0.010664 0.023557 -0.001869 0.000000 0.000000 0.000000
# 3 -0.001869 -0.001869 0.013404 0.000000 0.000000 0.000000
# 4 0.000000 0.000000 0.000000 0.034503 0.000000 0.000000
# 5 0.000000 0.000000 0.000000 0.000000 0.034502 0.000000
# 6 0.000000 0.000000 0.000000 0.000000 0.000000 0.052817
#
#
# Mechanical properties :
#
#
# Convention : Reuss Voigt Hill
#
# Bulk Modulus (GPa) = 31.52997 31.60801 31.56899
# Shear Modulus (GPa) = 22.55142 24.67700 23.61421
#
# Velocity S-wave (km/s) = 3.45062 3.60958 3.53099
# Velocity P-wave (km/s) = 5.70289 5.83614 5.76990
#
# Compressibility (1/GPa) = 0.03171585
#
# Stress axis : x y z
#
# Youngs Moduli (GPa) = 42.44800 42.45089 74.60681
#
# Poissons Ratio (x) = 0.45268 0.13941
# Poissons Ratio (y) = 0.45265 0.13945
# Poissons Ratio (z) = 0.07932 0.07935
#
# Static dielectric constant tensor:
#      x y z
#    x 3.334080 0.000000 0.000000 
#    y 0.000000 3.334070 0.000000 
#    z 0.000000 0.000000 3.651130 
# 
# 
# High freq. dielectric constant tensor:
#      x y z
#    x 1.724100 0.000000 0.000000 
#    y 0.000000 1.724100 0.000000 
#    z 0.000000 0.000000 1.753180 
# 
# From -- ./inp_files/4351.got.cif
#   From: 2010.03.12/outbox.cif.g09.slc.cpg/sg92_3_cif.got.tgz:4351.got - 2010.04.08 20:41:11.
