data_PCOD8305350
_publ_section_title
;
Structure prediction by ZEFSAII (Michael W. Deem and Ramdas Pophale) SiO2 
 PCOD8305350
Probable space group: P 41 21 2
;
_chemical_formula_sum "Si O2"
_cell_formula_units_Z 48
_cell_length_a 9.004408
_cell_length_b 9.004408
_cell_length_c 28.179351
_cell_angle_alpha 90.000000
_cell_angle_beta 90.000000
_cell_angle_gamma 90.000000
_cell_volume 2284.763841
_symmetry_space_group_name_H-M "P 41 21 2"
_symmetry_group_IT_number 92
_symmetry_cell_setting 'tetragonal'
loop_
_space_group_symop_operation_xyz
x,y,z
1/2-y,1/2+x,1/4+z
-x,-y,1/2+z
1/2+y,1/2-x,3/4+z
1/2+x,1/2-y,3/4-z
1/2-x,1/2+y,1/4-z
y,x,-z
-y,-x,1/2-z
loop_
_atom_site_type_symbol
_atom_site_label
_atom_site_fract_x
_atom_site_fract_y
_atom_site_fract_z
Si Si1 0.381514 0.510434 0.301814
Si Si2 0.146879 0.632896 0.776478
Si Si3 0.660906 0.456155 0.360561
Si Si4 0.012609 0.330273 0.751967
Si Si5 0.212866 0.784162 0.322960
Si Si6 0.246072 0.157743 0.701128
O O1 0.441539 0.558462 0.250000
O O2 0.508675 0.429532 0.331882
O O3 0.326331 0.650128 0.332979
O O4 0.239515 0.403813 0.296652
O O5 0.279732 0.720269 0.750000
O O6 0.203444 0.560773 0.824873
O O7 0.076171 0.497654 0.746325
O O8 0.016972 0.746000 0.789401
O O9 0.668813 0.624266 0.380319
O O10 0.680409 0.332146 0.400599
O O11 0.149136 0.219940 0.744209
O O12 0.938634 0.287263 0.802034
O O13 0.889394 0.303825 0.712300
#
# Coordination Sequence:
#
# PCOD8305350 Si02
#       6
#     8   8   8   8   8   8
#     4  12  22  45  69  99 129 182 224 277 331 401
#     4  12  25  42  66  99 133 176 219 270 341 404
#     4  11  26  40  63  98 139 170 219 277 334 400
#     4  10  21  44  66  92 126 170 221 271 329 392
#     4  10  22  42  69  93 127 168 228 275 325 391
#     4  11  24  43  67  93 136 172 219 274 334 396
#
# _framework density 21.008737
#
# number of rings (size 3 to 8) (size 9 to 14) (size 15 to 20)
#    0.000    1.000    3.333    3.500    7.000    1.333 
#    0.000    1.667    0.000    0.000    0.000    0.000 
#    0.000    0.000    0.000    0.000    0.000    0.000 
#
# Total GULP energy -595185.417826 kJ/mol
# GULP energy per Si atom -12399.696205 kJ/mol
# Density = 2.096092 g / cm^3
# Si number density = 21.008737 Si / 1000 Ang^3
#
#
#
# Elastic Constant Matrix: (Units=GPa)
#
#
# Indices 1 2 3 4 5 6 
#
# 1 120.6525 43.3642 28.3672 0.0000 0.0000 0.0000
# 2 43.3642 120.6533 28.3669 0.0000 0.0000 0.0000
# 3 28.3672 28.3669 65.5205 0.0000 0.0000 0.0000
# 4 0.0000 0.0000 0.0000 28.9680 0.0000 0.0000
# 5 0.0000 0.0000 0.0000 0.0000 28.9677 0.0000
# 6 0.0000 0.0000 0.0000 0.0000 0.0000 54.1224
#
#
#
# Elastic Compliance Matrix: (Units=1/GPa)
#
#
# Indices 1 2 3 4 5 6 
#
# 1 0.010055 -0.002884 -0.003105 0.000000 0.000000 0.000000
# 2 -0.002884 0.010055 -0.003105 0.000000 0.000000 0.000000
# 3 -0.003105 -0.003105 0.017951 0.000000 0.000000 0.000000
# 4 0.000000 0.000000 0.000000 0.034521 0.000000 0.000000
# 5 0.000000 0.000000 0.000000 0.000000 0.034521 0.000000
# 6 0.000000 0.000000 0.000000 0.000000 0.000000 0.018477
#
#
# Mechanical properties :
#
#
# Convention : Reuss Voigt Hill
#
# Bulk Modulus (GPa) = 50.31725 56.33587 53.32656
# Shear Modulus (GPa) = 33.24703 36.19349 34.72026
#
# Velocity S-wave (km/s) = 3.98242 4.15514 4.06970
# Velocity P-wave (km/s) = 6.71929 7.06357 6.89358
#
# Compressibility (1/GPa) = 0.01987390
#
# Stress axis : x y z
#
# Youngs Moduli (GPa) = 99.45590 99.45690 55.70826
#
# Poissons Ratio (x) = 0.28682 0.17295
# Poissons Ratio (y) = 0.28681 0.17295
# Poissons Ratio (z) = 0.30878 0.30877
#
# Static dielectric constant tensor:
#      x y z
#    x 4.004970 0.000000 0.000000 
#    y 0.000000 4.004970 0.000000 
#    z 0.000000 0.000000 3.733120 
# 
# 
# High freq. dielectric constant tensor:
#      x y z
#    x 1.838080 0.000000 0.000000 
#    y 0.000000 1.838080 0.000000 
#    z 0.000000 0.000000 1.805060 
# 
# From -- ./inp_files/4497.got.cif
#   From: 2010.03.12/outbox.cif.g09.slc.cpg/sg92_3_cif.got.tgz:4497.got - 2010.04.08 20:41:11.
