data_PCOD8305243
_publ_section_title
;
Structure prediction by ZEFSAII (Michael W. Deem and Ramdas Pophale) SiO2 
 PCOD8305243
Probable space group: P 41 21 2
;
_chemical_formula_sum "Si O2"
_cell_formula_units_Z 40
_cell_length_a 14.330312
_cell_length_b 14.330312
_cell_length_c 8.326372
_cell_angle_alpha 90.000000
_cell_angle_beta 90.000000
_cell_angle_gamma 90.000000
_cell_volume 1709.885786
_symmetry_space_group_name_H-M "P 41 21 2"
_symmetry_group_IT_number 92
_symmetry_cell_setting 'tetragonal'
loop_
_space_group_symop_operation_xyz
x,y,z
1/2-y,1/2+x,1/4+z
-x,-y,1/2+z
1/2+y,1/2-x,3/4+z
1/2+x,1/2-y,3/4-z
1/2-x,1/2+y,1/4-z
y,x,-z
-y,-x,1/2-z
loop_
_atom_site_type_symbol
_atom_site_label
_atom_site_fract_x
_atom_site_fract_y
_atom_site_fract_z
Si Si1 0.241932 0.023693 0.589121
Si Si2 0.775841 0.571414 0.706880
Si Si3 0.934211 0.068152 0.560047
Si Si4 0.156242 0.686958 0.774159
Si Si5 0.231767 0.621330 0.314488
O O1 0.289070 0.089174 0.451804
O O2 0.239366 0.076267 0.762727
O O3 0.138138 0.006638 0.524560
O O4 0.292739 0.921971 0.591030
O O5 0.668630 0.593964 0.748406
O O6 0.817291 0.636161 0.565577
O O7 0.786254 0.459880 0.681680
O O8 0.833747 0.598674 0.863149
O O9 0.931479 0.068522 0.750000
O O10 0.965062 0.965062 0.500000
O O11 0.228729 0.771272 0.750000
O O12 0.314143 0.685858 0.250000
#
# Coordination Sequence:
#
# PCOD8305243 Si02
#       5
#     8   8   8   8   8
#     4  10  23  42  71 101 140 193 242 295 373 433
#     4  10  22  42  71  98 142 186 235 303 358 419
#     4  12  27  42  68 108 143 185 243 299 364 434
#     4  10  19  41  72  95 137 184 236 301 352 436
#     4  10  22  42  76 103 144 194 246 306 366 432
#
# _framework density 23.393374000000001
#
# number of rings (size 3 to 8) (size 9 to 14) (size 15 to 20)
#    0.000    1.600    2.000    1.800    8.400    0.000 
#    0.000    0.000   66.000    0.000    0.000    0.000 
#    0.000    0.000    0.000    0.000    0.000    0.000 
#
# Total GULP energy -495564.564519 kJ/mol
# GULP energy per Si atom -12389.114113 kJ/mol
# Density = 2.334013 g / cm^3
# Si number density = 23.393374 Si / 1000 Ang^3
#
#
#
# Elastic Constant Matrix: (Units=GPa)
#
#
# Indices 1 2 3 4 5 6 
#
# 1 -91.8416 346.1304 30.2091 0.0000 0.0000 0.0000
# 2 346.1304 -91.8609 30.2091 0.0000 0.0000 0.0000
# 3 30.2091 30.2091 54.0056 0.0000 0.0000 0.0000
# 4 0.0000 0.0000 0.0000 7.2955 0.0000 0.0000
# 5 0.0000 0.0000 0.0000 0.0000 7.2993 0.0000
# 6 0.0000 0.0000 0.0000 0.0000 0.0000 41.1652
#
#
#
# Elastic Compliance Matrix: (Units=1/GPa)
#
#
# Indices 1 2 3 4 5 6 
#
# 1 0.001126 0.003409 -0.002537 0.000000 0.000000 0.000000
# 2 0.003409 0.001126 -0.002537 0.000000 0.000000 0.000000
# 3 -0.002537 -0.002537 0.021355 0.000000 0.000000 0.000000
# 4 0.000000 0.000000 0.000000 0.137070 0.000000 0.000000
# 5 0.000000 0.000000 0.000000 0.000000 0.137000 0.000000
# 6 0.000000 0.000000 0.000000 0.000000 0.000000 0.024292
#
#
# Mechanical properties :
#
#
# Convention : Reuss Voigt Hill
#
# Bulk Modulus (GPa) = 49.31506 75.93335 62.62421
# Shear Modulus (GPa) = 15.05759 -24.59769 -4.77005
#
# Velocity S-wave (km/s) = 2.53982 -3.24617 -1.42951
# Velocity P-wave (km/s) = 5.45229 4.29879 4.90953
#
# Compressibility (1/GPa) = 0.02027778
#
# Stress axis : x y z
#
# Youngs Moduli (GPa) = 887.90452 888.06233 46.82775
#
# Poissons Ratio (x) = -3.02771 0.11881
# Poissons Ratio (y) = -3.02718 0.11880
# Poissons Ratio (z) = 2.25268 2.25298
#
# Static dielectric constant tensor:
#      x y z
#    x 4.944200 0.000000 0.000000 
#    y 0.000000 4.944180 0.000000 
#    z 0.000000 0.000000 3.915380 
# 
# 
# High freq. dielectric constant tensor:
#      x y z
#    x 1.935740 0.000000 0.000000 
#    y 0.000000 1.935740 0.000000 
#    z 0.000000 0.000000 1.895360 
# 
# From -- ./inp_files/1288.got.cif
#   From: 2010.03.12/outbox.cif.g09.slc.cpg/sg92_1_cif.got.tgz:1288.got - 2010.04.08 20:41:11.
