data_PCOD8305625
_publ_section_title
;
Structure prediction by ZEFSAII (Michael W. Deem and Ramdas Pophale) SiO2 
 PCOD8305625
Probable space group: P 42 21 2
;
_chemical_formula_sum "Si O2"
_cell_formula_units_Z 56
_cell_length_a 12.147690
_cell_length_b 12.147690
_cell_length_c 19.983841
_cell_angle_alpha 90.000000
_cell_angle_beta 90.000000
_cell_angle_gamma 90.000000
_cell_volume 2948.942922
_symmetry_space_group_name_H-M "P 42 21 2"
_symmetry_group_IT_number 94
_symmetry_cell_setting 'tetragonal'
loop_
_space_group_symop_operation_xyz
x,y,z
1/2-y,1/2+x,1/2+z
-x,-y,z
1/2+y,1/2-x,1/2+z
1/2+x,1/2-y,1/2-z
1/2-x,1/2+y,1/2-z
y,x,-z
-y,-x,-z
loop_
_atom_site_type_symbol
_atom_site_label
_atom_site_fract_x
_atom_site_fract_y
_atom_site_fract_z
Si Si1 0.651087 0.836445 0.994811
Si Si2 0.038196 0.879805 0.206097
Si Si3 0.665802 0.489814 0.977147
Si Si4 0.325497 0.112450 0.141778
Si Si5 0.124457 0.278994 0.149275
Si Si6 0.297311 0.884649 0.217142
Si Si7 0.525153 0.265989 0.166993
O O1 0.663922 0.894275 0.923081
O O2 0.739227 0.739227 0.000000
O O3 0.527978 0.784596 0.995484
O O4 0.662411 0.913770 0.061276
O O5 0.167979 0.864132 0.212998
O O6 0.991679 0.783103 0.158630
O O7 0.981151 0.859530 0.277051
O O8 0.000000 0.000000 0.179745
O O9 0.662802 0.488654 0.898174
O O10 0.574195 0.574195 0.000000
O O11 0.633841 0.366160 0.000000
O O12 0.218634 0.187002 0.151447
O O13 0.429613 0.175444 0.171941
O O14 0.319479 0.004423 0.186822
O O15 0.153993 0.369747 0.206864
O O16 0.357374 0.795142 0.170462
#
# Coordination Sequence:
#
# PCOD8305625 Si02
#       7
#     8   8   8   8   8   8   8
#     4   8  17  33  57  79 113 154 195 240 289 359
#     4  11  22  35  57  85 119 151 201 252 300 351
#     4   9  18  32  56  87 113 145 193 240 294 354
#     4  10  18  38  60  81 115 160 200 243 310 373
#     4  10  20  37  57  90 116 152 206 253 297 363
#     4  11  22  36  60  85 120 156 196 253 307 356
#     4  10  22  37  55  86 120 154 193 244 308 368
#
# _framework density 18.989854999999999
#
# number of rings (size 3 to 8) (size 9 to 14) (size 15 to 20)
#    0.000    2.143    2.857    1.286    2.000    0.000 
#    0.000    2.143    0.000   12.000    0.000    0.000 
#    0.000    0.000    0.000    0.000    0.000    0.000 
#
# Total GULP energy -693821.827141 kJ/mol
# GULP energy per Si atom -12389.675485 kJ/mol
# Density = 1.894663 g / cm^3
# Si number density = 18.989855 Si / 1000 Ang^3
#
#
#
# Elastic Constant Matrix: (Units=GPa)
#
#
# Indices 1 2 3 4 5 6 
#
# 1 66.2783 27.7131 32.4814 0.0000 0.0000 0.0000
# 2 27.7131 66.2796 32.4813 0.0000 0.0000 0.0000
# 3 32.4814 32.4813 133.7670 0.0000 0.0000 0.0000
# 4 0.0000 0.0000 0.0000 23.1480 0.0000 0.0000
# 5 0.0000 0.0000 0.0000 0.0000 23.1481 0.0000
# 6 0.0000 0.0000 0.0000 0.0000 0.0000 32.1451
#
#
#
# Elastic Compliance Matrix: (Units=1/GPa)
#
#
# Indices 1 2 3 4 5 6 
#
# 1 0.019357 -0.006572 -0.003104 0.000000 0.000000 0.000000
# 2 -0.006572 0.019357 -0.003104 0.000000 0.000000 0.000000
# 3 -0.003104 -0.003104 0.008983 0.000000 0.000000 0.000000
# 4 0.000000 0.000000 0.000000 0.043200 0.000000 0.000000
# 5 0.000000 0.000000 0.000000 0.000000 0.043200 0.000000
# 6 0.000000 0.000000 0.000000 0.000000 0.000000 0.031109
#
#
# Mechanical properties :
#
#
# Convention : Reuss Voigt Hill
#
# Bulk Modulus (GPa) = 45.17672 50.18627 47.68150
# Shear Modulus (GPa) = 25.23367 27.26486 26.24926
#
# Velocity S-wave (km/s) = 3.64922 3.79325 3.72193
# Velocity P-wave (km/s) = 6.44960 6.75798 6.60559
#
# Compressibility (1/GPa) = 0.02213529
#
# Stress axis : x y z
#
# Youngs Moduli (GPa) = 51.65958 51.66083 111.31751
#
# Poissons Ratio (x) = 0.33954 0.34558
# Poissons Ratio (y) = 0.33953 0.34557
# Poissons Ratio (z) = 0.16038 0.16037
#
# Static dielectric constant tensor:
#      x y z
#    x 3.548260 0.000000 0.000000 
#    y 0.000000 3.548300 0.000000 
#    z 0.000000 0.000000 3.701860 
# 
# 
# High freq. dielectric constant tensor:
#      x y z
#    x 1.728080 0.000000 0.000000 
#    y 0.000000 1.728080 0.000000 
#    z 0.000000 0.000000 1.741400 
# 
# From -- ./inp_files/4729.got.cif
#   From: 2010.03.12/outbox.cif.g09.slc.cpg/sg94_3_cif.got.tgz:4729.got - 2010.04.08 20:48:32.
