data_PCOD8305539
_publ_section_title
;
Structure prediction by ZEFSAII (Michael W. Deem and Ramdas Pophale) SiO2 
 PCOD8305539
Probable space group: P 42 2 2
;
_chemical_formula_sum "Si O2"
_cell_formula_units_Z 38
_cell_length_a 9.037059
_cell_length_b 9.037059
_cell_length_c 22.098859
_cell_angle_alpha 90.000000
_cell_angle_beta 90.000000
_cell_angle_gamma 90.000000
_cell_volume 1804.779238
_symmetry_space_group_name_H-M "P 42 2 2"
_symmetry_group_IT_number 93
_symmetry_cell_setting 'tetragonal'
loop_
_space_group_symop_operation_xyz
x,y,z
-y,x,1/2+z
-x,-y,z
y,-x,1/2+z
x,-y,-z
-x,y,-z
y,x,1/2-z
-y,-x,1/2-z
loop_
_atom_site_type_symbol
_atom_site_label
_atom_site_fract_x
_atom_site_fract_y
_atom_site_fract_z
Si Si1 0.000000 0.500000 0.500000
Si Si2 0.500000 0.703667 0.500000
Si Si3 0.164816 0.051319 0.309223
Si Si4 0.254560 0.573575 0.417441
Si Si5 0.653031 0.758863 0.689279
Si Si6 0.250985 0.354667 0.116123
O O1 0.104170 0.595458 0.455649
O O2 0.389799 0.600322 0.462377
O O3 0.414014 0.802347 0.550020
O O4 0.156218 0.156218 0.250000
O O5 0.223176 0.141974 0.366360
O O6 0.279971 0.919327 0.295626
O O7 0.000000 0.000000 0.325446
O O8 0.244633 0.689890 0.363158
O O9 0.283427 0.413164 0.388560
O O10 0.660205 0.660205 0.750000
O O11 0.483206 0.760586 0.666842
#
# Coordination Sequence:
#
# PCOD8305539 Si02
#       6
#     2   4   8   8   8   8
#     4  12  24  38  68 110 140 182 232 272 364 414
#     4  10  19  46  69 102 139 168 225 300 337 392
#     4  11  25  46  63  94 142 183 218 280 346 417
#     4  11  24  40  72 101 137 176 229 288 337 415
#     4  11  24  44  67 101 134 174 229 286 349 410
#     4  11  23  42  74  96 133 179 227 281 347 403
#
# _framework density 21.055209000000001
#
# number of rings (size 3 to 8) (size 9 to 14) (size 15 to 20)
#    0.000    1.053    4.211    3.789    5.895    0.842 
#    0.000    8.421    0.000    6.316    0.000    0.000 
#    0.000    0.000    0.000    0.000    0.000    0.000 
#
# Total GULP energy -471064.470698 kJ/mol
# GULP energy per Si atom -12396.433439 kJ/mol
# Density = 2.100729 g / cm^3
# Si number density = 21.055209 Si / 1000 Ang^3
#
#
#
# Elastic Constant Matrix: (Units=GPa)
#
#
# Indices 1 2 3 4 5 6 
#
# 1 82.2202 38.6405 47.8623 0.0000 0.0000 0.0000
# 2 38.6405 82.2202 47.8623 0.0000 0.0000 0.0000
# 3 47.8623 47.8623 135.5175 0.0000 0.0000 0.0000
# 4 0.0000 0.0000 0.0000 45.9356 0.0000 0.0000
# 5 0.0000 0.0000 0.0000 0.0000 45.9356 0.0000
# 6 0.0000 0.0000 0.0000 0.0000 0.0000 36.5832
#
#
#
# Elastic Compliance Matrix: (Units=1/GPa)
#
#
# Indices 1 2 3 4 5 6 
#
# 1 0.017217 -0.005730 -0.004057 0.000000 0.000000 0.000000
# 2 -0.005730 0.017217 -0.004057 0.000000 0.000000 0.000000
# 3 -0.004057 -0.004057 0.010245 0.000000 0.000000 0.000000
# 4 0.000000 0.000000 0.000000 0.021770 0.000000 0.000000
# 5 0.000000 0.000000 0.000000 0.000000 0.021770 0.000000
# 6 0.000000 0.000000 0.000000 0.000000 0.000000 0.027335
#
#
# Mechanical properties :
#
#
# Convention : Reuss Voigt Hill
#
# Bulk Modulus (GPa) = 58.85429 63.18755 61.02092
# Shear Modulus (GPa) = 33.57864 36.73040 35.15452
#
# Velocity S-wave (km/s) = 3.99781 4.18123 4.09055
# Velocity P-wave (km/s) = 7.02304 7.30656 7.16620
#
# Compressibility (1/GPa) = 0.01699111
#
# Stress axis : x y z
#
# Youngs Moduli (GPa) = 58.08247 58.08247 97.60938
#
# Poissons Ratio (x) = 0.33279 0.39601
# Poissons Ratio (y) = 0.33279 0.39601
# Poissons Ratio (z) = 0.23565 0.23565
#
# Static dielectric constant tensor:
#      x y z
#    x 3.699600 0.000000 0.000000 
#    y 0.000000 3.699600 0.000000 
#    z 0.000000 0.000000 4.265610 
# 
# 
# High freq. dielectric constant tensor:
#      x y z
#    x 1.816790 0.000000 0.000000 
#    y 0.000000 1.816790 0.000000 
#    z 0.000000 0.000000 1.841650 
# 
# From -- ./inp_files/6755.got.cif
#   From: 2010.03.12/outbox.cif.g09.slc.cpg/sg93_4_cif.got.tgz:6755.got - 2010.04.08 20:44:19.
