data_PCOD8305051
_publ_section_title
;
Structure prediction by ZEFSAII (Michael W. Deem and Ramdas Pophale) SiO2 
 PCOD8305051
Probable space group: P 41 2 2
;
_chemical_formula_sum "Si O2"
_cell_formula_units_Z 48
_cell_length_a 8.198018
_cell_length_b 8.198018
_cell_length_c 30.785107
_cell_angle_alpha 90.000000
_cell_angle_beta 90.000000
_cell_angle_gamma 90.000000
_cell_volume 2068.990052
_symmetry_space_group_name_H-M "P 41 2 2"
_symmetry_group_IT_number 91
_symmetry_cell_setting 'tetragonal'
loop_
_space_group_symop_operation_xyz
x,y,z
-y,x,1/4+z
-x,-y,1/2+z
y,-x,3/4+z
x,-y,1/2-z
-x,y,-z
y,x,3/4-z
-y,-x,1/4-z
loop_
_atom_site_type_symbol
_atom_site_label
_atom_site_fract_x
_atom_site_fract_y
_atom_site_fract_z
Si Si1 0.308471 0.911265 0.561215
Si Si2 0.409919 0.409919 0.375000
Si Si3 0.227456 0.672427 0.038507
Si Si4 0.122639 0.500000 0.250000
Si Si5 0.229006 0.406351 0.645159
Si Si6 0.162910 0.033289 0.159452
Si Si7 0.668779 0.684993 0.237676
O O1 0.400116 0.815195 0.600344
O O2 0.238402 0.784514 0.525063
O O3 0.461141 0.010727 0.541322
O O4 0.164428 0.025250 0.578141
O O5 0.336634 0.326290 0.333034
O O6 0.380875 0.601541 0.370474
O O7 0.335362 0.775100 0.005288
O O8 0.057521 0.767683 0.047372
O O9 0.203114 0.493092 0.017362
O O10 0.234904 0.317494 0.692125
O O11 0.102117 0.322292 0.613566
O O12 0.090255 0.909746 0.125000
O O13 0.615044 0.500000 0.250000
#
# Coordination Sequence:
#
# PCOD8305051 Si02
#       7
#     8   4   8   4   8   8   8
#     4  11  24  43  68 100 142 185 229 294 367 415
#     4  10  22  42  76  96 130 182 244 280 326 430
#     4  11  23  41  71 103 135 179 242 288 345 429
#     4  12  22  42  72  92 136 184 228 290 342 432
#     4  10  22  43  71  99 133 187 234 278 352 429
#     4  12  27  43  67 108 147 180 224 300 368 415
#     4   9  19  43  71  97 129 184 240 288 339 426
#
# _framework density 23.199724
#
# number of rings (size 3 to 8) (size 9 to 14) (size 15 to 20)
#    0.000    1.333    4.167    2.000    5.833    0.667 
#    0.000    0.000    7.333    0.000    0.000    0.000 
#    0.000    0.000    0.000    0.000    0.000    0.000 
#
# Total GULP energy -595152.018931 kJ/mol
# GULP energy per Si atom -12399.000394 kJ/mol
# Density = 2.314692 g / cm^3
# Si number density = 23.199724 Si / 1000 Ang^3
#
#
#
# Elastic Constant Matrix: (Units=GPa)
#
#
# Indices 1 2 3 4 5 6 
#
# 1 110.7858 11.1680 15.9373 0.0000 0.0000 0.0000
# 2 11.1680 110.7832 15.9376 0.0000 0.0000 0.0000
# 3 15.9373 15.9376 50.2602 0.0000 0.0000 0.0000
# 4 0.0000 0.0000 0.0000 40.2136 0.0000 0.0000
# 5 0.0000 0.0000 0.0000 0.0000 40.2128 0.0000
# 6 0.0000 0.0000 0.0000 0.0000 0.0000 46.2497
#
#
#
# Elastic Compliance Matrix: (Units=1/GPa)
#
#
# Indices 1 2 3 4 5 6 
#
# 1 0.009490 -0.000549 -0.002835 0.000000 0.000000 0.000000
# 2 -0.000549 0.009490 -0.002835 0.000000 0.000000 0.000000
# 3 -0.002835 -0.002835 0.021695 0.000000 0.000000 0.000000
# 4 0.000000 0.000000 0.000000 0.024867 0.000000 0.000000
# 5 0.000000 0.000000 0.000000 0.000000 0.024868 0.000000
# 6 0.000000 0.000000 0.000000 0.000000 0.000000 0.021622
#
#
# Mechanical properties :
#
#
# Convention : Reuss Voigt Hill
#
# Bulk Modulus (GPa) = 35.41612 39.76835 37.59223
# Shear Modulus (GPa) = 37.34668 40.58766 38.96717
#
# Velocity S-wave (km/s) = 4.01657 4.18723 4.10279
# Velocity P-wave (km/s) = 6.06707 6.36837 6.21954
#
# Compressibility (1/GPa) = 0.02823573
#
# Stress axis : x y z
#
# Youngs Moduli (GPa) = 105.37855 105.37582 46.09463
#
# Poissons Ratio (x) = 0.05783 0.13068
# Poissons Ratio (y) = 0.05783 0.13069
# Poissons Ratio (z) = 0.29876 0.29877
#
# Static dielectric constant tensor:
#      x y z
#    x 4.058950 0.000000 0.000000 
#    y 0.000000 4.058960 0.000000 
#    z 0.000000 0.000000 4.235930 
# 
# 
# High freq. dielectric constant tensor:
#      x y z
#    x 1.914580 0.000000 0.000000 
#    y 0.000000 1.914580 0.000000 
#    z 0.000000 0.000000 1.915960 
# 
# From -- ./inp_files/22289.got.cif
#   From: 2010.03.12/outbox.cif.g09.slc.cpg/sg91_12_cif.got.tgz:22289.got - 2010.04.08 20:27:58.
