data_PCOD8305525
_publ_section_title
;
Structure prediction by ZEFSAII (Michael W. Deem and Ramdas Pophale) SiO2 
 PCOD8305525
Probable space group: P 42 2 2
;
_chemical_formula_sum "Si O2"
_cell_formula_units_Z 38
_cell_length_a 11.641136
_cell_length_b 11.641136
_cell_length_c 13.130563
_cell_angle_alpha 90.000000
_cell_angle_beta 90.000000
_cell_angle_gamma 90.000000
_cell_volume 1779.401998
_symmetry_space_group_name_H-M "P 42 2 2"
_symmetry_group_IT_number 93
_symmetry_cell_setting 'tetragonal'
loop_
_space_group_symop_operation_xyz
x,y,z
-y,x,1/2+z
-x,-y,z
y,-x,1/2+z
x,-y,-z
-x,y,-z
y,x,1/2-z
-y,-x,1/2-z
loop_
_atom_site_type_symbol
_atom_site_label
_atom_site_fract_x
_atom_site_fract_y
_atom_site_fract_z
Si Si1 0.560057 0.192722 0.643257
Si Si2 0.311191 0.038962 0.103437
Si Si3 0.219332 0.780669 0.750000
Si Si4 0.403960 0.585045 0.129264
Si Si5 0.500000 0.000000 0.500000
Si Si6 0.468031 0.836529 0.132339
O O1 0.688228 0.242212 0.659764
O O2 0.469392 0.282446 0.593480
O O3 0.576084 0.081084 0.572469
O O4 0.520299 0.163119 0.755517
O O5 0.230511 0.097502 0.189862
O O6 0.421218 0.118647 0.065944
O O7 0.361584 0.921539 0.148352
O O8 0.243198 0.000000 0.000000
O O9 0.500000 0.500000 0.084558
O O10 0.411103 0.588898 0.250000
O O11 0.423730 0.714140 0.088971
#
# Coordination Sequence:
#
# PCOD8305525 Si02
#       6
#     8   8   4   8   2   8
#     4  10  20  35  56  83 120 157 190 240 303 367
#     4  10  19  32  54  82 115 157 204 251 297 358
#     4  10  20  38  61  86 117 158 206 258 312 362
#     4   9  16  30  54  83 114 146 180 225 290 362
#     4  12  24  36  50  84 124 160 204 242 304 378
#     4   9  17  32  53  82 120 158 194 233 292 369
#
# _framework density 21.355488999999999
#
# number of rings (size 3 to 8) (size 9 to 14) (size 15 to 20)
#    0.000    2.316    0.000    7.579    0.000    1.684 
#    0.000    2.632    0.000    0.000    0.000   36.842 
#    0.000    1.684    0.000    0.000    0.000    0.000 
#
# Total GULP energy -470776.564269 kJ/mol
# GULP energy per Si atom -12388.856954 kJ/mol
# Density = 2.130688 g / cm^3
# Si number density = 21.355489 Si / 1000 Ang^3
#
#
#
# Elastic Constant Matrix: (Units=GPa)
#
#
# Indices 1 2 3 4 5 6 
#
# 1 131.7086 55.0280 32.0198 0.0000 0.0000 0.0000
# 2 55.0280 131.7087 32.0201 0.0000 0.0000 0.0000
# 3 32.0198 32.0201 62.4686 0.0000 0.0000 0.0000
# 4 0.0000 0.0000 0.0000 18.3309 0.0000 0.0000
# 5 0.0000 0.0000 0.0000 0.0000 18.3327 0.0000
# 6 0.0000 0.0000 0.0000 0.0000 0.0000 26.1973
#
#
#
# Elastic Compliance Matrix: (Units=1/GPa)
#
#
# Indices 1 2 3 4 5 6 
#
# 1 0.009769 -0.003272 -0.003330 0.000000 0.000000 0.000000
# 2 -0.003272 0.009769 -0.003330 0.000000 0.000000 0.000000
# 3 -0.003330 -0.003330 0.019422 0.000000 0.000000 0.000000
# 4 0.000000 0.000000 0.000000 0.054553 0.000000 0.000000
# 5 0.000000 0.000000 0.000000 0.000000 0.054547 0.000000
# 6 0.000000 0.000000 0.000000 0.000000 0.000000 0.038172
#
#
# Mechanical properties :
#
#
# Convention : Reuss Voigt Hill
#
# Bulk Modulus (GPa) = 52.36890 62.66905 57.51897
# Shear Modulus (GPa) = 23.53354 26.36004 24.94679
#
# Velocity S-wave (km/s) = 3.32322 3.51714 3.42155
# Velocity P-wave (km/s) = 6.26903 6.77518 6.52701
#
# Compressibility (1/GPa) = 0.01909530
#
# Stress axis : x y z
#
# Youngs Moduli (GPa) = 102.36291 102.36275 51.48760
#
# Poissons Ratio (x) = 0.33492 0.17147
# Poissons Ratio (y) = 0.33492 0.17147
# Poissons Ratio (z) = 0.34090 0.34091
#
# Static dielectric constant tensor:
#      x y z
#    x 3.939790 0.000000 0.000000 
#    y 0.000000 3.939770 0.000000 
#    z 0.000000 0.000000 3.991100 
# 
# 
# High freq. dielectric constant tensor:
#      x y z
#    x 1.813010 0.000000 0.000000 
#    y 0.000000 1.813010 0.000000 
#    z 0.000000 0.000000 1.861150 
# 
# From -- ./inp_files/4399.got.cif
#   From: 2010.03.12/outbox.cif.g09.slc.cpg/sg93_3_cif.got.tgz:4399.got - 2010.04.08 20:44:19.
