data_PCOD8305287
_publ_section_title
;
Structure prediction by ZEFSAII (Michael W. Deem and Ramdas Pophale) SiO2 
 PCOD8305287
Probable space group: P 41 21 2
;
_chemical_formula_sum "Si O2"
_cell_formula_units_Z 48
_cell_length_a 9.452898
_cell_length_b 9.452898
_cell_length_c 27.722156
_cell_angle_alpha 90.000000
_cell_angle_beta 90.000000
_cell_angle_gamma 90.000000
_cell_volume 2477.176472
_symmetry_space_group_name_H-M "P 41 21 2"
_symmetry_group_IT_number 92
_symmetry_cell_setting 'tetragonal'
loop_
_space_group_symop_operation_xyz
x,y,z
1/2-y,1/2+x,1/4+z
-x,-y,1/2+z
1/2+y,1/2-x,3/4+z
1/2+x,1/2-y,3/4-z
1/2-x,1/2+y,1/4-z
y,x,-z
-y,-x,1/2-z
loop_
_atom_site_type_symbol
_atom_site_label
_atom_site_fract_x
_atom_site_fract_y
_atom_site_fract_z
Si Si1 0.204963 0.632489 0.913183
Si Si2 0.455658 0.544343 0.250000
Si Si3 0.295584 0.295584 0.500000
Si Si4 0.273274 0.863033 0.395812
Si Si5 0.031871 0.715730 0.000644
Si Si6 0.044778 0.126860 0.897535
Si Si7 0.669576 0.528559 0.095032
O O1 0.214247 0.468932 0.898872
O O2 0.138023 0.630194 0.966343
O O3 0.099677 0.707214 0.875877
O O4 0.361639 0.702889 0.912872
O O5 0.621428 0.568699 0.242597
O O6 0.378085 0.604837 0.202411
O O7 0.344669 0.391994 0.544317
O O8 0.130517 0.319592 0.487287
O O9 0.328481 0.939984 0.444201
O O10 0.363499 0.724234 0.386676
O O11 0.112739 0.811248 0.400934
O O12 0.044465 0.971632 0.875624
#
# Coordination Sequence:
#
# PCOD8305287 Si02
#       7
#     8   4   4   8   8   8   8
#     4  11  22  42  61  94 124 160 206 258 308 368
#     4   9  18  40  65  84 112 168 201 240 313 356
#     4  11  22  40  65  94 120 164 207 256 315 362
#     4  10  23  42  60  90 125 164 202 256 311 359
#     4  10  20  40  66  85 123 159 206 254 301 370
#     4  10  22  42  62  87 126 161 204 252 305 370
#     4  11  23  39  65  93 124 159 203 257 308 369
#
# _framework density 19.376899000000002
#
# number of rings (size 3 to 8) (size 9 to 14) (size 15 to 20)
#    0.000    1.667    3.333    1.000    2.333    2.667 
#    6.000    0.000    0.000    0.000    0.000    0.000 
#    0.000    0.000    0.000    0.000    0.000    0.000 
#
# Total GULP energy -595268.570919 kJ/mol
# GULP energy per Si atom -12401.428561 kJ/mol
# Density = 1.933280 g / cm^3
# Si number density = 19.376899 Si / 1000 Ang^3
#
#
#
# Elastic Constant Matrix: (Units=GPa)
#
#
# Indices 1 2 3 4 5 6 
#
# 1 61.4959 36.5484 37.2823 0.0000 0.0000 0.0000
# 2 36.5484 61.4954 37.2822 0.0000 0.0000 0.0000
# 3 37.2823 37.2822 112.1982 0.0000 0.0000 0.0000
# 4 0.0000 0.0000 0.0000 31.2858 0.0000 0.0000
# 5 0.0000 0.0000 0.0000 0.0000 31.2858 0.0000
# 6 0.0000 0.0000 0.0000 0.0000 0.0000 30.5358
#
#
#
# Elastic Compliance Matrix: (Units=1/GPa)
#
#
# Indices 1 2 3 4 5 6 
#
# 1 0.026867 -0.013218 -0.004535 0.000000 0.000000 0.000000
# 2 -0.013218 0.026867 -0.004535 0.000000 0.000000 0.000000
# 3 -0.004535 -0.004535 0.011927 0.000000 0.000000 0.000000
# 4 0.000000 0.000000 0.000000 0.031963 0.000000 0.000000
# 5 0.000000 0.000000 0.000000 0.000000 0.031963 0.000000
# 6 0.000000 0.000000 0.000000 0.000000 0.000000 0.032748
#
#
# Mechanical properties :
#
#
# Convention : Reuss Voigt Hill
#
# Bulk Modulus (GPa) = 47.43153 50.82390 49.12772
# Shear Modulus (GPa) = 23.37102 26.89325 25.13214
#
# Velocity S-wave (km/s) = 3.47670 3.72950 3.60532
# Velocity P-wave (km/s) = 6.37559 6.69564 6.53757
#
# Compressibility (1/GPa) = 0.02108302
#
# Stress axis : x y z
#
# Youngs Moduli (GPa) = 37.22106 37.22074 83.84435
#
# Poissons Ratio (x) = 0.49198 0.38026
# Poissons Ratio (y) = 0.49199 0.38026
# Poissons Ratio (z) = 0.16881 0.16881
#
# Static dielectric constant tensor:
#      x y z
#    x 3.461230 0.000000 0.000000 
#    y 0.000000 3.461240 0.000000 
#    z 0.000000 0.000000 3.742040 
# 
# 
# High freq. dielectric constant tensor:
#      x y z
#    x 1.745020 0.000000 0.000000 
#    y 0.000000 1.745020 0.000000 
#    z 0.000000 0.000000 1.769810 
# 
# From -- ./inp_files/4533.got.cif
#   From: 2010.03.12/outbox.cif.g09.slc.cpg/sg92_3_cif.got.tgz:4533.got - 2010.04.08 20:41:11.
