data_PCOD8305707
_publ_section_title
;
Structure prediction by ZEFSAII (Michael W. Deem and Ramdas Pophale) SiO2 
 PCOD8305707
Probable space group: P 42 21 2
;
_chemical_formula_sum "Si O2"
_cell_formula_units_Z 40
_cell_length_a 12.303126
_cell_length_b 12.303126
_cell_length_c 12.563567
_cell_angle_alpha 90.000000
_cell_angle_beta 90.000000
_cell_angle_gamma 90.000000
_cell_volume 1901.708307
_symmetry_space_group_name_H-M "P 42 21 2"
_symmetry_group_IT_number 94
_symmetry_cell_setting 'tetragonal'
loop_
_space_group_symop_operation_xyz
x,y,z
1/2-y,1/2+x,1/2+z
-x,-y,z
1/2+y,1/2-x,1/2+z
1/2+x,1/2-y,1/2-z
1/2-x,1/2+y,1/2-z
y,x,-z
-y,-x,-z
loop_
_atom_site_type_symbol
_atom_site_label
_atom_site_fract_x
_atom_site_fract_y
_atom_site_fract_z
Si Si1 0.209916 0.243290 0.747331
Si Si2 0.310644 0.391585 0.106950
Si Si3 0.272938 0.875777 0.068367
Si Si4 0.617904 0.483482 0.305770
Si Si5 0.553441 0.114059 0.892249
O O1 0.270206 0.285516 0.852337
O O2 0.295603 0.194496 0.663674
O O3 0.133657 0.339069 0.698932
O O4 0.142117 0.137448 0.780561
O O5 0.383733 0.449125 0.196075
O O6 0.200650 0.458841 0.084926
O O7 0.381566 0.381566 0.000000
O O8 0.216636 0.982548 0.116768
O O9 0.181669 0.818332 0.000000
O O10 0.379016 0.906890 0.000736
O O11 0.500000 0.500000 0.360080
O O12 0.500000 0.000000 0.854851
#
# Coordination Sequence:
#
# PCOD8305707 Si02
#       5
#     8   8   8   8   8
#     4   9  21  42  59  87 130 160 211 275 319 392
#     4  10  23  40  60  95 122 168 221 262 323 399
#     4   9  20  40  61  86 125 163 205 263 322 386
#     4  10  22  39  61  91 122 168 208 261 332 377
#     4  10  22  41  66  94 124 171 217 269 339 394
#
# _framework density 21.033719999999999
#
# number of rings (size 3 to 8) (size 9 to 14) (size 15 to 20)
#    0.000    2.400    0.000    0.000    5.600    5.600 
#    7.200    0.000    0.000    0.000    0.000    0.000 
#    0.000    0.000    0.000    0.000    0.000    0.000 
#
# Total GULP energy -495959.311824 kJ/mol
# GULP energy per Si atom -12398.982796 kJ/mol
# Density = 2.098585 g / cm^3
# Si number density = 21.033720 Si / 1000 Ang^3
#
#
#
# Elastic Constant Matrix: (Units=GPa)
#
#
# Indices 1 2 3 4 5 6 
#
# 1 99.7493 43.6735 20.2424 0.0000 0.0000 0.0000
# 2 43.6735 99.7491 20.2424 0.0000 0.0000 0.0000
# 3 20.2424 20.2424 76.1070 0.0000 0.0000 0.0000
# 4 0.0000 0.0000 0.0000 22.9626 0.0000 0.0000
# 5 0.0000 0.0000 0.0000 0.0000 22.9622 0.0000
# 6 0.0000 0.0000 0.0000 0.0000 0.0000 23.1254
#
#
#
# Elastic Compliance Matrix: (Units=1/GPa)
#
#
# Indices 1 2 3 4 5 6 
#
# 1 0.012686 -0.005147 -0.002005 0.000000 0.000000 0.000000
# 2 -0.005147 0.012686 -0.002005 0.000000 0.000000 0.000000
# 3 -0.002005 -0.002005 0.014206 0.000000 0.000000 0.000000
# 4 0.000000 0.000000 0.000000 0.043549 0.000000 0.000000
# 5 0.000000 0.000000 0.000000 0.000000 0.043550 0.000000
# 6 0.000000 0.000000 0.000000 0.000000 0.000000 0.043243
#
#
# Mechanical properties :
#
#
# Convention : Reuss Voigt Hill
#
# Bulk Modulus (GPa) = 47.03078 49.32467 48.17773
# Shear Modulus (GPa) = 25.59888 26.57318 26.08603
#
# Velocity S-wave (km/s) = 3.49240 3.55823 3.52547
# Velocity P-wave (km/s) = 6.21858 6.35473 6.28702
#
# Compressibility (1/GPa) = 0.02126267
#
# Stress axis : x y z
#
# Youngs Moduli (GPa) = 78.82897 78.82887 70.39305
#
# Poissons Ratio (x) = 0.40576 0.14114
# Poissons Ratio (y) = 0.40576 0.14114
# Poissons Ratio (z) = 0.15805 0.15805
#
# Static dielectric constant tensor:
#      x y z
#    x 3.740690 0.000000 0.000000 
#    y 0.000000 3.740690 0.000000 
#    z 0.000000 0.000000 3.946380 
# 
# 
# High freq. dielectric constant tensor:
#      x y z
#    x 1.821050 0.000000 0.000000 
#    y 0.000000 1.821050 0.000000 
#    z 0.000000 0.000000 1.822290 
# 
# From -- ./inp_files/3362.got.cif
#   From: 2010.03.12/outbox.cif.g09.slc.cpg/sg94_2_cif.got.tgz:3362.got - 2010.04.08 20:48:32.
