data_PCOD8305743
_publ_section_title
;
Structure prediction by ZEFSAII (Michael W. Deem and Ramdas Pophale) SiO2 
 PCOD8305743
Probable space group: P 42 21 2
;
_chemical_formula_sum "Si O2"
_cell_formula_units_Z 54
_cell_length_a 14.319514
_cell_length_b 14.319514
_cell_length_c 12.140685
_cell_angle_alpha 90.000000
_cell_angle_beta 90.000000
_cell_angle_gamma 90.000000
_cell_volume 2489.429020
_symmetry_space_group_name_H-M "P 42 21 2"
_symmetry_group_IT_number 94
_symmetry_cell_setting 'tetragonal'
loop_
_space_group_symop_operation_xyz
x,y,z
1/2-y,1/2+x,1/2+z
-x,-y,z
1/2+y,1/2-x,1/2+z
1/2+x,1/2-y,1/2-z
1/2-x,1/2+y,1/2-z
y,x,-z
-y,-x,-z
loop_
_atom_site_type_symbol
_atom_site_label
_atom_site_fract_x
_atom_site_fract_y
_atom_site_fract_z
Si Si1 0.814858 0.536625 0.367304
Si Si2 0.500000 0.500000 0.500000
Si Si3 0.268815 0.265638 0.692090
Si Si4 0.697127 0.436180 0.775883
Si Si5 0.000000 0.500000 0.741586
Si Si6 0.491929 0.629936 0.699692
Si Si7 0.619222 0.658675 0.126695
Si Si8 0.452294 0.179026 0.383663
O O1 0.751779 0.629200 0.356841
O O2 0.741099 0.463197 0.312182
O O3 0.833843 0.512690 0.492943
O O4 0.916279 0.545662 0.312137
O O5 0.513040 0.591797 0.576788
O O6 0.217961 0.166743 0.678944
O O7 0.273488 0.301625 0.819843
O O8 0.220766 0.347681 0.621236
O O9 0.591452 0.435678 0.737658
O O10 0.707948 0.516713 0.869480
O O11 0.760179 0.467130 0.673405
O O12 0.077236 0.449347 0.669457
O O13 0.569028 0.616739 0.794659
O O14 0.640337 0.640337 0.000000
#
# Coordination Sequence:
#
# PCOD8305743 Si02
#       8
#     8   2   8   8   4   8   8   8
#     4  11  24  44  68  96 134 174 228 281 339 409
#     4  12  20  40  66 104 132 172 224 282 344 400
#     4  10  23  45  65  98 130 173 232 270 333 413
#     4  11  21  45  64  99 129 171 229 273 337 417
#     4  12  24  48  62 100 134 178 230 278 348 410
#     4  11  23  39  69  98 130 173 220 276 341 407
#     4  10  23  45  65  96 141 175 213 287 346 407
#     4  11  24  44  70  93 138 178 223 288 336 407
#
# _framework density 21.691721999999999
#
# number of rings (size 3 to 8) (size 9 to 14) (size 15 to 20)
#    0.000    1.185    2.963    2.667    4.148    1.185 
#   20.000    0.000    0.000    0.000    0.000    0.000 
#    0.000    0.000    0.000    0.000    0.000    0.000 
#
# Total GULP energy -669107.010824 kJ/mol
# GULP energy per Si atom -12390.870571 kJ/mol
# Density = 2.164235 g / cm^3
# Si number density = 21.691722 Si / 1000 Ang^3
#
#
#
# Elastic Constant Matrix: (Units=GPa)
#
#
# Indices 1 2 3 4 5 6 
#
# 1 88.3466 22.1924 13.4726 0.0000 0.0000 0.0000
# 2 22.1924 88.3466 13.4726 0.0000 0.0000 0.0000
# 3 13.4726 13.4726 109.9462 0.0000 0.0000 0.0000
# 4 0.0000 0.0000 0.0000 12.5043 0.0000 0.0000
# 5 0.0000 0.0000 0.0000 0.0000 12.5043 0.0000
# 6 0.0000 0.0000 0.0000 0.0000 0.0000 38.9011
#
#
#
# Elastic Compliance Matrix: (Units=1/GPa)
#
#
# Indices 1 2 3 4 5 6 
#
# 1 0.012221 -0.002896 -0.001143 0.000000 0.000000 0.000000
# 2 -0.002896 0.012221 -0.001143 0.000000 0.000000 0.000000
# 3 -0.001143 -0.001143 0.009375 0.000000 0.000000 0.000000
# 4 0.000000 0.000000 0.000000 0.079972 0.000000 0.000000
# 5 0.000000 0.000000 0.000000 0.000000 0.079972 0.000000
# 6 0.000000 0.000000 0.000000 0.000000 0.000000 0.025706
#
#
# Mechanical properties :
#
#
# Convention : Reuss Voigt Hill
#
# Bulk Modulus (GPa) = 42.63496 42.76827 42.70162
# Shear Modulus (GPa) = 21.03953 28.61541 24.82747
#
# Velocity S-wave (km/s) = 3.11775 3.63600 3.38680
# Velocity P-wave (km/s) = 5.71473 6.11445 5.91797
#
# Compressibility (1/GPa) = 0.02345493
#
# Stress axis : x y z
#
# Youngs Moduli (GPa) = 81.82863 81.82863 106.66211
#
# Poissons Ratio (x) = 0.23694 0.12188
# Poissons Ratio (y) = 0.23694 0.12188
# Poissons Ratio (z) = 0.09350 0.09350
#
# Static dielectric constant tensor:
#      x y z
#    x 4.137400 0.000000 0.000000 
#    y 0.000000 4.137400 0.000000 
#    z 0.000000 0.000000 3.696420 
# 
# 
# High freq. dielectric constant tensor:
#      x y z
#    x 1.861740 0.000000 0.000000 
#    y 0.000000 1.861740 0.000000 
#    z 0.000000 0.000000 1.836610 
# 
# From -- ./inp_files/2749.got.cif
#   From: 2010.03.12/outbox.cif.g09.slc.cpg/sg94_2_cif.got.tgz:2749.got - 2010.04.08 20:48:32.
