data_PCOD8305550
_publ_section_title
;
Structure prediction by ZEFSAII (Michael W. Deem and Ramdas Pophale) SiO2 
 PCOD8305550
Probable space group: P 42 2 2
;
_chemical_formula_sum "Si O2"
_cell_formula_units_Z 38
_cell_length_a 11.826494
_cell_length_b 11.826494
_cell_length_c 12.984952
_cell_angle_alpha 90.000000
_cell_angle_beta 90.000000
_cell_angle_gamma 90.000000
_cell_volume 1816.152781
_symmetry_space_group_name_H-M "P 42 2 2"
_symmetry_group_IT_number 93
_symmetry_cell_setting 'tetragonal'
loop_
_space_group_symop_operation_xyz
x,y,z
-y,x,1/2+z
-x,-y,z
y,-x,1/2+z
x,-y,-z
-x,y,-z
y,x,1/2-z
-y,-x,1/2-z
loop_
_atom_site_type_symbol
_atom_site_label
_atom_site_fract_x
_atom_site_fract_y
_atom_site_fract_z
Si Si1 0.875079 0.706066 0.708230
Si Si2 0.515083 0.159555 0.668011
Si Si3 0.134843 0.715902 0.682684
Si Si4 0.622443 0.246571 0.010858
Si Si5 0.500000 0.000000 0.500000
Si Si6 0.664173 0.500000 0.000000
O O1 0.823931 0.823931 0.750000
O O2 0.886522 0.606424 0.793021
O O3 0.786519 0.669398 0.621549
O O4 0.000802 0.729066 0.665217
O O5 0.599606 0.170339 0.762163
O O6 0.493594 0.275487 0.610409
O O7 0.570980 0.079165 0.578489
O O8 0.178458 0.821543 0.750000
O O9 0.198401 0.711198 0.573170
O O10 0.598877 0.381000 0.998299
O O11 0.500000 0.186999 0.000000
#
# Coordination Sequence:
#
# PCOD8305550 Si02
#       6
#     8   8   8   8   2   4
#     4  12  25  44  67  97 136 180 229 283 338 402
#     4  11  21  40  69  92 123 173 233 282 323 391
#     4  12  25  44  67  97 136 180 229 283 338 402
#     4  12  25  41  68 102 140 176 222 274 352 422
#     4  10  20  36  66  98 108 156 242 280 314 368
#     4  11  23  41  65 102 132 172 216 281 343 406
#
# _framework density 20.923348000000001
#
# number of rings (size 3 to 8) (size 9 to 14) (size 15 to 20)
#    0.000    0.421    8.421    0.947    0.000    1.263 
#    0.000    0.000    0.000    2.526    0.000    0.000 
#    0.000    0.000    0.000    0.000    0.000    0.000 
#
# Total GULP energy -470807.872163 kJ/mol
# GULP energy per Si atom -12389.680846 kJ/mol
# Density = 2.087573 g / cm^3
# Si number density = 20.923348 Si / 1000 Ang^3
#
#
#
# Elastic Constant Matrix: (Units=GPa)
#
#
# Indices 1 2 3 4 5 6 
#
# 1 117.5226 19.6895 27.0675 0.0000 0.0000 0.0000
# 2 19.6895 117.5219 27.0678 0.0000 0.0000 0.0000
# 3 27.0675 27.0678 95.1145 0.0000 0.0000 0.0000
# 4 0.0000 0.0000 0.0000 25.4720 0.0000 0.0000
# 5 0.0000 0.0000 0.0000 0.0000 25.4724 0.0000
# 6 0.0000 0.0000 0.0000 0.0000 0.0000 17.4529
#
#
#
# Elastic Compliance Matrix: (Units=1/GPa)
#
#
# Indices 1 2 3 4 5 6 
#
# 1 0.009216 -0.001006 -0.002336 0.000000 0.000000 0.000000
# 2 -0.001006 0.009216 -0.002336 0.000000 0.000000 0.000000
# 3 -0.002336 -0.002336 0.011843 0.000000 0.000000 0.000000
# 4 0.000000 0.000000 0.000000 0.039259 0.000000 0.000000
# 5 0.000000 0.000000 0.000000 0.000000 0.039258 0.000000
# 6 0.000000 0.000000 0.000000 0.000000 0.000000 0.057297
#
#
# Mechanical properties :
#
#
# Convention : Reuss Voigt Hill
#
# Bulk Modulus (GPa) = 52.86080 53.08983 52.97532
# Shear Modulus (GPa) = 27.21061 30.76839 28.98950
#
# Velocity S-wave (km/s) = 3.61014 3.83891 3.72628
# Velocity P-wave (km/s) = 6.53425 6.71403 6.62475
#
# Compressibility (1/GPa) = 0.01891761
#
# Stress axis : x y z
#
# Youngs Moduli (GPa) = 108.51140 108.51058 84.43525
#
# Poissons Ratio (x) = 0.10915 0.19727
# Poissons Ratio (y) = 0.10915 0.19727
# Poissons Ratio (z) = 0.25352 0.25352
#
# Static dielectric constant tensor:
#      x y z
#    x 3.695820 0.000000 0.000000 
#    y 0.000000 3.695830 0.000000 
#    z 0.000000 0.000000 3.866200 
# 
# 
# High freq. dielectric constant tensor:
#      x y z
#    x 1.808070 0.000000 0.000000 
#    y 0.000000 1.808070 0.000000 
#    z 0.000000 0.000000 1.833780 
# 
# From -- ./inp_files/4381.got.cif
#   From: 2010.03.12/outbox.cif.g09.slc.cpg/sg93_3_cif.got.tgz:4381.got - 2010.04.08 20:44:19.
