data_PCOD8305111
_publ_section_title
;
Structure prediction by ZEFSAII (Michael W. Deem and Ramdas Pophale) SiO2 
 PCOD8305111
Probable space group: P 41 2 2
;
_chemical_formula_sum "Si O2"
_cell_formula_units_Z 56
_cell_length_a 20.733369
_cell_length_b 20.733369
_cell_length_c 10.311287
_cell_angle_alpha 90.000000
_cell_angle_beta 90.000000
_cell_angle_gamma 90.000000
_cell_volume 4432.539650
_symmetry_space_group_name_H-M "P 41 2 2"
_symmetry_group_IT_number 91
_symmetry_cell_setting 'tetragonal'
loop_
_space_group_symop_operation_xyz
x,y,z
-y,x,1/4+z
-x,-y,1/2+z
y,-x,3/4+z
x,-y,1/2-z
-x,y,-z
y,x,3/4-z
-y,-x,1/4-z
loop_
_atom_site_type_symbol
_atom_site_label
_atom_site_fract_x
_atom_site_fract_y
_atom_site_fract_z
Si Si1 0.009094 0.890209 0.143107
Si Si2 0.551581 0.077316 0.897890
Si Si3 0.547987 0.076437 0.608204
Si Si4 0.127739 0.187852 0.256240
Si Si5 0.830886 0.881670 0.509184
Si Si6 0.926370 0.303361 0.349041
Si Si7 0.923886 0.690214 0.853241
O O1 0.035101 0.964900 0.125000
O O2 0.062416 0.852551 0.224072
O O3 0.941979 0.880066 0.218614
O O4 0.000000 0.858922 0.000000
O O5 0.529433 0.099400 0.753593
O O6 0.624554 0.101671 0.932288
O O7 0.550261 0.000383 0.899850
O O8 0.500000 0.106188 0.000000
O O9 0.500000 0.105444 0.500000
O O10 0.619004 0.103451 0.577793
O O11 0.175638 0.175638 0.375000
O O12 0.159010 0.170967 0.120129
O O13 0.113300 0.263659 0.254171
O O14 0.848374 0.848374 0.375000
O O15 0.754588 0.898928 0.510017
O O16 0.912293 0.287149 0.498908
O O17 0.001446 0.305737 0.319847
#
# Coordination Sequence:
#
# PCOD8305111 Si02
#       7
#     8   8   8   8   8   8   8
#     4  11  20  34  48  55  63  92 127 161 203 247
#     4   8  14  25  42  60  78 101 118 133 178 234
#     4   8  14  24  39  63  82  92 112 149 175 217
#     4  11  19  32  50  56  68  98 129 161 194 246
#     4  12  24  35  43  59  80  91 125 173 210 242
#     4   9  16  29  47  58  75 100 124 153 185 241
#     4   9  15  27  49  60  69  99 131 145 187 240
#
# _framework density 12.633839999999999
#
# number of rings (size 3 to 8) (size 9 to 14) (size 15 to 20)
#    0.000    2.286    5.714    1.714    0.000    1.143 
#    2.571    0.000    0.000    0.000    0.000    0.000 
#    0.000    0.000    0.000    0.000    0.000    0.000 
#
# Total GULP energy -693824.870678 kJ/mol
# GULP energy per Si atom -12389.729834 kJ/mol
# Density = 1.260508 g / cm^3
# Si number density = 12.633840 Si / 1000 Ang^3
#
#
#
# Elastic Constant Matrix: (Units=GPa)
#
#
# Indices 1 2 3 4 5 6 
#
# 1 66.1690 19.5111 37.4934 0.0000 0.0000 0.0000
# 2 19.5111 66.1686 37.4934 0.0000 0.0000 0.0000
# 3 37.4934 37.4934 87.7421 0.0000 0.0000 0.0000
# 4 0.0000 0.0000 0.0000 16.6358 0.0000 0.0000
# 5 0.0000 0.0000 0.0000 0.0000 16.6358 0.0000
# 6 0.0000 0.0000 0.0000 0.0000 0.0000 5.4926
#
#
#
# Elastic Compliance Matrix: (Units=1/GPa)
#
#
# Indices 1 2 3 4 5 6 
#
# 1 0.020038 -0.001394 -0.007967 0.000000 0.000000 0.000000
# 2 -0.001394 0.020038 -0.007967 0.000000 0.000000 0.000000
# 3 -0.007967 -0.007967 0.018206 0.000000 0.000000 0.000000
# 4 0.000000 0.000000 0.000000 0.060111 0.000000 0.000000
# 5 0.000000 0.000000 0.000000 0.000000 0.060111 0.000000
# 6 0.000000 0.000000 0.000000 0.000000 0.000000 0.182063
#
#
# Mechanical properties :
#
#
# Convention : Reuss Voigt Hill
#
# Bulk Modulus (GPa) = 42.32576 45.45283 43.88929
# Shear Modulus (GPa) = 12.40389 16.12496 14.26442
#
# Velocity S-wave (km/s) = 3.13677 3.57645 3.36380
# Velocity P-wave (km/s) = 6.83328 7.28765 7.06412
#
# Compressibility (1/GPa) = 0.02362628
#
# Stress axis : x y z
#
# Youngs Moduli (GPa) = 49.90477 49.90425 54.92797
#
# Poissons Ratio (x) = 0.06959 0.43760
# Poissons Ratio (y) = 0.06959 0.43760
# Poissons Ratio (z) = 0.39758 0.39758
#
# Static dielectric constant tensor:
#      x y z
#    x 2.512620 0.000000 0.000000 
#    y 0.000000 2.512620 0.000000 
#    z 0.000000 0.000000 2.604140 
# 
# 
# High freq. dielectric constant tensor:
#      x y z
#    x 1.447320 0.000000 0.000000 
#    y 0.000000 1.447320 0.000000 
#    z 0.000000 0.000000 1.477360 
# 
# From -- ./inp_files/10130.got.cif
#   From: 2010.03.12/outbox.cif.g09.slc.cpg/sg91_6_cif.got.tgz:10130.got - 2010.04.08 20:27:58.
