data_PCOD8305063
_publ_section_title
;
Structure prediction by ZEFSAII (Michael W. Deem and Ramdas Pophale) SiO2 
 PCOD8305063
Probable space group: P 41 2 2
;
_chemical_formula_sum "Si O2"
_cell_formula_units_Z 48
_cell_length_a 8.598061
_cell_length_b 8.598061
_cell_length_c 28.660891
_cell_angle_alpha 90.000000
_cell_angle_beta 90.000000
_cell_angle_gamma 90.000000
_cell_volume 2118.803742
_symmetry_space_group_name_H-M "P 41 2 2"
_symmetry_group_IT_number 91
_symmetry_cell_setting 'tetragonal'
loop_
_space_group_symop_operation_xyz
x,y,z
-y,x,1/4+z
-x,-y,1/2+z
y,-x,3/4+z
x,-y,1/2-z
-x,y,-z
y,x,3/4-z
-y,-x,1/4-z
loop_
_atom_site_type_symbol
_atom_site_label
_atom_site_fract_x
_atom_site_fract_y
_atom_site_fract_z
Si Si1 0.449937 0.655870 0.731128
Si Si2 0.766948 0.875603 0.325034
Si Si3 0.020691 0.396331 0.709512
Si Si4 0.082600 0.147496 0.225663
Si Si5 0.615611 0.756375 0.077248
Si Si6 0.774928 0.327409 0.928249
O O1 0.365633 0.500000 0.750000
O O2 0.353110 0.742832 0.691246
O O3 0.614972 0.599106 0.709567
O O4 0.448476 0.759667 0.778542
O O5 0.828832 0.828832 0.375000
O O6 0.904591 0.888235 0.287571
O O7 0.686654 0.041392 0.328946
O O8 0.099791 0.500000 0.750000
O O9 0.906520 0.275136 0.734045
O O10 0.902440 0.497740 0.678261
O O11 0.159598 0.309212 0.682815
O O12 0.178787 0.208077 0.180975
O O13 0.162881 0.000000 0.250000
O O14 0.599514 0.701245 0.130911
#
# Coordination Sequence:
#
# PCOD8305063 Si02
#       6
#     8   8   8   8   8   8
#     4  12  28  47  72 109 146 194 246 319 382 446
#     4  12  25  45  75 112 141 195 264 308 366 457
#     4  10  22  44  71 100 140 196 238 296 369 440
#     4  11  20  42  72 100 141 190 242 303 364 438
#     4  11  28  45  72 107 152 193 247 306 389 456
#     4  12  25  45  77 107 147 197 253 313 369 464
#
# _framework density 22.654292000000002
#
# number of rings (size 3 to 8) (size 9 to 14) (size 15 to 20)
#    0.000    0.667    5.000    2.500    7.000    1.333 
#    0.000    0.000    3.667    0.000    0.000    0.000 
#    0.000    0.000    0.000    0.000    0.000    0.000 
#
# Total GULP energy -594714.845197 kJ/mol
# GULP energy per Si atom -12389.892608 kJ/mol
# Density = 2.260273 g / cm^3
# Si number density = 22.654292 Si / 1000 Ang^3
#
#
#
# Elastic Constant Matrix: (Units=GPa)
#
#
# Indices 1 2 3 4 5 6 
#
# 1 97.2906 19.0264 33.2074 0.0000 0.0000 0.0000
# 2 19.0264 97.2906 33.2074 0.0000 0.0000 0.0000
# 3 33.2074 33.2074 124.9863 0.0000 0.0000 0.0000
# 4 0.0000 0.0000 0.0000 23.5902 0.0000 0.0000
# 5 0.0000 0.0000 0.0000 0.0000 23.5902 0.0000
# 6 0.0000 0.0000 0.0000 0.0000 0.0000 6.5699
#
#
#
# Elastic Compliance Matrix: (Units=1/GPa)
#
#
# Indices 1 2 3 4 5 6 
#
# 1 0.011456 -0.001321 -0.002693 0.000000 0.000000 0.000000
# 2 -0.001321 0.011456 -0.002693 0.000000 0.000000 0.000000
# 3 -0.002693 -0.002693 0.009432 0.000000 0.000000 0.000000
# 4 0.000000 0.000000 0.000000 0.042391 0.000000 0.000000
# 5 0.000000 0.000000 0.000000 0.000000 0.042391 0.000000
# 6 0.000000 0.000000 0.000000 0.000000 0.000000 0.152209
#
#
# Mechanical properties :
#
#
# Convention : Reuss Voigt Hill
#
# Bulk Modulus (GPa) = 52.82516 54.49440 53.65978
# Shear Modulus (GPa) = 17.29765 26.35848 21.82806
#
# Velocity S-wave (km/s) = 2.76624 3.41473 3.10744
# Velocity P-wave (km/s) = 5.79408 6.29715 6.05084
#
# Compressibility (1/GPa) = 0.01893037
#
# Stress axis : x y z
#
# Youngs Moduli (GPa) = 87.29091 87.29091 106.02549
#
# Poissons Ratio (x) = 0.11534 0.28549
# Poissons Ratio (y) = 0.11534 0.28549
# Poissons Ratio (z) = 0.23504 0.23504
#
# Static dielectric constant tensor:
#      x y z
#    x 4.508270 0.000000 0.000000 
#    y 0.000000 4.508270 0.000000 
#    z 0.000000 0.000000 4.407990 
# 
# 
# High freq. dielectric constant tensor:
#      x y z
#    x 1.890490 0.000000 0.000000 
#    y 0.000000 1.890490 0.000000 
#    z 0.000000 0.000000 1.900800 
# 
# From -- ./inp_files/18145.got.cif
#   From: 2010.03.12/outbox.cif.g09.slc.cpg/sg91_10_cif.got.tgz:18145.got - 2010.04.08 20:27:58.
