data_PCOD8305653
_publ_section_title
;
Structure prediction by ZEFSAII (Michael W. Deem and Ramdas Pophale) SiO2 
 PCOD8305653
Probable space group: P 42 21 2
;
_chemical_formula_sum "Si O2"
_cell_formula_units_Z 64
_cell_length_a 11.953339
_cell_length_b 11.953339
_cell_length_c 21.874260
_cell_angle_alpha 90.000000
_cell_angle_beta 90.000000
_cell_angle_gamma 90.000000
_cell_volume 3125.444869
_symmetry_space_group_name_H-M "P 42 21 2"
_symmetry_group_IT_number 94
_symmetry_cell_setting 'tetragonal'
loop_
_space_group_symop_operation_xyz
x,y,z
1/2-y,1/2+x,1/2+z
-x,-y,z
1/2+y,1/2-x,1/2+z
1/2+x,1/2-y,1/2-z
1/2-x,1/2+y,1/2-z
y,x,-z
-y,-x,-z
loop_
_atom_site_type_symbol
_atom_site_label
_atom_site_fract_x
_atom_site_fract_y
_atom_site_fract_z
Si Si1 0.568511 0.230017 0.168765
Si Si2 0.672815 0.842638 0.195902
Si Si3 0.234528 0.624711 0.163512
Si Si4 0.561832 0.891600 0.899865
Si Si5 0.902062 0.734904 0.196093
Si Si6 0.042672 0.703894 0.890046
Si Si7 0.413567 0.320490 0.377130
Si Si8 0.929755 0.748308 0.015395
O O1 0.433719 0.234069 0.175069
O O2 0.630453 0.351626 0.161224
O O3 0.610685 0.191413 0.235427
O O4 0.617072 0.146528 0.117125
O O5 0.683228 0.872819 0.267749
O O6 0.782302 0.778147 0.172279
O O7 0.660903 0.957848 0.160713
O O8 0.211844 0.511308 0.125370
O O9 0.174275 0.720638 0.125994
O O10 0.628460 0.941337 0.842270
O O11 0.649705 0.856618 0.952434
O O12 0.500000 0.000000 0.926814
O O13 0.000319 0.826360 0.181069
O O14 0.069458 0.835486 0.877875
O O15 0.991892 0.694238 0.957454
O O16 0.479588 0.305048 0.440228
O O17 0.844614 0.844614 0.000000
#
# Coordination Sequence:
#
# PCOD8305653 Si02
#       8
#     8   8   8   8   8   8   8   8
#     4  10  21  37  57  87 131 160 200 256 307 373
#     4  11  21  37  58  92 130 162 193 260 317 370
#     4  10  20  38  63  89 116 166 215 246 299 367
#     4  11  19  37  65  86 111 159 219 250 291 385
#     4  10  20  35  62  86 122 163 204 253 307 368
#     4  11  23  36  61  93 122 157 200 256 325 368
#     4  10  20  40  62  87 120 159 205 250 307 382
#     4  11  24  40  60  91 124 157 198 262 316 371
#
# _framework density 20.477084000000001
#
# number of rings (size 3 to 8) (size 9 to 14) (size 15 to 20)
#    0.000    1.500    3.750    3.000    0.000    3.500 
#    0.000    0.625    0.000    0.000    0.000    2.625 
#    0.000    0.000    0.000    0.000    0.000    0.000 
#
# Total GULP energy -792877.978551 kJ/mol
# GULP energy per Si atom -12388.718415 kJ/mol
# Density = 2.043048 g / cm^3
# Si number density = 20.477084 Si / 1000 Ang^3
#
#
#
# Elastic Constant Matrix: (Units=GPa)
#
#
# Indices 1 2 3 4 5 6 
#
# 1 91.4995 28.7858 26.1715 0.0000 0.0000 0.0000
# 2 28.7858 91.4995 26.1715 0.0000 0.0000 0.0000
# 3 26.1715 26.1715 94.0933 0.0000 0.0000 0.0000
# 4 0.0000 0.0000 0.0000 30.3409 0.0000 0.0000
# 5 0.0000 0.0000 0.0000 0.0000 30.3409 0.0000
# 6 0.0000 0.0000 0.0000 0.0000 0.0000 37.3611
#
#
#
# Elastic Compliance Matrix: (Units=1/GPa)
#
#
# Indices 1 2 3 4 5 6 
#
# 1 0.012702 -0.003244 -0.002631 0.000000 0.000000 0.000000
# 2 -0.003244 0.012702 -0.002631 0.000000 0.000000 0.000000
# 3 -0.002631 -0.002631 0.012091 0.000000 0.000000 0.000000
# 4 0.000000 0.000000 0.000000 0.032959 0.000000 0.000000
# 5 0.000000 0.000000 0.000000 0.000000 0.032959 0.000000
# 6 0.000000 0.000000 0.000000 0.000000 0.000000 0.026766
#
#
# Mechanical properties :
#
#
# Convention : Reuss Voigt Hill
#
# Bulk Modulus (GPa) = 48.81669 48.81669 48.81669
# Shear Modulus (GPa) = 32.46392 32.67280 32.56836
#
# Velocity S-wave (km/s) = 3.98600 3.99880 3.99241
# Velocity P-wave (km/s) = 6.71384 6.72399 6.71892
#
# Compressibility (1/GPa) = 0.02048480
#
# Stress axis : x y z
#
# Youngs Moduli (GPa) = 78.72821 78.72821 82.70454
#
# Poissons Ratio (x) = 0.25536 0.21758
# Poissons Ratio (y) = 0.25536 0.21758
# Poissons Ratio (z) = 0.20712 0.20712
#
# Static dielectric constant tensor:
#      x y z
#    x 4.005070 0.000000 0.000000 
#    y 0.000000 4.005070 0.000000 
#    z 0.000000 0.000000 3.684920 
# 
# 
# High freq. dielectric constant tensor:
#      x y z
#    x 1.792730 0.000000 0.000000 
#    y 0.000000 1.792730 0.000000 
#    z 0.000000 0.000000 1.793700 
# 
# From -- ./inp_files/5168.got.cif
#   From: 2010.03.12/outbox.cif.g09.slc.cpg/sg94_3_cif.got.tgz:5168.got - 2010.04.08 20:48:32.
