data_PCOD8305307
_publ_section_title
;
Structure prediction by ZEFSAII (Michael W. Deem and Ramdas Pophale) SiO2 
 PCOD8305307
Probable space group: P 41 21 2
;
_chemical_formula_sum "Si O2"
_cell_formula_units_Z 56
_cell_length_a 14.681303
_cell_length_b 14.681303
_cell_length_c 12.826947
_cell_angle_alpha 90.000000
_cell_angle_beta 90.000000
_cell_angle_gamma 90.000000
_cell_volume 2764.728594
_symmetry_space_group_name_H-M "P 41 21 2"
_symmetry_group_IT_number 92
_symmetry_cell_setting 'tetragonal'
loop_
_space_group_symop_operation_xyz
x,y,z
1/2-y,1/2+x,1/4+z
-x,-y,1/2+z
1/2+y,1/2-x,3/4+z
1/2+x,1/2-y,3/4-z
1/2-x,1/2+y,1/4-z
y,x,-z
-y,-x,1/2-z
loop_
_atom_site_type_symbol
_atom_site_label
_atom_site_fract_x
_atom_site_fract_y
_atom_site_fract_z
Si Si1 0.767330 0.115513 0.481812
Si Si2 0.259826 0.920180 0.558698
Si Si3 0.819984 0.424585 0.512681
Si Si4 0.743948 0.403618 0.284742
Si Si5 0.160221 0.431880 0.467383
Si Si6 0.111061 0.608180 0.362255
Si Si7 0.719615 0.423261 0.713412
O O1 0.830467 0.200559 0.457683
O O2 0.733540 0.081477 0.371321
O O3 0.687819 0.145302 0.561253
O O4 0.816958 0.027429 0.532683
O O5 0.353953 0.903561 0.495435
O O6 0.281209 0.944782 0.677808
O O7 0.201717 0.002886 0.509176
O O8 0.760439 0.416914 0.407105
O O9 0.863703 0.521692 0.545922
O O10 0.745697 0.394462 0.597090
O O11 0.681718 0.318283 0.250000
O O12 0.841554 0.399997 0.227144
O O13 0.096104 0.518867 0.436748
O O14 0.188727 0.586584 0.279937
O O15 0.639420 0.360581 0.750000
#
# Coordination Sequence:
#
# PCOD8305307 Si02
#       7
#     8   8   8   8   8   8   8
#     4  10  21  37  58  86 118 153 200 251 301 368
#     4  11  22  37  59  84 119 161 199 245 306 369
#     4  10  22  39  59  88 120 152 202 261 317 375
#     4  11  24  39  58  85 122 163 201 246 306 377
#     4  10  21  37  59  85 116 153 196 250 309 367
#     4  10  21  38  61  88 119 152 199 258 318 374
#     4  10  21  37  60  84 114 156 199 251 311 370
#
# _framework density 20.255153
#
# number of rings (size 3 to 8) (size 9 to 14) (size 15 to 20)
#    0.000    1.714    0.000    4.714    0.000    8.571 
#    0.000    2.143    0.000    0.000    0.000    0.000 
#    0.000    0.000    0.000    0.000    0.000    0.000 
#
# Total GULP energy -693982.270651 kJ/mol
# GULP energy per Si atom -12392.540547 kJ/mol
# Density = 2.020905 g / cm^3
# Si number density = 20.255153 Si / 1000 Ang^3
#
#
#
# Elastic Constant Matrix: (Units=GPa)
#
#
# Indices 1 2 3 4 5 6 
#
# 1 83.6976 42.9403 49.5834 0.0000 0.0000 0.0000
# 2 42.9403 83.6952 49.5828 0.0000 0.0000 0.0000
# 3 49.5834 49.5828 131.5291 0.0000 0.0000 0.0000
# 4 0.0000 0.0000 0.0000 29.1176 0.0000 0.0000
# 5 0.0000 0.0000 0.0000 0.0000 29.1167 0.0000
# 6 0.0000 0.0000 0.0000 0.0000 0.0000 15.6648
#
#
#
# Elastic Compliance Matrix: (Units=1/GPa)
#
#
# Indices 1 2 3 4 5 6 
#
# 1 0.017870 -0.006666 -0.004224 0.000000 0.000000 0.000000
# 2 -0.006666 0.017870 -0.004224 0.000000 0.000000 0.000000
# 3 -0.004224 -0.004224 0.010787 0.000000 0.000000 0.000000
# 4 0.000000 0.000000 0.000000 0.034344 0.000000 0.000000
# 5 0.000000 0.000000 0.000000 0.000000 0.034345 0.000000
# 6 0.000000 0.000000 0.000000 0.000000 0.000000 0.063837
#
#
# Mechanical properties :
#
#
# Convention : Reuss Voigt Hill
#
# Bulk Modulus (GPa) = 61.34662 64.79276 63.06969
# Shear Modulus (GPa) = 23.28687 25.23417 24.26052
#
# Velocity S-wave (km/s) = 3.39437 3.53344 3.46460
# Velocity P-wave (km/s) = 6.76128 6.97887 6.87094
#
# Compressibility (1/GPa) = 0.01630082
#
# Stress axis : x y z
#
# Youngs Moduli (GPa) = 55.96015 55.95848 92.70174
#
# Poissons Ratio (x) = 0.37302 0.39153
# Poissons Ratio (y) = 0.37304 0.39154
# Poissons Ratio (z) = 0.23635 0.23635
#
# Static dielectric constant tensor:
#      x y z
#    x 3.722830 0.000000 0.000000 
#    y 0.000000 3.722840 0.000000 
#    z 0.000000 0.000000 4.022750 
# 
# 
# High freq. dielectric constant tensor:
#      x y z
#    x 1.784390 0.000000 0.000000 
#    y 0.000000 1.784390 0.000000 
#    z 0.000000 0.000000 1.812480 
# 
# From -- ./inp_files/2272.got.cif
#   From: 2010.03.12/outbox.cif.g09.slc.cpg/sg92_2_cif.got.tgz:2272.got - 2010.04.08 20:41:11.
