data_PCOD8305540
_publ_section_title
;
Structure prediction by ZEFSAII (Michael W. Deem and Ramdas Pophale) SiO2 
 PCOD8305540
Probable space group: P 42 2 2
;
_chemical_formula_sum "Si O2"
_cell_formula_units_Z 60
_cell_length_a 14.648802
_cell_length_b 14.648802
_cell_length_c 15.172225
_cell_angle_alpha 90.000000
_cell_angle_beta 90.000000
_cell_angle_gamma 90.000000
_cell_volume 3255.768315
_symmetry_space_group_name_H-M "P 42 2 2"
_symmetry_group_IT_number 93
_symmetry_cell_setting 'tetragonal'
loop_
_space_group_symop_operation_xyz
x,y,z
-y,x,1/2+z
-x,-y,z
y,-x,1/2+z
x,-y,-z
-x,y,-z
y,x,1/2-z
-y,-x,1/2-z
loop_
_atom_site_type_symbol
_atom_site_label
_atom_site_fract_x
_atom_site_fract_y
_atom_site_fract_z
Si Si1 0.075173 0.257231 0.568073
Si Si2 0.777711 0.153921 0.339756
Si Si3 0.537762 0.194935 0.616231
Si Si4 0.994285 0.310623 0.749066
Si Si5 0.000000 0.500000 0.158539
Si Si6 0.204931 0.348349 0.277856
Si Si7 0.639178 0.258141 0.458727
Si Si8 0.606957 0.782843 0.018060
O O1 0.132468 0.168085 0.599638
O O2 0.029078 0.305429 0.650226
O O3 0.135357 0.335803 0.523718
O O4 0.000000 0.220241 0.500000
O O5 0.787138 0.212863 0.250000
O O6 0.760665 0.047557 0.313827
O O7 0.693453 0.190648 0.395161
O O8 0.559716 0.207301 0.719141
O O9 0.626826 0.212652 0.555418
O O10 0.459637 0.267567 0.587967
O O11 0.507483 0.090221 0.597883
O O12 0.012749 0.413041 0.779093
O O13 0.886101 0.290428 0.746587
O O14 0.290838 0.290838 0.250000
O O15 0.213326 0.378062 0.378003
O O16 0.688996 0.355440 0.473740
O O17 0.500000 0.792754 0.000000
#
# Coordination Sequence:
#
# PCOD8305540 Si02
#       8
#     8   8   8   8   4   8   8   8
#     4  10  20  35  59  89 122 155 196 246 300 357
#     4   9  19  35  57  82 122 157 193 236 299 363
#     4  10  21  35  59  81 119 151 196 253 295 357
#     4  10  20  35  56  92 118 154 193 245 298 360
#     4  10  20  33  55  88 118 148 188 246 305 357
#     4  11  22  40  60  86 121 156 197 243 308 354
#     4  10  20  38  55  81 112 158 196 241 297 350
#     4  11  24  38  59  88 119 159 198 246 304 368
#
# _framework density 18.428829
#
# number of rings (size 3 to 8) (size 9 to 14) (size 15 to 20)
#    0.000    1.867    4.000    0.000    3.733    2.400 
#    0.000    1.333    0.000    4.400    3.467    0.000 
#    0.000    0.000    0.000    0.000    0.000    0.000 
#
# Total GULP energy -743614.996721 kJ/mol
# GULP energy per Si atom -12393.583279 kJ/mol
# Density = 1.838688 g / cm^3
# Si number density = 18.428829 Si / 1000 Ang^3
#
#
#
# Elastic Constant Matrix: (Units=GPa)
#
#
# Indices 1 2 3 4 5 6 
#
# 1 87.2249 46.9823 44.7856 0.0000 0.0000 0.0000
# 2 46.9823 87.2247 44.7856 0.0000 0.0000 0.0000
# 3 44.7856 44.7856 113.0348 0.0000 0.0000 0.0000
# 4 0.0000 0.0000 0.0000 24.3747 0.0000 0.0000
# 5 0.0000 0.0000 0.0000 0.0000 24.3747 0.0000
# 6 0.0000 0.0000 0.0000 0.0000 0.0000 20.2721
#
#
#
# Elastic Compliance Matrix: (Units=1/GPa)
#
#
# Indices 1 2 3 4 5 6 
#
# 1 0.017490 -0.007360 -0.004014 0.000000 0.000000 0.000000
# 2 -0.007360 0.017490 -0.004014 0.000000 0.000000 0.000000
# 3 -0.004014 -0.004014 0.012027 0.000000 0.000000 0.000000
# 4 0.000000 0.000000 0.000000 0.041026 0.000000 0.000000
# 5 0.000000 0.000000 0.000000 0.000000 0.041026 0.000000
# 6 0.000000 0.000000 0.000000 0.000000 0.000000 0.049329
#
#
# Mechanical properties :
#
#
# Convention : Reuss Voigt Hill
#
# Bulk Modulus (GPa) = 61.60388 62.28795 61.94592
# Shear Modulus (GPa) = 23.30216 23.86636 23.58426
#
# Velocity S-wave (km/s) = 3.55976 3.60259 3.58124
# Velocity P-wave (km/s) = 7.09904 7.15384 7.12649
#
# Compressibility (1/GPa) = 0.01623274
#
# Stress axis : x y z
#
# Youngs Moduli (GPa) = 57.17685 57.17667 83.14438
#
# Poissons Ratio (x) = 0.42081 0.33370
# Poissons Ratio (y) = 0.42081 0.33371
# Poissons Ratio (z) = 0.22948 0.22948
#
# Static dielectric constant tensor:
#      x y z
#    x 3.422070 0.000000 0.000000 
#    y 0.000000 3.422070 0.000000 
#    z 0.000000 0.000000 3.837190 
# 
# 
# High freq. dielectric constant tensor:
#      x y z
#    x 1.701770 0.000000 0.000000 
#    y 0.000000 1.701770 0.000000 
#    z 0.000000 0.000000 1.735080 
# 
# From -- ./inp_files/4589.got.cif
#   From: 2010.03.12/outbox.cif.g09.slc.cpg/sg93_3_cif.got.tgz:4589.got - 2010.04.08 20:44:19.
