data_PCOD8305958
_publ_section_title
;
Structure prediction by ZEFSAII (Michael W. Deem and Ramdas Pophale) SiO2 
 PCOD8305958
Probable space group: P 43 21 2
;
_chemical_formula_sum "Si O2"
_cell_formula_units_Z 40
_cell_length_a 13.497865
_cell_length_b 13.497865
_cell_length_c 11.002378
_cell_angle_alpha 90.000000
_cell_angle_beta 90.000000
_cell_angle_gamma 90.000000
_cell_volume 2004.549209
_symmetry_space_group_name_H-M "P 43 21 2"
_symmetry_group_IT_number 96
_symmetry_cell_setting 'tetragonal'
loop_
_space_group_symop_operation_xyz
x,y,z
1/2-y,1/2+x,3/4+z
-x,-y,1/2+z
1/2+y,1/2-x,1/4+z
1/2+x,1/2-y,1/4-z
1/2-x,1/2+y,3/4-z
y,x,-z
-y,-x,1/2-z
loop_
_atom_site_type_symbol
_atom_site_label
_atom_site_fract_x
_atom_site_fract_y
_atom_site_fract_z
Si Si1 0.143317 0.143317 0.000000
Si Si2 0.436856 0.775740 0.140353
Si Si3 0.620913 0.566170 0.367199
Si Si4 0.717730 0.785129 0.702487
Si Si5 0.798476 0.666265 0.913095
Si Si6 0.080865 0.080865 0.500000
O O1 0.231879 0.153320 0.095159
O O2 0.043705 0.151427 0.078334
O O3 0.406660 0.817089 0.274640
O O4 0.549953 0.786683 0.106096
O O5 0.401684 0.659435 0.140724
O O6 0.368874 0.830373 0.039926
O O7 0.573613 0.573613 0.500000
O O8 0.717944 0.632392 0.354571
O O9 0.532922 0.603520 0.281121
O O10 0.793296 0.716449 0.780258
O O11 0.710839 0.710839 0.000000
#
# Coordination Sequence:
#
# PCOD8305958 Si02
#       6
#     4   8   8   8   8   4
#     4  11  26  40  68  96 131 174 206 280 331 390
#     4  11  22  40  65  96 126 172 220 267 327 390
#     4  11  24  41  64 100 129 168 215 273 332 388
#     4  11  22  41  64  93 133 167 215 271 328 390
#     4  10  23  40  67  92 128 174 217 274 316 394
#     4  11  20  38  68  92 117 162 218 278 323 368
#
# _framework density 19.954612000000001
#
# number of rings (size 3 to 8) (size 9 to 14) (size 15 to 20)
#    0.000    1.200    6.000    1.200    5.600    0.800 
#    0.000    2.000    0.000    0.000    0.000    0.000 
#    0.000    0.000    0.000    0.000    0.000    0.000 
#
# Total GULP energy -495679.890299 kJ/mol
# GULP energy per Si atom -12391.997257 kJ/mol
# Density = 1.990919 g / cm^3
# Si number density = 19.954612 Si / 1000 Ang^3
#
#
#
# Elastic Constant Matrix: (Units=GPa)
#
#
# Indices 1 2 3 4 5 6 
#
# 1 109.9857 53.3369 36.2188 0.0000 0.0000 0.0000
# 2 53.3369 109.9857 36.2188 0.0000 0.0000 0.0000
# 3 36.2188 36.2188 95.5438 0.0000 0.0000 0.0000
# 4 0.0000 0.0000 0.0000 31.0484 0.0000 0.0000
# 5 0.0000 0.0000 0.0000 0.0000 31.0484 0.0000
# 6 0.0000 0.0000 0.0000 0.0000 0.0000 31.0639
#
#
#
# Elastic Compliance Matrix: (Units=1/GPa)
#
#
# Indices 1 2 3 4 5 6 
#
# 1 0.012506 -0.005146 -0.002790 0.000000 0.000000 0.000000
# 2 -0.005146 0.012506 -0.002790 0.000000 0.000000 0.000000
# 3 -0.002790 -0.002790 0.012582 0.000000 0.000000 0.000000
# 4 0.000000 0.000000 0.000000 0.032208 0.000000 0.000000
# 5 0.000000 0.000000 0.000000 0.000000 0.032208 0.000000
# 6 0.000000 0.000000 0.000000 0.000000 0.000000 0.032192
#
#
# Mechanical properties :
#
#
# Convention : Reuss Voigt Hill
#
# Bulk Modulus (GPa) = 61.95080 63.00714 62.47897
# Shear Modulus (GPa) = 31.04904 31.28153 31.16528
#
# Velocity S-wave (km/s) = 3.94887 3.96363 3.95626
# Velocity P-wave (km/s) = 7.20449 7.25196 7.22827
#
# Compressibility (1/GPa) = 0.01614184
#
# Stress axis : x y z
#
# Youngs Moduli (GPa) = 79.95847 79.95847 79.47983
#
# Poissons Ratio (x) = 0.41148 0.22176
# Poissons Ratio (y) = 0.41148 0.22176
# Poissons Ratio (z) = 0.22310 0.22310
#
# Static dielectric constant tensor:
#      x y z
#    x 3.619180 0.000000 0.000000 
#    y 0.000000 3.619180 0.000000 
#    z 0.000000 0.000000 3.787930 
# 
# 
# High freq. dielectric constant tensor:
#      x y z
#    x 1.772190 0.000000 0.000000 
#    y 0.000000 1.772190 0.000000 
#    z 0.000000 0.000000 1.784280 
# 
# From -- ./inp_files/2094.got.cif
#   From: 2010.03.12/outbox.cif.g09.slc.cpg/sg96_2_cif.got.tgz:2094.got - 2010.04.08 20:56:49.
