data_PCOD8305740
_publ_section_title
;
Structure prediction by ZEFSAII (Michael W. Deem and Ramdas Pophale) SiO2 
 PCOD8305740
Probable space group: P 42 21 2
;
_chemical_formula_sum "Si O2"
_cell_formula_units_Z 36
_cell_length_a 8.389078
_cell_length_b 8.389078
_cell_length_c 20.268302
_cell_angle_alpha 90.000000
_cell_angle_beta 90.000000
_cell_angle_gamma 90.000000
_cell_volume 1426.414784
_symmetry_space_group_name_H-M "P 42 21 2"
_symmetry_group_IT_number 94
_symmetry_cell_setting 'tetragonal'
loop_
_space_group_symop_operation_xyz
x,y,z
1/2-y,1/2+x,1/2+z
-x,-y,z
1/2+y,1/2-x,1/2+z
1/2+x,1/2-y,1/2-z
1/2-x,1/2+y,1/2-z
y,x,-z
-y,-x,-z
loop_
_atom_site_type_symbol
_atom_site_label
_atom_site_fract_x
_atom_site_fract_y
_atom_site_fract_z
Si Si1 0.289187 0.400946 0.102338
Si Si2 0.834461 0.918257 0.833920
Si Si3 0.282496 0.161625 0.289070
Si Si4 0.673230 0.326771 0.000000
Si Si5 0.169639 0.577107 0.881210
O O1 0.152376 0.261525 0.102541
O O2 0.250533 0.508097 0.166101
O O3 0.296534 0.499248 0.034293
O O4 0.460581 0.321030 0.112059
O O5 0.873481 0.767118 0.786305
O O6 0.718252 0.035069 0.792656
O O7 0.000000 0.000000 0.856830
O O8 0.179146 0.311566 0.315381
O O9 0.693505 0.188878 0.054971
O O10 0.000000 0.500000 0.881885
#
# Coordination Sequence:
#
# PCOD8305740 Si02
#       5
#     8   8   8   4   8
#     4  11  23  43  66  92 130 179 230 278 341 422
#     4  12  24  39  63  97 135 172 220 282 351 422
#     4  11  23  40  62  92 131 176 216 268 344 427
#     4  10  23  44  68  92 125 178 233 280 344 420
#     4  11  22  39  64  91 124 165 220 281 332 397
#
# _framework density 25.238098999999998
#
# number of rings (size 3 to 8) (size 9 to 14) (size 15 to 20)
#    0.000    0.889    0.000   10.000    0.000    5.333 
#    0.000    0.000    0.000    1.333    0.000    1.556 
#    0.000    0.000    0.000    0.000    0.000    0.000 
#
# Total GULP energy -446261.719234 kJ/mol
# GULP energy per Si atom -12396.158868 kJ/mol
# Density = 2.518066 g / cm^3
# Si number density = 25.238099 Si / 1000 Ang^3
#
#
#
# Elastic Constant Matrix: (Units=GPa)
#
#
# Indices 1 2 3 4 5 6 
#
# 1 94.1121 14.5300 23.9241 0.0000 0.0000 0.0000
# 2 14.5300 94.1125 23.9243 0.0000 0.0000 0.0000
# 3 23.9241 23.9243 84.6149 0.0000 0.0000 0.0000
# 4 0.0000 0.0000 0.0000 19.6593 0.0000 0.0000
# 5 0.0000 0.0000 0.0000 0.0000 19.6593 0.0000
# 6 0.0000 0.0000 0.0000 0.0000 0.0000 58.5312
#
#
#
# Elastic Compliance Matrix: (Units=1/GPa)
#
#
# Indices 1 2 3 4 5 6 
#
# 1 0.011540 -0.001026 -0.002973 0.000000 0.000000 0.000000
# 2 -0.001026 0.011540 -0.002973 0.000000 0.000000 0.000000
# 3 -0.002973 -0.002973 0.013499 0.000000 0.000000 0.000000
# 4 0.000000 0.000000 0.000000 0.050867 0.000000 0.000000
# 5 0.000000 0.000000 0.000000 0.000000 0.050867 0.000000
# 6 0.000000 0.000000 0.000000 0.000000 0.000000 0.017085
#
#
# Mechanical properties :
#
#
# Convention : Reuss Voigt Hill
#
# Bulk Modulus (GPa) = 44.17737 44.17738 44.17737
# Shear Modulus (GPa) = 28.26702 33.60068 30.93385
#
# Velocity S-wave (km/s) = 3.35029 3.65272 3.50477
# Velocity P-wave (km/s) = 5.70159 5.94408 5.82410
#
# Compressibility (1/GPa) = 0.02263603
#
# Stress axis : x y z
#
# Youngs Moduli (GPa) = 86.65737 86.65767 74.07822
#
# Poissons Ratio (x) = 0.08890 0.22021
# Poissons Ratio (y) = 0.08890 0.22021
# Poissons Ratio (z) = 0.25760 0.25761
#
# Static dielectric constant tensor:
#      x y z
#    x 4.745260 0.000000 0.000000 
#    y 0.000000 4.745260 0.000000 
#    z 0.000000 0.000000 4.596430 
# 
# 
# High freq. dielectric constant tensor:
#      x y z
#    x 2.012810 0.000000 0.000000 
#    y 0.000000 2.012810 0.000000 
#    z 0.000000 0.000000 1.988500 
# 
# From -- ./inp_files/4549.got.cif
#   From: 2010.03.12/outbox.cif.g09.slc.cpg/sg94_3_cif.got.tgz:4549.got - 2010.04.08 20:48:32.
