data_PCOD8305701
_publ_section_title
;
Structure prediction by ZEFSAII (Michael W. Deem and Ramdas Pophale) SiO2 
 PCOD8305701
Probable space group: P 42 21 2
;
_chemical_formula_sum "Si O2"
_cell_formula_units_Z 34
_cell_length_a 13.018368
_cell_length_b 13.018368
_cell_length_c 9.839009
_cell_angle_alpha 90.000000
_cell_angle_beta 90.000000
_cell_angle_gamma 90.000000
_cell_volume 1667.494636
_symmetry_space_group_name_H-M "P 42 21 2"
_symmetry_group_IT_number 94
_symmetry_cell_setting 'tetragonal'
loop_
_space_group_symop_operation_xyz
x,y,z
1/2-y,1/2+x,1/2+z
-x,-y,z
1/2+y,1/2-x,1/2+z
1/2+x,1/2-y,1/2-z
1/2-x,1/2+y,1/2-z
y,x,-z
-y,-x,-z
loop_
_atom_site_type_symbol
_atom_site_label
_atom_site_fract_x
_atom_site_fract_y
_atom_site_fract_z
Si Si1 0.793833 0.646699 0.642256
Si Si2 0.478281 0.726501 0.897634
Si Si3 0.003294 0.621206 0.369340
Si Si4 0.222820 0.391140 0.344139
Si Si5 0.000000 0.000000 0.500000
O O1 0.857976 0.747014 0.594291
O O2 0.860022 0.580332 0.745925
O O3 0.767858 0.582031 0.505124
O O4 0.690112 0.691212 0.706181
O O5 0.509106 0.756054 0.744600
O O6 0.535339 0.802343 0.006659
O O7 0.499621 0.605348 0.914467
O O8 0.891095 0.652114 0.314713
O O9 0.000000 0.500000 0.413553
#
# Coordination Sequence:
#
# PCOD8305701 Si02
#       5
#     8   8   8   8   2
#     4  10  22  40  58  94 131 163 216 273 334 383
#     4  11  23  39  65  92 123 180 216 266 327 397
#     4  11  22  38  65  97 131 162 221 281 329 392
#     4  10  22  37  61  90 126 170 211 268 329 387
#     4  12  24  44  64  90 136 180 228 258 340 412
#
# _framework density 20.389869999999998
#
# number of rings (size 3 to 8) (size 9 to 14) (size 15 to 20)
#    0.000    1.412    2.353    4.235    6.588    0.000 
#    0.000    0.000    0.000   19.765    0.000    0.000 
#    0.000    0.000    0.000    0.000    0.000    0.000 
#
# Total GULP energy -421245.520478 kJ/mol
# GULP energy per Si atom -12389.574132 kJ/mol
# Density = 2.034346 g / cm^3
# Si number density = 20.389870 Si / 1000 Ang^3
#
#
#
# Elastic Constant Matrix: (Units=GPa)
#
#
# Indices 1 2 3 4 5 6 
#
# 1 99.2717 17.9935 49.0023 0.0000 0.0000 0.0000
# 2 17.9935 99.2717 49.0023 0.0000 0.0000 0.0000
# 3 49.0023 49.0023 94.5179 0.0000 0.0000 0.0000
# 4 0.0000 0.0000 0.0000 29.0931 0.0000 0.0000
# 5 0.0000 0.0000 0.0000 0.0000 29.0931 0.0000
# 6 0.0000 0.0000 0.0000 0.0000 0.0000 28.8124
#
#
#
# Elastic Compliance Matrix: (Units=1/GPa)
#
#
# Indices 1 2 3 4 5 6 
#
# 1 0.013676 0.001372 -0.007801 0.000000 0.000000 0.000000
# 2 0.001372 0.013676 -0.007801 0.000000 0.000000 0.000000
# 3 -0.007801 -0.007801 0.018669 0.000000 0.000000 0.000000
# 4 0.000000 0.000000 0.000000 0.034372 0.000000 0.000000
# 5 0.000000 0.000000 0.000000 0.000000 0.034372 0.000000
# 6 0.000000 0.000000 0.000000 0.000000 0.000000 0.034707
#
#
# Mechanical properties :
#
#
# Convention : Reuss Voigt Hill
#
# Bulk Modulus (GPa) = 56.95084 58.33974 57.64529
# Shear Modulus (GPa) = 27.20542 29.20392 28.20467
#
# Velocity S-wave (km/s) = 3.65672 3.78865 3.72327
# Velocity P-wave (km/s) = 6.76907 6.91467 6.84226
#
# Compressibility (1/GPa) = 0.01755900
#
# Stress axis : x y z
#
# Youngs Moduli (GPa) = 73.12309 73.12309 53.56412
#
# Poissons Ratio (x) = -0.10034 0.41788
# Poissons Ratio (y) = -0.10034 0.41788
# Poissons Ratio (z) = 0.57046 0.57046
#
# Static dielectric constant tensor:
#      x y z
#    x 3.728520 0.000000 0.000000 
#    y 0.000000 3.728520 0.000000 
#    z 0.000000 0.000000 3.628180 
# 
# 
# High freq. dielectric constant tensor:
#      x y z
#    x 1.794710 0.000000 0.000000 
#    y 0.000000 1.794710 0.000000 
#    z 0.000000 0.000000 1.792040 
# 
# From -- ./inp_files/1238.got.cif
#   From: 2010.03.12/outbox.cif.g09.slc.cpg/sg94_1_cif.got.tgz:1238.got - 2010.04.08 20:48:32.
