data_PCOD8305032
_publ_section_title
;
Structure prediction by ZEFSAII (Michael W. Deem and Ramdas Pophale) SiO2 
 PCOD8305032
Probable space group: P 41 2 2
;
_chemical_formula_sum "Si O2"
_cell_formula_units_Z 44
_cell_length_a 12.133159
_cell_length_b 12.133159
_cell_length_c 15.733580
_cell_angle_alpha 90.000000
_cell_angle_beta 90.000000
_cell_angle_gamma 90.000000
_cell_volume 2316.196124
_symmetry_space_group_name_H-M "P 41 2 2"
_symmetry_group_IT_number 91
_symmetry_cell_setting 'tetragonal'
loop_
_space_group_symop_operation_xyz
x,y,z
-y,x,1/4+z
-x,-y,1/2+z
y,-x,3/4+z
x,-y,1/2-z
-x,y,-z
y,x,3/4-z
-y,-x,1/4-z
loop_
_atom_site_type_symbol
_atom_site_label
_atom_site_fract_x
_atom_site_fract_y
_atom_site_fract_z
Si Si1 0.892023 0.741920 0.316538
Si Si2 0.086603 0.066171 0.568551
Si Si3 0.228552 0.756647 0.415801
Si Si4 0.555621 0.500000 0.250000
Si Si5 0.889920 0.583445 0.463372
Si Si6 0.558982 0.313950 0.835061
O O1 0.818378 0.818378 0.375000
O O2 0.818502 0.698035 0.237740
O O3 0.928908 0.641679 0.375984
O O4 0.994823 0.812405 0.279111
O O5 0.145769 0.161123 0.621471
O O6 0.000000 0.116112 0.500000
O O7 0.015570 0.984431 0.625000
O O8 0.153014 0.667603 0.463993
O O9 0.309371 0.698125 0.347780
O O10 0.635669 0.506760 0.169905
O O11 0.473496 0.604704 0.257752
O O12 0.803722 0.490132 0.439138
O O13 0.000000 0.526019 0.500000
#
# Coordination Sequence:
#
# PCOD8305032 Si02
#       6
#     8   8   8   4   8   8
#     4   9  19  30  54  89 122 153 199 247 298 359
#     4  11  20  34  57  86 123 168 207 244 303 378
#     4  11  21  37  60  89 122 164 204 257 312 374
#     4  10  22  40  66  94 116 158 208 278 312 376
#     4  11  21  36  60  95 126 156 198 265 321 367
#     4  11  22  39  65  92 120 157 214 261 325 374
#
# _framework density 18.996665
#
# number of rings (size 3 to 8) (size 9 to 14) (size 15 to 20)
#    0.000    1.455    5.455    1.091    5.091    0.727 
#    0.000    0.000    8.000    0.000    0.000    0.000 
#    0.000    0.000    0.000    0.000    0.000    0.000 
#
# Total GULP energy -545149.781810 kJ/mol
# GULP energy per Si atom -12389.767768 kJ/mol
# Density = 1.895343 g / cm^3
# Si number density = 18.996665 Si / 1000 Ang^3
#
#
#
# Elastic Constant Matrix: (Units=GPa)
#
#
# Indices 1 2 3 4 5 6 
#
# 1 72.5542 57.2026 31.5616 0.0000 0.0000 0.0000
# 2 57.2026 72.5558 31.5614 0.0000 0.0000 0.0000
# 3 31.5616 31.5614 55.7256 0.0000 0.0000 0.0000
# 4 0.0000 0.0000 0.0000 27.7904 0.0000 0.0000
# 5 0.0000 0.0000 0.0000 0.0000 27.7907 0.0000
# 6 0.0000 0.0000 0.0000 0.0000 0.0000 37.7622
#
#
#
# Elastic Compliance Matrix: (Units=1/GPa)
#
#
# Indices 1 2 3 4 5 6 
#
# 1 0.037888 -0.027249 -0.006025 0.000000 0.000000 0.000000
# 2 -0.027249 0.037886 -0.006024 0.000000 0.000000 0.000000
# 3 -0.006025 -0.006024 0.024770 0.000000 0.000000 0.000000
# 4 0.000000 0.000000 0.000000 0.035984 0.000000 0.000000
# 5 0.000000 0.000000 0.000000 0.000000 0.035983 0.000000
# 6 0.000000 0.000000 0.000000 0.000000 0.000000 0.026482
#
#
# Mechanical properties :
#
#
# Convention : Reuss Voigt Hill
#
# Bulk Modulus (GPa) = 45.56748 49.05410 47.31079
# Shear Modulus (GPa) = 17.54966 24.03599 20.79282
#
# Velocity S-wave (km/s) = 3.04275 3.56093 3.31199
# Velocity P-wave (km/s) = 6.03188 6.54106 6.29163
#
# Compressibility (1/GPa) = 0.02194547
#
# Stress axis : x y z
#
# Youngs Moduli (GPa) = 26.39378 26.39466 40.37186
#
# Poissons Ratio (x) = 0.71924 0.24325
# Poissons Ratio (y) = 0.71922 0.24322
# Poissons Ratio (z) = 0.15903 0.15901
#
# Static dielectric constant tensor:
#      x y z
#    x 3.524350 0.000000 0.000000 
#    y 0.000000 3.524350 0.000000 
#    z 0.000000 0.000000 3.627500 
# 
# 
# High freq. dielectric constant tensor:
#      x y z
#    x 1.725400 0.000000 0.000000 
#    y 0.000000 1.725400 0.000000 
#    z 0.000000 0.000000 1.726800 
# 
# From -- ./inp_files/16829.got.cif
#   From: 2010.03.12/outbox.cif.g09.slc.cpg/sg91_9_cif.got.tgz:16829.got - 2010.04.08 20:27:58.
