data_PCOD8305143
_publ_section_title
;
Structure prediction by ZEFSAII (Michael W. Deem and Ramdas Pophale) SiO2 
 PCOD8305143
Probable space group: P 41 2 2
;
_chemical_formula_sum "Si O2"
_cell_formula_units_Z 60
_cell_length_a 11.252240
_cell_length_b 11.252240
_cell_length_c 22.625865
_cell_angle_alpha 90.000000
_cell_angle_beta 90.000000
_cell_angle_gamma 90.000000
_cell_volume 2864.726496
_symmetry_space_group_name_H-M "P 41 2 2"
_symmetry_group_IT_number 91
_symmetry_cell_setting 'tetragonal'
loop_
_space_group_symop_operation_xyz
x,y,z
-y,x,1/4+z
-x,-y,1/2+z
y,-x,3/4+z
x,-y,1/2-z
-x,y,-z
y,x,3/4-z
-y,-x,1/4-z
loop_
_atom_site_type_symbol
_atom_site_label
_atom_site_fract_x
_atom_site_fract_y
_atom_site_fract_z
Si Si1 0.367604 0.761475 0.343379
Si Si2 0.027585 0.631800 0.069543
Si Si3 0.368200 0.027584 0.986209
Si Si4 0.245533 0.245534 0.708333
Si Si5 0.238527 0.632398 0.239955
Si Si6 0.632400 0.238525 0.176712
Si Si7 0.754466 0.754466 0.875000
Si Si8 0.972415 0.631801 0.597124
O O1 0.330209 0.710652 0.406086
O O2 0.281421 0.718582 0.291667
O O3 0.500002 0.716437 0.333334
O O4 0.357769 0.902551 0.352371
O O5 0.112338 0.732937 0.098548
O O6 0.081587 0.499999 0.083333
O O7 0.000000 0.651088 0.000000
O O8 0.348912 0.000001 0.916666
O O9 0.500000 0.081585 0.000000
O O10 0.267063 0.112337 0.015214
O O11 0.357766 0.902549 0.019037
O O12 0.330207 0.289348 0.760581
O O13 0.267062 0.112338 0.681881
O O14 0.283564 0.500000 0.250000
O O15 0.289349 0.669792 0.177248
O O16 0.718585 0.281416 0.125000
O O17 0.642234 0.097449 0.185705
#
# Coordination Sequence:
#
# PCOD8305143 Si02
#       8
#     8   8   8   8   8   8   4   8
#     4  11  24  44  68 100 134 179 223 270 335 401
#     4  11  22  43  71  97 133 179 224 271 336 406
#     4  11  22  43  71  97 133 179 224 271 336 406
#     4  12  24  40  74  98 130 170 230 282 320 396
#     4  11  24  44  68 100 134 179 223 270 335 401
#     4  11  24  44  68 100 134 179 223 270 335 401
#     4  12  24  40  74  98 130 170 230 282 320 396
#     4  11  22  43  71  97 133 179 224 271 336 406
#
# _framework density 20.944409
#
# number of rings (size 3 to 8) (size 9 to 14) (size 15 to 20)
#    0.000    0.800    4.000    6.000    0.000    0.000 
#    3.600    0.000   17.600    0.000    0.000    0.000 
#    0.000    0.000    0.000    0.000    0.000    0.000 
#
# Total GULP energy -743680.440721 kJ/mol
# GULP energy per Si atom -12394.674012 kJ/mol
# Density = 2.089674 g / cm^3
# Si number density = 20.944409 Si / 1000 Ang^3
#
#
#
# Elastic Constant Matrix: (Units=GPa)
#
#
# Indices 1 2 3 4 5 6 
#
# 1 82.4053 60.6156 38.5753 0.0000 0.0000 0.0000
# 2 60.6156 82.4072 38.5755 0.0000 0.0000 0.0000
# 3 38.5753 38.5755 181.6295 0.0000 0.0000 0.0000
# 4 0.0000 0.0000 0.0000 29.0983 0.0000 0.0000
# 5 0.0000 0.0000 0.0000 0.0000 29.0983 0.0000
# 6 0.0000 0.0000 0.0000 0.0000 0.0000 36.4820
#
#
#
# Elastic Compliance Matrix: (Units=1/GPa)
#
#
# Indices 1 2 3 4 5 6 
#
# 1 0.026894 -0.018997 -0.001677 0.000000 0.000000 0.000000
# 2 -0.018997 0.026894 -0.001677 0.000000 0.000000 0.000000
# 3 -0.001677 -0.001677 0.006218 0.000000 0.000000 0.000000
# 4 0.000000 0.000000 0.000000 0.034366 0.000000 0.000000
# 5 0.000000 0.000000 0.000000 0.000000 0.034366 0.000000
# 6 0.000000 0.000000 0.000000 0.000000 0.000000 0.027411
#
#
# Mechanical properties :
#
#
# Convention : Reuss Voigt Hill
#
# Bulk Modulus (GPa) = 65.34723 69.10832 67.22777
# Shear Modulus (GPa) = 24.27731 32.84741 28.56236
#
# Velocity S-wave (km/s) = 3.40829 3.96449 3.69687
# Velocity P-wave (km/s) = 6.83789 7.35010 7.09861
#
# Compressibility (1/GPa) = 0.01530287
#
# Stress axis : x y z
#
# Youngs Moduli (GPa) = 37.18258 37.18350 160.82062
#
# Poissons Ratio (x) = 0.70639 0.26972
# Poissons Ratio (y) = 0.70637 0.26971
# Poissons Ratio (z) = 0.06236 0.06236
#
# Static dielectric constant tensor:
#      x y z
#    x 3.823070 0.000000 0.000000 
#    y 0.000000 3.823070 0.000000 
#    z 0.000000 0.000000 4.032920 
# 
# 
# High freq. dielectric constant tensor:
#      x y z
#    x 1.805830 0.000000 0.000000 
#    y 0.000000 1.805830 0.000000 
#    z 0.000000 0.000000 1.855600 
# 
# From -- ./inp_files/6472.got.cif
#   From: 2010.03.12/outbox.cif.g09.slc.cpg/sg91_4_cif.got.tgz:6472.got - 2010.04.08 20:27:58.
