data_PCOD8305024
_publ_section_title
;
Structure prediction by ZEFSAII (Michael W. Deem and Ramdas Pophale) SiO2 
 PCOD8305024
Probable space group: P 41 2 2
;
_chemical_formula_sum "Si O2"
_cell_formula_units_Z 40
_cell_length_a 11.616345
_cell_length_b 11.616345
_cell_length_c 14.675861
_cell_angle_alpha 90.000000
_cell_angle_beta 90.000000
_cell_angle_gamma 90.000000
_cell_volume 1980.352922
_symmetry_space_group_name_H-M "P 41 2 2"
_symmetry_group_IT_number 91
_symmetry_cell_setting 'tetragonal'
loop_
_space_group_symop_operation_xyz
x,y,z
-y,x,1/4+z
-x,-y,1/2+z
y,-x,3/4+z
x,-y,1/2-z
-x,y,-z
y,x,3/4-z
-y,-x,1/4-z
loop_
_atom_site_type_symbol
_atom_site_label
_atom_site_fract_x
_atom_site_fract_y
_atom_site_fract_z
Si Si1 0.150014 0.232092 0.606485
Si Si2 0.203133 0.921559 0.052007
Si Si3 0.385312 0.329393 0.680549
Si Si4 0.849136 0.450685 0.652863
Si Si5 0.590774 0.409227 0.125000
Si Si6 0.000000 0.594442 0.000000
O O1 0.166337 0.112622 0.550353
O O2 0.272463 0.265746 0.646111
O O3 0.105514 0.326940 0.534826
O O4 0.059368 0.222642 0.690126
O O5 0.103463 0.896538 0.125000
O O6 0.313279 0.846657 0.085179
O O7 0.497981 0.270169 0.635562
O O8 0.387328 0.459674 0.649542
O O9 0.383198 0.324540 0.790446
O O10 0.884523 0.500000 0.750000
O O11 0.950036 0.484888 0.580903
#
# Coordination Sequence:
#
# PCOD8305024 Si02
#       6
#     8   8   8   8   4   4
#     4  11  21  40  67  93 128 165 223 268 336 382
#     4  11  21  39  68  96 123 168 215 285 323 381
#     4  11  24  42  63  99 133 176 221 270 332 409
#     4  11  22  36  67  96 126 165 224 276 322 394
#     4  10  26  42  62  92 140 186 202 264 348 404
#     4  10  22  40  60  94 124 170 210 288 324 384
#
# _framework density 20.198419000000001
#
# number of rings (size 3 to 8) (size 9 to 14) (size 15 to 20)
#    0.000    1.200    6.000    1.200    4.200    0.000 
#   21.600    0.000   11.000    0.000    0.000    0.000 
#    0.000    0.000    0.000    0.000    0.000    0.000 
#
# Total GULP energy -495850.769788 kJ/mol
# GULP energy per Si atom -12396.269245 kJ/mol
# Density = 2.015245 g / cm^3
# Si number density = 20.198419 Si / 1000 Ang^3
#
#
#
# Elastic Constant Matrix: (Units=GPa)
#
#
# Indices 1 2 3 4 5 6 
#
# 1 75.5722 35.2564 39.6949 0.0000 0.0000 0.0000
# 2 35.2564 75.5709 39.6948 0.0000 0.0000 0.0000
# 3 39.6949 39.6948 154.9478 0.0000 0.0000 0.0000
# 4 0.0000 0.0000 0.0000 34.6519 0.0000 0.0000
# 5 0.0000 0.0000 0.0000 0.0000 34.6531 0.0000
# 6 0.0000 0.0000 0.0000 0.0000 0.0000 17.8875
#
#
#
# Elastic Compliance Matrix: (Units=1/GPa)
#
#
# Indices 1 2 3 4 5 6 
#
# 1 0.017928 -0.006877 -0.002831 0.000000 0.000000 0.000000
# 2 -0.006877 0.017928 -0.002831 0.000000 0.000000 0.000000
# 3 -0.002831 -0.002831 0.007904 0.000000 0.000000 0.000000
# 4 0.000000 0.000000 0.000000 0.028858 0.000000 0.000000
# 5 0.000000 0.000000 0.000000 0.000000 0.028857 0.000000
# 6 0.000000 0.000000 0.000000 0.000000 0.000000 0.055905
#
#
# Mechanical properties :
#
#
# Convention : Reuss Voigt Hill
#
# Bulk Modulus (GPa) = 53.52738 59.48701 56.50719
# Shear Modulus (GPa) = 26.49904 30.20147 28.35025
#
# Velocity S-wave (km/s) = 3.62600 3.87103 3.75051
# Velocity P-wave (km/s) = 6.63994 7.03527 6.84046
#
# Compressibility (1/GPa) = 0.01868203
#
# Stress axis : x y z
#
# Youngs Moduli (GPa) = 55.77990 55.77885 126.51307
#
# Poissons Ratio (x) = 0.38358 0.35816
# Poissons Ratio (y) = 0.38359 0.35817
# Poissons Ratio (z) = 0.15791 0.15792
#
# Static dielectric constant tensor:
#      x y z
#    x 2.957390 0.000000 0.000000 
#    y 0.000000 2.957770 0.000000 
#    z 0.000000 0.000000 4.219280 
# 
# 
# High freq. dielectric constant tensor:
#      x y z
#    x 1.776310 0.000000 0.000000 
#    y 0.000000 1.776310 0.000000 
#    z 0.000000 0.000000 1.797680 
# 
# From -- ./inp_files/4779.got.cif
#   From: 2010.03.12/outbox.cif.g09.slc.cpg/sg91_3_cif.got.tgz:4779.got - 2010.04.08 20:27:58.
