data_PCOD8305479
_publ_section_title
;
Structure prediction by ZEFSAII (Michael W. Deem and Ramdas Pophale) SiO2 
 PCOD8305479
Probable space group: P 41 21 2
;
_chemical_formula_sum "Si O2"
_cell_formula_units_Z 24
_cell_length_a 8.506216
_cell_length_b 8.506216
_cell_length_c 11.230668
_cell_angle_alpha 90.000000
_cell_angle_beta 90.000000
_cell_angle_gamma 90.000000
_cell_volume 812.602964
_symmetry_space_group_name_H-M "P 41 21 2"
_symmetry_group_IT_number 92
_symmetry_cell_setting 'tetragonal'
loop_
_space_group_symop_operation_xyz
x,y,z
1/2-y,1/2+x,1/4+z
-x,-y,1/2+z
1/2+y,1/2-x,3/4+z
1/2+x,1/2-y,3/4-z
1/2-x,1/2+y,1/4-z
y,x,-z
-y,-x,1/2-z
loop_
_atom_site_type_symbol
_atom_site_label
_atom_site_fract_x
_atom_site_fract_y
_atom_site_fract_z
Si Si1 0.141231 0.139483 0.826660
Si Si2 0.934136 0.425736 0.210137
Si Si3 0.176675 0.948383 0.403724
O O1 0.247360 0.279038 0.875809
O O2 0.008854 0.086118 0.921199
O O3 0.060619 0.207890 0.708065
O O4 0.243855 0.983491 0.796194
O O5 0.746882 0.463912 0.227006
O O6 0.000333 0.498732 0.336112
#
# Coordination Sequence:
#
# PCOD8305479 Si02
#       3
#     8   8   8
#     4  11  27  50  90 132 187 250 318 388 475 565
#     4  12  28  58  90 139 188 245 324 388 478 570
#     4  11  25  53  84 131 185 249 308 390 463 562
#
# _framework density 29.53472
#
# number of rings (size 3 to 8) (size 9 to 14) (size 15 to 20)
#    0.000    0.667    3.333    2.000    4.667    6.667 
#    6.000    0.000    0.000    0.000    0.000    0.000 
#    0.000    0.000    0.000    0.000    0.000    0.000 
#
# Total GULP energy -297357.442714 kJ/mol
# GULP energy per Si atom -12389.893446 kJ/mol
# Density = 2.946750 g / cm^3
# Si number density = 29.534720 Si / 1000 Ang^3
#
#
#
# Elastic Constant Matrix: (Units=GPa)
#
#
# Indices 1 2 3 4 5 6 
#
# 1 150.9167 113.3816 63.9145 0.0000 0.0000 0.0000
# 2 113.3816 150.9167 63.9145 0.0000 0.0000 0.0000
# 3 63.9145 63.9145 173.8869 0.0000 0.0000 0.0000
# 4 0.0000 0.0000 0.0000 50.6510 0.0000 0.0000
# 5 0.0000 0.0000 0.0000 0.0000 50.6510 0.0000
# 6 0.0000 0.0000 0.0000 0.0000 0.0000 82.6547
#
#
#
# Elastic Compliance Matrix: (Units=1/GPa)
#
#
# Indices 1 2 3 4 5 6 
#
# 1 0.015622 -0.011020 -0.001691 0.000000 0.000000 0.000000
# 2 -0.011020 0.015622 -0.001691 0.000000 0.000000 0.000000
# 3 -0.001691 -0.001691 0.006994 0.000000 0.000000 0.000000
# 4 0.000000 0.000000 0.000000 0.019743 0.000000 0.000000
# 5 0.000000 0.000000 0.000000 0.000000 0.019743 0.000000
# 6 0.000000 0.000000 0.000000 0.000000 0.000000 0.012099
#
#
# Mechanical properties :
#
#
# Convention : Reuss Voigt Hill
#
# Bulk Modulus (GPa) = 106.02238 106.46013 106.24126
# Shear Modulus (GPa) = 41.06042 52.42531 46.74286
#
# Velocity S-wave (km/s) = 3.73264 4.21769 3.98256
# Velocity P-wave (km/s) = 7.38595 7.73580 7.56290
#
# Compressibility (1/GPa) = 0.00943197
#
# Stress axis : x y z
#
# Youngs Moduli (GPa) = 64.01353 64.01353 142.97435
#
# Poissons Ratio (x) = 0.70543 0.24183
# Poissons Ratio (y) = 0.70543 0.24183
# Poissons Ratio (z) = 0.10827 0.10827
#
# Static dielectric constant tensor:
#      x y z
#    x 5.661430 0.000000 0.000000 
#    y 0.000000 5.661430 0.000000 
#    z 0.000000 0.000000 5.270180 
# 
# 
# High freq. dielectric constant tensor:
#      x y z
#    x 2.212260 0.000000 0.000000 
#    y 0.000000 2.212260 0.000000 
#    z 0.000000 0.000000 2.214090 
# 
# From -- ./inp_files/2452.got.cif
#   From: 2010.03.12/outbox.cif.g09.slc.cpg/sg92_2_cif.got.tgz:2452.got - 2010.04.08 20:41:11.
