data_PCOD8305606
_publ_section_title
;
Structure prediction by ZEFSAII (Michael W. Deem and Ramdas Pophale) SiO2 
 PCOD8305606
Probable space group: P 42 2 2
;
_chemical_formula_sum "Si O2"
_cell_formula_units_Z 34
_cell_length_a 8.938342
_cell_length_b 8.938342
_cell_length_c 19.887347
_cell_angle_alpha 90.000000
_cell_angle_beta 90.000000
_cell_angle_gamma 90.000000
_cell_volume 1588.878860
_symmetry_space_group_name_H-M "P 42 2 2"
_symmetry_group_IT_number 93
_symmetry_cell_setting 'tetragonal'
loop_
_space_group_symop_operation_xyz
x,y,z
-y,x,1/2+z
-x,-y,z
y,-x,1/2+z
x,-y,-z
-x,y,-z
y,x,1/2-z
-y,-x,1/2-z
loop_
_atom_site_type_symbol
_atom_site_label
_atom_site_fract_x
_atom_site_fract_y
_atom_site_fract_z
Si Si1 0.831042 0.961873 0.422930
Si Si2 0.164565 0.452291 0.686944
Si Si3 0.500000 0.500000 0.500000
Si Si4 0.315206 0.338499 0.108987
Si Si5 0.183984 0.641008 0.159736
O O1 0.711006 0.038702 0.374073
O O2 0.799405 0.000000 0.500000
O O3 0.802004 0.786669 0.412332
O O4 0.000000 0.000000 0.401254
O O5 0.282567 0.586383 0.672865
O O6 0.234160 0.311668 0.647295
O O7 0.152522 0.400349 0.763441
O O8 0.000000 0.500000 0.660376
O O9 0.617586 0.410266 0.544589
O O10 0.221767 0.485103 0.125836
#
# Coordination Sequence:
#
# PCOD8305606 Si02
#       5
#     8   8   2   8   8
#     4  11  25  44  68  99 137 180 227 285 353 423
#     4  11  23  41  66  97 136 174 229 284 343 409
#     4  12  24  40  66 104 128 176 236 274 360 408
#     4  12  23  42  67  95 135 175 226 285 339 420
#     4  11  23  43  67 100 133 177 228 279 346 414
#
# _framework density 21.398738999999999
#
# number of rings (size 3 to 8) (size 9 to 14) (size 15 to 20)
#    0.000    0.706    2.353    5.647    0.000    2.824 
#    0.000    7.059    0.000    0.000    0.000    0.000 
#    0.000    0.000    0.000    0.000    0.000    0.000 
#
# Total GULP energy -421488.160638 kJ/mol
# GULP energy per Si atom -12396.710607 kJ/mol
# Density = 2.135003 g / cm^3
# Si number density = 21.398739 Si / 1000 Ang^3
#
#
#
# Elastic Constant Matrix: (Units=GPa)
#
#
# Indices 1 2 3 4 5 6 
#
# 1 136.7160 63.8378 42.0616 0.0000 0.0000 0.0000
# 2 63.8378 136.7160 42.0616 0.0000 0.0000 0.0000
# 3 42.0616 42.0616 90.4220 0.0000 0.0000 0.0000
# 4 0.0000 0.0000 0.0000 -241.5691 0.0000 0.0000
# 5 0.0000 0.0000 0.0000 0.0000 -241.5691 0.0000
# 6 0.0000 0.0000 0.0000 0.0000 0.0000 57.3785
#
#
#
# Elastic Compliance Matrix: (Units=1/GPa)
#
#
# Indices 1 2 3 4 5 6 
#
# 1 0.009958 -0.003763 -0.002882 0.000000 0.000000 0.000000
# 2 -0.003763 0.009958 -0.002882 0.000000 0.000000 0.000000
# 3 -0.002882 -0.002882 0.013740 0.000000 0.000000 0.000000
# 4 0.000000 0.000000 0.000000 -0.004140 0.000000 0.000000
# 5 0.000000 0.000000 0.000000 0.000000 -0.004140 0.000000
# 6 0.000000 0.000000 0.000000 0.000000 0.000000 0.017428
#
#
# Mechanical properties :
#
#
# Convention : Reuss Voigt Hill
#
# Bulk Modulus (GPa) = 68.47770 73.30844 70.89307
# Shear Modulus (GPa) = 74.93256 -70.75905 2.08675
#
# Velocity S-wave (km/s) = 5.92396 -5.75662 0.98858
# Velocity P-wave (km/s) = 8.88039 3.13883 5.87406
#
# Compressibility (1/GPa) = 0.01460329
#
# Stress axis : x y z
#
# Youngs Moduli (GPa) = 100.41956 100.41956 72.77913
#
# Poissons Ratio (x) = 0.37791 0.20973
# Poissons Ratio (y) = 0.37791 0.20973
# Poissons Ratio (z) = 0.28938 0.28938
#
# Static dielectric constant tensor:
#      x y z
#    x 7.389120 0.000000 0.000000 
#    y 0.000000 7.389120 0.000000 
#    z 0.000000 0.000000 3.880000 
# 
# 
# High freq. dielectric constant tensor:
#      x y z
#    x 1.853390 0.000000 0.000000 
#    y 0.000000 1.853390 0.000000 
#    z 0.000000 0.000000 1.833920 
# 
# From -- ./inp_files/6017.got.cif
#   From: 2010.03.12/outbox.cif.g09.slc.cpg/sg93_4_cif.got.tgz:6017.got - 2010.04.08 20:44:19.
