data_PCOD8305172
_publ_section_title
;
Structure prediction by ZEFSAII (Michael W. Deem and Ramdas Pophale) SiO2 
 PCOD8305172
Probable space group: P 41 2 2
;
_chemical_formula_sum "Si O2"
_cell_formula_units_Z 36
_cell_length_a 7.011594
_cell_length_b 7.011594
_cell_length_c 30.225384
_cell_angle_alpha 90.000000
_cell_angle_beta 90.000000
_cell_angle_gamma 90.000000
_cell_volume 1485.953942
_symmetry_space_group_name_H-M "P 41 2 2"
_symmetry_group_IT_number 91
_symmetry_cell_setting 'tetragonal'
loop_
_space_group_symop_operation_xyz
x,y,z
-y,x,1/4+z
-x,-y,1/2+z
y,-x,3/4+z
x,-y,1/2-z
-x,y,-z
y,x,3/4-z
-y,-x,1/4-z
loop_
_atom_site_type_symbol
_atom_site_label
_atom_site_fract_x
_atom_site_fract_y
_atom_site_fract_z
Si Si1 0.070265 0.765918 0.789085
Si Si2 0.695782 0.091700 0.369425
Si Si3 0.749433 0.000000 0.750000
Si Si4 0.334449 0.163070 0.944679
Si Si5 0.203414 0.556742 0.921964
O O1 0.863714 0.861592 0.783703
O O2 0.165442 0.782036 0.740452
O O3 0.065086 0.542558 0.801828
O O4 0.181590 0.891421 0.824871
O O5 0.786431 0.955916 0.407983
O O6 0.497500 0.990695 0.354871
O O7 0.672914 0.296168 0.392830
O O8 0.628250 0.144949 0.779641
O O9 0.347523 0.379545 0.927849
#
# Coordination Sequence:
#
# PCOD8305172 Si02
#       5
#     8   8   4   8   8
#     4  11  25  48  81 111 153 207 261 327 396 469
#     4  12  25  49  79 116 153 213 261 322 396 476
#     4  12  26  50  76 118 152 204 268 328 392 480
#     4  11  25  52  76 111 162 206 258 330 397 473
#     4  12  27  48  78 114 157 210 261 326 400 469
#
# _framework density 24.226858
#
# number of rings (size 3 to 8) (size 9 to 14) (size 15 to 20)
#    0.000    0.444    4.444    3.333    3.111    0.000 
#   16.000    0.000    0.000    0.000    0.000    0.000 
#    0.000    0.000    0.000    0.000    0.000    0.000 
#
# Total GULP energy -446173.519273 kJ/mol
# GULP energy per Si atom -12393.708869 kJ/mol
# Density = 2.417172 g / cm^3
# Si number density = 24.226858 Si / 1000 Ang^3
#
#
#
# Elastic Constant Matrix: (Units=GPa)
#
#
# Indices 1 2 3 4 5 6 
#
# 1 107.2401 34.2764 43.8139 0.0000 0.0000 0.0000
# 2 34.2764 107.2401 43.8139 0.0000 0.0000 0.0000
# 3 43.8139 43.8139 190.7863 0.0000 0.0000 0.0000
# 4 0.0000 0.0000 0.0000 39.4831 0.0000 0.0000
# 5 0.0000 0.0000 0.0000 0.0000 39.4831 0.0000
# 6 0.0000 0.0000 0.0000 0.0000 0.0000 35.8932
#
#
#
# Elastic Compliance Matrix: (Units=1/GPa)
#
#
# Indices 1 2 3 4 5 6 
#
# 1 0.010972 -0.002734 -0.001892 0.000000 0.000000 0.000000
# 2 -0.002734 0.010972 -0.001892 0.000000 0.000000 0.000000
# 3 -0.001892 -0.001892 0.006110 0.000000 0.000000 0.000000
# 4 0.000000 0.000000 0.000000 0.025327 0.000000 0.000000
# 5 0.000000 0.000000 0.000000 0.000000 0.025327 0.000000
# 6 0.000000 0.000000 0.000000 0.000000 0.000000 0.027860
#
#
# Mechanical properties :
#
#
# Convention : Reuss Voigt Hill
#
# Bulk Modulus (GPa) = 66.58385 72.11942 69.35164
# Shear Modulus (GPa) = 40.12531 41.86270 40.99400
#
# Velocity S-wave (km/s) = 4.07410 4.16137 4.11796
# Velocity P-wave (km/s) = 7.04799 7.27477 7.16228
#
# Compressibility (1/GPa) = 0.01501866
#
# Stress axis : x y z
#
# Youngs Moduli (GPa) = 91.14457 91.14457 163.65654
#
# Poissons Ratio (x) = 0.24918 0.30960
# Poissons Ratio (y) = 0.24918 0.30960
# Poissons Ratio (z) = 0.17243 0.17243
#
# Static dielectric constant tensor:
#      x y z
#    x 4.231770 0.000000 0.000000 
#    y 0.000000 4.231770 0.000000 
#    z 0.000000 0.000000 4.982400 
# 
# 
# High freq. dielectric constant tensor:
#      x y z
#    x 1.948560 0.000000 0.000000 
#    y 0.000000 1.948560 0.000000 
#    z 0.000000 0.000000 2.004090 
# 
# From -- ./inp_files/17959.got.cif
#   From: 2010.03.12/outbox.cif.g09.slc.cpg/sg91_9_cif.got.tgz:17959.got - 2010.04.08 20:27:58.
