data_PCOD8305519
_publ_section_title
;
Structure prediction by ZEFSAII (Michael W. Deem and Ramdas Pophale) SiO2 
 PCOD8305519
Probable space group: P 42 2 2
;
_chemical_formula_sum "Si O2"
_cell_formula_units_Z 40
_cell_length_a 15.032796
_cell_length_b 15.032796
_cell_length_c 9.881591
_cell_angle_alpha 90.000000
_cell_angle_beta 90.000000
_cell_angle_gamma 90.000000
_cell_volume 2233.090903
_symmetry_space_group_name_H-M "P 42 2 2"
_symmetry_group_IT_number 93
_symmetry_cell_setting 'tetragonal'
loop_
_space_group_symop_operation_xyz
x,y,z
-y,x,1/2+z
-x,-y,z
y,-x,1/2+z
x,-y,-z
-x,y,-z
y,x,1/2-z
-y,-x,1/2-z
loop_
_atom_site_type_symbol
_atom_site_label
_atom_site_fract_x
_atom_site_fract_y
_atom_site_fract_z
Si Si1 0.395156 0.999336 0.161035
Si Si2 0.601935 0.282055 0.034851
Si Si3 0.749310 0.399904 0.975889
Si Si4 0.680563 0.818895 0.730817
Si Si5 0.318461 0.815137 0.787267
O O1 0.338758 0.080553 0.224198
O O2 0.500000 0.000000 0.207141
O O3 0.338031 0.917354 0.216757
O O4 0.391994 0.000000 0.000000
O O5 0.646796 0.378688 0.015684
O O6 0.614244 0.247333 0.187462
O O7 0.500000 0.287568 0.000000
O O8 0.654336 0.213437 0.937971
O O9 0.814124 0.341239 0.071422
O O10 0.773710 0.500000 0.000000
O O11 0.763868 0.380556 0.818836
O O12 0.782829 0.782829 0.750000
O O13 0.216225 0.783776 0.750000
#
# Coordination Sequence:
#
# PCOD8305519 Si02
#       5
#     8   8   8   8   8
#     4  11  20  33  61  88 105 138 194 237 261 321
#     4  10  18  32  51  71 102 142 186 220 254 320
#     4  10  20  32  47  71 108 144 174 218 274 320
#     4  10  21  35  52  78 110 142 173 223 285 328
#     4  10  21  35  52  78 110 142 173 223 285 328
#
# _framework density 17.912393000000002
#
# number of rings (size 3 to 8) (size 9 to 14) (size 15 to 20)
#    0.000    1.800    2.000    3.600    0.000    1.200 
#    0.000    2.000    0.000    7.800    0.000    1.400 
#    0.000    0.000    0.000    0.000    0.000    0.000 
#
# Total GULP energy -495645.324348 kJ/mol
# GULP energy per Si atom -12391.133109 kJ/mol
# Density = 1.787162 g / cm^3
# Si number density = 17.912393 Si / 1000 Ang^3
#
#
#
# Elastic Constant Matrix: (Units=GPa)
#
#
# Indices 1 2 3 4 5 6 
#
# 1 108.2270 52.9985 9.3813 0.0000 0.0000 0.0000
# 2 52.9985 108.2264 9.3813 0.0000 0.0000 0.0000
# 3 9.3813 9.3813 52.5634 0.0000 0.0000 0.0000
# 4 0.0000 0.0000 0.0000 21.0476 0.0000 0.0000
# 5 0.0000 0.0000 0.0000 0.0000 21.0480 0.0000
# 6 0.0000 0.0000 0.0000 0.0000 0.0000 20.1924
#
#
#
# Elastic Compliance Matrix: (Units=1/GPa)
#
#
# Indices 1 2 3 4 5 6 
#
# 1 0.012220 -0.005886 -0.001130 0.000000 0.000000 0.000000
# 2 -0.005886 0.012220 -0.001130 0.000000 0.000000 0.000000
# 3 -0.001130 -0.001130 0.019428 0.000000 0.000000 0.000000
# 4 0.000000 0.000000 0.000000 0.047511 0.000000 0.000000
# 5 0.000000 0.000000 0.000000 0.000000 0.047511 0.000000
# 6 0.000000 0.000000 0.000000 0.000000 0.000000 0.049524
#
#
# Mechanical properties :
#
#
# Convention : Reuss Voigt Hill
#
# Bulk Modulus (GPa) = 36.26555 45.83766 41.05161
# Shear Modulus (GPa) = 23.37537 25.60798 24.49168
#
# Velocity S-wave (km/s) = 3.61637 3.78514 3.70172
# Velocity P-wave (km/s) = 6.14228 6.68943 6.42168
#
# Compressibility (1/GPa) = 0.02757438
#
# Stress axis : x y z
#
# Youngs Moduli (GPa) = 81.83075 81.83031 51.47170
#
# Poissons Ratio (x) = 0.48168 0.05819
# Poissons Ratio (y) = 0.48168 0.05819
# Poissons Ratio (z) = 0.09251 0.09251
#
# Static dielectric constant tensor:
#      x y z
#    x 3.305640 0.000000 0.000000 
#    y 0.000000 3.305640 0.000000 
#    z 0.000000 0.000000 3.563660 
# 
# 
# High freq. dielectric constant tensor:
#      x y z
#    x 1.671270 0.000000 0.000000 
#    y 0.000000 1.671270 0.000000 
#    z 0.000000 0.000000 1.713460 
# 
# From -- ./inp_files/1803.got.cif
#   From: 2010.03.12/outbox.cif.g09.slc.cpg/sg93_1_cif.got.tgz:1803.got - 2010.04.08 20:44:19.
