data_PCOD8305811
_publ_section_title
;
Structure prediction by ZEFSAII (Michael W. Deem and Ramdas Pophale) SiO2 
 PCOD8305811
Probable space group: P 43 2 2
;
_chemical_formula_sum "Si O2"
_cell_formula_units_Z 44
_cell_length_a 11.500759
_cell_length_b 11.500759
_cell_length_c 17.299426
_cell_angle_alpha 90.000000
_cell_angle_beta 90.000000
_cell_angle_gamma 90.000000
_cell_volume 2288.151095
_symmetry_space_group_name_H-M "P 43 2 2"
_symmetry_group_IT_number 95
_symmetry_cell_setting 'tetragonal'
loop_
_space_group_symop_operation_xyz
x,y,z
-y,x,3/4+z
-x,-y,1/2+z
y,-x,1/4+z
x,-y,1/2-z
-x,y,-z
y,x,1/4-z
-y,-x,3/4-z
loop_
_atom_site_type_symbol
_atom_site_label
_atom_site_fract_x
_atom_site_fract_y
_atom_site_fract_z
Si Si1 0.486582 0.148492 0.394634
Si Si2 0.044583 0.044583 0.125000
Si Si3 0.816126 0.033822 0.027670
Si Si4 0.133016 0.413958 0.489951
Si Si5 0.696474 0.205966 0.488459
Si Si6 0.431141 0.106807 0.930571
O O1 0.480769 0.151557 0.301144
O O2 0.593067 0.227266 0.426530
O O3 0.361749 0.188685 0.426694
O O4 0.515316 0.021567 0.427580
O O5 0.063450 0.141481 0.190933
O O6 0.916425 0.059377 0.089547
O O7 0.705880 0.112674 0.050659
O O8 0.778823 0.900552 0.034094
O O9 0.220226 0.314547 0.514065
O O10 0.163681 0.455391 0.403310
O O11 0.000000 0.368010 0.500000
O O12 0.500000 0.173073 0.000000
#
# Coordination Sequence:
#
# PCOD8305811 Si02
#       6
#     8   4   8   8   8   8
#     4   9  18  34  52  79 109 133 178 228 282 319
#     4  10  22  32  48  78 114 150 176 220 282 332
#     4  10  20  33  48  72 113 149 182 217 267 333
#     4  10  21  30  55  86 105 139 186 225 281 331
#     4  10  18  32  54  80 110 139 175 236 277 314
#     4  10  18  36  50  71 105 146 180 226 259 316
#
# _framework density 19.229498
#
# number of rings (size 3 to 8) (size 9 to 14) (size 15 to 20)
#    0.000    2.182    3.636    1.636   10.182    0.000 
#    0.000    5.455    0.000    0.000   14.182    0.000 
#    0.000    0.000    0.000    0.000    0.000    0.000 
#
# Total GULP energy -545296.605535 kJ/mol
# GULP energy per Si atom -12393.104671 kJ/mol
# Density = 1.918573 g / cm^3
# Si number density = 19.229498 Si / 1000 Ang^3
#
#
#
# Elastic Constant Matrix: (Units=GPa)
#
#
# Indices 1 2 3 4 5 6 
#
# 1 43.8459 2.1486 22.9618 0.0000 0.0000 0.0000
# 2 2.1486 43.8459 22.9618 0.0000 0.0000 0.0000
# 3 22.9618 22.9618 173.4409 0.0000 0.0000 0.0000
# 4 0.0000 0.0000 0.0000 20.5611 0.0000 0.0000
# 5 0.0000 0.0000 0.0000 0.0000 20.5611 0.0000
# 6 0.0000 0.0000 0.0000 0.0000 0.0000 4.9112
#
#
#
# Elastic Compliance Matrix: (Units=1/GPa)
#
#
# Indices 1 2 3 4 5 6 
#
# 1 0.024518 0.000536 -0.003317 0.000000 0.000000 0.000000
# 2 0.000536 0.024518 -0.003317 0.000000 0.000000 0.000000
# 3 -0.003317 -0.003317 0.006644 0.000000 0.000000 0.000000
# 4 0.000000 0.000000 0.000000 0.048636 0.000000 0.000000
# 5 0.000000 0.000000 0.000000 0.000000 0.048636 0.000000
# 6 0.000000 0.000000 0.000000 0.000000 0.000000 0.203616
#
#
# Mechanical properties :
#
#
# Convention : Reuss Voigt Hill
#
# Bulk Modulus (GPa) = 22.99727 39.69746 31.34736
# Shear Modulus (GPa) = 13.04607 23.41071 18.22839
#
# Velocity S-wave (km/s) = 2.60751 3.49296 3.08220
# Velocity P-wave (km/s) = 4.58812 6.07919 5.38551
#
# Compressibility (1/GPa) = 0.04348343
#
# Stress axis : x y z
#
# Youngs Moduli (GPa) = 40.78657 40.78657 150.51451
#
# Poissons Ratio (x) = -0.02184 0.49923
# Poissons Ratio (y) = -0.02184 0.49923
# Poissons Ratio (z) = 0.13528 0.13528
#
# Static dielectric constant tensor:
#      x y z
#    x 3.245230 0.000000 0.000000 
#    y 0.000000 3.245230 0.000000 
#    z 0.000000 0.000000 4.058340 
# 
# 
# High freq. dielectric constant tensor:
#      x y z
#    x 1.711560 0.000000 0.000000 
#    y 0.000000 1.711560 0.000000 
#    z 0.000000 0.000000 1.774780 
# 
# From -- ./inp_files/5534.got.cif
#   From: 2010.03.12/outbox.cif.g09.slc.cpg/sg95_3_cif.got.tgz:5534.got - 2010.04.08 20:51:55.
