data_PCOD8305560
_publ_section_title
;
Structure prediction by ZEFSAII (Michael W. Deem and Ramdas Pophale) SiO2 
 PCOD8305560
Probable space group: P 42 2 2
;
_chemical_formula_sum "Si O2"
_cell_formula_units_Z 56
_cell_length_a 21.347061
_cell_length_b 21.347061
_cell_length_c 10.102724
_cell_angle_alpha 90.000000
_cell_angle_beta 90.000000
_cell_angle_gamma 90.000000
_cell_volume 4603.781153
_symmetry_space_group_name_H-M "P 42 2 2"
_symmetry_group_IT_number 93
_symmetry_cell_setting 'tetragonal'
loop_
_space_group_symop_operation_xyz
x,y,z
-y,x,1/2+z
-x,-y,z
y,-x,1/2+z
x,-y,-z
-x,y,-z
y,x,1/2-z
-y,-x,1/2-z
loop_
_atom_site_type_symbol
_atom_site_label
_atom_site_fract_x
_atom_site_fract_y
_atom_site_fract_z
Si Si1 0.925601 0.291129 0.008974
Si Si2 0.074489 0.494951 0.149357
Si Si3 0.700977 0.074459 0.009842
Si Si4 0.073494 0.374259 0.754747
Si Si5 0.835314 0.057579 0.096898
Si Si6 0.159184 0.057847 0.596340
Si Si7 0.075656 0.639221 0.755835
O O1 0.898920 0.337292 0.120273
O O2 0.905736 0.220291 0.042062
O O3 0.898412 0.315221 0.870322
O O4 0.000000 0.294171 0.000000
O O5 0.096838 0.554096 0.236623
O O6 0.099864 0.431868 0.220004
O O7 0.000000 0.500000 0.141654
O O8 0.101230 0.500000 0.000000
O O9 0.655304 0.101497 0.122094
O O10 0.772592 0.093202 0.045224
O O11 0.672371 0.103037 0.875288
O O12 0.699404 0.000000 0.000000
O O13 0.998946 0.365869 0.753107
O O14 0.894070 0.102851 0.087833
O O15 0.827888 0.035489 0.251099
O O16 0.849979 0.000000 0.000000
O O17 0.142827 0.000000 0.500000
#
# Coordination Sequence:
#
# PCOD8305560 Si02
#       7
#     8   8   8   8   8   8   8
#     4   9  15  25  40  55  66  89 114 133 157 207
#     4   9  14  20  32  51  72  94 116 137 151 174
#     4   9  17  27  38  53  70  92 107 135 171 202
#     4   9  14  23  36  50  71  92 114 131 155 189
#     4  10  21  35  46  59  75  85 106 147 185 225
#     4  10  21  34  48  60  69  88 113 138 181 236
#     4   9  16  23  35  53  73  91 114 134 156 186
#
# _framework density 12.163914
#
# number of rings (size 3 to 8) (size 9 to 14) (size 15 to 20)
#    0.000    2.714    2.857    0.000    6.000    1.429 
#    0.000    4.286    0.000    0.000    0.000    0.000 
#    0.000    0.000    0.000    0.000    0.000    0.000 
#
# Total GULP energy -693825.961371 kJ/mol
# GULP energy per Si atom -12389.749310 kJ/mol
# Density = 1.213623 g / cm^3
# Si number density = 12.163914 Si / 1000 Ang^3
#
#
#
# Elastic Constant Matrix: (Units=GPa)
#
#
# Indices 1 2 3 4 5 6 
#
# 1 47.9619 19.0411 34.8371 0.0000 0.0000 0.0000
# 2 19.0411 47.9619 34.8371 0.0000 0.0000 0.0000
# 3 34.8371 34.8371 114.6412 0.0000 0.0000 0.0000
# 4 0.0000 0.0000 0.0000 15.5405 0.0000 0.0000
# 5 0.0000 0.0000 0.0000 0.0000 15.5405 0.0000
# 6 0.0000 0.0000 0.0000 0.0000 0.0000 -0.1182
#
#
#
# Elastic Compliance Matrix: (Units=1/GPa)
#
#
# Indices 1 2 3 4 5 6 
#
# 1 0.028198 -0.006379 -0.006630 0.000000 0.000000 0.000000
# 2 -0.006379 0.028198 -0.006630 0.000000 0.000000 0.000000
# 3 -0.006630 -0.006630 0.012753 0.000000 0.000000 0.000000
# 4 0.000000 0.000000 0.000000 0.064348 0.000000 0.000000
# 5 0.000000 0.000000 0.000000 0.000000 0.064348 0.000000
# 6 0.000000 0.000000 0.000000 0.000000 0.000000 -8.460846
#
#
# Mechanical properties :
#
#
# Convention : Reuss Voigt Hill
#
# Bulk Modulus (GPa) = 33.47877 43.11061 38.29469
# Shear Modulus (GPa) = -0.60873 14.31587 6.85357
#
# Velocity S-wave (km/s) = -0.70819 3.43434 2.37625
# Velocity P-wave (km/s) = 5.18788 7.15853 6.25135
#
# Compressibility (1/GPa) = 0.02986968
#
# Stress axis : x y z
#
# Youngs Moduli (GPa) = 35.46305 35.46305 78.41536
#
# Poissons Ratio (x) = 0.22621 0.51993
# Poissons Ratio (y) = 0.22621 0.51993
# Poissons Ratio (z) = 0.23514 0.23514
#
# Static dielectric constant tensor:
#      x y z
#    x 2.302340 0.000000 0.000000 
#    y 0.000000 2.302340 0.000000 
#    z 0.000000 0.000000 2.859940 
# 
# 
# High freq. dielectric constant tensor:
#      x y z
#    x 1.418160 0.000000 0.000000 
#    y 0.000000 1.418160 0.000000 
#    z 0.000000 0.000000 1.483420 
# 
# From -- ./inp_files/2253.got.cif
#   From: 2010.03.12/outbox.cif.g09.slc.cpg/sg93_2_cif.got.tgz:2253.got - 2010.04.08 20:44:19.
