data_PCOD8305823
_publ_section_title
;
Structure prediction by ZEFSAII (Michael W. Deem and Ramdas Pophale) SiO2 
 PCOD8305823
Probable space group: P 43 2 2
;
_chemical_formula_sum "Si O2"
_cell_formula_units_Z 60
_cell_length_a 16.889633
_cell_length_b 16.889633
_cell_length_c 9.535982
_cell_angle_alpha 90.000000
_cell_angle_beta 90.000000
_cell_angle_gamma 90.000000
_cell_volume 2720.231392
_symmetry_space_group_name_H-M "P 43 2 2"
_symmetry_group_IT_number 95
_symmetry_cell_setting 'tetragonal'
loop_
_space_group_symop_operation_xyz
x,y,z
-y,x,3/4+z
-x,-y,1/2+z
y,-x,1/4+z
x,-y,1/2-z
-x,y,-z
y,x,1/4-z
-y,-x,3/4-z
loop_
_atom_site_type_symbol
_atom_site_label
_atom_site_fract_x
_atom_site_fract_y
_atom_site_fract_z
Si Si1 0.692968 0.948227 0.384997
Si Si2 0.593437 0.327436 0.506246
Si Si3 0.846501 0.822629 0.970062
Si Si4 0.152418 0.582445 0.323798
Si Si5 0.053512 0.728996 0.638346
Si Si6 0.407311 0.322822 0.009010
Si Si7 0.423958 0.851807 0.092021
Si Si8 0.000000 0.074200 0.500000
O O1 0.735551 0.867037 0.337486
O O2 0.627969 0.921428 0.501339
O O3 0.661842 0.000000 0.250000
O O4 0.755180 0.002059 0.475262
O O5 0.500000 0.350118 0.500000
O O6 0.643458 0.356543 0.375000
O O7 0.641242 0.374671 0.619586
O O8 0.602653 0.234170 0.535840
O O9 0.785675 0.870254 0.869398
O O10 0.926822 0.870391 0.970131
O O11 0.810968 0.810968 0.125000
O O12 0.155151 0.500000 0.250000
O O13 0.235568 0.628231 0.295142
O O14 0.145583 0.564285 0.489831
O O15 0.083574 0.642813 0.685544
O O16 0.000000 0.729108 0.500000
O O17 0.386343 0.386343 0.125000
O O18 0.500000 0.314276 0.000000
O O19 0.500000 0.878455 0.000000
O O20 0.014415 0.014415 0.625000
#
# Coordination Sequence:
#
# PCOD8305823 Si02
#       8
#     8   8   8   8   8   8   8   4
#     4  12  25  48  75 108 147 191 247 305 371 448
#     4  11  25  43  70 106 147 196 254 305 374 453
#     4  11  23  44  71 101 146 188 240 298 354 446
#     4  11  27  47  73 107 142 192 248 308 377 444
#     4  12  27  48  72 112 148 187 249 309 372 443
#     4  11  23  41  68 101 148 194 244 307 373 445
#     4  11  27  50  73 104 148 192 250 312 374 449
#     4  10  20  38  60  96 138 184 236 278 354 426
#
# _framework density 22.056946
#
# number of rings (size 3 to 8) (size 9 to 14) (size 15 to 20)
#    0.000    0.800    4.667    1.600   10.267    3.200 
#    0.000    0.000    0.000    0.000    0.000    0.000 
#    0.000    0.000    0.000    0.000    0.000    0.000 
#
# Total GULP energy -743461.565076 kJ/mol
# GULP energy per Si atom -12391.026085 kJ/mol
# Density = 2.200674 g / cm^3
# Si number density = 22.056946 Si / 1000 Ang^3
#
#
#
# Elastic Constant Matrix: (Units=GPa)
#
#
# Indices 1 2 3 4 5 6 
#
# 1 89.6560 40.8929 51.1564 0.0000 0.0000 0.0000
# 2 40.8929 89.6564 51.1564 0.0000 0.0000 0.0000
# 3 51.1564 51.1564 176.7020 0.0000 0.0000 0.0000
# 4 0.0000 0.0000 0.0000 43.8105 0.0000 0.0000
# 5 0.0000 0.0000 0.0000 0.0000 43.8103 0.0000
# 6 0.0000 0.0000 0.0000 0.0000 0.0000 37.4974
#
#
#
# Elastic Compliance Matrix: (Units=1/GPa)
#
#
# Indices 1 2 3 4 5 6 
#
# 1 0.015208 -0.005300 -0.002868 0.000000 0.000000 0.000000
# 2 -0.005300 0.015208 -0.002868 0.000000 0.000000 0.000000
# 3 -0.002868 -0.002868 0.007320 0.000000 0.000000 0.000000
# 4 0.000000 0.000000 0.000000 0.022826 0.000000 0.000000
# 5 0.000000 0.000000 0.000000 0.000000 0.022826 0.000000
# 6 0.000000 0.000000 0.000000 0.000000 0.000000 0.026669
#
#
# Mechanical properties :
#
#
# Convention : Reuss Voigt Hill
#
# Bulk Modulus (GPa) = 63.84741 71.38066 67.61404
# Shear Modulus (GPa) = 36.40367 39.21090 37.80728
#
# Velocity S-wave (km/s) = 4.06697 4.22087 4.14463
# Velocity P-wave (km/s) = 7.14585 7.49577 7.32290
#
# Compressibility (1/GPa) = 0.01566234
#
# Stress axis : x y z
#
# Youngs Moduli (GPa) = 65.75646 65.75675 136.61018
#
# Poissons Ratio (x) = 0.34849 0.39186
# Poissons Ratio (y) = 0.34849 0.39185
# Poissons Ratio (z) = 0.18862 0.18862
#
# Static dielectric constant tensor:
#      x y z
#    x 4.905970 0.000000 0.000000 
#    y 0.000000 4.905830 0.000000 
#    z 0.000000 0.000000 4.052280 
# 
# 
# High freq. dielectric constant tensor:
#      x y z
#    x 1.871350 0.000000 0.000000 
#    y 0.000000 1.871350 0.000000 
#    z 0.000000 0.000000 1.885400 
# 
# From -- ./inp_files/2836.got.cif
#   From: 2010.03.12/outbox.cif.g09.slc.cpg/sg95_2_cif.got.tgz:2836.got - 2010.04.08 20:51:55.
