data_PCOD8305348
_publ_section_title
;
Structure prediction by ZEFSAII (Michael W. Deem and Ramdas Pophale) SiO2 
 PCOD8305348
Probable space group: P 41 21 2
;
_chemical_formula_sum "Si O2"
_cell_formula_units_Z 60
_cell_length_a 17.246057
_cell_length_b 17.246057
_cell_length_c 9.171046
_cell_angle_alpha 90.000000
_cell_angle_beta 90.000000
_cell_angle_gamma 90.000000
_cell_volume 2727.711948
_symmetry_space_group_name_H-M "P 41 21 2"
_symmetry_group_IT_number 92
_symmetry_cell_setting 'tetragonal'
loop_
_space_group_symop_operation_xyz
x,y,z
1/2-y,1/2+x,1/4+z
-x,-y,1/2+z
1/2+y,1/2-x,3/4+z
1/2+x,1/2-y,3/4-z
1/2-x,1/2+y,1/4-z
y,x,-z
-y,-x,1/2-z
loop_
_atom_site_type_symbol
_atom_site_label
_atom_site_fract_x
_atom_site_fract_y
_atom_site_fract_z
Si Si1 0.585182 0.005587 0.604654
Si Si2 0.836692 0.025376 0.999398
Si Si3 0.811794 0.222397 0.418173
Si Si4 0.205782 0.126196 0.622673
Si Si5 0.489306 0.510695 0.250000
Si Si6 0.342724 0.180183 0.826398
Si Si7 0.646570 0.448810 0.538557
Si Si8 0.627600 0.199362 0.892832
O O1 0.522160 0.039085 0.713738
O O2 0.645118 0.072113 0.553728
O O3 0.629770 0.932400 0.676291
O O4 0.923818 0.019205 0.065810
O O5 0.837155 0.019374 0.823592
O O6 0.791427 0.098479 0.059916
O O7 0.780539 0.955554 0.046079
O O8 0.788635 0.211366 0.250000
O O9 0.769092 0.158477 0.521348
O O10 0.790222 0.309982 0.475755
O O11 0.193783 0.193783 0.500000
O O12 0.280204 0.139921 0.721178
O O13 0.127544 0.114779 0.712239
O O14 0.421709 0.518392 0.134875
O O15 0.316003 0.173778 0.993512
O O16 0.723559 0.424514 0.627459
#
# Coordination Sequence:
#
# PCOD8305348 Si02
#       8
#     8   8   8   8   4   8   8   8
#     4  10  26  48  72 105 140 184 240 302 369 429
#     4  11  27  42  67 107 149 186 239 296 361 431
#     4  12  29  45  73 107 142 191 247 303 362 438
#     4  10  21  43  68 101 142 187 235 288 358 438
#     4  12  24  40  68 106 146 188 242 286 366 440
#     4  11  24  46  73 105 142 180 249 298 359 440
#     4  11  23  41  72  97 140 198 226 292 360 433
#     4  11  26  47  73 105 136 189 242 299 361 436
#
# _framework density 21.996459000000002
#
# number of rings (size 3 to 8) (size 9 to 14) (size 15 to 20)
#    0.000    1.067    3.333    2.000    9.333    5.333 
#    0.000    0.000    0.000    0.000    0.000    0.000 
#    0.000    0.000    0.000    0.000    0.000    0.000 
#
# Total GULP energy -743713.931501 kJ/mol
# GULP energy per Si atom -12395.232192 kJ/mol
# Density = 2.194639 g / cm^3
# Si number density = 21.996459 Si / 1000 Ang^3
#
#
#
# Elastic Constant Matrix: (Units=GPa)
#
#
# Indices 1 2 3 4 5 6 
#
# 1 89.0907 39.2837 44.7164 0.0000 0.0000 0.0000
# 2 39.2837 89.0886 44.7161 0.0000 0.0000 0.0000
# 3 44.7164 44.7161 112.5231 0.0000 0.0000 0.0000
# 4 0.0000 0.0000 0.0000 39.1104 0.0000 0.0000
# 5 0.0000 0.0000 0.0000 0.0000 39.1074 0.0000
# 6 0.0000 0.0000 0.0000 0.0000 0.0000 40.2431
#
#
#
# Elastic Compliance Matrix: (Units=1/GPa)
#
#
# Indices 1 2 3 4 5 6 
#
# 1 0.015425 -0.004653 -0.004281 0.000000 0.000000 0.000000
# 2 -0.004653 0.015425 -0.004281 0.000000 0.000000 0.000000
# 3 -0.004281 -0.004281 0.012289 0.000000 0.000000 0.000000
# 4 0.000000 0.000000 0.000000 0.025569 0.000000 0.000000
# 5 0.000000 0.000000 0.000000 0.000000 0.025571 0.000000
# 6 0.000000 0.000000 0.000000 0.000000 0.000000 0.024849
#
#
# Mechanical properties :
#
#
# Convention : Reuss Voigt Hill
#
# Bulk Modulus (GPa) = 59.84308 60.90387 60.37347
# Shear Modulus (GPa) = 33.08485 34.49126 33.78805
#
# Velocity S-wave (km/s) = 3.88248 3.96414 3.92352
# Velocity P-wave (km/s) = 6.88208 6.97859 6.93050
#
# Compressibility (1/GPa) = 0.01671037
#
# Stress axis : x y z
#
# Youngs Moduli (GPa) = 64.83083 64.82910 81.37110
#
# Poissons Ratio (x) = 0.30165 0.34833
# Poissons Ratio (y) = 0.30166 0.34833
# Poissons Ratio (z) = 0.27752 0.27752
#
# Static dielectric constant tensor:
#      x y z
#    x 3.971260 0.000000 0.000000 
#    y 0.000000 3.971240 0.000000 
#    z 0.000000 0.000000 4.489870 
# 
# 
# High freq. dielectric constant tensor:
#      x y z
#    x 1.873070 0.000000 0.000000 
#    y 0.000000 1.873070 0.000000 
#    z 0.000000 0.000000 1.864790 
# 
# From -- ./inp_files/1652.got.cif
#   From: 2010.03.12/outbox.cif.g09.slc.cpg/sg92_1_cif.got.tgz:1652.got - 2010.04.08 20:41:11.
