data_PCOD8305784
_publ_section_title
;
Structure prediction by ZEFSAII (Michael W. Deem and Ramdas Pophale) SiO2 
 PCOD8305784
Probable space group: P 42 21 2
;
_chemical_formula_sum "Si O2"
_cell_formula_units_Z 40
_cell_length_a 12.342180
_cell_length_b 12.342180
_cell_length_c 12.425474
_cell_angle_alpha 90.000000
_cell_angle_beta 90.000000
_cell_angle_gamma 90.000000
_cell_volume 1892.765088
_symmetry_space_group_name_H-M "P 42 21 2"
_symmetry_group_IT_number 94
_symmetry_cell_setting 'tetragonal'
loop_
_space_group_symop_operation_xyz
x,y,z
1/2-y,1/2+x,1/2+z
-x,-y,z
1/2+y,1/2-x,1/2+z
1/2+x,1/2-y,1/2-z
1/2-x,1/2+y,1/2-z
y,x,-z
-y,-x,-z
loop_
_atom_site_type_symbol
_atom_site_label
_atom_site_fract_x
_atom_site_fract_y
_atom_site_fract_z
Si Si1 0.608093 0.063379 0.352964
Si Si2 0.231454 0.040448 0.729253
Si Si3 0.291326 0.865136 0.563085
Si Si4 0.590421 0.590923 0.617887
Si Si5 0.426115 0.727883 0.734069
O O1 0.605157 0.162652 0.268576
O O2 0.619261 0.105945 0.474247
O O3 0.500000 0.000000 0.338545
O O4 0.698168 0.972475 0.328643
O O5 0.136033 0.127587 0.710687
O O6 0.250283 0.975657 0.618528
O O7 0.195171 0.952408 0.818612
O O8 0.192686 0.807315 0.500000
O O9 0.345433 0.786799 0.650931
O O10 0.500000 0.500000 0.607449
O O11 0.628900 0.628900 0.500000
O O12 0.536149 0.692977 0.674672
#
# Coordination Sequence:
#
# PCOD8305784 Si02
#       5
#     8   8   8   8   8
#     4  12  26  43  68 101 136 183 237 295 361 425
#     4  11  24  46  68 102 143 184 236 298 359 434
#     4  12  25  45  75 100 140 189 234 301 368 433
#     4   9  19  37  66  98 129 173 226 279 342 420
#     4  11  24  44  69 101 141 185 238 293 357 435
#
# _framework density 21.133102999999998
#
# number of rings (size 3 to 8) (size 9 to 14) (size 15 to 20)
#    0.000    1.000    4.000    2.400    5.600    0.800 
#    0.000    1.000    0.000    0.000    0.000    0.000 
#    0.000    0.000    0.000    0.000    0.000    0.000 
#
# Total GULP energy -496002.874550 kJ/mol
# GULP energy per Si atom -12400.071864 kJ/mol
# Density = 2.108500 g / cm^3
# Si number density = 21.133103 Si / 1000 Ang^3
#
#
#
# Elastic Constant Matrix: (Units=GPa)
#
#
# Indices 1 2 3 4 5 6 
#
# 1 110.9467 22.7230 27.5462 0.0000 0.0000 0.0000
# 2 22.7230 110.9445 27.5467 0.0000 0.0000 0.0000
# 3 27.5462 27.5467 73.0289 0.0000 0.0000 0.0000
# 4 0.0000 0.0000 0.0000 -11.6467 0.0000 0.0000
# 5 0.0000 0.0000 0.0000 0.0000 -11.6436 0.0000
# 6 0.0000 0.0000 0.0000 0.0000 0.0000 28.2969
#
#
#
# Elastic Compliance Matrix: (Units=1/GPa)
#
#
# Indices 1 2 3 4 5 6 
#
# 1 0.010097 -0.001238 -0.003341 0.000000 0.000000 0.000000
# 2 -0.001238 0.010097 -0.003341 0.000000 0.000000 0.000000
# 3 -0.003341 -0.003341 0.016214 0.000000 0.000000 0.000000
# 4 0.000000 0.000000 0.000000 -0.085861 0.000000 0.000000
# 5 0.000000 0.000000 0.000000 0.000000 -0.085884 0.000000
# 6 0.000000 0.000000 0.000000 0.000000 0.000000 0.035340
#
#
# Mechanical properties :
#
#
# Convention : Reuss Voigt Hill
#
# Bulk Modulus (GPa) = 48.62587 50.06134 49.34361
# Shear Modulus (GPa) = -64.68201 15.47493 -24.60354
#
# Velocity S-wave (km/s) = -5.53836 2.70897 -3.41577
# Velocity P-wave (km/s) = 4.22358 5.79005 2.80054
#
# Compressibility (1/GPa) = 0.02056518
#
# Stress axis : x y z
#
# Youngs Moduli (GPa) = 99.04389 99.04135 61.67535
#
# Poissons Ratio (x) = 0.12264 0.20607
# Poissons Ratio (y) = 0.12265 0.20609
# Poissons Ratio (z) = 0.33093 0.33094
#
# Static dielectric constant tensor:
#      x y z
#    x 5.423940 0.000000 0.000000 
#    y 0.000000 5.423780 0.000000 
#    z 0.000000 0.000000 3.618610 
# 
# 
# High freq. dielectric constant tensor:
#      x y z
#    x 1.833960 0.000000 0.000000 
#    y 0.000000 1.833960 0.000000 
#    z 0.000000 0.000000 1.820460 
# 
# From -- ./inp_files/3421.got.cif
#   From: 2010.03.12/outbox.cif.g09.slc.cpg/sg94_2_cif.got.tgz:3421.got - 2010.04.08 20:48:32.
