data_PCOD8305420
_publ_section_title
;
Structure prediction by ZEFSAII (Michael W. Deem and Ramdas Pophale) SiO2 
 PCOD8305420
Probable space group: P 41 21 2
;
_chemical_formula_sum "Si O2"
_cell_formula_units_Z 40
_cell_length_a 14.627488
_cell_length_b 14.627488
_cell_length_c 8.747793
_cell_angle_alpha 90.000000
_cell_angle_beta 90.000000
_cell_angle_gamma 90.000000
_cell_volume 1871.707578
_symmetry_space_group_name_H-M "P 41 21 2"
_symmetry_group_IT_number 92
_symmetry_cell_setting 'tetragonal'
loop_
_space_group_symop_operation_xyz
x,y,z
1/2-y,1/2+x,1/4+z
-x,-y,1/2+z
1/2+y,1/2-x,3/4+z
1/2+x,1/2-y,3/4-z
1/2-x,1/2+y,1/4-z
y,x,-z
-y,-x,1/2-z
loop_
_atom_site_type_symbol
_atom_site_label
_atom_site_fract_x
_atom_site_fract_y
_atom_site_fract_z
Si Si1 0.255581 0.365557 0.298103
Si Si2 0.941968 0.078469 0.576473
Si Si3 0.282070 0.007390 0.412894
Si Si4 0.892115 0.539316 0.619262
Si Si5 0.306015 0.855515 0.631302
O O1 0.337680 0.426213 0.230320
O O2 0.161015 0.377626 0.203809
O O3 0.283793 0.258296 0.290336
O O4 0.246863 0.398941 0.474054
O O5 0.945934 0.054067 0.750000
O O6 0.984609 0.178031 0.549924
O O7 0.001033 0.001033 0.500000
O O8 0.302093 0.110687 0.461752
O O9 0.312698 0.004654 0.235773
O O10 0.340902 0.935885 0.516811
O O11 0.927315 0.473090 0.756117
#
# Coordination Sequence:
#
# PCOD8305420 Si02
#       5
#     8   8   8   8   8
#     4  10  25  48  67  98 139 186 232 289 354 416
#     4  11  25  45  69  98 141 183 236 288 351 419
#     4  11  23  44  69  99 141 178 231 288 350 419
#     4  12  27  45  69 104 140 187 234 289 359 424
#     4  10  24  44  70 100 138 181 238 292 350 417
#
# _framework density 21.370858999999999
#
# number of rings (size 3 to 8) (size 9 to 14) (size 15 to 20)
#    0.000    1.200    4.000    0.000   14.000    0.000 
#    3.600    0.000    0.000    0.000    0.000    0.000 
#    0.000    0.000    0.000    0.000    0.000    0.000 
#
# Total GULP energy -495759.499651 kJ/mol
# GULP energy per Si atom -12393.987491 kJ/mol
# Density = 2.132222 g / cm^3
# Si number density = 21.370859 Si / 1000 Ang^3
#
#
#
# Elastic Constant Matrix: (Units=GPa)
#
#
# Indices 1 2 3 4 5 6 
#
# 1 102.8263 60.8586 59.5038 0.0000 0.0000 0.0000
# 2 60.8586 102.8256 59.5036 0.0000 0.0000 0.0000
# 3 59.5038 59.5036 139.3018 0.0000 0.0000 0.0000
# 4 0.0000 0.0000 0.0000 44.9041 0.0000 0.0000
# 5 0.0000 0.0000 0.0000 0.0000 44.9051 0.0000
# 6 0.0000 0.0000 0.0000 0.0000 0.0000 36.2394
#
#
#
# Elastic Compliance Matrix: (Units=1/GPa)
#
#
# Indices 1 2 3 4 5 6 
#
# 1 0.016345 -0.007483 -0.003785 0.000000 0.000000 0.000000
# 2 -0.007483 0.016345 -0.003785 0.000000 0.000000 0.000000
# 3 -0.003785 -0.003785 0.010412 0.000000 0.000000 0.000000
# 4 0.000000 0.000000 0.000000 0.022270 0.000000 0.000000
# 5 0.000000 0.000000 0.000000 0.000000 0.022269 0.000000
# 6 0.000000 0.000000 0.000000 0.000000 0.000000 0.027594
#
#
# Mechanical properties :
#
#
# Convention : Reuss Voigt Hill
#
# Bulk Modulus (GPa) = 76.95653 78.29840 77.62747
# Shear Modulus (GPa) = 33.40598 36.21556 34.81077
#
# Velocity S-wave (km/s) = 3.95797 4.12105 4.04033
# Velocity P-wave (km/s) = 7.54821 7.70464 7.62683
#
# Compressibility (1/GPa) = 0.01299435
#
# Stress axis : x y z
#
# Youngs Moduli (GPa) = 61.18218 61.18176 96.03944
#
# Poissons Ratio (x) = 0.45784 0.36353
# Poissons Ratio (y) = 0.45785 0.36353
# Poissons Ratio (z) = 0.23159 0.23158
#
# Static dielectric constant tensor:
#      x y z
#    x 3.736940 0.000000 0.000000 
#    y 0.000000 3.736830 0.000000 
#    z 0.000000 0.000000 4.497650 
# 
# 
# High freq. dielectric constant tensor:
#      x y z
#    x 1.832940 0.000000 0.000000 
#    y 0.000000 1.832940 0.000000 
#    z 0.000000 0.000000 1.855570 
# 
# From -- ./inp_files/1296.got.cif
#   From: 2010.03.12/outbox.cif.g09.slc.cpg/sg92_1_cif.got.tgz:1296.got - 2010.04.08 20:41:11.
