data_PCOD8305532
_publ_section_title
;
Structure prediction by ZEFSAII (Michael W. Deem and Ramdas Pophale) SiO2 
 PCOD8305532
Probable space group: P 42 2 2
;
_chemical_formula_sum "Si O2"
_cell_formula_units_Z 44
_cell_length_a 8.644064
_cell_length_b 8.644064
_cell_length_c 30.989782
_cell_angle_alpha 90.000000
_cell_angle_beta 90.000000
_cell_angle_gamma 90.000000
_cell_volume 2315.551628
_symmetry_space_group_name_H-M "P 42 2 2"
_symmetry_group_IT_number 93
_symmetry_cell_setting 'tetragonal'
loop_
_space_group_symop_operation_xyz
x,y,z
-y,x,1/2+z
-x,-y,z
y,-x,1/2+z
x,-y,-z
-x,y,-z
y,x,1/2-z
-y,-x,1/2-z
loop_
_atom_site_type_symbol
_atom_site_label
_atom_site_fract_x
_atom_site_fract_y
_atom_site_fract_z
Si Si1 0.646091 0.407627 0.415278
Si Si2 0.683170 0.844427 0.122160
Si Si3 0.000000 0.500000 0.691901
Si Si4 0.492092 0.742551 0.741825
Si Si5 0.948020 0.324301 0.454996
Si Si6 0.828796 0.466265 0.855691
O O1 0.500000 0.500000 0.437475
O O2 0.758600 0.523562 0.390003
O O3 0.759574 0.317546 0.449082
O O4 0.573917 0.289203 0.381504
O O5 0.806688 0.715508 0.135060
O O6 0.647337 0.954495 0.162687
O O7 0.752210 0.954071 0.084174
O O8 0.137783 0.449064 0.722780
O O9 0.597293 0.597293 0.750000
O O10 0.315026 0.684975 0.750000
O O11 0.507002 0.812617 0.694365
O O12 0.000000 0.500000 0.457132
O O13 0.000000 0.242398 0.500000
O O14 0.000000 0.500000 0.872161
#
# Coordination Sequence:
#
# PCOD8305532 Si02
#       6
#     8   8   4   8   8   8
#     4   9  18  33  58  82 108 144 183 227 281 342
#     4  10  19  34  59  80 110 150 182 230 290 341
#     4  12  18  34  55  80 112 144 187 228 278 334
#     4  11  23  33  54  80 109 147 188 230 272 340
#     4   9  17  33  58  89 114 139 184 241 290 340
#     4  11  22  37  52  80 113 148 191 232 286 333
#
# _framework density 19.001953
#
# number of rings (size 3 to 8) (size 9 to 14) (size 15 to 20)
#    0.000    1.818    5.455    1.091    5.091    0.000 
#    0.000   16.364    0.000    7.091    0.000    0.000 
#    0.000    0.000    0.000    0.000    0.000    0.000 
#
# Total GULP energy -545261.663454 kJ/mol
# GULP energy per Si atom -12392.310533 kJ/mol
# Density = 1.895870 g / cm^3
# Si number density = 19.001953 Si / 1000 Ang^3
#
#
#
# Elastic Constant Matrix: (Units=GPa)
#
#
# Indices 1 2 3 4 5 6 
#
# 1 93.3526 41.6786 48.1314 0.0000 0.0000 0.0000
# 2 41.6786 93.3523 48.1314 0.0000 0.0000 0.0000
# 3 48.1314 48.1314 136.7213 0.0000 0.0000 0.0000
# 4 0.0000 0.0000 0.0000 16.8751 0.0000 0.0000
# 5 0.0000 0.0000 0.0000 0.0000 16.8749 0.0000
# 6 0.0000 0.0000 0.0000 0.0000 0.0000 20.5583
#
#
#
# Elastic Compliance Matrix: (Units=1/GPa)
#
#
# Indices 1 2 3 4 5 6 
#
# 1 0.014620 -0.004733 -0.003481 0.000000 0.000000 0.000000
# 2 -0.004733 0.014620 -0.003481 0.000000 0.000000 0.000000
# 3 -0.003481 -0.003481 0.009765 0.000000 0.000000 0.000000
# 4 0.000000 0.000000 0.000000 0.059259 0.000000 0.000000
# 5 0.000000 0.000000 0.000000 0.000000 0.059260 0.000000
# 6 0.000000 0.000000 0.000000 0.000000 0.000000 0.048642
#
#
# Mechanical properties :
#
#
# Convention : Reuss Voigt Hill
#
# Bulk Modulus (GPa) = 64.03557 66.58989 65.31273
# Shear Modulus (GPa) = 21.29853 23.22730 22.26291
#
# Velocity S-wave (km/s) = 3.35156 3.50002 3.42659
# Velocity P-wave (km/s) = 6.98211 7.17310 7.07825
#
# Compressibility (1/GPa) = 0.01561632
#
# Stress axis : x y z
#
# Youngs Moduli (GPa) = 68.40146 68.40122 102.40878
#
# Poissons Ratio (x) = 0.32371 0.35645
# Poissons Ratio (y) = 0.32372 0.35645
# Poissons Ratio (z) = 0.23808 0.23808
#
# Static dielectric constant tensor:
#      x y z
#    x 3.586960 0.000000 0.000000 
#    y 0.000000 3.586970 0.000000 
#    z 0.000000 0.000000 3.950850 
# 
# 
# High freq. dielectric constant tensor:
#      x y z
#    x 1.721280 0.000000 0.000000 
#    y 0.000000 1.721280 0.000000 
#    z 0.000000 0.000000 1.739410 
# 
# From -- ./inp_files/7682.got.cif
#   From: 2010.03.12/outbox.cif.g09.slc.cpg/sg93_4_cif.got.tgz:7682.got - 2010.04.08 20:44:19.
