data_PCOD8305840
_publ_section_title
;
Structure prediction by ZEFSAII (Michael W. Deem and Ramdas Pophale) SiO2 
 PCOD8305840
Probable space group: P 43 2 2
;
_chemical_formula_sum "Si O2"
_cell_formula_units_Z 36
_cell_length_a 9.016357
_cell_length_b 9.016357
_cell_length_c 21.721742
_cell_angle_alpha 90.000000
_cell_angle_beta 90.000000
_cell_angle_gamma 90.000000
_cell_volume 1765.862359
_symmetry_space_group_name_H-M "P 43 2 2"
_symmetry_group_IT_number 95
_symmetry_cell_setting 'tetragonal'
loop_
_space_group_symop_operation_xyz
x,y,z
-y,x,3/4+z
-x,-y,1/2+z
y,-x,1/4+z
x,-y,1/2-z
-x,y,-z
y,x,1/4-z
-y,-x,3/4-z
loop_
_atom_site_type_symbol
_atom_site_label
_atom_site_fract_x
_atom_site_fract_y
_atom_site_fract_z
Si Si1 0.455099 0.834071 0.273478
Si Si2 0.085002 0.529890 0.150875
Si Si3 0.000000 0.889977 0.000000
Si Si4 0.119648 0.741809 0.258864
Si Si5 0.652590 0.168265 0.329069
O O1 0.509701 0.801369 0.343311
O O2 0.282639 0.803454 0.269164
O O3 0.562690 0.745452 0.225947
O O4 0.489695 0.000000 0.250000
O O5 0.115971 0.679832 0.189131
O O6 0.088278 0.387817 0.193678
O O7 0.924091 0.537507 0.120404
O O8 0.062089 0.786835 0.945076
O O9 0.867079 0.997157 0.977668
O O10 0.707778 0.292223 0.375000
#
# Coordination Sequence:
#
# PCOD8305840 Si02
#       5
#     8   8   4   8   8
#     4  10  21  42  60  91 134 169 206 274 329 388
#     4  10  22  40  61  91 136 164 207 273 325 395
#     4  12  22  38  70 102 120 160 228 282 322 384
#     4  11  23  39  68  99 121 169 223 268 333 383
#     4  11  22  41  64  97 134 171 212 271 341 390
#
# _framework density 20.386641999999998
#
# number of rings (size 3 to 8) (size 9 to 14) (size 15 to 20)
#    0.000    1.333    6.667    0.667    0.000    5.333 
#    0.000    4.444    0.000    0.000    0.000    0.000 
#    0.000    0.000    0.000    0.000    0.000    0.000 
#
# Total GULP energy -446087.481668 kJ/mol
# GULP energy per Si atom -12391.318935 kJ/mol
# Density = 2.034024 g / cm^3
# Si number density = 20.386642 Si / 1000 Ang^3
#
#
#
# Elastic Constant Matrix: (Units=GPa)
#
#
# Indices 1 2 3 4 5 6 
#
# 1 64.8516 29.1872 32.4833 0.0000 0.0000 0.0000
# 2 29.1872 64.8514 32.4833 0.0000 0.0000 0.0000
# 3 32.4833 32.4833 140.5265 0.0000 0.0000 0.0000
# 4 0.0000 0.0000 0.0000 23.5837 0.0000 0.0000
# 5 0.0000 0.0000 0.0000 0.0000 23.5839 0.0000
# 6 0.0000 0.0000 0.0000 0.0000 0.0000 23.8122
#
#
#
# Elastic Compliance Matrix: (Units=1/GPa)
#
#
# Indices 1 2 3 4 5 6 
#
# 1 0.020347 -0.007692 -0.002925 0.000000 0.000000 0.000000
# 2 -0.007692 0.020347 -0.002925 0.000000 0.000000 0.000000
# 3 -0.002925 -0.002925 0.008468 0.000000 0.000000 0.000000
# 4 0.000000 0.000000 0.000000 0.042402 0.000000 0.000000
# 5 0.000000 0.000000 0.000000 0.000000 0.042402 0.000000
# 6 0.000000 0.000000 0.000000 0.000000 0.000000 0.041995
#
#
# Mechanical properties :
#
#
# Convention : Reuss Voigt Hill
#
# Bulk Modulus (GPa) = 45.29558 50.94856 48.12207
# Shear Modulus (GPa) = 23.76358 25.93434 24.84896
#
# Velocity S-wave (km/s) = 3.41786 3.57055 3.49504
# Velocity P-wave (km/s) = 6.15160 6.48413 6.32005
#
# Compressibility (1/GPa) = 0.02207721
#
# Stress axis : x y z
#
# Youngs Moduli (GPa) = 49.14732 49.14715 118.08540
#
# Poissons Ratio (x) = 0.37805 0.34542
# Poissons Ratio (y) = 0.37805 0.34543
# Poissons Ratio (z) = 0.14377 0.14377
#
# Static dielectric constant tensor:
#      x y z
#    x 3.697240 0.000000 0.000000 
#    y 0.000000 3.697230 0.000000 
#    z 0.000000 0.000000 4.463550 
# 
# 
# High freq. dielectric constant tensor:
#      x y z
#    x 1.783230 0.000000 0.000000 
#    y 0.000000 1.783230 0.000000 
#    z 0.000000 0.000000 1.820990 
# 
# From -- ./inp_files/6193.got.cif
#   From: 2010.03.12/outbox.cif.g09.slc.cpg/sg95_4_cif.got.tgz:6193.got - 2010.04.08 20:51:55.
