data_PCOD8305631
_publ_section_title
;
Structure prediction by ZEFSAII (Michael W. Deem and Ramdas Pophale) SiO2 
 PCOD8305631
Probable space group: P 42 21 2
;
_chemical_formula_sum "Si O2"
_cell_formula_units_Z 40
_cell_length_a 8.637665
_cell_length_b 8.637665
_cell_length_c 26.029847
_cell_angle_alpha 90.000000
_cell_angle_beta 90.000000
_cell_angle_gamma 90.000000
_cell_volume 1942.067535
_symmetry_space_group_name_H-M "P 42 21 2"
_symmetry_group_IT_number 94
_symmetry_cell_setting 'tetragonal'
loop_
_space_group_symop_operation_xyz
x,y,z
1/2-y,1/2+x,1/2+z
-x,-y,z
1/2+y,1/2-x,1/2+z
1/2+x,1/2-y,1/2-z
1/2-x,1/2+y,1/2-z
y,x,-z
-y,-x,-z
loop_
_atom_site_type_symbol
_atom_site_label
_atom_site_fract_x
_atom_site_fract_y
_atom_site_fract_z
Si Si1 0.327646 0.278679 0.214830
Si Si2 0.899486 0.726071 0.364280
Si Si3 0.351304 0.391551 0.942764
Si Si4 0.985358 0.319292 0.636310
Si Si5 0.169005 0.972117 0.187431
O O1 0.489261 0.265617 0.183910
O O2 0.217807 0.410084 0.190971
O O3 0.359674 0.330327 0.273137
O O4 0.231958 0.120661 0.217290
O O5 0.802905 0.568370 0.354468
O O6 0.001196 0.715312 0.417144
O O7 0.765952 0.852732 0.369535
O O8 0.500000 0.500000 0.940650
O O9 0.368850 0.240720 0.907739
O O10 0.325467 0.325467 0.000000
O O11 0.000000 0.500000 0.628543
O O12 0.000000 0.000000 0.161256
#
# Coordination Sequence:
#
# PCOD8305631 Si02
#       5
#     8   8   8   8   8
#     4  11  22  36  53  75 109 150 190 226 273 336
#     4  10  21  37  56  79 110 146 191 237 278 340
#     4   8  16  34  59  82 105 139 184 232 286 347
#     4  10  19  34  55  80 106 138 182 233 282 330
#     4  12  23  35  53  79 111 150 190 231 280 334
#
# _framework density 20.596609000000001
#
# number of rings (size 3 to 8) (size 9 to 14) (size 15 to 20)
#    0.000    1.800    0.000    7.200    0.000    1.600 
#    0.000    4.000    0.000    0.000    0.000    9.800 
#    0.000    1.600    0.000    0.000    0.000    0.000 
#
# Total GULP energy -495750.452622 kJ/mol
# GULP energy per Si atom -12393.761316 kJ/mol
# Density = 2.054973 g / cm^3
# Si number density = 20.596609 Si / 1000 Ang^3
#
#
#
# Elastic Constant Matrix: (Units=GPa)
#
#
# Indices 1 2 3 4 5 6 
#
# 1 103.1410 23.8858 16.5722 0.0000 0.0000 0.0000
# 2 23.8858 103.1410 16.5722 0.0000 0.0000 0.0000
# 3 16.5722 16.5722 87.7184 0.0000 0.0000 0.0000
# 4 0.0000 0.0000 0.0000 18.3083 0.0000 0.0000
# 5 0.0000 0.0000 0.0000 0.0000 18.3083 0.0000
# 6 0.0000 0.0000 0.0000 0.0000 0.0000 34.9210
#
#
#
# Elastic Compliance Matrix: (Units=1/GPa)
#
#
# Indices 1 2 3 4 5 6 
#
# 1 0.010449 -0.002168 -0.001564 0.000000 0.000000 0.000000
# 2 -0.002168 0.010449 -0.001564 0.000000 0.000000 0.000000
# 3 -0.001564 -0.001564 0.011991 0.000000 0.000000 0.000000
# 4 0.000000 0.000000 0.000000 0.054620 0.000000 0.000000
# 5 0.000000 0.000000 0.000000 0.000000 0.054620 0.000000
# 6 0.000000 0.000000 0.000000 0.000000 0.000000 0.028636
#
#
# Mechanical properties :
#
#
# Convention : Reuss Voigt Hill
#
# Bulk Modulus (GPa) = 44.85369 45.34009 45.09689
# Shear Modulus (GPa) = 26.48422 30.10551 28.29487
#
# Velocity S-wave (km/s) = 3.58977 3.82733 3.71045
# Velocity P-wave (km/s) = 6.24551 6.44922 6.34818
#
# Compressibility (1/GPa) = 0.02229471
#
# Stress axis : x y z
#
# Youngs Moduli (GPa) = 95.70282 95.70282 83.39428
#
# Poissons Ratio (x) = 0.20753 0.13046
# Poissons Ratio (y) = 0.20753 0.13046
# Poissons Ratio (z) = 0.14972 0.14972
#
# Static dielectric constant tensor:
#      x y z
#    x 3.776640 0.000000 0.000000 
#    y 0.000000 3.776640 0.000000 
#    z 0.000000 0.000000 3.916980 
# 
# 
# High freq. dielectric constant tensor:
#      x y z
#    x 1.805850 0.000000 0.000000 
#    y 0.000000 1.805850 0.000000 
#    z 0.000000 0.000000 1.772040 
# 
# From -- ./inp_files/5256.got.cif
#   From: 2010.03.12/outbox.cif.g09.slc.cpg/sg94_3_cif.got.tgz:5256.got - 2010.04.08 20:48:32.
