data_PCOD8305936
_publ_section_title
;
Structure prediction by ZEFSAII (Michael W. Deem and Ramdas Pophale) SiO2 
 PCOD8305936
Probable space group: P 43 21 2
;
_chemical_formula_sum "Si O2"
_cell_formula_units_Z 48
_cell_length_a 12.523799
_cell_length_b 12.523799
_cell_length_c 15.685575
_cell_angle_alpha 90.000000
_cell_angle_beta 90.000000
_cell_angle_gamma 90.000000
_cell_volume 2460.212503
_symmetry_space_group_name_H-M "P 43 21 2"
_symmetry_group_IT_number 96
_symmetry_cell_setting 'tetragonal'
loop_
_space_group_symop_operation_xyz
x,y,z
1/2-y,1/2+x,3/4+z
-x,-y,1/2+z
1/2+y,1/2-x,1/4+z
1/2+x,1/2-y,1/4-z
1/2-x,1/2+y,3/4-z
y,x,-z
-y,-x,1/2-z
loop_
_atom_site_type_symbol
_atom_site_label
_atom_site_fract_x
_atom_site_fract_y
_atom_site_fract_z
Si Si1 0.143410 0.955146 0.168408
Si Si2 0.040634 0.366874 0.782038
Si Si3 0.033256 0.868945 0.668367
Si Si4 0.354583 0.281338 0.246092
Si Si5 0.474033 0.933164 0.362796
Si Si6 0.613415 0.182276 0.019278
O O1 0.120780 0.879221 0.250000
O O2 0.159849 0.884889 0.083838
O O3 0.246970 0.029060 0.183309
O O4 0.041873 0.029829 0.151353
O O5 0.160637 0.397265 0.754438
O O6 0.009599 0.452364 0.852781
O O7 0.958139 0.379975 0.703998
O O8 0.963811 0.764111 0.683755
O O9 0.103204 0.849513 0.584064
O O10 0.109180 0.890821 0.750000
O O11 0.228359 0.266629 0.241087
O O12 0.432960 0.845228 0.427380
O O13 0.574067 0.875007 0.321241
#
# Coordination Sequence:
#
# PCOD8305936 Si02
#       6
#     8   8   8   8   8   8
#     4  11  24  43  65  89 131 172 214 265 318 384
#     4  11  20  38  62  91 123 164 211 261 313 385
#     4  11  24  42  64  97 132 166 216 270 321 384
#     4  12  23  41  64  94 126 170 217 257 329 380
#     4  10  22  38  62  91 126 160 211 264 316 380
#     4  11  22  40  62  90 126 166 208 266 321 376
#
# _framework density 19.510508999999999
#
# number of rings (size 3 to 8) (size 9 to 14) (size 15 to 20)
#    0.000    1.000    5.000    2.500    0.000    0.000 
#    3.000    0.000    0.000    0.000    0.000    0.000 
#    0.000    0.000    0.000    0.000    0.000    0.000 
#
# Total GULP energy -595266.460384 kJ/mol
# GULP energy per Si atom -12401.384591 kJ/mol
# Density = 1.946610 g / cm^3
# Si number density = 19.510509 Si / 1000 Ang^3
#
#
#
# Elastic Constant Matrix: (Units=GPa)
#
#
# Indices 1 2 3 4 5 6 
#
# 1 85.6147 -5.4644 28.9211 0.0000 0.0000 0.0000
# 2 -5.4644 85.6150 28.9207 0.0000 0.0000 0.0000
# 3 28.9211 28.9207 120.6394 0.0000 0.0000 0.0000
# 4 0.0000 0.0000 0.0000 -82.2574 0.0000 0.0000
# 5 0.0000 0.0000 0.0000 0.0000 -82.2429 0.0000
# 6 0.0000 0.0000 0.0000 0.0000 0.0000 28.5210
#
#
#
# Elastic Compliance Matrix: (Units=1/GPa)
#
#
# Indices 1 2 3 4 5 6 
#
# 1 0.013033 0.002054 -0.003617 0.000000 0.000000 0.000000
# 2 0.002054 0.013033 -0.003617 0.000000 0.000000 0.000000
# 3 -0.003617 -0.003617 0.010023 0.000000 0.000000 0.000000
# 4 0.000000 0.000000 0.000000 -0.012157 0.000000 0.000000
# 5 0.000000 0.000000 0.000000 0.000000 -0.012159 0.000000
# 6 0.000000 0.000000 0.000000 0.000000 0.000000 0.035062
#
#
# Mechanical properties :
#
#
# Convention : Reuss Voigt Hill
#
# Bulk Modulus (GPa) = 38.86578 44.06932 41.46755
# Shear Modulus (GPa) = 76.02096 -11.22974 32.39561
#
# Velocity S-wave (km/s) = 6.24890 -2.40172 4.07924
# Velocity P-wave (km/s) = 8.48697 3.86594 6.59447
#
# Compressibility (1/GPa) = 0.02572958
#
# Stress axis : x y z
#
# Youngs Moduli (GPa) = 76.72800 76.72842 99.76824
#
# Poissons Ratio (x) = -0.15757 0.36084
# Poissons Ratio (y) = -0.15757 0.36083
# Poissons Ratio (z) = 0.27750 0.27750
#
# Static dielectric constant tensor:
#      x y z
#    x 3.416180 0.000000 0.000000 
#    y 0.000000 3.416180 0.000000 
#    z 0.000000 0.000000 3.647430 
# 
# 
# High freq. dielectric constant tensor:
#      x y z
#    x 1.764070 0.000000 0.000000 
#    y 0.000000 1.764070 0.000000 
#    z 0.000000 0.000000 1.769820 
# 
# From -- ./inp_files/3094.got.cif
#   From: 2010.03.12/outbox.cif.g09.slc.cpg/sg96_2_cif.got.tgz:3094.got - 2010.04.08 20:56:49.
