data_PCOD8305894
_publ_section_title
;
Structure prediction by ZEFSAII (Michael W. Deem and Ramdas Pophale) SiO2 
 PCOD8305894
Probable space group: P 43 21 2
;
_chemical_formula_sum "Si O2"
_cell_formula_units_Z 40
_cell_length_a 13.598799
_cell_length_b 13.598799
_cell_length_c 8.835066
_cell_angle_alpha 90.000000
_cell_angle_beta 90.000000
_cell_angle_gamma 90.000000
_cell_volume 1633.845203
_symmetry_space_group_name_H-M "P 43 21 2"
_symmetry_group_IT_number 96
_symmetry_cell_setting 'tetragonal'
loop_
_space_group_symop_operation_xyz
x,y,z
1/2-y,1/2+x,3/4+z
-x,-y,1/2+z
1/2+y,1/2-x,1/4+z
1/2+x,1/2-y,1/4-z
1/2-x,1/2+y,3/4-z
y,x,-z
-y,-x,1/2-z
loop_
_atom_site_type_symbol
_atom_site_label
_atom_site_fract_x
_atom_site_fract_y
_atom_site_fract_z
Si Si1 0.134243 0.134243 0.000000
Si Si2 0.521071 0.673090 0.494796
Si Si3 0.227830 0.600299 0.499341
Si Si4 0.618011 0.381990 0.750000
Si Si5 0.470486 0.885853 0.437338
Si Si6 0.707646 0.128812 0.732082
O O1 0.130754 0.240322 0.917564
O O2 0.126712 0.045916 0.879124
O O3 0.632129 0.632129 0.500000
O O4 0.486744 0.632303 0.330305
O O5 0.526627 0.791236 0.504860
O O6 0.303605 0.643206 0.378128
O O7 0.229392 0.483838 0.483718
O O8 0.130744 0.657682 0.438195
O O9 0.539310 0.944399 0.320821
O O10 0.374447 0.839984 0.355666
O O11 0.807669 0.192332 0.750000
#
# Coordination Sequence:
#
# PCOD8305894 Si02
#       6
#     4   8   8   4   8   8
#     4  10  25  46  70 120 154 201 252 338 387 458
#     4  11  23  45  76 111 152 195 255 325 392 466
#     4  11  23  45  78 108 156 202 261 320 392 471
#     4  10  19  44  74 104 154 197 240 324 401 454
#     4  12  27  52  76 108 155 210 256 323 396 468
#     4  12  23  45  81 113 146 211 260 312 400 476
#
# _framework density 24.482122
#
# number of rings (size 3 to 8) (size 9 to 14) (size 15 to 20)
#    0.000    0.800    5.000    1.800    0.000    8.000 
#    5.400    0.000    4.400    0.000    0.000    0.000 
#    0.000    0.000    0.000    0.000    0.000    0.000 
#
# Total GULP energy -495783.653005 kJ/mol
# GULP energy per Si atom -12394.591325 kJ/mol
# Density = 2.442640 g / cm^3
# Si number density = 24.482122 Si / 1000 Ang^3
#
#
#
# Elastic Constant Matrix: (Units=GPa)
#
#
# Indices 1 2 3 4 5 6 
#
# 1 99.4298 57.4834 35.3957 0.0000 0.0000 0.0000
# 2 57.4834 99.4328 35.3966 0.0000 0.0000 0.0000
# 3 35.3957 35.3966 108.4041 0.0000 0.0000 0.0000
# 4 0.0000 0.0000 0.0000 37.0279 0.0000 0.0000
# 5 0.0000 0.0000 0.0000 0.0000 37.0280 0.0000
# 6 0.0000 0.0000 0.0000 0.0000 0.0000 39.5255
#
#
#
# Elastic Compliance Matrix: (Units=1/GPa)
#
#
# Indices 1 2 3 4 5 6 
#
# 1 0.015657 -0.008183 -0.002440 0.000000 0.000000 0.000000
# 2 -0.008183 0.015656 -0.002440 0.000000 0.000000 0.000000
# 3 -0.002440 -0.002440 0.010818 0.000000 0.000000 0.000000
# 4 0.000000 0.000000 0.000000 0.027007 0.000000 0.000000
# 5 0.000000 0.000000 0.000000 0.000000 0.027007 0.000000
# 6 0.000000 0.000000 0.000000 0.000000 0.000000 0.025300
#
#
# Mechanical properties :
#
#
# Convention : Reuss Voigt Hill
#
# Bulk Modulus (GPa) = 62.48183 62.64648 62.56416
# Shear Modulus (GPa) = 32.69975 34.64901 33.67438
#
# Velocity S-wave (km/s) = 3.65863 3.76610 3.71275
# Velocity P-wave (km/s) = 6.58971 6.67499 6.63249
#
# Compressibility (1/GPa) = 0.01600465
#
# Stress axis : x y z
#
# Youngs Moduli (GPa) = 63.87039 63.87221 92.43505
#
# Poissons Ratio (x) = 0.52264 0.22557
# Poissons Ratio (y) = 0.52263 0.22558
# Poissons Ratio (z) = 0.15587 0.15587
#
# Static dielectric constant tensor:
#      x y z
#    x 4.399500 0.000000 0.000000 
#    y 0.000000 4.399490 0.000000 
#    z 0.000000 0.000000 4.900950 
# 
# 
# High freq. dielectric constant tensor:
#      x y z
#    x 1.971500 0.000000 0.000000 
#    y 0.000000 1.971500 0.000000 
#    z 0.000000 0.000000 1.982780 
# 
# From -- ./inp_files/1371.got.cif
#   From: 2010.03.12/outbox.cif.g09.slc.cpg/sg96_1_cif.got.tgz:1371.got - 2010.04.08 20:56:49.
