data_PCOD8305217
_publ_section_title
;
Structure prediction by ZEFSAII (Michael W. Deem and Ramdas Pophale) SiO2 
 PCOD8305217
Probable space group: P 41 21 2
;
_chemical_formula_sum "Si O2"
_cell_formula_units_Z 32
_cell_length_a 13.539125
_cell_length_b 13.539125
_cell_length_c 9.388690
_cell_angle_alpha 90.000000
_cell_angle_beta 90.000000
_cell_angle_gamma 90.000000
_cell_volume 1721.021102
_symmetry_space_group_name_H-M "P 41 21 2"
_symmetry_group_IT_number 92
_symmetry_cell_setting 'tetragonal'
loop_
_space_group_symop_operation_xyz
x,y,z
1/2-y,1/2+x,1/4+z
-x,-y,1/2+z
1/2+y,1/2-x,3/4+z
1/2+x,1/2-y,3/4-z
1/2-x,1/2+y,1/4-z
y,x,-z
-y,-x,1/2-z
loop_
_atom_site_type_symbol
_atom_site_label
_atom_site_fract_x
_atom_site_fract_y
_atom_site_fract_z
Si Si1 0.719180 0.280821 0.250000
Si Si2 0.953320 0.408062 0.853192
Si Si3 0.426805 0.729040 0.516340
Si Si4 0.378298 0.378298 0.000000
Si Si5 0.712822 0.770352 0.297445
O O1 0.730722 0.390518 0.318705
O O2 0.733381 0.199062 0.374989
O O3 0.940089 0.502883 0.754375
O O4 0.847100 0.359574 0.882350
O O5 0.024414 0.332905 0.771188
O O6 0.504395 0.640181 0.493195
O O7 0.329467 0.713127 0.416949
O O8 0.323880 0.333959 0.860565
#
# Coordination Sequence:
#
# PCOD8305217 Si02
#       5
#     4   8   8   4   8
#     4   8  20  38  59  79 124 162 190 256 310 368
#     4  11  24  37  62  94 122 164 211 261 310 379
#     4   9  19  38  61  86 118 160 201 255 307 374
#     4  10  18  36  67  85 114 164 208 246 318 366
#     4   9  20  40  57  86 124 160 193 257 317 360
#
# _framework density 18.593612
#
# number of rings (size 3 to 8) (size 9 to 14) (size 15 to 20)
#    1.500    1.000    0.000    3.000    3.500    0.000 
#    4.500    6.250    0.000    0.000    0.000    0.000 
#    0.000    0.000    0.000    0.000    0.000    0.000 
#
# Total GULP energy -396524.839177 kJ/mol
# GULP energy per Si atom -12391.401224 kJ/mol
# Density = 1.855129 g / cm^3
# Si number density = 18.593612 Si / 1000 Ang^3
#
#
#
# Elastic Constant Matrix: (Units=GPa)
#
#
# Indices 1 2 3 4 5 6 
#
# 1 113.1226 45.8702 39.6196 0.0000 0.0000 0.0000
# 2 45.8702 113.1232 39.6199 0.0000 0.0000 0.0000
# 3 39.6196 39.6199 112.2751 0.0000 0.0000 0.0000
# 4 0.0000 0.0000 0.0000 33.6982 0.0000 0.0000
# 5 0.0000 0.0000 0.0000 0.0000 33.6980 0.0000
# 6 0.0000 0.0000 0.0000 0.0000 0.0000 17.5593
#
#
#
# Elastic Compliance Matrix: (Units=1/GPa)
#
#
# Indices 1 2 3 4 5 6 
#
# 1 0.011251 -0.003619 -0.002693 0.000000 0.000000 0.000000
# 2 -0.003619 0.011251 -0.002693 0.000000 0.000000 0.000000
# 3 -0.002693 -0.002693 0.010807 0.000000 0.000000 0.000000
# 4 0.000000 0.000000 0.000000 0.029675 0.000000 0.000000
# 5 0.000000 0.000000 0.000000 0.000000 0.029675 0.000000
# 6 0.000000 0.000000 0.000000 0.000000 0.000000 0.056950
#
#
# Mechanical properties :
#
#
# Convention : Reuss Voigt Hill
#
# Bulk Modulus (GPa) = 65.36585 65.41560 65.39072
# Shear Modulus (GPa) = 28.94888 31.21852 30.08370
#
# Velocity S-wave (km/s) = 3.95007 4.10200 4.02675
# Velocity P-wave (km/s) = 7.48568 7.59561 7.54085
#
# Compressibility (1/GPa) = 0.01529851
#
# Stress axis : x y z
#
# Youngs Moduli (GPa) = 88.88443 88.88483 92.52932
#
# Poissons Ratio (x) = 0.32165 0.24919
# Poissons Ratio (y) = 0.32165 0.24919
# Poissons Ratio (z) = 0.23937 0.23938
#
# Static dielectric constant tensor:
#      x y z
#    x 3.292290 0.000000 0.000000 
#    y 0.000000 3.292280 0.000000 
#    z 0.000000 0.000000 3.391990 
# 
# 
# High freq. dielectric constant tensor:
#      x y z
#    x 1.710820 0.000000 0.000000 
#    y 0.000000 1.710820 0.000000 
#    z 0.000000 0.000000 1.722950 
# 
# From -- ./inp_files/1189.got.cif
#   From: 2010.03.12/outbox.cif.g09.slc.cpg/sg92_1_cif.got.tgz:1189.got - 2010.04.08 20:41:11.
