data_PCOD8305683
_publ_section_title
;
Structure prediction by ZEFSAII (Michael W. Deem and Ramdas Pophale) SiO2 
 PCOD8305683
Probable space group: P 42 21 2
;
_chemical_formula_sum "Si O2"
_cell_formula_units_Z 54
_cell_length_a 11.943635
_cell_length_b 11.943635
_cell_length_c 19.195419
_cell_angle_alpha 90.000000
_cell_angle_beta 90.000000
_cell_angle_gamma 90.000000
_cell_volume 2738.234525
_symmetry_space_group_name_H-M "P 42 21 2"
_symmetry_group_IT_number 94
_symmetry_cell_setting 'tetragonal'
loop_
_space_group_symop_operation_xyz
x,y,z
1/2-y,1/2+x,1/2+z
-x,-y,z
1/2+y,1/2-x,1/2+z
1/2+x,1/2-y,1/2-z
1/2-x,1/2+y,1/2-z
y,x,-z
-y,-x,-z
loop_
_atom_site_type_symbol
_atom_site_label
_atom_site_fract_x
_atom_site_fract_y
_atom_site_fract_z
Si Si1 0.500000 0.500000 0.500000
Si Si2 0.437384 0.729729 0.032193
Si Si3 0.231065 0.268210 0.353994
Si Si4 0.000000 0.500000 0.700328
Si Si5 0.789192 0.485081 0.114785
Si Si6 0.111650 0.928545 0.643483
Si Si7 0.731553 0.961667 0.751317
Si Si8 0.531167 0.620548 0.366040
O O1 0.502579 0.610141 0.449281
O O2 0.349014 0.797938 0.080176
O O3 0.542049 0.687958 0.077054
O O4 0.380504 0.619497 0.000000
O O5 0.481852 0.805990 0.968917
O O6 0.264317 0.138821 0.357508
O O7 0.160755 0.281258 0.282675
O O8 0.337227 0.350330 0.355321
O O9 0.968479 0.399127 0.650021
O O10 0.109391 0.479864 0.747784
O O11 0.699274 0.576270 0.139056
O O12 0.185241 0.953498 0.711665
O O13 0.000000 0.000000 0.644999
O O14 0.783760 0.955013 0.829698
O O15 0.500000 0.500000 0.331093
#
# Coordination Sequence:
#
# PCOD8305683 Si02
#       8
#     2   8   8   4   8   8   8   8
#     4   8  24  36  72 100 128 178 232 292 320 424
#     4   9  18  32  64  97 124 146 207 273 334 391
#     4  10  21  37  66  96 124 173 213 279 340 391
#     4  12  28  40  54  84 138 186 216 256 336 402
#     4  11  22  36  63  92 129 165 207 272 327 405
#     4  11  19  37  67 100 117 155 216 276 334 383
#     4  11  24  41  60  94 131 170 222 277 333 396
#     4  10  22  40  66  97 132 172 235 277 330 416
#
# _framework density 19.720735999999999
#
# number of rings (size 3 to 8) (size 9 to 14) (size 15 to 20)
#    0.444    1.185    5.926    0.889    5.185    0.000 
#    0.000    2.963    3.259    0.000    0.000    0.000 
#    0.000    0.000    0.000    0.000    0.000    0.000 
#
# Total GULP energy -669247.528362 kJ/mol
# GULP energy per Si atom -12393.472747 kJ/mol
# Density = 1.967585 g / cm^3
# Si number density = 19.720736 Si / 1000 Ang^3
#
#
#
# Elastic Constant Matrix: (Units=GPa)
#
#
# Indices 1 2 3 4 5 6 
#
# 1 113.8077 49.6020 47.7271 0.0000 0.0000 0.0000
# 2 49.6020 113.8076 47.7269 0.0000 0.0000 0.0000
# 3 47.7271 47.7269 119.2290 0.0000 0.0000 0.0000
# 4 0.0000 0.0000 0.0000 18.0249 0.0000 0.0000
# 5 0.0000 0.0000 0.0000 0.0000 18.0253 0.0000
# 6 0.0000 0.0000 0.0000 0.0000 0.0000 36.8788
#
#
#
# Elastic Compliance Matrix: (Units=1/GPa)
#
#
# Indices 1 2 3 4 5 6 
#
# 1 0.011781 -0.003794 -0.003197 0.000000 0.000000 0.000000
# 2 -0.003794 0.011781 -0.003197 0.000000 0.000000 0.000000
# 3 -0.003197 -0.003197 0.010947 0.000000 0.000000 0.000000
# 4 0.000000 0.000000 0.000000 0.055479 0.000000 0.000000
# 5 0.000000 0.000000 0.000000 0.000000 0.055477 0.000000
# 6 0.000000 0.000000 0.000000 0.000000 0.000000 0.027116
#
#
# Mechanical properties :
#
#
# Convention : Reuss Voigt Hill
#
# Bulk Modulus (GPa) = 70.75969 70.77294 70.76632
# Shear Modulus (GPa) = 25.29483 28.03837 26.66660
#
# Velocity S-wave (km/s) = 3.58530 3.77473 3.68123
# Velocity P-wave (km/s) = 7.28683 7.41374 7.35056
#
# Compressibility (1/GPa) = 0.01413234
#
# Stress axis : x y z
#
# Youngs Moduli (GPa) = 84.88175 84.88182 91.34976
#
# Poissons Ratio (x) = 0.32203 0.29207
# Poissons Ratio (y) = 0.32203 0.29207
# Poissons Ratio (z) = 0.27139 0.27139
#
# Static dielectric constant tensor:
#      x y z
#    x 3.619320 0.000000 0.000000 
#    y 0.000000 3.619310 0.000000 
#    z 0.000000 0.000000 3.945260 
# 
# 
# High freq. dielectric constant tensor:
#      x y z
#    x 1.752810 0.000000 0.000000 
#    y 0.000000 1.752810 0.000000 
#    z 0.000000 0.000000 1.778260 
# 
# From -- ./inp_files/4768.got.cif
#   From: 2010.03.12/outbox.cif.g09.slc.cpg/sg94_3_cif.got.tgz:4768.got - 2010.04.08 20:48:32.
