data_PCOD8305780
_publ_section_title
;
Structure prediction by ZEFSAII (Michael W. Deem and Ramdas Pophale) SiO2 
 PCOD8305780
Probable space group: P 42 21 2
;
_chemical_formula_sum "Si O2"
_cell_formula_units_Z 18
_cell_length_a 9.461708
_cell_length_b 9.461708
_cell_length_c 7.991262
_cell_angle_alpha 90.000000
_cell_angle_beta 90.000000
_cell_angle_gamma 90.000000
_cell_volume 715.409086
_symmetry_space_group_name_H-M "P 42 21 2"
_symmetry_group_IT_number 94
_symmetry_cell_setting 'tetragonal'
loop_
_space_group_symop_operation_xyz
x,y,z
1/2-y,1/2+x,1/2+z
-x,-y,z
1/2+y,1/2-x,1/2+z
1/2+x,1/2-y,1/2-z
1/2-x,1/2+y,1/2-z
y,x,-z
-y,-x,-z
loop_
_atom_site_type_symbol
_atom_site_label
_atom_site_fract_x
_atom_site_fract_y
_atom_site_fract_z
Si Si1 0.767352 0.973565 0.564877
Si Si2 0.000000 0.000000 0.000000
Si Si3 0.220878 0.893061 0.237148
O O1 0.920510 0.920510 0.500000
O O2 0.679709 0.842319 0.631002
O O3 0.698806 0.035297 0.393939
O O4 0.783284 0.099063 0.700480
O O5 0.858563 0.995031 0.114972
#
# Coordination Sequence:
#
# PCOD8305780 Si02
#       3
#     8   2   8
#     4  11  23  48  76 113 156 218 269 339 405 501
#     4  12  20  38  80 110 148 216 252 332 408 484
#     4  11  24  46  78 112 161 212 274 334 422 482
#
# _framework density 25.160428
#
# number of rings (size 3 to 8) (size 9 to 14) (size 15 to 20)
#    0.000    0.889    6.667    1.333    0.000    3.556 
#    0.000   11.111    0.000    0.000    0.000    0.000 
#    0.000    0.000    0.000    0.000    0.000    0.000 
#
# Total GULP energy -223043.559694 kJ/mol
# GULP energy per Si atom -12391.308872 kJ/mol
# Density = 2.510316 g / cm^3
# Si number density = 25.160428 Si / 1000 Ang^3
#
#
#
# Elastic Constant Matrix: (Units=GPa)
#
#
# Indices 1 2 3 4 5 6 
#
# 1 145.4990 75.5431 87.3708 0.0000 0.0000 0.0000
# 2 75.5431 145.4990 87.3708 0.0000 0.0000 0.0000
# 3 87.3708 87.3708 199.1092 0.0000 0.0000 0.0000
# 4 0.0000 0.0000 0.0000 38.2626 0.0000 0.0000
# 5 0.0000 0.0000 0.0000 0.0000 38.2626 0.0000
# 6 0.0000 0.0000 0.0000 0.0000 0.0000 59.3429
#
#
#
# Elastic Compliance Matrix: (Units=1/GPa)
#
#
# Indices 1 2 3 4 5 6 
#
# 1 0.010611 -0.003684 -0.003040 0.000000 0.000000 0.000000
# 2 -0.003684 0.010611 -0.003040 0.000000 0.000000 0.000000
# 3 -0.003040 -0.003040 0.007690 0.000000 0.000000 0.000000
# 4 0.000000 0.000000 0.000000 0.026135 0.000000 0.000000
# 5 0.000000 0.000000 0.000000 0.000000 0.026135 0.000000
# 6 0.000000 0.000000 0.000000 0.000000 0.000000 0.016851
#
#
# Mechanical properties :
#
#
# Convention : Reuss Voigt Hill
#
# Bulk Modulus (GPa) = 106.54785 110.07514 108.31150
# Shear Modulus (GPa) = 41.42919 43.16179 42.29549
#
# Velocity S-wave (km/s) = 4.06224 4.14631 4.10449
# Velocity P-wave (km/s) = 8.02756 8.17109 8.09964
#
# Compressibility (1/GPa) = 0.00938545
#
# Stress axis : x y z
#
# Youngs Moduli (GPa) = 94.24335 94.24335 130.03952
#
# Poissons Ratio (x) = 0.34718 0.39527
# Poissons Ratio (y) = 0.34718 0.39527
# Poissons Ratio (z) = 0.28646 0.28646
#
# Static dielectric constant tensor:
#      x y z
#    x 4.214060 0.000000 0.000000 
#    y 0.000000 4.214060 0.000000 
#    z 0.000000 0.000000 5.788390 
# 
# 
# High freq. dielectric constant tensor:
#      x y z
#    x 1.982410 0.000000 0.000000 
#    y 0.000000 1.982410 0.000000 
#    z 0.000000 0.000000 2.040300 
# 
# From -- ./inp_files/846.got.cif
#   From: 2010.03.12/outbox.cif.g09.slc.cpg/sg94_1_cif.got.tgz:846.got - 2010.04.08 20:48:32.
