data_PCOD8305634
_publ_section_title
;
Structure prediction by ZEFSAII (Michael W. Deem and Ramdas Pophale) SiO2 
 PCOD8305634
Probable space group: P 42 21 2
;
_chemical_formula_sum "Si O2"
_cell_formula_units_Z 56
_cell_length_a 14.500641
_cell_length_b 14.500641
_cell_length_c 13.986114
_cell_angle_alpha 90.000000
_cell_angle_beta 90.000000
_cell_angle_gamma 90.000000
_cell_volume 2940.840462
_symmetry_space_group_name_H-M "P 42 21 2"
_symmetry_group_IT_number 94
_symmetry_cell_setting 'tetragonal'
loop_
_space_group_symop_operation_xyz
x,y,z
1/2-y,1/2+x,1/2+z
-x,-y,z
1/2+y,1/2-x,1/2+z
1/2+x,1/2-y,1/2-z
1/2-x,1/2+y,1/2-z
y,x,-z
-y,-x,-z
loop_
_atom_site_type_symbol
_atom_site_label
_atom_site_fract_x
_atom_site_fract_y
_atom_site_fract_z
Si Si1 0.476034 0.765208 0.131231
Si Si2 0.426062 0.577322 0.782776
Si Si3 0.342442 0.661393 0.395513
Si Si4 0.858968 0.384522 0.395782
Si Si5 0.369495 0.147594 0.895632
Si Si6 0.406565 0.945149 0.200895
Si Si7 0.674020 0.537644 0.052984
O O1 0.464949 0.673860 0.194147
O O2 0.570313 0.818046 0.161791
O O3 0.398012 0.844016 0.150436
O O4 0.476625 0.733250 0.021186
O O5 0.500000 0.500000 0.759609
O O6 0.413233 0.633281 0.684912
O O7 0.464569 0.639535 0.868743
O O8 0.375780 0.624221 0.500000
O O9 0.233153 0.674316 0.403076
O O10 0.378752 0.763847 0.370510
O O11 0.897427 0.399955 0.503880
O O12 0.834197 0.482606 0.345240
O O13 0.435505 0.106592 0.814069
O O14 0.386165 0.258701 0.900157
O O15 0.500000 0.000000 0.176323
O O16 0.588023 0.588023 0.000000
#
# Coordination Sequence:
#
# PCOD8305634 Si02
#       7
#     8   8   8   8   8   8   8
#     4  10  20  36  54  86 121 146 187 247 293 349
#     4  12  23  35  59  88 117 153 193 246 298 355
#     4  10  21  39  59  82 113 158 200 239 287 356
#     4   9  20  37  58  83 115 154 196 240 290 355
#     4  10  19  35  59  82 115 156 200 243 290 351
#     4  10  20  35  57  84 118 152 196 242 294 353
#     4  11  21  35  57  87 115 150 194 242 297 352
#
# _framework density 19.042176000000001
#
# number of rings (size 3 to 8) (size 9 to 14) (size 15 to 20)
#    0.000    1.714    2.857    3.429    0.000    3.143 
#    0.000    0.000    0.000    0.000    7.429    0.000 
#    0.000    0.000    0.000    0.000    0.000    0.000 
#
# Total GULP energy -693952.320251 kJ/mol
# GULP energy per Si atom -12392.005719 kJ/mol
# Density = 1.899884 g / cm^3
# Si number density = 19.042176 Si / 1000 Ang^3
#
#
#
# Elastic Constant Matrix: (Units=GPa)
#
#
# Indices 1 2 3 4 5 6 
#
# 1 82.9434 27.2641 47.2028 0.0000 0.0000 0.0000
# 2 27.2641 82.9435 47.2029 0.0000 0.0000 0.0000
# 3 47.2028 47.2029 125.9240 0.0000 0.0000 0.0000
# 4 0.0000 0.0000 0.0000 32.5460 0.0000 0.0000
# 5 0.0000 0.0000 0.0000 0.0000 32.5460 0.0000
# 6 0.0000 0.0000 0.0000 0.0000 0.0000 22.9266
#
#
#
# Elastic Compliance Matrix: (Units=1/GPa)
#
#
# Indices 1 2 3 4 5 6 
#
# 1 0.015663 -0.002297 -0.005010 0.000000 0.000000 0.000000
# 2 -0.002297 0.015663 -0.005010 0.000000 0.000000 0.000000
# 3 -0.005010 -0.005010 0.011697 0.000000 0.000000 0.000000
# 4 0.000000 0.000000 0.000000 0.030726 0.000000 0.000000
# 5 0.000000 0.000000 0.000000 0.000000 0.030726 0.000000
# 6 0.000000 0.000000 0.000000 0.000000 0.000000 0.043617
#
#
# Mechanical properties :
#
#
# Convention : Reuss Voigt Hill
#
# Bulk Modulus (GPa) = 54.38312 59.46116 56.92214
# Shear Modulus (GPa) = 27.95545 28.94646 28.45096
#
# Velocity S-wave (km/s) = 3.83571 3.90311 3.86956
# Velocity P-wave (km/s) = 6.94537 7.18374 7.06556
#
# Compressibility (1/GPa) = 0.01838806
#
# Stress axis : x y z
#
# Youngs Moduli (GPa) = 63.84567 63.84581 85.48919
#
# Poissons Ratio (x) = 0.14667 0.42831
# Poissons Ratio (y) = 0.14667 0.42831
# Poissons Ratio (z) = 0.31987 0.31987
#
# Static dielectric constant tensor:
#      x y z
#    x 3.517570 0.000000 0.000000 
#    y 0.000000 3.517570 0.000000 
#    z 0.000000 0.000000 3.567500 
# 
# 
# High freq. dielectric constant tensor:
#      x y z
#    x 1.730050 0.000000 0.000000 
#    y 0.000000 1.730050 0.000000 
#    z 0.000000 0.000000 1.741380 
# 
# From -- ./inp_files/3546.got.cif
#   From: 2010.03.12/outbox.cif.g09.slc.cpg/sg94_2_cif.got.tgz:3546.got - 2010.04.08 20:48:32.
