data_PCOD8305180
_publ_section_title
;
Structure prediction by ZEFSAII (Michael W. Deem and Ramdas Pophale) SiO2 
 PCOD8305180
Probable space group: P 41 2 2
;
_chemical_formula_sum "Si O2"
_cell_formula_units_Z 40
_cell_length_a 11.295685
_cell_length_b 11.295685
_cell_length_c 13.801119
_cell_angle_alpha 90.000000
_cell_angle_beta 90.000000
_cell_angle_gamma 90.000000
_cell_volume 1760.919271
_symmetry_space_group_name_H-M "P 41 2 2"
_symmetry_group_IT_number 91
_symmetry_cell_setting 'tetragonal'
loop_
_space_group_symop_operation_xyz
x,y,z
-y,x,1/4+z
-x,-y,1/2+z
y,-x,3/4+z
x,-y,1/2-z
-x,y,-z
y,x,3/4-z
-y,-x,1/4-z
loop_
_atom_site_type_symbol
_atom_site_label
_atom_site_fract_x
_atom_site_fract_y
_atom_site_fract_z
Si Si1 0.923145 0.129070 0.731862
Si Si2 0.640363 0.330687 0.012867
Si Si3 0.040399 0.611532 0.185212
Si Si4 0.302903 0.832262 0.347840
Si Si5 0.567568 0.276259 0.679117
O O1 0.865758 0.134243 0.625000
O O2 0.983600 0.259789 0.740288
O O3 0.827919 0.125804 0.818935
O O4 0.991957 0.000000 0.750000
O O5 0.675725 0.324276 0.125000
O O6 0.500000 0.348191 0.000000
O O7 0.689076 0.215189 0.958250
O O8 0.714510 0.433502 0.960861
O O9 0.005021 0.500000 0.250000
O O10 0.171425 0.592259 0.146132
O O11 0.948737 0.613203 0.095310
O O12 0.350612 0.734780 0.273876
O O13 0.602854 0.397147 0.625000
#
# Coordination Sequence:
#
# PCOD8305180 Si02
#       5
#     8   8   8   8   8
#     4  12  22  45  77 107 138 192 248 302 362 439
#     4  12  26  44  66 100 148 191 230 296 380 441
#     4  12  25  42  72 109 141 185 243 304 361 431
#     4  12  23  44  70  99 142 188 237 296 368 428
#     4  12  24  40  71 101 131 181 238 289 344 439
#
# _framework density 22.715409999999999
#
# number of rings (size 3 to 8) (size 9 to 14) (size 15 to 20)
#    0.000    0.000    8.000    3.000    0.000    0.000 
#    0.000    1.000    0.000    0.000    0.000    0.000 
#    0.000    0.000    0.000    0.000    0.000    0.000 
#
# Total GULP energy -495525.016470 kJ/mol
# GULP energy per Si atom -12388.125412 kJ/mol
# Density = 2.266371 g / cm^3
# Si number density = 22.715410 Si / 1000 Ang^3
#
#
#
# Elastic Constant Matrix: (Units=GPa)
#
#
# Indices 1 2 3 4 5 6 
#
# 1 101.2478 31.5924 30.3414 0.0000 0.0000 0.0000
# 2 31.5924 101.2466 30.3425 0.0000 0.0000 0.0000
# 3 30.3414 30.3425 100.4523 0.0000 0.0000 0.0000
# 4 0.0000 0.0000 0.0000 11.9398 0.0000 0.0000
# 5 0.0000 0.0000 0.0000 0.0000 11.9371 0.0000
# 6 0.0000 0.0000 0.0000 0.0000 0.0000 12.2611
#
#
#
# Elastic Compliance Matrix: (Units=1/GPa)
#
#
# Indices 1 2 3 4 5 6 
#
# 1 0.011545 -0.002812 -0.002638 0.000000 0.000000 0.000000
# 2 -0.002812 0.011545 -0.002638 0.000000 0.000000 0.000000
# 3 -0.002638 -0.002638 0.011548 0.000000 0.000000 0.000000
# 4 0.000000 0.000000 0.000000 0.083754 0.000000 0.000000
# 5 0.000000 0.000000 0.000000 0.000000 0.083772 0.000000
# 6 0.000000 0.000000 0.000000 0.000000 0.000000 0.081559
#
#
# Mechanical properties :
#
#
# Convention : Reuss Voigt Hill
#
# Bulk Modulus (GPa) = 54.16221 54.16658 54.16439
# Shear Modulus (GPa) = 16.33713 21.27231 18.80472
#
# Velocity S-wave (km/s) = 2.68472 3.06350 2.88034
# Velocity P-wave (km/s) = 5.78842 6.03414 5.91256
#
# Compressibility (1/GPa) = 0.01846306
#
# Stress axis : x y z
#
# Youngs Moduli (GPa) = 86.62074 86.61904 86.59151
#
# Poissons Ratio (x) = 0.24356 0.22840
# Poissons Ratio (y) = 0.24356 0.22842
# Poissons Ratio (z) = 0.22848 0.22849
#
# Static dielectric constant tensor:
#      x y z
#    x 4.206310 0.000000 0.000000 
#    y 0.000000 4.206330 0.000000 
#    z 0.000000 0.000000 4.234470 
# 
# 
# High freq. dielectric constant tensor:
#      x y z
#    x 1.892200 0.000000 0.000000 
#    y 0.000000 1.892200 0.000000 
#    z 0.000000 0.000000 1.897580 
# 
# From -- ./inp_files/4692.got.cif
#   From: 2010.03.12/outbox.cif.g09.slc.cpg/sg91_3_cif.got.tgz:4692.got - 2010.04.08 20:27:58.
