data_PCOD8305343
_publ_section_title
;
Structure prediction by ZEFSAII (Michael W. Deem and Ramdas Pophale) SiO2 
 PCOD8305343
Probable space group: P 41 21 2
;
_chemical_formula_sum "Si O2"
_cell_formula_units_Z 56
_cell_length_a 15.357924
_cell_length_b 15.357924
_cell_length_c 10.785117
_cell_angle_alpha 90.000000
_cell_angle_beta 90.000000
_cell_angle_gamma 90.000000
_cell_volume 2543.840568
_symmetry_space_group_name_H-M "P 41 21 2"
_symmetry_group_IT_number 92
_symmetry_cell_setting 'tetragonal'
loop_
_space_group_symop_operation_xyz
x,y,z
1/2-y,1/2+x,1/4+z
-x,-y,1/2+z
1/2+y,1/2-x,3/4+z
1/2+x,1/2-y,3/4-z
1/2-x,1/2+y,1/4-z
y,x,-z
-y,-x,1/2-z
loop_
_atom_site_type_symbol
_atom_site_label
_atom_site_fract_x
_atom_site_fract_y
_atom_site_fract_z
Si Si1 0.569171 0.168286 0.295998
Si Si2 0.930231 0.613491 0.218105
Si Si3 0.554612 0.783417 0.148890
Si Si4 0.108884 0.873068 0.449827
Si Si5 0.484077 0.484077 0.000000
Si Si6 0.992241 0.171606 0.333560
Si Si7 0.290280 0.290280 0.000000
Si Si8 0.389523 0.863440 0.264996
O O1 0.595361 0.171335 0.150982
O O2 0.482430 0.109204 0.306850
O O3 0.644750 0.129687 0.382713
O O4 0.558093 0.268137 0.338908
O O5 0.893119 0.661644 0.339423
O O6 0.032853 0.610136 0.242553
O O7 0.570024 0.721212 0.266536
O O8 0.466054 0.833267 0.175911
O O9 0.550493 0.728777 0.023252
O O10 0.038826 0.929620 0.373282
O O11 0.138374 0.916990 0.576085
O O12 0.192089 0.857848 0.362296
O O13 0.585862 0.462908 0.025756
O O14 0.192526 0.311520 0.041466
#
# Coordination Sequence:
#
# PCOD8305343 Si02
#       8
#     8   8   8   8   4   8   4   8
#     4  11  23  41  73 112 142 186 236 295 366 430
#     4  10  21  42  70 101 156 196 226 286 372 449
#     4  12  25  42  73 107 144 182 233 304 360 418
#     4  11  25  49  71  96 142 193 239 293 362 423
#     4  11  26  52  76  96 136 203 246 284 360 447
#     4  12  25  45  73 103 138 181 248 296 352 434
#     4  11  26  42  68 100 144 187 244 302 336 425
#     4  11  24  41  67 107 145 189 238 286 363 432
#
# _framework density 22.013957000000001
#
# number of rings (size 3 to 8) (size 9 to 14) (size 15 to 20)
#    0.000    0.857    2.857    4.714    4.000    2.286 
#    0.000    4.286    0.000    0.000    0.000    0.000 
#    0.000    0.000    0.000    0.000    0.000    0.000 
#
# Total GULP energy -694353.122945 kJ/mol
# GULP energy per Si atom -12399.162910 kJ/mol
# Density = 2.196385 g / cm^3
# Si number density = 22.013957 Si / 1000 Ang^3
#
#
#
# Elastic Constant Matrix: (Units=GPa)
#
#
# Indices 1 2 3 4 5 6 
#
# 1 107.0069 66.4507 41.3203 0.0000 0.0000 0.0000
# 2 66.4507 107.0069 41.3203 0.0000 0.0000 0.0000
# 3 41.3203 41.3203 105.0456 0.0000 0.0000 0.0000
# 4 0.0000 0.0000 0.0000 38.3832 0.0000 0.0000
# 5 0.0000 0.0000 0.0000 0.0000 38.3832 0.0000
# 6 0.0000 0.0000 0.0000 0.0000 0.0000 10.3852
#
#
#
# Elastic Compliance Matrix: (Units=1/GPa)
#
#
# Indices 1 2 3 4 5 6 
#
# 1 0.015876 -0.008781 -0.002791 0.000000 0.000000 0.000000
# 2 -0.008781 0.015876 -0.002791 0.000000 0.000000 0.000000
# 3 -0.002791 -0.002791 0.011715 0.000000 0.000000 0.000000
# 4 0.000000 0.000000 0.000000 0.026053 0.000000 0.000000
# 5 0.000000 0.000000 0.000000 0.000000 0.026053 0.000000
# 6 0.000000 0.000000 0.000000 0.000000 0.000000 0.096291
#
#
# Mechanical properties :
#
#
# Convention : Reuss Voigt Hill
#
# Bulk Modulus (GPa) = 67.83516 68.58242 68.20879
# Shear Modulus (GPa) = 22.17264 28.76154 25.46709
#
# Velocity S-wave (km/s) = 3.17710 3.61849 3.40496
# Velocity P-wave (km/s) = 6.65884 6.97708 6.81982
#
# Compressibility (1/GPa) = 0.01474162
#
# Stress axis : x y z
#
# Youngs Moduli (GPa) = 62.98852 62.98852 85.35932
#
# Poissons Ratio (x) = 0.55312 0.23822
# Poissons Ratio (y) = 0.55312 0.23822
# Poissons Ratio (z) = 0.17578 0.17578
#
# Static dielectric constant tensor:
#      x y z
#    x 3.979150 0.000000 0.000000 
#    y 0.000000 3.979150 0.000000 
#    z 0.000000 0.000000 4.457890 
# 
# 
# High freq. dielectric constant tensor:
#      x y z
#    x 1.857460 0.000000 0.000000 
#    y 0.000000 1.857460 0.000000 
#    z 0.000000 0.000000 1.892250 
# 
# From -- ./inp_files/2315.got.cif
#   From: 2010.03.12/outbox.cif.g09.slc.cpg/sg92_2_cif.got.tgz:2315.got - 2010.04.08 20:41:11.
