data_PCOD8305959
_publ_section_title
;
Structure prediction by ZEFSAII (Michael W. Deem and Ramdas Pophale) SiO2 
 PCOD8305959
Probable space group: P 43 21 2
;
_chemical_formula_sum "Si O2"
_cell_formula_units_Z 44
_cell_length_a 8.128049
_cell_length_b 8.128049
_cell_length_c 29.435906
_cell_angle_alpha 90.000000
_cell_angle_beta 90.000000
_cell_angle_gamma 90.000000
_cell_volume 1944.688444
_symmetry_space_group_name_H-M "P 43 21 2"
_symmetry_group_IT_number 96
_symmetry_cell_setting 'tetragonal'
loop_
_space_group_symop_operation_xyz
x,y,z
1/2-y,1/2+x,3/4+z
-x,-y,1/2+z
1/2+y,1/2-x,1/4+z
1/2+x,1/2-y,1/4-z
1/2-x,1/2+y,3/4-z
y,x,-z
-y,-x,1/2-z
loop_
_atom_site_type_symbol
_atom_site_label
_atom_site_fract_x
_atom_site_fract_y
_atom_site_fract_z
Si Si1 0.260139 0.060425 0.831517
Si Si2 0.329719 0.670282 0.250000
Si Si3 0.602607 0.898705 0.236481
Si Si4 0.754518 0.189764 0.843124
Si Si5 0.638299 0.430126 0.585386
Si Si6 0.067134 0.392216 0.837995
O O1 0.371818 0.030332 0.787013
O O2 0.200689 0.249071 0.829330
O O3 0.365144 0.026374 0.876603
O O4 0.113544 0.928300 0.831466
O O5 0.517987 0.714777 0.236640
O O6 0.287679 0.793072 0.290576
O O7 0.779106 0.879607 0.212358
O O8 0.486894 0.027560 0.209146
O O9 0.594653 0.226043 0.874544
O O10 0.904096 0.308059 0.858059
O O11 0.804613 0.002761 0.850023
#
# Coordination Sequence:
#
# PCOD8305959 Si02
#       6
#     8   4   8   8   8   8
#     4  11  25  44  74 100 150 185 242 298 359 435
#     4  10  24  40  66 102 138 178 232 296 342 430
#     4  11  25  42  71 101 143 184 240 293 359 427
#     4  10  23  41  70  99 142 180 242 286 356 429
#     4  11  24  43  71 103 135 191 235 294 359 427
#     4  10  24  44  66 107 140 190 232 298 362 426
#
# _framework density 22.625733
#
# number of rings (size 3 to 8) (size 9 to 14) (size 15 to 20)
#    0.000    1.455    0.000    3.818   15.273    0.000 
#    0.000    0.000    4.000    0.000    0.000    0.000 
#    0.000    0.000    0.000    0.000    0.000    0.000 
#
# Total GULP energy -545524.399020 kJ/mol
# GULP energy per Si atom -12398.281796 kJ/mol
# Density = 2.257424 g / cm^3
# Si number density = 22.625733 Si / 1000 Ang^3
#
#
#
# Elastic Constant Matrix: (Units=GPa)
#
#
# Indices 1 2 3 4 5 6 
#
# 1 102.4627 72.1139 47.3730 0.0000 0.0000 0.0000
# 2 72.1139 102.4625 47.3734 0.0000 0.0000 0.0000
# 3 47.3730 47.3734 145.1538 0.0000 0.0000 0.0000
# 4 0.0000 0.0000 0.0000 39.4220 0.0000 0.0000
# 5 0.0000 0.0000 0.0000 0.0000 39.4221 0.0000
# 6 0.0000 0.0000 0.0000 0.0000 0.0000 49.4993
#
#
#
# Elastic Compliance Matrix: (Units=1/GPa)
#
#
# Indices 1 2 3 4 5 6 
#
# 1 0.019956 -0.012995 -0.002272 0.000000 0.000000 0.000000
# 2 -0.012995 0.019956 -0.002272 0.000000 0.000000 0.000000
# 3 -0.002272 -0.002272 0.008372 0.000000 0.000000 0.000000
# 4 0.000000 0.000000 0.000000 0.025367 0.000000 0.000000
# 5 0.000000 0.000000 0.000000 0.000000 0.025366 0.000000
# 6 0.000000 0.000000 0.000000 0.000000 0.000000 0.020202
#
#
# Mechanical properties :
#
#
# Convention : Reuss Voigt Hill
#
# Bulk Modulus (GPa) = 75.71772 75.97773 75.84773
# Shear Modulus (GPa) = 31.50635 37.88325 34.69480
#
# Velocity S-wave (km/s) = 3.73567 4.09631 3.92014
# Velocity P-wave (km/s) = 7.22115 7.48506 7.35429
#
# Compressibility (1/GPa) = 0.01320695
#
# Stress axis : x y z
#
# Youngs Moduli (GPa) = 50.11093 50.11063 119.44333
#
# Poissons Ratio (x) = 0.65117 0.27135
# Poissons Ratio (y) = 0.65117 0.27137
# Poissons Ratio (z) = 0.11384 0.11385
#
# Static dielectric constant tensor:
#      x y z
#    x 4.185060 0.000000 0.000000 
#    y 0.000000 4.185060 0.000000 
#    z 0.000000 0.000000 3.995690 
# 
# 
# High freq. dielectric constant tensor:
#      x y z
#    x 1.895200 0.000000 0.000000 
#    y 0.000000 1.895200 0.000000 
#    z 0.000000 0.000000 1.896080 
# 
# From -- ./inp_files/4388.got.cif
#   From: 2010.03.12/outbox.cif.g09.slc.cpg/sg96_3_cif.got.tgz:4388.got - 2010.04.08 20:56:49.
