data_PCOD8305456
_publ_section_title
;
Structure prediction by ZEFSAII (Michael W. Deem and Ramdas Pophale) SiO2 
 PCOD8305456
Probable space group: P 41 21 2
;
_chemical_formula_sum "Si O2"
_cell_formula_units_Z 40
_cell_length_a 19.081041
_cell_length_b 19.081041
_cell_length_c 5.048216
_cell_angle_alpha 90.000000
_cell_angle_beta 90.000000
_cell_angle_gamma 90.000000
_cell_volume 1837.985405
_symmetry_space_group_name_H-M "P 41 21 2"
_symmetry_group_IT_number 92
_symmetry_cell_setting 'tetragonal'
loop_
_space_group_symop_operation_xyz
x,y,z
1/2-y,1/2+x,1/4+z
-x,-y,1/2+z
1/2+y,1/2-x,3/4+z
1/2+x,1/2-y,3/4-z
1/2-x,1/2+y,1/4-z
y,x,-z
-y,-x,1/2-z
loop_
_atom_site_type_symbol
_atom_site_label
_atom_site_fract_x
_atom_site_fract_y
_atom_site_fract_z
Si Si1 0.768846 0.882918 0.037864
Si Si2 0.009363 0.606762 0.550485
Si Si3 0.532441 0.256161 0.820877
Si Si4 0.680984 0.128360 0.156920
Si Si5 0.772352 0.120074 0.639696
O O1 0.771410 0.913829 0.331802
O O2 0.811795 0.811795 0.000000
O O3 0.796793 0.940159 0.830727
O O4 0.690847 0.874164 0.920042
O O5 0.942910 0.561200 0.637001
O O6 0.978840 0.672275 0.385653
O O7 0.054469 0.641946 0.787546
O O8 0.457179 0.293374 0.786543
O O9 0.737762 0.153702 0.378719
O O10 0.713875 0.119588 0.868395
O O11 0.839691 0.160310 0.750000
#
# Coordination Sequence:
#
# PCOD8305456 Si02
#       5
#     8   8   8   8   8
#     4  12  24  43  66  92 131 174 223 281 326 376
#     4  11  25  39  63  98 139 187 209 259 310 401
#     4  11  25  43  63 100 128 171 228 267 327 399
#     4  11  24  41  62  96 130 173 231 258 320 390
#     4  11  23  42  68  94 128 169 216 284 331 383
#
# _framework density 21.762958999999999
#
# number of rings (size 3 to 8) (size 9 to 14) (size 15 to 20)
#    0.000    0.800    2.000    6.000    5.600    0.000 
#    0.000    0.000    0.000    2.400    0.000    0.000 
#    0.000    0.000    0.000    0.000    0.000    0.000 
#
# Total GULP energy -495674.299982 kJ/mol
# GULP energy per Si atom -12391.857500 kJ/mol
# Density = 2.171343 g / cm^3
# Si number density = 21.762959 Si / 1000 Ang^3
#
#
#
# Elastic Constant Matrix: (Units=GPa)
#
#
# Indices 1 2 3 4 5 6 
#
# 1 66.2784 43.2375 13.0325 0.0000 0.0000 0.0000
# 2 43.2375 66.2779 13.0324 0.0000 0.0000 0.0000
# 3 13.0325 13.0324 70.1520 0.0000 0.0000 0.0000
# 4 0.0000 0.0000 0.0000 33.8701 0.0000 0.0000
# 5 0.0000 0.0000 0.0000 0.0000 33.8700 0.0000
# 6 0.0000 0.0000 0.0000 0.0000 0.0000 33.4559
#
#
#
# Elastic Compliance Matrix: (Units=1/GPa)
#
#
# Indices 1 2 3 4 5 6 
#
# 1 0.026477 -0.016924 -0.001775 0.000000 0.000000 0.000000
# 2 -0.016924 0.026478 -0.001775 0.000000 0.000000 0.000000
# 3 -0.001775 -0.001775 0.014914 0.000000 0.000000 0.000000
# 4 0.000000 0.000000 0.000000 0.029525 0.000000 0.000000
# 5 0.000000 0.000000 0.000000 0.000000 0.029525 0.000000
# 6 0.000000 0.000000 0.000000 0.000000 0.000000 0.029890
#
#
# Mechanical properties :
#
#
# Convention : Reuss Voigt Hill
#
# Bulk Modulus (GPa) = 37.14429 37.92367 37.53398
# Shear Modulus (GPa) = 24.18616 29.13293 26.65955
#
# Velocity S-wave (km/s) = 3.33730 3.66272 3.50379
# Velocity P-wave (km/s) = 5.65286 5.94567 5.80111
#
# Compressibility (1/GPa) = 0.02692204
#
# Stress axis : x y z
#
# Youngs Moduli (GPa) = 37.76799 37.76775 67.05026
#
# Poissons Ratio (x) = 0.63918 0.11900
# Poissons Ratio (y) = 0.63919 0.11900
# Poissons Ratio (z) = 0.06703 0.06703
#
# Static dielectric constant tensor:
#      x y z
#    x 4.005820 0.000000 0.000000 
#    y 0.000000 4.005820 0.000000 
#    z 0.000000 0.000000 3.934310 
# 
# 
# High freq. dielectric constant tensor:
#      x y z
#    x 1.845210 0.000000 0.000000 
#    y 0.000000 1.845210 0.000000 
#    z 0.000000 0.000000 1.868210 
# 
# From -- ./inp_files/424.got.cif
#   From: 2010.03.12/outbox.cif.g09.slc.cpg/sg92_1_cif.got.tgz:424.got - 2010.04.08 20:41:11.
