data_PCOD8305756
_publ_section_title
;
Structure prediction by ZEFSAII (Michael W. Deem and Ramdas Pophale) SiO2 
 PCOD8305756
Probable space group: P 42 21 2
;
_chemical_formula_sum "Si O2"
_cell_formula_units_Z 28
_cell_length_a 9.062340
_cell_length_b 9.062340
_cell_length_c 15.807211
_cell_angle_alpha 90.000000
_cell_angle_beta 90.000000
_cell_angle_gamma 90.000000
_cell_volume 1298.183110
_symmetry_space_group_name_H-M "P 42 21 2"
_symmetry_group_IT_number 94
_symmetry_cell_setting 'tetragonal'
loop_
_space_group_symop_operation_xyz
x,y,z
1/2-y,1/2+x,1/2+z
-x,-y,z
1/2+y,1/2-x,1/2+z
1/2+x,1/2-y,1/2-z
1/2-x,1/2+y,1/2-z
y,x,-z
-y,-x,-z
loop_
_atom_site_type_symbol
_atom_site_label
_atom_site_fract_x
_atom_site_fract_y
_atom_site_fract_z
Si Si1 0.213652 0.664937 0.140275
Si Si2 0.500000 0.000000 0.972353
Si Si3 0.144928 0.913951 0.266223
Si Si4 0.971863 0.208323 0.434287
O O1 0.067535 0.632150 0.084907
O O2 0.201909 0.820020 0.187522
O O3 0.229959 0.530883 0.207035
O O4 0.354601 0.672180 0.078435
O O5 0.436330 0.128525 0.031783
O O6 0.109866 0.806540 0.344698
O O7 0.000000 0.000000 0.236259
O O8 0.909999 0.090002 0.500000
#
# Coordination Sequence:
#
# PCOD8305756 Si02
#       4
#     8   4   8   8
#     4  11  26  45  71 104 134 187 233 286 355 424
#     4  12  26  38  76  98 134 174 246 278 346 414
#     4  10  25  44  72  99 145 177 233 285 354 421
#     4  11  25  48  71  98 140 188 226 290 357 423
#
# _framework density 21.568607
#
# number of rings (size 3 to 8) (size 9 to 14) (size 15 to 20)
#    0.000    1.143    2.857    0.857   20.000    0.000 
#    0.000    0.000    0.000    0.000    0.000    0.000 
#    0.000    0.000    0.000    0.000    0.000    0.000 
#
# Total GULP energy -347240.279062 kJ/mol
# GULP energy per Si atom -12401.438538 kJ/mol
# Density = 2.151952 g / cm^3
# Si number density = 21.568607 Si / 1000 Ang^3
#
#
#
# Elastic Constant Matrix: (Units=GPa)
#
#
# Indices 1 2 3 4 5 6 
#
# 1 124.5580 66.7333 59.0215 0.0000 0.0000 0.0000
# 2 66.7333 124.5612 59.0215 0.0000 0.0000 0.0000
# 3 59.0215 59.0215 101.3845 0.0000 0.0000 0.0000
# 4 0.0000 0.0000 0.0000 36.4923 0.0000 0.0000
# 5 0.0000 0.0000 0.0000 0.0000 36.4920 0.0000
# 6 0.0000 0.0000 0.0000 0.0000 0.0000 26.1802
#
#
#
# Elastic Compliance Matrix: (Units=1/GPa)
#
#
# Indices 1 2 3 4 5 6 
#
# 1 0.012726 -0.004567 -0.004750 0.000000 0.000000 0.000000
# 2 -0.004567 0.012726 -0.004749 0.000000 0.000000 0.000000
# 3 -0.004750 -0.004749 0.015393 0.000000 0.000000 0.000000
# 4 0.000000 0.000000 0.000000 0.027403 0.000000 0.000000
# 5 0.000000 0.000000 0.000000 0.000000 0.027403 0.000000
# 6 0.000000 0.000000 0.000000 0.000000 0.000000 0.038197
#
#
# Mechanical properties :
#
#
# Convention : Reuss Voigt Hill
#
# Bulk Modulus (GPa) = 78.66427 80.00626 79.33527
# Shear Modulus (GPa) = 30.08099 30.88138 30.48119
#
# Velocity S-wave (km/s) = 3.73857 3.78798 3.76336
# Velocity P-wave (km/s) = 7.42878 7.50374 7.46635
#
# Compressibility (1/GPa) = 0.01271225
#
# Stress axis : x y z
#
# Youngs Moduli (GPa) = 78.57929 78.58214 64.96347
#
# Poissons Ratio (x) = 0.35892 0.30855
# Poissons Ratio (y) = 0.35890 0.30853
# Poissons Ratio (z) = 0.37322 0.37321
#
# Static dielectric constant tensor:
#      x y z
#    x 3.973900 0.000000 0.000000 
#    y 0.000000 3.973910 0.000000 
#    z 0.000000 0.000000 3.932830 
# 
# 
# High freq. dielectric constant tensor:
#      x y z
#    x 1.842690 0.000000 0.000000 
#    y 0.000000 1.842690 0.000000 
#    z 0.000000 0.000000 1.857040 
# 
# From -- ./inp_files/3834.got.cif
#   From: 2010.03.12/outbox.cif.g09.slc.cpg/sg94_2_cif.got.tgz:3834.got - 2010.04.08 20:48:32.
