data_PCOD8305163
_publ_section_title
;
Structure prediction by ZEFSAII (Michael W. Deem and Ramdas Pophale) SiO2 
 PCOD8305163
Probable space group: P 41 2 2
;
_chemical_formula_sum "Si O2"
_cell_formula_units_Z 40
_cell_length_a 8.297250
_cell_length_b 8.297250
_cell_length_c 21.521472
_cell_angle_alpha 90.000000
_cell_angle_beta 90.000000
_cell_angle_gamma 90.000000
_cell_volume 1481.631914
_symmetry_space_group_name_H-M "P 41 2 2"
_symmetry_group_IT_number 91
_symmetry_cell_setting 'tetragonal'
loop_
_space_group_symop_operation_xyz
x,y,z
-y,x,1/4+z
-x,-y,1/2+z
y,-x,3/4+z
x,-y,1/2-z
-x,y,-z
y,x,3/4-z
-y,-x,1/4-z
loop_
_atom_site_type_symbol
_atom_site_label
_atom_site_fract_x
_atom_site_fract_y
_atom_site_fract_z
Si Si1 0.639834 0.024474 0.563055
Si Si2 0.480558 0.181905 0.673259
Si Si3 0.690585 0.324531 0.766328
Si Si4 0.857230 0.033730 0.321265
Si Si5 0.534430 0.709808 0.605253
O O1 0.571681 0.166023 0.607372
O O2 0.664286 0.112947 0.496237
O O3 0.802374 0.947294 0.590101
O O4 0.511257 0.875327 0.566163
O O5 0.616146 0.175464 0.726587
O O6 0.338209 0.049908 0.679479
O O7 0.415257 0.363627 0.685495
O O8 0.616317 0.500000 0.750000
O O9 0.655129 0.267796 0.835935
O O10 0.911092 0.000000 0.250000
O O11 0.903930 0.903930 0.375000
O O12 0.359591 0.640410 0.625000
#
# Coordination Sequence:
#
# PCOD8305163 Si02
#       5
#     8   8   8   8   8
#     4  11  26  46  77 105 148 208 262 320 411 485
#     4  11  24  48  70 108 148 206 258 320 404 488
#     4  12  23  45  77 106 148 204 263 324 394 494
#     4  11  28  50  73 112 159 203 266 345 412 489
#     4  11  24  46  73 111 153 195 261 334 393 475
#
# _framework density 26.997257000000001
#
# number of rings (size 3 to 8) (size 9 to 14) (size 15 to 20)
#    0.000    0.800    4.000    1.800    8.400    0.800 
#    7.200    0.000    0.000    0.000    0.000    0.000 
#    0.000    0.000    0.000    0.000    0.000    0.000 
#
# Total GULP energy -495527.273660 kJ/mol
# GULP energy per Si atom -12388.181841 kJ/mol
# Density = 2.693581 g / cm^3
# Si number density = 26.997257 Si / 1000 Ang^3
#
#
#
# Elastic Constant Matrix: (Units=GPa)
#
#
# Indices 1 2 3 4 5 6 
#
# 1 108.0112 63.2066 39.4298 0.0000 0.0000 0.0000
# 2 63.2066 108.0100 39.4293 0.0000 0.0000 0.0000
# 3 39.4298 39.4293 123.0410 0.0000 0.0000 0.0000
# 4 0.0000 0.0000 0.0000 33.7263 0.0000 0.0000
# 5 0.0000 0.0000 0.0000 0.0000 33.7266 0.0000
# 6 0.0000 0.0000 0.0000 0.0000 0.0000 42.3242
#
#
#
# Elastic Compliance Matrix: (Units=1/GPa)
#
#
# Indices 1 2 3 4 5 6 
#
# 1 0.014586 -0.007734 -0.002196 0.000000 0.000000 0.000000
# 2 -0.007734 0.014586 -0.002196 0.000000 0.000000 0.000000
# 3 -0.002196 -0.002196 0.009535 0.000000 0.000000 0.000000
# 4 0.000000 0.000000 0.000000 0.029650 0.000000 0.000000
# 5 0.000000 0.000000 0.000000 0.000000 0.029650 0.000000
# 6 0.000000 0.000000 0.000000 0.000000 0.000000 0.023627
#
#
# Mechanical properties :
#
#
# Convention : Reuss Voigt Hill
#
# Bulk Modulus (GPa) = 69.17824 69.24373 69.21099
# Shear Modulus (GPa) = 33.17788 35.08850 34.13319
#
# Velocity S-wave (km/s) = 3.50942 3.60905 3.55959
# Velocity P-wave (km/s) = 6.48854 6.56286 6.52581
#
# Compressibility (1/GPa) = 0.01445541
#
# Stress axis : x y z
#
# Youngs Moduli (GPa) = 68.56085 68.56020 104.88053
#
# Poissons Ratio (x) = 0.53023 0.23029
# Poissons Ratio (y) = 0.53024 0.23029
# Poissons Ratio (z) = 0.15054 0.15054
#
# Static dielectric constant tensor:
#      x y z
#    x 4.821520 0.000000 0.000000 
#    y 0.000000 4.821520 0.000000 
#    z 0.000000 0.000000 4.804970 
# 
# 
# High freq. dielectric constant tensor:
#      x y z
#    x 2.080540 0.000000 0.000000 
#    y 0.000000 2.080540 0.000000 
#    z 0.000000 0.000000 2.081940 
# 
# From -- ./inp_files/17497.got.cif
#   From: 2010.03.12/outbox.cif.g09.slc.cpg/sg91_9_cif.got.tgz:17497.got - 2010.04.08 20:27:58.
