data_PCOD8305938
_publ_section_title
;
Structure prediction by ZEFSAII (Michael W. Deem and Ramdas Pophale) SiO2 
 PCOD8305938
Probable space group: P 43 21 2
;
_chemical_formula_sum "Si O2"
_cell_formula_units_Z 44
_cell_length_a 10.523367
_cell_length_b 10.523367
_cell_length_c 19.731261
_cell_angle_alpha 90.000000
_cell_angle_beta 90.000000
_cell_angle_gamma 90.000000
_cell_volume 2185.064567
_symmetry_space_group_name_H-M "P 43 21 2"
_symmetry_group_IT_number 96
_symmetry_cell_setting 'tetragonal'
loop_
_space_group_symop_operation_xyz
x,y,z
1/2-y,1/2+x,3/4+z
-x,-y,1/2+z
1/2+y,1/2-x,1/4+z
1/2+x,1/2-y,1/4-z
1/2-x,1/2+y,3/4-z
y,x,-z
-y,-x,1/2-z
loop_
_atom_site_type_symbol
_atom_site_label
_atom_site_fract_x
_atom_site_fract_y
_atom_site_fract_z
Si Si1 0.099986 0.167028 0.815696
Si Si2 0.899377 0.100624 0.250000
Si Si3 0.440281 0.057651 0.235090
Si Si4 0.780679 0.329808 0.310966
Si Si5 0.317299 0.314433 0.418349
Si Si6 0.452018 0.852018 0.126979
O O1 0.106155 0.295245 0.771622
O O2 0.214002 0.170170 0.867672
O O3 0.963419 0.159416 0.852255
O O4 0.122091 0.044565 0.769738
O O5 0.873659 0.205667 0.309084
O O6 0.537169 0.150497 0.198921
O O7 0.458655 0.049641 0.316602
O O8 0.462931 0.921842 0.199487
O O9 0.679121 0.320879 0.250000
O O10 0.306703 0.306703 0.500000
O O11 0.274410 0.181656 0.382973
O O12 0.238943 0.429265 0.386046
#
# Coordination Sequence:
#
# PCOD8305938 Si02
#       6
#     8   4   8   8   8   8
#     4  11  20  41  68  93 131 178 220 284 342 401
#     4  10  22  38  68  96 128 170 226 266 338 404
#     4  11  23  41  68  95 137 180 221 290 351 405
#     4  10  23  39  62  95 133 171 227 275 340 406
#     4  11  22  45  70  99 138 183 231 291 353 409
#     4  11  23  43  71  97 137 181 234 284 349 415
#
# _framework density 20.136704000000002
#
# number of rings (size 3 to 8) (size 9 to 14) (size 15 to 20)
#    0.545    0.727    4.545    3.273    2.545    2.909 
#    0.000    2.727    0.000    0.000    0.000    0.000 
#    0.000    0.000    0.000    0.000    0.000    0.000 
#
# Total GULP energy -545268.235235 kJ/mol
# GULP energy per Si atom -12392.459892 kJ/mol
# Density = 2.009087 g / cm^3
# Si number density = 20.136704 Si / 1000 Ang^3
#
#
#
# Elastic Constant Matrix: (Units=GPa)
#
#
# Indices 1 2 3 4 5 6 
#
# 1 102.7408 91.1924 38.1486 0.0000 0.0000 0.0000
# 2 91.1924 102.7410 38.1451 0.0000 0.0000 0.0000
# 3 38.1486 38.1451 52.0884 0.0000 0.0000 0.0000
# 4 0.0000 0.0000 0.0000 30.4128 0.0000 0.0000
# 5 0.0000 0.0000 0.0000 0.0000 30.4120 0.0000
# 6 0.0000 0.0000 0.0000 0.0000 0.0000 34.9417
#
#
#
# Elastic Compliance Matrix: (Units=1/GPa)
#
#
# Indices 1 2 3 4 5 6 
#
# 1 0.046919 -0.039674 -0.005309 0.000000 0.000000 0.000000
# 2 -0.039674 0.046915 -0.005300 0.000000 0.000000 0.000000
# 3 -0.005309 -0.005300 0.026968 0.000000 0.000000 0.000000
# 4 0.000000 0.000000 0.000000 0.032881 0.000000 0.000000
# 5 0.000000 0.000000 0.000000 0.000000 0.032882 0.000000
# 6 0.000000 0.000000 0.000000 0.000000 0.000000 0.028619
#
#
# Mechanical properties :
#
#
# Convention : Reuss Voigt Hill
#
# Bulk Modulus (GPa) = 49.41711 65.83804 57.62758
# Shear Modulus (GPa) = 15.50411 25.15891 20.33151
#
# Velocity S-wave (km/s) = 2.77779 3.53853 3.18098
# Velocity P-wave (km/s) = 5.90612 7.03288 6.49399
#
# Compressibility (1/GPa) = 0.02023591
#
# Stress axis : x y z
#
# Youngs Moduli (GPa) = 21.31342 21.31494 37.08135
#
# Poissons Ratio (x) = 0.84565 0.19685
# Poissons Ratio (y) = 0.84559 0.19655
# Poissons Ratio (z) = 0.11315 0.11298
#
# Static dielectric constant tensor:
#      x y z
#    x 4.015880 0.000000 0.000000 
#    y 0.000000 4.015940 0.000000 
#    z 0.000000 0.000000 3.620170 
# 
# 
# High freq. dielectric constant tensor:
#      x y z
#    x 1.788710 0.000000 0.000000 
#    y 0.000000 1.788710 0.000000 
#    z 0.000000 0.000000 1.779130 
# 
# From -- ./inp_files/3061.got.cif
#   From: 2010.03.12/outbox.cif.g09.slc.cpg/sg96_2_cif.got.tgz:3061.got - 2010.04.08 20:56:49.
