data_PCOD8305496
_publ_section_title
;
Structure prediction by ZEFSAII (Michael W. Deem and Ramdas Pophale) SiO2 
 PCOD8305496
Probable space group: P 41 21 2
;
_chemical_formula_sum "Si O2"
_cell_formula_units_Z 32
_cell_length_a 7.907077
_cell_length_b 7.907077
_cell_length_c 21.441400
_cell_angle_alpha 90.000000
_cell_angle_beta 90.000000
_cell_angle_gamma 90.000000
_cell_volume 1340.556352
_symmetry_space_group_name_H-M "P 41 21 2"
_symmetry_group_IT_number 92
_symmetry_cell_setting 'tetragonal'
loop_
_space_group_symop_operation_xyz
x,y,z
1/2-y,1/2+x,1/4+z
-x,-y,1/2+z
1/2+y,1/2-x,3/4+z
1/2+x,1/2-y,3/4-z
1/2-x,1/2+y,1/4-z
y,x,-z
-y,-x,1/2-z
loop_
_atom_site_type_symbol
_atom_site_label
_atom_site_fract_x
_atom_site_fract_y
_atom_site_fract_z
Si Si1 0.877665 0.600477 0.162548
Si Si2 0.561611 0.395772 0.179706
Si Si3 0.125659 0.692343 0.395725
Si Si4 0.698374 0.456586 0.531711
O O1 0.693647 0.523308 0.146423
O O2 0.929009 0.717156 0.105089
O O3 0.865380 0.691996 0.229128
O O4 0.026672 0.466367 0.170852
O O5 0.625511 0.374490 0.250000
O O6 0.365429 0.452255 0.176137
O O7 0.319597 0.661854 0.414494
O O8 0.109827 0.709710 0.319872
O O9 0.527901 0.527901 0.500000
#
# Coordination Sequence:
#
# PCOD8305496 Si02
#       4
#     8   8   8   8
#     4  12  28  48  79 114 157 206 268 330 398 485
#     4  12  27  51  75 116 153 209 266 328 405 472
#     4  12  26  50  78 111 157 206 256 328 393 478
#     4  12  25  51  76 115 155 206 261 323 406 474
#
# _framework density 23.870688000000001
#
# number of rings (size 3 to 8) (size 9 to 14) (size 15 to 20)
#    0.000    0.000    7.500    0.000    3.500    8.000 
#    0.000    0.000    0.000    0.000    0.000    0.000 
#    0.000    0.000    0.000    0.000    0.000    0.000 
#
# Total GULP energy -396733.942474 kJ/mol
# GULP energy per Si atom -12397.935702 kJ/mol
# Density = 2.381636 g / cm^3
# Si number density = 23.870688 Si / 1000 Ang^3
#
#
#
# Elastic Constant Matrix: (Units=GPa)
#
#
# Indices 1 2 3 4 5 6 
#
# 1 115.0246 36.3139 23.1635 0.0000 0.0000 0.0000
# 2 36.3139 115.0247 23.1634 0.0000 0.0000 0.0000
# 3 23.1635 23.1634 109.7181 0.0000 0.0000 0.0000
# 4 0.0000 0.0000 0.0000 26.5503 0.0000 0.0000
# 5 0.0000 0.0000 0.0000 0.0000 26.5502 0.0000
# 6 0.0000 0.0000 0.0000 0.0000 0.0000 29.5124
#
#
#
# Elastic Compliance Matrix: (Units=1/GPa)
#
#
# Indices 1 2 3 4 5 6 
#
# 1 0.009885 -0.002820 -0.001491 0.000000 0.000000 0.000000
# 2 -0.002820 0.009884 -0.001491 0.000000 0.000000 0.000000
# 3 -0.001491 -0.001491 0.009744 0.000000 0.000000 0.000000
# 4 0.000000 0.000000 0.000000 0.037664 0.000000 0.000000
# 5 0.000000 0.000000 0.000000 0.000000 0.037664 0.000000
# 6 0.000000 0.000000 0.000000 0.000000 0.000000 0.033884
#
#
# Mechanical properties :
#
#
# Convention : Reuss Voigt Hill
#
# Bulk Modulus (GPa) = 55.84437 56.11657 55.98047
# Shear Modulus (GPa) = 31.98958 33.66435 32.82697
#
# Velocity S-wave (km/s) = 3.66474 3.75944 3.71239
# Velocity P-wave (km/s) = 6.43058 6.51185 6.47134
#
# Compressibility (1/GPa) = 0.01790691
#
# Stress axis : x y z
#
# Youngs Moduli (GPa) = 101.16848 101.16860 102.62745
#
# Poissons Ratio (x) = 0.28532 0.15306
# Poissons Ratio (y) = 0.28532 0.15306
# Poissons Ratio (z) = 0.15088 0.15088
#
# Static dielectric constant tensor:
#      x y z
#    x 4.409320 0.000000 0.000000 
#    y 0.000000 4.409320 0.000000 
#    z 0.000000 0.000000 4.449310 
# 
# 
# High freq. dielectric constant tensor:
#      x y z
#    x 1.947790 0.000000 0.000000 
#    y 0.000000 1.947790 0.000000 
#    z 0.000000 0.000000 1.955790 
# 
# From -- ./inp_files/3695.got.cif
#   From: 2010.03.12/outbox.cif.g09.slc.cpg/sg92_2_cif.got.tgz:3695.got - 2010.04.08 20:41:11.
