data_PCOD8305776
_publ_section_title
;
Structure prediction by ZEFSAII (Michael W. Deem and Ramdas Pophale) SiO2 
 PCOD8305776
Probable space group: P 42 21 2
;
_chemical_formula_sum "Si O2"
_cell_formula_units_Z 16
_cell_length_a 8.333591
_cell_length_b 8.333591
_cell_length_c 8.011832
_cell_angle_alpha 90.000000
_cell_angle_beta 90.000000
_cell_angle_gamma 90.000000
_cell_volume 556.411629
_symmetry_space_group_name_H-M "P 42 21 2"
_symmetry_group_IT_number 94
_symmetry_cell_setting 'tetragonal'
loop_
_space_group_symop_operation_xyz
x,y,z
1/2-y,1/2+x,1/2+z
-x,-y,z
1/2+y,1/2-x,1/2+z
1/2+x,1/2-y,1/2-z
1/2-x,1/2+y,1/2-z
y,x,-z
-y,-x,-z
loop_
_atom_site_type_symbol
_atom_site_label
_atom_site_fract_x
_atom_site_fract_y
_atom_site_fract_z
Si Si1 0.355328 0.401016 0.758503
Si Si2 0.674120 0.955194 0.041055
O O1 0.500000 0.500000 0.846572
O O2 0.421327 0.233440 0.682821
O O3 0.293671 0.526769 0.616649
O O4 0.226031 0.341926 0.891452
O O5 0.500000 0.000000 0.973761
#
# Coordination Sequence:
#
# PCOD8305776 Si02
#       2
#     8   8
#     4  11  25  46  74 109 156 206 262 326 389 469
#     4  11  23  43  74 112 153 204 261 326 397 465
#
# _framework density 28.755687000000002
#
# number of rings (size 3 to 8) (size 9 to 14) (size 15 to 20)
#    0.000    1.000    0.000    7.500    0.000    4.000 
#    0.000    0.000    0.000   18.000    0.000    0.000 
#    0.000    0.000    0.000    0.000    0.000    0.000 
#
# Total GULP energy -198378.961531 kJ/mol
# GULP energy per Si atom -12398.685096 kJ/mol
# Density = 2.869024 g / cm^3
# Si number density = 28.755687 Si / 1000 Ang^3
#
#
#
# Elastic Constant Matrix: (Units=GPa)
#
#
# Indices 1 2 3 4 5 6 
#
# 1 202.5651 77.0878 68.9466 0.0000 0.0000 0.0000
# 2 77.0878 202.5651 68.9466 0.0000 0.0000 0.0000
# 3 68.9466 68.9466 112.0155 0.0000 0.0000 0.0000
# 4 0.0000 0.0000 0.0000 40.0445 0.0000 0.0000
# 5 0.0000 0.0000 0.0000 0.0000 40.0445 0.0000
# 6 0.0000 0.0000 0.0000 0.0000 0.0000 79.5244
#
#
#
# Elastic Compliance Matrix: (Units=1/GPa)
#
#
# Indices 1 2 3 4 5 6 
#
# 1 0.006552 -0.001418 -0.003160 0.000000 0.000000 0.000000
# 2 -0.001418 0.006552 -0.003160 0.000000 0.000000 0.000000
# 3 -0.003160 -0.003160 0.012817 0.000000 0.000000 0.000000
# 4 0.000000 0.000000 0.000000 0.024972 0.000000 0.000000
# 5 0.000000 0.000000 0.000000 0.000000 0.024972 0.000000
# 6 0.000000 0.000000 0.000000 0.000000 0.000000 0.012575
#
#
# Mechanical properties :
#
#
# Convention : Reuss Voigt Hill
#
# Bulk Modulus (GPa) = 95.73684 105.23417 100.48551
# Shear Modulus (GPa) = 46.55595 52.06701 49.31148
#
# Velocity S-wave (km/s) = 4.02807 4.25981 4.14556
# Velocity P-wave (km/s) = 7.41615 7.80193 7.61148
#
# Compressibility (1/GPa) = 0.01044530
#
# Stress axis : x y z
#
# Youngs Moduli (GPa) = 152.62976 152.62976 78.01886
#
# Poissons Ratio (x) = 0.21639 0.24654
# Poissons Ratio (y) = 0.21639 0.24654
# Poissons Ratio (z) = 0.48232 0.48232
#
# Static dielectric constant tensor:
#      x y z
#    x 5.607790 0.000000 0.000000 
#    y 0.000000 5.607790 0.000000 
#    z 0.000000 0.000000 4.994550 
# 
# 
# High freq. dielectric constant tensor:
#      x y z
#    x 2.192980 0.000000 0.000000 
#    y 0.000000 2.192980 0.000000 
#    z 0.000000 0.000000 2.159900 
# 
# From -- ./inp_files/712.got.cif
#   From: 2010.03.12/outbox.cif.g09.slc.cpg/sg94_1_cif.got.tgz:712.got - 2010.04.08 20:48:32.
