data_PCOD8305130
_publ_section_title
;
Structure prediction by ZEFSAII (Michael W. Deem and Ramdas Pophale) SiO2 
 PCOD8305130
Probable space group: P 41 2 2
;
_chemical_formula_sum "Si O2"
_cell_formula_units_Z 36
_cell_length_a 11.928063
_cell_length_b 11.928063
_cell_length_c 12.157026
_cell_angle_alpha 90.000000
_cell_angle_beta 90.000000
_cell_angle_gamma 90.000000
_cell_volume 1729.685696
_symmetry_space_group_name_H-M "P 41 2 2"
_symmetry_group_IT_number 91
_symmetry_cell_setting 'tetragonal'
loop_
_space_group_symop_operation_xyz
x,y,z
-y,x,1/4+z
-x,-y,1/2+z
y,-x,3/4+z
x,-y,1/2-z
-x,y,-z
y,x,3/4-z
-y,-x,1/4-z
loop_
_atom_site_type_symbol
_atom_site_label
_atom_site_fract_x
_atom_site_fract_y
_atom_site_fract_z
Si Si1 0.774850 0.589820 0.596446
Si Si2 0.634640 0.294223 0.742563
Si Si3 0.500000 0.964072 0.000000
Si Si4 0.184101 0.133464 0.752387
Si Si5 0.698645 0.072584 0.859329
O O1 0.674307 0.600113 0.685553
O O2 0.722850 0.498356 0.513645
O O3 0.888704 0.549005 0.653266
O O4 0.810947 0.698682 0.530852
O O5 0.696299 0.303701 0.625000
O O6 0.682621 0.194353 0.812706
O O7 0.402293 0.037062 0.058356
O O8 0.081470 0.185437 0.679435
O O9 0.183483 0.000000 0.750000
O O10 0.170555 0.170555 0.875000
O O11 0.713298 0.000000 0.750000
#
# Coordination Sequence:
#
# PCOD8305130 Si02
#       5
#     8   8   4   8   8
#     4  11  23  41  71  96 141 178 235 288 357 429
#     4  11  21  41  64  99 135 176 227 291 351 429
#     4  12  22  42  76 100 136 186 236 296 348 422
#     4  11  27  46  67 103 146 186 234 300 364 429
#     4  11  24  40  72 109 136 189 246 290 360 437
#
# _framework density 20.813030000000001
#
# number of rings (size 3 to 8) (size 9 to 14) (size 15 to 20)
#    0.000    0.889    4.444    1.333    6.222    2.667 
#    0.000    3.333    0.000    0.000    0.000    0.000 
#    0.000    0.000    0.000    0.000    0.000    0.000 
#
# Total GULP energy -446021.496509 kJ/mol
# GULP energy per Si atom -12389.486014 kJ/mol
# Density = 2.076566 g / cm^3
# Si number density = 20.813030 Si / 1000 Ang^3
#
#
#
# Elastic Constant Matrix: (Units=GPa)
#
#
# Indices 1 2 3 4 5 6 
#
# 1 134.5391 30.5641 63.9528 0.0000 0.0000 0.0000
# 2 30.5641 134.5445 63.9534 0.0000 0.0000 0.0000
# 3 63.9528 63.9534 126.3609 0.0000 0.0000 0.0000
# 4 0.0000 0.0000 0.0000 43.4283 0.0000 0.0000
# 5 0.0000 0.0000 0.0000 0.0000 43.4287 0.0000
# 6 0.0000 0.0000 0.0000 0.0000 0.0000 35.3880
#
#
#
# Elastic Compliance Matrix: (Units=1/GPa)
#
#
# Indices 1 2 3 4 5 6 
#
# 1 0.009790 0.000173 -0.005043 0.000000 0.000000 0.000000
# 2 0.000173 0.009790 -0.005042 0.000000 0.000000 0.000000
# 3 -0.005043 -0.005042 0.013018 0.000000 0.000000 0.000000
# 4 0.000000 0.000000 0.000000 0.023026 0.000000 0.000000
# 5 0.000000 0.000000 0.000000 0.000000 0.023026 0.000000
# 6 0.000000 0.000000 0.000000 0.000000 0.000000 0.028258
#
#
# Mechanical properties :
#
#
# Convention : Reuss Voigt Hill
#
# Bulk Modulus (GPa) = 78.28232 79.15391 78.71811
# Shear Modulus (GPa) = 38.17038 40.24728 39.20883
#
# Velocity S-wave (km/s) = 4.28713 4.40222 4.34505
# Velocity P-wave (km/s) = 7.88668 7.99705 7.94206
#
# Compressibility (1/GPa) = 0.01277428
#
# Stress axis : x y z
#
# Youngs Moduli (GPa) = 102.14000 102.14473 76.81699
#
# Poissons Ratio (x) = -0.01765 0.38735
# Poissons Ratio (y) = -0.01765 0.38734
# Poissons Ratio (z) = 0.51505 0.51505
#
# Static dielectric constant tensor:
#      x y z
#    x 3.591170 0.000000 0.000000 
#    y 0.000000 3.591150 0.000000 
#    z 0.000000 0.000000 4.162570 
# 
# 
# High freq. dielectric constant tensor:
#      x y z
#    x 1.818840 0.000000 0.000000 
#    y 0.000000 1.818840 0.000000 
#    z 0.000000 0.000000 1.834350 
# 
# From -- ./inp_files/3535.got.cif
#   From: 2010.03.12/outbox.cif.g09.slc.cpg/sg91_2_cif.got.tgz:3535.got - 2010.04.08 20:27:58.
