data_PCOD8305972
_publ_section_title
;
Structure prediction by ZEFSAII (Michael W. Deem and Ramdas Pophale) SiO2 
 PCOD8305972
Probable space group: P 43 21 2
;
_chemical_formula_sum "Si O2"
_cell_formula_units_Z 36
_cell_length_a 9.677259
_cell_length_b 9.677259
_cell_length_c 16.980132
_cell_angle_alpha 90.000000
_cell_angle_beta 90.000000
_cell_angle_gamma 90.000000
_cell_volume 1590.178185
_symmetry_space_group_name_H-M "P 43 21 2"
_symmetry_group_IT_number 96
_symmetry_cell_setting 'tetragonal'
loop_
_space_group_symop_operation_xyz
x,y,z
1/2-y,1/2+x,3/4+z
-x,-y,1/2+z
1/2+y,1/2-x,1/4+z
1/2+x,1/2-y,1/4-z
1/2-x,1/2+y,3/4-z
y,x,-z
-y,-x,1/2-z
loop_
_atom_site_type_symbol
_atom_site_label
_atom_site_fract_x
_atom_site_fract_y
_atom_site_fract_z
Si Si1 0.878990 0.884500 0.332761
Si Si2 0.683249 0.316752 0.750000
Si Si3 0.150447 0.425609 0.860197
Si Si4 0.022940 0.586521 0.211694
Si Si5 0.134390 0.057888 0.341602
O O1 0.848782 0.739831 0.377988
O O2 0.848285 0.882283 0.238031
O O3 0.801178 0.010969 0.375560
O O4 0.040993 0.920050 0.340187
O O5 0.642187 0.400109 0.670893
O O6 0.843239 0.360781 0.760180
O O7 0.104332 0.437908 0.770542
O O8 0.054478 0.527219 0.912829
O O9 0.990288 0.707925 0.150379
#
# Coordination Sequence:
#
# PCOD8305972 Si02
#       5
#     8   4   8   8   8
#     4  10  25  46  69 103 146 182 233 293 353 418
#     4  12  24  42  76 102 130 192 242 286 348 430
#     4  11  25  44  69 101 141 184 226 290 350 412
#     4  11  24  45  69 102 138 182 239 289 343 417
#     4  10  24  45  71 100 140 184 236 290 346 417
#
# _framework density 22.638971999999999
#
# number of rings (size 3 to 8) (size 9 to 14) (size 15 to 20)
#    0.000    1.333    2.222    2.667    6.222    4.444 
#    0.000    0.000    0.000    0.000    0.000    0.000 
#    0.000    0.000    0.000    0.000    0.000    0.000 
#
# Total GULP energy -446051.254400 kJ/mol
# GULP energy per Si atom -12390.312622 kJ/mol
# Density = 2.258745 g / cm^3
# Si number density = 22.638972 Si / 1000 Ang^3
#
#
#
# Elastic Constant Matrix: (Units=GPa)
#
#
# Indices 1 2 3 4 5 6 
#
# 1 88.4689 38.1177 31.5019 0.0000 0.0000 0.0000
# 2 38.1177 88.4685 31.5019 0.0000 0.0000 0.0000
# 3 31.5019 31.5019 104.9054 0.0000 0.0000 0.0000
# 4 0.0000 0.0000 0.0000 33.6553 0.0000 0.0000
# 5 0.0000 0.0000 0.0000 0.0000 33.6552 0.0000
# 6 0.0000 0.0000 0.0000 0.0000 0.0000 37.2889
#
#
#
# Elastic Compliance Matrix: (Units=1/GPa)
#
#
# Indices 1 2 3 4 5 6 
#
# 1 0.014574 -0.005286 -0.002789 0.000000 0.000000 0.000000
# 2 -0.005286 0.014574 -0.002789 0.000000 0.000000 0.000000
# 3 -0.002789 -0.002789 0.011207 0.000000 0.000000 0.000000
# 4 0.000000 0.000000 0.000000 0.029713 0.000000 0.000000
# 5 0.000000 0.000000 0.000000 0.000000 0.029713 0.000000
# 6 0.000000 0.000000 0.000000 0.000000 0.000000 0.026818
#
#
# Mechanical properties :
#
#
# Convention : Reuss Voigt Hill
#
# Bulk Modulus (GPa) = 53.68544 53.78732 53.73638
# Shear Modulus (GPa) = 32.35459 32.96796 32.66127
#
# Velocity S-wave (km/s) = 3.78452 3.82022 3.80241
# Velocity P-wave (km/s) = 6.54691 6.57792 6.56243
#
# Compressibility (1/GPa) = 0.01862702
#
# Stress axis : x y z
#
# Youngs Moduli (GPa) = 68.61442 68.61406 89.22646
#
# Poissons Ratio (x) = 0.36272 0.24886
# Poissons Ratio (y) = 0.36272 0.24886
# Poissons Ratio (z) = 0.19137 0.19137
#
# Static dielectric constant tensor:
#      x y z
#    x 3.934200 0.000000 0.000000 
#    y 0.000000 3.934210 0.000000 
#    z 0.000000 0.000000 3.962210 
# 
# 
# High freq. dielectric constant tensor:
#      x y z
#    x 1.885790 0.000000 0.000000 
#    y 0.000000 1.885790 0.000000 
#    z 0.000000 0.000000 1.893270 
# 
# From -- ./inp_files/3415.got.cif
#   From: 2010.03.12/outbox.cif.g09.slc.cpg/sg96_2_cif.got.tgz:3415.got - 2010.04.08 20:56:49.
