data_PCOD8305091
_publ_section_title
;
Structure prediction by ZEFSAII (Michael W. Deem and Ramdas Pophale) SiO2 
 PCOD8305091
Probable space group: P 41 2 2
;
_chemical_formula_sum "Si O2"
_cell_formula_units_Z 40
_cell_length_a 13.851108
_cell_length_b 13.851108
_cell_length_c 10.036077
_cell_angle_alpha 90.000000
_cell_angle_beta 90.000000
_cell_angle_gamma 90.000000
_cell_volume 1925.453416
_symmetry_space_group_name_H-M "P 41 2 2"
_symmetry_group_IT_number 91
_symmetry_cell_setting 'tetragonal'
loop_
_space_group_symop_operation_xyz
x,y,z
-y,x,1/4+z
-x,-y,1/2+z
y,-x,3/4+z
x,-y,1/2-z
-x,y,-z
y,x,3/4-z
-y,-x,1/4-z
loop_
_atom_site_type_symbol
_atom_site_label
_atom_site_fract_x
_atom_site_fract_y
_atom_site_fract_z
Si Si1 0.570837 0.241100 0.252242
Si Si2 0.720269 0.372051 0.375122
Si Si3 0.310829 0.036613 0.401549
Si Si4 0.861198 0.715517 0.322353
Si Si5 0.752190 0.752190 0.875000
Si Si6 0.500000 0.877482 0.000000
O O1 0.630217 0.340084 0.281809
O O2 0.487265 0.272391 0.148282
O O3 0.637391 0.156971 0.188532
O O4 0.535776 0.195636 0.388279
O O5 0.816235 0.330453 0.309830
O O6 0.715650 0.320703 0.514954
O O7 0.257934 0.137986 0.420179
O O8 0.423268 0.051025 0.433336
O O9 0.296161 0.000000 0.250000
O O10 0.266774 0.970268 0.521100
O O11 0.816575 0.816575 0.375000
#
# Coordination Sequence:
#
# PCOD8305091 Si02
#       6
#     8   8   8   8   4   4
#     4  11  22  41  66  91 138 178 226 274 337 397
#     4  11  21  41  64  94 132 178 218 276 329 401
#     4  12  25  41  69  97 132 170 221 276 341 404
#     4  10  24  43  68  95 133 173 219 282 340 396
#     4  12  22  42  68  92 134 170 212 272 346 400
#     4  12  24  36  64 106 122 172 220 278 330 404
#
# _framework density 20.774329000000002
#
# number of rings (size 3 to 8) (size 9 to 14) (size 15 to 20)
#    0.000    0.800    6.000    0.600    5.600    0.000 
#    0.000    0.000   52.800    0.000    0.000    0.000 
#    0.000    0.000    0.000    0.000    0.000    0.000 
#
# Total GULP energy -495751.999009 kJ/mol
# GULP energy per Si atom -12393.799975 kJ/mol
# Density = 2.072705 g / cm^3
# Si number density = 20.774329 Si / 1000 Ang^3
#
#
#
# Elastic Constant Matrix: (Units=GPa)
#
#
# Indices 1 2 3 4 5 6 
#
# 1 60.2482 64.9498 9.9449 0.0000 0.0000 0.0000
# 2 64.9498 60.2482 9.9449 0.0000 0.0000 0.0000
# 3 9.9449 9.9449 80.4113 0.0000 0.0000 0.0000
# 4 0.0000 0.0000 0.0000 32.1341 0.0000 0.0000
# 5 0.0000 0.0000 0.0000 0.0000 32.1341 0.0000
# 6 0.0000 0.0000 0.0000 0.0000 0.0000 -2.8899
#
#
#
# Elastic Compliance Matrix: (Units=1/GPa)
#
#
# Indices 1 2 3 4 5 6 
#
# 1 -0.102272 0.110420 -0.001008 0.000000 0.000000 0.000000
# 2 0.110420 -0.102272 -0.001008 0.000000 0.000000 0.000000
# 3 -0.001008 -0.001008 0.012685 0.000000 0.000000 0.000000
# 4 0.000000 0.000000 0.000000 0.031120 0.000000 0.000000
# 5 0.000000 0.000000 0.000000 0.000000 0.031120 0.000000
# 6 0.000000 0.000000 0.000000 0.000000 0.000000 -0.346038
#
#
# Mechanical properties :
#
#
# Convention : Reuss Voigt Hill
#
# Bulk Modulus (GPa) = 40.08080 41.17634 40.62857
# Shear Modulus (GPa) = -7.30834 20.01355 6.35261
#
# Velocity S-wave (km/s) = -1.87766 3.10720 1.75059
# Velocity P-wave (km/s) = 3.82551 5.72160 4.86679
#
# Compressibility (1/GPa) = 0.02494960
#
# Stress axis : x y z
#
# Youngs Moduli (GPa) = -9.77782 -9.77782 78.83137
#
# Poissons Ratio (x) = 1.07966 0.07943
# Poissons Ratio (y) = 1.07966 0.07943
# Poissons Ratio (z) = -0.00985 -0.00985
#
# Static dielectric constant tensor:
#      x y z
#    x 3.897220 0.000000 0.000000 
#    y 0.000000 3.897220 0.000000 
#    z 0.000000 0.000000 4.098960 
# 
# 
# High freq. dielectric constant tensor:
#      x y z
#    x 1.801280 0.000000 0.000000 
#    y 0.000000 1.801280 0.000000 
#    z 0.000000 0.000000 1.843820 
# 
# From -- ./inp_files/19441.got.cif
#   From: 2010.03.12/outbox.cif.g09.slc.cpg/sg91_10_cif.got.tgz:19441.got - 2010.04.08 20:27:58.
