data_PCOD8305804
_publ_section_title
;
Structure prediction by ZEFSAII (Michael W. Deem and Ramdas Pophale) SiO2 
 PCOD8305804
Probable space group: P 43 2 2
;
_chemical_formula_sum "Si O2"
_cell_formula_units_Z 40
_cell_length_a 14.678582
_cell_length_b 14.678582
_cell_length_c 9.078648
_cell_angle_alpha 90.000000
_cell_angle_beta 90.000000
_cell_angle_gamma 90.000000
_cell_volume 1956.092484
_symmetry_space_group_name_H-M "P 43 2 2"
_symmetry_group_IT_number 95
_symmetry_cell_setting 'tetragonal'
loop_
_space_group_symop_operation_xyz
x,y,z
-y,x,3/4+z
-x,-y,1/2+z
y,-x,1/4+z
x,-y,1/2-z
-x,y,-z
y,x,1/4-z
-y,-x,3/4-z
loop_
_atom_site_type_symbol
_atom_site_label
_atom_site_fract_x
_atom_site_fract_y
_atom_site_fract_z
Si Si1 0.762783 0.037743 0.587371
Si Si2 0.284204 0.364319 0.329494
Si Si3 0.072816 0.567983 0.627409
Si Si4 0.545937 0.260296 0.774704
Si Si5 0.203828 0.151260 0.959339
O O1 0.666548 0.082953 0.546048
O O2 0.838301 0.117598 0.598538
O O3 0.753943 0.000000 0.750000
O O4 0.782640 0.957867 0.469356
O O5 0.243227 0.408874 0.182467
O O6 0.388255 0.329888 0.312333
O O7 0.293655 0.441339 0.456296
O O8 0.209445 0.285756 0.365333
O O9 0.036381 0.500000 0.750000
O O10 0.168925 0.536929 0.566475
O O11 0.000000 0.568893 0.500000
O O12 0.189714 0.189714 0.125000
#
# Coordination Sequence:
#
# PCOD8305804 Si02
#       5
#     8   8   8   8   8
#     4   9  18  31  56  88 118 152 206 253 307 371
#     4  10  18  34  63  87 121 158 217 261 316 374
#     4  11  23  37  58  95 129 160 207 264 323 383
#     4  10  20  35  60  87 121 165 209 264 313 388
#     4  10  16  31  54  91 114 153 203 263 310 372
#
# _framework density 20.448931000000002
#
# number of rings (size 3 to 8) (size 9 to 14) (size 15 to 20)
#    0.000    2.000    4.000    2.400    5.600    0.000 
#    0.000    1.000   17.600    0.000   46.800    0.000 
#    0.000    0.000    0.000    0.000    0.000    0.000 
#
# Total GULP energy -495633.652810 kJ/mol
# GULP energy per Si atom -12390.841320 kJ/mol
# Density = 2.040239 g / cm^3
# Si number density = 20.448931 Si / 1000 Ang^3
#
#
#
# Elastic Constant Matrix: (Units=GPa)
#
#
# Indices 1 2 3 4 5 6 
#
# 1 150.4137 77.5705 38.8192 0.0000 0.0000 0.0000
# 2 77.5705 150.4137 38.8192 0.0000 0.0000 0.0000
# 3 38.8192 38.8192 28.8674 0.0000 0.0000 0.0000
# 4 0.0000 0.0000 0.0000 11.2371 0.0000 0.0000
# 5 0.0000 0.0000 0.0000 0.0000 11.2371 0.0000
# 6 0.0000 0.0000 0.0000 0.0000 0.0000 32.3407
#
#
#
# Elastic Compliance Matrix: (Units=1/GPa)
#
#
# Indices 1 2 3 4 5 6 
#
# 1 0.010910 -0.002818 -0.010881 0.000000 0.000000 0.000000
# 2 -0.002818 0.010910 -0.010881 0.000000 0.000000 0.000000
# 3 -0.010881 -0.010881 0.063907 0.000000 0.000000 0.000000
# 4 0.000000 0.000000 0.000000 0.088991 0.000000 0.000000
# 5 0.000000 0.000000 0.000000 0.000000 0.088991 0.000000
# 6 0.000000 0.000000 0.000000 0.000000 0.000000 0.030921
#
#
# Mechanical properties :
#
#
# Convention : Reuss Voigt Hill
#
# Bulk Modulus (GPa) = 27.34890 71.12360 49.23625
# Shear Modulus (GPa) = 14.04572 22.59536 18.32054
#
# Velocity S-wave (km/s) = 2.62366 3.32771 2.99643
# Velocity P-wave (km/s) = 4.75199 7.04425 6.00845
#
# Compressibility (1/GPa) = 0.03656454
#
# Stress axis : x y z
#
# Youngs Moduli (GPa) = 91.65904 91.65904 15.64781
#
# Poissons Ratio (x) = 0.25831 0.17027
# Poissons Ratio (y) = 0.25831 0.17027
# Poissons Ratio (z) = 0.99739 0.99739
#
# Static dielectric constant tensor:
#      x y z
#    x 4.281450 0.000000 0.000000 
#    y 0.000000 4.281450 0.000000 
#    z 0.000000 0.000000 3.151570 
# 
# 
# High freq. dielectric constant tensor:
#      x y z
#    x 1.805380 0.000000 0.000000 
#    y 0.000000 1.805380 0.000000 
#    z 0.000000 0.000000 1.746500 
# 
# From -- ./inp_files/2352.got.cif
#   From: 2010.03.12/outbox.cif.g09.slc.cpg/sg95_2_cif.got.tgz:2352.got - 2010.04.08 20:51:55.
