data_PCOD8305275
_publ_section_title
;
Structure prediction by ZEFSAII (Michael W. Deem and Ramdas Pophale) SiO2 
 PCOD8305275
Probable space group: P 41 21 2
;
_chemical_formula_sum "Si O2"
_cell_formula_units_Z 44
_cell_length_a 8.517715
_cell_length_b 8.517715
_cell_length_c 28.787440
_cell_angle_alpha 90.000000
_cell_angle_beta 90.000000
_cell_angle_gamma 90.000000
_cell_volume 2088.571056
_symmetry_space_group_name_H-M "P 41 21 2"
_symmetry_group_IT_number 92
_symmetry_cell_setting 'tetragonal'
loop_
_space_group_symop_operation_xyz
x,y,z
1/2-y,1/2+x,1/4+z
-x,-y,1/2+z
1/2+y,1/2-x,3/4+z
1/2+x,1/2-y,3/4-z
1/2-x,1/2+y,1/4-z
y,x,-z
-y,-x,1/2-z
loop_
_atom_site_type_symbol
_atom_site_label
_atom_site_fract_x
_atom_site_fract_y
_atom_site_fract_z
Si Si1 0.757981 0.209017 0.422168
Si Si2 0.879390 0.480511 0.473304
Si Si3 0.081256 0.820318 0.834580
Si Si4 0.206384 0.967241 0.017785
Si Si5 0.250799 0.551451 0.785542
Si Si6 0.976417 0.023583 0.750000
O O1 0.859215 0.369730 0.428493
O O2 0.848685 0.106797 0.382634
O O3 0.585795 0.246997 0.404147
O O4 0.744960 0.128769 0.472006
O O5 0.708856 0.497189 0.497390
O O6 0.963831 0.640441 0.456158
O O7 0.996243 0.408757 0.511389
O O8 0.203619 0.678033 0.824014
O O9 0.069911 0.952650 0.794584
O O10 0.102133 0.853985 0.051961
O O11 0.119556 0.119556 0.000000
O O12 0.368792 0.631209 0.750000
#
# Coordination Sequence:
#
# PCOD8305275 Si02
#       6
#     8   8   8   8   8   4
#     4  10  24  37  62  93 124 165 209 267 299 380
#     4  10  20  41  62  90 118 163 207 256 318 371
#     4  11  22  40  61  92 128 160 218 251 315 378
#     4  10  20  38  65  89 122 162 208 256 317 368
#     4  10  21  35  63  89 118 166 208 242 307 380
#     4  10  22  40  68  86 124 172 198 262 324 384
#
# _framework density 21.067036999999999
#
# number of rings (size 3 to 8) (size 9 to 14) (size 15 to 20)
#    0.000    1.818    3.636    0.000    7.636    0.000 
#    0.000    1.818    0.000    0.000    0.000    0.000 
#    0.000    0.000    0.000    0.000    0.000    0.000 
#
# Total GULP energy -545156.031493 kJ/mol
# GULP energy per Si atom -12389.909807 kJ/mol
# Density = 2.101909 g / cm^3
# Si number density = 21.067037 Si / 1000 Ang^3
#
#
#
# Elastic Constant Matrix: (Units=GPa)
#
#
# Indices 1 2 3 4 5 6 
#
# 1 103.2194 14.4804 8.8243 0.0000 0.0000 0.0000
# 2 14.4804 103.2162 8.8241 0.0000 0.0000 0.0000
# 3 8.8243 8.8241 50.4834 0.0000 0.0000 0.0000
# 4 0.0000 0.0000 0.0000 5.2204 0.0000 0.0000
# 5 0.0000 0.0000 0.0000 0.0000 5.2204 0.0000
# 6 0.0000 0.0000 0.0000 0.0000 0.0000 48.3562
#
#
#
# Elastic Compliance Matrix: (Units=1/GPa)
#
#
# Indices 1 2 3 4 5 6 
#
# 1 0.009997 -0.001272 -0.001525 0.000000 0.000000 0.000000
# 2 -0.001272 0.009997 -0.001525 0.000000 0.000000 0.000000
# 3 -0.001525 -0.001525 0.020342 0.000000 0.000000 0.000000
# 4 0.000000 0.000000 0.000000 0.191555 0.000000 0.000000
# 5 0.000000 0.000000 0.000000 0.000000 0.191555 0.000000
# 6 0.000000 0.000000 0.000000 0.000000 0.000000 0.020680
#
#
# Mechanical properties :
#
#
# Convention : Reuss Voigt Hill
#
# Bulk Modulus (GPa) = 31.55439 35.68629 33.62034
# Shear Modulus (GPa) = 10.79133 26.74542 18.76838
#
# Velocity S-wave (km/s) = 2.26572 3.56692 2.98801
# Velocity P-wave (km/s) = 4.67496 5.82581 5.28183
#
# Compressibility (1/GPa) = 0.03169131
#
# Stress axis : x y z
#
# Youngs Moduli (GPa) = 100.03063 100.02748 49.16021
#
# Poissons Ratio (x) = 0.12725 0.07497
# Poissons Ratio (y) = 0.12725 0.07497
# Poissons Ratio (z) = 0.15255 0.15255
#
# Static dielectric constant tensor:
#      x y z
#    x 4.510800 0.000000 0.000000 
#    y 0.000000 4.510770 0.000000 
#    z 0.000000 0.000000 3.474940 
# 
# 
# High freq. dielectric constant tensor:
#      x y z
#    x 1.838660 0.000000 0.000000 
#    y 0.000000 1.838660 0.000000 
#    z 0.000000 0.000000 1.782160 
# 
# From -- ./inp_files/4392.got.cif
#   From: 2010.03.12/outbox.cif.g09.slc.cpg/sg92_3_cif.got.tgz:4392.got - 2010.04.08 20:41:11.
