data_PCOD8305773
_publ_section_title
;
Structure prediction by ZEFSAII (Michael W. Deem and Ramdas Pophale) SiO2 
 PCOD8305773
Probable space group: P 42 21 2
;
_chemical_formula_sum "Si O2"
_cell_formula_units_Z 16
_cell_length_a 9.521751
_cell_length_b 9.521751
_cell_length_c 6.884343
_cell_angle_alpha 90.000000
_cell_angle_beta 90.000000
_cell_angle_gamma 90.000000
_cell_volume 624.160298
_symmetry_space_group_name_H-M "P 42 21 2"
_symmetry_group_IT_number 94
_symmetry_cell_setting 'tetragonal'
loop_
_space_group_symop_operation_xyz
x,y,z
1/2-y,1/2+x,1/2+z
-x,-y,z
1/2+y,1/2-x,1/2+z
1/2+x,1/2-y,1/2-z
1/2-x,1/2+y,1/2-z
y,x,-z
-y,-x,-z
loop_
_atom_site_type_symbol
_atom_site_label
_atom_site_fract_x
_atom_site_fract_y
_atom_site_fract_z
Si Si1 0.019364 0.665104 0.956488
Si Si2 0.773432 0.182333 0.702053
O O1 0.147434 0.687148 0.804843
O O2 0.000000 0.500000 0.004889
O O3 0.881240 0.733823 0.864512
O O4 0.051713 0.753035 0.153017
O O5 0.856162 0.143839 0.500000
#
# Coordination Sequence:
#
# PCOD8305773 Si02
#       2
#     8   8
#     4  11  24  44  72 109 152 199 252 314 383 454
#     4  11  23  42  74 110 152 201 251 311 379 449
#
# _framework density 25.634440999999999
#
# number of rings (size 3 to 8) (size 9 to 14) (size 15 to 20)
#    0.000    1.000    0.000    7.500    0.000    6.000 
#    0.000   17.500    0.000   30.000    0.000    0.000 
#    0.000    0.000    0.000    0.000    0.000    0.000 
#
# Total GULP energy -198227.838017 kJ/mol
# GULP energy per Si atom -12389.239876 kJ/mol
# Density = 2.557610 g / cm^3
# Si number density = 25.634441 Si / 1000 Ang^3
#
#
#
# Elastic Constant Matrix: (Units=GPa)
#
#
# Indices 1 2 3 4 5 6 
#
# 1 86.1986 54.3334 35.0516 0.0000 0.0000 0.0000
# 2 54.3334 86.1993 35.0514 0.0000 0.0000 0.0000
# 3 35.0516 35.0514 189.5355 0.0000 0.0000 0.0000
# 4 0.0000 0.0000 0.0000 49.9772 0.0000 0.0000
# 5 0.0000 0.0000 0.0000 0.0000 49.9772 0.0000
# 6 0.0000 0.0000 0.0000 0.0000 0.0000 48.2080
#
#
#
# Elastic Compliance Matrix: (Units=1/GPa)
#
#
# Indices 1 2 3 4 5 6 
#
# 1 0.019610 -0.011771 -0.001450 0.000000 0.000000 0.000000
# 2 -0.011771 0.019610 -0.001450 0.000000 0.000000 0.000000
# 3 -0.001450 -0.001450 0.005812 0.000000 0.000000 0.000000
# 4 0.000000 0.000000 0.000000 0.020009 0.000000 0.000000
# 5 0.000000 0.000000 0.000000 0.000000 0.020009 0.000000
# 6 0.000000 0.000000 0.000000 0.000000 0.000000 0.020743
#
#
# Mechanical properties :
#
#
# Convention : Reuss Voigt Hill
#
# Bulk Modulus (GPa) = 63.72910 67.86735 65.79823
# Shear Modulus (GPa) = 35.62097 45.46562 40.54329
#
# Velocity S-wave (km/s) = 3.73174 4.21600 3.98124
# Velocity P-wave (km/s) = 6.59413 7.08746 6.84524
#
# Compressibility (1/GPa) = 0.01569142
#
# Stress axis : x y z
#
# Youngs Moduli (GPa) = 50.99318 50.99364 172.05040
#
# Poissons Ratio (x) = 0.60027 0.24942
# Poissons Ratio (y) = 0.60026 0.24941
# Poissons Ratio (z) = 0.07393 0.07392
#
# Static dielectric constant tensor:
#      x y z
#    x 4.448850 0.000000 0.000000 
#    y 0.000000 4.448850 0.000000 
#    z 0.000000 0.000000 5.704440 
# 
# 
# High freq. dielectric constant tensor:
#      x y z
#    x 2.000470 0.000000 0.000000 
#    y 0.000000 2.000470 0.000000 
#    z 0.000000 0.000000 2.071670 
# 
# From -- ./inp_files/30.got.cif
#   From: 2010.03.12/outbox.cif.g09.slc.cpg/sg94_1_cif.got.tgz:30.got - 2010.04.08 20:48:32.
