data_PCOD8305159
_publ_section_title
;
Structure prediction by ZEFSAII (Michael W. Deem and Ramdas Pophale) SiO2 
 PCOD8305159
Probable space group: P 41 2 2
;
_chemical_formula_sum "Si O2"
_cell_formula_units_Z 20
_cell_length_a 8.330522
_cell_length_b 8.330522
_cell_length_c 10.482885
_cell_angle_alpha 90.000000
_cell_angle_beta 90.000000
_cell_angle_gamma 90.000000
_cell_volume 727.487026
_symmetry_space_group_name_H-M "P 41 2 2"
_symmetry_group_IT_number 91
_symmetry_cell_setting 'tetragonal'
loop_
_space_group_symop_operation_xyz
x,y,z
-y,x,1/4+z
-x,-y,1/2+z
y,-x,3/4+z
x,-y,1/2-z
-x,y,-z
y,x,3/4-z
-y,-x,1/4-z
loop_
_atom_site_type_symbol
_atom_site_label
_atom_site_fract_x
_atom_site_fract_y
_atom_site_fract_z
Si Si1 0.970643 0.236220 0.364190
Si Si2 0.569953 0.430048 0.625000
Si Si3 0.619352 0.884132 0.132526
O O1 0.783400 0.209573 0.340145
O O2 0.000000 0.325431 0.500000
O O3 0.023795 0.357912 0.253149
O O4 0.066977 0.066977 0.375000
O O5 0.483325 0.500000 0.750000
O O6 0.532189 0.239720 0.621306
O O7 0.586902 0.000000 0.250000
#
# Coordination Sequence:
#
# PCOD8305159 Si02
#       3
#     8   4   8
#     4   9  19  39  81 130 165 207 285 354 408 486
#     4  12  34  58  74 122 176 220 272 340 424 498
#     4  11  23  48  85 122 164 222 278 343 419 495
#
# _framework density 27.491896000000001
#
# number of rings (size 3 to 8) (size 9 to 14) (size 15 to 20)
#    0.000    1.600    0.000    4.800   14.000    0.000 
#    7.200    0.000    0.000    0.000    0.000    5.600 
#    0.000    0.000    0.000    0.000    0.000    0.000 
#
# Total GULP energy -247829.204955 kJ/mol
# GULP energy per Si atom -12391.460248 kJ/mol
# Density = 2.742932 g / cm^3
# Si number density = 27.491896 Si / 1000 Ang^3
#
#
#
# Elastic Constant Matrix: (Units=GPa)
#
#
# Indices 1 2 3 4 5 6 
#
# 1 185.0245 91.4181 72.0170 0.0000 0.0000 0.0000
# 2 91.4181 185.0213 72.0168 0.0000 0.0000 0.0000
# 3 72.0170 72.0168 318.9652 0.0000 0.0000 0.0000
# 4 0.0000 0.0000 0.0000 -140.2190 0.0000 0.0000
# 5 0.0000 0.0000 0.0000 0.0000 -140.2156 0.0000
# 6 0.0000 0.0000 0.0000 0.0000 0.0000 34.8374
#
#
#
# Elastic Compliance Matrix: (Units=1/GPa)
#
#
# Indices 1 2 3 4 5 6 
#
# 1 0.007391 -0.003292 -0.000926 0.000000 0.000000 0.000000
# 2 -0.003292 0.007392 -0.000926 0.000000 0.000000 0.000000
# 3 -0.000926 -0.000926 0.003553 0.000000 0.000000 0.000000
# 4 0.000000 0.000000 0.000000 -0.007132 0.000000 0.000000
# 5 0.000000 0.000000 0.000000 0.000000 -0.007132 0.000000
# 6 0.000000 0.000000 0.000000 0.000000 0.000000 0.028705
#
#
# Mechanical properties :
#
#
# Convention : Reuss Voigt Hill
#
# Bulk Modulus (GPa) = 124.22439 128.87944 126.55191
# Shear Modulus (GPa) = 109.29754 -18.88219 45.20768
#
# Velocity S-wave (km/s) = 6.31210 -2.62358 4.05952
# Velocity P-wave (km/s) = 9.92005 6.14844 8.25259
#
# Compressibility (1/GPa) = 0.00804995
#
# Stress axis : x y z
#
# Youngs Moduli (GPa) = 135.29256 135.29012 281.44231
#
# Poissons Ratio (x) = 0.44534 0.26051
# Poissons Ratio (y) = 0.44535 0.26052
# Poissons Ratio (z) = 0.12523 0.12523
#
# Static dielectric constant tensor:
#      x y z
#    x 4.982180 0.000000 0.000000 
#    y 0.000000 4.982200 0.000000 
#    z 0.000000 0.000000 7.827130 
# 
# 
# High freq. dielectric constant tensor:
#      x y z
#    x 2.120810 0.000000 0.000000 
#    y 0.000000 2.120810 0.000000 
#    z 0.000000 0.000000 2.147470 
# 
# From -- ./inp_files/3067.got.cif
#   From: 2010.03.12/outbox.cif.g09.slc.cpg/sg91_2_cif.got.tgz:3067.got - 2010.04.08 20:27:58.
