data_PCOD8305667
_publ_section_title
;
Structure prediction by ZEFSAII (Michael W. Deem and Ramdas Pophale) SiO2 
 PCOD8305667
Probable space group: P 42 21 2
;
_chemical_formula_sum "Si O2"
_cell_formula_units_Z 60
_cell_length_a 11.506661
_cell_length_b 11.506661
_cell_length_c 21.788907
_cell_angle_alpha 90.000000
_cell_angle_beta 90.000000
_cell_angle_gamma 90.000000
_cell_volume 2884.922043
_symmetry_space_group_name_H-M "P 42 21 2"
_symmetry_group_IT_number 94
_symmetry_cell_setting 'tetragonal'
loop_
_space_group_symop_operation_xyz
x,y,z
1/2-y,1/2+x,1/2+z
-x,-y,z
1/2+y,1/2-x,1/2+z
1/2+x,1/2-y,1/2-z
1/2-x,1/2+y,1/2-z
y,x,-z
-y,-x,-z
loop_
_atom_site_type_symbol
_atom_site_label
_atom_site_fract_x
_atom_site_fract_y
_atom_site_fract_z
Si Si1 0.397939 0.082422 0.298470
Si Si2 0.602241 0.212818 0.922580
Si Si3 0.174059 0.825942 0.000000
Si Si4 0.463518 0.631789 0.130592
Si Si5 0.973178 0.804552 0.794265
Si Si6 0.516402 0.669398 0.267633
Si Si7 0.691305 0.014796 0.076110
Si Si8 0.178726 0.479384 0.955763
O O1 0.371386 0.054930 0.369522
O O2 0.445639 0.211495 0.296738
O O3 0.500000 0.000000 0.273801
O O4 0.282125 0.067804 0.258813
O O5 0.637195 0.333897 0.893398
O O6 0.719915 0.168161 0.952764
O O7 0.501907 0.217486 0.974180
O O8 0.191400 0.944606 0.039431
O O9 0.500000 0.500000 0.131796
O O10 0.475991 0.686494 0.197712
O O11 0.543948 0.706245 0.084495
O O12 0.087544 0.870634 0.770868
O O13 0.993242 0.727855 0.854258
O O14 0.877185 0.905017 0.805896
O O15 0.591858 0.113765 0.073086
O O16 0.637083 0.898607 0.046516
#
# Coordination Sequence:
#
# PCOD8305667 Si02
#       8
#     8   8   4   8   8   8   8   8
#     4  12  28  39  72 102 137 180 227 284 343 415
#     4  11  21  42  60 100 133 173 229 275 344 408
#     4  10  20  38  71  93 122 188 220 284 334 399
#     4  12  21  42  66  95 135 179 219 279 356 408
#     4  11  24  46  67 100 135 187 221 278 352 407
#     4  11  25  45  68 100 144 173 226 288 341 421
#     4  10  21  40  69  94 134 174 237 278 332 410
#     4  10  23  38  67  99 132 177 234 286 329 408
#
# _framework density 20.797789999999999
#
# number of rings (size 3 to 8) (size 9 to 14) (size 15 to 20)
#    0.000    1.067    5.333    1.600    9.333    1.067 
#    2.400    0.000    0.000   12.000    0.000    0.000 
#    0.000    0.000    0.000    0.000    0.000    0.000 
#
# Total GULP energy -743909.958980 kJ/mol
# GULP energy per Si atom -12398.499316 kJ/mol
# Density = 2.075045 g / cm^3
# Si number density = 20.797790 Si / 1000 Ang^3
#
#
#
# Elastic Constant Matrix: (Units=GPa)
#
#
# Indices 1 2 3 4 5 6 
#
# 1 52.7426 12.6638 19.1258 0.0000 0.0000 0.0000
# 2 12.6638 52.7417 19.1260 0.0000 0.0000 0.0000
# 3 19.1258 19.1260 129.9338 0.0000 0.0000 0.0000
# 4 0.0000 0.0000 0.0000 31.1568 0.0000 0.0000
# 5 0.0000 0.0000 0.0000 0.0000 31.1566 0.0000
# 6 0.0000 0.0000 0.0000 0.0000 0.0000 33.4631
#
#
#
# Elastic Compliance Matrix: (Units=1/GPa)
#
#
# Indices 1 2 3 4 5 6 
#
# 1 0.020840 -0.004111 -0.002462 0.000000 0.000000 0.000000
# 2 -0.004111 0.020840 -0.002463 0.000000 0.000000 0.000000
# 3 -0.002462 -0.002463 0.008421 0.000000 0.000000 0.000000
# 4 0.000000 0.000000 0.000000 0.032096 0.000000 0.000000
# 5 0.000000 0.000000 0.000000 0.000000 0.032096 0.000000
# 6 0.000000 0.000000 0.000000 0.000000 0.000000 0.029884
#
#
# Mechanical properties :
#
#
# Convention : Reuss Voigt Hill
#
# Bulk Modulus (GPa) = 31.22101 37.47216 34.34659
# Shear Modulus (GPa) = 28.91420 31.45546 30.18483
#
# Velocity S-wave (km/s) = 3.73266 3.89323 3.81379
# Velocity P-wave (km/s) = 5.79838 6.18597 5.99531
#
# Compressibility (1/GPa) = 0.03202971
#
# Stress axis : x y z
#
# Youngs Moduli (GPa) = 47.98457 47.98371 118.74823
#
# Poissons Ratio (x) = 0.19726 0.29241
# Poissons Ratio (y) = 0.19726 0.29242
# Poissons Ratio (z) = 0.11816 0.11816
#
# Static dielectric constant tensor:
#      x y z
#    x 3.923120 0.000000 0.000000 
#    y 0.000000 3.923120 0.000000 
#    z 0.000000 0.000000 4.101080 
# 
# 
# High freq. dielectric constant tensor:
#      x y z
#    x 1.808760 0.000000 0.000000 
#    y 0.000000 1.808760 0.000000 
#    z 0.000000 0.000000 1.824280 
# 
# From -- ./inp_files/4818.got.cif
#   From: 2010.03.12/outbox.cif.g09.slc.cpg/sg94_3_cif.got.tgz:4818.got - 2010.04.08 20:48:32.
