data_PCOD8305830
_publ_section_title
;
Structure prediction by ZEFSAII (Michael W. Deem and Ramdas Pophale) SiO2 
 PCOD8305830
Probable space group: P 43 2 2
;
_chemical_formula_sum "Si O2"
_cell_formula_units_Z 60
_cell_length_a 18.107074
_cell_length_b 18.107074
_cell_length_c 7.851384
_cell_angle_alpha 90.000000
_cell_angle_beta 90.000000
_cell_angle_gamma 90.000000
_cell_volume 2574.202878
_symmetry_space_group_name_H-M "P 43 2 2"
_symmetry_group_IT_number 95
_symmetry_cell_setting 'tetragonal'
loop_
_space_group_symop_operation_xyz
x,y,z
-y,x,3/4+z
-x,-y,1/2+z
y,-x,1/4+z
x,-y,1/2-z
-x,y,-z
y,x,1/4-z
-y,-x,3/4-z
loop_
_atom_site_type_symbol
_atom_site_label
_atom_site_fract_x
_atom_site_fract_y
_atom_site_fract_z
Si Si1 0.000000 0.311114 0.500000
Si Si2 0.381927 0.257545 0.950062
Si Si3 0.099522 0.664343 0.273412
Si Si4 0.485803 0.236767 0.275079
Si Si5 0.860041 0.250620 0.296375
Si Si6 0.524926 0.920220 0.690393
Si Si7 0.190441 0.919720 0.299413
Si Si8 0.723390 0.353435 0.229820
O O1 0.959833 0.365178 0.633946
O O2 0.933956 0.264890 0.407452
O O3 0.339899 0.179685 0.938731
O O4 0.434851 0.270173 0.780456
O O5 0.315429 0.317555 0.940458
O O6 0.429340 0.257167 0.121882
O O7 0.086112 0.614633 0.441031
O O8 0.077217 0.748732 0.302062
O O9 0.501039 0.148879 0.303721
O O10 0.442440 0.266518 0.445979
O O11 0.819808 0.180193 0.375000
O O12 0.802969 0.319557 0.280949
O O13 0.878917 0.229811 0.104500
O O14 0.500000 0.900642 0.500000
O O15 0.496833 0.000000 0.750000
O O16 0.119940 0.880061 0.375000
O O17 0.161967 0.000000 0.250000
O O18 0.663438 0.336563 0.375000
#
# Coordination Sequence:
#
# PCOD8305830 Si02
#       8
#     4   8   8   8   8   8   8   8
#     4  12  24  38  62  94 126 166 212 276 332 408
#     4  10  20  41  65  95 131 176 225 274 334 409
#     4  11  22  39  63  90 127 170 221 276 333 411
#     4  10  21  41  64  93 133 179 230 273 339 415
#     4  11  24  42  64  94 126 169 221 280 346 411
#     4  11  23  40  57  91 134 183 227 275 338 416
#     4  12  24  43  67  94 120 165 222 287 357 415
#     4  11  23  39  63  98 133 172 224 281 340 400
#
# _framework density 23.308188000000001
#
# number of rings (size 3 to 8) (size 9 to 14) (size 15 to 20)
#    0.000    1.067    4.000    5.600    2.800    0.533 
#    2.400    0.667    0.000    0.000    0.000    7.467 
#    0.000    0.000    0.000    0.000    0.000    0.000 
#
# Total GULP energy -743444.653933 kJ/mol
# GULP energy per Si atom -12390.744232 kJ/mol
# Density = 2.325514 g / cm^3
# Si number density = 23.308188 Si / 1000 Ang^3
#
#
#
# Elastic Constant Matrix: (Units=GPa)
#
#
# Indices 1 2 3 4 5 6 
#
# 1 117.1016 54.5124 15.0106 0.0000 0.0000 0.0000
# 2 54.5124 117.1028 15.0111 0.0000 0.0000 0.0000
# 3 15.0106 15.0111 53.0578 0.0000 0.0000 0.0000
# 4 0.0000 0.0000 0.0000 35.4571 0.0000 0.0000
# 5 0.0000 0.0000 0.0000 0.0000 35.4563 0.0000
# 6 0.0000 0.0000 0.0000 0.0000 0.0000 13.4026
#
#
#
# Elastic Compliance Matrix: (Units=1/GPa)
#
#
# Indices 1 2 3 4 5 6 
#
# 1 0.011054 -0.004923 -0.001734 0.000000 0.000000 0.000000
# 2 -0.004923 0.011054 -0.001734 0.000000 0.000000 0.000000
# 3 -0.001734 -0.001734 0.019829 0.000000 0.000000 0.000000
# 4 0.000000 0.000000 0.000000 0.028203 0.000000 0.000000
# 5 0.000000 0.000000 0.000000 0.000000 0.028204 0.000000
# 6 0.000000 0.000000 0.000000 0.000000 0.000000 0.074612
#
#
# Mechanical properties :
#
#
# Convention : Reuss Voigt Hill
#
# Bulk Modulus (GPa) = 39.75822 50.70336 45.23079
# Shear Modulus (GPa) = 25.23678 30.37841 27.80759
#
# Velocity S-wave (km/s) = 3.29408 3.61409 3.45779
# Velocity P-wave (km/s) = 5.61806 6.26229 5.94890
#
# Compressibility (1/GPa) = 0.02515203
#
# Stress axis : x y z
#
# Youngs Moduli (GPa) = 90.46679 90.46753 50.43184
#
# Poissons Ratio (x) = 0.44540 0.08746
# Poissons Ratio (y) = 0.44540 0.08747
# Poissons Ratio (z) = 0.15690 0.15691
#
# Static dielectric constant tensor:
#      x y z
#    x 4.310150 0.000000 0.000000 
#    y 0.000000 4.310150 0.000000 
#    z 0.000000 0.000000 4.489290 
# 
# 
# High freq. dielectric constant tensor:
#      x y z
#    x 1.917550 0.000000 0.000000 
#    y 0.000000 1.917550 0.000000 
#    z 0.000000 0.000000 1.940330 
# 
# From -- ./inp_files/2831.got.cif
#   From: 2010.03.12/outbox.cif.g09.slc.cpg/sg95_2_cif.got.tgz:2831.got - 2010.04.08 20:51:55.
