data_PCOD8305670
_publ_section_title
;
Structure prediction by ZEFSAII (Michael W. Deem and Ramdas Pophale) SiO2 
 PCOD8305670
Probable space group: P 42 21 2
;
_chemical_formula_sum "Si O2"
_cell_formula_units_Z 38
_cell_length_a 11.134147
_cell_length_b 11.134147
_cell_length_c 15.887823
_cell_angle_alpha 90.000000
_cell_angle_beta 90.000000
_cell_angle_gamma 90.000000
_cell_volume 1969.601174
_symmetry_space_group_name_H-M "P 42 21 2"
_symmetry_group_IT_number 94
_symmetry_cell_setting 'tetragonal'
loop_
_space_group_symop_operation_xyz
x,y,z
1/2-y,1/2+x,1/2+z
-x,-y,z
1/2+y,1/2-x,1/2+z
1/2+x,1/2-y,1/2-z
1/2-x,1/2+y,1/2-z
y,x,-z
-y,-x,-z
loop_
_atom_site_type_symbol
_atom_site_label
_atom_site_fract_x
_atom_site_fract_y
_atom_site_fract_z
Si Si1 0.215479 0.784522 0.500000
Si Si2 0.699036 0.421149 0.618560
Si Si3 0.881466 0.573636 0.721729
Si Si4 0.818305 0.059276 0.649887
Si Si5 0.000000 0.000000 0.000000
Si Si6 0.159747 0.065974 0.285203
O O1 0.225099 0.678181 0.567649
O O2 0.205760 0.906851 0.553359
O O3 0.800101 0.507898 0.653736
O O4 0.619508 0.501222 0.556172
O O5 0.610713 0.363935 0.689143
O O6 0.807018 0.590131 0.806618
O O7 0.918863 0.703444 0.687325
O O8 0.000000 0.500000 0.743435
O O9 0.925929 0.126832 0.700974
O O10 0.849676 0.918108 0.652643
#
# Coordination Sequence:
#
# PCOD8305670 Si02
#       6
#     4   8   8   8   2   8
#     4  11  20  40  64  93 134 162 200 287 323 357
#     4  10  21  39  62  92 126 169 213 257 327 365
#     4  11  22  39  64  93 120 167 218 258 300 393
#     4  10  22  39  62  90 124 168 210 253 330 367
#     4  10  20  40  64  86 132 170 208 270 320 384
#     4  10  21  40  65  89 122 172 217 250 299 404
#
# _framework density 19.293246
#
# number of rings (size 3 to 8) (size 9 to 14) (size 15 to 20)
#    0.000    1.684    2.105    3.789    2.947    1.684 
#    0.000    7.368    0.000    0.000    0.000    0.000 
#    0.000    0.000    0.000    0.000    0.000    0.000 
#
# Total GULP energy -471029.083455 kJ/mol
# GULP energy per Si atom -12395.502196 kJ/mol
# Density = 1.924933 g / cm^3
# Si number density = 19.293246 Si / 1000 Ang^3
#
#
#
# Elastic Constant Matrix: (Units=GPa)
#
#
# Indices 1 2 3 4 5 6 
#
# 1 116.0886 53.7996 47.7207 0.0000 0.0000 0.0000
# 2 53.7996 116.0893 47.7211 0.0000 0.0000 0.0000
# 3 47.7207 47.7211 126.3097 0.0000 0.0000 0.0000
# 4 0.0000 0.0000 0.0000 28.3198 0.0000 0.0000
# 5 0.0000 0.0000 0.0000 0.0000 28.3197 0.0000
# 6 0.0000 0.0000 0.0000 0.0000 0.0000 25.9726
#
#
#
# Elastic Compliance Matrix: (Units=1/GPa)
#
#
# Indices 1 2 3 4 5 6 
#
# 1 0.011763 -0.004291 -0.002823 0.000000 0.000000 0.000000
# 2 -0.004291 0.011763 -0.002823 0.000000 0.000000 0.000000
# 3 -0.002823 -0.002823 0.010050 0.000000 0.000000 0.000000
# 4 0.000000 0.000000 0.000000 0.035311 0.000000 0.000000
# 5 0.000000 0.000000 0.000000 0.000000 0.035311 0.000000
# 6 0.000000 0.000000 0.000000 0.000000 0.000000 0.038502
#
#
# Mechanical properties :
#
#
# Convention : Reuss Voigt Hill
#
# Bulk Modulus (GPa) = 72.98025 72.99671 72.98848
# Shear Modulus (GPa) = 29.91462 30.47216 30.19339
#
# Velocity S-wave (km/s) = 3.94194 3.97850 3.96026
# Velocity P-wave (km/s) = 7.65686 7.68259 7.66973
#
# Compressibility (1/GPa) = 0.01370234
#
# Stress axis : x y z
#
# Youngs Moduli (GPa) = 85.01119 85.01150 99.50051
#
# Poissons Ratio (x) = 0.36478 0.28089
# Poissons Ratio (y) = 0.36478 0.28090
# Poissons Ratio (z) = 0.23999 0.23999
#
# Static dielectric constant tensor:
#      x y z
#    x 3.653070 0.000000 0.000000 
#    y 0.000000 3.653070 0.000000 
#    z 0.000000 0.000000 3.534520 
# 
# 
# High freq. dielectric constant tensor:
#      x y z
#    x 1.756300 0.000000 0.000000 
#    y 0.000000 1.756300 0.000000 
#    z 0.000000 0.000000 1.743650 
# 
# From -- ./inp_files/3439.got.cif
#   From: 2010.03.12/outbox.cif.g09.slc.cpg/sg94_2_cif.got.tgz:3439.got - 2010.04.08 20:48:32.
