data_PCOD8305055
_publ_section_title
;
Structure prediction by ZEFSAII (Michael W. Deem and Ramdas Pophale) SiO2 
 PCOD8305055
Probable space group: P 41 2 2
;
_chemical_formula_sum "Si O2"
_cell_formula_units_Z 40
_cell_length_a 8.552594
_cell_length_b 8.552594
_cell_length_c 25.653084
_cell_angle_alpha 90.000000
_cell_angle_beta 90.000000
_cell_angle_gamma 90.000000
_cell_volume 1876.442650
_symmetry_space_group_name_H-M "P 41 2 2"
_symmetry_group_IT_number 91
_symmetry_cell_setting 'tetragonal'
loop_
_space_group_symop_operation_xyz
x,y,z
-y,x,1/4+z
-x,-y,1/2+z
y,-x,3/4+z
x,-y,1/2-z
-x,y,-z
y,x,3/4-z
-y,-x,1/4-z
loop_
_atom_site_type_symbol
_atom_site_label
_atom_site_fract_x
_atom_site_fract_y
_atom_site_fract_z
Si Si1 0.003875 0.818141 0.758111
Si Si2 0.796257 0.531271 0.101197
Si Si3 0.283811 0.628691 0.709559
Si Si4 0.397627 0.231048 0.545844
Si Si5 0.668267 0.088638 0.607188
O O1 0.848538 0.755941 0.729322
O O2 0.994667 0.796030 0.820435
O O3 0.144219 0.716330 0.737012
O O4 0.029886 0.000000 0.750000
O O5 0.773609 0.459590 0.157982
O O6 0.767753 0.404617 0.055407
O O7 0.657269 0.653786 0.091151
O O8 0.967121 0.616375 0.096904
O O9 0.353224 0.500000 0.750000
O O10 0.500000 0.313926 0.500000
O O11 0.511389 0.108867 0.573733
O O12 0.746348 0.253653 0.625000
#
# Coordination Sequence:
#
# PCOD8305055 Si02
#       5
#     8   8   8   8   8
#     4  11  22  44  68  95 137 179 223 291 351 411
#     4  11  23  40  68  97 131 180 232 277 345 421
#     4  11  22  44  65  96 138 180 224 292 354 406
#     4  10  22  43  66  95 137 178 223 281 346 415
#     4  11  23  42  68 100 136 180 228 285 352 421
#
# _framework density 21.316934
#
# number of rings (size 3 to 8) (size 9 to 14) (size 15 to 20)
#    0.000    1.200    4.000    2.400    2.800    1.600 
#    3.600    1.000    0.000    0.000    0.000    0.000 
#    0.000    0.000    0.000    0.000    0.000    0.000 
#
# Total GULP energy -495693.480407 kJ/mol
# GULP energy per Si atom -12392.337010 kJ/mol
# Density = 2.126842 g / cm^3
# Si number density = 21.316934 Si / 1000 Ang^3
#
#
#
# Elastic Constant Matrix: (Units=GPa)
#
#
# Indices 1 2 3 4 5 6 
#
# 1 84.3538 28.8502 30.3116 0.0000 0.0000 0.0000
# 2 28.8502 84.3529 30.3115 0.0000 0.0000 0.0000
# 3 30.3116 30.3115 79.9698 0.0000 0.0000 0.0000
# 4 0.0000 0.0000 0.0000 33.5533 0.0000 0.0000
# 5 0.0000 0.0000 0.0000 0.0000 33.5535 0.0000
# 6 0.0000 0.0000 0.0000 0.0000 0.0000 34.5008
#
#
#
# Elastic Compliance Matrix: (Units=1/GPa)
#
#
# Indices 1 2 3 4 5 6 
#
# 1 0.014550 -0.003467 -0.004201 0.000000 0.000000 0.000000
# 2 -0.003467 0.014550 -0.004201 0.000000 0.000000 0.000000
# 3 -0.004201 -0.004201 0.015689 0.000000 0.000000 0.000000
# 4 0.000000 0.000000 0.000000 0.029803 0.000000 0.000000
# 5 0.000000 0.000000 0.000000 0.000000 0.029803 0.000000
# 6 0.000000 0.000000 0.000000 0.000000 0.000000 0.028985
#
#
# Mechanical properties :
#
#
# Convention : Reuss Voigt Hill
#
# Bulk Modulus (GPa) = 47.50116 47.51366 47.50741
# Shear Modulus (GPa) = 30.46251 30.93506 30.69878
#
# Velocity S-wave (km/s) = 3.78435 3.81359 3.79900
# Velocity P-wave (km/s) = 6.43636 6.45979 6.44808
#
# Compressibility (1/GPa) = 0.02105212
#
# Stress axis : x y z
#
# Youngs Moduli (GPa) = 68.72799 68.72725 63.73730
#
# Poissons Ratio (x) = 0.23826 0.26776
# Poissons Ratio (y) = 0.23827 0.26776
# Poissons Ratio (z) = 0.28873 0.28873
#
# Static dielectric constant tensor:
#      x y z
#    x 3.947430 0.000000 0.000000 
#    y 0.000000 3.947440 0.000000 
#    z 0.000000 0.000000 4.180360 
# 
# 
# High freq. dielectric constant tensor:
#      x y z
#    x 1.836370 0.000000 0.000000 
#    y 0.000000 1.836370 0.000000 
#    z 0.000000 0.000000 1.832970 
# 
# From -- ./inp_files/6733.got.cif
#   From: 2010.03.12/outbox.cif.g09.slc.cpg/sg91_4_cif.got.tgz:6733.got - 2010.04.08 20:27:58.
