data_PCOD8305199
_publ_section_title
;
Structure prediction by ZEFSAII (Michael W. Deem and Ramdas Pophale) SiO2 
 PCOD8305199
Probable space group: P 41 21 2
;
_chemical_formula_sum "Si O2"
_cell_formula_units_Z 52
_cell_length_a 12.411119
_cell_length_b 12.411119
_cell_length_c 18.984584
_cell_angle_alpha 90.000000
_cell_angle_beta 90.000000
_cell_angle_gamma 90.000000
_cell_volume 2924.307005
_symmetry_space_group_name_H-M "P 41 21 2"
_symmetry_group_IT_number 92
_symmetry_cell_setting 'tetragonal'
loop_
_space_group_symop_operation_xyz
x,y,z
1/2-y,1/2+x,1/4+z
-x,-y,1/2+z
1/2+y,1/2-x,3/4+z
1/2+x,1/2-y,3/4-z
1/2-x,1/2+y,1/4-z
y,x,-z
-y,-x,1/2-z
loop_
_atom_site_type_symbol
_atom_site_label
_atom_site_fract_x
_atom_site_fract_y
_atom_site_fract_z
Si Si1 0.764030 0.933739 0.791484
Si Si2 0.840668 0.319692 0.710021
Si Si3 0.502976 0.502976 0.000000
Si Si4 0.174473 0.068228 0.443443
Si Si5 0.249172 0.832047 0.448376
Si Si6 0.292115 0.480914 0.224017
Si Si7 0.057488 0.002724 0.901341
O O1 0.757713 0.901067 0.874083
O O2 0.727123 0.828672 0.751184
O O3 0.882270 0.978246 0.775509
O O4 0.687955 0.033526 0.770208
O O5 0.766066 0.233934 0.750000
O O6 0.828100 0.301163 0.627563
O O7 0.811300 0.442443 0.729877
O O8 0.580208 0.521421 0.931849
O O9 0.168382 0.168382 0.500000
O O10 0.222253 0.954801 0.472776
O O11 0.048517 0.058631 0.425597
O O12 0.138209 0.762757 0.446462
O O13 0.370548 0.539028 0.167314
O O14 0.341899 0.464812 0.302191
#
# Coordination Sequence:
#
# PCOD8305199 Si02
#       7
#     8   8   4   8   8   8   8
#     4  10  21  32  54  84 115 148 186 237 286 347
#     4  11  21  32  54  85 116 145 176 234 295 354
#     4  10  18  28  50  82 112 138 190 232 272 328
#     4   9  16  34  58  77 101 150 196 232 277 341
#     4  10  21  34  56  82 113 145 188 236 285 347
#     4  10  18  33  54  79 111 146 176 228 297 338
#     4   9  15  28  51  81 103 139 185 225 273 328
#
# _framework density 17.781991000000001
#
# number of rings (size 3 to 8) (size 9 to 14) (size 15 to 20)
#    0.000    2.154    5.385    1.846    2.154    0.000 
#    0.000    0.000    8.462    0.000    0.000    0.000 
#    0.000    0.000    0.000    0.000    0.000    0.000 
#
# Total GULP energy -644258.813682 kJ/mol
# GULP energy per Si atom -12389.592571 kJ/mol
# Density = 1.774152 g / cm^3
# Si number density = 17.781991 Si / 1000 Ang^3
#
#
#
# Elastic Constant Matrix: (Units=GPa)
#
#
# Indices 1 2 3 4 5 6 
#
# 1 62.6257 21.4065 19.4301 0.0000 0.0000 0.0000
# 2 21.4065 62.6257 19.4301 0.0000 0.0000 0.0000
# 3 19.4301 19.4301 93.7014 0.0000 0.0000 0.0000
# 4 0.0000 0.0000 0.0000 20.8680 0.0000 0.0000
# 5 0.0000 0.0000 0.0000 0.0000 20.8680 0.0000
# 6 0.0000 0.0000 0.0000 0.0000 0.0000 20.4582
#
#
#
# Elastic Compliance Matrix: (Units=1/GPa)
#
#
# Indices 1 2 3 4 5 6 
#
# 1 0.018711 -0.005549 -0.002729 0.000000 0.000000 0.000000
# 2 -0.005549 0.018711 -0.002729 0.000000 0.000000 0.000000
# 3 -0.002729 -0.002729 0.011804 0.000000 0.000000 0.000000
# 4 0.000000 0.000000 0.000000 0.047920 0.000000 0.000000
# 5 0.000000 0.000000 0.000000 0.000000 0.047920 0.000000
# 6 0.000000 0.000000 0.000000 0.000000 0.000000 0.048880
#
#
# Mechanical properties :
#
#
# Convention : Reuss Voigt Hill
#
# Bulk Modulus (GPa) = 36.74934 37.72072 37.23503
# Shear Modulus (GPa) = 22.21886 23.01790 22.61838
#
# Velocity S-wave (km/s) = 3.53868 3.60175 3.57036
# Velocity P-wave (km/s) = 6.11619 6.20933 6.16294
#
# Compressibility (1/GPa) = 0.02721137
#
# Stress axis : x y z
#
# Youngs Moduli (GPa) = 53.44318 53.44318 84.71609
#
# Poissons Ratio (x) = 0.29656 0.23122
# Poissons Ratio (y) = 0.29656 0.23122
# Poissons Ratio (z) = 0.14587 0.14587
#
# Static dielectric constant tensor:
#      x y z
#    x 3.105250 0.000000 0.000000 
#    y 0.000000 3.105250 0.000000 
#    z 0.000000 0.000000 3.783370 
# 
# 
# High freq. dielectric constant tensor:
#      x y z
#    x 1.656770 0.000000 0.000000 
#    y 0.000000 1.656770 0.000000 
#    z 0.000000 0.000000 1.700700 
# 
# From -- ./inp_files/3576.got.cif
#   From: 2010.03.12/outbox.cif.g09.slc.cpg/sg92_2_cif.got.tgz:3576.got - 2010.04.08 20:41:11.
