data_PCOD8305739
_publ_section_title
;
Structure prediction by ZEFSAII (Michael W. Deem and Ramdas Pophale) SiO2 
 PCOD8305739
Probable space group: P 42 21 2
;
_chemical_formula_sum "Si O2"
_cell_formula_units_Z 40
_cell_length_a 12.159925
_cell_length_b 12.159925
_cell_length_c 12.661005
_cell_angle_alpha 90.000000
_cell_angle_beta 90.000000
_cell_angle_gamma 90.000000
_cell_volume 1872.104007
_symmetry_space_group_name_H-M "P 42 21 2"
_symmetry_group_IT_number 94
_symmetry_cell_setting 'tetragonal'
loop_
_space_group_symop_operation_xyz
x,y,z
1/2-y,1/2+x,1/2+z
-x,-y,z
1/2+y,1/2-x,1/2+z
1/2+x,1/2-y,1/2-z
1/2-x,1/2+y,1/2-z
y,x,-z
-y,-x,-z
loop_
_atom_site_type_symbol
_atom_site_label
_atom_site_fract_x
_atom_site_fract_y
_atom_site_fract_z
Si Si1 0.080945 0.799777 0.415183
Si Si2 0.687778 0.223629 0.322514
Si Si3 0.234181 0.295593 0.613586
Si Si4 0.871594 0.008002 0.810487
Si Si5 0.999121 0.373363 0.572117
O O1 0.102030 0.897971 0.500000
O O2 0.198668 0.749349 0.381490
O O3 0.017515 0.848349 0.314869
O O4 0.012423 0.700797 0.467163
O O5 0.700879 0.238854 0.197289
O O6 0.598193 0.312092 0.359868
O O7 0.649224 0.099461 0.346025
O O8 0.240198 0.240198 0.500000
O O9 0.325928 0.388813 0.625732
O O10 0.112212 0.344291 0.632241
O O11 0.000000 0.000000 0.831964
O O12 0.000000 0.500000 0.536468
#
# Coordination Sequence:
#
# PCOD8305739 Si02
#       5
#     8   8   8   8   8
#     4   9  22  42  65  96 129 178 220 273 338 396
#     4  10  23  44  64  96 139 171 222 283 345 401
#     4  11  25  44  66 100 129 179 232 272 346 414
#     4  11  24  43  65  99 137 176 217 280 340 407
#     4  11  22  46  70  98 135 172 234 284 337 421
#
# _framework density 21.366334999999999
#
# number of rings (size 3 to 8) (size 9 to 14) (size 15 to 20)
#    0.000    1.600    2.000    1.200    8.400    2.400 
#   14.400    0.000    0.000    0.000    0.000    0.000 
#    0.000    0.000    0.000    0.000    0.000    0.000 
#
# Total GULP energy -496102.776017 kJ/mol
# GULP energy per Si atom -12402.569400 kJ/mol
# Density = 2.131770 g / cm^3
# Si number density = 21.366335 Si / 1000 Ang^3
#
#
#
# Elastic Constant Matrix: (Units=GPa)
#
#
# Indices 1 2 3 4 5 6 
#
# 1 125.1649 43.2323 10.0157 0.0000 0.0000 0.0000
# 2 43.2323 125.1644 10.0158 0.0000 0.0000 0.0000
# 3 10.0157 10.0158 66.4721 0.0000 0.0000 0.0000
# 4 0.0000 0.0000 0.0000 22.6233 0.0000 0.0000
# 5 0.0000 0.0000 0.0000 0.0000 22.6234 0.0000
# 6 0.0000 0.0000 0.0000 0.0000 0.0000 37.0364
#
#
#
# Elastic Compliance Matrix: (Units=1/GPa)
#
#
# Indices 1 2 3 4 5 6 
#
# 1 0.009126 -0.003079 -0.000911 0.000000 0.000000 0.000000
# 2 -0.003079 0.009126 -0.000911 0.000000 0.000000 0.000000
# 3 -0.000911 -0.000911 0.015318 0.000000 0.000000 0.000000
# 4 0.000000 0.000000 0.000000 0.044202 0.000000 0.000000
# 5 0.000000 0.000000 0.000000 0.000000 0.044202 0.000000
# 6 0.000000 0.000000 0.000000 0.000000 0.000000 0.027000
#
#
# Mechanical properties :
#
#
# Convention : Reuss Voigt Hill
#
# Bulk Modulus (GPa) = 42.07417 49.25875 45.66646
# Shear Modulus (GPa) = 29.99393 33.35913 31.67653
#
# Velocity S-wave (km/s) = 3.75079 3.95561 3.85456
# Velocity P-wave (km/s) = 6.20423 6.63075 6.42103
#
# Compressibility (1/GPa) = 0.02376755
#
# Stress axis : x y z
#
# Youngs Moduli (GPa) = 109.57775 109.57731 65.28064
#
# Poissons Ratio (x) = 0.33741 0.05948
# Poissons Ratio (y) = 0.33741 0.05948
# Poissons Ratio (z) = 0.09983 0.09984
#
# Static dielectric constant tensor:
#      x y z
#    x 3.884700 0.000000 0.000000 
#    y 0.000000 3.884710 0.000000 
#    z 0.000000 0.000000 3.848460 
# 
# 
# High freq. dielectric constant tensor:
#      x y z
#    x 1.844050 0.000000 0.000000 
#    y 0.000000 1.844050 0.000000 
#    z 0.000000 0.000000 1.833870 
# 
# From -- ./inp_files/3396.got.cif
#   From: 2010.03.12/outbox.cif.g09.slc.cpg/sg94_2_cif.got.tgz:3396.got - 2010.04.08 20:48:32.
