data_PCOD8305416
_publ_section_title
;
Structure prediction by ZEFSAII (Michael W. Deem and Ramdas Pophale) SiO2 
 PCOD8305416
Probable space group: P 41 21 2
;
_chemical_formula_sum "Si O2"
_cell_formula_units_Z 56
_cell_length_a 14.610292
_cell_length_b 14.610292
_cell_length_c 12.528310
_cell_angle_alpha 90.000000
_cell_angle_beta 90.000000
_cell_angle_gamma 90.000000
_cell_volume 2674.300975
_symmetry_space_group_name_H-M "P 41 21 2"
_symmetry_group_IT_number 92
_symmetry_cell_setting 'tetragonal'
loop_
_space_group_symop_operation_xyz
x,y,z
1/2-y,1/2+x,1/4+z
-x,-y,1/2+z
1/2+y,1/2-x,3/4+z
1/2+x,1/2-y,3/4-z
1/2-x,1/2+y,1/4-z
y,x,-z
-y,-x,1/2-z
loop_
_atom_site_type_symbol
_atom_site_label
_atom_site_fract_x
_atom_site_fract_y
_atom_site_fract_z
Si Si1 0.028881 0.224865 0.177147
Si Si2 0.350956 0.151810 0.170125
Si Si3 0.702699 0.160894 0.293779
Si Si4 0.945526 0.715134 0.121838
Si Si5 0.046141 0.104765 0.749474
Si Si6 0.266442 0.513589 0.189026
Si Si7 0.814492 0.286023 0.956601
O O1 0.043228 0.137917 0.255226
O O2 0.118684 0.283849 0.157498
O O3 0.948209 0.288205 0.225168
O O4 0.003030 0.192810 0.057535
O O5 0.455647 0.174631 0.150652
O O6 0.341254 0.100244 0.282670
O O7 0.317531 0.085155 0.074291
O O8 0.293798 0.245469 0.172900
O O9 0.795445 0.204556 0.250000
O O10 0.614581 0.202759 0.234610
O O11 0.696132 0.184744 0.417446
O O12 0.953172 0.822984 0.151922
O O13 0.051294 0.155352 0.862260
O O14 0.955880 0.044120 0.750000
O O15 0.235512 0.412216 0.153684
#
# Coordination Sequence:
#
# PCOD8305416 Si02
#       7
#     8   8   8   8   8   8   8
#     4  11  23  41  68  95 131 178 215 283 329 415
#     4  11  24  45  67  99 134 172 228 277 336 403
#     4  11  23  43  65  93 135 175 223 268 336 409
#     4  11  25  44  68  97 138 176 224 280 334 407
#     4  11  22  44  67 102 132 172 233 277 340 399
#     4  10  24  41  67  95 132 172 221 271 347 395
#     4  11  23  43  67  98 133 177 218 277 345 396
#
# _framework density 20.940052999999999
#
# number of rings (size 3 to 8) (size 9 to 14) (size 15 to 20)
#    0.000    1.143    4.286    1.714    6.000    1.143 
#    0.000    4.286    0.000    0.000    0.000    0.000 
#    0.000    0.000    0.000    0.000    0.000    0.000 
#
# Total GULP energy -694461.665756 kJ/mol
# GULP energy per Si atom -12401.101174 kJ/mol
# Density = 2.089239 g / cm^3
# Si number density = 20.940053 Si / 1000 Ang^3
#
#
#
# Elastic Constant Matrix: (Units=GPa)
#
#
# Indices 1 2 3 4 5 6 
#
# 1 137.0361 51.6589 19.3884 0.0000 0.0000 0.0000
# 2 51.6589 137.0378 19.3891 0.0000 0.0000 0.0000
# 3 19.3884 19.3891 54.2403 0.0000 0.0000 0.0000
# 4 0.0000 0.0000 0.0000 51.0992 0.0000 0.0000
# 5 0.0000 0.0000 0.0000 0.0000 51.1051 0.0000
# 6 0.0000 0.0000 0.0000 0.0000 0.0000 40.8027
#
#
#
# Elastic Compliance Matrix: (Units=1/GPa)
#
#
# Indices 1 2 3 4 5 6 
#
# 1 0.008716 -0.002996 -0.002044 0.000000 0.000000 0.000000
# 2 -0.002996 0.008716 -0.002045 0.000000 0.000000 0.000000
# 3 -0.002044 -0.002045 0.019898 0.000000 0.000000 0.000000
# 4 0.000000 0.000000 0.000000 0.019570 0.000000 0.000000
# 5 0.000000 0.000000 0.000000 0.000000 0.019568 0.000000
# 6 0.000000 0.000000 0.000000 0.000000 0.000000 0.024508
#
#
# Mechanical properties :
#
#
# Convention : Reuss Voigt Hill
#
# Bulk Modulus (GPa) = 43.17915 56.57632 49.87773
# Shear Modulus (GPa) = 40.69443 44.45992 42.57717
#
# Velocity S-wave (km/s) = 4.41316 4.61282 4.51409
# Velocity P-wave (km/s) = 6.82884 7.44632 7.14425
#
# Compressibility (1/GPa) = 0.02315933
#
# Stress axis : x y z
#
# Youngs Moduli (GPa) = 114.72899 114.73001 50.25582
#
# Poissons Ratio (x) = 0.34378 0.10275
# Poissons Ratio (y) = 0.34378 0.10275
# Poissons Ratio (z) = 0.23456 0.23458
#
# Static dielectric constant tensor:
#      x y z
#    x 3.922860 0.000000 0.000000 
#    y 0.000000 3.922840 0.000000 
#    z 0.000000 0.000000 3.453310 
# 
# 
# High freq. dielectric constant tensor:
#      x y z
#    x 1.826910 0.000000 0.000000 
#    y 0.000000 1.826910 0.000000 
#    z 0.000000 0.000000 1.818980 
# 
# From -- ./inp_files/2270.got.cif
#   From: 2010.03.12/outbox.cif.g09.slc.cpg/sg92_2_cif.got.tgz:2270.got - 2010.04.08 20:41:11.
