data_PCOD8305112
_publ_section_title
;
Structure prediction by ZEFSAII (Michael W. Deem and Ramdas Pophale) SiO2 
 PCOD8305112
Probable space group: P 41 2 2
;
_chemical_formula_sum "Si O2"
_cell_formula_units_Z 64
_cell_length_a 16.470113
_cell_length_b 16.470113
_cell_length_c 13.106715
_cell_angle_alpha 90.000000
_cell_angle_beta 90.000000
_cell_angle_gamma 90.000000
_cell_volume 3555.388093
_symmetry_space_group_name_H-M "P 41 2 2"
_symmetry_group_IT_number 91
_symmetry_cell_setting 'tetragonal'
loop_
_space_group_symop_operation_xyz
x,y,z
-y,x,1/4+z
-x,-y,1/2+z
y,-x,3/4+z
x,-y,1/2-z
-x,y,-z
y,x,3/4-z
-y,-x,1/4-z
loop_
_atom_site_type_symbol
_atom_site_label
_atom_site_fract_x
_atom_site_fract_y
_atom_site_fract_z
Si Si1 0.801766 0.320918 0.585940
Si Si2 0.621419 0.048261 0.551312
Si Si3 0.677488 0.553977 0.001671
Si Si4 0.174960 0.524069 0.582582
Si Si5 0.650489 0.121798 0.877321
Si Si6 0.602830 0.589223 0.201191
Si Si7 0.547988 0.938848 0.160215
Si Si8 0.240970 0.667550 0.702601
O O1 0.762549 0.237452 0.625000
O O2 0.864907 0.340290 0.674753
O O3 0.729891 0.388134 0.573133
O O4 0.856046 0.314156 0.483700
O O5 0.538058 0.041824 0.612087
O O6 0.613967 0.050959 0.428636
O O7 0.674483 0.969562 0.586734
O O8 0.625381 0.487487 0.943599
O O9 0.733727 0.505540 0.080262
O O10 0.622523 0.601828 0.081919
O O11 0.123040 0.448874 0.628358
O O12 0.148526 0.546992 0.466392
O O13 0.177754 0.601719 0.655586
O O14 0.693456 0.190058 0.948079
O O15 0.596780 0.500000 0.250000
O O16 0.668646 0.637640 0.268342
O O17 0.570990 0.000000 0.250000
O O18 0.256945 0.743056 0.625000
#
# Coordination Sequence:
#
# PCOD8305112 Si02
#       8
#     8   8   8   8   8   8   8   8
#     4  11  24  42  57  81 113 155 196 242 307 359
#     4  11  22  37  62  83 113 151 189 236 302 362
#     4  11  23  35  52  68 106 146 204 259 301 339
#     4  11  19  32  52  78 108 144 191 246 296 348
#     4  11  21  38  58  82 114 149 196 243 294 364
#     4  12  20  36  51  72  99 149 211 266 296 336
#     4  11  20  33  54  86 112 142 187 240 291 354
#     4  12  21  32  56  82 110 153 198 248 303 349
#
# _framework density 18.000847
#
# number of rings (size 3 to 8) (size 9 to 14) (size 15 to 20)
#    0.000    0.750    8.750    1.875    1.750    3.000 
#    0.000    0.000    0.000    0.000    0.000    0.000 
#    0.000    4.000    0.000    0.000    0.000    0.000 
#
# Total GULP energy -792869.012186 kJ/mol
# GULP energy per Si atom -12388.578315 kJ/mol
# Density = 1.795988 g / cm^3
# Si number density = 18.000847 Si / 1000 Ang^3
#
#
#
# Elastic Constant Matrix: (Units=GPa)
#
#
# Indices 1 2 3 4 5 6 
#
# 1 31.0891 69.4640 39.1104 0.0000 0.0000 0.0000
# 2 69.4640 31.0900 39.1148 0.0000 0.0000 0.0000
# 3 39.1104 39.1148 111.5045 0.0000 0.0000 0.0000
# 4 0.0000 0.0000 0.0000 30.9463 0.0000 0.0000
# 5 0.0000 0.0000 0.0000 0.0000 30.9459 0.0000
# 6 0.0000 0.0000 0.0000 0.0000 0.0000 36.0390
#
#
#
# Elastic Compliance Matrix: (Units=1/GPa)
#
#
# Indices 1 2 3 4 5 6 
#
# 1 -0.006191 0.019868 -0.004798 0.000000 0.000000 0.000000
# 2 0.019868 -0.006191 -0.004797 0.000000 0.000000 0.000000
# 3 -0.004798 -0.004797 0.012334 0.000000 0.000000 0.000000
# 4 0.000000 0.000000 0.000000 0.032314 0.000000 0.000000
# 5 0.000000 0.000000 0.000000 0.000000 0.032314 0.000000
# 6 0.000000 0.000000 0.000000 0.000000 0.000000 0.027748
#
#
# Mechanical properties :
#
#
# Convention : Reuss Voigt Hill
#
# Bulk Modulus (GPa) = 48.78508 52.11798 50.45153
# Shear Modulus (GPa) = 63.60094 21.31919 42.46006
#
# Velocity S-wave (km/s) = 5.95054 3.44516 4.86200
# Velocity P-wave (km/s) = 8.62393 6.69638 7.72055
#
# Compressibility (1/GPa) = 0.02049807
#
# Stress axis : x y z
#
# Youngs Moduli (GPa) = -161.53769 -161.51744 81.07703
#
# Poissons Ratio (x) = 3.20904 0.38903
# Poissons Ratio (y) = 3.20945 0.38892
# Poissons Ratio (z) = -0.77509 -0.77479
#
# Static dielectric constant tensor:
#      x y z
#    x 3.239780 0.000000 0.000000 
#    y 0.000000 3.239780 0.000000 
#    z 0.000000 0.000000 3.487390 
# 
# 
# High freq. dielectric constant tensor:
#      x y z
#    x 1.663170 0.000000 0.000000 
#    y 0.000000 1.663170 0.000000 
#    z 0.000000 0.000000 1.715020 
# 
# From -- ./inp_files/20433.got.cif
#   From: 2010.03.12/outbox.cif.g09.slc.cpg/sg91_11_cif.got.tgz:20433.got - 2010.04.08 20:27:58.
