data_PCOD8305927
_publ_section_title
;
Structure prediction by ZEFSAII (Michael W. Deem and Ramdas Pophale) SiO2 
 PCOD8305927
Probable space group: P 43 21 2
;
_chemical_formula_sum "Si O2"
_cell_formula_units_Z 60
_cell_length_a 13.846180
_cell_length_b 13.846180
_cell_length_c 14.300089
_cell_angle_alpha 90.000000
_cell_angle_beta 90.000000
_cell_angle_gamma 90.000000
_cell_volume 2741.565881
_symmetry_space_group_name_H-M "P 43 21 2"
_symmetry_group_IT_number 96
_symmetry_cell_setting 'tetragonal'
loop_
_space_group_symop_operation_xyz
x,y,z
1/2-y,1/2+x,3/4+z
-x,-y,1/2+z
1/2+y,1/2-x,1/4+z
1/2+x,1/2-y,1/4-z
1/2-x,1/2+y,3/4-z
y,x,-z
-y,-x,1/2-z
loop_
_atom_site_type_symbol
_atom_site_label
_atom_site_fract_x
_atom_site_fract_y
_atom_site_fract_z
Si Si1 0.653451 0.794033 0.461653
Si Si2 0.632013 0.121478 0.578578
Si Si3 0.240850 0.496941 0.294751
Si Si4 0.196239 0.036638 0.654668
Si Si5 0.110871 0.338903 0.216502
Si Si6 0.345432 0.373512 0.599277
Si Si7 0.087234 0.587968 0.631865
Si Si8 0.510862 0.510862 0.000000
O O1 0.695972 0.695972 0.500000
O O2 0.543413 0.771690 0.438812
O O3 0.703963 0.820334 0.364257
O O4 0.663226 0.879236 0.538256
O O5 0.581749 0.212185 0.632020
O O6 0.746182 0.111929 0.596471
O O7 0.619900 0.129190 0.467791
O O8 0.577264 0.027202 0.617086
O O9 0.299675 0.545371 0.207794
O O10 0.145816 0.440308 0.260467
O O11 0.310824 0.419831 0.341390
O O12 0.252509 0.123296 0.706955
O O13 0.088890 0.020023 0.693220
O O14 0.013085 0.361261 0.158726
O O15 0.321307 0.321307 0.500000
O O16 0.400368 0.475861 0.574730
#
# Coordination Sequence:
#
# PCOD8305927 Si02
#       8
#     8   8   8   8   8   8   8   4
#     4  10  21  40  64  99 138 175 236 279 338 414
#     4  12  25  43  73  97 148 179 230 297 363 420
#     4  11  26  44  73 104 139 189 236 295 354 438
#     4  10  23  42  73  96 136 190 231 286 355 423
#     4  10  23  41  66 107 138 171 243 284 348 435
#     4  10  27  48  64 102 140 181 243 289 348 439
#     4  11  23  41  69 103 138 188 221 292 365 414
#     4  10  24  50  68  90 146 182 238 296 360 426
#
# _framework density 21.885303
#
# number of rings (size 3 to 8) (size 9 to 14) (size 15 to 20)
#    0.400    1.067    2.000    1.600   11.200    2.667 
#    0.000    0.000    0.000    0.000    0.000    0.000 
#    0.000    0.000    0.000    0.000    0.000    0.000 
#
# Total GULP energy -743296.649872 kJ/mol
# GULP energy per Si atom -12388.277498 kJ/mol
# Density = 2.183549 g / cm^3
# Si number density = 21.885303 Si / 1000 Ang^3
#
#
#
# Elastic Constant Matrix: (Units=GPa)
#
#
# Indices 1 2 3 4 5 6 
#
# 1 68.4566 15.5980 42.0791 0.0000 0.0000 0.0000
# 2 15.5980 68.4566 42.0791 0.0000 0.0000 0.0000
# 3 42.0791 42.0791 171.1139 0.0000 0.0000 0.0000
# 4 0.0000 0.0000 0.0000 32.1412 0.0000 0.0000
# 5 0.0000 0.0000 0.0000 0.0000 32.1412 0.0000
# 6 0.0000 0.0000 0.0000 0.0000 0.0000 24.4958
#
#
#
# Elastic Compliance Matrix: (Units=1/GPa)
#
#
# Indices 1 2 3 4 5 6 
#
# 1 0.017351 -0.001568 -0.003881 0.000000 0.000000 0.000000
# 2 -0.001568 0.017351 -0.003881 0.000000 0.000000 0.000000
# 3 -0.003881 -0.003881 0.007753 0.000000 0.000000 0.000000
# 4 0.000000 0.000000 0.000000 0.031113 0.000000 0.000000
# 5 0.000000 0.000000 0.000000 0.000000 0.031113 0.000000
# 6 0.000000 0.000000 0.000000 0.000000 0.000000 0.040823
#
#
# Mechanical properties :
#
#
# Convention : Reuss Voigt Hill
#
# Bulk Modulus (GPa) = 42.02728 56.39328 49.21028
# Shear Modulus (GPa) = 29.05374 31.64037 30.34706
#
# Velocity S-wave (km/s) = 3.64750 3.80641 3.72780
# Velocity P-wave (km/s) = 6.08146 6.71877 6.40804
#
# Compressibility (1/GPa) = 0.02379407
#
# Stress axis : x y z
#
# Youngs Moduli (GPa) = 57.63443 57.63443 128.98299
#
# Poissons Ratio (x) = 0.09035 0.50062
# Poissons Ratio (y) = 0.09035 0.50062
# Poissons Ratio (z) = 0.22369 0.22369
#
# Static dielectric constant tensor:
#      x y z
#    x 3.794460 0.000000 0.000000 
#    y 0.000000 3.794460 0.000000 
#    z 0.000000 0.000000 4.392790 
# 
# 
# High freq. dielectric constant tensor:
#      x y z
#    x 1.848940 0.000000 0.000000 
#    y 0.000000 1.848940 0.000000 
#    z 0.000000 0.000000 1.882360 
# 
# From -- ./inp_files/2813.got.cif
#   From: 2010.03.12/outbox.cif.g09.slc.cpg/sg96_2_cif.got.tgz:2813.got - 2010.04.08 20:56:49.
