data_PCOD8305153
_publ_section_title
;
Structure prediction by ZEFSAII (Michael W. Deem and Ramdas Pophale) SiO2 
 PCOD8305153
Probable space group: P 41 2 2
;
_chemical_formula_sum "Si O2"
_cell_formula_units_Z 24
_cell_length_a 10.208220
_cell_length_b 10.208220
_cell_length_c 10.318179
_cell_angle_alpha 90.000000
_cell_angle_beta 90.000000
_cell_angle_gamma 90.000000
_cell_volume 1075.234275
_symmetry_space_group_name_H-M "P 41 2 2"
_symmetry_group_IT_number 91
_symmetry_cell_setting 'tetragonal'
loop_
_space_group_symop_operation_xyz
x,y,z
-y,x,1/4+z
-x,-y,1/2+z
y,-x,3/4+z
x,-y,1/2-z
-x,y,-z
y,x,3/4-z
-y,-x,1/4-z
loop_
_atom_site_type_symbol
_atom_site_label
_atom_site_fract_x
_atom_site_fract_y
_atom_site_fract_z
Si Si1 0.990427 0.205179 0.643488
Si Si2 0.356318 0.248964 0.496626
Si Si3 0.348402 0.765521 0.495700
O O1 0.951163 0.048838 0.625000
O O2 0.869576 0.255200 0.730847
O O3 0.000000 0.272486 0.500000
O O4 0.117258 0.243141 0.726177
O O5 0.500000 0.186579 0.500000
O O6 0.346939 0.346939 0.375000
O O7 0.332038 0.332313 0.625684
O O8 0.500000 0.814691 0.500000
O O9 0.311618 0.688383 0.625000
#
# Coordination Sequence:
#
# PCOD8305153 Si02
#       3
#     8   8   8
#     4  11  23  47  73  99 139 185 241 294 357 423
#     4  11  23  44  71 100 144 194 234 291 354 418
#     4  12  27  46  72 111 147 188 240 293 355 427
#
# _framework density 22.320720000000001
#
# number of rings (size 3 to 8) (size 9 to 14) (size 15 to 20)
#    0.000    0.667    6.667    3.000    0.000    6.667 
#    0.000    0.000    0.000    0.000    0.000    0.000 
#    0.000    0.000    0.000    0.000    0.000    0.000 
#
# Total GULP energy -297362.710309 kJ/mol
# GULP energy per Si atom -12390.112930 kJ/mol
# Density = 2.226992 g / cm^3
# Si number density = 22.320720 Si / 1000 Ang^3
#
#
#
# Elastic Constant Matrix: (Units=GPa)
#
#
# Indices 1 2 3 4 5 6 
#
# 1 109.4743 29.8143 33.8711 0.0000 0.0000 0.0000
# 2 29.8143 109.4757 33.8719 0.0000 0.0000 0.0000
# 3 33.8711 33.8719 176.0812 0.0000 0.0000 0.0000
# 4 0.0000 0.0000 0.0000 10.5197 0.0000 0.0000
# 5 0.0000 0.0000 0.0000 0.0000 10.5201 0.0000
# 6 0.0000 0.0000 0.0000 0.0000 0.0000 18.6035
#
#
#
# Elastic Compliance Matrix: (Units=1/GPa)
#
#
# Indices 1 2 3 4 5 6 
#
# 1 0.010237 -0.002316 -0.001524 0.000000 0.000000 0.000000
# 2 -0.002316 0.010237 -0.001524 0.000000 0.000000 0.000000
# 3 -0.001524 -0.001524 0.006265 0.000000 0.000000 0.000000
# 4 0.000000 0.000000 0.000000 0.095059 0.000000 0.000000
# 5 0.000000 0.000000 0.000000 0.000000 0.095056 0.000000
# 6 0.000000 0.000000 0.000000 0.000000 0.000000 0.053753
#
#
# Mechanical properties :
#
#
# Convention : Reuss Voigt Hill
#
# Bulk Modulus (GPa) = 62.45453 65.57176 64.01315
# Shear Modulus (GPa) = 17.44153 27.76026 22.60090
#
# Velocity S-wave (km/s) = 2.79840 3.53044 3.18551
# Velocity P-wave (km/s) = 6.20344 6.78672 6.50162
#
# Compressibility (1/GPa) = 0.01601165
#
# Stress axis : x y z
#
# Youngs Moduli (GPa) = 97.68659 97.68762 159.60790
#
# Poissons Ratio (x) = 0.22629 0.24317
# Poissons Ratio (y) = 0.22629 0.24318
# Poissons Ratio (z) = 0.14883 0.14884
#
# Static dielectric constant tensor:
#      x y z
#    x 3.985530 0.000000 0.000000 
#    y 0.000000 3.985520 0.000000 
#    z 0.000000 0.000000 4.290330 
# 
# 
# High freq. dielectric constant tensor:
#      x y z
#    x 1.867270 0.000000 0.000000 
#    y 0.000000 1.867270 0.000000 
#    z 0.000000 0.000000 1.897570 
# 
# From -- ./inp_files/1819.got.cif
#   From: 2010.03.12/outbox.cif.g09.slc.cpg/sg91_1_cif.got.tgz:1819.got - 2010.04.08 20:27:58.
