data_PCOD8305753
_publ_section_title
;
Structure prediction by ZEFSAII (Michael W. Deem and Ramdas Pophale) SiO2 
 PCOD8305753
Probable space group: P 42 21 2
;
_chemical_formula_sum "Si O2"
_cell_formula_units_Z 40
_cell_length_a 8.486676
_cell_length_b 8.486676
_cell_length_c 23.750871
_cell_angle_alpha 90.000000
_cell_angle_beta 90.000000
_cell_angle_gamma 90.000000
_cell_volume 1710.624884
_symmetry_space_group_name_H-M "P 42 21 2"
_symmetry_group_IT_number 94
_symmetry_cell_setting 'tetragonal'
loop_
_space_group_symop_operation_xyz
x,y,z
1/2-y,1/2+x,1/2+z
-x,-y,z
1/2+y,1/2-x,1/2+z
1/2+x,1/2-y,1/2-z
1/2-x,1/2+y,1/2-z
y,x,-z
-y,-x,-z
loop_
_atom_site_type_symbol
_atom_site_label
_atom_site_fract_x
_atom_site_fract_y
_atom_site_fract_z
Si Si1 0.086268 0.336928 0.260059
Si Si2 0.391341 0.234070 0.948245
Si Si3 0.236110 0.394226 0.549958
Si Si4 0.561464 0.672663 0.654855
Si Si5 0.309570 0.254673 0.165110
O O1 0.253952 0.352114 0.291252
O O2 0.143806 0.271013 0.199806
O O3 0.000000 0.500000 0.247553
O O4 0.966669 0.226480 0.296167
O O5 0.570140 0.188712 0.959332
O O6 0.374833 0.321061 0.887538
O O7 0.278923 0.081918 0.946440
O O8 0.345731 0.345731 0.000000
O O9 0.355017 0.355017 0.500000
O O10 0.311779 0.326798 0.605981
O O11 0.500000 0.500000 0.669777
O O12 0.421065 0.795319 0.639001
#
# Coordination Sequence:
#
# PCOD8305753 Si02
#       5
#     8   8   8   8   8
#     4  10  25  42  70 108 144 189 238 301 354 436
#     4  11  26  46  71 101 140 189 234 303 364 433
#     4  11  26  44  71 100 140 179 243 295 359 442
#     4  11  22  42  71 100 137 185 234 288 359 424
#     4  11  23  43  71 102 148 184 242 290 364 432
#
# _framework density 23.38327
#
# number of rings (size 3 to 8) (size 9 to 14) (size 15 to 20)
#    0.000    1.200    2.000    2.400    5.600    2.000 
#    0.000    4.000    0.000    0.000    0.000    0.000 
#    0.000    0.000    0.000    0.000    0.000    0.000 
#
# Total GULP energy -495978.792879 kJ/mol
# GULP energy per Si atom -12399.469822 kJ/mol
# Density = 2.333005 g / cm^3
# Si number density = 23.383270 Si / 1000 Ang^3
#
#
#
# Elastic Constant Matrix: (Units=GPa)
#
#
# Indices 1 2 3 4 5 6 
#
# 1 72.7263 24.8112 43.7664 0.0000 0.0000 0.0000
# 2 24.8112 72.7263 43.7664 0.0000 0.0000 0.0000
# 3 43.7664 43.7664 132.7133 0.0000 0.0000 0.0000
# 4 0.0000 0.0000 0.0000 37.5403 0.0000 0.0000
# 5 0.0000 0.0000 0.0000 0.0000 37.5403 0.0000
# 6 0.0000 0.0000 0.0000 0.0000 0.0000 33.9460
#
#
#
# Elastic Compliance Matrix: (Units=1/GPa)
#
#
# Indices 1 2 3 4 5 6 
#
# 1 0.017716 -0.003154 -0.004802 0.000000 0.000000 0.000000
# 2 -0.003154 0.017716 -0.004802 0.000000 0.000000 0.000000
# 3 -0.004802 -0.004802 0.010702 0.000000 0.000000 0.000000
# 4 0.000000 0.000000 0.000000 0.026638 0.000000 0.000000
# 5 0.000000 0.000000 0.000000 0.000000 0.026638 0.000000
# 6 0.000000 0.000000 0.000000 0.000000 0.000000 0.029459
#
#
# Mechanical properties :
#
#
# Convention : Reuss Voigt Hill
#
# Bulk Modulus (GPa) = 48.50236 55.87262 52.18749
# Shear Modulus (GPa) = 31.00592 32.86012 31.93302
#
# Velocity S-wave (km/s) = 3.64536 3.75278 3.69946
# Velocity P-wave (km/s) = 6.20529 6.53635 6.37297
#
# Compressibility (1/GPa) = 0.02061755
#
# Stress axis : x y z
#
# Youngs Moduli (GPa) = 56.44539 56.44539 93.43619
#
# Poissons Ratio (x) = 0.17803 0.44871
# Poissons Ratio (y) = 0.17803 0.44871
# Poissons Ratio (z) = 0.27107 0.27107
#
# Static dielectric constant tensor:
#      x y z
#    x 4.185210 0.000000 0.000000 
#    y 0.000000 4.185210 0.000000 
#    z 0.000000 0.000000 4.302600 
# 
# 
# High freq. dielectric constant tensor:
#      x y z
#    x 1.926320 0.000000 0.000000 
#    y 0.000000 1.926320 0.000000 
#    z 0.000000 0.000000 1.927990 
# 
# From -- ./inp_files/4993.got.cif
#   From: 2010.03.12/outbox.cif.g09.slc.cpg/sg94_3_cif.got.tgz:4993.got - 2010.04.08 20:48:32.
