data_PCOD8305906
_publ_section_title
;
Structure prediction by ZEFSAII (Michael W. Deem and Ramdas Pophale) SiO2 
 PCOD8305906
Probable space group: P 43 21 2
;
_chemical_formula_sum "Si O2"
_cell_formula_units_Z 60
_cell_length_a 18.013445
_cell_length_b 18.013445
_cell_length_c 9.472864
_cell_angle_alpha 90.000000
_cell_angle_beta 90.000000
_cell_angle_gamma 90.000000
_cell_volume 3073.794704
_symmetry_space_group_name_H-M "P 43 21 2"
_symmetry_group_IT_number 96
_symmetry_cell_setting 'tetragonal'
loop_
_space_group_symop_operation_xyz
x,y,z
1/2-y,1/2+x,3/4+z
-x,-y,1/2+z
1/2+y,1/2-x,1/4+z
1/2+x,1/2-y,1/4-z
1/2-x,1/2+y,3/4-z
y,x,-z
-y,-x,1/2-z
loop_
_atom_site_type_symbol
_atom_site_label
_atom_site_fract_x
_atom_site_fract_y
_atom_site_fract_z
Si Si1 0.134826 0.050393 0.880480
Si Si2 0.073894 0.302382 0.571440
Si Si3 0.820372 0.346625 0.541375
Si Si4 0.593943 0.593943 0.500000
Si Si5 0.936659 0.544017 0.217611
Si Si6 0.248496 0.935991 0.601974
Si Si7 0.991440 0.698293 0.631931
Si Si8 0.156496 0.171461 0.665130
O O1 0.219621 0.030641 0.921776
O O2 0.124694 0.097733 0.737404
O O3 0.090177 0.974538 0.858048
O O4 0.099520 0.099520 0.000000
O O5 0.133635 0.331375 0.456428
O O6 0.046686 0.374241 0.656023
O O7 0.109500 0.246893 0.688176
O O8 0.011633 0.254400 0.488709
O O9 0.872329 0.279233 0.498232
O O10 0.840033 0.417279 0.443573
O O11 0.737493 0.316376 0.517707
O O12 0.587280 0.666103 0.399773
O O13 0.850452 0.527306 0.256156
O O14 0.984076 0.533465 0.358164
O O15 0.296374 0.947111 0.744175
O O16 0.156915 0.156915 0.500000
#
# Coordination Sequence:
#
# PCOD8305906 Si02
#       8
#     8   8   8   4   8   8   8   8
#     4  10  22  40  65  88 123 154 208 258 323 368
#     4  10  22  38  62  88 125 168 205 253 310 384
#     4   9  18  37  62  84 117 161 202 253 309 363
#     4  10  22  38  60  96 118 162 202 262 314 384
#     4  12  27  38  60  91 129 167 211 250 309 374
#     4  10  20  38  63  87 124 163 208 253 316 365
#     4   9  21  39  59  88 121 158 206 262 295 374
#     4   9  19  38  62  88 115 158 205 250 308 376
#
# _framework density 19.519846999999999
#
# number of rings (size 3 to 8) (size 9 to 14) (size 15 to 20)
#    0.000    2.133    0.000    4.000    7.467    3.733 
#    4.800    0.000    0.000    0.000    0.000    0.000 
#    0.000    0.000    0.000    0.000    0.000    0.000 
#
# Total GULP energy -743768.151881 kJ/mol
# GULP energy per Si atom -12396.135865 kJ/mol
# Density = 1.947542 g / cm^3
# Si number density = 19.519847 Si / 1000 Ang^3
#
#
#
# Elastic Constant Matrix: (Units=GPa)
#
#
# Indices 1 2 3 4 5 6 
#
# 1 95.0424 62.0660 51.3044 0.0000 0.0000 0.0000
# 2 62.0660 95.0424 51.3044 0.0000 0.0000 0.0000
# 3 51.3044 51.3044 81.0046 0.0000 0.0000 0.0000
# 4 0.0000 0.0000 0.0000 33.5983 0.0000 0.0000
# 5 0.0000 0.0000 0.0000 0.0000 33.5983 0.0000
# 6 0.0000 0.0000 0.0000 0.0000 0.0000 34.1310
#
#
#
# Elastic Compliance Matrix: (Units=1/GPa)
#
#
# Indices 1 2 3 4 5 6 
#
# 1 0.020590 -0.009735 -0.006875 0.000000 0.000000 0.000000
# 2 -0.009735 0.020590 -0.006875 0.000000 0.000000 0.000000
# 3 -0.006875 -0.006875 0.021054 0.000000 0.000000 0.000000
# 4 0.000000 0.000000 0.000000 0.029763 0.000000 0.000000
# 5 0.000000 0.000000 0.000000 0.000000 0.029763 0.000000
# 6 0.000000 0.000000 0.000000 0.000000 0.000000 0.029299
#
#
# Mechanical properties :
#
#
# Convention : Reuss Voigt Hill
#
# Bulk Modulus (GPa) = 65.51556 66.71547 66.11551
# Shear Modulus (GPa) = 24.61627 27.35984 25.98805
#
# Velocity S-wave (km/s) = 3.55503 3.74791 3.65275
# Velocity P-wave (km/s) = 7.10545 7.27885 7.19267
#
# Compressibility (1/GPa) = 0.01526355
#
# Stress axis : x y z
#
# Youngs Moduli (GPa) = 48.56721 48.56721 47.49723
#
# Poissons Ratio (x) = 0.47279 0.32655
# Poissons Ratio (y) = 0.47279 0.32655
# Poissons Ratio (z) = 0.33391 0.33391
#
# Static dielectric constant tensor:
#      x y z
#    x 3.669620 0.000000 0.000000 
#    y 0.000000 3.669620 0.000000 
#    z 0.000000 0.000000 3.580890 
# 
# 
# High freq. dielectric constant tensor:
#      x y z
#    x 1.760370 0.000000 0.000000 
#    y 0.000000 1.760370 0.000000 
#    z 0.000000 0.000000 1.751310 
# 
# From -- ./inp_files/1604.got.cif
#   From: 2010.03.12/outbox.cif.g09.slc.cpg/sg96_1_cif.got.tgz:1604.got - 2010.04.08 20:56:49.
