data_PCOD8305119
_publ_section_title
;
Structure prediction by ZEFSAII (Michael W. Deem and Ramdas Pophale) SiO2 
 PCOD8305119
Probable space group: P 41 2 2
;
_chemical_formula_sum "Si O2"
_cell_formula_units_Z 48
_cell_length_a 10.043301
_cell_length_b 10.043301
_cell_length_c 24.749915
_cell_angle_alpha 90.000000
_cell_angle_beta 90.000000
_cell_angle_gamma 90.000000
_cell_volume 2496.471827
_symmetry_space_group_name_H-M "P 41 2 2"
_symmetry_group_IT_number 91
_symmetry_cell_setting 'tetragonal'
loop_
_space_group_symop_operation_xyz
x,y,z
-y,x,1/4+z
-x,-y,1/2+z
y,-x,3/4+z
x,-y,1/2-z
-x,y,-z
y,x,3/4-z
-y,-x,1/4-z
loop_
_atom_site_type_symbol
_atom_site_label
_atom_site_fract_x
_atom_site_fract_y
_atom_site_fract_z
Si Si1 0.971015 0.493351 0.122332
Si Si2 0.918424 0.752948 0.179975
Si Si3 0.101720 0.259654 0.803058
Si Si4 0.517543 0.517543 0.375000
Si Si5 0.253467 0.410080 0.952973
Si Si6 0.248423 0.604042 0.423530
Si Si7 0.023585 0.976416 0.625000
O O1 0.992828 0.641440 0.144708
O O2 0.913970 0.404692 0.171145
O O3 0.863086 0.496269 0.074265
O O4 0.108663 0.437695 0.100896
O O5 0.954641 0.734422 0.242663
O O6 0.761822 0.737629 0.171065
O O7 0.974929 0.894589 0.162423
O O8 0.255539 0.215172 0.804575
O O9 0.018609 0.152071 0.836625
O O10 0.603689 0.560109 0.426881
O O11 0.363210 0.538503 0.387766
O O12 0.260457 0.449394 0.015525
#
# Coordination Sequence:
#
# PCOD8305119 Si02
#       7
#     8   8   8   4   8   8   4
#     4  12  21  41  62  94 124 160 200 252 304 358
#     4  11  24  39  64  92 125 158 205 253 302 360
#     4  11  20  39  66  92 115 162 213 253 292 352
#     4  12  21  41  62  94 124 160 200 252 304 358
#     4  11  20  39  66  92 115 162 213 253 292 352
#     4  11  24  39  64  92 125 158 205 253 302 360
#     4  12  21  41  62  94 124 160 200 252 304 358
#
# _framework density 19.227136000000002
#
# number of rings (size 3 to 8) (size 9 to 14) (size 15 to 20)
#    0.000    0.667    6.667    2.000    0.000    6.000 
#    0.000   10.000    0.000    0.000    0.000    0.000 
#    0.000    0.000    0.000    0.000    0.000    0.000 
#
# Total GULP energy -595580.241403 kJ/mol
# GULP energy per Si atom -12407.921696 kJ/mol
# Density = 1.918337 g / cm^3
# Si number density = 19.227136 Si / 1000 Ang^3
#
#
#
# Elastic Constant Matrix: (Units=GPa)
#
#
# Indices 1 2 3 4 5 6 
#
# 1 59.9471 4.9288 23.3080 0.0000 0.0000 0.0000
# 2 4.9288 59.9466 23.3089 0.0000 0.0000 0.0000
# 3 23.3080 23.3089 107.4954 0.0000 0.0000 0.0000
# 4 0.0000 0.0000 0.0000 12.3756 0.0000 0.0000
# 5 0.0000 0.0000 0.0000 0.0000 12.3757 0.0000
# 6 0.0000 0.0000 0.0000 0.0000 0.0000 23.6538
#
#
#
# Elastic Compliance Matrix: (Units=1/GPa)
#
#
# Indices 1 2 3 4 5 6 
#
# 1 0.018217 0.000042 -0.003959 0.000000 0.000000 0.000000
# 2 0.000042 0.018218 -0.003959 0.000000 0.000000 0.000000
# 3 -0.003959 -0.003959 0.011020 0.000000 0.000000 0.000000
# 4 0.000000 0.000000 0.000000 0.080804 0.000000 0.000000
# 5 0.000000 0.000000 0.000000 0.000000 0.080803 0.000000
# 6 0.000000 0.000000 0.000000 0.000000 0.000000 0.042276
#
#
# Mechanical properties :
#
#
# Convention : Reuss Voigt Hill
#
# Bulk Modulus (GPa) = 31.54469 36.72005 34.13237
# Shear Modulus (GPa) = 18.00771 21.40393 19.70582
#
# Velocity S-wave (km/s) = 3.06368 3.34011 3.20487
# Velocity P-wave (km/s) = 5.38115 5.83220 5.61121
#
# Compressibility (1/GPa) = 0.03170106
#
# Stress axis : x y z
#
# Youngs Moduli (GPa) = 54.89305 54.89214 90.74696
#
# Poissons Ratio (x) = -0.00228 0.35927
# Poissons Ratio (y) = -0.00228 0.35929
# Poissons Ratio (z) = 0.21732 0.21733
#
# Static dielectric constant tensor:
#      x y z
#    x 3.402430 0.000000 0.000000 
#    y 0.000000 3.402420 0.000000 
#    z 0.000000 0.000000 3.686490 
# 
# 
# High freq. dielectric constant tensor:
#      x y z
#    x 1.740590 0.000000 0.000000 
#    y 0.000000 1.740590 0.000000 
#    z 0.000000 0.000000 1.760730 
# 
# From -- ./inp_files/18237.got.cif
#   From: 2010.03.12/outbox.cif.g09.slc.cpg/sg91_10_cif.got.tgz:18237.got - 2010.04.08 20:27:58.
