data_PCOD8305260
_publ_section_title
;
Structure prediction by ZEFSAII (Michael W. Deem and Ramdas Pophale) SiO2 
 PCOD8305260
Probable space group: P 41 21 2
;
_chemical_formula_sum "Si O2"
_cell_formula_units_Z 40
_cell_length_a 15.938834
_cell_length_b 15.938834
_cell_length_c 7.334121
_cell_angle_alpha 90.000000
_cell_angle_beta 90.000000
_cell_angle_gamma 90.000000
_cell_volume 1863.207252
_symmetry_space_group_name_H-M "P 41 21 2"
_symmetry_group_IT_number 92
_symmetry_cell_setting 'tetragonal'
loop_
_space_group_symop_operation_xyz
x,y,z
1/2-y,1/2+x,1/4+z
-x,-y,1/2+z
1/2+y,1/2-x,3/4+z
1/2+x,1/2-y,3/4-z
1/2-x,1/2+y,1/4-z
y,x,-z
-y,-x,1/2-z
loop_
_atom_site_type_symbol
_atom_site_label
_atom_site_fract_x
_atom_site_fract_y
_atom_site_fract_z
Si Si1 0.113272 0.775015 0.365648
Si Si2 0.220448 0.203330 0.714180
Si Si3 0.142343 0.628201 0.127445
Si Si4 0.029545 0.251137 0.125901
Si Si5 0.101710 0.473210 0.557496
O O1 0.143932 0.856069 0.250000
O O2 0.185446 0.734996 0.494347
O O3 0.088862 0.704263 0.216667
O O4 0.033291 0.801409 0.492655
O O5 0.203447 0.203447 0.500000
O O6 0.157373 0.264871 0.815478
O O7 0.200781 0.109697 0.795130
O O8 0.162596 0.558195 0.276602
O O9 0.093851 0.583568 0.965759
O O10 0.977802 0.296240 0.288956
O O11 0.060773 0.438718 0.371405
#
# Coordination Sequence:
#
# PCOD8305260 Si02
#       5
#     8   8   8   8   8
#     4   9  19  34  54  80 111 145 187 238 287 336
#     4  10  20  36  56  80 114 153 194 233 275 344
#     4  10  20  36  54  77 114 154 192 231 277 346
#     4  11  20  34  54  80 112 151 191 234 286 340
#     4  12  22  32  50  81 121 157 190 234 291 352
#
# _framework density 21.468357000000001
#
# number of rings (size 3 to 8) (size 9 to 14) (size 15 to 20)
#    0.000    1.600    0.000    9.000    0.000    0.000 
#    0.000    0.000    0.000    0.000    0.000   30.800 
#    0.000    0.000    0.000    0.000    0.000    0.000 
#
# Total GULP energy -495720.951262 kJ/mol
# GULP energy per Si atom -12393.023782 kJ/mol
# Density = 2.141949 g / cm^3
# Si number density = 21.468357 Si / 1000 Ang^3
#
#
#
# Elastic Constant Matrix: (Units=GPa)
#
#
# Indices 1 2 3 4 5 6 
#
# 1 62.3398 28.6233 22.4394 0.0000 0.0000 0.0000
# 2 28.6233 62.3387 22.4395 0.0000 0.0000 0.0000
# 3 22.4394 22.4395 95.0066 0.0000 0.0000 0.0000
# 4 0.0000 0.0000 0.0000 37.9365 0.0000 0.0000
# 5 0.0000 0.0000 0.0000 0.0000 37.9366 0.0000
# 6 0.0000 0.0000 0.0000 0.0000 0.0000 25.9960
#
#
#
# Elastic Compliance Matrix: (Units=1/GPa)
#
#
# Indices 1 2 3 4 5 6 
#
# 1 0.021051 -0.008608 -0.002939 0.000000 0.000000 0.000000
# 2 -0.008608 0.021052 -0.002939 0.000000 0.000000 0.000000
# 3 -0.002939 -0.002939 0.011914 0.000000 0.000000 0.000000
# 4 0.000000 0.000000 0.000000 0.026360 0.000000 0.000000
# 5 0.000000 0.000000 0.000000 0.000000 0.026360 0.000000
# 6 0.000000 0.000000 0.000000 0.000000 0.000000 0.038467
#
#
# Mechanical properties :
#
#
# Convention : Reuss Voigt Hill
#
# Bulk Modulus (GPa) = 39.92818 40.74327 40.33573
# Shear Modulus (GPa) = 27.39356 30.11933 28.75645
#
# Velocity S-wave (km/s) = 3.57599 3.74968 3.66386
# Velocity P-wave (km/s) = 5.97405 6.14543 6.06034
#
# Compressibility (1/GPa) = 0.02504497
#
# Stress axis : x y z
#
# Youngs Moduli (GPa) = 47.50289 47.50185 83.93552
#
# Poissons Ratio (x) = 0.40890 0.24668
# Poissons Ratio (y) = 0.40890 0.24670
# Poissons Ratio (z) = 0.13961 0.13961
#
# Static dielectric constant tensor:
#      x y z
#    x 3.643730 0.000000 0.000000 
#    y 0.000000 3.643730 0.000000 
#    z 0.000000 0.000000 4.149230 
# 
# 
# High freq. dielectric constant tensor:
#      x y z
#    x 1.815600 0.000000 0.000000 
#    y 0.000000 1.815600 0.000000 
#    z 0.000000 0.000000 1.863040 
# 
# From -- ./inp_files/1346.got.cif
#   From: 2010.03.12/outbox.cif.g09.slc.cpg/sg92_1_cif.got.tgz:1346.got - 2010.04.08 20:41:11.
