data_PCOD8305766
_publ_section_title
;
Structure prediction by ZEFSAII (Michael W. Deem and Ramdas Pophale) SiO2 
 PCOD8305766
Probable space group: P 42 21 2
;
_chemical_formula_sum "Si O2"
_cell_formula_units_Z 40
_cell_length_a 8.933740
_cell_length_b 8.933740
_cell_length_c 22.766593
_cell_angle_alpha 90.000000
_cell_angle_beta 90.000000
_cell_angle_gamma 90.000000
_cell_volume 1817.040727
_symmetry_space_group_name_H-M "P 42 21 2"
_symmetry_group_IT_number 94
_symmetry_cell_setting 'tetragonal'
loop_
_space_group_symop_operation_xyz
x,y,z
1/2-y,1/2+x,1/2+z
-x,-y,z
1/2+y,1/2-x,1/2+z
1/2+x,1/2-y,1/2-z
1/2-x,1/2+y,1/2-z
y,x,-z
-y,-x,-z
loop_
_atom_site_type_symbol
_atom_site_label
_atom_site_fract_x
_atom_site_fract_y
_atom_site_fract_z
Si Si1 0.239391 0.007370 0.991353
Si Si2 0.793610 0.622203 0.632163
Si Si3 0.167534 0.994528 0.306613
Si Si4 0.665412 0.020699 0.114162
Si Si5 0.168125 0.197212 0.192611
O O1 0.314653 0.968241 0.928900
O O2 0.101136 0.898865 0.000000
O O3 0.356788 0.981592 0.043804
O O4 0.176654 0.176654 0.000000
O O5 0.947550 0.706953 0.647436
O O6 0.674320 0.756649 0.633036
O O7 0.752974 0.500830 0.681842
O O8 0.167392 0.086137 0.246851
O O9 0.215741 0.826966 0.291279
O O10 0.000000 0.000000 0.334372
O O11 0.500000 0.000000 0.142786
O O12 0.774291 0.887160 0.134372
#
# Coordination Sequence:
#
# PCOD8305766 Si02
#       5
#     8   8   8   8   8
#     4   9  18  38  66  95 124 167 223 275 326 397
#     4  11  23  43  68  94 130 176 226 277 333 410
#     4  12  26  42  63  95 134 173 221 278 341 408
#     4  11  22  38  66  96 130 167 214 282 339 389
#     4  12  24  42  65  92 127 177 224 271 335 411
#
# _framework density 22.013817
#
# number of rings (size 3 to 8) (size 9 to 14) (size 15 to 20)
#    0.000    1.000    2.000    6.000    0.000    3.200 
#    0.000    0.000    0.000    4.200    0.000    0.000 
#    0.000    0.000    0.000    0.000    0.000    0.000 
#
# Total GULP energy -495959.189811 kJ/mol
# GULP energy per Si atom -12398.979745 kJ/mol
# Density = 2.196371 g / cm^3
# Si number density = 22.013817 Si / 1000 Ang^3
#
#
#
# Elastic Constant Matrix: (Units=GPa)
#
#
# Indices 1 2 3 4 5 6 
#
# 1 83.7560 13.8075 19.0609 0.0000 0.0000 0.0000
# 2 13.8075 83.7559 19.0610 0.0000 0.0000 0.0000
# 3 19.0609 19.0610 105.6279 0.0000 0.0000 0.0000
# 4 0.0000 0.0000 0.0000 39.8490 0.0000 0.0000
# 5 0.0000 0.0000 0.0000 0.0000 39.8535 0.0000
# 6 0.0000 0.0000 0.0000 0.0000 0.0000 42.1962
#
#
#
# Elastic Compliance Matrix: (Units=1/GPa)
#
#
# Indices 1 2 3 4 5 6 
#
# 1 0.012662 -0.001634 -0.001990 0.000000 0.000000 0.000000
# 2 -0.001634 0.012662 -0.001990 0.000000 0.000000 0.000000
# 3 -0.001990 -0.001990 0.010185 0.000000 0.000000 0.000000
# 4 0.000000 0.000000 0.000000 0.025095 0.000000 0.000000
# 5 0.000000 0.000000 0.000000 0.000000 0.025092 0.000000
# 6 0.000000 0.000000 0.000000 0.000000 0.000000 0.023699
#
#
# Mechanical properties :
#
#
# Convention : Reuss Voigt Hill
#
# Bulk Modulus (GPa) = 41.18569 41.88872 41.53720
# Shear Modulus (GPa) = 38.84509 39.12710 38.98610
#
# Velocity S-wave (km/s) = 4.20525 4.22048 4.21287
# Velocity P-wave (km/s) = 6.50603 6.54367 6.52488
#
# Compressibility (1/GPa) = 0.02428028
#
# Stress axis : x y z
#
# Youngs Moduli (GPa) = 78.97807 78.97794 98.18002
#
# Poissons Ratio (x) = 0.12909 0.19537
# Poissons Ratio (y) = 0.12909 0.19537
# Poissons Ratio (z) = 0.15716 0.15716
#
# Static dielectric constant tensor:
#      x y z
#    x 3.799860 0.000000 0.000000 
#    y 0.000000 3.799760 0.000000 
#    z 0.000000 0.000000 3.951430 
# 
# 
# High freq. dielectric constant tensor:
#      x y z
#    x 1.866460 0.000000 0.000000 
#    y 0.000000 1.866460 0.000000 
#    z 0.000000 0.000000 1.862450 
# 
# From -- ./inp_files/4918.got.cif
#   From: 2010.03.12/outbox.cif.g09.slc.cpg/sg94_3_cif.got.tgz:4918.got - 2010.04.08 20:48:32.
