data_PCOD8305015
_publ_section_title
;
Structure prediction by ZEFSAII (Michael W. Deem and Ramdas Pophale) SiO2 
 PCOD8305015
Probable space group: P 41 2 2
;
_chemical_formula_sum "Si O2"
_cell_formula_units_Z 32
_cell_length_a 11.607343
_cell_length_b 11.607343
_cell_length_c 10.635060
_cell_angle_alpha 90.000000
_cell_angle_beta 90.000000
_cell_angle_gamma 90.000000
_cell_volume 1432.866010
_symmetry_space_group_name_H-M "P 41 2 2"
_symmetry_group_IT_number 91
_symmetry_cell_setting 'tetragonal'
loop_
_space_group_symop_operation_xyz
x,y,z
-y,x,1/4+z
-x,-y,1/2+z
y,-x,3/4+z
x,-y,1/2-z
-x,y,-z
y,x,3/4-z
-y,-x,1/4-z
loop_
_atom_site_type_symbol
_atom_site_label
_atom_site_fract_x
_atom_site_fract_y
_atom_site_fract_z
Si Si1 0.317247 0.490024 0.113473
Si Si2 0.239402 0.351986 0.588346
Si Si3 0.185702 0.814299 0.125000
Si Si4 0.000000 0.808124 0.500000
Si Si5 0.235296 0.052066 0.017695
O O1 0.254085 0.500000 0.250000
O O2 0.432743 0.567258 0.125000
O O3 0.351366 0.358371 0.082583
O O4 0.234096 0.534665 0.001192
O O5 0.238928 0.241049 0.499072
O O6 0.132563 0.340881 0.684239
O O7 0.051168 0.784044 0.134236
O O8 0.012318 0.730903 0.626152
O O9 0.113086 0.884700 0.483895
#
# Coordination Sequence:
#
# PCOD8305015 Si02
#       5
#     8   8   4   4   8
#     4   9  18  38  65  96 125 180 234 288 351 406
#     4  11  21  37  72 101 137 178 239 290 347 422
#     4  12  20  36  66 112 144 180 228 278 346 442
#     4  10  22  38  62  88 152 186 230 274 338 422
#     4  11  22  37  64 106 138 189 233 281 345 428
#
# _framework density 22.332864000000001
#
# number of rings (size 3 to 8) (size 9 to 14) (size 15 to 20)
#    0.000    1.500    6.250    2.250    0.000    0.000 
#    0.000    0.000   49.500    3.000    0.000    0.000 
#    0.000    0.000    0.000    0.000    0.000    0.000 
#
# Total GULP energy -396569.498383 kJ/mol
# GULP energy per Si atom -12392.796824 kJ/mol
# Density = 2.228203 g / cm^3
# Si number density = 22.332864 Si / 1000 Ang^3
#
#
#
# Elastic Constant Matrix: (Units=GPa)
#
#
# Indices 1 2 3 4 5 6 
#
# 1 75.7766 54.3878 55.6551 0.0000 0.0000 0.0000
# 2 54.3878 75.7773 55.6552 0.0000 0.0000 0.0000
# 3 55.6551 55.6552 147.1926 0.0000 0.0000 0.0000
# 4 0.0000 0.0000 0.0000 41.3781 0.0000 0.0000
# 5 0.0000 0.0000 0.0000 0.0000 41.3779 0.0000
# 6 0.0000 0.0000 0.0000 0.0000 0.0000 13.2945
#
#
#
# Elastic Compliance Matrix: (Units=1/GPa)
#
#
# Indices 1 2 3 4 5 6 
#
# 1 0.029053 -0.017699 -0.004293 0.000000 0.000000 0.000000
# 2 -0.017699 0.029053 -0.004293 0.000000 0.000000 0.000000
# 3 -0.004293 -0.004293 0.010040 0.000000 0.000000 0.000000
# 4 0.000000 0.000000 0.000000 0.024167 0.000000 0.000000
# 5 0.000000 0.000000 0.000000 0.000000 0.024167 0.000000
# 6 0.000000 0.000000 0.000000 0.000000 0.000000 0.075219
#
#
# Mechanical properties :
#
#
# Convention : Reuss Voigt Hill
#
# Bulk Modulus (GPa) = 64.20214 70.01585 67.10899
# Shear Modulus (GPa) = 20.04305 28.08000 24.06152
#
# Velocity S-wave (km/s) = 2.99903 3.54975 3.28594
# Velocity P-wave (km/s) = 6.38768 6.94406 6.67167
#
# Compressibility (1/GPa) = 0.01557581
#
# Stress axis : x y z
#
# Youngs Moduli (GPa) = 34.41948 34.41990 99.59913
#
# Poissons Ratio (x) = 0.60921 0.42758
# Poissons Ratio (y) = 0.60921 0.42757
# Poissons Ratio (z) = 0.14776 0.14776
#
# Static dielectric constant tensor:
#      x y z
#    x 3.939970 0.000000 0.000000 
#    y 0.000000 3.939950 0.000000 
#    z 0.000000 0.000000 5.563230 
# 
# 
# High freq. dielectric constant tensor:
#      x y z
#    x 1.853270 0.000000 0.000000 
#    y 0.000000 1.853270 0.000000 
#    z 0.000000 0.000000 1.892400 
# 
# From -- ./inp_files/10425.got.cif
#   From: 2010.03.12/outbox.cif.g09.slc.cpg/sg91_6_cif.got.tgz:10425.got - 2010.04.08 20:27:58.
