data_PCOD8305039
_publ_section_title
;
Structure prediction by ZEFSAII (Michael W. Deem and Ramdas Pophale) SiO2 
 PCOD8305039
Probable space group: P 41 2 2
;
_chemical_formula_sum "Si O2"
_cell_formula_units_Z 48
_cell_length_a 8.602052
_cell_length_b 8.602052
_cell_length_c 30.002519
_cell_angle_alpha 90.000000
_cell_angle_beta 90.000000
_cell_angle_gamma 90.000000
_cell_volume 2220.045352
_symmetry_space_group_name_H-M "P 41 2 2"
_symmetry_group_IT_number 91
_symmetry_cell_setting 'tetragonal'
loop_
_space_group_symop_operation_xyz
x,y,z
-y,x,1/4+z
-x,-y,1/2+z
y,-x,3/4+z
x,-y,1/2-z
-x,y,-z
y,x,3/4-z
-y,-x,1/4-z
loop_
_atom_site_type_symbol
_atom_site_label
_atom_site_fract_x
_atom_site_fract_y
_atom_site_fract_z
Si Si1 0.868572 0.206779 0.533758
Si Si2 0.678641 0.487079 0.838914
Si Si3 0.012207 0.410812 0.293447
Si Si4 0.062529 0.937472 0.125000
Si Si5 0.500000 0.476587 0.000000
Si Si6 0.564857 0.833619 0.227425
Si Si7 0.237603 0.227585 0.100101
O O1 0.737631 0.086728 0.519780
O O2 0.813723 0.381107 0.526330
O O3 0.000000 0.157838 0.500000
O O4 0.908389 0.185015 0.585541
O O5 0.610149 0.610149 0.875000
O O6 0.858012 0.518077 0.826314
O O7 0.577736 0.494374 0.794646
O O8 0.678229 0.310665 0.858116
O O9 0.952760 0.500000 0.250000
O O10 0.863997 0.372397 0.323877
O O11 0.884778 0.907155 0.138380
O O12 0.333365 0.380437 0.000010
O O13 0.638751 0.842788 0.178905
O O14 0.609314 0.000000 0.250000
#
# Coordination Sequence:
#
# PCOD8305039 Si02
#       7
#     8   8   8   4   4   8   8
#     4  10  22  41  71  99 126 177 234 290 348 428
#     4  12  24  44  74 103 137 185 249 309 363 449
#     4  11  24  43  70 102 136 187 235 299 367 447
#     4  10  26  42  66  96 136 178 230 288 348 436
#     4  12  24  44  74 108 136 188 248 304 374 448
#     4  11  25  45  72 101 144 187 236 305 370 441
#     4  11  27  41  68 102 143 183 233 305 368 444
#
# _framework density 21.621181
#
# number of rings (size 3 to 8) (size 9 to 14) (size 15 to 20)
#    0.000    1.000    4.167    0.000   17.500    2.667 
#    0.000    0.000    3.667    0.000    0.000    0.000 
#    0.000    0.000    0.000    0.000    0.000    0.000 
#
# Total GULP energy -594651.187496 kJ/mol
# GULP energy per Si atom -12388.566406 kJ/mol
# Density = 2.157197 g / cm^3
# Si number density = 21.621181 Si / 1000 Ang^3
#
#
#
# Elastic Constant Matrix: (Units=GPa)
#
#
# Indices 1 2 3 4 5 6 
#
# 1 77.8464 45.9418 34.7325 0.0000 0.0000 0.0000
# 2 45.9418 77.8464 34.7326 0.0000 0.0000 0.0000
# 3 34.7325 34.7326 125.8963 0.0000 0.0000 0.0000
# 4 0.0000 0.0000 0.0000 21.6692 0.0000 0.0000
# 5 0.0000 0.0000 0.0000 0.0000 21.6688 0.0000
# 6 0.0000 0.0000 0.0000 0.0000 0.0000 26.1536
#
#
#
# Elastic Compliance Matrix: (Units=1/GPa)
#
#
# Indices 1 2 3 4 5 6 
#
# 1 0.020451 -0.010893 -0.002637 0.000000 0.000000 0.000000
# 2 -0.010893 0.020451 -0.002637 0.000000 0.000000 0.000000
# 3 -0.002637 -0.002637 0.009398 0.000000 0.000000 0.000000
# 4 0.000000 0.000000 0.000000 0.046149 0.000000 0.000000
# 5 0.000000 0.000000 0.000000 0.000000 0.046149 0.000000
# 6 0.000000 0.000000 0.000000 0.000000 0.000000 0.038236
#
#
# Mechanical properties :
#
#
# Convention : Reuss Voigt Hill
#
# Bulk Modulus (GPa) = 55.65917 56.93365 56.29641
# Shear Modulus (GPa) = 22.81493 24.97712 23.89602
#
# Velocity S-wave (km/s) = 3.25193 3.40253 3.32808
# Velocity P-wave (km/s) = 6.31655 6.46729 6.39236
#
# Compressibility (1/GPa) = 0.01796649
#
# Stress axis : x y z
#
# Youngs Moduli (GPa) = 48.89805 48.89802 106.40573
#
# Poissons Ratio (x) = 0.53263 0.28058
# Poissons Ratio (y) = 0.53263 0.28058
# Poissons Ratio (z) = 0.12894 0.12894
#
# Static dielectric constant tensor:
#      x y z
#    x 4.180560 0.000000 0.000000 
#    y 0.000000 4.180570 0.000000 
#    z 0.000000 0.000000 4.238270 
# 
# 
# High freq. dielectric constant tensor:
#      x y z
#    x 1.847800 0.000000 0.000000 
#    y 0.000000 1.847800 0.000000 
#    z 0.000000 0.000000 1.860310 
# 
# From -- ./inp_files/8000.got.cif
#   From: 2010.03.12/outbox.cif.g09.slc.cpg/sg91_4_cif.got.tgz:8000.got - 2010.04.08 20:27:58.
