data_PCOD8305633
_publ_section_title
;
Structure prediction by ZEFSAII (Michael W. Deem and Ramdas Pophale) SiO2 
 PCOD8305633
Probable space group: P 42 21 2
;
_chemical_formula_sum "Si O2"
_cell_formula_units_Z 64
_cell_length_a 11.547746
_cell_length_b 11.547746
_cell_length_c 23.847516
_cell_angle_alpha 90.000000
_cell_angle_beta 90.000000
_cell_angle_gamma 90.000000
_cell_volume 3180.076696
_symmetry_space_group_name_H-M "P 42 21 2"
_symmetry_group_IT_number 94
_symmetry_cell_setting 'tetragonal'
loop_
_space_group_symop_operation_xyz
x,y,z
1/2-y,1/2+x,1/2+z
-x,-y,z
1/2+y,1/2-x,1/2+z
1/2+x,1/2-y,1/2-z
1/2-x,1/2+y,1/2-z
y,x,-z
-y,-x,-z
loop_
_atom_site_type_symbol
_atom_site_label
_atom_site_fract_x
_atom_site_fract_y
_atom_site_fract_z
Si Si1 0.798027 0.789322 0.936001
Si Si2 0.393488 0.414883 0.257168
Si Si3 0.562411 0.750387 0.558823
Si Si4 0.759817 0.056202 0.932608
Si Si5 0.533812 0.162048 0.722176
Si Si6 0.320390 0.118903 0.656456
Si Si7 0.626605 0.735301 0.155601
Si Si8 0.195158 0.349990 0.679388
O O1 0.716296 0.705418 0.899270
O O2 0.929987 0.757144 0.924003
O O3 0.779562 0.922244 0.919656
O O4 0.765227 0.765227 0.000000
O O5 0.500000 0.500000 0.252354
O O6 0.290633 0.483878 0.286263
O O7 0.351161 0.373730 0.195804
O O8 0.425971 0.299836 0.293338
O O9 0.575699 0.794170 0.494440
O O10 0.617705 0.623667 0.568969
O O11 0.623454 0.844155 0.597801
O O12 0.674823 0.108028 0.884611
O O13 0.424128 0.082906 0.700988
O O14 0.644221 0.162767 0.682955
O O15 0.575242 0.133984 0.785933
O O16 0.235203 0.215737 0.682236
O O17 0.240759 0.009670 0.642176
#
# Coordination Sequence:
#
# PCOD8305633 Si02
#       8
#     8   8   8   8   8   8   8   8
#     4  10  20  34  54  80 114 145 184 231 280 338
#     4  10  22  37  57  80 111 149 186 231 275 333
#     4   9  17  32  56  82 111 143 185 228 286 336
#     4   9  18  32  53  86 114 141 175 235 291 335
#     4  10  20  36  53  82 110 147 186 225 275 330
#     4  10  19  35  56  80 110 150 191 226 268 339
#     4  11  22  37  56  81 109 151 189 229 273 334
#     4   9  20  34  56  85 113 141 185 228 282 334
#
# _framework density 20.125298999999998
#
# number of rings (size 3 to 8) (size 9 to 14) (size 15 to 20)
#    0.000    2.250    1.250    1.500    1.750    1.500 
#    6.750    1.250    0.000    3.375    0.000    0.000 
#    0.000    0.000    0.000    0.000    0.000    0.000 
#
# Total GULP energy -793445.201721 kJ/mol
# GULP energy per Si atom -12397.581277 kJ/mol
# Density = 2.007949 g / cm^3
# Si number density = 20.125299 Si / 1000 Ang^3
#
#
#
# Elastic Constant Matrix: (Units=GPa)
#
#
# Indices 1 2 3 4 5 6 
#
# 1 46.1477 16.4348 23.7187 0.0000 0.0000 0.0000
# 2 16.4348 46.1477 23.7187 0.0000 0.0000 0.0000
# 3 23.7187 23.7187 104.0318 0.0000 0.0000 0.0000
# 4 0.0000 0.0000 0.0000 30.4541 0.0000 0.0000
# 5 0.0000 0.0000 0.0000 0.0000 30.4541 0.0000
# 6 0.0000 0.0000 0.0000 0.0000 0.0000 18.2528
#
#
#
# Elastic Compliance Matrix: (Units=1/GPa)
#
#
# Indices 1 2 3 4 5 6 
#
# 1 0.026486 -0.007169 -0.004404 0.000000 0.000000 0.000000
# 2 -0.007169 0.026486 -0.004404 0.000000 0.000000 0.000000
# 3 -0.004404 -0.004404 0.011621 0.000000 0.000000 0.000000
# 4 0.000000 0.000000 0.000000 0.032836 0.000000 0.000000
# 5 0.000000 0.000000 0.000000 0.000000 0.032836 0.000000
# 6 0.000000 0.000000 0.000000 0.000000 0.000000 0.054786
#
#
# Mechanical properties :
#
#
# Convention : Reuss Voigt Hill
#
# Bulk Modulus (GPa) = 30.63878 36.00796 33.32337
# Shear Modulus (GPa) = 21.94071 24.66253 23.30162
#
# Velocity S-wave (km/s) = 3.30541 3.50444 3.40638
# Velocity P-wave (km/s) = 5.46120 5.85709 5.66261
#
# Compressibility (1/GPa) = 0.03263837
#
# Stress axis : x y z
#
# Youngs Moduli (GPa) = 37.75526 37.75526 86.05310
#
# Poissons Ratio (x) = 0.27067 0.37900
# Poissons Ratio (y) = 0.27067 0.37900
# Poissons Ratio (z) = 0.16628 0.16628
#
# Static dielectric constant tensor:
#      x y z
#    x 3.504830 0.000000 0.000000 
#    y 0.000000 3.504830 0.000000 
#    z 0.000000 0.000000 3.893810 
# 
# 
# High freq. dielectric constant tensor:
#      x y z
#    x 1.768720 0.000000 0.000000 
#    y 0.000000 1.768720 0.000000 
#    z 0.000000 0.000000 1.791690 
# 
# From -- ./inp_files/5182.got.cif
#   From: 2010.03.12/outbox.cif.g09.slc.cpg/sg94_3_cif.got.tgz:5182.got - 2010.04.08 20:48:32.
