data_PCOD8305459
_publ_section_title
;
Structure prediction by ZEFSAII (Michael W. Deem and Ramdas Pophale) SiO2 
 PCOD8305459
Probable space group: P 41 21 2
;
_chemical_formula_sum "Si O2"
_cell_formula_units_Z 44
_cell_length_a 8.608746
_cell_length_b 8.608746
_cell_length_c 27.018436
_cell_angle_alpha 90.000000
_cell_angle_beta 90.000000
_cell_angle_gamma 90.000000
_cell_volume 2002.350009
_symmetry_space_group_name_H-M "P 41 21 2"
_symmetry_group_IT_number 92
_symmetry_cell_setting 'tetragonal'
loop_
_space_group_symop_operation_xyz
x,y,z
1/2-y,1/2+x,1/4+z
-x,-y,1/2+z
1/2+y,1/2-x,3/4+z
1/2+x,1/2-y,3/4-z
1/2-x,1/2+y,1/4-z
y,x,-z
-y,-x,1/2-z
loop_
_atom_site_type_symbol
_atom_site_label
_atom_site_fract_x
_atom_site_fract_y
_atom_site_fract_z
Si Si1 0.590135 0.409865 0.750000
Si Si2 0.610728 0.897087 0.674818
Si Si3 0.125193 0.331163 0.148491
Si Si4 0.103368 0.246041 0.645096
Si Si5 0.944632 0.423657 0.723421
Si Si6 0.418304 0.412596 0.347845
O O1 0.771744 0.433969 0.743202
O O2 0.528356 0.504030 0.797370
O O3 0.721218 0.747057 0.670754
O O4 0.444860 0.843600 0.653437
O O5 0.675796 0.046284 0.644343
O O6 0.583821 0.935597 0.731805
O O7 0.027544 0.420574 0.190976
O O8 0.021969 0.194085 0.128249
O O9 0.260040 0.321600 0.666199
O O10 0.972430 0.272812 0.688025
O O11 0.125398 0.065721 0.632421
#
# Coordination Sequence:
#
# PCOD8305459 Si02
#       6
#     4   8   8   8   8   8
#     4  12  26  44  76  98 140 194 242 286 368 446
#     4  11  23  44  71 102 143 186 243 299 361 438
#     4  11  24  44  70 104 141 188 238 298 365 437
#     4  11  26  45  70 104 145 185 237 304 362 430
#     4  11  26  43  73 108 139 190 242 296 362 449
#     4  12  26  48  71 104 147 191 237 301 371 434
#
# _framework density 21.974178999999999
#
# number of rings (size 3 to 8) (size 9 to 14) (size 15 to 20)
#    0.000    0.727    1.818    6.545    7.636    0.000 
#    0.000    1.818    0.000    0.000    0.000    0.000 
#    0.000    0.000    0.000    0.000    0.000    0.000 
#
# Total GULP energy -545695.062602 kJ/mol
# GULP energy per Si atom -12402.160514 kJ/mol
# Density = 2.192417 g / cm^3
# Si number density = 21.974179 Si / 1000 Ang^3
#
#
#
# Elastic Constant Matrix: (Units=GPa)
#
#
# Indices 1 2 3 4 5 6 
#
# 1 86.6325 12.6256 27.4321 0.0000 0.0000 0.0000
# 2 12.6256 86.6320 27.4321 0.0000 0.0000 0.0000
# 3 27.4321 27.4321 130.4216 0.0000 0.0000 0.0000
# 4 0.0000 0.0000 0.0000 25.6732 0.0000 0.0000
# 5 0.0000 0.0000 0.0000 0.0000 25.6732 0.0000
# 6 0.0000 0.0000 0.0000 0.0000 0.0000 36.1300
#
#
#
# Elastic Compliance Matrix: (Units=1/GPa)
#
#
# Indices 1 2 3 4 5 6 
#
# 1 0.012456 -0.001056 -0.002398 0.000000 0.000000 0.000000
# 2 -0.001056 0.012456 -0.002398 0.000000 0.000000 0.000000
# 3 -0.002398 -0.002398 0.008676 0.000000 0.000000 0.000000
# 4 0.000000 0.000000 0.000000 0.038951 0.000000 0.000000
# 5 0.000000 0.000000 0.000000 0.000000 0.038951 0.000000
# 6 0.000000 0.000000 0.000000 0.000000 0.000000 0.027678
#
#
# Mechanical properties :
#
#
# Convention : Reuss Voigt Hill
#
# Bulk Modulus (GPa) = 45.69320 48.74062 47.21691
# Shear Modulus (GPa) = 31.61212 33.24170 32.42691
#
# Velocity S-wave (km/s) = 3.79701 3.89364 3.84563
# Velocity P-wave (km/s) = 6.32947 6.51483 6.42282
#
# Compressibility (1/GPa) = 0.02188510
#
# Stress axis : x y z
#
# Youngs Moduli (GPa) = 80.28138 80.28090 115.25865
#
# Poissons Ratio (x) = 0.08478 0.27637
# Poissons Ratio (y) = 0.08478 0.27637
# Poissons Ratio (z) = 0.19250 0.19250
#
# Static dielectric constant tensor:
#      x y z
#    x 4.117720 0.000000 0.000000 
#    y 0.000000 4.117730 0.000000 
#    z 0.000000 0.000000 4.154720 
# 
# 
# High freq. dielectric constant tensor:
#      x y z
#    x 1.868470 0.000000 0.000000 
#    y 0.000000 1.868470 0.000000 
#    z 0.000000 0.000000 1.867240 
# 
# From -- ./inp_files/4440.got.cif
#   From: 2010.03.12/outbox.cif.g09.slc.cpg/sg92_3_cif.got.tgz:4440.got - 2010.04.08 20:41:11.
