data_PCOD8305047
_publ_section_title
;
Structure prediction by ZEFSAII (Michael W. Deem and Ramdas Pophale) SiO2 
 PCOD8305047
Probable space group: P 41 2 2
;
_chemical_formula_sum "Si O2"
_cell_formula_units_Z 36
_cell_length_a 8.439436
_cell_length_b 8.439436
_cell_length_c 22.807060
_cell_angle_alpha 90.000000
_cell_angle_beta 90.000000
_cell_angle_gamma 90.000000
_cell_volume 1624.411866
_symmetry_space_group_name_H-M "P 41 2 2"
_symmetry_group_IT_number 91
_symmetry_cell_setting 'tetragonal'
loop_
_space_group_symop_operation_xyz
x,y,z
-y,x,1/4+z
-x,-y,1/2+z
y,-x,3/4+z
x,-y,1/2-z
-x,y,-z
y,x,3/4-z
-y,-x,1/4-z
loop_
_atom_site_type_symbol
_atom_site_label
_atom_site_fract_x
_atom_site_fract_y
_atom_site_fract_z
Si Si1 0.144699 0.727096 0.066425
Si Si2 0.677348 0.204538 0.017363
Si Si3 0.196416 0.880057 0.950642
Si Si4 0.586337 0.586337 0.375000
Si Si5 0.616373 0.227921 0.343800
O O1 0.235450 0.764551 0.125000
O O2 0.138544 0.537501 0.067947
O O3 0.975421 0.813787 0.067270
O O4 0.245901 0.783598 0.009607
O O5 0.667950 0.340420 0.067107
O O6 0.797038 0.066045 0.036110
O O7 0.500000 0.144593 0.000000
O O8 0.765987 0.267541 0.960625
O O9 0.316970 0.873712 0.897020
O O10 0.605171 0.399422 0.372991
#
# Coordination Sequence:
#
# PCOD8305047 Si02
#       5
#     8   8   8   4   8
#     4  11  25  45  68 103 140 190 240 292 367 427
#     4  10  24  43  71 104 144 184 239 294 359 421
#     4  11  26  43  68 100 144 183 239 291 366 430
#     4  10  22  42  68 106 134 184 240 294 350 432
#     4  11  23  44  72  99 141 187 241 299 353 433
#
# _framework density 22.161867000000001
#
# number of rings (size 3 to 8) (size 9 to 14) (size 15 to 20)
#    0.000    1.333    1.111    2.667   10.889    0.000 
#    0.000    0.000    0.000    0.000    0.000    0.000 
#    0.000    0.000    0.000    0.000    0.000    0.000 
#
# Total GULP energy -446150.494015 kJ/mol
# GULP energy per Si atom -12393.069278 kJ/mol
# Density = 2.211143 g / cm^3
# Si number density = 22.161867 Si / 1000 Ang^3
#
#
#
# Elastic Constant Matrix: (Units=GPa)
#
#
# Indices 1 2 3 4 5 6 
#
# 1 135.0325 42.1728 40.9226 0.0000 0.0000 0.0000
# 2 42.1728 135.0338 40.9220 0.0000 0.0000 0.0000
# 3 40.9226 40.9220 137.5921 0.0000 0.0000 0.0000
# 4 0.0000 0.0000 0.0000 27.9665 0.0000 0.0000
# 5 0.0000 0.0000 0.0000 0.0000 27.9658 0.0000
# 6 0.0000 0.0000 0.0000 0.0000 0.0000 38.3374
#
#
#
# Elastic Compliance Matrix: (Units=1/GPa)
#
#
# Indices 1 2 3 4 5 6 
#
# 1 0.008655 -0.002114 -0.001946 0.000000 0.000000 0.000000
# 2 -0.002114 0.008655 -0.001946 0.000000 0.000000 0.000000
# 3 -0.001946 -0.001946 0.008425 0.000000 0.000000 0.000000
# 4 0.000000 0.000000 0.000000 0.035757 0.000000 0.000000
# 5 0.000000 0.000000 0.000000 0.000000 0.035758 0.000000
# 6 0.000000 0.000000 0.000000 0.000000 0.000000 0.026084
#
#
# Mechanical properties :
#
#
# Convention : Reuss Voigt Hill
#
# Bulk Modulus (GPa) = 72.85348 72.85480 72.85414
# Shear Modulus (GPa) = 35.73469 37.76333 36.74901
#
# Velocity S-wave (km/s) = 4.01988 4.13241 4.07653
# Velocity P-wave (km/s) = 7.38177 7.46420 7.42310
#
# Compressibility (1/GPa) = 0.01372618
#
# Stress axis : x y z
#
# Youngs Moduli (GPa) = 115.53521 115.53674 118.69165
#
# Poissons Ratio (x) = 0.24419 0.23094
# Poissons Ratio (y) = 0.24419 0.23093
# Poissons Ratio (z) = 0.22479 0.22479
#
# Static dielectric constant tensor:
#      x y z
#    x 4.009660 0.000000 0.000000 
#    y 0.000000 4.009660 0.000000 
#    z 0.000000 0.000000 4.682500 
# 
# 
# High freq. dielectric constant tensor:
#      x y z
#    x 1.868000 0.000000 0.000000 
#    y 0.000000 1.868000 0.000000 
#    z 0.000000 0.000000 1.901880 
# 
# From -- ./inp_files/6139.got.cif
#   From: 2010.03.12/outbox.cif.g09.slc.cpg/sg91_4_cif.got.tgz:6139.got - 2010.04.08 20:27:58.
