data_PCOD8305300
_publ_section_title
;
Structure prediction by ZEFSAII (Michael W. Deem and Ramdas Pophale) SiO2 
 PCOD8305300
Probable space group: P 41 21 2
;
_chemical_formula_sum "Si O2"
_cell_formula_units_Z 48
_cell_length_a 17.973460
_cell_length_b 17.973460
_cell_length_c 8.051995
_cell_angle_alpha 90.000000
_cell_angle_beta 90.000000
_cell_angle_gamma 90.000000
_cell_volume 2601.158853
_symmetry_space_group_name_H-M "P 41 21 2"
_symmetry_group_IT_number 92
_symmetry_cell_setting 'tetragonal'
loop_
_space_group_symop_operation_xyz
x,y,z
1/2-y,1/2+x,1/4+z
-x,-y,1/2+z
1/2+y,1/2-x,3/4+z
1/2+x,1/2-y,3/4-z
1/2-x,1/2+y,1/4-z
y,x,-z
-y,-x,1/2-z
loop_
_atom_site_type_symbol
_atom_site_label
_atom_site_fract_x
_atom_site_fract_y
_atom_site_fract_z
Si Si1 0.587962 0.291253 0.725874
Si Si2 0.170543 0.353000 0.907652
Si Si3 0.259711 0.986200 0.718760
Si Si4 0.761787 0.067919 0.559941
Si Si5 0.302721 0.348355 0.674411
Si Si6 0.909883 0.527265 0.207622
O O1 0.633352 0.366649 0.750000
O O2 0.637612 0.219534 0.759101
O O3 0.560316 0.283147 0.533136
O O4 0.515405 0.293664 0.847950
O O5 0.229235 0.323157 0.772645
O O6 0.105515 0.400771 0.821929
O O7 0.208190 0.405736 0.044680
O O8 0.202535 0.937350 0.607478
O O9 0.333099 0.005701 0.615331
O O10 0.283005 0.938026 0.884018
O O11 0.830660 0.125198 0.536785
O O12 0.304406 0.304406 0.500000
O O13 0.949568 0.462895 0.308646
#
# Coordination Sequence:
#
# PCOD8305300 Si02
#       6
#     8   8   8   8   8   8
#     4  10  21  35  59  89 119 155 194 254 309 362
#     4  11  21  37  59  90 115 163 208 248 298 372
#     4   8  21  35  58  80 120 151 199 248 302 360
#     4   9  19  34  64  80 119 150 202 247 299 360
#     4   9  17  37  58  84 108 159 200 250 296 366
#     4  11  25  37  57  87 125 161 202 243 309 369
#
# _framework density 18.453313000000001
#
# number of rings (size 3 to 8) (size 9 to 14) (size 15 to 20)
#    1.000    1.333    0.000    2.500    4.667    0.000 
#    3.000    0.000    7.333    0.000    0.000    0.000 
#    0.000    0.000    0.000    0.000    0.000    0.000 
#
# Total GULP energy -594754.224755 kJ/mol
# GULP energy per Si atom -12390.713016 kJ/mol
# Density = 1.841131 g / cm^3
# Si number density = 18.453313 Si / 1000 Ang^3
#
#
#
# Elastic Constant Matrix: (Units=GPa)
#
#
# Indices 1 2 3 4 5 6 
#
# 1 96.4193 62.9024 36.3307 0.0000 0.0000 0.0000
# 2 62.9024 96.4180 36.3309 0.0000 0.0000 0.0000
# 3 36.3307 36.3309 71.5404 0.0000 0.0000 0.0000
# 4 0.0000 0.0000 0.0000 24.2703 0.0000 0.0000
# 5 0.0000 0.0000 0.0000 0.0000 24.2700 0.0000
# 6 0.0000 0.0000 0.0000 0.0000 0.0000 23.4751
#
#
#
# Elastic Compliance Matrix: (Units=1/GPa)
#
#
# Indices 1 2 3 4 5 6 
#
# 1 0.019002 -0.010834 -0.004148 0.000000 0.000000 0.000000
# 2 -0.010834 0.019003 -0.004148 0.000000 0.000000 0.000000
# 3 -0.004148 -0.004148 0.018191 0.000000 0.000000 0.000000
# 4 0.000000 0.000000 0.000000 0.041203 0.000000 0.000000
# 5 0.000000 0.000000 0.000000 0.000000 0.041203 0.000000
# 6 0.000000 0.000000 0.000000 0.000000 0.000000 0.042598
#
#
# Mechanical properties :
#
#
# Convention : Reuss Voigt Hill
#
# Bulk Modulus (GPa) = 55.75575 59.50064 57.62819
# Shear Modulus (GPa) = 22.17888 22.99065 22.58476
#
# Velocity S-wave (km/s) = 3.47059 3.53353 3.50220
# Velocity P-wave (km/s) = 6.80736 6.99726 6.90296
#
# Compressibility (1/GPa) = 0.01793537
#
# Stress axis : x y z
#
# Youngs Moduli (GPa) = 52.62535 52.62434 54.97093
#
# Poissons Ratio (x) = 0.57013 0.22803
# Poissons Ratio (y) = 0.57014 0.22804
# Poissons Ratio (z) = 0.21830 0.21831
#
# Static dielectric constant tensor:
#      x y z
#    x 3.331560 0.000000 0.000000 
#    y 0.000000 3.331560 0.000000 
#    z 0.000000 0.000000 3.463460 
# 
# 
# High freq. dielectric constant tensor:
#      x y z
#    x 1.703890 0.000000 0.000000 
#    y 0.000000 1.703890 0.000000 
#    z 0.000000 0.000000 1.717830 
# 
# From -- ./inp_files/1519.got.cif
#   From: 2010.03.12/outbox.cif.g09.slc.cpg/sg92_1_cif.got.tgz:1519.got - 2010.04.08 20:41:11.
