data_PCOD8305197
_publ_section_title
;
Structure prediction by ZEFSAII (Michael W. Deem and Ramdas Pophale) SiO2 
 PCOD8305197
Probable space group: P 41 21 2
;
_chemical_formula_sum "Si O2"
_cell_formula_units_Z 56
_cell_length_a 19.442707
_cell_length_b 19.442707
_cell_length_c 9.158223
_cell_angle_alpha 90.000000
_cell_angle_beta 90.000000
_cell_angle_gamma 90.000000
_cell_volume 3461.980977
_symmetry_space_group_name_H-M "P 41 21 2"
_symmetry_group_IT_number 92
_symmetry_cell_setting 'tetragonal'
loop_
_space_group_symop_operation_xyz
x,y,z
1/2-y,1/2+x,1/4+z
-x,-y,1/2+z
1/2+y,1/2-x,3/4+z
1/2+x,1/2-y,3/4-z
1/2-x,1/2+y,1/4-z
y,x,-z
-y,-x,1/2-z
loop_
_atom_site_type_symbol
_atom_site_label
_atom_site_fract_x
_atom_site_fract_y
_atom_site_fract_z
Si Si1 0.072920 0.227588 0.716504
Si Si2 0.608455 0.724894 0.024180
Si Si3 0.701587 0.486121 0.757288
Si Si4 0.059348 0.962849 0.083806
Si Si5 0.824831 0.019746 0.028555
Si Si6 0.179633 0.103341 0.722556
Si Si7 0.833087 0.718739 0.987596
O O1 0.123367 0.162509 0.733776
O O2 0.119718 0.285350 0.634933
O O3 0.007101 0.212242 0.616110
O O4 0.040700 0.250836 0.873515
O O5 0.558912 0.720124 0.166687
O O6 0.644928 0.798889 0.041843
O O7 0.661184 0.661184 0.000000
O O8 0.562499 0.728375 0.878088
O O9 0.627884 0.493286 0.681955
O O10 0.699501 0.423306 0.868715
O O11 0.038466 0.961535 0.250000
O O12 0.069765 0.886881 0.017665
O O13 0.997399 0.997399 0.000000
O O14 0.854677 0.956461 0.124485
O O15 0.252995 0.122906 0.648757
O O16 0.771614 0.771614 0.000000
#
# Coordination Sequence:
#
# PCOD8305197 Si02
#       7
#     8   8   8   8   8   8   8
#     4  10  17  32  46  67  90 127 166 205 232 264
#     4  10  19  33  46  67  95 130 164 194 248 291
#     4  11  21  29  45  70 101 123 166 207 234 279
#     4  12  23  29  41  67 103 144 167 189 228 274
#     4  10  19  29  43  64  98 126 163 192 230 285
#     4   9  18  31  47  66  89 130 167 203 231 266
#     4   8  17  33  52  61  84 128 173 202 235 287
#
# _framework density 16.175709999999999
#
# number of rings (size 3 to 8) (size 9 to 14) (size 15 to 20)
#    0.000    2.000    2.857    3.429    4.000    0.000 
#    0.000    1.429    0.000    3.429    0.000    0.000 
#    0.000   61.714    0.000    0.000    0.000    0.000 
#
# Total GULP energy -693868.684912 kJ/mol
# GULP energy per Si atom -12390.512231 kJ/mol
# Density = 1.613889 g / cm^3
# Si number density = 16.175710 Si / 1000 Ang^3
#
#
#
# Elastic Constant Matrix: (Units=GPa)
#
#
# Indices 1 2 3 4 5 6 
#
# 1 72.2725 22.8270 40.6725 0.0000 0.0000 0.0000
# 2 22.8270 72.2716 40.6722 0.0000 0.0000 0.0000
# 3 40.6725 40.6722 136.9079 0.0000 0.0000 0.0000
# 4 0.0000 0.0000 0.0000 17.3259 0.0000 0.0000
# 5 0.0000 0.0000 0.0000 0.0000 17.3262 0.0000
# 6 0.0000 0.0000 0.0000 0.0000 0.0000 30.2071
#
#
#
# Elastic Compliance Matrix: (Units=1/GPa)
#
#
# Indices 1 2 3 4 5 6 
#
# 1 0.017161 -0.003063 -0.004188 0.000000 0.000000 0.000000
# 2 -0.003063 0.017161 -0.004188 0.000000 0.000000 0.000000
# 3 -0.004188 -0.004188 0.009793 0.000000 0.000000 0.000000
# 4 0.000000 0.000000 0.000000 0.057717 0.000000 0.000000
# 5 0.000000 0.000000 0.000000 0.000000 0.057716 0.000000
# 6 0.000000 0.000000 0.000000 0.000000 0.000000 0.033105
#
#
# Mechanical properties :
#
#
# Convention : Reuss Voigt Hill
#
# Bulk Modulus (GPa) = 47.09084 54.42171 50.75627
# Shear Modulus (GPa) = 22.46078 24.79054 23.62566
#
# Velocity S-wave (km/s) = 3.73037 3.91906 3.82588
# Velocity P-wave (km/s) = 6.90865 7.36178 7.13881
#
# Compressibility (1/GPa) = 0.02123555
#
# Stress axis : x y z
#
# Youngs Moduli (GPa) = 58.27166 58.27099 102.11809
#
# Poissons Ratio (x) = 0.17850 0.42768
# Poissons Ratio (y) = 0.17851 0.42768
# Poissons Ratio (z) = 0.24405 0.24405
#
# Static dielectric constant tensor:
#      x y z
#    x 2.985000 0.000000 0.000000 
#    y 0.000000 2.985000 0.000000 
#    z 0.000000 0.000000 3.258730 
# 
# 
# High freq. dielectric constant tensor:
#      x y z
#    x 1.589130 0.000000 0.000000 
#    y 0.000000 1.589130 0.000000 
#    z 0.000000 0.000000 1.637640 
# 
# From -- ./inp_files/1690.got.cif
#   From: 2010.03.12/outbox.cif.g09.slc.cpg/sg92_1_cif.got.tgz:1690.got - 2010.04.08 20:41:11.
