data_PCOD8305562
_publ_section_title
;
Structure prediction by ZEFSAII (Michael W. Deem and Ramdas Pophale) SiO2 
 PCOD8305562
Probable space group: P 42 2 2
;
_chemical_formula_sum "Si O2"
_cell_formula_units_Z 56
_cell_length_a 12.296398
_cell_length_b 12.296398
_cell_length_c 18.232428
_cell_angle_alpha 90.000000
_cell_angle_beta 90.000000
_cell_angle_gamma 90.000000
_cell_volume 2756.768708
_symmetry_space_group_name_H-M "P 42 2 2"
_symmetry_group_IT_number 93
_symmetry_cell_setting 'tetragonal'
loop_
_space_group_symop_operation_xyz
x,y,z
-y,x,1/2+z
-x,-y,z
y,-x,1/2+z
x,-y,-z
-x,y,-z
y,x,1/2-z
-y,-x,1/2-z
loop_
_atom_site_type_symbol
_atom_site_label
_atom_site_fract_x
_atom_site_fract_y
_atom_site_fract_z
Si Si1 0.437217 0.893088 0.691526
Si Si2 0.739964 0.417070 0.289727
Si Si3 0.873995 0.209052 0.326677
Si Si4 0.125302 0.875472 0.018172
Si Si5 0.289903 0.236141 0.408824
Si Si6 0.464152 0.623811 0.921310
Si Si7 0.246415 0.107564 0.202820
O O1 0.515102 0.801633 0.726745
O O2 0.373895 0.854451 0.619213
O O3 0.349588 0.929568 0.750859
O O4 0.500000 0.000000 0.666503
O O5 0.637286 0.362715 0.250000
O O6 0.818707 0.326952 0.325080
O O7 0.698988 0.492361 0.355713
O O8 0.852453 0.147548 0.250000
O O9 0.836368 0.141022 0.397489
O O10 0.002192 0.215826 0.343466
O O11 0.194247 0.787132 0.973361
O O12 0.000000 0.861273 0.000000
O O13 0.162560 0.000000 0.000000
O O14 0.368595 0.334793 0.428852
O O15 0.211110 0.279272 0.344964
O O16 0.500000 0.500000 0.908053
O O17 0.500000 0.669462 0.000000
O O18 0.140883 0.140883 0.250000
#
# Coordination Sequence:
#
# PCOD8305562 Si02
#       7
#     8   8   8   8   8   8   8
#     4  11  22  39  65  99 135 169 216 275 334 402
#     4  11  23  39  64  96 127 163 221 274 327 388
#     4  11  24  40  65  94 130 178 221 273 324 393
#     4  11  25  42  63  97 138 176 223 275 334 404
#     4  11  23  42  67  95 132 177 214 271 344 403
#     4  11  24  43  65  90 126 172 219 276 331 396
#     4  10  21  36  63  96 128 167 214 267 332 393
#
# _framework density 20.313635999999999
#
# number of rings (size 3 to 8) (size 9 to 14) (size 15 to 20)
#    0.000    1.143    4.286    1.714    4.000    1.714 
#    0.000    2.857    0.000    0.000    0.000    0.000 
#    0.000    0.000    0.000    0.000    0.000    0.000 
#
# Total GULP energy -694210.282855 kJ/mol
# GULP energy per Si atom -12396.612194 kJ/mol
# Density = 2.026740 g / cm^3
# Si number density = 20.313636 Si / 1000 Ang^3
#
#
#
# Elastic Constant Matrix: (Units=GPa)
#
#
# Indices 1 2 3 4 5 6 
#
# 1 108.3477 70.8818 51.3578 0.0000 0.0000 0.0000
# 2 70.8818 108.3481 51.3585 0.0000 0.0000 0.0000
# 3 51.3578 51.3585 130.4966 0.0000 0.0000 0.0000
# 4 0.0000 0.0000 0.0000 21.8621 0.0000 0.0000
# 5 0.0000 0.0000 0.0000 0.0000 21.8607 0.0000
# 6 0.0000 0.0000 0.0000 0.0000 0.0000 34.0808
#
#
#
# Elastic Compliance Matrix: (Units=1/GPa)
#
#
# Indices 1 2 3 4 5 6 
#
# 1 0.016948 -0.009743 -0.002835 0.000000 0.000000 0.000000
# 2 -0.009743 0.016948 -0.002835 0.000000 0.000000 0.000000
# 3 -0.002835 -0.002835 0.009895 0.000000 0.000000 0.000000
# 4 0.000000 0.000000 0.000000 0.045741 0.000000 0.000000
# 5 0.000000 0.000000 0.000000 0.000000 0.045744 0.000000
# 6 0.000000 0.000000 0.000000 0.000000 0.000000 0.029342
#
#
# Mechanical properties :
#
#
# Convention : Reuss Voigt Hill
#
# Bulk Modulus (GPa) = 77.14774 77.15426 77.15100
# Shear Modulus (GPa) = 25.02930 27.13368 26.08149
#
# Velocity S-wave (km/s) = 3.51400 3.65874 3.58710
# Velocity P-wave (km/s) = 7.38410 7.47746 7.43093
#
# Compressibility (1/GPa) = 0.01296214
#
# Stress axis : x y z
#
# Youngs Moduli (GPa) = 59.00554 59.00543 101.06335
#
# Poissons Ratio (x) = 0.57490 0.28654
# Poissons Ratio (y) = 0.57490 0.28656
# Poissons Ratio (z) = 0.16730 0.16731
#
# Static dielectric constant tensor:
#      x y z
#    x 3.693580 0.000000 0.000000 
#    y 0.000000 3.693580 0.000000 
#    z 0.000000 0.000000 3.971390 
# 
# 
# High freq. dielectric constant tensor:
#      x y z
#    x 1.800060 0.000000 0.000000 
#    y 0.000000 1.800060 0.000000 
#    z 0.000000 0.000000 1.794050 
# 
# From -- ./inp_files/6270.got.cif
#   From: 2010.03.12/outbox.cif.g09.slc.cpg/sg93_4_cif.got.tgz:6270.got - 2010.04.08 20:44:19.
