data_PCOD8305770
_publ_section_title
;
Structure prediction by ZEFSAII (Michael W. Deem and Ramdas Pophale) SiO2 
 PCOD8305770
Probable space group: P 42 21 2
;
_chemical_formula_sum "Si O2"
_cell_formula_units_Z 32
_cell_length_a 8.259193
_cell_length_b 8.259193
_cell_length_c 21.930075
_cell_angle_alpha 90.000000
_cell_angle_beta 90.000000
_cell_angle_gamma 90.000000
_cell_volume 1495.944035
_symmetry_space_group_name_H-M "P 42 21 2"
_symmetry_group_IT_number 94
_symmetry_cell_setting 'tetragonal'
loop_
_space_group_symop_operation_xyz
x,y,z
1/2-y,1/2+x,1/2+z
-x,-y,z
1/2+y,1/2-x,1/2+z
1/2+x,1/2-y,1/2-z
1/2-x,1/2+y,1/2-z
y,x,-z
-y,-x,-z
loop_
_atom_site_type_symbol
_atom_site_label
_atom_site_fract_x
_atom_site_fract_y
_atom_site_fract_z
Si Si1 0.123972 0.268255 0.682782
Si Si2 0.877813 0.734048 0.201957
Si Si3 0.754577 0.368901 0.936654
Si Si4 0.348046 0.082217 0.111827
O O1 0.225671 0.433833 0.686399
O O2 0.197224 0.139522 0.730081
O O3 0.135394 0.196581 0.615423
O O4 0.937930 0.292667 0.698022
O O5 0.793718 0.855596 0.154356
O O6 0.777234 0.565505 0.929363
O O7 0.933552 0.283732 0.930994
O O8 0.670980 0.329021 0.000000
O O9 0.500000 0.000000 0.150997
#
# Coordination Sequence:
#
# PCOD8305770 Si02
#       4
#     8   8   8   8
#     4  11  24  37  62  90 126 160 204 256 305 370
#     4  11  23  40  61  95 122 159 207 255 316 358
#     4   9  20  41  62  88 123 159 203 250 304 369
#     4   8  21  39  63  81 124 152 203 250 307 355
#
# _framework density 21.391172999999998
#
# number of rings (size 3 to 8) (size 9 to 14) (size 15 to 20)
#    1.500    0.500    0.000    3.000    3.500   11.000 
#    0.000    7.500    0.000    0.000    0.000    0.000 
#    0.000    0.000    0.000    0.000    0.000    0.000 
#
# Total GULP energy -396454.387554 kJ/mol
# GULP energy per Si atom -12389.199611 kJ/mol
# Density = 2.134249 g / cm^3
# Si number density = 21.391173 Si / 1000 Ang^3
#
#
#
# Elastic Constant Matrix: (Units=GPa)
#
#
# Indices 1 2 3 4 5 6 
#
# 1 13.5900 -8.3758 1.0292 0.0000 0.0000 0.0000
# 2 -8.3758 13.5896 1.0289 0.0000 0.0000 0.0000
# 3 1.0292 1.0289 126.0914 0.0000 0.0000 0.0000
# 4 0.0000 0.0000 0.0000 19.1420 0.0000 0.0000
# 5 0.0000 0.0000 0.0000 0.0000 19.1425 0.0000
# 6 0.0000 0.0000 0.0000 0.0000 0.0000 32.4014
#
#
#
# Elastic Compliance Matrix: (Units=1/GPa)
#
#
# Indices 1 2 3 4 5 6 
#
# 1 0.118967 0.073443 -0.001570 0.000000 0.000000 0.000000
# 2 0.073443 0.118970 -0.001570 0.000000 0.000000 0.000000
# 3 -0.001570 -0.001570 0.007956 0.000000 0.000000 0.000000
# 4 0.000000 0.000000 0.000000 0.052241 0.000000 0.000000
# 5 0.000000 0.000000 0.000000 0.000000 0.052240 0.000000
# 6 0.000000 0.000000 0.000000 0.000000 0.000000 0.030863
#
#
# Mechanical properties :
#
#
# Convention : Reuss Voigt Hill
#
# Bulk Modulus (GPa) = 2.58734 15.62617 9.10675
# Shear Modulus (GPa) = 13.53305 24.77642 19.15474
#
# Velocity S-wave (km/s) = 2.51798 3.40701 2.99565
# Velocity P-wave (km/s) = 3.10898 4.77470 4.02886
#
# Compressibility (1/GPa) = 0.38649799
#
# Stress axis : x y z
#
# Youngs Moduli (GPa) = 8.40570 8.40545 125.68519
#
# Poissons Ratio (x) = -0.61732 0.19737
# Poissons Ratio (y) = -0.61734 0.19736
# Poissons Ratio (z) = 0.01320 0.01320
#
# Static dielectric constant tensor:
#      x y z
#    x 3.869380 0.000000 0.000000 
#    y 0.000000 3.869380 0.000000 
#    z 0.000000 0.000000 3.505540 
# 
# 
# High freq. dielectric constant tensor:
#      x y z
#    x 1.840600 0.000000 0.000000 
#    y 0.000000 1.840600 0.000000 
#    z 0.000000 0.000000 1.813920 
# 
# From -- ./inp_files/4399.got.cif
#   From: 2010.03.12/outbox.cif.g09.slc.cpg/sg94_3_cif.got.tgz:4399.got - 2010.04.08 20:48:32.
