data_PCOD8305619
_publ_section_title
;
Structure prediction by ZEFSAII (Michael W. Deem and Ramdas Pophale) SiO2 
 PCOD8305619
Probable space group: P 42 21 2
;
_chemical_formula_sum "Si O2"
_cell_formula_units_Z 44
_cell_length_a 11.534010
_cell_length_b 11.534010
_cell_length_c 20.026067
_cell_angle_alpha 90.000000
_cell_angle_beta 90.000000
_cell_angle_gamma 90.000000
_cell_volume 2664.135515
_symmetry_space_group_name_H-M "P 42 21 2"
_symmetry_group_IT_number 94
_symmetry_cell_setting 'tetragonal'
loop_
_space_group_symop_operation_xyz
x,y,z
1/2-y,1/2+x,1/2+z
-x,-y,z
1/2+y,1/2-x,1/2+z
1/2+x,1/2-y,1/2-z
1/2-x,1/2+y,1/2-z
y,x,-z
-y,-x,-z
loop_
_atom_site_type_symbol
_atom_site_label
_atom_site_fract_x
_atom_site_fract_y
_atom_site_fract_z
Si Si1 0.500000 0.500000 0.653755
Si Si2 0.380012 0.891695 0.202599
Si Si3 0.177691 0.164374 0.921546
Si Si4 0.124324 0.648313 0.331810
Si Si5 0.793738 0.142899 0.795986
Si Si6 0.028878 0.370604 0.148320
O O1 0.572839 0.411114 0.608362
O O2 0.412537 0.430573 0.701643
O O3 0.486180 0.859560 0.152550
O O4 0.273622 0.813370 0.179391
O O5 0.415692 0.866021 0.278434
O O6 0.341584 0.025400 0.200899
O O7 0.170211 0.297730 0.896838
O O8 0.304096 0.113179 0.902764
O O9 0.164295 0.164295 0.000000
O O10 0.147448 0.751759 0.280200
O O11 0.698924 0.092053 0.846937
O O12 0.000000 0.500000 0.122780
#
# Coordination Sequence:
#
# PCOD8305619 Si02
#       6
#     4   8   8   8   8   8
#     4  10  21  34  54  78 103 136 178 220 272 298
#     4  10  17  31  53  79 109 125 170 225 268 310
#     4  11  22  36  51  72 108 143 179 211 251 321
#     4  10  19  31  51  78 108 134 165 216 267 304
#     4  10  18  31  55  82 106 131 172 225 274 304
#     4  10  19  34  52  78 104 138 170 221 268 311
#
# _framework density 16.515675999999999
#
# number of rings (size 3 to 8) (size 9 to 14) (size 15 to 20)
#    0.000    1.818    7.273    0.273    0.000    0.000 
#    3.273    0.000    0.000    0.000    0.000    4.455 
#    0.000    0.000    0.000    0.000    0.000    0.000 
#
# Total GULP energy -545393.682454 kJ/mol
# GULP energy per Si atom -12395.310965 kJ/mol
# Density = 1.647809 g / cm^3
# Si number density = 16.515676 Si / 1000 Ang^3
#
#
#
# Elastic Constant Matrix: (Units=GPa)
#
#
# Indices 1 2 3 4 5 6 
#
# 1 120.9886 62.2538 35.7821 0.0000 0.0000 0.0000
# 2 62.2538 120.9886 35.7821 0.0000 0.0000 0.0000
# 3 35.7821 35.7821 67.3677 0.0000 0.0000 0.0000
# 4 0.0000 0.0000 0.0000 15.2487 0.0000 0.0000
# 5 0.0000 0.0000 0.0000 0.0000 15.2487 0.0000
# 6 0.0000 0.0000 0.0000 0.0000 0.0000 25.3119
#
#
#
# Elastic Compliance Matrix: (Units=1/GPa)
#
#
# Indices 1 2 3 4 5 6 
#
# 1 0.011956 -0.005070 -0.003657 0.000000 0.000000 0.000000
# 2 -0.005070 0.011956 -0.003657 0.000000 0.000000 0.000000
# 3 -0.003657 -0.003657 0.018729 0.000000 0.000000 0.000000
# 4 0.000000 0.000000 0.000000 0.065579 0.000000 0.000000
# 5 0.000000 0.000000 0.000000 0.000000 0.065579 0.000000
# 6 0.000000 0.000000 0.000000 0.000000 0.000000 0.039507
#
#
# Mechanical properties :
#
#
# Convention : Reuss Voigt Hill
#
# Bulk Modulus (GPa) = 55.95616 64.10897 60.03257
# Shear Modulus (GPa) = 20.48913 22.86368 21.67640
#
# Velocity S-wave (km/s) = 3.52602 3.72474 3.62674
# Velocity P-wave (km/s) = 7.10853 7.57625 7.34611
#
# Compressibility (1/GPa) = 0.01787113
#
# Stress axis : x y z
#
# Youngs Moduli (GPa) = 83.64268 83.64268 53.39328
#
# Poissons Ratio (x) = 0.42407 0.19527
# Poissons Ratio (y) = 0.42407 0.19527
# Poissons Ratio (z) = 0.30590 0.30590
#
# Static dielectric constant tensor:
#      x y z
#    x 3.394640 0.000000 0.000000 
#    y 0.000000 3.394640 0.000000 
#    z 0.000000 0.000000 2.673570 
# 
# 
# High freq. dielectric constant tensor:
#      x y z
#    x 1.649200 0.000000 0.000000 
#    y 0.000000 1.649200 0.000000 
#    z 0.000000 0.000000 1.585690 
# 
# From -- ./inp_files/4026.got.cif
#   From: 2010.03.12/outbox.cif.g09.slc.cpg/sg94_3_cif.got.tgz:4026.got - 2010.04.08 20:48:32.
