data_PCOD8305029
_publ_section_title
;
Structure prediction by ZEFSAII (Michael W. Deem and Ramdas Pophale) SiO2 
 PCOD8305029
Probable space group: P 41 2 2
;
_chemical_formula_sum "Si O2"
_cell_formula_units_Z 56
_cell_length_a 11.007735
_cell_length_b 11.007735
_cell_length_c 21.473668
_cell_angle_alpha 90.000000
_cell_angle_beta 90.000000
_cell_angle_gamma 90.000000
_cell_volume 2601.969287
_symmetry_space_group_name_H-M "P 41 2 2"
_symmetry_group_IT_number 91
_symmetry_cell_setting 'tetragonal'
loop_
_space_group_symop_operation_xyz
x,y,z
-y,x,1/4+z
-x,-y,1/2+z
y,-x,3/4+z
x,-y,1/2-z
-x,y,-z
y,x,3/4-z
-y,-x,1/4-z
loop_
_atom_site_type_symbol
_atom_site_label
_atom_site_fract_x
_atom_site_fract_y
_atom_site_fract_z
Si Si1 0.627755 0.748806 0.320159
Si Si2 0.969441 0.910274 0.806955
Si Si3 0.772483 0.792751 0.549708
Si Si4 0.382551 0.018121 0.679733
Si Si5 0.787135 0.540425 0.870470
Si Si6 0.751325 0.744546 0.785886
Si Si7 0.308614 0.643901 0.910953
O O1 0.660098 0.660098 0.375000
O O2 0.717842 0.730457 0.261555
O O3 0.487948 0.711207 0.307554
O O4 0.641810 0.884863 0.347168
O O5 0.977213 0.977213 0.875000
O O6 0.832820 0.860008 0.802830
O O7 0.063697 0.798454 0.795341
O O8 0.994992 0.000000 0.750000
O O9 0.903081 0.740072 0.571047
O O10 0.665363 0.774085 0.599988
O O11 0.478496 0.085476 0.636553
O O12 0.433945 0.000000 0.750000
O O13 0.813799 0.620195 0.809448
O O14 0.750623 0.622092 0.929457
O O15 0.675985 0.447157 0.857556
O O16 0.739616 0.737591 0.712059
#
# Coordination Sequence:
#
# PCOD8305029 Si02
#       7
#     8   8   8   8   8   8   8
#     4  11  25  42  68 100 132 185 234 287 353 419
#     4  12  25  43  71 105 143 182 229 291 354 432
#     4  10  24  44  65 103 136 177 237 278 349 425
#     4   9  19  40  66  89 127 177 215 270 340 410
#     4  10  22  40  63  97 133 166 237 279 338 418
#     4  11  23  41  64 100 133 174 227 284 348 412
#     4  11  23  42  68  92 131 189 223 289 348 408
#
# _framework density 21.522158999999998
#
# number of rings (size 3 to 8) (size 9 to 14) (size 15 to 20)
#    0.000    1.429    1.429    5.143    4.000    6.857 
#    2.571    0.000    0.000    0.000    0.000    0.000 
#    0.000    0.000    0.000    0.000    0.000    0.000 
#
# Total GULP energy -694101.092373 kJ/mol
# GULP energy per Si atom -12394.662364 kJ/mol
# Density = 2.147317 g / cm^3
# Si number density = 21.522159 Si / 1000 Ang^3
#
#
#
# Elastic Constant Matrix: (Units=GPa)
#
#
# Indices 1 2 3 4 5 6 
#
# 1 72.3334 5.4652 39.2065 0.0000 0.0000 0.0000
# 2 5.4652 72.3334 39.2065 0.0000 0.0000 0.0000
# 3 39.2065 39.2065 129.2881 0.0000 0.0000 0.0000
# 4 0.0000 0.0000 0.0000 35.6938 0.0000 0.0000
# 5 0.0000 0.0000 0.0000 0.0000 35.6938 0.0000
# 6 0.0000 0.0000 0.0000 0.0000 0.0000 30.5083
#
#
#
# Elastic Compliance Matrix: (Units=1/GPa)
#
#
# Indices 1 2 3 4 5 6 
#
# 1 0.016733 0.001778 -0.005614 0.000000 0.000000 0.000000
# 2 0.001778 0.016733 -0.005614 0.000000 0.000000 0.000000
# 3 -0.005614 -0.005614 0.011139 0.000000 0.000000 0.000000
# 4 0.000000 0.000000 0.000000 0.028016 0.000000 0.000000
# 5 0.000000 0.000000 0.000000 0.000000 0.028016 0.000000
# 6 0.000000 0.000000 0.000000 0.000000 0.000000 0.032778
#
#
# Mechanical properties :
#
#
# Convention : Reuss Voigt Hill
#
# Bulk Modulus (GPa) = 38.89824 49.07904 43.98864
# Shear Modulus (GPa) = 31.07848 33.05096 32.06472
#
# Velocity S-wave (km/s) = 3.80415 3.92302 3.86404
# Velocity P-wave (km/s) = 6.11623 6.58586 6.35538
#
# Compressibility (1/GPa) = 0.02570810
#
# Stress axis : x y z
#
# Youngs Moduli (GPa) = 59.76128 59.76128 89.77188
#
# Poissons Ratio (x) = -0.10628 0.50395
# Poissons Ratio (y) = -0.10628 0.50395
# Poissons Ratio (z) = 0.33548 0.33548
#
# Static dielectric constant tensor:
#      x y z
#    x 3.943520 0.000000 0.000000 
#    y 0.000000 3.943520 0.000000 
#    z 0.000000 0.000000 3.964720 
# 
# 
# High freq. dielectric constant tensor:
#      x y z
#    x 1.840070 0.000000 0.000000 
#    y 0.000000 1.840070 0.000000 
#    z 0.000000 0.000000 1.849680 
# 
# From -- ./inp_files/6423.got.cif
#   From: 2010.03.12/outbox.cif.g09.slc.cpg/sg91_4_cif.got.tgz:6423.got - 2010.04.08 20:27:58.
