data_PCOD8305495
_publ_section_title
;
Structure prediction by ZEFSAII (Michael W. Deem and Ramdas Pophale) SiO2 
 PCOD8305495
Probable space group: P 41 21 2
;
_chemical_formula_sum "Si O2"
_cell_formula_units_Z 36
_cell_length_a 7.756015
_cell_length_b 7.756015
_cell_length_c 23.078581
_cell_angle_alpha 90.000000
_cell_angle_beta 90.000000
_cell_angle_gamma 90.000000
_cell_volume 1388.309780
_symmetry_space_group_name_H-M "P 41 21 2"
_symmetry_group_IT_number 92
_symmetry_cell_setting 'tetragonal'
loop_
_space_group_symop_operation_xyz
x,y,z
1/2-y,1/2+x,1/4+z
-x,-y,1/2+z
1/2+y,1/2-x,3/4+z
1/2+x,1/2-y,3/4-z
1/2-x,1/2+y,1/4-z
y,x,-z
-y,-x,1/2-z
loop_
_atom_site_type_symbol
_atom_site_label
_atom_site_fract_x
_atom_site_fract_y
_atom_site_fract_z
Si Si1 0.612239 0.644230 0.125141
Si Si2 0.965747 0.034254 0.250000
Si Si3 0.340048 0.140372 0.280903
Si Si4 0.524664 0.909994 0.358324
Si Si5 0.829474 0.059269 0.924577
O O1 0.626552 0.617092 0.055954
O O2 0.788608 0.711821 0.154791
O O3 0.477688 0.797772 0.136818
O O4 0.594493 0.458118 0.157624
O O5 0.936678 0.828041 0.251335
O O6 0.419417 0.297590 0.243225
O O7 0.482250 0.991885 0.294508
O O8 0.363813 0.946066 0.399953
O O9 0.552397 0.709041 0.352141
#
# Coordination Sequence:
#
# PCOD8305495 Si02
#       5
#     8   4   8   8   8
#     4  12  27  53  80 119 160 217 278 337 424 498
#     4  12  24  54  76 110 176 218 268 354 416 496
#     4  12  28  48  79 119 163 220 276 352 420 510
#     4  12  26  47  80 114 158 219 272 336 421 506
#     4  12  26  51  77 118 163 210 277 347 414 496
#
# _framework density 25.930812
#
# number of rings (size 3 to 8) (size 9 to 14) (size 15 to 20)
#    0.000    0.000    6.667    2.000    3.111    1.778 
#    0.000    0.000    0.000    0.000    0.000    0.000 
#    0.000    0.000    0.000    0.000    0.000    0.000 
#
# Total GULP energy -446064.611922 kJ/mol
# GULP energy per Si atom -12390.683665 kJ/mol
# Density = 2.587179 g / cm^3
# Si number density = 25.930812 Si / 1000 Ang^3
#
#
#
# Elastic Constant Matrix: (Units=GPa)
#
#
# Indices 1 2 3 4 5 6 
#
# 1 92.7328 -8.3684 34.2799 0.0000 0.0000 0.0000
# 2 -8.3684 92.7320 34.2798 0.0000 0.0000 0.0000
# 3 34.2799 34.2798 141.9973 0.0000 0.0000 0.0000
# 4 0.0000 0.0000 0.0000 39.7567 0.0000 0.0000
# 5 0.0000 0.0000 0.0000 0.0000 39.7567 0.0000
# 6 0.0000 0.0000 0.0000 0.0000 0.0000 -4.6131
#
#
#
# Elastic Compliance Matrix: (Units=1/GPa)
#
#
# Indices 1 2 3 4 5 6 
#
# 1 0.012319 0.002428 -0.003560 0.000000 0.000000 0.000000
# 2 0.002428 0.012319 -0.003560 0.000000 0.000000 0.000000
# 3 -0.003560 -0.003560 0.008761 0.000000 0.000000 0.000000
# 4 0.000000 0.000000 0.000000 0.025153 0.000000 0.000000
# 5 0.000000 0.000000 0.000000 0.000000 0.025153 0.000000
# 6 0.000000 0.000000 0.000000 0.000000 0.000000 -0.216775
#
#
# Mechanical properties :
#
#
# Convention : Reuss Voigt Hill
#
# Bulk Modulus (GPa) = 41.64193 49.76053 45.70123
# Shear Modulus (GPa) = -43.22248 32.79813 -5.21218
#
# Velocity S-wave (km/s) = -4.08712 3.56031 -1.41929
# Velocity P-wave (km/s) = 2.48577 6.01103 3.86997
#
# Compressibility (1/GPa) = 0.02401425
#
# Stress axis : x y z
#
# Youngs Moduli (GPa) = 81.17720 81.17650 114.13932
#
# Poissons Ratio (x) = -0.19707 0.40633
# Poissons Ratio (y) = -0.19707 0.40633
# Poissons Ratio (z) = 0.28899 0.28899
#
# Static dielectric constant tensor:
#      x y z
#    x 4.794380 0.000000 0.000000 
#    y 0.000000 4.794390 0.000000 
#    z 0.000000 0.000000 4.741390 
# 
# 
# High freq. dielectric constant tensor:
#      x y z
#    x 2.047380 0.000000 0.000000 
#    y 0.000000 2.047380 0.000000 
#    z 0.000000 0.000000 2.037110 
# 
# From -- ./inp_files/3456.got.cif
#   From: 2010.03.12/outbox.cif.g09.slc.cpg/sg92_2_cif.got.tgz:3456.got - 2010.04.08 20:41:11.
