data_PCOD8305078
_publ_section_title
;
Structure prediction by ZEFSAII (Michael W. Deem and Ramdas Pophale) SiO2 
 PCOD8305078
Probable space group: P 41 2 2
;
_chemical_formula_sum "Si O2"
_cell_formula_units_Z 36
_cell_length_a 11.864439
_cell_length_b 11.864439
_cell_length_c 11.950545
_cell_angle_alpha 90.000000
_cell_angle_beta 90.000000
_cell_angle_gamma 90.000000
_cell_volume 1682.217425
_symmetry_space_group_name_H-M "P 41 2 2"
_symmetry_group_IT_number 91
_symmetry_cell_setting 'tetragonal'
loop_
_space_group_symop_operation_xyz
x,y,z
-y,x,1/4+z
-x,-y,1/2+z
y,-x,3/4+z
x,-y,1/2-z
-x,y,-z
y,x,3/4-z
-y,-x,1/4-z
loop_
_atom_site_type_symbol
_atom_site_label
_atom_site_fract_x
_atom_site_fract_y
_atom_site_fract_z
Si Si1 0.500000 0.919450 0.500000
Si Si2 0.174079 0.213768 0.531839
Si Si3 0.403474 0.671216 0.907810
Si Si4 0.275914 0.978620 0.079369
Si Si5 0.721305 0.551178 0.413394
O O1 0.468463 0.842968 0.607277
O O2 0.600129 0.004759 0.529796
O O3 0.296578 0.267059 0.540184
O O4 0.104752 0.280010 0.436160
O O5 0.191761 0.080860 0.508815
O O6 0.101940 0.224720 0.644860
O O7 0.450077 0.735141 0.797956
O O8 0.364360 0.546124 0.872483
O O9 0.500000 0.665399 0.000000
O O10 0.671608 0.671608 0.375000
#
# Coordination Sequence:
#
# PCOD8305078 Si02
#       5
#     4   8   8   8   8
#     4  12  24  44  72 106 146 198 238 314 380 430
#     4  10  23  44  71  99 138 184 248 313 366 427
#     4  12  25  37  68 109 144 196 240 289 369 460
#     4  10  23  44  72  97 140 188 241 312 368 431
#     4  12  22  42  64  98 156 195 236 292 362 446
#
# _framework density 21.400324000000001
#
# number of rings (size 3 to 8) (size 9 to 14) (size 15 to 20)
#    0.000    0.889    4.444    2.000    7.778    0.000 
#    0.000    0.000   48.889    0.000    0.000    0.000 
#    0.000    0.000    0.000    0.000    0.000    0.000 
#
# Total GULP energy -446433.872167 kJ/mol
# GULP energy per Si atom -12400.940894 kJ/mol
# Density = 2.135162 g / cm^3
# Si number density = 21.400324 Si / 1000 Ang^3
#
#
#
# Elastic Constant Matrix: (Units=GPa)
#
#
# Indices 1 2 3 4 5 6 
#
# 1 116.6312 64.2646 38.7036 0.0000 0.0000 0.0000
# 2 64.2646 116.6312 38.7036 0.0000 0.0000 0.0000
# 3 38.7036 38.7036 83.4450 0.0000 0.0000 0.0000
# 4 0.0000 0.0000 0.0000 34.7972 0.0000 0.0000
# 5 0.0000 0.0000 0.0000 0.0000 34.7972 0.0000
# 6 0.0000 0.0000 0.0000 0.0000 0.0000 40.9130
#
#
#
# Elastic Compliance Matrix: (Units=1/GPa)
#
#
# Indices 1 2 3 4 5 6 
#
# 1 0.012997 -0.006100 -0.003199 0.000000 0.000000 0.000000
# 2 -0.006100 0.012997 -0.003199 0.000000 0.000000 0.000000
# 3 -0.003199 -0.003199 0.014951 0.000000 0.000000 0.000000
# 4 0.000000 0.000000 0.000000 0.028738 0.000000 0.000000
# 5 0.000000 0.000000 0.000000 0.000000 0.028738 0.000000
# 6 0.000000 0.000000 0.000000 0.000000 0.000000 0.024442
#
#
# Mechanical properties :
#
#
# Convention : Reuss Voigt Hill
#
# Bulk Modulus (GPa) = 62.69793 66.67231 64.68512
# Shear Modulus (GPa) = 32.64265 33.77054 33.20660
#
# Velocity S-wave (km/s) = 3.90979 3.97676 3.94342
# Velocity P-wave (km/s) = 7.05289 7.23247 7.14324
#
# Compressibility (1/GPa) = 0.01594949
#
# Stress axis : x y z
#
# Youngs Moduli (GPa) = 76.94368 76.94368 66.88331
#
# Poissons Ratio (x) = 0.46933 0.21396
# Poissons Ratio (y) = 0.46933 0.21396
# Poissons Ratio (z) = 0.24614 0.24614
#
# Static dielectric constant tensor:
#      x y z
#    x 3.985090 0.000000 0.000000 
#    y 0.000000 3.985090 0.000000 
#    z 0.000000 0.000000 3.985750 
# 
# 
# High freq. dielectric constant tensor:
#      x y z
#    x 1.838300 0.000000 0.000000 
#    y 0.000000 1.838300 0.000000 
#    z 0.000000 0.000000 1.837520 
# 
# From -- ./inp_files/10524.got.cif
#   From: 2010.03.12/outbox.cif.g09.slc.cpg/sg91_6_cif.got.tgz:10524.got - 2010.04.08 20:27:58.
