data_PCOD8305968
_publ_section_title
;
Structure prediction by ZEFSAII (Michael W. Deem and Ramdas Pophale) SiO2 
 PCOD8305968
Probable space group: P 43 21 2
;
_chemical_formula_sum "Si O2"
_cell_formula_units_Z 24
_cell_length_a 7.291012
_cell_length_b 7.291012
_cell_length_c 20.043276
_cell_angle_alpha 90.000000
_cell_angle_beta 90.000000
_cell_angle_gamma 90.000000
_cell_volume 1065.477622
_symmetry_space_group_name_H-M "P 43 21 2"
_symmetry_group_IT_number 96
_symmetry_cell_setting 'tetragonal'
loop_
_space_group_symop_operation_xyz
x,y,z
1/2-y,1/2+x,3/4+z
-x,-y,1/2+z
1/2+y,1/2-x,1/4+z
1/2+x,1/2-y,1/4-z
1/2-x,1/2+y,3/4-z
y,x,-z
-y,-x,1/2-z
loop_
_atom_site_type_symbol
_atom_site_label
_atom_site_fract_x
_atom_site_fract_y
_atom_site_fract_z
Si Si1 0.642001 0.992312 0.817872
Si Si2 0.019371 0.630774 0.573418
Si Si3 0.336485 0.500297 0.124627
O O1 0.620419 0.904633 0.745681
O O2 0.502102 0.892476 0.869734
O O3 0.852107 0.967669 0.840176
O O4 0.596714 0.210508 0.817887
O O5 0.801342 0.586487 0.568823
O O6 0.040469 0.843403 0.592452
#
# Coordination Sequence:
#
# PCOD8305968 Si02
#       3
#     8   8   8
#     4  10  24  46  66 103 134 182 224 285 337 408
#     4  10  24  46  66 103 134 182 224 285 337 408
#     4  10  24  42  70  96 132 176 228 272 342 402
#
# _framework density 22.525107999999999
#
# number of rings (size 3 to 8) (size 9 to 14) (size 15 to 20)
#    2.000    0.000    0.000    2.000    4.667    2.667 
#    0.000    0.000    0.000    0.000    0.000    0.000 
#    0.000    0.000    0.000    0.000    0.000    0.000 
#
# Total GULP energy -297402.955268 kJ/mol
# GULP energy per Si atom -12391.789803 kJ/mol
# Density = 2.247384 g / cm^3
# Si number density = 22.525108 Si / 1000 Ang^3
#
#
#
# Elastic Constant Matrix: (Units=GPa)
#
#
# Indices 1 2 3 4 5 6 
#
# 1 71.4555 35.8712 -3.7269 0.0000 0.0000 0.0000
# 2 35.8712 71.4555 -3.7269 0.0000 0.0000 0.0000
# 3 -3.7269 -3.7269 88.3620 0.0000 0.0000 0.0000
# 4 0.0000 0.0000 0.0000 15.4994 0.0000 0.0000
# 5 0.0000 0.0000 0.0000 0.0000 15.4994 0.0000
# 6 0.0000 0.0000 0.0000 0.0000 0.0000 43.9551
#
#
#
# Elastic Compliance Matrix: (Units=1/GPa)
#
#
# Indices 1 2 3 4 5 6 
#
# 1 0.018723 -0.009379 0.000394 0.000000 0.000000 0.000000
# 2 -0.009379 0.018723 0.000394 0.000000 0.000000 0.000000
# 3 0.000394 0.000394 0.011350 0.000000 0.000000 0.000000
# 4 0.000000 0.000000 0.000000 0.064519 0.000000 0.000000
# 5 0.000000 0.000000 0.000000 0.000000 0.064519 0.000000
# 6 0.000000 0.000000 0.000000 0.000000 0.000000 0.022751
#
#
# Mechanical properties :
#
#
# Convention : Reuss Voigt Hill
#
# Bulk Modulus (GPa) = 31.62924 32.01198 31.82061
# Shear Modulus (GPa) = 21.90054 28.51447 25.20750
#
# Velocity S-wave (km/s) = 3.12151 3.56180 3.34890
# Velocity P-wave (km/s) = 5.20231 5.58192 5.39545
#
# Compressibility (1/GPa) = 0.03161632
#
# Stress axis : x y z
#
# Youngs Moduli (GPa) = 53.40884 53.40884 88.10316
#
# Poissons Ratio (x) = 0.50091 -0.03472
# Poissons Ratio (y) = 0.50091 -0.03472
# Poissons Ratio (z) = -0.02105 -0.02105
#
# Static dielectric constant tensor:
#      x y z
#    x 3.865200 0.000000 0.000000 
#    y 0.000000 3.865200 0.000000 
#    z 0.000000 0.000000 3.836070 
# 
# 
# High freq. dielectric constant tensor:
#      x y z
#    x 1.887010 0.000000 0.000000 
#    y 0.000000 1.887010 0.000000 
#    z 0.000000 0.000000 1.865130 
# 
# From -- ./inp_files/2441.got.cif
#   From: 2010.03.12/outbox.cif.g09.slc.cpg/sg96_2_cif.got.tgz:2441.got - 2010.04.08 20:56:49.
