data_PCOD8305537
_publ_section_title
;
Structure prediction by ZEFSAII (Michael W. Deem and Ramdas Pophale) SiO2 
 PCOD8305537
Probable space group: P 42 2 2
;
_chemical_formula_sum "Si O2"
_cell_formula_units_Z 48
_cell_length_a 13.988424
_cell_length_b 13.988424
_cell_length_c 12.161419
_cell_angle_alpha 90.000000
_cell_angle_beta 90.000000
_cell_angle_gamma 90.000000
_cell_volume 2379.697897
_symmetry_space_group_name_H-M "P 42 2 2"
_symmetry_group_IT_number 93
_symmetry_cell_setting 'tetragonal'
loop_
_space_group_symop_operation_xyz
x,y,z
-y,x,1/2+z
-x,-y,z
y,-x,1/2+z
x,-y,-z
-x,y,-z
y,x,1/2-z
-y,-x,1/2-z
loop_
_atom_site_type_symbol
_atom_site_label
_atom_site_fract_x
_atom_site_fract_y
_atom_site_fract_z
Si Si1 0.404273 0.104103 0.947467
Si Si2 0.472857 0.895229 0.290873
Si Si3 0.889293 0.325437 0.030543
Si Si4 0.863339 0.195075 0.443162
Si Si5 0.170385 0.947007 0.825440
Si Si6 0.675102 0.819676 0.290062
O O1 0.410340 0.093551 0.817293
O O2 0.306947 0.162569 0.968822
O O3 0.500000 0.152435 0.000000
O O4 0.389815 0.000000 0.000000
O O5 0.411822 0.852541 0.392059
O O6 0.563738 0.829660 0.259126
O O7 0.500000 0.000000 0.333608
O O8 0.865288 0.228136 0.096621
O O9 0.825333 0.320716 0.921539
O O10 0.000000 0.333932 0.000000
O O11 0.898675 0.150004 0.557293
O O12 0.940491 0.185184 0.345069
O O13 0.077840 0.922161 0.750000
O O14 0.264982 0.905035 0.766358
O O15 0.717661 0.717661 0.250000
#
# Coordination Sequence:
#
# PCOD8305537 Si02
#       6
#     8   8   8   8   8   8
#     4  11  21  36  66  94 119 166 216 274 333 383
#     4  12  23  39  64  97 132 165 220 286 338 393
#     4  12  26  40  62  97 135 174 219 277 336 392
#     4  11  22  39  62  92 129 163 224 269 316 391
#     4  10  19  38  66  85 122 177 221 260 312 388
#     4  11  22  42  68  92 130 179 218 270 342 411
#
# _framework density 20.170627
#
# number of rings (size 3 to 8) (size 9 to 14) (size 15 to 20)
#    0.000    0.833    8.333    2.500    0.000    0.667 
#    0.000    2.500    0.000    0.000    0.000    2.333 
#    0.000    0.000    0.000    0.000    0.000    0.000 
#
# Total GULP energy -594985.351916 kJ/mol
# GULP energy per Si atom -12395.528165 kJ/mol
# Density = 2.012472 g / cm^3
# Si number density = 20.170627 Si / 1000 Ang^3
#
#
#
# Elastic Constant Matrix: (Units=GPa)
#
#
# Indices 1 2 3 4 5 6 
#
# 1 79.6386 42.4128 40.9003 0.0000 0.0000 0.0000
# 2 42.4128 79.6373 40.9002 0.0000 0.0000 0.0000
# 3 40.9003 40.9002 124.0459 0.0000 0.0000 0.0000
# 4 0.0000 0.0000 0.0000 32.2014 0.0000 0.0000
# 5 0.0000 0.0000 0.0000 0.0000 32.2017 0.0000
# 6 0.0000 0.0000 0.0000 0.0000 0.0000 17.5229
#
#
#
# Elastic Compliance Matrix: (Units=1/GPa)
#
#
# Indices 1 2 3 4 5 6 
#
# 1 0.018690 -0.008173 -0.003468 0.000000 0.000000 0.000000
# 2 -0.008173 0.018691 -0.003468 0.000000 0.000000 0.000000
# 3 -0.003468 -0.003468 0.010348 0.000000 0.000000 0.000000
# 4 0.000000 0.000000 0.000000 0.031055 0.000000 0.000000
# 5 0.000000 0.000000 0.000000 0.000000 0.031054 0.000000
# 6 0.000000 0.000000 0.000000 0.000000 0.000000 0.057068
#
#
# Mechanical properties :
#
#
# Convention : Reuss Voigt Hill
#
# Bulk Modulus (GPa) = 57.10345 59.08315 58.09330
# Shear Modulus (GPa) = 24.63528 26.99244 25.81386
#
# Velocity S-wave (km/s) = 3.49856 3.66212 3.58127
# Velocity P-wave (km/s) = 6.68518 6.87290 6.77969
#
# Compressibility (1/GPa) = 0.01751208
#
# Stress axis : x y z
#
# Youngs Moduli (GPa) = 53.50350 53.50257 96.63381
#
# Poissons Ratio (x) = 0.43728 0.33511
# Poissons Ratio (y) = 0.43729 0.33511
# Poissons Ratio (z) = 0.18554 0.18554
#
# Static dielectric constant tensor:
#      x y z
#    x 3.715940 0.000000 0.000000 
#    y 0.000000 3.715940 0.000000 
#    z 0.000000 0.000000 3.664320 
# 
# 
# High freq. dielectric constant tensor:
#      x y z
#    x 1.758530 0.000000 0.000000 
#    y 0.000000 1.758530 0.000000 
#    z 0.000000 0.000000 1.813900 
# 
# From -- ./inp_files/3406.got.cif
#   From: 2010.03.12/outbox.cif.g09.slc.cpg/sg93_2_cif.got.tgz:3406.got - 2010.04.08 20:44:19.
