data_PCOD8305267
_publ_section_title
;
Structure prediction by ZEFSAII (Michael W. Deem and Ramdas Pophale) SiO2 
 PCOD8305267
Probable space group: P 41 21 2
;
_chemical_formula_sum "Si O2"
_cell_formula_units_Z 48
_cell_length_a 22.130931
_cell_length_b 22.130931
_cell_length_c 5.233080
_cell_angle_alpha 90.000000
_cell_angle_beta 90.000000
_cell_angle_gamma 90.000000
_cell_volume 2563.048016
_symmetry_space_group_name_H-M "P 41 21 2"
_symmetry_group_IT_number 92
_symmetry_cell_setting 'tetragonal'
loop_
_space_group_symop_operation_xyz
x,y,z
1/2-y,1/2+x,1/4+z
-x,-y,1/2+z
1/2+y,1/2-x,3/4+z
1/2+x,1/2-y,3/4-z
1/2-x,1/2+y,1/4-z
y,x,-z
-y,-x,1/2-z
loop_
_atom_site_type_symbol
_atom_site_label
_atom_site_fract_x
_atom_site_fract_y
_atom_site_fract_z
Si Si1 0.291080 0.761322 0.999746
Si Si2 0.043261 0.719602 0.557467
Si Si3 0.523682 0.080820 0.390800
Si Si4 0.861805 0.190014 0.005254
Si Si5 0.148114 0.423901 0.824109
Si Si6 0.589107 0.180624 0.669392
O O1 0.280532 0.719469 0.750000
O O2 0.249954 0.820681 0.982215
O O3 0.276301 0.723700 0.250000
O O4 0.361367 0.777981 0.031349
O O5 0.068540 0.788070 0.534111
O O6 0.076630 0.687762 0.324225
O O7 0.970737 0.720044 0.513704
O O8 0.065903 0.688522 0.820983
O O9 0.476643 0.066388 0.614026
O O10 0.478939 0.099229 0.155160
O O11 0.568861 0.133903 0.453528
O O12 0.851420 0.148581 0.250000
O O13 0.848696 0.151305 0.750000
O O14 0.114262 0.357849 0.833359
#
# Coordination Sequence:
#
# PCOD8305267 Si02
#       6
#     8   8   8   8   8   8
#     4  10  23  37  58  78 104 146 192 234 280 328
#     4  11  23  36  57  84 109 147 190 232 279 323
#     4  11  22  35  51  76 111 155 191 226 268 310
#     4  10  20  37  57  78 106 142 189 231 274 331
#     4  11  22  36  53  78 113 149 192 230 267 314
#     4  11  22  37  58  80 113 147 192 239 274 334
#
# _framework density 18.727702000000001
#
# number of rings (size 3 to 8) (size 9 to 14) (size 15 to 20)
#    0.000    1.333    1.667    5.000    4.667    4.000 
#    0.000    0.000    0.000    0.000    0.000    0.000 
#    0.000    2.667    0.000    0.000    0.000    0.000 
#
# Total GULP energy -594666.674378 kJ/mol
# GULP energy per Si atom -12388.889050 kJ/mol
# Density = 1.868508 g / cm^3
# Si number density = 18.727702 Si / 1000 Ang^3
#
#
#
# Elastic Constant Matrix: (Units=GPa)
#
#
# Indices 1 2 3 4 5 6 
#
# 1 62.6461 46.7228 23.6452 0.0000 0.0000 0.0000
# 2 46.7228 62.6414 23.6444 0.0000 0.0000 0.0000
# 3 23.6452 23.6444 111.9282 0.0000 0.0000 0.0000
# 4 0.0000 0.0000 0.0000 14.1433 0.0000 0.0000
# 5 0.0000 0.0000 0.0000 0.0000 14.1435 0.0000
# 6 0.0000 0.0000 0.0000 0.0000 0.0000 43.5623
#
#
#
# Elastic Compliance Matrix: (Units=1/GPa)
#
#
# Indices 1 2 3 4 5 6 
#
# 1 0.036435 -0.026374 -0.002126 0.000000 0.000000 0.000000
# 2 -0.026374 0.036438 -0.002126 0.000000 0.000000 0.000000
# 3 -0.002126 -0.002126 0.009832 0.000000 0.000000 0.000000
# 4 0.000000 0.000000 0.000000 0.070705 0.000000 0.000000
# 5 0.000000 0.000000 0.000000 0.000000 0.070704 0.000000
# 6 0.000000 0.000000 0.000000 0.000000 0.000000 0.022956
#
#
# Mechanical properties :
#
#
# Convention : Reuss Voigt Hill
#
# Bulk Modulus (GPa) = 46.60943 47.24895 46.92919
# Shear Modulus (GPa) = 15.84926 23.91669 19.88298
#
# Velocity S-wave (km/s) = 2.91228 3.57750 3.26189
# Velocity P-wave (km/s) = 6.02084 6.50760 6.26895
#
# Compressibility (1/GPa) = 0.02145489
#
# Stress axis : x y z
#
# Youngs Moduli (GPa) = 27.44604 27.44392 101.70425
#
# Poissons Ratio (x) = 0.72380 0.21619
# Poissons Ratio (y) = 0.72386 0.21621
# Poissons Ratio (z) = 0.05834 0.05834
#
# Static dielectric constant tensor:
#      x y z
#    x 3.585890 0.000000 0.000000 
#    y 0.000000 3.585880 0.000000 
#    z 0.000000 0.000000 3.585700 
# 
# 
# High freq. dielectric constant tensor:
#      x y z
#    x 1.696990 0.000000 0.000000 
#    y 0.000000 1.696990 0.000000 
#    z 0.000000 0.000000 1.743380 
# 
# From -- ./inp_files/647.got.cif
#   From: 2010.03.12/outbox.cif.g09.slc.cpg/sg92_1_cif.got.tgz:647.got - 2010.04.08 20:41:11.
