data_PCOD8305161
_publ_section_title
;
Structure prediction by ZEFSAII (Michael W. Deem and Ramdas Pophale) SiO2 
 PCOD8305161
Probable space group: P 41 2 2
;
_chemical_formula_sum "Si O2"
_cell_formula_units_Z 40
_cell_length_a 11.480642
_cell_length_b 11.480642
_cell_length_c 13.997165
_cell_angle_alpha 90.000000
_cell_angle_beta 90.000000
_cell_angle_gamma 90.000000
_cell_volume 1844.898303
_symmetry_space_group_name_H-M "P 41 2 2"
_symmetry_group_IT_number 91
_symmetry_cell_setting 'tetragonal'
loop_
_space_group_symop_operation_xyz
x,y,z
-y,x,1/4+z
-x,-y,1/2+z
y,-x,3/4+z
x,-y,1/2-z
-x,y,-z
y,x,3/4-z
-y,-x,1/4-z
loop_
_atom_site_type_symbol
_atom_site_label
_atom_site_fract_x
_atom_site_fract_y
_atom_site_fract_z
Si Si1 0.581076 0.766164 0.175427
Si Si2 0.132988 0.798067 0.518814
Si Si3 0.700921 0.959380 0.596814
Si Si4 0.082171 0.500000 0.250000
Si Si5 0.793680 0.793680 0.875000
Si Si6 0.639727 0.255445 0.791962
O O1 0.663513 0.844063 0.242742
O O2 0.517051 0.842801 0.095408
O O3 0.655325 0.660780 0.128997
O O4 0.481369 0.710902 0.241906
O O5 0.174076 0.825925 0.625000
O O6 0.200547 0.879250 0.446408
O O7 0.000000 0.828112 0.500000
O O8 0.634261 0.880310 0.675439
O O9 0.611321 0.999635 0.515297
O O10 0.766500 0.070564 0.642007
O O11 0.747834 0.725653 0.781187
#
# Coordination Sequence:
#
# PCOD8305161 Si02
#       6
#     8   8   8   4   4   8
#     4  11  24  45  74 101 141 183 241 295 357 426
#     4  11  27  45  69 106 145 188 230 294 367 437
#     4  11  26  40  70 102 143 186 234 288 352 432
#     4  12  22  44  72 102 136 188 240 290 346 434
#     4  12  22  40  66 102 140 172 244 286 344 424
#     4  11  24  44  71 102 135 186 234 296 353 424
#
# _framework density 21.681411000000001
#
# number of rings (size 3 to 8) (size 9 to 14) (size 15 to 20)
#    0.000    0.800    4.000    1.800    9.800    0.000 
#    0.000    0.000   15.400    0.000    0.000    0.000 
#    0.000    0.000    0.000    0.000    0.000    0.000 
#
# Total GULP energy -496168.506938 kJ/mol
# GULP energy per Si atom -12404.212673 kJ/mol
# Density = 2.163206 g / cm^3
# Si number density = 21.681411 Si / 1000 Ang^3
#
#
#
# Elastic Constant Matrix: (Units=GPa)
#
#
# Indices 1 2 3 4 5 6 
#
# 1 122.9515 51.3834 39.3323 0.0000 0.0000 0.0000
# 2 51.3834 122.9516 39.3325 0.0000 0.0000 0.0000
# 3 39.3323 39.3325 100.5981 0.0000 0.0000 0.0000
# 4 0.0000 0.0000 0.0000 31.7252 0.0000 0.0000
# 5 0.0000 0.0000 0.0000 0.0000 31.7239 0.0000
# 6 0.0000 0.0000 0.0000 0.0000 0.0000 28.4094
#
#
#
# Elastic Compliance Matrix: (Units=1/GPa)
#
#
# Indices 1 2 3 4 5 6 
#
# 1 0.010469 -0.003504 -0.002723 0.000000 0.000000 0.000000
# 2 -0.003504 0.010469 -0.002723 0.000000 0.000000 0.000000
# 3 -0.002723 -0.002723 0.012070 0.000000 0.000000 0.000000
# 4 0.000000 0.000000 0.000000 0.031521 0.000000 0.000000
# 5 0.000000 0.000000 0.000000 0.000000 0.031522 0.000000
# 6 0.000000 0.000000 0.000000 0.000000 0.000000 0.035200
#
#
# Mechanical properties :
#
#
# Convention : Reuss Voigt Hill
#
# Bulk Modulus (GPa) = 66.19426 67.39974 66.79700
# Shear Modulus (GPa) = 32.42839 32.80191 32.61515
#
# Velocity S-wave (km/s) = 3.87159 3.89383 3.88273
# Velocity P-wave (km/s) = 7.11213 7.16727 7.13975
#
# Compressibility (1/GPa) = 0.01510705
#
# Stress axis : x y z
#
# Youngs Moduli (GPa) = 95.52226 95.52221 82.85025
#
# Poissons Ratio (x) = 0.33470 0.22561
# Poissons Ratio (y) = 0.33470 0.22561
# Poissons Ratio (z) = 0.26012 0.26012
#
# Static dielectric constant tensor:
#      x y z
#    x 3.906760 0.000000 0.000000 
#    y 0.000000 3.906760 0.000000 
#    z 0.000000 0.000000 3.902600 
# 
# 
# High freq. dielectric constant tensor:
#      x y z
#    x 1.853680 0.000000 0.000000 
#    y 0.000000 1.853680 0.000000 
#    z 0.000000 0.000000 1.858780 
# 
# From -- ./inp_files/16413.got.cif
#   From: 2010.03.12/outbox.cif.g09.slc.cpg/sg91_9_cif.got.tgz:16413.got - 2010.04.08 20:27:58.
