data_PCOD8305438
_publ_section_title
;
Structure prediction by ZEFSAII (Michael W. Deem and Ramdas Pophale) SiO2 
 PCOD8305438
Probable space group: P 41 21 2
;
_chemical_formula_sum "Si O2"
_cell_formula_units_Z 56
_cell_length_a 15.399428
_cell_length_b 15.399428
_cell_length_c 11.173433
_cell_angle_alpha 90.000000
_cell_angle_beta 90.000000
_cell_angle_gamma 90.000000
_cell_volume 2649.694525
_symmetry_space_group_name_H-M "P 41 21 2"
_symmetry_group_IT_number 92
_symmetry_cell_setting 'tetragonal'
loop_
_space_group_symop_operation_xyz
x,y,z
1/2-y,1/2+x,1/4+z
-x,-y,1/2+z
1/2+y,1/2-x,3/4+z
1/2+x,1/2-y,3/4-z
1/2-x,1/2+y,1/4-z
y,x,-z
-y,-x,1/2-z
loop_
_atom_site_type_symbol
_atom_site_label
_atom_site_fract_x
_atom_site_fract_y
_atom_site_fract_z
Si Si1 0.953700 0.542494 0.778130
Si Si2 0.308523 0.265967 0.364481
Si Si3 0.850499 0.013144 0.718759
Si Si4 0.214029 0.101234 0.422821
Si Si5 0.935913 0.250344 0.002490
Si Si6 0.494979 0.774939 0.879880
Si Si7 0.374713 0.508637 0.449069
O O1 0.988950 0.488160 0.895607
O O2 0.849326 0.538981 0.779241
O O3 0.990525 0.639683 0.789691
O O4 0.299836 0.299836 0.500000
O O5 0.253961 0.178529 0.345014
O O6 0.265972 0.333550 0.271988
O O7 0.408010 0.246252 0.336372
O O8 0.898215 0.101786 0.750000
O O9 0.770850 0.035341 0.632026
O O10 0.812098 0.978563 0.841510
O O11 0.916713 0.942633 0.662747
O O12 0.130897 0.130897 0.500000
O O13 0.287995 0.065783 0.513956
O O14 0.985795 0.181566 0.084185
O O15 0.456915 0.692037 0.951181
O O16 0.424172 0.424172 0.500000
#
# Coordination Sequence:
#
# PCOD8305438 Si02
#       7
#     8   8   8   8   8   8   8
#     4  12  27  46  73  98 137 190 250 295 351 423
#     4  11  21  39  67  96 127 174 232 282 342 418
#     4  11  26  41  65 105 142 180 222 289 359 420
#     4  11  23  38  64  99 133 175 228 284 339 420
#     4  12  23  44  67  96 140 183 230 283 360 425
#     4  12  20  40  70  98 129 173 232 290 341 413
#     4  11  21  39  70 101 133 176 221 279 348 428
#
# _framework density 21.134511
#
# number of rings (size 3 to 8) (size 9 to 14) (size 15 to 20)
#    0.000    0.571    5.714    3.857    0.000    2.286 
#    0.000    1.429    0.000    0.000    0.000    0.000 
#    0.000    0.000    0.000    0.000    0.000    0.000 
#
# Total GULP energy -694366.576258 kJ/mol
# GULP energy per Si atom -12399.403147 kJ/mol
# Density = 2.108641 g / cm^3
# Si number density = 21.134511 Si / 1000 Ang^3
#
#
#
# Elastic Constant Matrix: (Units=GPa)
#
#
# Indices 1 2 3 4 5 6 
#
# 1 72.1892 26.4069 40.0640 0.0000 0.0000 0.0000
# 2 26.4069 72.1898 40.0643 0.0000 0.0000 0.0000
# 3 40.0640 40.0643 108.3946 0.0000 0.0000 0.0000
# 4 0.0000 0.0000 0.0000 32.0187 0.0000 0.0000
# 5 0.0000 0.0000 0.0000 0.0000 32.0189 0.0000
# 6 0.0000 0.0000 0.0000 0.0000 0.0000 37.2070
#
#
#
# Elastic Compliance Matrix: (Units=1/GPa)
#
#
# Indices 1 2 3 4 5 6 
#
# 1 0.018170 -0.003673 -0.005358 0.000000 0.000000 0.000000
# 2 -0.003673 0.018170 -0.005358 0.000000 0.000000 0.000000
# 3 -0.005358 -0.005358 0.013187 0.000000 0.000000 0.000000
# 4 0.000000 0.000000 0.000000 0.031232 0.000000 0.000000
# 5 0.000000 0.000000 0.000000 0.000000 0.031232 0.000000
# 6 0.000000 0.000000 0.000000 0.000000 0.000000 0.026877
#
#
# Mechanical properties :
#
#
# Convention : Reuss Voigt Hill
#
# Bulk Modulus (GPa) = 48.19888 51.76044 49.97966
# Shear Modulus (GPa) = 28.64343 29.99816 29.32080
#
# Velocity S-wave (km/s) = 3.68542 3.77157 3.72875
# Velocity P-wave (km/s) = 6.40040 6.59624 6.49906
#
# Compressibility (1/GPa) = 0.02074737
#
# Stress axis : x y z
#
# Youngs Moduli (GPa) = 55.03665 55.03692 75.83491
#
# Poissons Ratio (x) = 0.20213 0.40634
# Poissons Ratio (y) = 0.20213 0.40635
# Poissons Ratio (z) = 0.29490 0.29490
#
# Static dielectric constant tensor:
#      x y z
#    x 3.872200 0.000000 0.000000 
#    y 0.000000 3.872200 0.000000 
#    z 0.000000 0.000000 3.772790 
# 
# 
# High freq. dielectric constant tensor:
#      x y z
#    x 1.830430 0.000000 0.000000 
#    y 0.000000 1.830430 0.000000 
#    z 0.000000 0.000000 1.817650 
# 
# From -- ./inp_files/2268.got.cif
#   From: 2010.03.12/outbox.cif.g09.slc.cpg/sg92_2_cif.got.tgz:2268.got - 2010.04.08 20:41:11.
