data_PCOD8305517
_publ_section_title
;
Structure prediction by ZEFSAII (Michael W. Deem and Ramdas Pophale) SiO2 
 PCOD8305517
Probable space group: P 42 2 2
;
_chemical_formula_sum "Si O2"
_cell_formula_units_Z 56
_cell_length_a 20.152579
_cell_length_b 20.152579
_cell_length_c 9.521775
_cell_angle_alpha 90.000000
_cell_angle_beta 90.000000
_cell_angle_gamma 90.000000
_cell_volume 3867.044587
_symmetry_space_group_name_H-M "P 42 2 2"
_symmetry_group_IT_number 93
_symmetry_cell_setting 'tetragonal'
loop_
_space_group_symop_operation_xyz
x,y,z
-y,x,1/2+z
-x,-y,z
y,-x,1/2+z
x,-y,-z
-x,y,-z
y,x,1/2-z
-y,-x,1/2-z
loop_
_atom_site_type_symbol
_atom_site_label
_atom_site_fract_x
_atom_site_fract_y
_atom_site_fract_z
Si Si1 0.261875 0.361368 0.208276
Si Si2 0.421644 0.999199 0.158333
Si Si3 0.259550 0.637143 0.268417
Si Si4 0.337804 0.423851 0.962338
Si Si5 0.872614 0.576925 0.836199
Si Si6 0.687784 0.574807 0.474435
Si Si7 0.125688 0.422226 0.163528
O O1 0.286048 0.286048 0.250000
O O2 0.300169 0.410817 0.312082
O O3 0.183167 0.372171 0.215607
O O4 0.283770 0.383115 0.053246
O O5 0.398729 0.934016 0.242021
O O6 0.500000 0.000000 0.149000
O O7 0.398373 0.062973 0.246240
O O8 0.391459 0.000000 0.000000
O O9 0.286963 0.713038 0.250000
O O10 0.311491 0.585572 0.195616
O O11 0.186781 0.626292 0.205800
O O12 0.261338 0.619399 0.433324
O O13 0.343123 0.500000 0.000000
O O14 0.408943 0.388770 0.985120
O O15 0.854640 0.499394 0.807218
O O16 0.890593 0.586860 0.999308
O O17 0.705267 0.500000 0.500000
#
# Coordination Sequence:
#
# PCOD8305517 Si02
#       7
#     8   8   8   8   8   8   8
#     4  10  20  31  44  62  82 106 140 180 217 259
#     4   9  19  31  43  67  91 105 129 168 213 262
#     4  10  20  31  44  62  82 106 140 180 217 259
#     4  10  18  31  44  55  75 103 139 179 220 266
#     4  10  18  30  48  63  82 112 142 172 212 261
#     4  10  20  29  40  59  79 101 135 179 226 266
#     4  10  18  30  48  63  82 112 142 172 212 261
#
# _framework density 14.481342
#
# number of rings (size 3 to 8) (size 9 to 14) (size 15 to 20)
#    0.000    2.143    1.429    3.000    2.000    2.000 
#    0.000    0.000    0.000    5.143    0.000    0.000 
#    0.000    0.000    0.000    0.000    0.000    0.714 
#
# Total GULP energy -694093.000296 kJ/mol
# GULP energy per Si atom -12394.517862 kJ/mol
# Density = 1.444838 g / cm^3
# Si number density = 14.481342 Si / 1000 Ang^3
#
#
#
# Elastic Constant Matrix: (Units=GPa)
#
#
# Indices 1 2 3 4 5 6 
#
# 1 78.7272 31.6349 30.6859 0.0000 0.0000 0.0000
# 2 31.6349 78.7265 30.6863 0.0000 0.0000 0.0000
# 3 30.6859 30.6863 67.4712 0.0000 0.0000 0.0000
# 4 0.0000 0.0000 0.0000 18.2441 0.0000 0.0000
# 5 0.0000 0.0000 0.0000 0.0000 18.2445 0.0000
# 6 0.0000 0.0000 0.0000 0.0000 0.0000 13.2894
#
#
#
# Elastic Compliance Matrix: (Units=1/GPa)
#
#
# Indices 1 2 3 4 5 6 
#
# 1 0.016682 -0.004553 -0.005516 0.000000 0.000000 0.000000
# 2 -0.004553 0.016682 -0.005516 0.000000 0.000000 0.000000
# 3 -0.005516 -0.005516 0.019839 0.000000 0.000000 0.000000
# 4 0.000000 0.000000 0.000000 0.054812 0.000000 0.000000
# 5 0.000000 0.000000 0.000000 0.000000 0.054811 0.000000
# 6 0.000000 0.000000 0.000000 0.000000 0.000000 0.075248
#
#
# Mechanical properties :
#
#
# Convention : Reuss Voigt Hill
#
# Bulk Modulus (GPa) = 45.38983 45.65990 45.52487
# Shear Modulus (GPa) = 18.07742 18.75013 18.41378
#
# Velocity S-wave (km/s) = 3.53700 3.60221 3.56975
# Velocity P-wave (km/s) = 6.93485 6.99284 6.96391
#
# Compressibility (1/GPa) = 0.02203137
#
# Stress axis : x y z
#
# Youngs Moduli (GPa) = 59.94583 59.94497 50.40664
#
# Poissons Ratio (x) = 0.27294 0.27804
# Poissons Ratio (y) = 0.27295 0.27806
# Poissons Ratio (z) = 0.33066 0.33067
#
# Static dielectric constant tensor:
#      x y z
#    x 2.631060 0.000000 0.000000 
#    y 0.000000 2.631060 0.000000 
#    z 0.000000 0.000000 3.136890 
# 
# 
# High freq. dielectric constant tensor:
#      x y z
#    x 1.515420 0.000000 0.000000 
#    y 0.000000 1.515420 0.000000 
#    z 0.000000 0.000000 1.581940 
# 
# From -- ./inp_files/2233.got.cif
#   From: 2010.03.12/outbox.cif.g09.slc.cpg/sg93_2_cif.got.tgz:2233.got - 2010.04.08 20:44:19.
