data_PCOD8305160
_publ_section_title
;
Structure prediction by ZEFSAII (Michael W. Deem and Ramdas Pophale) SiO2 
 PCOD8305160
Probable space group: P 41 2 2
;
_chemical_formula_sum "Si O2"
_cell_formula_units_Z 56
_cell_length_a 13.918153
_cell_length_b 13.918153
_cell_length_c 13.303442
_cell_angle_alpha 90.000000
_cell_angle_beta 90.000000
_cell_angle_gamma 90.000000
_cell_volume 2577.076040
_symmetry_space_group_name_H-M "P 41 2 2"
_symmetry_group_IT_number 91
_symmetry_cell_setting 'tetragonal'
loop_
_space_group_symop_operation_xyz
x,y,z
-y,x,1/4+z
-x,-y,1/2+z
y,-x,3/4+z
x,-y,1/2-z
-x,y,-z
y,x,3/4-z
-y,-x,1/4-z
loop_
_atom_site_type_symbol
_atom_site_label
_atom_site_fract_x
_atom_site_fract_y
_atom_site_fract_z
Si Si1 0.607713 0.678506 0.480998
Si Si2 0.816442 0.677204 0.830915
Si Si3 0.203447 0.340452 0.096059
Si Si4 0.157776 0.077895 0.663612
Si Si5 0.003214 0.783833 0.204376
Si Si6 0.525890 0.113168 0.736754
Si Si7 0.408474 0.116117 0.048621
O O1 0.500000 0.638032 0.500000
O O2 0.640142 0.640142 0.375000
O O3 0.684487 0.647742 0.566648
O O4 0.608190 0.793643 0.475715
O O5 0.715963 0.715963 0.875000
O O6 0.805601 0.645693 0.715465
O O7 0.848654 0.585036 0.892482
O O8 0.893490 0.764038 0.845503
O O9 0.159583 0.237463 0.063671
O O10 0.141447 0.416564 0.033314
O O11 0.057671 0.135457 0.645797
O O12 0.147781 0.000000 0.750000
O O13 0.181016 0.014765 0.567475
O O14 0.952273 0.681369 0.203050
O O15 0.568178 0.157425 0.839798
O O16 0.535308 0.000000 0.750000
O O17 0.500000 0.059142 0.000000
#
# Coordination Sequence:
#
# PCOD8305160 Si02
#       7
#     8   8   8   8   8   8   8
#     4  11  24  45  74 105 140 184 234 291 365 430
#     4  11  26  44  69  97 145 191 240 290 362 430
#     4  11  24  44  69 104 141 180 237 300 364 427
#     4  11  25  41  67  94 139 180 235 289 359 416
#     4  11  25  43  65  97 137 184 236 291 349 436
#     4  12  25  42  73 104 142 183 239 298 366 432
#     4  11  24  42  70 104 138 173 229 297 361 426
#
# _framework density 21.730052000000001
#
# number of rings (size 3 to 8) (size 9 to 14) (size 15 to 20)
#    0.000    0.857    2.857    3.857   10.000    1.143 
#    0.000    2.143    0.000    0.000    0.000    0.000 
#    0.000    0.000    0.000    0.000    0.000    0.000 
#
# Total GULP energy -694398.708425 kJ/mol
# GULP energy per Si atom -12399.976936 kJ/mol
# Density = 2.168059 g / cm^3
# Si number density = 21.730052 Si / 1000 Ang^3
#
#
#
# Elastic Constant Matrix: (Units=GPa)
#
#
# Indices 1 2 3 4 5 6 
#
# 1 91.2094 37.3764 41.8411 0.0000 0.0000 0.0000
# 2 37.3764 91.2094 41.8411 0.0000 0.0000 0.0000
# 3 41.8411 41.8411 97.2073 0.0000 0.0000 0.0000
# 4 0.0000 0.0000 0.0000 35.9549 0.0000 0.0000
# 5 0.0000 0.0000 0.0000 0.0000 35.9549 0.0000
# 6 0.0000 0.0000 0.0000 0.0000 0.0000 31.1701
#
#
#
# Elastic Compliance Matrix: (Units=1/GPa)
#
#
# Indices 1 2 3 4 5 6 
#
# 1 0.014690 -0.003886 -0.004650 0.000000 0.000000 0.000000
# 2 -0.003886 0.014690 -0.004650 0.000000 0.000000 0.000000
# 3 -0.004650 -0.004650 0.014290 0.000000 0.000000 0.000000
# 4 0.000000 0.000000 0.000000 0.027813 0.000000 0.000000
# 5 0.000000 0.000000 0.000000 0.000000 0.027813 0.000000
# 6 0.000000 0.000000 0.000000 0.000000 0.000000 0.032082
#
#
# Mechanical properties :
#
#
# Convention : Reuss Voigt Hill
#
# Bulk Modulus (GPa) = 57.81518 57.97148 57.89333
# Shear Modulus (GPa) = 30.57823 31.18712 30.88268
#
# Velocity S-wave (km/s) = 3.75532 3.79252 3.77397
# Velocity P-wave (km/s) = 6.74293 6.77596 6.75946
#
# Compressibility (1/GPa) = 0.01729649
#
# Stress axis : x y z
#
# Youngs Moduli (GPa) = 68.07577 68.07577 69.97752
#
# Poissons Ratio (x) = 0.26457 0.32539
# Poissons Ratio (y) = 0.26457 0.32539
# Poissons Ratio (z) = 0.31655 0.31655
#
# Static dielectric constant tensor:
#      x y z
#    x 4.099750 0.000000 0.000000 
#    y 0.000000 4.099750 0.000000 
#    z 0.000000 0.000000 4.029450 
# 
# 
# High freq. dielectric constant tensor:
#      x y z
#    x 1.857200 0.000000 0.000000 
#    y 0.000000 1.857200 0.000000 
#    z 0.000000 0.000000 1.859350 
# 
# From -- ./inp_files/10855.got.cif
#   From: 2010.03.12/outbox.cif.g09.slc.cpg/sg91_6_cif.got.tgz:10855.got - 2010.04.08 20:27:58.
