data_PCOD8305755
_publ_section_title
;
Structure prediction by ZEFSAII (Michael W. Deem and Ramdas Pophale) SiO2 
 PCOD8305755
Probable space group: P 42 21 2
;
_chemical_formula_sum "Si O2"
_cell_formula_units_Z 48
_cell_length_a 9.183152
_cell_length_b 9.183152
_cell_length_c 27.721273
_cell_angle_alpha 90.000000
_cell_angle_beta 90.000000
_cell_angle_gamma 90.000000
_cell_volume 2337.742732
_symmetry_space_group_name_H-M "P 42 21 2"
_symmetry_group_IT_number 94
_symmetry_cell_setting 'tetragonal'
loop_
_space_group_symop_operation_xyz
x,y,z
1/2-y,1/2+x,1/2+z
-x,-y,z
1/2+y,1/2-x,1/2+z
1/2+x,1/2-y,1/2-z
1/2-x,1/2+y,1/2-z
y,x,-z
-y,-x,-z
loop_
_atom_site_type_symbol
_atom_site_label
_atom_site_fract_x
_atom_site_fract_y
_atom_site_fract_z
Si Si1 0.806420 0.142690 0.947608
Si Si2 0.689170 0.240524 0.447154
Si Si3 0.159711 0.531965 0.114870
Si Si4 0.974849 0.665956 0.894624
Si Si5 0.650817 0.074977 0.213057
Si Si6 0.845478 0.927042 0.291805
O O1 0.687359 0.186537 0.908640
O O2 0.952892 0.215615 0.929098
O O3 0.818252 0.968331 0.950683
O O4 0.783958 0.216043 0.000000
O O5 0.760657 0.239344 0.500000
O O6 0.794030 0.307566 0.405422
O O7 0.680547 0.075332 0.430058
O O8 0.267354 0.523374 0.159501
O O9 0.000000 0.500000 0.136732
O O10 0.000000 0.500000 0.910919
O O11 0.023502 0.692245 0.840267
O O12 0.646273 0.251550 0.215758
O O13 0.500000 0.000000 0.228755
O O14 0.772314 0.006634 0.246797
O O15 0.000000 0.000000 0.295990
#
# Coordination Sequence:
#
# PCOD8305755 Si02
#       6
#     8   8   8   8   8   8
#     4  11  22  42  65  95 133 179 226 278 330 401
#     4  11  24  39  66  99 132 182 228 277 332 400
#     4  10  25  44  66  97 140 175 223 280 339 400
#     4  11  25  41  68  95 138 173 223 275 331 396
#     4  11  26  48  70 103 138 178 223 279 345 412
#     4  12  26  46  75 101 135 177 226 281 344 411
#
# _framework density 20.532624999999999
#
# number of rings (size 3 to 8) (size 9 to 14) (size 15 to 20)
#    0.000    1.000    3.333    2.000    9.333    1.333 
#    0.000    0.000    0.000    0.000    0.000    0.000 
#    0.000    0.000    0.000    0.000    0.000    0.000 
#
# Total GULP energy -594958.774875 kJ/mol
# GULP energy per Si atom -12394.974477 kJ/mol
# Density = 2.048589 g / cm^3
# Si number density = 20.532625 Si / 1000 Ang^3
#
#
#
# Elastic Constant Matrix: (Units=GPa)
#
#
# Indices 1 2 3 4 5 6 
#
# 1 88.0885 60.5725 55.5366 0.0000 0.0000 0.0000
# 2 60.5725 88.0885 55.5366 0.0000 0.0000 0.0000
# 3 55.5366 55.5366 105.2991 0.0000 0.0000 0.0000
# 4 0.0000 0.0000 0.0000 -16.7700 0.0000 0.0000
# 5 0.0000 0.0000 0.0000 0.0000 -16.7741 0.0000
# 6 0.0000 0.0000 0.0000 0.0000 0.0000 33.4151
#
#
#
# Elastic Compliance Matrix: (Units=1/GPa)
#
#
# Indices 1 2 3 4 5 6 
#
# 1 0.023722 -0.012621 -0.005855 0.000000 0.000000 0.000000
# 2 -0.012621 0.023722 -0.005855 0.000000 0.000000 0.000000
# 3 -0.005855 -0.005855 0.015673 0.000000 0.000000 0.000000
# 4 0.000000 0.000000 0.000000 -0.059630 0.000000 0.000000
# 5 0.000000 0.000000 0.000000 0.000000 -0.059616 0.000000
# 6 0.000000 0.000000 0.000000 0.000000 0.000000 0.029927
#
#
# Mechanical properties :
#
#
# Convention : Reuss Voigt Hill
#
# Bulk Modulus (GPa) = 69.17837 69.41859 69.29848
# Shear Modulus (GPa) = 183.30442 7.29622 95.30032
#
# Velocity S-wave (km/s) = 9.45878 1.88711 6.82018
# Velocity P-wave (km/s) = 12.37160 6.21535 9.78997
#
# Compressibility (1/GPa) = 0.01445539
#
# Stress axis : x y z
#
# Youngs Moduli (GPa) = 42.15516 42.15513 63.80452
#
# Poissons Ratio (x) = 0.53202 0.37358
# Poissons Ratio (y) = 0.53202 0.37358
# Poissons Ratio (z) = 0.24682 0.24682
#
# Static dielectric constant tensor:
#      x y z
#    x 4.064420 0.000000 0.000000 
#    y 0.000000 4.064310 0.000000 
#    z 0.000000 0.000000 3.830380 
# 
# 
# High freq. dielectric constant tensor:
#      x y z
#    x 1.811010 0.000000 0.000000 
#    y 0.000000 1.811010 0.000000 
#    z 0.000000 0.000000 1.816480 
# 
# From -- ./inp_files/5569.got.cif
#   From: 2010.03.12/outbox.cif.g09.slc.cpg/sg94_3_cif.got.tgz:5569.got - 2010.04.08 20:48:32.
