data_PCOD8305417
_publ_section_title
;
Structure prediction by ZEFSAII (Michael W. Deem and Ramdas Pophale) SiO2 
 PCOD8305417
Probable space group: P 41 21 2
;
_chemical_formula_sum "Si O2"
_cell_formula_units_Z 36
_cell_length_a 11.111312
_cell_length_b 11.111312
_cell_length_c 13.592297
_cell_angle_alpha 90.000000
_cell_angle_beta 90.000000
_cell_angle_gamma 90.000000
_cell_volume 1678.122037
_symmetry_space_group_name_H-M "P 41 21 2"
_symmetry_group_IT_number 92
_symmetry_cell_setting 'tetragonal'
loop_
_space_group_symop_operation_xyz
x,y,z
1/2-y,1/2+x,1/4+z
-x,-y,1/2+z
1/2+y,1/2-x,3/4+z
1/2+x,1/2-y,3/4-z
1/2-x,1/2+y,1/4-z
y,x,-z
-y,-x,1/2-z
loop_
_atom_site_type_symbol
_atom_site_label
_atom_site_fract_x
_atom_site_fract_y
_atom_site_fract_z
Si Si1 0.352036 0.005756 0.240862
Si Si2 0.250229 0.562834 0.211450
Si Si3 0.944759 0.669825 0.043566
Si Si4 0.670433 0.670433 0.000000
Si Si5 0.418853 0.390703 0.291269
O O1 0.489352 0.042575 0.217905
O O2 0.297010 0.062210 0.340692
O O3 0.367723 0.862429 0.242192
O O4 0.262369 0.052113 0.156137
O O5 0.363624 0.636377 0.250000
O O6 0.286744 0.427629 0.247737
O O7 0.814968 0.655664 0.994159
O O8 0.037034 0.759379 0.989689
O O9 0.599769 0.611784 0.908815
O O10 0.522555 0.477446 0.250000
#
# Coordination Sequence:
#
# PCOD8305417 Si02
#       5
#     8   8   8   4   8
#     4  10  24  43  70 101 140 187 244 290 365 440
#     4  10  25  43  67 104 143 189 237 302 364 425
#     4  11  23  45  69 104 137 193 237 295 354 437
#     4  12  26  44  74  98 148 192 234 306 350 434
#     4  11  26  46  67 109 142 185 243 294 364 424
#
# _framework density 21.452553000000002
#
# number of rings (size 3 to 8) (size 9 to 14) (size 15 to 20)
#    0.000    1.333    3.333    0.000   12.444    3.556 
#    0.000    0.000    0.000    0.000    0.000    0.000 
#    0.000    0.000    0.000    0.000    0.000    0.000 
#
# Total GULP energy -445992.518782 kJ/mol
# GULP energy per Si atom -12388.681077 kJ/mol
# Density = 2.140373 g / cm^3
# Si number density = 21.452553 Si / 1000 Ang^3
#
#
#
# Elastic Constant Matrix: (Units=GPa)
#
#
# Indices 1 2 3 4 5 6 
#
# 1 41.1159 45.2786 45.1529 0.0000 0.0000 0.0000
# 2 45.2786 41.1175 45.1500 0.0000 0.0000 0.0000
# 3 45.1529 45.1500 182.8776 0.0000 0.0000 0.0000
# 4 0.0000 0.0000 0.0000 32.4236 0.0000 0.0000
# 5 0.0000 0.0000 0.0000 0.0000 32.4237 0.0000
# 6 0.0000 0.0000 0.0000 0.0000 0.0000 47.1095
#
#
#
# Elastic Compliance Matrix: (Units=1/GPa)
#
#
# Indices 1 2 3 4 5 6 
#
# 1 -0.112341 0.127936 -0.003848 0.000000 0.000000 0.000000
# 2 0.127936 -0.112330 -0.003855 0.000000 0.000000 0.000000
# 3 -0.003848 -0.003855 0.007370 0.000000 0.000000 0.000000
# 4 0.000000 0.000000 0.000000 0.030842 0.000000 0.000000
# 5 0.000000 0.000000 0.000000 0.000000 0.030842 0.000000
# 6 0.000000 0.000000 0.000000 0.000000 0.000000 0.021227
#
#
# Mechanical properties :
#
#
# Convention : Reuss Voigt Hill
#
# Bulk Modulus (GPa) = 43.16954 59.58601 51.37778
# Shear Modulus (GPa) = -13.61898 31.02665 8.70383
#
# Velocity S-wave (km/s) = -2.52234 3.80714 2.01645
# Velocity P-wave (km/s) = 3.41819 6.86744 5.42429
#
# Compressibility (1/GPa) = 0.02316448
#
# Stress axis : x y z
#
# Youngs Moduli (GPa) = -8.90144 -8.90235 135.68392
#
# Poissons Ratio (x) = 1.13893 0.52217
# Poissons Ratio (y) = 1.13882 0.52306
# Poissons Ratio (z) = -0.03426 -0.03432
#
# Static dielectric constant tensor:
#      x y z
#    x 3.939530 0.000000 0.000000 
#    y 0.000000 3.939510 0.000000 
#    z 0.000000 0.000000 4.007090 
# 
# 
# High freq. dielectric constant tensor:
#      x y z
#    x 1.843340 0.000000 0.000000 
#    y 0.000000 1.843340 0.000000 
#    z 0.000000 0.000000 1.849710 
# 
# From -- ./inp_files/1981.got.cif
#   From: 2010.03.12/outbox.cif.g09.slc.cpg/sg92_1_cif.got.tgz:1981.got - 2010.04.08 20:41:11.
