data_PCOD8305661
_publ_section_title
;
Structure prediction by ZEFSAII (Michael W. Deem and Ramdas Pophale) SiO2 
 PCOD8305661
Probable space group: P 42 21 2
;
_chemical_formula_sum "Si O2"
_cell_formula_units_Z 54
_cell_length_a 11.301258
_cell_length_b 11.301258
_cell_length_c 21.141954
_cell_angle_alpha 90.000000
_cell_angle_beta 90.000000
_cell_angle_gamma 90.000000
_cell_volume 2700.217222
_symmetry_space_group_name_H-M "P 42 21 2"
_symmetry_group_IT_number 94
_symmetry_cell_setting 'tetragonal'
loop_
_space_group_symop_operation_xyz
x,y,z
1/2-y,1/2+x,1/2+z
-x,-y,z
1/2+y,1/2-x,1/2+z
1/2+x,1/2-y,1/2-z
1/2-x,1/2+y,1/2-z
y,x,-z
-y,-x,-z
loop_
_atom_site_type_symbol
_atom_site_label
_atom_site_fract_x
_atom_site_fract_y
_atom_site_fract_z
Si Si1 0.118373 0.431168 0.893466
Si Si2 0.500000 0.000000 0.751492
Si Si3 0.243885 0.936336 0.222530
Si Si4 0.597856 0.408290 0.185580
Si Si5 0.736238 0.360743 0.937106
Si Si6 0.528666 0.723339 0.582707
Si Si7 0.000000 0.000000 0.000000
Si Si8 0.764807 0.580570 0.759654
O O1 0.206043 0.508037 0.937290
O O2 0.182127 0.391053 0.828977
O O3 0.000000 0.500000 0.871657
O O4 0.073725 0.319116 0.933547
O O5 0.559399 0.886187 0.714626
O O6 0.380646 0.949179 0.785925
O O7 0.188104 0.976129 0.156305
O O8 0.197866 0.802148 0.235655
O O9 0.202330 0.024189 0.277984
O O10 0.500000 0.500000 0.159366
O O11 0.655331 0.342611 0.125678
O O12 0.532240 0.321726 0.235554
O O13 0.840270 0.265080 0.936009
O O14 0.657320 0.342681 0.000000
O O15 0.493584 0.611958 0.543545
#
# Coordination Sequence:
#
# PCOD8305661 Si02
#       8
#     8   4   8   8   8   8   2   8
#     4   9  17  37  67  89 118 167 220 257 315 390
#     4  12  22  36  62  96 122 168 212 258 320 394
#     4  11  24  39  66  93 135 168 213 270 335 388
#     4   9  21  39  62  97 130 161 211 268 324 388
#     4  10  20  39  68  92 123 170 217 265 324 387
#     4  11  23  41  62  88 125 177 212 261 315 392
#     4  12  28  44  60  96 128 160 230 260 320 388
#     4  10  20  37  60  95 122 165 211 259 317 388
#
# _framework density 19.998391000000002
#
# number of rings (size 3 to 8) (size 9 to 14) (size 15 to 20)
#    0.000    1.778    2.963    1.778    7.259    0.296 
#    0.000    4.444    4.889    0.000    0.000    0.000 
#    0.000    0.000    0.000    0.000    0.000    0.000 
#
# Total GULP energy -668968.452784 kJ/mol
# GULP energy per Si atom -12388.304681 kJ/mol
# Density = 1.995287 g / cm^3
# Si number density = 19.998391 Si / 1000 Ang^3
#
#
#
# Elastic Constant Matrix: (Units=GPa)
#
#
# Indices 1 2 3 4 5 6 
#
# 1 133.8197 70.5086 51.7393 0.0000 0.0000 0.0000
# 2 70.5086 133.8195 51.7394 0.0000 0.0000 0.0000
# 3 51.7393 51.7394 96.8053 0.0000 0.0000 0.0000
# 4 0.0000 0.0000 0.0000 30.1100 0.0000 0.0000
# 5 0.0000 0.0000 0.0000 0.0000 30.1100 0.0000
# 6 0.0000 0.0000 0.0000 0.0000 0.0000 31.7611
#
#
#
# Elastic Compliance Matrix: (Units=1/GPa)
#
#
# Indices 1 2 3 4 5 6 
#
# 1 0.011253 -0.004542 -0.003586 0.000000 0.000000 0.000000
# 2 -0.004542 0.011253 -0.003587 0.000000 0.000000 0.000000
# 3 -0.003586 -0.003587 0.014164 0.000000 0.000000 0.000000
# 4 0.000000 0.000000 0.000000 0.033212 0.000000 0.000000
# 5 0.000000 0.000000 0.000000 0.000000 0.033212 0.000000
# 6 0.000000 0.000000 0.000000 0.000000 0.000000 0.031485
#
#
# Mechanical properties :
#
#
# Convention : Reuss Voigt Hill
#
# Bulk Modulus (GPa) = 75.53686 79.15770 77.34728
# Shear Modulus (GPa) = 30.78421 31.09336 30.93879
#
# Velocity S-wave (km/s) = 3.92769 3.94736 3.93754
# Velocity P-wave (km/s) = 7.64346 7.77454 7.70928
#
# Compressibility (1/GPa) = 0.01323857
#
# Stress axis : x y z
#
# Youngs Moduli (GPa) = 88.86751 88.86725 70.60271
#
# Poissons Ratio (x) = 0.40366 0.25322
# Poissons Ratio (y) = 0.40366 0.25322
# Poissons Ratio (z) = 0.31872 0.31872
#
# Static dielectric constant tensor:
#      x y z
#    x 3.924600 0.000000 0.000000 
#    y 0.000000 3.924600 0.000000 
#    z 0.000000 0.000000 3.204430 
# 
# 
# High freq. dielectric constant tensor:
#      x y z
#    x 1.796140 0.000000 0.000000 
#    y 0.000000 1.796140 0.000000 
#    z 0.000000 0.000000 1.731000 
# 
# From -- ./inp_files/4775.got.cif
#   From: 2010.03.12/outbox.cif.g09.slc.cpg/sg94_3_cif.got.tgz:4775.got - 2010.04.08 20:48:32.
