data_PCOD8305980
_publ_section_title
;
Structure prediction by ZEFSAII (Michael W. Deem and Ramdas Pophale) SiO2 
 PCOD8305980
Probable space group: P 43 21 2
;
_chemical_formula_sum "Si O2"
_cell_formula_units_Z 56
_cell_length_a 14.824000
_cell_length_b 14.824000
_cell_length_c 11.170340
_cell_angle_alpha 90.000000
_cell_angle_beta 90.000000
_cell_angle_gamma 90.000000
_cell_volume 2454.693117
_symmetry_space_group_name_H-M "P 43 21 2"
_symmetry_group_IT_number 96
_symmetry_cell_setting 'tetragonal'
loop_
_space_group_symop_operation_xyz
x,y,z
1/2-y,1/2+x,3/4+z
-x,-y,1/2+z
1/2+y,1/2-x,1/4+z
1/2+x,1/2-y,1/4-z
1/2-x,1/2+y,3/4-z
y,x,-z
-y,-x,1/2-z
loop_
_atom_site_type_symbol
_atom_site_label
_atom_site_fract_x
_atom_site_fract_y
_atom_site_fract_z
Si Si1 0.334182 0.151348 0.400304
Si Si2 0.693511 0.548116 0.975395
Si Si3 0.191174 0.497839 0.051967
Si Si4 0.197355 0.616257 0.830938
Si Si5 0.815258 0.952522 0.006363
Si Si6 0.861795 0.764128 0.328962
Si Si7 0.539877 0.009560 0.871829
O O1 0.402236 0.220392 0.464753
O O2 0.242286 0.137292 0.472276
O O3 0.309560 0.179749 0.263708
O O4 0.373165 0.049926 0.391215
O O5 0.702813 0.537937 0.831680
O O6 0.603414 0.603414 0.000000
O O7 0.681272 0.445471 0.021475
O O8 0.174871 0.393049 0.077916
O O9 0.289064 0.519222 0.108297
O O10 0.117609 0.557986 0.128694
O O11 0.186131 0.526075 0.911964
O O12 0.217323 0.591728 0.693852
O O13 0.279632 0.672257 0.886077
O O14 0.919841 0.919841 0.000000
O O15 0.497653 0.977247 0.743746
#
# Coordination Sequence:
#
# PCOD8305980 Si02
#       7
#     8   8   8   8   8   8   8
#     4  11  23  40  73 101 145 175 235 302 365 428
#     4  11  26  45  75 105 137 194 251 301 368 436
#     4  12  24  38  72 102 151 180 236 289 377 451
#     4  11  26  46  69 107 144 192 234 301 372 452
#     4  11  24  44  68 104 141 191 240 309 360 434
#     4  10  26  48  71 102 148 189 244 297 366 435
#     4  12  24  37  61 105 140 181 224 282 366 448
#
# _framework density 22.813441999999998
#
# number of rings (size 3 to 8) (size 9 to 14) (size 15 to 20)
#    0.000    0.857    2.857    3.857   10.000    0.000 
#    2.571    0.000    6.286    0.000    0.000    0.000 
#    0.000    0.000    0.000    0.000    0.000    0.000 
#
# Total GULP energy -693783.801879 kJ/mol
# GULP energy per Si atom -12388.996462 kJ/mol
# Density = 2.276152 g / cm^3
# Si number density = 22.813442 Si / 1000 Ang^3
#
#
#
# Elastic Constant Matrix: (Units=GPa)
#
#
# Indices 1 2 3 4 5 6 
#
# 1 73.1733 40.5503 15.3032 0.0000 0.0000 0.0000
# 2 40.5503 73.1733 15.3032 0.0000 0.0000 0.0000
# 3 15.3032 15.3032 146.5255 0.0000 0.0000 0.0000
# 4 0.0000 0.0000 0.0000 30.5589 0.0000 0.0000
# 5 0.0000 0.0000 0.0000 0.0000 30.5589 0.0000
# 6 0.0000 0.0000 0.0000 0.0000 0.0000 33.6640
#
#
#
# Elastic Compliance Matrix: (Units=1/GPa)
#
#
# Indices 1 2 3 4 5 6 
#
# 1 0.019850 -0.010803 -0.000945 0.000000 0.000000 0.000000
# 2 -0.010803 0.019850 -0.000945 0.000000 0.000000 0.000000
# 3 -0.000945 -0.000945 0.007022 0.000000 0.000000 0.000000
# 4 0.000000 0.000000 0.000000 0.032724 0.000000 0.000000
# 5 0.000000 0.000000 0.000000 0.000000 0.032724 0.000000
# 6 0.000000 0.000000 0.000000 0.000000 0.000000 0.029705
#
#
# Mechanical properties :
#
#
# Convention : Reuss Voigt Hill
#
# Bulk Modulus (GPa) = 46.86580 48.35394 47.60987
# Shear Modulus (GPa) = 28.67408 33.73739 31.20574
#
# Velocity S-wave (km/s) = 3.54912 3.84974 3.70248
# Velocity P-wave (km/s) = 6.11413 6.40328 6.26038
#
# Compressibility (1/GPa) = 0.02133752
#
# Stress axis : x y z
#
# Youngs Moduli (GPa) = 50.37681 50.37681 142.40699
#
# Poissons Ratio (x) = 0.54421 0.13456
# Poissons Ratio (y) = 0.54421 0.13456
# Poissons Ratio (z) = 0.04760 0.04760
#
# Static dielectric constant tensor:
#      x y z
#    x 3.925840 0.000000 0.000000 
#    y 0.000000 3.925840 0.000000 
#    z 0.000000 0.000000 4.763740 
# 
# 
# High freq. dielectric constant tensor:
#      x y z
#    x 1.882480 0.000000 0.000000 
#    y 0.000000 1.882480 0.000000 
#    z 0.000000 0.000000 1.929310 
# 
# From -- ./inp_files/2264.got.cif
#   From: 2010.03.12/outbox.cif.g09.slc.cpg/sg96_2_cif.got.tgz:2264.got - 2010.04.08 20:56:49.
