data_PCOD8305389
_publ_section_title
;
Structure prediction by ZEFSAII (Michael W. Deem and Ramdas Pophale) SiO2 
 PCOD8305389
Probable space group: P 41 21 2
;
_chemical_formula_sum "Si O2"
_cell_formula_units_Z 48
_cell_length_a 11.459250
_cell_length_b 11.459250
_cell_length_c 17.897854
_cell_angle_alpha 90.000000
_cell_angle_beta 90.000000
_cell_angle_gamma 90.000000
_cell_volume 2350.246148
_symmetry_space_group_name_H-M "P 41 21 2"
_symmetry_group_IT_number 92
_symmetry_cell_setting 'tetragonal'
loop_
_space_group_symop_operation_xyz
x,y,z
1/2-y,1/2+x,1/4+z
-x,-y,1/2+z
1/2+y,1/2-x,3/4+z
1/2+x,1/2-y,3/4-z
1/2-x,1/2+y,1/4-z
y,x,-z
-y,-x,1/2-z
loop_
_atom_site_type_symbol
_atom_site_label
_atom_site_fract_x
_atom_site_fract_y
_atom_site_fract_z
Si Si1 0.235217 0.468647 0.430125
Si Si2 0.435187 0.490046 0.829051
Si Si3 0.406750 0.973667 0.556033
Si Si4 0.849964 0.831057 0.415329
Si Si5 0.828260 0.577569 0.354753
Si Si6 0.945284 0.191364 0.342414
O O1 0.268374 0.575269 0.376203
O O2 0.251994 0.497984 0.517521
O O3 0.312398 0.354132 0.413416
O O4 0.101043 0.441259 0.414629
O O5 0.443774 0.556227 0.750000
O O6 0.517708 0.376880 0.830412
O O7 0.307753 0.445266 0.846433
O O8 0.471032 0.581904 0.892251
O O9 0.396409 0.969518 0.467234
O O10 0.505329 0.879786 0.576308
O O11 0.283038 0.939863 0.591027
O O12 0.806043 0.806043 0.500000
O O13 0.848935 0.713935 0.367238
#
# Coordination Sequence:
#
# PCOD8305389 Si02
#       6
#     8   8   8   8   8   8
#     4  10  24  44  68  95 136 176 221 283 342 401
#     4  10  22  46  73  96 131 177 231 278 340 402
#     4  12  26  42  67 105 132 175 226 286 347 400
#     4  10  26  47  68  97 136 190 226 275 348 416
#     4  12  28  42  70 102 139 176 232 285 340 413
#     4  10  22  43  69  98 128 174 225 281 340 399
#
# _framework density 20.423392
#
# number of rings (size 3 to 8) (size 9 to 14) (size 15 to 20)
#    0.000    1.333    3.333    0.000    9.333    0.000 
#    3.000    0.000    0.000    0.000    0.000    0.000 
#    0.000    0.000    0.000    0.000    0.000    0.000 
#
# Total GULP energy -595429.977666 kJ/mol
# GULP energy per Si atom -12404.791201 kJ/mol
# Density = 2.037691 g / cm^3
# Si number density = 20.423392 Si / 1000 Ang^3
#
#
#
# Elastic Constant Matrix: (Units=GPa)
#
#
# Indices 1 2 3 4 5 6 
#
# 1 100.4108 62.5301 25.1932 0.0000 0.0000 0.0000
# 2 62.5301 100.4105 25.1932 0.0000 0.0000 0.0000
# 3 25.1932 25.1932 66.4080 0.0000 0.0000 0.0000
# 4 0.0000 0.0000 0.0000 32.5037 0.0000 0.0000
# 5 0.0000 0.0000 0.0000 0.0000 32.5035 0.0000
# 6 0.0000 0.0000 0.0000 0.0000 0.0000 21.5693
#
#
#
# Elastic Compliance Matrix: (Units=1/GPa)
#
#
# Indices 1 2 3 4 5 6 
#
# 1 0.016676 -0.009723 -0.002638 0.000000 0.000000 0.000000
# 2 -0.009723 0.016676 -0.002638 0.000000 0.000000 0.000000
# 3 -0.002638 -0.002638 0.017060 0.000000 0.000000 0.000000
# 4 0.000000 0.000000 0.000000 0.030766 0.000000 0.000000
# 5 0.000000 0.000000 0.000000 0.000000 0.030766 0.000000
# 6 0.000000 0.000000 0.000000 0.000000 0.000000 0.046362
#
#
# Mechanical properties :
#
#
# Convention : Reuss Voigt Hill
#
# Bulk Modulus (GPa) = 48.98440 54.78469 51.88455
# Shear Modulus (GPa) = 25.62698 27.60282 26.61490
#
# Velocity S-wave (km/s) = 3.54614 3.68030 3.61384
# Velocity P-wave (km/s) = 6.38775 6.70390 6.54773
#
# Compressibility (1/GPa) = 0.02041466
#
# Stress axis : x y z
#
# Youngs Moduli (GPa) = 59.96725 59.96699 58.61746
#
# Poissons Ratio (x) = 0.58306 0.15461
# Poissons Ratio (y) = 0.58306 0.15462
# Poissons Ratio (z) = 0.15817 0.15818
#
# Static dielectric constant tensor:
#      x y z
#    x 3.638030 0.000000 0.000000 
#    y 0.000000 3.638030 0.000000 
#    z 0.000000 0.000000 3.876280 
# 
# 
# High freq. dielectric constant tensor:
#      x y z
#    x 1.800660 0.000000 0.000000 
#    y 0.000000 1.800660 0.000000 
#    z 0.000000 0.000000 1.809480 
# 
# From -- ./inp_files/3145.got.cif
#   From: 2010.03.12/outbox.cif.g09.slc.cpg/sg92_2_cif.got.tgz:3145.got - 2010.04.08 20:41:11.
