data_PCOD8305617
_publ_section_title
;
Structure prediction by ZEFSAII (Michael W. Deem and Ramdas Pophale) SiO2 
 PCOD8305617
Probable space group: P 42 21 2
;
_chemical_formula_sum "Si O2"
_cell_formula_units_Z 40
_cell_length_a 12.410420
_cell_length_b 12.410420
_cell_length_c 14.131497
_cell_angle_alpha 90.000000
_cell_angle_beta 90.000000
_cell_angle_gamma 90.000000
_cell_volume 2176.512318
_symmetry_space_group_name_H-M "P 42 21 2"
_symmetry_group_IT_number 94
_symmetry_cell_setting 'tetragonal'
loop_
_space_group_symop_operation_xyz
x,y,z
1/2-y,1/2+x,1/2+z
-x,-y,z
1/2+y,1/2-x,1/2+z
1/2+x,1/2-y,1/2-z
1/2-x,1/2+y,1/2-z
y,x,-z
-y,-x,-z
loop_
_atom_site_type_symbol
_atom_site_label
_atom_site_fract_x
_atom_site_fract_y
_atom_site_fract_z
Si Si1 0.471297 0.608725 0.601364
Si Si2 0.608375 0.865987 0.757371
Si Si3 0.301818 0.273350 0.603805
Si Si4 0.884396 0.361283 0.243672
Si Si5 0.756932 0.769567 0.111685
O O1 0.500000 0.500000 0.660936
O O2 0.427000 0.573001 0.500000
O O3 0.581243 0.673547 0.591757
O O4 0.371955 0.672336 0.647704
O O5 0.672099 0.835493 0.661149
O O6 0.482133 0.834385 0.754876
O O7 0.659120 0.801871 0.845504
O O8 0.627552 0.990348 0.772930
O O9 0.251927 0.251927 0.500000
O O10 0.211516 0.341774 0.657899
O O11 0.859276 0.299230 0.342797
O O12 0.752061 0.752061 0.000000
#
# Coordination Sequence:
#
# PCOD8305617 Si02
#       5
#     8   8   8   8   8
#     4  10  17  29  53  82 106 134 183 231 273 313
#     4  10  22  38  56  83 117 149 184 231 287 340
#     4  11  21  36  57  87 113 146 193 236 277 337
#     4  10  22  38  56  83 117 149 184 231 287 340
#     4  10  21  36  57  81 110 148 190 226 275 337
#
# _framework density 18.378025999999998
#
# number of rings (size 3 to 8) (size 9 to 14) (size 15 to 20)
#    0.000    1.800    4.000    1.200    2.800    1.600 
#    0.000    4.000    0.000    0.000    0.000    5.600 
#    0.000    0.000    0.000    0.000    0.000    0.000 
#
# Total GULP energy -495537.973529 kJ/mol
# GULP energy per Si atom -12388.449338 kJ/mol
# Density = 1.833620 g / cm^3
# Si number density = 18.378026 Si / 1000 Ang^3
#
#
#
# Elastic Constant Matrix: (Units=GPa)
#
#
# Indices 1 2 3 4 5 6 
#
# 1 61.0045 49.0358 40.3018 0.0000 0.0000 0.0000
# 2 49.0358 61.0032 40.3022 0.0000 0.0000 0.0000
# 3 40.3018 40.3022 130.1819 0.0000 0.0000 0.0000
# 4 0.0000 0.0000 0.0000 19.0945 0.0000 0.0000
# 5 0.0000 0.0000 0.0000 0.0000 19.0945 0.0000
# 6 0.0000 0.0000 0.0000 0.0000 0.0000 31.5486
#
#
#
# Elastic Compliance Matrix: (Units=1/GPa)
#
#
# Indices 1 2 3 4 5 6 
#
# 1 0.047653 -0.035901 -0.003638 0.000000 0.000000 0.000000
# 2 -0.035901 0.047655 -0.003639 0.000000 0.000000 0.000000
# 3 -0.003638 -0.003639 0.009934 0.000000 0.000000 0.000000
# 4 0.000000 0.000000 0.000000 0.052371 0.000000 0.000000
# 5 0.000000 0.000000 0.000000 0.000000 0.052371 0.000000
# 6 0.000000 0.000000 0.000000 0.000000 0.000000 0.031697
#
#
# Mechanical properties :
#
#
# Convention : Reuss Voigt Hill
#
# Bulk Modulus (GPa) = 52.94887 56.82990 54.88939
# Shear Modulus (GPa) = 14.95508 22.11751 18.53629
#
# Velocity S-wave (km/s) = 2.85572 3.47288 3.17931
# Velocity P-wave (km/s) = 6.30453 6.86083 6.58855
#
# Compressibility (1/GPa) = 0.01888614
#
# Stress axis : x y z
#
# Youngs Moduli (GPa) = 20.98482 20.98412 100.66065
#
# Poissons Ratio (x) = 0.75336 0.36621
# Poissons Ratio (y) = 0.75339 0.36629
# Poissons Ratio (z) = 0.07634 0.07636
#
# Static dielectric constant tensor:
#      x y z
#    x 3.810040 0.000000 0.000000 
#    y 0.000000 3.810030 0.000000 
#    z 0.000000 0.000000 3.371630 
# 
# 
# High freq. dielectric constant tensor:
#      x y z
#    x 1.718300 0.000000 0.000000 
#    y 0.000000 1.718300 0.000000 
#    z 0.000000 0.000000 1.696800 
# 
# From -- ./inp_files/3368.got.cif
#   From: 2010.03.12/outbox.cif.g09.slc.cpg/sg94_2_cif.got.tgz:3368.got - 2010.04.08 20:48:32.
