data_PCOD8305730
_publ_section_title
;
Structure prediction by ZEFSAII (Michael W. Deem and Ramdas Pophale) SiO2 
 PCOD8305730
Probable space group: P 42 21 2
;
_chemical_formula_sum "Si O2"
_cell_formula_units_Z 36
_cell_length_a 9.195579
_cell_length_b 9.195579
_cell_length_c 19.160051
_cell_angle_alpha 90.000000
_cell_angle_beta 90.000000
_cell_angle_gamma 90.000000
_cell_volume 1620.148490
_symmetry_space_group_name_H-M "P 42 21 2"
_symmetry_group_IT_number 94
_symmetry_cell_setting 'tetragonal'
loop_
_space_group_symop_operation_xyz
x,y,z
1/2-y,1/2+x,1/2+z
-x,-y,z
1/2+y,1/2-x,1/2+z
1/2+x,1/2-y,1/2-z
1/2-x,1/2+y,1/2-z
y,x,-z
-y,-x,-z
loop_
_atom_site_type_symbol
_atom_site_label
_atom_site_fract_x
_atom_site_fract_y
_atom_site_fract_z
Si Si1 0.410935 0.148090 0.807399
Si Si2 0.765840 0.572457 0.039204
Si Si3 0.750975 0.750975 0.500000
Si Si4 0.913505 0.851896 0.795495
Si Si5 0.480996 0.836376 0.576715
O O1 0.376455 0.222411 0.881608
O O2 0.253427 0.116305 0.771802
O O3 0.503444 0.261066 0.762954
O O4 0.500000 0.000000 0.816888
O O5 0.771526 0.399829 0.041198
O O6 0.616974 0.616974 0.000000
O O7 0.893445 0.649781 0.995374
O O8 0.628159 0.747307 0.559630
O O9 0.900307 0.758737 0.866052
O O10 0.000000 0.000000 0.808641
O O11 0.500000 0.000000 0.607584
#
# Coordination Sequence:
#
# PCOD8305730 Si02
#       5
#     8   8   4   8   8
#     4  12  27  50  74 106 153 198 257 316 392 466
#     4  11  23  45  70 104 145 192 248 312 371 452
#     4  10  23  36  71 102 140 192 238 307 369 442
#     4  12  28  46  76 109 147 200 250 316 390 466
#     4  10  23  44  69 107 147 190 244 307 376 445
#
# _framework density 22.220186999999999
#
# number of rings (size 3 to 8) (size 9 to 14) (size 15 to 20)
#    0.000    0.889    2.222    4.333    9.333    1.778 
#    0.000    0.000    0.000    0.000    0.000    0.000 
#    0.000    0.000    0.000    0.000    0.000    0.000 
#
# Total GULP energy -446363.657196 kJ/mol
# GULP energy per Si atom -12398.990478 kJ/mol
# Density = 2.216961 g / cm^3
# Si number density = 22.220187 Si / 1000 Ang^3
#
#
#
# Elastic Constant Matrix: (Units=GPa)
#
#
# Indices 1 2 3 4 5 6 
#
# 1 117.6188 52.8217 55.4552 0.0000 0.0000 0.0000
# 2 52.8217 117.6188 55.4552 0.0000 0.0000 0.0000
# 3 55.4552 55.4552 117.4394 0.0000 0.0000 0.0000
# 4 0.0000 0.0000 0.0000 23.6154 0.0000 0.0000
# 5 0.0000 0.0000 0.0000 0.0000 23.6154 0.0000
# 6 0.0000 0.0000 0.0000 0.0000 0.0000 41.1046
#
#
#
# Elastic Compliance Matrix: (Units=1/GPa)
#
#
# Indices 1 2 3 4 5 6 
#
# 1 0.011951 -0.003482 -0.003999 0.000000 0.000000 0.000000
# 2 -0.003482 0.011951 -0.003999 0.000000 0.000000 0.000000
# 3 -0.003999 -0.003999 0.012292 0.000000 0.000000 0.000000
# 4 0.000000 0.000000 0.000000 0.042345 0.000000 0.000000
# 5 0.000000 0.000000 0.000000 0.000000 0.042345 0.000000
# 6 0.000000 0.000000 0.000000 0.000000 0.000000 0.024328
#
#
# Mechanical properties :
#
#
# Convention : Reuss Voigt Hill
#
# Bulk Modulus (GPa) = 75.56395 75.57125 75.56760
# Shear Modulus (GPa) = 28.97120 30.26341 29.61730
#
# Velocity S-wave (km/s) = 3.61477 3.69450 3.65485
# Velocity P-wave (km/s) = 7.17654 7.23071 7.20368
#
# Compressibility (1/GPa) = 0.01323382
#
# Stress axis : x y z
#
# Youngs Moduli (GPa) = 83.67338 83.67338 81.35307
#
# Poissons Ratio (x) = 0.29131 0.32536
# Poissons Ratio (y) = 0.29131 0.32536
# Poissons Ratio (z) = 0.33464 0.33464
#
# Static dielectric constant tensor:
#      x y z
#    x 4.352900 0.000000 0.000000 
#    y 0.000000 4.352900 0.000000 
#    z 0.000000 0.000000 3.857350 
# 
# 
# High freq. dielectric constant tensor:
#      x y z
#    x 1.889140 0.000000 0.000000 
#    y 0.000000 1.889140 0.000000 
#    z 0.000000 0.000000 1.867020 
# 
# From -- ./inp_files/4529.got.cif
#   From: 2010.03.12/outbox.cif.g09.slc.cpg/sg94_3_cif.got.tgz:4529.got - 2010.04.08 20:48:32.
