data_PCOD8305030
_publ_section_title
;
Structure prediction by ZEFSAII (Michael W. Deem and Ramdas Pophale) SiO2 
 PCOD8305030
Probable space group: P 41 2 2
;
_chemical_formula_sum "Si O2"
_cell_formula_units_Z 40
_cell_length_a 8.479408
_cell_length_b 8.479408
_cell_length_c 24.071069
_cell_angle_alpha 90.000000
_cell_angle_beta 90.000000
_cell_angle_gamma 90.000000
_cell_volume 1730.718527
_symmetry_space_group_name_H-M "P 41 2 2"
_symmetry_group_IT_number 91
_symmetry_cell_setting 'tetragonal'
loop_
_space_group_symop_operation_xyz
x,y,z
-y,x,1/4+z
-x,-y,1/2+z
y,-x,3/4+z
x,-y,1/2-z
-x,y,-z
y,x,3/4-z
-y,-x,1/4-z
loop_
_atom_site_type_symbol
_atom_site_label
_atom_site_fract_x
_atom_site_fract_y
_atom_site_fract_z
Si Si1 0.302801 0.925285 0.306935
Si Si2 0.920831 0.458328 0.655220
Si Si3 0.960159 0.799051 0.324205
Si Si4 0.627760 0.620281 0.115523
Si Si5 0.659367 0.816826 0.525369
O O1 0.401395 0.765629 0.320285
O O2 0.118445 0.885259 0.304413
O O3 0.361970 0.000000 0.250000
O O4 0.346103 0.055856 0.352366
O O5 0.734564 0.492892 0.659834
O O6 0.012588 0.624390 0.651836
O O7 0.998128 0.367385 0.707406
O O8 0.896920 0.896920 0.375000
O O9 0.834117 0.793272 0.272428
O O10 0.550892 0.449108 0.125000
O O11 0.707036 0.700297 0.171215
O O12 0.500000 0.743140 0.500000
#
# Coordination Sequence:
#
# PCOD8305030 Si02
#       5
#     8   8   8   8   8
#     4  10  23  40  61  93 129 166 209 261 319 384
#     4   9  21  40  58  85 124 161 203 254 316 381
#     4  10  22  41  65  90 123 167 215 266 323 386
#     4  10  22  40  64  94 127 169 217 263 319 387
#     4   9  20  39  61  88 126 165 203 264 326 374
#
# _framework density 23.111789999999999
#
# number of rings (size 3 to 8) (size 9 to 14) (size 15 to 20)
#    0.000    2.400    0.000    0.000    0.000   17.600 
#    0.000    5.000    0.000    0.000    0.000    0.000 
#    0.000    0.000    0.000    0.000    0.000    0.000 
#
# Total GULP energy -495674.039557 kJ/mol
# GULP energy per Si atom -12391.850989 kJ/mol
# Density = 2.305919 g / cm^3
# Si number density = 23.111790 Si / 1000 Ang^3
#
#
#
# Elastic Constant Matrix: (Units=GPa)
#
#
# Indices 1 2 3 4 5 6 
#
# 1 59.5155 41.0329 29.8886 0.0000 0.0000 0.0000
# 2 41.0329 59.5161 29.8881 0.0000 0.0000 0.0000
# 3 29.8886 29.8881 93.3265 0.0000 0.0000 0.0000
# 4 0.0000 0.0000 0.0000 33.8176 0.0000 0.0000
# 5 0.0000 0.0000 0.0000 0.0000 33.8173 0.0000
# 6 0.0000 0.0000 0.0000 0.0000 0.0000 33.7652
#
#
#
# Elastic Compliance Matrix: (Units=1/GPa)
#
#
# Indices 1 2 3 4 5 6 
#
# 1 0.033194 -0.020910 -0.003934 0.000000 0.000000 0.000000
# 2 -0.020910 0.033194 -0.003934 0.000000 0.000000 0.000000
# 3 -0.003934 -0.003934 0.013235 0.000000 0.000000 0.000000
# 4 0.000000 0.000000 0.000000 0.029570 0.000000 0.000000
# 5 0.000000 0.000000 0.000000 0.000000 0.029571 0.000000
# 6 0.000000 0.000000 0.000000 0.000000 0.000000 0.029616
#
#
# Mechanical properties :
#
#
# Convention : Reuss Voigt Hill
#
# Bulk Modulus (GPa) = 45.31647 45.99747 45.65697
# Shear Modulus (GPa) = 21.43233 27.71659 24.57446
#
# Velocity S-wave (km/s) = 3.04852 3.46676 3.26435
# Velocity P-wave (km/s) = 5.66051 5.99750 5.83144
#
# Compressibility (1/GPa) = 0.02206703
#
# Stress axis : x y z
#
# Youngs Moduli (GPa) = 30.12553 30.12604 75.55774
#
# Poissons Ratio (x) = 0.62993 0.29727
# Poissons Ratio (y) = 0.62992 0.29724
# Poissons Ratio (z) = 0.11852 0.11851
#
# Static dielectric constant tensor:
#      x y z
#    x 4.033350 0.000000 0.000000 
#    y 0.000000 4.033340 0.000000 
#    z 0.000000 0.000000 4.262480 
# 
# 
# High freq. dielectric constant tensor:
#      x y z
#    x 1.899160 0.000000 0.000000 
#    y 0.000000 1.899160 0.000000 
#    z 0.000000 0.000000 1.915860 
# 
# From -- ./inp_files/6801.got.cif
#   From: 2010.03.12/outbox.cif.g09.slc.cpg/sg91_4_cif.got.tgz:6801.got - 2010.04.08 20:27:58.
