data_PCOD8305881
_publ_section_title
;
Structure prediction by ZEFSAII (Michael W. Deem and Ramdas Pophale) SiO2 
 PCOD8305881
Probable space group: P 43 21 2
;
_chemical_formula_sum "Si O2"
_cell_formula_units_Z 52
_cell_length_a 16.913914
_cell_length_b 16.913914
_cell_length_c 9.708419
_cell_angle_alpha 90.000000
_cell_angle_beta 90.000000
_cell_angle_gamma 90.000000
_cell_volume 2777.389234
_symmetry_space_group_name_H-M "P 43 21 2"
_symmetry_group_IT_number 96
_symmetry_cell_setting 'tetragonal'
loop_
_space_group_symop_operation_xyz
x,y,z
1/2-y,1/2+x,3/4+z
-x,-y,1/2+z
1/2+y,1/2-x,1/4+z
1/2+x,1/2-y,1/4-z
1/2-x,1/2+y,3/4-z
y,x,-z
-y,-x,1/2-z
loop_
_atom_site_type_symbol
_atom_site_label
_atom_site_fract_x
_atom_site_fract_y
_atom_site_fract_z
Si Si1 0.930089 0.506747 0.162447
Si Si2 0.311895 0.518040 0.258375
Si Si3 0.230289 0.565832 0.604919
Si Si4 0.278596 0.404123 0.474296
Si Si5 0.926559 0.945247 0.219188
Si Si6 0.623538 0.175152 0.675012
Si Si7 0.872052 0.872052 0.500000
O O1 0.850928 0.456882 0.176109
O O2 0.921794 0.592456 0.091141
O O3 0.961767 0.508225 0.316282
O O4 0.277164 0.433994 0.314489
O O5 0.367744 0.552849 0.380319
O O6 0.360744 0.505497 0.117659
O O7 0.237698 0.576766 0.228218
O O8 0.273300 0.483152 0.566465
O O9 0.215599 0.624611 0.475908
O O10 0.280469 0.613827 0.716155
O O11 0.362285 0.362285 0.500000
O O12 0.209335 0.341472 0.509403
O O13 0.892552 0.924039 0.367494
O O14 0.003311 0.996690 0.250000
#
# Coordination Sequence:
#
# PCOD8305881 Si02
#       7
#     8   8   8   8   8   8   4
#     4   9  18  37  62  84 111 151 198 243 291 357
#     4  10  21  39  56  94 117 149 215 256 288 384
#     4   9  20  35  57  87 114 156 201 238 297 380
#     4  10  19  31  60  85 116 152 200 245 309 358
#     4  11  23  35  61  85 127 162 205 248 307 368
#     4   9  18  36  60  85 115 154 198 248 301 357
#     4  12  20  36  60  84 124 164 192 250 322 358
#
# _framework density 18.722619999999999
#
# number of rings (size 3 to 8) (size 9 to 14) (size 15 to 20)
#    0.000    2.154    3.077    2.308    4.308    0.000 
#    2.769    0.000    6.769    0.000    2.000    0.000 
#    0.000    0.000    0.000    0.000    0.000    0.000 
#
# Total GULP energy -644408.917816 kJ/mol
# GULP energy per Si atom -12392.479189 kJ/mol
# Density = 1.868001 g / cm^3
# Si number density = 18.722620 Si / 1000 Ang^3
#
#
#
# Elastic Constant Matrix: (Units=GPa)
#
#
# Indices 1 2 3 4 5 6 
#
# 1 84.7399 63.7341 51.5043 0.0000 0.0000 0.0000
# 2 63.7341 84.7421 51.5054 0.0000 0.0000 0.0000
# 3 51.5043 51.5054 107.9034 0.0000 0.0000 0.0000
# 4 0.0000 0.0000 0.0000 30.3278 0.0000 0.0000
# 5 0.0000 0.0000 0.0000 0.0000 30.3263 0.0000
# 6 0.0000 0.0000 0.0000 0.0000 0.0000 35.6790
#
#
#
# Elastic Compliance Matrix: (Units=1/GPa)
#
#
# Indices 1 2 3 4 5 6 
#
# 1 0.028837 -0.018767 -0.004806 0.000000 0.000000 0.000000
# 2 -0.018767 0.028836 -0.004807 0.000000 0.000000 0.000000
# 3 -0.004806 -0.004807 0.013856 0.000000 0.000000 0.000000
# 4 0.000000 0.000000 0.000000 0.032973 0.000000 0.000000
# 5 0.000000 0.000000 0.000000 0.000000 0.032975 0.000000
# 6 0.000000 0.000000 0.000000 0.000000 0.000000 0.028028
#
#
# Mechanical properties :
#
#
# Convention : Reuss Voigt Hill
#
# Bulk Modulus (GPa) = 67.70695 67.87478 67.79087
# Shear Modulus (GPa) = 22.00822 26.64274 24.32548
#
# Velocity S-wave (km/s) = 3.43226 3.77639 3.60843
# Velocity P-wave (km/s) = 7.20756 7.43951 7.32445
#
# Compressibility (1/GPa) = 0.01476953
#
# Stress axis : x y z
#
# Youngs Moduli (GPa) = 34.67781 34.67841 72.17011
#
# Poissons Ratio (x) = 0.65080 0.34688
# Poissons Ratio (y) = 0.65079 0.34690
# Poissons Ratio (z) = 0.16668 0.16669
#
# Static dielectric constant tensor:
#      x y z
#    x 3.604350 0.000000 0.000000 
#    y 0.000000 3.604350 0.000000 
#    z 0.000000 0.000000 3.400400 
# 
# 
# High freq. dielectric constant tensor:
#      x y z
#    x 1.726600 0.000000 0.000000 
#    y 0.000000 1.726600 0.000000 
#    z 0.000000 0.000000 1.706540 
# 
# From -- ./inp_files/1565.got.cif
#   From: 2010.03.12/outbox.cif.g09.slc.cpg/sg96_1_cif.got.tgz:1565.got - 2010.04.08 20:56:49.
