data_PCOD8305512
_publ_section_title
;
Structure prediction by ZEFSAII (Michael W. Deem and Ramdas Pophale) SiO2 
 PCOD8305512
Probable space group: P 42 2 2
;
_chemical_formula_sum "Si O2"
_cell_formula_units_Z 64
_cell_length_a 11.552962
_cell_length_b 11.552962
_cell_length_c 24.984321
_cell_angle_alpha 90.000000
_cell_angle_beta 90.000000
_cell_angle_gamma 90.000000
_cell_volume 3334.680584
_symmetry_space_group_name_H-M "P 42 2 2"
_symmetry_group_IT_number 93
_symmetry_cell_setting 'tetragonal'
loop_
_space_group_symop_operation_xyz
x,y,z
-y,x,1/2+z
-x,-y,z
y,-x,1/2+z
x,-y,-z
-x,y,-z
y,x,1/2-z
-y,-x,1/2-z
loop_
_atom_site_type_symbol
_atom_site_label
_atom_site_fract_x
_atom_site_fract_y
_atom_site_fract_z
Si Si1 0.187762 0.128147 0.007892
Si Si2 0.515908 0.134371 0.832472
Si Si3 0.265564 0.841066 0.399463
Si Si4 0.122491 0.234054 0.301572
Si Si5 0.555702 0.127072 0.949265
Si Si6 0.850339 0.268380 0.299946
Si Si7 0.251757 0.894635 0.603667
Si Si8 0.492508 0.137383 0.439600
O O1 0.307671 0.122295 0.040772
O O2 0.096285 0.190513 0.046150
O O3 0.192132 0.195347 0.952369
O O4 0.140435 0.000000 0.000000
O O5 0.631926 0.162167 0.798942
O O6 0.527477 0.190056 0.892446
O O7 0.406643 0.172418 0.796537
O O8 0.500000 0.000000 0.843793
O O9 0.213248 0.763357 0.353889
O O10 0.399997 0.808783 0.407438
O O11 0.260646 0.972846 0.378362
O O12 0.167484 0.167484 0.250000
O O13 0.175968 0.174805 0.353747
O O14 0.983575 0.228886 0.303573
O O15 0.500000 0.000000 0.948810
O O16 0.500000 0.196205 0.000000
O O17 0.792114 0.207887 0.250000
O O18 0.375594 0.831410 0.593181
O O19 0.500000 0.188335 0.500000
O O20 0.500000 0.000000 0.443343
#
# Coordination Sequence:
#
# PCOD8305512 Si02
#       8
#     8   8   8   8   8   8   8   8
#     4  12  21  31  53  91 122 151 192 239 306 357
#     4   9  20  38  59  84 113 152 205 241 273 353
#     4  11  23  36  58  86 119 164 195 241 302 354
#     4  11  23  40  63  89 119 158 197 246 300 348
#     4  10  17  31  54  81 115 153 195 239 277 338
#     4  11  24  41  61  88 121 155 197 244 300 355
#     4  11  22  37  57  85 121 159 201 243 295 362
#     4   9  18  37  57  78 114 160 209 243 280 350
#
# _framework density 19.192243000000001
#
# number of rings (size 3 to 8) (size 9 to 14) (size 15 to 20)
#    0.000    1.500    3.750    2.625    1.750    4.750 
#    0.000    3.750    0.000    2.625    0.000    1.750 
#    0.000    0.000    0.000    0.000    0.000    0.000 
#
# Total GULP energy -793201.919789 kJ/mol
# GULP energy per Si atom -12393.779997 kJ/mol
# Density = 1.914856 g / cm^3
# Si number density = 19.192243 Si / 1000 Ang^3
#
#
#
# Elastic Constant Matrix: (Units=GPa)
#
#
# Indices 1 2 3 4 5 6 
#
# 1 106.2757 31.7867 43.7461 0.0000 0.0000 0.0000
# 2 31.7867 106.2757 43.7466 0.0000 0.0000 0.0000
# 3 43.7461 43.7466 117.2371 0.0000 0.0000 0.0000
# 4 0.0000 0.0000 0.0000 42.9416 0.0000 0.0000
# 5 0.0000 0.0000 0.0000 0.0000 42.9415 0.0000
# 6 0.0000 0.0000 0.0000 0.0000 0.0000 5.4125
#
#
#
# Elastic Compliance Matrix: (Units=1/GPa)
#
#
# Indices 1 2 3 4 5 6 
#
# 1 0.011456 -0.001969 -0.003540 0.000000 0.000000 0.000000
# 2 -0.001969 0.011456 -0.003540 0.000000 0.000000 0.000000
# 3 -0.003540 -0.003540 0.011171 0.000000 0.000000 0.000000
# 4 0.000000 0.000000 0.000000 0.023287 0.000000 0.000000
# 5 0.000000 0.000000 0.000000 0.000000 0.023287 0.000000
# 6 0.000000 0.000000 0.000000 0.000000 0.000000 0.184759
#
#
# Mechanical properties :
#
#
# Convention : Reuss Voigt Hill
#
# Bulk Modulus (GPa) = 62.55872 63.14970 62.85421
# Shear Modulus (GPa) = 17.31049 32.29305 24.80177
#
# Velocity S-wave (km/s) = 3.00651 4.10641 3.59873
# Velocity P-wave (km/s) = 6.68721 7.44706 7.07734
#
# Compressibility (1/GPa) = 0.01598498
#
# Stress axis : x y z
#
# Youngs Moduli (GPa) = 87.29398 87.29371 89.51419
#
# Poissons Ratio (x) = 0.17190 0.31686
# Poissons Ratio (y) = 0.17190 0.31686
# Poissons Ratio (z) = 0.30900 0.30900
#
# Static dielectric constant tensor:
#      x y z
#    x 3.611160 0.000000 0.000000 
#    y 0.000000 3.611160 0.000000 
#    z 0.000000 0.000000 3.469860 
# 
# 
# High freq. dielectric constant tensor:
#      x y z
#    x 1.732450 0.000000 0.000000 
#    y 0.000000 1.732450 0.000000 
#    z 0.000000 0.000000 1.753910 
# 
# From -- ./inp_files/6984.got.cif
#   From: 2010.03.12/outbox.cif.g09.slc.cpg/sg93_4_cif.got.tgz:6984.got - 2010.04.08 20:44:19.
