data_PCOD8305504
_publ_section_title
;
Structure prediction by ZEFSAII (Michael W. Deem and Ramdas Pophale) SiO2 
 PCOD8305504
Probable space group: P 41 21 2
;
_chemical_formula_sum "Si O2"
_cell_formula_units_Z 24
_cell_length_a 7.209844
_cell_length_b 7.209844
_cell_length_c 16.231621
_cell_angle_alpha 90.000000
_cell_angle_beta 90.000000
_cell_angle_gamma 90.000000
_cell_volume 843.749696
_symmetry_space_group_name_H-M "P 41 21 2"
_symmetry_group_IT_number 92
_symmetry_cell_setting 'tetragonal'
loop_
_space_group_symop_operation_xyz
x,y,z
1/2-y,1/2+x,1/4+z
-x,-y,1/2+z
1/2+y,1/2-x,3/4+z
1/2+x,1/2-y,3/4-z
1/2-x,1/2+y,1/4-z
y,x,-z
-y,-x,1/2-z
loop_
_atom_site_type_symbol
_atom_site_label
_atom_site_fract_x
_atom_site_fract_y
_atom_site_fract_z
Si Si1 0.893152 0.225605 0.045265
Si Si2 0.026907 0.123805 0.644377
Si Si3 0.339706 0.004795 0.133139
O O1 0.683239 0.304895 0.042919
O O2 0.012028 0.341128 0.111609
O O3 0.882944 0.013299 0.076461
O O4 0.001056 0.253289 0.959329
O O5 0.846794 0.027647 0.689263
O O6 0.199848 0.436601 0.844290
#
# Coordination Sequence:
#
# PCOD8305504 Si02
#       3
#     8   8   8
#     4  12  29  50  83 120 162 215 280 342 419 487
#     4  12  27  52  79 118 161 213 273 337 408 496
#     4  12  29  49  82 122 166 216 275 349 418 488
#
# _framework density 28.444455000000001
#
# number of rings (size 3 to 8) (size 9 to 14) (size 15 to 20)
#    0.000    0.000    6.667    1.000    4.667    6.667 
#    0.000    0.000    0.000    0.000    0.000    0.000 
#    0.000    0.000    0.000    0.000    0.000    0.000 
#
# Total GULP energy -297448.518768 kJ/mol
# GULP energy per Si atom -12393.688282 kJ/mol
# Density = 2.837971 g / cm^3
# Si number density = 28.444455 Si / 1000 Ang^3
#
#
#
# Elastic Constant Matrix: (Units=GPa)
#
#
# Indices 1 2 3 4 5 6 
#
# 1 207.8534 68.3304 42.6907 0.0000 0.0000 0.0000
# 2 68.3304 207.8534 42.6907 0.0000 0.0000 0.0000
# 3 42.6907 42.6907 48.3224 0.0000 0.0000 0.0000
# 4 0.0000 0.0000 0.0000 25.7317 0.0000 0.0000
# 5 0.0000 0.0000 0.0000 0.0000 25.7317 0.0000
# 6 0.0000 0.0000 0.0000 0.0000 0.0000 66.5133
#
#
#
# Elastic Compliance Matrix: (Units=1/GPa)
#
#
# Indices 1 2 3 4 5 6 
#
# 1 0.006074 -0.001093 -0.004401 0.000000 0.000000 0.000000
# 2 -0.001093 0.006074 -0.004401 0.000000 0.000000 0.000000
# 3 -0.004401 -0.004401 0.028470 0.000000 0.000000 0.000000
# 4 0.000000 0.000000 0.000000 0.038863 0.000000 0.000000
# 5 0.000000 0.000000 0.000000 0.000000 0.038863 0.000000
# 6 0.000000 0.000000 0.000000 0.000000 0.000000 0.015035
#
#
# Mechanical properties :
#
#
# Convention : Reuss Voigt Hill
#
# Bulk Modulus (GPa) = 48.00846 85.71697 66.86272
# Shear Modulus (GPa) = 31.22848 44.28317 37.75582
#
# Velocity S-wave (km/s) = 3.31702 3.94995 3.64724
# Velocity P-wave (km/s) = 5.62003 7.14164 6.42603
#
# Compressibility (1/GPa) = 0.02082966
#
# Stress axis : x y z
#
# Youngs Moduli (GPa) = 164.62910 164.62910 35.12469
#
# Poissons Ratio (x) = 0.17994 0.15457
# Poissons Ratio (y) = 0.17994 0.15457
# Poissons Ratio (z) = 0.72448 0.72448
#
# Static dielectric constant tensor:
#      x y z
#    x 5.821650 0.000000 0.000000 
#    y 0.000000 5.821650 0.000000 
#    z 0.000000 0.000000 4.636880 
# 
# 
# High freq. dielectric constant tensor:
#      x y z
#    x 2.178890 0.000000 0.000000 
#    y 0.000000 2.178890 0.000000 
#    z 0.000000 0.000000 2.136310 
# 
# From -- ./inp_files/2460.got.cif
#   From: 2010.03.12/outbox.cif.g09.slc.cpg/sg92_2_cif.got.tgz:2460.got - 2010.04.08 20:41:11.
