data_PCOD8305200
_publ_section_title
;
Structure prediction by ZEFSAII (Michael W. Deem and Ramdas Pophale) SiO2 
 PCOD8305200
Probable space group: P 41 21 2
;
_chemical_formula_sum "Si O2"
_cell_formula_units_Z 56
_cell_length_a 26.974272
_cell_length_b 26.974272
_cell_length_c 5.145303
_cell_angle_alpha 90.000000
_cell_angle_beta 90.000000
_cell_angle_gamma 90.000000
_cell_volume 3743.780862
_symmetry_space_group_name_H-M "P 41 21 2"
_symmetry_group_IT_number 92
_symmetry_cell_setting 'tetragonal'
loop_
_space_group_symop_operation_xyz
x,y,z
1/2-y,1/2+x,1/4+z
-x,-y,1/2+z
1/2+y,1/2-x,3/4+z
1/2+x,1/2-y,3/4-z
1/2-x,1/2+y,1/4-z
y,x,-z
-y,-x,1/2-z
loop_
_atom_site_type_symbol
_atom_site_label
_atom_site_fract_x
_atom_site_fract_y
_atom_site_fract_z
Si Si1 0.766990 0.845261 0.005661
Si Si2 0.453347 0.942599 0.222535
Si Si3 0.641421 0.804226 0.505598
Si Si4 0.737827 0.183776 0.247822
Si Si5 0.147492 0.460015 0.837219
Si Si6 0.113063 0.275044 0.997683
Si Si7 0.478040 0.839411 0.155516
O O1 0.727792 0.801351 0.992960
O O2 0.755641 0.883680 0.771485
O O3 0.822260 0.822260 0.000000
O O4 0.763289 0.872767 0.278531
O O5 0.510805 0.944051 0.292502
O O6 0.411105 0.945456 0.449087
O O7 0.447301 0.889532 0.075315
O O8 0.653134 0.765892 0.734108
O O9 0.585711 0.821723 0.550570
O O10 0.677336 0.851487 0.510949
O O11 0.647265 0.773518 0.238708
O O12 0.793021 0.206980 0.250000
O O13 0.169442 0.479602 0.563204
O O14 0.151908 0.501902 0.055222
O O15 0.057779 0.292424 0.069254
#
# Coordination Sequence:
#
# PCOD8305200 Si02
#       7
#     8   8   8   8   8   8   8
#     4   9  17  28  46  65  83 102 125 159 209 267
#     4  10  20  34  46  60  73 100 140 194 233 268
#     4  10  18  31  44  62  84 105 133 169 215 260
#     4   9  17  28  46  65  83 102 125 159 209 267
#     4  11  22  33  46  61  81 109 142 177 225 270
#     4  10  18  31  44  62  84 105 133 169 215 260
#     4  11  22  33  46  61  81 109 142 177 225 270
#
# _framework density 14.958142
#
# number of rings (size 3 to 8) (size 9 to 14) (size 15 to 20)
#    0.000    2.000    1.429    3.429    0.000    6.857 
#    0.000    0.000    0.000    0.000    0.000    0.000 
#    0.000    0.000    0.000    0.000    0.000    0.000 
#
# Total GULP energy -693934.889138 kJ/mol
# GULP energy per Si atom -12391.694449 kJ/mol
# Density = 1.492410 g / cm^3
# Si number density = 14.958142 Si / 1000 Ang^3
#
#
#
# Elastic Constant Matrix: (Units=GPa)
#
#
# Indices 1 2 3 4 5 6 
#
# 1 34.7755 25.9333 13.3234 0.0000 0.0000 0.0000
# 2 25.9333 34.7764 13.3241 0.0000 0.0000 0.0000
# 3 13.3234 13.3241 85.8554 0.0000 0.0000 0.0000
# 4 0.0000 0.0000 0.0000 19.6244 0.0000 0.0000
# 5 0.0000 0.0000 0.0000 0.0000 19.6247 0.0000
# 6 0.0000 0.0000 0.0000 0.0000 0.0000 25.9897
#
#
#
# Elastic Compliance Matrix: (Units=1/GPa)
#
#
# Indices 1 2 3 4 5 6 
#
# 1 0.065383 -0.047706 -0.002743 0.000000 0.000000 0.000000
# 2 -0.047706 0.065381 -0.002743 0.000000 0.000000 0.000000
# 3 -0.002743 -0.002743 0.012499 0.000000 0.000000 0.000000
# 4 0.000000 0.000000 0.000000 0.050957 0.000000 0.000000
# 5 0.000000 0.000000 0.000000 0.000000 0.050956 0.000000
# 6 0.000000 0.000000 0.000000 0.000000 0.000000 0.038477
#
#
# Mechanical properties :
#
#
# Convention : Reuss Voigt Hill
#
# Bulk Modulus (GPa) = 27.11609 28.95210 28.03409
# Shear Modulus (GPa) = 12.42760 19.90286 16.16523
#
# Velocity S-wave (km/s) = 2.88553 3.65166 3.29096
# Velocity P-wave (km/s) = 5.41009 6.09728 5.76394
#
# Compressibility (1/GPa) = 0.03687848
#
# Stress axis : x y z
#
# Youngs Moduli (GPa) = 15.29454 15.29489 80.00714
#
# Poissons Ratio (x) = 0.72966 0.21944
# Poissons Ratio (y) = 0.72964 0.21949
# Poissons Ratio (z) = 0.04195 0.04196
#
# Static dielectric constant tensor:
#      x y z
#    x 2.822810 0.000000 0.000000 
#    y 0.000000 2.822800 0.000000 
#    z 0.000000 0.000000 3.005380 
# 
# 
# High freq. dielectric constant tensor:
#      x y z
#    x 1.538320 0.000000 0.000000 
#    y 0.000000 1.538320 0.000000 
#    z 0.000000 0.000000 1.586340 
# 
# From -- ./inp_files/843.got.cif
#   From: 2010.03.12/outbox.cif.g09.slc.cpg/sg92_1_cif.got.tgz:843.got - 2010.04.08 20:41:11.
