data_PCOD8305681
_publ_section_title
;
Structure prediction by ZEFSAII (Michael W. Deem and Ramdas Pophale) SiO2 
 PCOD8305681
Probable space group: P 42 21 2
;
_chemical_formula_sum "Si O2"
_cell_formula_units_Z 56
_cell_length_a 14.992397
_cell_length_b 14.992397
_cell_length_c 13.339343
_cell_angle_alpha 90.000000
_cell_angle_beta 90.000000
_cell_angle_gamma 90.000000
_cell_volume 2998.310375
_symmetry_space_group_name_H-M "P 42 21 2"
_symmetry_group_IT_number 94
_symmetry_cell_setting 'tetragonal'
loop_
_space_group_symop_operation_xyz
x,y,z
1/2-y,1/2+x,1/2+z
-x,-y,z
1/2+y,1/2-x,1/2+z
1/2+x,1/2-y,1/2-z
1/2-x,1/2+y,1/2-z
y,x,-z
-y,-x,-z
loop_
_atom_site_type_symbol
_atom_site_label
_atom_site_fract_x
_atom_site_fract_y
_atom_site_fract_z
Si Si1 0.908194 0.205756 0.571332
Si Si2 0.864151 0.347340 0.861155
Si Si3 0.376587 0.924421 0.922015
Si Si4 0.850737 0.186144 0.112726
Si Si5 0.311304 0.568253 0.932046
Si Si6 0.926514 0.389063 0.651664
Si Si7 0.048491 0.913984 0.276748
O O1 0.830309 0.169692 0.500000
O O2 0.876089 0.300363 0.614160
O O3 0.933322 0.137949 0.660319
O O4 0.995238 0.226799 0.507130
O O5 0.844997 0.243059 0.841501
O O6 0.767921 0.391590 0.867889
O O7 0.920923 0.390303 0.771730
O O8 0.922342 0.371252 0.958198
O O9 0.293571 0.864291 0.882897
O O10 0.469447 0.886844 0.878924
O O11 0.370737 0.027852 0.891329
O O12 0.929920 0.147292 0.181228
O O13 0.853606 0.146395 0.000000
O O14 0.377407 0.524874 0.853136
O O15 0.356247 0.643754 0.000000
O O16 0.000000 0.000000 0.231049
#
# Coordination Sequence:
#
# PCOD8305681 Si02
#       7
#     8   8   8   8   8   8   8
#     4  10  21  37  60  92 125 149 189 253 309 353
#     4  11  22  39  62  88 120 159 200 252 296 361
#     4  10  23  40  61  85 118 160 205 243 292 365
#     4  10  22  41  61  86 122 162 202 247 295 358
#     4  11  20  35  63  91 118 153 200 246 304 357
#     4  11  22  41  61  87 122 156 202 250 304 358
#     4  11  21  36  62  93 121 153 198 250 302 357
#
# _framework density 18.677185000000001
#
# number of rings (size 3 to 8) (size 9 to 14) (size 15 to 20)
#    0.000    1.429    4.286    2.143    0.000    2.571 
#    5.143    0.000    9.429    0.000    0.000    0.000 
#    0.000    0.000    0.000    0.000    0.000    0.000 
#
# Total GULP energy -694226.255048 kJ/mol
# GULP energy per Si atom -12396.897412 kJ/mol
# Density = 1.863468 g / cm^3
# Si number density = 18.677185 Si / 1000 Ang^3
#
#
#
# Elastic Constant Matrix: (Units=GPa)
#
#
# Indices 1 2 3 4 5 6 
#
# 1 160.2313 -27.6547 50.6917 0.0000 0.0000 0.0000
# 2 -27.6547 160.2401 50.6834 0.0000 0.0000 0.0000
# 3 50.6917 50.6834 103.2814 0.0000 0.0000 0.0000
# 4 0.0000 0.0000 0.0000 14.1975 0.0000 0.0000
# 5 0.0000 0.0000 0.0000 0.0000 14.1927 0.0000
# 6 0.0000 0.0000 0.0000 0.0000 0.0000 23.9365
#
#
#
# Elastic Compliance Matrix: (Units=1/GPa)
#
#
# Indices 1 2 3 4 5 6 
#
# 1 0.008698 0.003375 -0.005926 0.000000 0.000000 0.000000
# 2 0.003375 0.008697 -0.005925 0.000000 0.000000 0.000000
# 3 -0.005926 -0.005925 0.015498 0.000000 0.000000 0.000000
# 4 0.000000 0.000000 0.000000 0.070435 0.000000 0.000000
# 5 0.000000 0.000000 0.000000 0.000000 0.070459 0.000000
# 6 0.000000 0.000000 0.000000 0.000000 0.000000 0.041777
#
#
# Mechanical properties :
#
#
# Convention : Reuss Voigt Hill
#
# Bulk Modulus (GPa) = 62.72066 63.46596 63.09331
# Shear Modulus (GPa) = 21.02355 33.80083 27.41219
#
# Velocity S-wave (km/s) = 3.35868 4.25872 3.83519
# Velocity P-wave (km/s) = 6.97820 7.63128 7.31204
#
# Compressibility (1/GPa) = 0.01594371
#
# Stress axis : x y z
#
# Youngs Moduli (GPa) = 114.96625 114.98061 64.52425
#
# Poissons Ratio (x) = -0.38811 0.38234
# Poissons Ratio (y) = -0.38806 0.38228
# Poissons Ratio (z) = 0.68124 0.68122
#
# Static dielectric constant tensor:
#      x y z
#    x 3.456320 0.000000 0.000000 
#    y 0.000000 3.456320 0.000000 
#    z 0.000000 0.000000 3.256160 
# 
# 
# High freq. dielectric constant tensor:
#      x y z
#    x 1.724700 0.000000 0.000000 
#    y 0.000000 1.724700 0.000000 
#    z 0.000000 0.000000 1.729740 
# 
# From -- ./inp_files/2727.got.cif
#   From: 2010.03.12/outbox.cif.g09.slc.cpg/sg94_2_cif.got.tgz:2727.got - 2010.04.08 20:48:32.
