data_PCOD8305918
_publ_section_title
;
Structure prediction by ZEFSAII (Michael W. Deem and Ramdas Pophale) SiO2 
 PCOD8305918
Probable space group: P 43 21 2
;
_chemical_formula_sum "Si O2"
_cell_formula_units_Z 32
_cell_length_a 7.503813
_cell_length_b 7.503813
_cell_length_c 25.947433
_cell_angle_alpha 90.000000
_cell_angle_beta 90.000000
_cell_angle_gamma 90.000000
_cell_volume 1461.027547
_symmetry_space_group_name_H-M "P 43 21 2"
_symmetry_group_IT_number 96
_symmetry_cell_setting 'tetragonal'
loop_
_space_group_symop_operation_xyz
x,y,z
1/2-y,1/2+x,3/4+z
-x,-y,1/2+z
1/2+y,1/2-x,1/4+z
1/2+x,1/2-y,1/4-z
1/2-x,1/2+y,3/4-z
y,x,-z
-y,-x,1/2-z
loop_
_atom_site_type_symbol
_atom_site_label
_atom_site_fract_x
_atom_site_fract_y
_atom_site_fract_z
Si Si1 0.803480 0.321461 0.329551
Si Si2 0.111427 0.293759 0.412444
Si Si3 0.905120 0.077526 0.592660
Si Si4 0.467164 0.895092 0.775918
O O1 0.633485 0.412075 0.358829
O O2 0.727312 0.140253 0.302594
O O3 0.874582 0.457022 0.285427
O O4 0.967603 0.288676 0.366589
O O5 0.301131 0.365020 0.392310
O O6 0.136259 0.092871 0.432145
O O7 0.042478 0.411608 0.459809
O O8 0.754333 0.104209 0.548615
#
# Coordination Sequence:
#
# PCOD8305918 Si02
#       4
#     8   8   8   8
#     4   9  21  39  59  86 119 152 195 248 295 342
#     4  12  20  38  66  82 122 161 195 238 302 354
#     4  10  21  36  61  87 116 154 193 246 286 353
#     4   9  21  39  56  90 114 149 202 240 293 350
#
# _framework density 21.902391999999999
#
# number of rings (size 3 to 8) (size 9 to 14) (size 15 to 20)
#    1.500    0.500    2.500    1.500    0.000    4.000 
#    0.000    0.000    0.000    0.000    0.000    0.000 
#    0.000    0.000    0.000    0.000    0.000    0.000 
#
# Total GULP energy -396431.779638 kJ/mol
# GULP energy per Si atom -12388.493114 kJ/mol
# Density = 2.185254 g / cm^3
# Si number density = 21.902392 Si / 1000 Ang^3
#
#
#
# Elastic Constant Matrix: (Units=GPa)
#
#
# Indices 1 2 3 4 5 6 
#
# 1 72.8471 13.6050 10.7341 0.0000 0.0000 0.0000
# 2 13.6050 72.8471 10.7341 0.0000 0.0000 0.0000
# 3 10.7341 10.7341 31.9559 0.0000 0.0000 0.0000
# 4 0.0000 0.0000 0.0000 19.4964 0.0000 0.0000
# 5 0.0000 0.0000 0.0000 0.0000 19.4964 0.0000
# 6 0.0000 0.0000 0.0000 0.0000 0.0000 16.8659
#
#
#
# Elastic Compliance Matrix: (Units=1/GPa)
#
#
# Indices 1 2 3 4 5 6 
#
# 1 0.014750 -0.002130 -0.004239 0.000000 0.000000 0.000000
# 2 -0.002130 0.014750 -0.004239 0.000000 0.000000 0.000000
# 3 -0.004239 -0.004239 0.034141 0.000000 0.000000 0.000000
# 4 0.000000 0.000000 0.000000 0.051292 0.000000 0.000000
# 5 0.000000 0.000000 0.000000 0.000000 0.051292 0.000000
# 6 0.000000 0.000000 0.000000 0.000000 0.000000 0.059291
#
#
# Mechanical properties :
#
#
# Convention : Reuss Voigt Hill
#
# Bulk Modulus (GPa) = 23.57139 27.53297 25.55218
# Shear Modulus (GPa) = 19.16644 20.67685 19.92165
#
# Velocity S-wave (km/s) = 2.96139 3.07587 3.01917
# Velocity P-wave (km/s) = 4.74115 5.02122 4.88319
#
# Compressibility (1/GPa) = 0.04242431
#
# Stress axis : x y z
#
# Youngs Moduli (GPa) = 67.79742 67.79742 29.29036
#
# Poissons Ratio (x) = 0.14441 0.12416
# Poissons Ratio (y) = 0.14441 0.12416
# Poissons Ratio (z) = 0.28740 0.28740
#
# Static dielectric constant tensor:
#      x y z
#    x 3.885700 0.000000 0.000000 
#    y 0.000000 3.885700 0.000000 
#    z 0.000000 0.000000 3.487240 
# 
# 
# High freq. dielectric constant tensor:
#      x y z
#    x 1.856260 0.000000 0.000000 
#    y 0.000000 1.856260 0.000000 
#    z 0.000000 0.000000 1.828360 
# 
# From -- ./inp_files/4015.got.cif
#   From: 2010.03.12/outbox.cif.g09.slc.cpg/sg96_3_cif.got.tgz:4015.got - 2010.04.08 20:56:49.
