data_PCOD8305826
_publ_section_title
;
Structure prediction by ZEFSAII (Michael W. Deem and Ramdas Pophale) SiO2 
 PCOD8305826
Probable space group: P 43 2 2
;
_chemical_formula_sum "Si O2"
_cell_formula_units_Z 44
_cell_length_a 8.938286
_cell_length_b 8.938286
_cell_length_c 26.500201
_cell_angle_alpha 90.000000
_cell_angle_beta 90.000000
_cell_angle_gamma 90.000000
_cell_volume 2117.179409
_symmetry_space_group_name_H-M "P 43 2 2"
_symmetry_group_IT_number 95
_symmetry_cell_setting 'tetragonal'
loop_
_space_group_symop_operation_xyz
x,y,z
-y,x,3/4+z
-x,-y,1/2+z
y,-x,1/4+z
x,-y,1/2-z
-x,y,-z
y,x,1/4-z
-y,-x,3/4-z
loop_
_atom_site_type_symbol
_atom_site_label
_atom_site_fract_x
_atom_site_fract_y
_atom_site_fract_z
Si Si1 0.767603 0.643428 0.421932
Si Si2 0.100750 0.650906 0.386668
Si Si3 0.470718 0.167244 0.768226
Si Si4 0.100653 0.570845 0.202006
Si Si5 0.778074 0.343586 0.270940
Si Si6 0.635927 0.635927 0.125000
O O1 0.744804 0.569776 0.476990
O O2 0.688165 0.802535 0.421444
O O3 0.679020 0.539388 0.381445
O O4 0.938526 0.686962 0.409685
O O5 0.200711 0.799290 0.375000
O O6 0.188543 0.545650 0.426781
O O7 0.059775 0.562563 0.335919
O O8 0.297933 0.225186 0.767750
O O9 0.464865 0.000000 0.750000
O O10 0.187668 0.500000 0.250000
O O11 0.957428 0.656129 0.226410
O O12 0.716462 0.500000 0.250000
O O13 0.722393 0.302079 0.326723
#
# Coordination Sequence:
#
# PCOD8305826 Si02
#       6
#     8   8   8   8   8   4
#     4  10  22  41  61  94 126 167 211 270 323 395
#     4  11  23  40  64  96 131 170 213 272 329 399
#     4   9  21  41  63  88 124 167 214 259 320 383
#     4  11  24  40  62  93 127 165 213 267 325 387
#     4  10  22  40  62  91 127 160 209 266 314 384
#     4  10  20  40  64  88 124 162 210 266 314 368
#
# _framework density 20.782364999999999
#
# number of rings (size 3 to 8) (size 9 to 14) (size 15 to 20)
#    0.000    1.818    1.818    1.091    3.818    4.364 
#    1.636    6.364    0.000    0.000    0.000    0.000 
#    0.000    0.000    0.000    0.000    0.000    0.000 
#
# Total GULP energy -545233.702825 kJ/mol
# GULP energy per Si atom -12391.675064 kJ/mol
# Density = 2.073506 g / cm^3
# Si number density = 20.782365 Si / 1000 Ang^3
#
#
#
# Elastic Constant Matrix: (Units=GPa)
#
#
# Indices 1 2 3 4 5 6 
#
# 1 89.6368 63.3869 24.6762 0.0000 0.0000 0.0000
# 2 63.3869 89.6361 24.6760 0.0000 0.0000 0.0000
# 3 24.6762 24.6760 89.1421 0.0000 0.0000 0.0000
# 4 0.0000 0.0000 0.0000 29.7456 0.0000 0.0000
# 5 0.0000 0.0000 0.0000 0.0000 29.7459 0.0000
# 6 0.0000 0.0000 0.0000 0.0000 0.0000 28.9904
#
#
#
# Elastic Compliance Matrix: (Units=1/GPa)
#
#
# Indices 1 2 3 4 5 6 
#
# 1 0.022636 -0.015460 -0.001986 0.000000 0.000000 0.000000
# 2 -0.015460 0.022636 -0.001986 0.000000 0.000000 0.000000
# 3 -0.001986 -0.001986 0.012318 0.000000 0.000000 0.000000
# 4 0.000000 0.000000 0.000000 0.033618 0.000000 0.000000
# 5 0.000000 0.000000 0.000000 0.000000 0.033618 0.000000
# 6 0.000000 0.000000 0.000000 0.000000 0.000000 0.034494
#
#
# Mechanical properties :
#
#
# Convention : Reuss Voigt Hill
#
# Bulk Modulus (GPa) = 53.40859 54.87703 54.14281
# Shear Modulus (GPa) = 24.45867 28.07478 26.26672
#
# Velocity S-wave (km/s) = 3.43431 3.67944 3.55899
# Velocity P-wave (km/s) = 6.44056 6.67188 6.55724
#
# Compressibility (1/GPa) = 0.01872358
#
# Stress axis : x y z
#
# Youngs Moduli (GPa) = 44.17817 44.17784 81.18372
#
# Poissons Ratio (x) = 0.68300 0.16126
# Poissons Ratio (y) = 0.68300 0.16126
# Poissons Ratio (z) = 0.08775 0.08775
#
# Static dielectric constant tensor:
#      x y z
#    x 3.656300 0.000000 0.000000 
#    y 0.000000 3.656300 0.000000 
#    z 0.000000 0.000000 4.089780 
# 
# 
# High freq. dielectric constant tensor:
#      x y z
#    x 1.800990 0.000000 0.000000 
#    y 0.000000 1.800990 0.000000 
#    z 0.000000 0.000000 1.830930 
# 
# From -- ./inp_files/7792.got.cif
#   From: 2010.03.12/outbox.cif.g09.slc.cpg/sg95_4_cif.got.tgz:7792.got - 2010.04.08 20:51:55.
