data_PCOD8305439
_publ_section_title
;
Structure prediction by ZEFSAII (Michael W. Deem and Ramdas Pophale) SiO2 
 PCOD8305439
Probable space group: P 41 21 2
;
_chemical_formula_sum "Si O2"
_cell_formula_units_Z 48
_cell_length_a 10.709276
_cell_length_b 10.709276
_cell_length_c 19.966979
_cell_angle_alpha 90.000000
_cell_angle_beta 90.000000
_cell_angle_gamma 90.000000
_cell_volume 2289.984717
_symmetry_space_group_name_H-M "P 41 21 2"
_symmetry_group_IT_number 92
_symmetry_cell_setting 'tetragonal'
loop_
_space_group_symop_operation_xyz
x,y,z
1/2-y,1/2+x,1/4+z
-x,-y,1/2+z
1/2+y,1/2-x,3/4+z
1/2+x,1/2-y,3/4-z
1/2-x,1/2+y,1/4-z
y,x,-z
-y,-x,1/2-z
loop_
_atom_site_type_symbol
_atom_site_label
_atom_site_fract_x
_atom_site_fract_y
_atom_site_fract_z
Si Si1 0.242347 0.308735 0.747055
Si Si2 0.656195 0.257688 0.137829
Si Si3 0.912636 0.403203 0.960767
Si Si4 0.980268 0.071150 0.436245
Si Si5 0.578011 0.683112 0.062925
Si Si6 0.038919 0.553158 0.076618
O O1 0.170394 0.224451 0.692176
O O2 0.364345 0.237512 0.775825
O O3 0.291864 0.431704 0.708015
O O4 0.144520 0.349864 0.803331
O O5 0.581468 0.375658 0.165328
O O6 0.791578 0.250266 0.171272
O O7 0.583625 0.130713 0.154497
O O8 0.788723 0.483256 0.957192
O O9 0.984603 0.406194 0.891030
O O10 0.002668 0.451278 0.020247
O O11 0.894917 0.021862 0.375496
O O12 0.976485 0.976485 0.500000
O O13 0.590775 0.590775 0.000000
#
# Coordination Sequence:
#
# PCOD8305439 Si02
#       6
#     8   8   8   8   8   8
#     4  11  25  41  65 101 134 181 229 279 350 414
#     4  11  21  39  70 100 130 171 231 292 346 393
#     4  12  26  45  68 105 139 183 228 287 352 416
#     4  11  22  38  64  95 130 171 221 286 335 405
#     4  11  22  36  65  99 132 170 227 289 345 404
#     4  12  23  44  72  98 141 179 226 290 346 417
#
# _framework density 20.960839
#
# number of rings (size 3 to 8) (size 9 to 14) (size 15 to 20)
#    0.000    0.667    5.000    4.500    4.667    1.333 
#    0.000    0.833    0.000    0.000    0.000    0.000 
#    0.000    0.000    0.000    0.000    0.000    0.000 
#
# Total GULP energy -595308.249699 kJ/mol
# GULP energy per Si atom -12402.255202 kJ/mol
# Density = 2.091313 g / cm^3
# Si number density = 20.960839 Si / 1000 Ang^3
#
#
#
# Elastic Constant Matrix: (Units=GPa)
#
#
# Indices 1 2 3 4 5 6 
#
# 1 65.9922 23.2808 37.2117 0.0000 0.0000 0.0000
# 2 23.2808 65.9922 37.2117 0.0000 0.0000 0.0000
# 3 37.2117 37.2117 149.4202 0.0000 0.0000 0.0000
# 4 0.0000 0.0000 0.0000 36.3669 0.0000 0.0000
# 5 0.0000 0.0000 0.0000 0.0000 36.3669 0.0000
# 6 0.0000 0.0000 0.0000 0.0000 0.0000 36.4362
#
#
#
# Elastic Compliance Matrix: (Units=1/GPa)
#
#
# Indices 1 2 3 4 5 6 
#
# 1 0.018775 -0.004638 -0.003521 0.000000 0.000000 0.000000
# 2 -0.004638 0.018775 -0.003521 0.000000 0.000000 0.000000
# 3 -0.003521 -0.003521 0.008446 0.000000 0.000000 0.000000
# 4 0.000000 0.000000 0.000000 0.027498 0.000000 0.000000
# 5 0.000000 0.000000 0.000000 0.000000 0.027498 0.000000
# 6 0.000000 0.000000 0.000000 0.000000 0.000000 0.027445
#
#
# Mechanical properties :
#
#
# Convention : Reuss Voigt Hill
#
# Bulk Modulus (GPa) = 44.17569 52.97923 48.57746
# Shear Modulus (GPa) = 31.37937 34.08068 32.73003
#
# Velocity S-wave (km/s) = 3.87337 4.03665 3.95585
# Velocity P-wave (km/s) = 6.41288 6.85975 6.64008
#
# Compressibility (1/GPa) = 0.02263688
#
# Stress axis : x y z
#
# Youngs Moduli (GPa) = 53.26295 53.26295 118.39830
#
# Poissons Ratio (x) = 0.24704 0.41683
# Poissons Ratio (y) = 0.24704 0.41683
# Poissons Ratio (z) = 0.18752 0.18752
#
# Static dielectric constant tensor:
#      x y z
#    x 3.712760 0.000000 0.000000 
#    y 0.000000 3.712760 0.000000 
#    z 0.000000 0.000000 4.184560 
# 
# 
# High freq. dielectric constant tensor:
#      x y z
#    x 1.807940 0.000000 0.000000 
#    y 0.000000 1.807940 0.000000 
#    z 0.000000 0.000000 1.842310 
# 
# From -- ./inp_files/3111.got.cif
#   From: 2010.03.12/outbox.cif.g09.slc.cpg/sg92_2_cif.got.tgz:3111.got - 2010.04.08 20:41:11.
