data_PCOD8305920
_publ_section_title
;
Structure prediction by ZEFSAII (Michael W. Deem and Ramdas Pophale) SiO2 
 PCOD8305920
Probable space group: P 43 21 2
;
_chemical_formula_sum "Si O2"
_cell_formula_units_Z 52
_cell_length_a 17.373630
_cell_length_b 17.373630
_cell_length_c 8.685899
_cell_angle_alpha 90.000000
_cell_angle_beta 90.000000
_cell_angle_gamma 90.000000
_cell_volume 2621.777980
_symmetry_space_group_name_H-M "P 43 21 2"
_symmetry_group_IT_number 96
_symmetry_cell_setting 'tetragonal'
loop_
_space_group_symop_operation_xyz
x,y,z
1/2-y,1/2+x,3/4+z
-x,-y,1/2+z
1/2+y,1/2-x,1/4+z
1/2+x,1/2-y,1/4-z
1/2-x,1/2+y,3/4-z
y,x,-z
-y,-x,1/2-z
loop_
_atom_site_type_symbol
_atom_site_label
_atom_site_fract_x
_atom_site_fract_y
_atom_site_fract_z
Si Si1 0.839782 0.639919 0.833241
Si Si2 0.745028 0.254973 0.750000
Si Si3 0.239086 0.358333 0.009874
Si Si4 0.244335 0.536491 0.941967
Si Si5 0.410315 0.009140 0.286495
Si Si6 0.858743 0.857674 0.173379
Si Si7 0.899529 0.721311 0.361682
O O1 0.782295 0.666436 0.976420
O O2 0.788489 0.641980 0.683402
O O3 0.918613 0.689375 0.813338
O O4 0.867215 0.554390 0.863644
O O5 0.706188 0.290977 0.903701
O O6 0.326032 0.326032 0.000000
O O7 0.238202 0.445720 0.954835
O O8 0.188130 0.300917 0.904437
O O9 0.221645 0.552039 0.767532
O O10 0.330664 0.567872 0.980890
O O11 0.476568 0.050169 0.384080
O O12 0.346245 0.071790 0.248137
O O13 0.914958 0.804974 0.278642
O O14 0.885342 0.885342 0.000000
#
# Coordination Sequence:
#
# PCOD8305920 Si02
#       7
#     8   4   8   8   8   8   8
#     4  10  21  37  61  85 129 164 209 252 314 363
#     4   8  16  32  56  86 110 156 210 254 272 362
#     4  11  23  38  62  88 123 161 204 257 312 361
#     4  10  21  38  61  86 120 161 204 255 307 370
#     4  12  27  37  57  89 136 175 204 251 319 391
#     4   9  19  35  64  86 114 151 214 256 302 354
#     4  11  22  39  60  92 116 167 215 253 294 373
#
# _framework density 19.833867999999999
#
# number of rings (size 3 to 8) (size 9 to 14) (size 15 to 20)
#    0.462    1.231    0.000    6.000    8.615    1.231 
#    0.000    0.000    0.000    1.846    2.000    0.000 
#    0.000    0.000    0.000    0.000    0.000    0.000 
#
# Total GULP energy -644179.952052 kJ/mol
# GULP energy per Si atom -12388.076001 kJ/mol
# Density = 1.978873 g / cm^3
# Si number density = 19.833868 Si / 1000 Ang^3
#
#
#
# Elastic Constant Matrix: (Units=GPa)
#
#
# Indices 1 2 3 4 5 6 
#
# 1 56.1491 47.3970 28.5945 0.0000 0.0000 0.0000
# 2 47.3970 56.1476 28.5940 0.0000 0.0000 0.0000
# 3 28.5945 28.5940 74.2944 0.0000 0.0000 0.0000
# 4 0.0000 0.0000 0.0000 23.8059 0.0000 0.0000
# 5 0.0000 0.0000 0.0000 0.0000 23.8059 0.0000
# 6 0.0000 0.0000 0.0000 0.0000 0.0000 30.7274
#
#
#
# Elastic Compliance Matrix: (Units=1/GPa)
#
#
# Indices 1 2 3 4 5 6 
#
# 1 0.063266 -0.051002 -0.004721 0.000000 0.000000 0.000000
# 2 -0.051002 0.063267 -0.004720 0.000000 0.000000 0.000000
# 3 -0.004721 -0.004720 0.017094 0.000000 0.000000 0.000000
# 4 0.000000 0.000000 0.000000 0.042006 0.000000 0.000000
# 5 0.000000 0.000000 0.000000 0.000000 0.042006 0.000000
# 6 0.000000 0.000000 0.000000 0.000000 0.000000 0.032544
#
#
# Mechanical properties :
#
#
# Convention : Reuss Voigt Hill
#
# Bulk Modulus (GPa) = 43.97286 43.97356 43.97321
# Shear Modulus (GPa) = 12.86507 21.13487 16.99997
#
# Velocity S-wave (km/s) = 2.54961 3.26789 2.93083
# Velocity P-wave (km/s) = 5.55752 6.03803 5.80275
#
# Compressibility (1/GPa) = 0.02274130
#
# Stress axis : x y z
#
# Youngs Moduli (GPa) = 15.80635 15.80597 58.50164
#
# Poissons Ratio (x) = 0.80613 0.27616
# Poissons Ratio (y) = 0.80615 0.27615
# Poissons Ratio (z) = 0.07461 0.07461
#
# Static dielectric constant tensor:
#      x y z
#    x 3.508400 0.000000 0.000000 
#    y 0.000000 3.508400 0.000000 
#    z 0.000000 0.000000 3.744940 
# 
# 
# High freq. dielectric constant tensor:
#      x y z
#    x 1.750320 0.000000 0.000000 
#    y 0.000000 1.750320 0.000000 
#    z 0.000000 0.000000 1.789940 
# 
# From -- ./inp_files/1589.got.cif
#   From: 2010.03.12/outbox.cif.g09.slc.cpg/sg96_1_cif.got.tgz:1589.got - 2010.04.08 20:56:49.
