data_PCOD8305901
_publ_section_title
;
Structure prediction by ZEFSAII (Michael W. Deem and Ramdas Pophale) SiO2 
 PCOD8305901
Probable space group: P 43 21 2
;
_chemical_formula_sum "Si O2"
_cell_formula_units_Z 64
_cell_length_a 11.192256
_cell_length_b 11.192256
_cell_length_c 25.670464
_cell_angle_alpha 90.000000
_cell_angle_beta 90.000000
_cell_angle_gamma 90.000000
_cell_volume 3215.651601
_symmetry_space_group_name_H-M "P 43 21 2"
_symmetry_group_IT_number 96
_symmetry_cell_setting 'tetragonal'
loop_
_space_group_symop_operation_xyz
x,y,z
1/2-y,1/2+x,3/4+z
-x,-y,1/2+z
1/2+y,1/2-x,1/4+z
1/2+x,1/2-y,1/4-z
1/2-x,1/2+y,3/4-z
y,x,-z
-y,-x,1/2-z
loop_
_atom_site_type_symbol
_atom_site_label
_atom_site_fract_x
_atom_site_fract_y
_atom_site_fract_z
Si Si1 0.818824 0.654754 0.582389
Si Si2 0.654946 0.540743 0.734633
Si Si3 0.601913 0.089816 0.552721
Si Si4 0.317088 0.501414 0.001799
Si Si5 0.556784 0.784783 0.699709
Si Si6 0.845261 0.448542 0.656086
Si Si7 0.829610 0.619205 0.412322
Si Si8 0.717460 0.221528 0.940035
O O1 0.733322 0.569918 0.550353
O O2 0.869383 0.579886 0.632094
O O3 0.743946 0.767200 0.601609
O O4 0.914427 0.708076 0.541651
O O5 0.545443 0.454558 0.750000
O O6 0.602331 0.648821 0.700051
O O7 0.743175 0.459783 0.699884
O O8 0.723501 0.601945 0.784004
O O9 0.630314 0.120006 0.492098
O O10 0.462862 0.102673 0.565478
O O11 0.686282 0.184023 0.582973
O O12 0.648605 0.957677 0.563920
O O13 0.293708 0.639946 0.015975
O O14 0.457588 0.457588 0.000000
O O15 0.247256 0.469546 0.948823
O O16 0.562009 0.846706 0.643815
O O17 0.814833 0.357335 0.610229
#
# Coordination Sequence:
#
# PCOD8305901 Si02
#       8
#     8   8   8   8   8   8   8   8
#     4  10  20  35  63  94 121 154 206 264 324 374
#     4  11  26  43  66  94 132 173 218 268 324 391
#     4  11  24  39  63  92 127 168 209 262 317 383
#     4   9  19  37  66  92 120 158 206 268 323 371
#     4  11  23  38  61  97 129 158 211 270 322 380
#     4  11  23  44  66  86 124 173 217 257 324 382
#     4  11  20  36  64  95 121 160 208 257 331 374
#     4  10  25  43  64  91 130 168 221 269 313 390
#
# _framework density 19.902652
#
# number of rings (size 3 to 8) (size 9 to 14) (size 15 to 20)
#    0.000    1.500    3.750    0.750    7.000    0.000 
#    0.000    0.625    2.750    0.000    0.000    0.000 
#    0.000    0.000    0.000    0.000    0.000    0.000 
#
# Total GULP energy -792964.836042 kJ/mol
# GULP energy per Si atom -12390.075563 kJ/mol
# Density = 1.985735 g / cm^3
# Si number density = 19.902652 Si / 1000 Ang^3
#
#
#
# Elastic Constant Matrix: (Units=GPa)
#
#
# Indices 1 2 3 4 5 6 
#
# 1 96.2482 48.9069 42.3532 0.0000 0.0000 0.0000
# 2 48.9069 96.2462 42.3528 0.0000 0.0000 0.0000
# 3 42.3532 42.3528 90.0481 0.0000 0.0000 0.0000
# 4 0.0000 0.0000 0.0000 21.7527 0.0000 0.0000
# 5 0.0000 0.0000 0.0000 0.0000 21.7530 0.0000
# 6 0.0000 0.0000 0.0000 0.0000 0.0000 28.1835
#
#
#
# Elastic Compliance Matrix: (Units=1/GPa)
#
#
# Indices 1 2 3 4 5 6 
#
# 1 0.015309 -0.005814 -0.004466 0.000000 0.000000 0.000000
# 2 -0.005814 0.015310 -0.004466 0.000000 0.000000 0.000000
# 3 -0.004466 -0.004466 0.015306 0.000000 0.000000 0.000000
# 4 0.000000 0.000000 0.000000 0.045971 0.000000 0.000000
# 5 0.000000 0.000000 0.000000 0.000000 0.045971 0.000000
# 6 0.000000 0.000000 0.000000 0.000000 0.000000 0.035482
#
#
# Mechanical properties :
#
#
# Convention : Reuss Voigt Hill
#
# Bulk Modulus (GPa) = 60.85346 61.08538 60.96942
# Shear Modulus (GPa) = 24.00162 24.26647 24.13405
#
# Velocity S-wave (km/s) = 3.47645 3.49558 3.48602
# Velocity P-wave (km/s) = 6.83785 6.85936 6.84861
#
# Compressibility (1/GPa) = 0.01643292
#
# Stress axis : x y z
#
# Youngs Moduli (GPa) = 65.31934 65.31801 65.33261
#
# Poissons Ratio (x) = 0.37977 0.29178
# Poissons Ratio (y) = 0.37977 0.29178
# Poissons Ratio (z) = 0.29172 0.29172
#
# Static dielectric constant tensor:
#      x y z
#    x 3.805370 0.000000 0.000000 
#    y 0.000000 3.805370 0.000000 
#    z 0.000000 0.000000 3.567520 
# 
# 
# High freq. dielectric constant tensor:
#      x y z
#    x 1.774050 0.000000 0.000000 
#    y 0.000000 1.774050 0.000000 
#    z 0.000000 0.000000 1.776410 
# 
# From -- ./inp_files/4216.got.cif
#   From: 2010.03.12/outbox.cif.g09.slc.cpg/sg96_3_cif.got.tgz:4216.got - 2010.04.08 20:56:49.
