data_PCOD8305890
_publ_section_title
;
Structure prediction by ZEFSAII (Michael W. Deem and Ramdas Pophale) SiO2 
 PCOD8305890
Probable space group: P 43 21 2
;
_chemical_formula_sum "Si O2"
_cell_formula_units_Z 56
_cell_length_a 10.889902
_cell_length_b 10.889902
_cell_length_c 20.101816
_cell_angle_alpha 90.000000
_cell_angle_beta 90.000000
_cell_angle_gamma 90.000000
_cell_volume 2383.873667
_symmetry_space_group_name_H-M "P 43 21 2"
_symmetry_group_IT_number 96
_symmetry_cell_setting 'tetragonal'
loop_
_space_group_symop_operation_xyz
x,y,z
1/2-y,1/2+x,3/4+z
-x,-y,1/2+z
1/2+y,1/2-x,1/4+z
1/2+x,1/2-y,1/4-z
1/2-x,1/2+y,3/4-z
y,x,-z
-y,-x,1/2-z
loop_
_atom_site_type_symbol
_atom_site_label
_atom_site_fract_x
_atom_site_fract_y
_atom_site_fract_z
Si Si1 0.386574 0.642997 0.950908
Si Si2 0.714772 0.397269 0.690332
Si Si3 0.003992 0.757886 0.805728
Si Si4 0.876690 0.254521 0.844132
Si Si5 0.242254 0.125073 0.938920
Si Si6 0.425975 0.004516 0.482750
Si Si7 0.100959 0.675967 0.489393
O O1 0.533870 0.658097 0.943374
O O2 0.328631 0.635117 0.878984
O O3 0.348576 0.522266 0.993243
O O4 0.330957 0.759469 0.988304
O O5 0.613146 0.386855 0.750000
O O6 0.666853 0.455072 0.621042
O O7 0.774673 0.262596 0.677493
O O8 0.816294 0.493160 0.714506
O O9 0.928382 0.630855 0.798614
O O10 0.145880 0.722330 0.811036
O O11 0.906819 0.395445 0.825290
O O12 0.900087 0.241625 0.922976
O O13 0.155309 0.155309 0.000000
O O14 0.274617 0.981830 0.949479
O O15 0.544835 0.038637 0.526529
#
# Coordination Sequence:
#
# PCOD8305890 Si02
#       7
#     8   8   8   8   8   8   8
#     4  11  23  38  66  94 124 163 213 257 316 385
#     4  10  20  38  61  92 125 157 207 261 313 370
#     4  11  22  39  64  93 124 164 211 269 315 363
#     4  10  19  37  61  91 122 168 201 254 314 386
#     4  11  24  40  65  91 129 162 213 266 314 378
#     4   9  20  34  65  92 119 155 218 260 303 361
#     4  10  20  39  64  88 121 166 210 256 312 375
#
# _framework density 23.491178000000001
#
# number of rings (size 3 to 8) (size 9 to 14) (size 15 to 20)
#    0.000    1.714    2.857    1.714    2.000    2.286 
#    0.000    3.571    0.000    8.571    0.000    0.000 
#    0.000    0.000    0.000    0.000    0.000    0.000 
#
# Total GULP energy -694171.638869 kJ/mol
# GULP energy per Si atom -12395.922123 kJ/mol
# Density = 2.343771 g / cm^3
# Si number density = 23.491178 Si / 1000 Ang^3
#
#
#
# Elastic Constant Matrix: (Units=GPa)
#
#
# Indices 1 2 3 4 5 6 
#
# 1 34.1423 -19.2049 2.0338 0.0000 0.0000 0.0000
# 2 -19.2049 34.1422 2.0338 0.0000 0.0000 0.0000
# 3 2.0338 2.0338 135.3638 0.0000 0.0000 0.0000
# 4 0.0000 0.0000 0.0000 22.4304 0.0000 0.0000
# 5 0.0000 0.0000 0.0000 0.0000 22.4303 0.0000
# 6 0.0000 0.0000 0.0000 0.0000 0.0000 28.6855
#
#
#
# Elastic Compliance Matrix: (Units=1/GPa)
#
#
# Indices 1 2 3 4 5 6 
#
# 1 0.042983 0.024238 -0.001010 0.000000 0.000000 0.000000
# 2 0.024238 0.042983 -0.001010 0.000000 0.000000 0.000000
# 3 -0.001010 -0.001010 0.007418 0.000000 0.000000 0.000000
# 4 0.000000 0.000000 0.000000 0.044582 0.000000 0.000000
# 5 0.000000 0.000000 0.000000 0.000000 0.044582 0.000000
# 6 0.000000 0.000000 0.000000 0.000000 0.000000 0.034861
#
#
# Mechanical properties :
#
#
# Convention : Reuss Voigt Hill
#
# Bulk Modulus (GPa) = 7.25581 19.26375 13.25978
# Shear Modulus (GPa) = 22.84004 29.29497 26.06750
#
# Velocity S-wave (km/s) = 3.12153 3.53521 3.33479
# Velocity P-wave (km/s) = 4.01090 4.98817 4.52599
#
# Compressibility (1/GPa) = 0.13782063
#
# Stress axis : x y z
#
# Youngs Moduli (GPa) = 23.26491 23.26485 134.80999
#
# Poissons Ratio (x) = -0.56390 0.13616
# Poissons Ratio (y) = -0.56390 0.13616
# Poissons Ratio (z) = 0.02350 0.02350
#
# Static dielectric constant tensor:
#      x y z
#    x 4.144180 0.000000 0.000000 
#    y 0.000000 4.144190 0.000000 
#    z 0.000000 0.000000 4.457380 
# 
# 
# High freq. dielectric constant tensor:
#      x y z
#    x 1.917480 0.000000 0.000000 
#    y 0.000000 1.917480 0.000000 
#    z 0.000000 0.000000 1.940040 
# 
# From -- ./inp_files/3559.got.cif
#   From: 2010.03.12/outbox.cif.g09.slc.cpg/sg96_2_cif.got.tgz:3559.got - 2010.04.08 20:56:49.
