data_PCOD8305933
_publ_section_title
;
Structure prediction by ZEFSAII (Michael W. Deem and Ramdas Pophale) SiO2 
 PCOD8305933
Probable space group: P 43 21 2
;
_chemical_formula_sum "Si O2"
_cell_formula_units_Z 60
_cell_length_a 16.713421
_cell_length_b 16.713421
_cell_length_c 9.523124
_cell_angle_alpha 90.000000
_cell_angle_beta 90.000000
_cell_angle_gamma 90.000000
_cell_volume 2660.174617
_symmetry_space_group_name_H-M "P 43 21 2"
_symmetry_group_IT_number 96
_symmetry_cell_setting 'tetragonal'
loop_
_space_group_symop_operation_xyz
x,y,z
1/2-y,1/2+x,3/4+z
-x,-y,1/2+z
1/2+y,1/2-x,1/4+z
1/2+x,1/2-y,1/4-z
1/2-x,1/2+y,3/4-z
y,x,-z
-y,-x,1/2-z
loop_
_atom_site_type_symbol
_atom_site_label
_atom_site_fract_x
_atom_site_fract_y
_atom_site_fract_z
Si Si1 0.869472 0.130529 0.250000
Si Si2 0.720029 0.072208 0.089731
Si Si3 0.470563 0.759851 0.831349
Si Si4 0.174636 0.128917 0.293747
Si Si5 0.115870 0.028157 0.889493
Si Si6 0.234893 0.607806 0.189345
Si Si7 0.244739 0.378344 0.475784
Si Si8 0.048770 0.424721 0.056284
O O1 0.780965 0.118486 0.190978
O O2 0.934150 0.110582 0.132080
O O3 0.632716 0.104258 0.128316
O O4 0.713510 0.977684 0.126579
O O5 0.745504 0.086932 0.930755
O O6 0.392823 0.743687 0.930662
O O7 0.454783 0.704294 0.697848
O O8 0.550448 0.736701 0.916775
O O9 0.483708 0.849720 0.781076
O O10 0.085752 0.100300 0.245218
O O11 0.166704 0.224872 0.321889
O O12 0.200072 0.087692 0.439696
O O13 0.046868 0.046868 0.000000
O O14 0.158908 0.655848 0.252055
O O15 0.311694 0.311694 0.500000
O O16 0.995010 0.448305 0.190324
#
# Coordination Sequence:
#
# PCOD8305933 Si02
#       8
#     4   8   8   8   8   8   8   8
#     4  12  24  44  70  98 144 184 232 300 360 436
#     4  12  27  47  70 106 148 188 246 313 362 444
#     4  11  26  46  70 104 146 184 243 304 362 448
#     4  10  21  44  72  98 134 191 235 295 362 445
#     4  10  23  43  66 100 139 180 232 290 363 435
#     4  11  23  43  73  96 137 192 244 291 372 443
#     4  12  26  43  72 108 146 189 245 306 372 436
#     4  12  31  49  77 107 146 198 249 310 374 442
#
# _framework density 22.554912000000002
#
# number of rings (size 3 to 8) (size 9 to 14) (size 15 to 20)
#    0.000    0.800    4.000    2.400    7.467    2.133 
#    6.000    0.000    0.000    0.000    0.000    0.000 
#    0.000    0.000    0.000    0.000    0.000    0.000 
#
# Total GULP energy -743674.772825 kJ/mol
# GULP energy per Si atom -12394.579547 kJ/mol
# Density = 2.250358 g / cm^3
# Si number density = 22.554912 Si / 1000 Ang^3
#
#
#
# Elastic Constant Matrix: (Units=GPa)
#
#
# Indices 1 2 3 4 5 6 
#
# 1 164.7126 -30.0021 37.8478 0.0000 0.0000 0.0000
# 2 -30.0021 164.7065 37.8551 0.0000 0.0000 0.0000
# 3 37.8478 37.8551 91.8267 0.0000 0.0000 0.0000
# 4 0.0000 0.0000 0.0000 27.3848 0.0000 0.0000
# 5 0.0000 0.0000 0.0000 0.0000 27.3854 0.0000
# 6 0.0000 0.0000 0.0000 0.0000 0.0000 27.4673
#
#
#
# Elastic Compliance Matrix: (Units=1/GPa)
#
#
# Indices 1 2 3 4 5 6 
#
# 1 0.007398 0.002263 -0.003982 0.000000 0.000000 0.000000
# 2 0.002263 0.007399 -0.003983 0.000000 0.000000 0.000000
# 3 -0.003982 -0.003983 0.014173 0.000000 0.000000 0.000000
# 4 0.000000 0.000000 0.000000 0.036517 0.000000 0.000000
# 5 0.000000 0.000000 0.000000 0.000000 0.036516 0.000000
# 6 0.000000 0.000000 0.000000 0.000000 0.000000 0.036407
#
#
# Mechanical properties :
#
#
# Convention : Reuss Voigt Hill
#
# Bulk Modulus (GPa) = 56.92715 56.96082 56.94399
# Shear Modulus (GPa) = 32.11926 41.48386 36.80156
#
# Velocity S-wave (km/s) = 3.77775 4.29329 4.04374
# Velocity P-wave (km/s) = 6.65753 7.06297 6.86324
#
# Compressibility (1/GPa) = 0.01756631
#
# Stress axis : x y z
#
# Youngs Moduli (GPa) = 135.16425 135.15324 70.55498
#
# Poissons Ratio (x) = -0.30584 0.28097
# Poissons Ratio (y) = -0.30586 0.28101
# Poissons Ratio (z) = 0.53826 0.53830
#
# Static dielectric constant tensor:
#      x y z
#    x 4.083520 0.000000 0.000000 
#    y 0.000000 4.083520 0.000000 
#    z 0.000000 0.000000 3.862860 
# 
# 
# High freq. dielectric constant tensor:
#      x y z
#    x 1.888200 0.000000 0.000000 
#    y 0.000000 1.888200 0.000000 
#    z 0.000000 0.000000 1.898380 
# 
# From -- ./inp_files/1621.got.cif
#   From: 2010.03.12/outbox.cif.g09.slc.cpg/sg96_1_cif.got.tgz:1621.got - 2010.04.08 20:56:49.
