data_PCOD8305996
_publ_section_title
;
Structure prediction by ZEFSAII (Michael W. Deem and Ramdas Pophale) SiO2 
 PCOD8305996
Probable space group: P 43 21 2
;
_chemical_formula_sum "Si O2"
_cell_formula_units_Z 40
_cell_length_a 14.126853
_cell_length_b 14.126853
_cell_length_c 8.668256
_cell_angle_alpha 90.000000
_cell_angle_beta 90.000000
_cell_angle_gamma 90.000000
_cell_volume 1729.906303
_symmetry_space_group_name_H-M "P 43 21 2"
_symmetry_group_IT_number 96
_symmetry_cell_setting 'tetragonal'
loop_
_space_group_symop_operation_xyz
x,y,z
1/2-y,1/2+x,3/4+z
-x,-y,1/2+z
1/2+y,1/2-x,1/4+z
1/2+x,1/2-y,1/4-z
1/2-x,1/2+y,3/4-z
y,x,-z
-y,-x,1/2-z
loop_
_atom_site_type_symbol
_atom_site_label
_atom_site_fract_x
_atom_site_fract_y
_atom_site_fract_z
Si Si1 0.344156 0.721038 0.407157
Si Si2 0.784320 0.673928 0.376705
Si Si3 0.715592 0.996997 0.586797
Si Si4 0.586577 0.448483 0.078729
Si Si5 0.573631 0.077374 0.836463
O O1 0.336787 0.663214 0.250000
O O2 0.239300 0.733459 0.477342
O O3 0.409966 0.659055 0.518677
O O4 0.396397 0.817363 0.372088
O O5 0.701133 0.701133 0.500000
O O6 0.781143 0.564993 0.315260
O O7 0.886622 0.694288 0.458476
O O8 0.813055 0.001660 0.682396
O O9 0.639382 0.028177 0.710793
O O10 0.554309 0.445692 0.250000
O O11 0.505350 0.505350 0.000000
O O12 0.471454 0.074061 0.754307
#
# Coordination Sequence:
#
# PCOD8305996 Si02
#       5
#     8   8   8   8   8
#     4  11  22  47  71 104 148 189 249 313 374 452
#     4  11  25  47  76 109 151 195 250 312 372 453
#     4  11  22  46  76 104 147 193 243 306 378 441
#     4  11  26  46  74 104 148 196 254 315 375 456
#     4  12  26  46  75 109 147 198 246 313 385 465
#
# _framework density 23.122640000000001
#
# number of rings (size 3 to 8) (size 9 to 14) (size 15 to 20)
#    0.000    0.800    4.000    4.200    2.800    4.000 
#    7.200    0.000    0.000    0.000    0.000    0.000 
#    0.000    0.000    0.000    0.000    0.000    0.000 
#
# Total GULP energy -495947.682740 kJ/mol
# GULP energy per Si atom -12398.692069 kJ/mol
# Density = 2.307001 g / cm^3
# Si number density = 23.122640 Si / 1000 Ang^3
#
#
#
# Elastic Constant Matrix: (Units=GPa)
#
#
# Indices 1 2 3 4 5 6 
#
# 1 -191.4723 374.6613 42.5873 0.0000 0.0000 0.0000
# 2 374.6613 -191.4872 42.5488 0.0000 0.0000 0.0000
# 3 42.5873 42.5488 102.9419 0.0000 0.0000 0.0000
# 4 0.0000 0.0000 0.0000 52.7239 0.0000 0.0000
# 5 0.0000 0.0000 0.0000 0.0000 52.7238 0.0000
# 6 0.0000 0.0000 0.0000 0.0000 0.0000 30.6958
#
#
#
# Elastic Compliance Matrix: (Units=1/GPa)
#
#
# Indices 1 2 3 4 5 6 
#
# 1 0.002496 0.004262 -0.002794 0.000000 0.000000 0.000000
# 2 0.004262 0.002496 -0.002795 0.000000 0.000000 0.000000
# 3 -0.002794 -0.002795 0.012025 0.000000 0.000000 0.000000
# 4 0.000000 0.000000 0.000000 0.018967 0.000000 0.000000
# 5 0.000000 0.000000 0.000000 0.000000 0.018967 0.000000
# 6 0.000000 0.000000 0.000000 0.000000 0.000000 0.032578
#
#
# Mechanical properties :
#
#
# Convention : Reuss Voigt Hill
#
# Bulk Modulus (GPa) = 69.62273 71.06412 70.34343
# Shear Modulus (GPa) = 52.64853 -22.09228 15.27813
#
# Velocity S-wave (km/s) = 4.77689 -3.09437 2.57328
# Velocity P-wave (km/s) = 7.78463 4.24658 6.27032
#
# Compressibility (1/GPa) = 0.01436312
#
# Stress axis : x y z
#
# Youngs Moduli (GPa) = 400.69861 400.66618 83.15789
#
# Poissons Ratio (x) = -1.70767 0.23235
# Poissons Ratio (y) = -1.70781 0.23241
# Poissons Ratio (z) = 1.11959 1.11980
#
# Static dielectric constant tensor:
#      x y z
#    x 4.211250 0.000000 0.000000 
#    y 0.000000 4.211250 0.000000 
#    z 0.000000 0.000000 4.210620 
# 
# 
# High freq. dielectric constant tensor:
#      x y z
#    x 1.918680 0.000000 0.000000 
#    y 0.000000 1.918680 0.000000 
#    z 0.000000 0.000000 1.922330 
# 
# From -- ./inp_files/1292.got.cif
#   From: 2010.03.12/outbox.cif.g09.slc.cpg/sg96_1_cif.got.tgz:1292.got - 2010.04.08 20:56:49.
