data_PCOD8305079
_publ_section_title
;
Structure prediction by ZEFSAII (Michael W. Deem and Ramdas Pophale) SiO2 
 PCOD8305079
Probable space group: P 41 2 2
;
_chemical_formula_sum "Si O2"
_cell_formula_units_Z 36
_cell_length_a 11.534830
_cell_length_b 11.534830
_cell_length_c 11.867971
_cell_angle_alpha 90.000000
_cell_angle_beta 90.000000
_cell_angle_gamma 90.000000
_cell_volume 1579.060875
_symmetry_space_group_name_H-M "P 41 2 2"
_symmetry_group_IT_number 91
_symmetry_cell_setting 'tetragonal'
loop_
_space_group_symop_operation_xyz
x,y,z
-y,x,1/4+z
-x,-y,1/2+z
y,-x,3/4+z
x,-y,1/2-z
-x,y,-z
y,x,3/4-z
-y,-x,1/4-z
loop_
_atom_site_type_symbol
_atom_site_label
_atom_site_fract_x
_atom_site_fract_y
_atom_site_fract_z
Si Si1 0.576562 0.000000 0.750000
Si Si2 0.272728 0.885321 0.065094
Si Si3 0.689001 0.290714 0.380660
Si Si4 0.463405 0.781400 0.676349
Si Si5 0.130439 0.743968 0.713048
O O1 0.646853 0.915371 0.830510
O O2 0.498916 0.915786 0.676039
O O3 0.151123 0.848878 0.125000
O O4 0.329315 0.775847 0.999179
O O5 0.264922 0.992886 0.978366
O O6 0.584782 0.261698 0.296107
O O7 0.696853 0.429934 0.395781
O O8 0.811002 0.235871 0.334886
O O9 0.365921 0.791311 0.579847
O O10 0.151021 0.848980 0.625000
#
# Coordination Sequence:
#
# PCOD8305079 Si02
#       5
#     4   8   8   8   8
#     4  12  24  44  74 100 140 198 238 304 372 442
#     4  12  23  44  70 106 145 182 249 304 367 437
#     4  11  24  43  72 108 143 188 248 300 363 451
#     4  11  23  44  75 106 143 194 245 302 370 446
#     4  10  23  44  73 103 146 192 238 295 372 452
#
# _framework density 22.798362000000001
#
# number of rings (size 3 to 8) (size 9 to 14) (size 15 to 20)
#    0.000    0.889    4.444    2.000    0.000    5.333 
#    0.000    8.889   48.889    0.000    0.000    0.000 
#    0.000    0.000    0.000    0.000    0.000    0.000 
#
# Total GULP energy -446193.837939 kJ/mol
# GULP energy per Si atom -12394.273276 kJ/mol
# Density = 2.274647 g / cm^3
# Si number density = 22.798362 Si / 1000 Ang^3
#
#
#
# Elastic Constant Matrix: (Units=GPa)
#
#
# Indices 1 2 3 4 5 6 
#
# 1 100.5665 38.4568 38.3300 0.0000 0.0000 0.0000
# 2 38.4568 100.5632 38.3290 0.0000 0.0000 0.0000
# 3 38.3300 38.3290 112.9071 0.0000 0.0000 0.0000
# 4 0.0000 0.0000 0.0000 26.2814 0.0000 0.0000
# 5 0.0000 0.0000 0.0000 0.0000 26.2812 0.0000
# 6 0.0000 0.0000 0.0000 0.0000 0.0000 39.5032
#
#
#
# Elastic Compliance Matrix: (Units=1/GPa)
#
#
# Indices 1 2 3 4 5 6 
#
# 1 0.012475 -0.003626 -0.003004 0.000000 0.000000 0.000000
# 2 -0.003626 0.012476 -0.003004 0.000000 0.000000 0.000000
# 3 -0.003004 -0.003004 0.010897 0.000000 0.000000 0.000000
# 4 0.000000 0.000000 0.000000 0.038050 0.000000 0.000000
# 5 0.000000 0.000000 0.000000 0.000000 0.038050 0.000000
# 6 0.000000 0.000000 0.000000 0.000000 0.000000 0.025314
#
#
# Mechanical properties :
#
#
# Convention : Reuss Voigt Hill
#
# Bulk Modulus (GPa) = 60.31752 60.47428 60.39590
# Shear Modulus (GPa) = 30.85350 31.67457 31.26404
#
# Velocity S-wave (km/s) = 3.68274 3.73142 3.70716
# Velocity P-wave (km/s) = 6.67816 6.71922 6.69872
#
# Compressibility (1/GPa) = 0.01657893
#
# Stress axis : x y z
#
# Youngs Moduli (GPa) = 80.15921 80.15680 91.77158
#
# Poissons Ratio (x) = 0.29062 0.27571
# Poissons Ratio (y) = 0.29063 0.27571
# Poissons Ratio (z) = 0.24082 0.24081
#
# Static dielectric constant tensor:
#      x y z
#    x 4.065320 0.000000 0.000000 
#    y 0.000000 4.065330 0.000000 
#    z 0.000000 0.000000 4.154940 
# 
# 
# High freq. dielectric constant tensor:
#      x y z
#    x 1.890670 0.000000 0.000000 
#    y 0.000000 1.890670 0.000000 
#    z 0.000000 0.000000 1.921700 
# 
# From -- ./inp_files/3533.got.cif
#   From: 2010.03.12/outbox.cif.g09.slc.cpg/sg91_2_cif.got.tgz:3533.got - 2010.04.08 20:27:58.
