data_PCOD8305961
_publ_section_title
;
Structure prediction by ZEFSAII (Michael W. Deem and Ramdas Pophale) SiO2 
 PCOD8305961
Probable space group: P 43 21 2
;
_chemical_formula_sum "Si O2"
_cell_formula_units_Z 48
_cell_length_a 11.752180
_cell_length_b 11.752180
_cell_length_c 16.097707
_cell_angle_alpha 90.000000
_cell_angle_beta 90.000000
_cell_angle_gamma 90.000000
_cell_volume 2223.314435
_symmetry_space_group_name_H-M "P 43 21 2"
_symmetry_group_IT_number 96
_symmetry_cell_setting 'tetragonal'
loop_
_space_group_symop_operation_xyz
x,y,z
1/2-y,1/2+x,3/4+z
-x,-y,1/2+z
1/2+y,1/2-x,1/4+z
1/2+x,1/2-y,1/4-z
1/2-x,1/2+y,3/4-z
y,x,-z
-y,-x,1/2-z
loop_
_atom_site_type_symbol
_atom_site_label
_atom_site_fract_x
_atom_site_fract_y
_atom_site_fract_z
Si Si1 0.659123 0.510188 0.297455
Si Si2 0.303982 0.696019 0.250000
Si Si3 0.247314 0.938610 0.773117
Si Si4 0.503221 0.876288 0.805501
Si Si5 0.125781 0.027166 0.625482
Si Si6 0.942499 0.057502 0.750000
Si Si7 0.819960 0.540659 0.011246
O O1 0.598070 0.401931 0.250000
O O2 0.710165 0.495818 0.392036
O O3 0.764453 0.549202 0.241133
O O4 0.571621 0.618246 0.304193
O O5 0.351587 0.639308 0.333265
O O6 0.173844 0.660301 0.251512
O O7 0.176042 0.823959 0.750000
O O8 0.381005 0.912720 0.770188
O O9 0.224719 0.020533 0.694289
O O10 0.487168 0.849554 0.900989
O O11 0.597581 0.975802 0.802196
O O12 0.001511 0.007287 0.667851
O O13 0.979313 0.187557 0.746337
#
# Coordination Sequence:
#
# PCOD8305961 Si02
#       7
#     8   4   8   8   8   4   8
#     4  11  21  41  72  99 130 178 223 275 341 406
#     4  11  26  46  64  97 132 186 228 275 338 406
#     4  10  23  42  67 105 140 170 222 289 337 401
#     4  12  24  46  65 103 137 180 224 281 346 407
#     4  11  22  43  71 100 132 175 225 284 338 399
#     4  11  22  46  70  97 132 172 230 281 328 406
#     4  11  27  43  66  94 135 178 228 277 332 407
#
# _framework density 21.589388
#
# number of rings (size 3 to 8) (size 9 to 14) (size 15 to 20)
#    0.000    1.000    5.000    2.500    2.333    0.000 
#    0.000    1.667    0.000    0.000    0.000    0.000 
#    0.000    0.000    0.000    0.000    0.000    0.000 
#
# Total GULP energy -594686.768414 kJ/mol
# GULP energy per Si atom -12389.307675 kJ/mol
# Density = 2.154025 g / cm^3
# Si number density = 21.589388 Si / 1000 Ang^3
#
#
#
# Elastic Constant Matrix: (Units=GPa)
#
#
# Indices 1 2 3 4 5 6 
#
# 1 80.6304 56.4001 20.3261 0.0000 0.0000 0.0000
# 2 56.4001 80.6279 20.3253 0.0000 0.0000 0.0000
# 3 20.3261 20.3253 70.8197 0.0000 0.0000 0.0000
# 4 0.0000 0.0000 0.0000 150.8721 0.0000 0.0000
# 5 0.0000 0.0000 0.0000 0.0000 150.8255 0.0000
# 6 0.0000 0.0000 0.0000 0.0000 0.0000 30.1375
#
#
#
# Elastic Compliance Matrix: (Units=1/GPa)
#
#
# Indices 1 2 3 4 5 6 
#
# 1 0.024625 -0.016648 -0.002290 0.000000 0.000000 0.000000
# 2 -0.016648 0.024625 -0.002289 0.000000 0.000000 0.000000
# 3 -0.002290 -0.002289 0.015435 0.000000 0.000000 0.000000
# 4 0.000000 0.000000 0.000000 0.006628 0.000000 0.000000
# 5 0.000000 0.000000 0.000000 0.000000 0.006630 0.000000
# 6 0.000000 0.000000 0.000000 0.000000 0.000000 0.033181
#
#
# Mechanical properties :
#
#
# Convention : Reuss Voigt Hill
#
# Bulk Modulus (GPa) = 44.98294 47.35342 46.16818
# Shear Modulus (GPa) = 31.05831 75.36879 53.21355
#
# Velocity S-wave (km/s) = 3.79699 5.91489 4.97006
# Velocity P-wave (km/s) = 6.33275 8.28427 7.37336
#
# Compressibility (1/GPa) = 0.02223065
#
# Stress axis : x y z
#
# Youngs Moduli (GPa) = 40.60996 40.60887 64.78980
#
# Poissons Ratio (x) = 0.67605 0.14834
# Poissons Ratio (y) = 0.67607 0.14832
# Poissons Ratio (z) = 0.09298 0.09296
#
# Static dielectric constant tensor:
#      x y z
#    x 3.085440 0.000000 0.000000 
#    y 0.000000 3.085700 0.000000 
#    z 0.000000 0.000000 4.079160 
# 
# 
# High freq. dielectric constant tensor:
#      x y z
#    x 1.843920 0.000000 0.000000 
#    y 0.000000 1.843920 0.000000 
#    z 0.000000 0.000000 1.860000 
# 
# From -- ./inp_files/3154.got.cif
#   From: 2010.03.12/outbox.cif.g09.slc.cpg/sg96_2_cif.got.tgz:3154.got - 2010.04.08 20:56:49.
