data_PCOD8305297
_publ_section_title
;
Structure prediction by ZEFSAII (Michael W. Deem and Ramdas Pophale) SiO2 
 PCOD8305297
Probable space group: P 41 21 2
;
_chemical_formula_sum "Si O2"
_cell_formula_units_Z 60
_cell_length_a 10.719082
_cell_length_b 10.719082
_cell_length_c 22.538652
_cell_angle_alpha 90.000000
_cell_angle_beta 90.000000
_cell_angle_gamma 90.000000
_cell_volume 2589.662241
_symmetry_space_group_name_H-M "P 41 21 2"
_symmetry_group_IT_number 92
_symmetry_cell_setting 'tetragonal'
loop_
_space_group_symop_operation_xyz
x,y,z
1/2-y,1/2+x,1/4+z
-x,-y,1/2+z
1/2+y,1/2-x,3/4+z
1/2+x,1/2-y,3/4-z
1/2-x,1/2+y,1/4-z
y,x,-z
-y,-x,1/2-z
loop_
_atom_site_type_symbol
_atom_site_label
_atom_site_fract_x
_atom_site_fract_y
_atom_site_fract_z
Si Si1 0.355701 0.644300 0.250000
Si Si2 0.702290 0.268276 0.547522
Si Si3 0.347059 0.044170 0.511282
Si Si4 0.874858 0.519626 0.771866
Si Si5 0.355690 0.222352 0.614638
Si Si6 0.864366 0.694968 0.182706
Si Si7 0.525992 0.430693 0.629454
Si Si8 0.287785 0.458728 0.850757
O O1 0.208296 0.603672 0.253763
O O2 0.417010 0.576826 0.194517
O O3 0.655879 0.138849 0.519184
O O4 0.747323 0.364807 0.497997
O O5 0.602540 0.346220 0.583379
O O6 0.813279 0.231159 0.591532
O O7 0.478565 0.993303 0.484908
O O8 0.359062 0.175818 0.545929
O O9 0.309363 0.945017 0.562300
O O10 0.242942 0.040717 0.459124
O O11 0.852513 0.550350 0.841531
O O12 0.215217 0.216797 0.638450
O O13 0.390168 0.369095 0.621012
O O14 0.001204 0.692538 0.153142
O O15 0.515480 0.577617 0.619216
#
# Coordination Sequence:
#
# PCOD8305297 Si02
#       8
#     4   8   8   8   8   8   8   8
#     4  10  22  38  70 104 132 186 236 292 342 428
#     4  10  22  46  67  98 141 180 233 296 354 424
#     4  11  23  44  68  96 137 184 234 292 359 431
#     4  10  20  43  68 101 140 181 242 286 363 428
#     4  10  23  42  69  97 132 185 227 293 353 421
#     4  10  25  42  62  98 136 174 231 291 350 430
#     4  11  23  43  71 101 139 188 237 291 354 428
#     4  11  25  43  69 100 138 184 235 297 356 426
#
# _framework density 23.169046000000002
#
# number of rings (size 3 to 8) (size 9 to 14) (size 15 to 20)
#    0.000    1.600    2.667    0.800    5.600    1.067 
#    9.600    1.333    0.000    0.000    0.000    0.000 
#    0.000    0.000    0.000    0.000    0.000    0.000 
#
# Total GULP energy -743326.455623 kJ/mol
# GULP energy per Si atom -12388.774260 kJ/mol
# Density = 2.311631 g / cm^3
# Si number density = 23.169046 Si / 1000 Ang^3
#
#
#
# Elastic Constant Matrix: (Units=GPa)
#
#
# Indices 1 2 3 4 5 6 
#
# 1 68.6403 39.0336 29.7214 0.0000 0.0000 0.0000
# 2 39.0336 68.6444 29.7235 0.0000 0.0000 0.0000
# 3 29.7214 29.7235 56.2317 0.0000 0.0000 0.0000
# 4 0.0000 0.0000 0.0000 36.3407 0.0000 0.0000
# 5 0.0000 0.0000 0.0000 0.0000 36.3405 0.0000
# 6 0.0000 0.0000 0.0000 0.0000 0.0000 32.0867
#
#
#
# Elastic Compliance Matrix: (Units=1/GPa)
#
#
# Indices 1 2 3 4 5 6 
#
# 1 0.023444 -0.010330 -0.006931 0.000000 0.000000 0.000000
# 2 -0.010330 0.023443 -0.006932 0.000000 0.000000 0.000000
# 3 -0.006931 -0.006932 0.025111 0.000000 0.000000 0.000000
# 4 0.000000 0.000000 0.000000 0.027517 0.000000 0.000000
# 5 0.000000 0.000000 0.000000 0.000000 0.027517 0.000000
# 6 0.000000 0.000000 0.000000 0.000000 0.000000 0.031166
#
#
# Mechanical properties :
#
#
# Convention : Reuss Voigt Hill
#
# Bulk Modulus (GPa) = 42.35034 43.38593 42.86813
# Shear Modulus (GPa) = 23.31475 27.28944 25.30209
#
# Velocity S-wave (km/s) = 3.17565 3.43569 3.30823
# Velocity P-wave (km/s) = 5.63603 5.87410 5.75630
#
# Compressibility (1/GPa) = 0.02361256
#
# Stress axis : x y z
#
# Youngs Moduli (GPa) = 42.65444 42.65591 39.82273
#
# Poissons Ratio (x) = 0.44063 0.27602
# Poissons Ratio (y) = 0.44062 0.27605
# Poissons Ratio (z) = 0.29565 0.29569
#
# Static dielectric constant tensor:
#      x y z
#    x 4.249440 0.000000 0.000000 
#    y 0.000000 4.249430 0.000000 
#    z 0.000000 0.000000 4.188880 
# 
# 
# High freq. dielectric constant tensor:
#      x y z
#    x 1.911670 0.000000 0.000000 
#    y 0.000000 1.911670 0.000000 
#    z 0.000000 0.000000 1.918540 
# 
# From -- ./inp_files/3624.got.cif
#   From: 2010.03.12/outbox.cif.g09.slc.cpg/sg92_2_cif.got.tgz:3624.got - 2010.04.08 20:41:11.
