data_PCOD8305778
_publ_section_title
;
Structure prediction by ZEFSAII (Michael W. Deem and Ramdas Pophale) SiO2 
 PCOD8305778
Probable space group: P 42 21 2
;
_chemical_formula_sum "Si O2"
_cell_formula_units_Z 48
_cell_length_a 8.848534
_cell_length_b 8.848534
_cell_length_c 26.556997
_cell_angle_alpha 90.000000
_cell_angle_beta 90.000000
_cell_angle_gamma 90.000000
_cell_volume 2079.321348
_symmetry_space_group_name_H-M "P 42 21 2"
_symmetry_group_IT_number 94
_symmetry_cell_setting 'tetragonal'
loop_
_space_group_symop_operation_xyz
x,y,z
1/2-y,1/2+x,1/2+z
-x,-y,z
1/2+y,1/2-x,1/2+z
1/2+x,1/2-y,1/2-z
1/2-x,1/2+y,1/2-z
y,x,-z
-y,-x,-z
loop_
_atom_site_type_symbol
_atom_site_label
_atom_site_fract_x
_atom_site_fract_y
_atom_site_fract_z
Si Si1 0.602995 0.143954 0.195917
Si Si2 0.121558 0.896554 0.268823
Si Si3 0.827446 0.508211 0.472772
Si Si4 0.217824 0.794797 0.899905
Si Si5 0.380883 0.732818 0.422687
Si Si6 0.977423 0.173764 0.624497
O O1 0.740017 0.162262 0.235847
O O2 0.477021 0.270883 0.202689
O O3 0.682684 0.143526 0.141516
O O4 0.500000 0.000000 0.204844
O O5 0.188929 0.994634 0.315072
O O6 0.000000 0.000000 0.237631
O O7 0.760447 0.670780 0.456259
O O8 0.712091 0.410353 0.439692
O O9 0.820454 0.459183 0.530625
O O10 0.000000 0.500000 0.454490
O O11 0.396752 0.778495 0.900017
O O12 0.183871 0.973704 0.888810
O O13 0.252456 0.824218 0.393299
O O14 0.000000 0.000000 0.606108
#
# Coordination Sequence:
#
# PCOD8305778 Si02
#       6
#     8   8   8   8   8   8
#     4  12  27  44  74 108 144 193 236 305 369 436
#     4  11  25  48  70 105 148 188 246 298 360 445
#     4  11  24  46  69 104 146 182 244 302 360 445
#     4  12  24  43  69 102 144 187 236 296 366 433
#     4  11  26  43  73 105 139 193 240 301 371 431
#     4  11  23  45  70 100 143 191 246 298 359 437
#
# _framework density 23.084453
#
# number of rings (size 3 to 8) (size 9 to 14) (size 15 to 20)
#    0.000    0.667    3.333    5.000    4.667    2.667 
#    0.000    5.000    0.000    0.000    0.000    0.000 
#    0.000    0.000    0.000    0.000    0.000    0.000 
#
# Total GULP energy -594651.750386 kJ/mol
# GULP energy per Si atom -12388.578133 kJ/mol
# Density = 2.303191 g / cm^3
# Si number density = 23.084453 Si / 1000 Ang^3
#
#
#
# Elastic Constant Matrix: (Units=GPa)
#
#
# Indices 1 2 3 4 5 6 
#
# 1 113.2167 15.8847 29.5038 0.0000 0.0000 0.0000
# 2 15.8847 113.2167 29.5038 0.0000 0.0000 0.0000
# 3 29.5038 29.5038 83.2365 0.0000 0.0000 0.0000
# 4 0.0000 0.0000 0.0000 29.3826 0.0000 0.0000
# 5 0.0000 0.0000 0.0000 0.0000 29.3826 0.0000
# 6 0.0000 0.0000 0.0000 0.0000 0.0000 46.1061
#
#
#
# Elastic Compliance Matrix: (Units=1/GPa)
#
#
# Indices 1 2 3 4 5 6 
#
# 1 0.009759 -0.000515 -0.003276 0.000000 0.000000 0.000000
# 2 -0.000515 0.009759 -0.003276 0.000000 0.000000 0.000000
# 3 -0.003276 -0.003276 0.014337 0.000000 0.000000 0.000000
# 4 0.000000 0.000000 0.000000 0.034034 0.000000 0.000000
# 5 0.000000 0.000000 0.000000 0.000000 0.034034 0.000000
# 6 0.000000 0.000000 0.000000 0.000000 0.000000 0.021689
#
#
# Mechanical properties :
#
#
# Convention : Reuss Voigt Hill
#
# Bulk Modulus (GPa) = 50.71547 51.05049 50.88298
# Shear Modulus (GPa) = 34.64530 36.62609 35.63570
#
# Velocity S-wave (km/s) = 3.87823 3.98755 3.93327
# Velocity P-wave (km/s) = 6.48625 6.58509 6.53586
#
# Compressibility (1/GPa) = 0.01971785
#
# Stress axis : x y z
#
# Youngs Moduli (GPa) = 102.47224 102.47224 69.75135
#
# Poissons Ratio (x) = 0.05281 0.22853
# Poissons Ratio (y) = 0.05281 0.22853
# Poissons Ratio (z) = 0.33574 0.33574
#
# Static dielectric constant tensor:
#      x y z
#    x 4.587150 0.000000 0.000000 
#    y 0.000000 4.587150 0.000000 
#    z 0.000000 0.000000 3.958330 
# 
# 
# High freq. dielectric constant tensor:
#      x y z
#    x 1.930020 0.000000 0.000000 
#    y 0.000000 1.930020 0.000000 
#    z 0.000000 0.000000 1.895320 
# 
# From -- ./inp_files/5552.got.cif
#   From: 2010.03.12/outbox.cif.g09.slc.cpg/sg94_3_cif.got.tgz:5552.got - 2010.04.08 20:48:32.
