data_PCOD8305790
_publ_section_title
;
Structure prediction by ZEFSAII (Michael W. Deem and Ramdas Pophale) SiO2 
 PCOD8305790
Probable space group: P 42 21 2
;
_chemical_formula_sum "Si O2"
_cell_formula_units_Z 34
_cell_length_a 8.641915
_cell_length_b 8.641915
_cell_length_c 19.065136
_cell_angle_alpha 90.000000
_cell_angle_beta 90.000000
_cell_angle_gamma 90.000000
_cell_volume 1423.835734
_symmetry_space_group_name_H-M "P 42 21 2"
_symmetry_group_IT_number 94
_symmetry_cell_setting 'tetragonal'
loop_
_space_group_symop_operation_xyz
x,y,z
1/2-y,1/2+x,1/2+z
-x,-y,z
1/2+y,1/2-x,1/2+z
1/2+x,1/2-y,1/2-z
1/2-x,1/2+y,1/2-z
y,x,-z
-y,-x,-z
loop_
_atom_site_type_symbol
_atom_site_label
_atom_site_fract_x
_atom_site_fract_y
_atom_site_fract_z
Si Si1 0.000000 0.000000 0.000000
Si Si2 0.322055 0.847214 0.332567
Si Si3 0.461968 0.828382 0.696451
Si Si4 0.654762 0.437808 0.078128
Si Si5 0.188625 0.885113 0.879632
O O1 0.151013 0.985638 0.949977
O O2 0.313981 0.984931 0.276466
O O3 0.196280 0.721212 0.308702
O O4 0.496832 0.782412 0.330506
O O5 0.279344 0.922763 0.408873
O O6 0.531201 0.682863 0.652711
O O7 0.500000 0.000000 0.665841
O O8 0.500000 0.500000 0.118194
O O9 0.727567 0.283094 0.108888
O O10 0.602707 0.397294 0.000000
#
# Coordination Sequence:
#
# PCOD8305790 Si02
#       5
#     2   8   8   8   8
#     4  12  24  48  74 104 154 204 246 306 372 464
#     4  12  25  46  74 106 146 194 244 311 383 450
#     4  12  25  44  73 108 143 187 247 312 377 441
#     4  11  25  45  68 104 144 187 242 302 366 443
#     4  12  25  50  74 107 149 198 251 304 376 461
#
# _framework density 23.879156999999999
#
# number of rings (size 3 to 8) (size 9 to 14) (size 15 to 20)
#    0.000    0.235    3.529    6.353    0.000    3.765 
#    4.235    0.000    0.000    0.000    0.000    0.000 
#    0.000    0.000    0.000    0.000    0.000    0.000 
#
# Total GULP energy -421283.869860 kJ/mol
# GULP energy per Si atom -12390.702055 kJ/mol
# Density = 2.382481 g / cm^3
# Si number density = 23.879157 Si / 1000 Ang^3
#
#
#
# Elastic Constant Matrix: (Units=GPa)
#
#
# Indices 1 2 3 4 5 6 
#
# 1 120.7640 39.2834 46.2625 0.0000 0.0000 0.0000
# 2 39.2834 120.7640 46.2625 0.0000 0.0000 0.0000
# 3 46.2625 46.2625 101.3412 0.0000 0.0000 0.0000
# 4 0.0000 0.0000 0.0000 41.1394 0.0000 0.0000
# 5 0.0000 0.0000 0.0000 0.0000 41.1393 0.0000
# 6 0.0000 0.0000 0.0000 0.0000 0.0000 63.6377
#
#
#
# Elastic Compliance Matrix: (Units=1/GPa)
#
#
# Indices 1 2 3 4 5 6 
#
# 1 0.010381 -0.001892 -0.003875 0.000000 0.000000 0.000000
# 2 -0.001892 0.010381 -0.003875 0.000000 0.000000 0.000000
# 3 -0.003875 -0.003875 0.013405 0.000000 0.000000 0.000000
# 4 0.000000 0.000000 0.000000 0.024308 0.000000 0.000000
# 5 0.000000 0.000000 0.000000 0.000000 0.024308 0.000000
# 6 0.000000 0.000000 0.000000 0.000000 0.000000 0.015714
#
#
# Mechanical properties :
#
#
# Convention : Reuss Voigt Hill
#
# Bulk Modulus (GPa) = 67.19368 67.38734 67.29051
# Shear Modulus (GPa) = 40.73623 43.25399 41.99511
#
# Velocity S-wave (km/s) = 4.13477 4.26064 4.19818
# Velocity P-wave (km/s) = 7.14110 7.24468 7.19308
#
# Compressibility (1/GPa) = 0.01488235
#
# Stress axis : x y z
#
# Youngs Moduli (GPa) = 96.33380 96.33385 74.59640
#
# Poissons Ratio (x) = 0.18229 0.28906
# Poissons Ratio (y) = 0.18229 0.28906
# Poissons Ratio (z) = 0.37329 0.37329
#
# Static dielectric constant tensor:
#      x y z
#    x 4.859870 0.000000 0.000000 
#    y 0.000000 4.859860 0.000000 
#    z 0.000000 0.000000 4.050770 
# 
# 
# High freq. dielectric constant tensor:
#      x y z
#    x 1.964080 0.000000 0.000000 
#    y 0.000000 1.964080 0.000000 
#    z 0.000000 0.000000 1.921110 
# 
# From -- ./inp_files/4525.got.cif
#   From: 2010.03.12/outbox.cif.g09.slc.cpg/sg94_3_cif.got.tgz:4525.got - 2010.04.08 20:48:32.
