data_PCOD8305600
_publ_section_title
;
Structure prediction by ZEFSAII (Michael W. Deem and Ramdas Pophale) SiO2 
 PCOD8305600
Probable space group: P 42 2 2
;
_chemical_formula_sum "Si O2"
_cell_formula_units_Z 64
_cell_length_a 11.903348
_cell_length_b 11.903348
_cell_length_c 22.767807
_cell_angle_alpha 90.000000
_cell_angle_beta 90.000000
_cell_angle_gamma 90.000000
_cell_volume 3225.963598
_symmetry_space_group_name_H-M "P 42 2 2"
_symmetry_group_IT_number 93
_symmetry_cell_setting 'tetragonal'
loop_
_space_group_symop_operation_xyz
x,y,z
-y,x,1/2+z
-x,-y,z
y,-x,1/2+z
x,-y,-z
-x,y,-z
y,x,1/2-z
-y,-x,1/2-z
loop_
_atom_site_type_symbol
_atom_site_label
_atom_site_fract_x
_atom_site_fract_y
_atom_site_fract_z
Si Si1 0.763555 0.313754 0.093246
Si Si2 0.249604 0.981958 0.766331
Si Si3 0.218424 0.645938 0.294114
Si Si4 0.594767 0.775950 0.255717
Si Si5 0.218644 0.571693 0.892731
Si Si6 0.631969 0.371611 0.511399
Si Si7 0.068991 0.104947 0.154798
Si Si8 0.711778 0.018987 0.568155
O O1 0.691738 0.244300 0.140910
O O2 0.746329 0.444912 0.098406
O O3 0.896351 0.289541 0.098593
O O4 0.707716 0.289318 0.029732
O O5 0.337275 0.883699 0.762257
O O6 0.167111 0.990255 0.710124
O O7 0.185639 0.949415 0.825654
O O8 0.312854 0.098307 0.772346
O O9 0.312208 0.687793 0.250000
O O10 0.225570 0.511979 0.287507
O O11 0.659284 0.659284 0.250000
O O12 0.578869 0.793072 0.324059
O O13 0.319061 0.647294 0.922507
O O14 0.096388 0.600886 0.922309
O O15 0.671687 0.500000 0.500000
O O16 0.500000 0.360525 0.500000
O O17 0.087794 0.188880 0.100372
O O18 0.000000 0.000000 0.130942
O O19 0.735735 0.000000 0.500000
#
# Coordination Sequence:
#
# PCOD8305600 Si02
#       8
#     8   8   8   8   8   8   8   8
#     4  11  23  39  58  93 128 167 214 266 334 392
#     4  11  21  43  66  90 123 170 223 260 332 404
#     4  12  25  40  61  96 132 168 211 270 336 402
#     4  12  25  42  64  96 130 174 217 273 335 402
#     4  11  22  40  62  88 129 172 216 269 330 404
#     4   9  20  38  59  82 118 173 221 261 317 398
#     4  11  22  39  65  90 122 165 212 273 330 400
#     4  12  23  38  64  96 129 166 221 285 341 389
#
# _framework density 19.839034000000002
#
# number of rings (size 3 to 8) (size 9 to 14) (size 15 to 20)
#    0.000    0.875    5.000    3.750    1.750    2.000 
#    0.000    0.000    0.000    0.000    0.000    0.000 
#    0.000    0.000    0.000    0.000    0.000    0.000 
#
# Total GULP energy -793025.803279 kJ/mol
# GULP energy per Si atom -12391.028176 kJ/mol
# Density = 1.979388 g / cm^3
# Si number density = 19.839034 Si / 1000 Ang^3
#
#
#
# Elastic Constant Matrix: (Units=GPa)
#
#
# Indices 1 2 3 4 5 6 
#
# 1 80.6285 3.8010 6.9675 0.0000 0.0000 0.0000
# 2 3.8010 80.6307 6.9686 0.0000 0.0000 0.0000
# 3 6.9675 6.9686 89.6713 0.0000 0.0000 0.0000
# 4 0.0000 0.0000 0.0000 33.5954 0.0000 0.0000
# 5 0.0000 0.0000 0.0000 0.0000 33.5953 0.0000
# 6 0.0000 0.0000 0.0000 0.0000 0.0000 17.7524
#
#
#
# Elastic Compliance Matrix: (Units=1/GPa)
#
#
# Indices 1 2 3 4 5 6 
#
# 1 0.012507 -0.000509 -0.000932 0.000000 0.000000 0.000000
# 2 -0.000509 0.012507 -0.000932 0.000000 0.000000 0.000000
# 3 -0.000932 -0.000932 0.011297 0.000000 0.000000 0.000000
# 4 0.000000 0.000000 0.000000 0.029766 0.000000 0.000000
# 5 0.000000 0.000000 0.000000 0.000000 0.029766 0.000000
# 6 0.000000 0.000000 0.000000 0.000000 0.000000 0.056330
#
#
# Mechanical properties :
#
#
# Convention : Reuss Voigt Hill
#
# Bulk Modulus (GPa) = 31.68234 31.82275 31.75254
# Shear Modulus (GPa) = 29.86116 32.53484 31.19800
#
# Velocity S-wave (km/s) = 3.88386 4.05401 3.96985
# Velocity P-wave (km/s) = 6.00973 6.16349 6.08710
#
# Compressibility (1/GPa) = 0.03156333
#
# Stress axis : x y z
#
# Youngs Moduli (GPa) = 79.95449 79.95653 88.52110
#
# Poissons Ratio (x) = 0.04070 0.08252
# Poissons Ratio (y) = 0.04070 0.08254
# Poissons Ratio (z) = 0.07454 0.07455
#
# Static dielectric constant tensor:
#      x y z
#    x 3.889090 0.000000 0.000000 
#    y 0.000000 3.889080 0.000000 
#    z 0.000000 0.000000 3.406190 
# 
# 
# High freq. dielectric constant tensor:
#      x y z
#    x 1.770530 0.000000 0.000000 
#    y 0.000000 1.770530 0.000000 
#    z 0.000000 0.000000 1.773240 
# 
# From -- ./inp_files/6957.got.cif
#   From: 2010.03.12/outbox.cif.g09.slc.cpg/sg93_4_cif.got.tgz:6957.got - 2010.04.08 20:44:19.
