data_PCOD8305202
_publ_section_title
;
Structure prediction by ZEFSAII (Michael W. Deem and Ramdas Pophale) SiO2 
 PCOD8305202
Probable space group: P 41 21 2
;
_chemical_formula_sum "Si O2"
_cell_formula_units_Z 64
_cell_length_a 16.948112
_cell_length_b 16.948112
_cell_length_c 11.783536
_cell_angle_alpha 90.000000
_cell_angle_beta 90.000000
_cell_angle_gamma 90.000000
_cell_volume 3384.685210
_symmetry_space_group_name_H-M "P 41 21 2"
_symmetry_group_IT_number 92
_symmetry_cell_setting 'tetragonal'
loop_
_space_group_symop_operation_xyz
x,y,z
1/2-y,1/2+x,1/4+z
-x,-y,1/2+z
1/2+y,1/2-x,3/4+z
1/2+x,1/2-y,3/4-z
1/2-x,1/2+y,1/4-z
y,x,-z
-y,-x,1/2-z
loop_
_atom_site_type_symbol
_atom_site_label
_atom_site_fract_x
_atom_site_fract_y
_atom_site_fract_z
Si Si1 0.563029 0.154318 0.160608
Si Si2 0.798516 0.536395 0.126973
Si Si3 0.626006 0.275915 0.993121
Si Si4 0.398168 0.746910 0.021927
Si Si5 0.117080 0.717219 0.458775
Si Si6 0.416187 0.153023 0.030821
Si Si7 0.237827 0.846983 0.453704
Si Si8 0.053863 0.268885 0.980952
O O1 0.632418 0.090811 0.174233
O O2 0.526066 0.167274 0.283569
O O3 0.499569 0.118165 0.072685
O O4 0.588103 0.239113 0.106712
O O5 0.756922 0.486200 0.027688
O O6 0.736124 0.596709 0.184988
O O7 0.698184 0.221454 0.957420
O O8 0.567353 0.283982 0.883307
O O9 0.664244 0.361359 0.022870
O O10 0.342703 0.820971 0.982285
O O11 0.396171 0.740884 0.159445
O O12 0.081429 0.675716 0.348740
O O13 0.154201 0.803977 0.436836
O O14 0.036312 0.731132 0.527792
O O15 0.399769 0.235500 0.097368
O O16 0.355453 0.082972 0.055597
#
# Coordination Sequence:
#
# PCOD8305202 Si02
#       8
#     8   8   8   8   8   8   8   8
#     4  10  20  35  55  78 110 146 180 215 280 325
#     4  10  22  36  51  78 115 151 181 216 264 334
#     4   9  17  36  56  77 103 143 186 230 267 314
#     4  10  22  34  51  80 115 146 184 220 264 330
#     4  10  18  31  54  83 105 138 183 227 269 319
#     4   9  17  31  52  82 108 137 171 227 275 326
#     4   8  17  33  52  75 107 140 182 221 264 314
#     4  10  19  32  54  84 111 134 180 228 286 312
#
# _framework density 18.9087
#
# number of rings (size 3 to 8) (size 9 to 14) (size 15 to 20)
#    0.000    2.500    1.250    1.500    1.750    4.500 
#    0.000    0.625    0.000    0.000   19.500    0.000 
#    0.000    0.000    0.000    0.000    0.000    0.000 
#
# Total GULP energy -792981.900795 kJ/mol
# GULP energy per Si atom -12390.342200 kJ/mol
# Density = 1.886566 g / cm^3
# Si number density = 18.908700 Si / 1000 Ang^3
#
#
#
# Elastic Constant Matrix: (Units=GPa)
#
#
# Indices 1 2 3 4 5 6 
#
# 1 61.8281 29.1968 5.2674 0.0000 0.0000 0.0000
# 2 29.1968 61.8281 5.2674 0.0000 0.0000 0.0000
# 3 5.2674 5.2674 47.2982 0.0000 0.0000 0.0000
# 4 0.0000 0.0000 0.0000 20.9543 0.0000 0.0000
# 5 0.0000 0.0000 0.0000 0.0000 20.9543 0.0000
# 6 0.0000 0.0000 0.0000 0.0000 0.0000 26.4179
#
#
#
# Elastic Compliance Matrix: (Units=1/GPa)
#
#
# Indices 1 2 3 4 5 6 
#
# 1 0.020887 -0.009758 -0.001239 0.000000 0.000000 0.000000
# 2 -0.009758 0.020887 -0.001239 0.000000 0.000000 0.000000
# 3 -0.001239 -0.001239 0.021418 0.000000 0.000000 0.000000
# 4 0.000000 0.000000 0.000000 0.047723 0.000000 0.000000
# 5 0.000000 0.000000 0.000000 0.000000 0.047723 0.000000
# 6 0.000000 0.000000 0.000000 0.000000 0.000000 0.037853
#
#
# Mechanical properties :
#
#
# Convention : Reuss Voigt Hill
#
# Bulk Modulus (GPa) = 25.82665 27.82415 26.82540
# Shear Modulus (GPa) = 21.37916 22.41349 21.89633
#
# Velocity S-wave (km/s) = 3.36617 3.44663 3.40664
# Velocity P-wave (km/s) = 5.36622 5.53046 5.44896
#
# Compressibility (1/GPa) = 0.03871969
#
# Stress axis : x y z
#
# Youngs Moduli (GPa) = 47.87568 47.87568 46.68863
#
# Poissons Ratio (x) = 0.46717 0.05787
# Poissons Ratio (y) = 0.46717 0.05787
# Poissons Ratio (z) = 0.05934 0.05934
#
# Static dielectric constant tensor:
#      x y z
#    x 3.509250 0.000000 0.000000 
#    y 0.000000 3.509250 0.000000 
#    z 0.000000 0.000000 3.321060 
# 
# 
# High freq. dielectric constant tensor:
#      x y z
#    x 1.715010 0.000000 0.000000 
#    y 0.000000 1.715010 0.000000 
#    z 0.000000 0.000000 1.726300 
# 
# From -- ./inp_files/2352.got.cif
#   From: 2010.03.12/outbox.cif.g09.slc.cpg/sg92_2_cif.got.tgz:2352.got - 2010.04.08 20:41:11.
