data_PCOD8305279
_publ_section_title
;
Structure prediction by ZEFSAII (Michael W. Deem and Ramdas Pophale) SiO2 
 PCOD8305279
Probable space group: P 41 21 2
;
_chemical_formula_sum "Si O2"
_cell_formula_units_Z 48
_cell_length_a 17.997341
_cell_length_b 17.997341
_cell_length_c 7.650275
_cell_angle_alpha 90.000000
_cell_angle_beta 90.000000
_cell_angle_gamma 90.000000
_cell_volume 2477.956839
_symmetry_space_group_name_H-M "P 41 21 2"
_symmetry_group_IT_number 92
_symmetry_cell_setting 'tetragonal'
loop_
_space_group_symop_operation_xyz
x,y,z
1/2-y,1/2+x,1/4+z
-x,-y,1/2+z
1/2+y,1/2-x,3/4+z
1/2+x,1/2-y,3/4-z
1/2-x,1/2+y,1/4-z
y,x,-z
-y,-x,1/2-z
loop_
_atom_site_type_symbol
_atom_site_label
_atom_site_fract_x
_atom_site_fract_y
_atom_site_fract_z
Si Si1 0.656546 0.656546 0.500000
Si Si2 0.028096 0.732360 0.705223
Si Si3 0.563843 0.634990 0.831000
Si Si4 0.628645 0.300856 0.579208
Si Si5 0.914231 0.458835 0.906323
Si Si6 0.897978 0.897978 0.000000
Si Si7 0.693385 0.144562 0.594237
O O1 0.622983 0.622554 0.677237
O O2 0.642002 0.744711 0.494533
O O3 0.063719 0.778015 0.865032
O O4 0.092465 0.719242 0.564584
O O5 0.957746 0.780044 0.633126
O O6 0.996753 0.652186 0.769990
O O7 0.485871 0.613788 0.745918
O O8 0.584507 0.584507 0.000000
O O9 0.659826 0.340175 0.750000
O O10 0.636515 0.359091 0.420703
O O11 0.678342 0.228863 0.528826
O O12 0.940281 0.513437 0.760374
O O13 0.884897 0.382731 0.818980
#
# Coordination Sequence:
#
# PCOD8305279 Si02
#       7
#     4   8   8   8   8   4   8
#     4  12  24  36  62  93 119 166 206 246 314 364
#     4   9  20  40  59  84 125 160 195 256 306 360
#     4  11  24  41  59  88 122 160 205 255 307 363
#     4  10  21  39  62  86 121 160 201 253 304 362
#     4   9  19  36  63  88 123 160 200 253 308 361
#     4  10  26  40  60  87 115 164 208 246 312 364
#     4  10  20  39  60  90 121 162 204 249 307 368
#
# _framework density 19.370799000000002
#
# number of rings (size 3 to 8) (size 9 to 14) (size 15 to 20)
#    0.000    2.000    2.500    0.000    3.500    2.667 
#    1.500    0.000    0.000    0.000    0.000    0.000 
#    0.000    0.000    0.000    0.000    0.000    0.000 
#
# Total GULP energy -594856.389675 kJ/mol
# GULP energy per Si atom -12392.841452 kJ/mol
# Density = 1.932671 g / cm^3
# Si number density = 19.370799 Si / 1000 Ang^3
#
#
#
# Elastic Constant Matrix: (Units=GPa)
#
#
# Indices 1 2 3 4 5 6 
#
# 1 128.8007 47.8122 62.0183 0.0000 0.0000 0.0000
# 2 47.8122 128.7994 62.0186 0.0000 0.0000 0.0000
# 3 62.0183 62.0186 103.2655 0.0000 0.0000 0.0000
# 4 0.0000 0.0000 0.0000 20.0620 0.0000 0.0000
# 5 0.0000 0.0000 0.0000 0.0000 20.0617 0.0000
# 6 0.0000 0.0000 0.0000 0.0000 0.0000 33.0484
#
#
#
# Elastic Compliance Matrix: (Units=1/GPa)
#
#
# Indices 1 2 3 4 5 6 
#
# 1 0.011070 -0.001278 -0.005881 0.000000 0.000000 0.000000
# 2 -0.001278 0.011070 -0.005881 0.000000 0.000000 0.000000
# 3 -0.005881 -0.005881 0.016748 0.000000 0.000000 0.000000
# 4 0.000000 0.000000 0.000000 0.049845 0.000000 0.000000
# 5 0.000000 0.000000 0.000000 0.000000 0.049846 0.000000
# 6 0.000000 0.000000 0.000000 0.000000 0.000000 0.030259
#
#
# Mechanical properties :
#
#
# Convention : Reuss Voigt Hill
#
# Bulk Modulus (GPa) = 78.07371 78.28485 78.17928
# Shear Modulus (GPa) = 25.10205 27.23555 26.16880
#
# Velocity S-wave (km/s) = 3.60373 3.75375 3.67950
# Velocity P-wave (km/s) = 7.59659 7.69994 7.64844
#
# Compressibility (1/GPa) = 0.01280841
#
# Stress axis : x y z
#
# Youngs Moduli (GPa) = 90.33500 90.33338 59.70923
#
# Poissons Ratio (x) = 0.11540 0.35115
# Poissons Ratio (y) = 0.11540 0.35116
# Poissons Ratio (z) = 0.53126 0.53127
#
# Static dielectric constant tensor:
#      x y z
#    x 4.057330 0.000000 0.000000 
#    y 0.000000 4.057320 0.000000 
#    z 0.000000 0.000000 4.237920 
# 
# 
# High freq. dielectric constant tensor:
#      x y z
#    x 1.774390 0.000000 0.000000 
#    y 0.000000 1.774390 0.000000 
#    z 0.000000 0.000000 1.717940 
# 
# From -- ./inp_files/1529.got.cif
#   From: 2010.03.12/outbox.cif.g09.slc.cpg/sg92_1_cif.got.tgz:1529.got - 2010.04.08 20:41:11.
