data_PCOD8305698
_publ_section_title
;
Structure prediction by ZEFSAII (Michael W. Deem and Ramdas Pophale) SiO2 
 PCOD8305698
Probable space group: P 42 21 2
;
_chemical_formula_sum "Si O2"
_cell_formula_units_Z 54
_cell_length_a 14.876101
_cell_length_b 14.876101
_cell_length_c 10.891917
_cell_angle_alpha 90.000000
_cell_angle_beta 90.000000
_cell_angle_gamma 90.000000
_cell_volume 2410.363598
_symmetry_space_group_name_H-M "P 42 21 2"
_symmetry_group_IT_number 94
_symmetry_cell_setting 'tetragonal'
loop_
_space_group_symop_operation_xyz
x,y,z
1/2-y,1/2+x,1/2+z
-x,-y,z
1/2+y,1/2-x,1/2+z
1/2+x,1/2-y,1/2-z
1/2-x,1/2+y,1/2-z
y,x,-z
-y,-x,-z
loop_
_atom_site_type_symbol
_atom_site_label
_atom_site_fract_x
_atom_site_fract_y
_atom_site_fract_z
Si Si1 0.000000 0.000000 0.500000
Si Si2 0.238663 0.703190 0.874121
Si Si3 0.859042 0.075745 0.674638
Si Si4 0.500000 0.000000 0.140365
Si Si5 0.426412 0.335214 0.603357
Si Si6 0.718172 0.775934 0.121741
Si Si7 0.048122 0.325017 0.971866
Si Si8 0.185266 0.529655 0.752063
O O1 0.091603 0.994646 0.582132
O O2 0.161448 0.774998 0.889429
O O3 0.292582 0.728946 0.749682
O O4 0.198736 0.604717 0.855854
O O5 0.297674 0.702327 0.000000
O O6 0.936102 0.108949 0.769788
O O7 0.818864 0.165155 0.611681
O O8 0.771125 0.036155 0.743100
O O9 0.410798 0.984714 0.056416
O O10 0.484876 0.088305 0.223979
O O11 0.411314 0.411314 0.500000
O O12 0.509907 0.270282 0.576998
O O13 0.652631 0.860992 0.103386
O O14 0.781786 0.781786 0.000000
O O15 0.069858 0.318174 0.115686
#
# Coordination Sequence:
#
# PCOD8305698 Si02
#       8
#     2   8   8   4   8   8   8   8
#     4  12  28  48  66 104 144 188 246 302 378 448
#     4  10  23  41  67  98 136 182 235 286 359 435
#     4  11  25  45  70  97 143 188 235 300 368 439
#     4  12  26  42  64 116 144 188 234 310 372 444
#     4  10  21  44  71  96 135 186 234 294 363 436
#     4  11  22  44  71  99 132 187 241 291 355 438
#     4  12  24  44  72 103 142 184 243 302 370 441
#     4  12  24  44  68 103 146 181 238 305 361 439
#
# _framework density 22.403258000000001
#
# number of rings (size 3 to 8) (size 9 to 14) (size 15 to 20)
#    0.000    0.889    6.667    0.444    1.037    1.185 
#    2.667    0.370    0.000    0.000    0.000    0.000 
#    0.000    0.000    0.000    0.000    0.000    0.000 
#
# Total GULP energy -669054.091383 kJ/mol
# GULP energy per Si atom -12389.890581 kJ/mol
# Density = 2.235227 g / cm^3
# Si number density = 22.403258 Si / 1000 Ang^3
#
#
#
# Elastic Constant Matrix: (Units=GPa)
#
#
# Indices 1 2 3 4 5 6 
#
# 1 84.4974 23.9546 44.5017 0.0000 0.0000 0.0000
# 2 23.9546 84.4974 44.5018 0.0000 0.0000 0.0000
# 3 44.5017 44.5018 157.9610 0.0000 0.0000 0.0000
# 4 0.0000 0.0000 0.0000 28.7895 0.0000 0.0000
# 5 0.0000 0.0000 0.0000 0.0000 28.7895 0.0000
# 6 0.0000 0.0000 0.0000 0.0000 0.0000 25.3805
#
#
#
# Elastic Compliance Matrix: (Units=1/GPa)
#
#
# Indices 1 2 3 4 5 6 
#
# 1 0.014255 -0.002262 -0.003379 0.000000 0.000000 0.000000
# 2 -0.002262 0.014255 -0.003379 0.000000 0.000000 0.000000
# 3 -0.003379 -0.003379 0.008235 0.000000 0.000000 0.000000
# 4 0.000000 0.000000 0.000000 0.034735 0.000000 0.000000
# 5 0.000000 0.000000 0.000000 0.000000 0.034735 0.000000
# 6 0.000000 0.000000 0.000000 0.000000 0.000000 0.039400
#
#
# Mechanical properties :
#
#
# Convention : Reuss Voigt Hill
#
# Bulk Modulus (GPa) = 53.45837 61.43023 57.44430
# Shear Modulus (GPa) = 29.43079 30.85843 30.14461
#
# Velocity S-wave (km/s) = 3.62841 3.71537 3.67215
# Velocity P-wave (km/s) = 6.43952 6.77385 6.60880
#
# Compressibility (1/GPa) = 0.01870615
#
# Stress axis : x y z
#
# Youngs Moduli (GPa) = 70.14864 70.14861 121.43968
#
# Poissons Ratio (x) = 0.15866 0.41034
# Poissons Ratio (y) = 0.15866 0.41034
# Poissons Ratio (z) = 0.23703 0.23703
#
# Static dielectric constant tensor:
#      x y z
#    x 3.894640 0.000000 0.000000 
#    y 0.000000 3.894630 0.000000 
#    z 0.000000 0.000000 4.258720 
# 
# 
# High freq. dielectric constant tensor:
#      x y z
#    x 1.870460 0.000000 0.000000 
#    y 0.000000 1.870460 0.000000 
#    z 0.000000 0.000000 1.893560 
# 
# From -- ./inp_files/2760.got.cif
#   From: 2010.03.12/outbox.cif.g09.slc.cpg/sg94_2_cif.got.tgz:2760.got - 2010.04.08 20:48:32.
