data_PCOD8305113
_publ_section_title
;
Structure prediction by ZEFSAII (Michael W. Deem and Ramdas Pophale) SiO2 
 PCOD8305113
Probable space group: P 41 2 2
;
_chemical_formula_sum "Si O2"
_cell_formula_units_Z 56
_cell_length_a 16.696100
_cell_length_b 16.696100
_cell_length_c 12.265492
_cell_angle_alpha 90.000000
_cell_angle_beta 90.000000
_cell_angle_gamma 90.000000
_cell_volume 3419.125547
_symmetry_space_group_name_H-M "P 41 2 2"
_symmetry_group_IT_number 91
_symmetry_cell_setting 'tetragonal'
loop_
_space_group_symop_operation_xyz
x,y,z
-y,x,1/4+z
-x,-y,1/2+z
y,-x,3/4+z
x,-y,1/2-z
-x,y,-z
y,x,3/4-z
-y,-x,1/4-z
loop_
_atom_site_type_symbol
_atom_site_label
_atom_site_fract_x
_atom_site_fract_y
_atom_site_fract_z
Si Si1 0.269683 0.857252 0.605638
Si Si2 0.099179 0.300313 0.629040
Si Si3 0.325240 0.078642 0.468133
Si Si4 0.913004 0.387896 0.960885
Si Si5 0.013563 0.859482 0.621393
Si Si6 0.562909 0.092493 0.721109
Si Si7 0.841321 0.144085 0.504314
O O1 0.225242 0.774759 0.625000
O O2 0.314005 0.850284 0.489964
O O3 0.325266 0.869089 0.710495
O O4 0.207723 0.929214 0.577948
O O5 0.127716 0.378545 0.563091
O O6 0.124845 0.223379 0.555409
O O7 0.004299 0.296255 0.659456
O O8 0.354648 0.070403 0.591045
O O9 0.398418 0.111332 0.396676
O O10 0.254600 0.144517 0.476421
O O11 0.867312 0.474065 0.966839
O O12 0.000000 0.407386 0.000000
O O13 0.929749 0.867064 0.680290
O O14 0.000000 0.829122 0.500000
O O15 0.053401 0.946600 0.625000
O O16 0.555969 0.000000 0.750000
O O17 0.874713 0.125288 0.625000
#
# Coordination Sequence:
#
# PCOD8305113 Si02
#       7
#     8   8   8   8   8   8   8
#     4  11  21  35  55  73 103 137 178 220 265 318
#     4  11  21  37  51  73 104 129 176 234 265 310
#     4  11  20  37  51  73 102 131 176 223 265 320
#     4  11  19  34  56  77  96 133 170 213 271 320
#     4  11  23  38  46  67  94 129 181 229 262 301
#     4   9  21  33  52  76  98 125 171 222 270 319
#     4  12  23  36  56  69  95 142 177 215 277 315
#
# _framework density 16.378457000000001
#
# number of rings (size 3 to 8) (size 9 to 14) (size 15 to 20)
#    0.000    1.143    4.286    4.286    0.000    1.143 
#    0.000    0.000    0.000    0.000    0.000    0.000 
#    0.000    0.000    0.000    0.000   70.571    0.000 
#
# Total GULP energy -693764.539268 kJ/mol
# GULP energy per Si atom -12388.652487 kJ/mol
# Density = 1.634118 g / cm^3
# Si number density = 16.378457 Si / 1000 Ang^3
#
#
#
# Elastic Constant Matrix: (Units=GPa)
#
#
# Indices 1 2 3 4 5 6 
#
# 1 79.1728 38.1776 35.2391 0.0000 0.0000 0.0000
# 2 38.1776 79.1735 35.2398 0.0000 0.0000 0.0000
# 3 35.2391 35.2398 135.6329 0.0000 0.0000 0.0000
# 4 0.0000 0.0000 0.0000 20.4893 0.0000 0.0000
# 5 0.0000 0.0000 0.0000 0.0000 20.4939 0.0000
# 6 0.0000 0.0000 0.0000 0.0000 0.0000 8.1206
#
#
#
# Elastic Compliance Matrix: (Units=1/GPa)
#
#
# Indices 1 2 3 4 5 6 
#
# 1 0.017245 -0.007148 -0.002623 0.000000 0.000000 0.000000
# 2 -0.007148 0.017245 -0.002623 0.000000 0.000000 0.000000
# 3 -0.002623 -0.002623 0.008736 0.000000 0.000000 0.000000
# 4 0.000000 0.000000 0.000000 0.048806 0.000000 0.000000
# 5 0.000000 0.000000 0.000000 0.000000 0.048795 0.000000
# 6 0.000000 0.000000 0.000000 0.000000 0.000000 0.123144
#
#
# Mechanical properties :
#
#
# Convention : Reuss Voigt Hill
#
# Bulk Modulus (GPa) = 54.23990 56.81026 55.52508
# Shear Modulus (GPa) = 16.95458 22.17561 19.56510
#
# Velocity S-wave (km/s) = 3.22090 3.68360 3.45999
# Velocity P-wave (km/s) = 6.85717 7.27002 7.06661
#
# Compressibility (1/GPa) = 0.01843661
#
# Stress axis : x y z
#
# Youngs Moduli (GPa) = 57.98780 57.98814 114.46870
#
# Poissons Ratio (x) = 0.41450 0.30029
# Poissons Ratio (y) = 0.41449 0.30030
# Poissons Ratio (z) = 0.15212 0.15213
#
# Static dielectric constant tensor:
#      x y z
#    x 3.121560 0.000000 0.000000 
#    y 0.000000 3.121570 0.000000 
#    z 0.000000 0.000000 3.298770 
# 
# 
# High freq. dielectric constant tensor:
#      x y z
#    x 1.598640 0.000000 0.000000 
#    y 0.000000 1.598640 0.000000 
#    z 0.000000 0.000000 1.664970 
# 
# From -- ./inp_files/10906.got.cif
#   From: 2010.03.12/outbox.cif.g09.slc.cpg/sg91_6_cif.got.tgz:10906.got - 2010.04.08 20:27:58.
