data_PCOD8305454
_publ_section_title
;
Structure prediction by ZEFSAII (Michael W. Deem and Ramdas Pophale) SiO2 
 PCOD8305454
Probable space group: P 41 21 2
;
_chemical_formula_sum "Si O2"
_cell_formula_units_Z 40
_cell_length_a 8.114251
_cell_length_b 8.114251
_cell_length_c 24.583930
_cell_angle_alpha 90.000000
_cell_angle_beta 90.000000
_cell_angle_gamma 90.000000
_cell_volume 1618.632239
_symmetry_space_group_name_H-M "P 41 21 2"
_symmetry_group_IT_number 92
_symmetry_cell_setting 'tetragonal'
loop_
_space_group_symop_operation_xyz
x,y,z
1/2-y,1/2+x,1/4+z
-x,-y,1/2+z
1/2+y,1/2-x,3/4+z
1/2+x,1/2-y,3/4-z
1/2-x,1/2+y,1/4-z
y,x,-z
-y,-x,1/2-z
loop_
_atom_site_type_symbol
_atom_site_label
_atom_site_fract_x
_atom_site_fract_y
_atom_site_fract_z
Si Si1 0.797355 0.941064 0.088593
Si Si2 0.338745 0.214121 0.052825
Si Si3 0.015645 0.862944 0.382232
Si Si4 0.712311 0.515400 0.957235
Si Si5 0.290751 0.718278 0.950893
O O1 0.809936 0.128088 0.068590
O O2 0.991379 0.888332 0.083612
O O3 0.668603 0.835258 0.053341
O O4 0.758037 0.928867 0.153397
O O5 0.275573 0.358050 0.092309
O O6 0.289076 0.041331 0.080364
O O7 0.530624 0.230571 0.040712
O O8 0.227618 0.227618 0.000000
O O9 0.865536 0.947487 0.348196
O O10 0.570148 0.570148 0.000000
O O11 0.794502 0.365119 0.992757
#
# Coordination Sequence:
#
# PCOD8305454 Si02
#       5
#     8   8   8   8   8
#     4  11  24  43  73 106 142 187 251 306 367 450
#     4  11  24  46  70 101 144 191 243 305 378 440
#     4  11  24  46  71 105 146 190 244 306 365 449
#     4  12  22  48  73 101 148 197 244 301 383 453
#     4  11  22  46  71 102 145 198 241 310 375 444
#
# _framework density 24.712219000000001
#
# number of rings (size 3 to 8) (size 9 to 14) (size 15 to 20)
#    0.000    0.800    8.000    0.000    2.800    2.400 
#   10.800    0.000    0.000    0.000    0.000    0.000 
#    0.000    0.000    0.000    0.000    0.000    0.000 
#
# Total GULP energy -495638.205638 kJ/mol
# GULP energy per Si atom -12390.955141 kJ/mol
# Density = 2.465597 g / cm^3
# Si number density = 24.712219 Si / 1000 Ang^3
#
#
#
# Elastic Constant Matrix: (Units=GPa)
#
#
# Indices 1 2 3 4 5 6 
#
# 1 52.3981 22.3778 26.8119 0.0000 0.0000 0.0000
# 2 22.3778 52.3981 26.8119 0.0000 0.0000 0.0000
# 3 26.8119 26.8119 62.7125 0.0000 0.0000 0.0000
# 4 0.0000 0.0000 0.0000 29.2216 0.0000 0.0000
# 5 0.0000 0.0000 0.0000 0.0000 29.2216 0.0000
# 6 0.0000 0.0000 0.0000 0.0000 0.0000 49.4721
#
#
#
# Elastic Compliance Matrix: (Units=1/GPa)
#
#
# Indices 1 2 3 4 5 6 
#
# 1 0.026299 -0.007012 -0.008246 0.000000 0.000000 0.000000
# 2 -0.007012 0.026299 -0.008246 0.000000 0.000000 0.000000
# 3 -0.008246 -0.008246 0.022996 0.000000 0.000000 0.000000
# 4 0.000000 0.000000 0.000000 0.034221 0.000000 0.000000
# 5 0.000000 0.000000 0.000000 0.000000 0.034221 0.000000
# 6 0.000000 0.000000 0.000000 0.000000 0.000000 0.020213
#
#
# Mechanical properties :
#
#
# Convention : Reuss Voigt Hill
#
# Bulk Modulus (GPa) = 34.98127 35.50129 35.24128
# Shear Modulus (GPa) = 22.64641 27.68355 25.16498
#
# Velocity S-wave (km/s) = 3.03050 3.35063 3.19458
# Velocity P-wave (km/s) = 5.14115 5.41904 5.28192
#
# Compressibility (1/GPa) = 0.02858672
#
# Stress axis : x y z
#
# Youngs Moduli (GPa) = 38.02477 38.02477 43.48503
#
# Poissons Ratio (x) = 0.26664 0.35856
# Poissons Ratio (y) = 0.26664 0.35856
# Poissons Ratio (z) = 0.31354 0.31354
#
# Static dielectric constant tensor:
#      x y z
#    x 4.432980 0.000000 0.000000 
#    y 0.000000 4.432980 0.000000 
#    z 0.000000 0.000000 4.625020 
# 
# 
# High freq. dielectric constant tensor:
#      x y z
#    x 1.975680 0.000000 0.000000 
#    y 0.000000 1.975680 0.000000 
#    z 0.000000 0.000000 1.985590 
# 
# From -- ./inp_files/3794.got.cif
#   From: 2010.03.12/outbox.cif.g09.slc.cpg/sg92_2_cif.got.tgz:3794.got - 2010.04.08 20:41:11.
