data_PCOD8305359
_publ_section_title
;
Structure prediction by ZEFSAII (Michael W. Deem and Ramdas Pophale) SiO2 
 PCOD8305359
Probable space group: P 41 21 2
;
_chemical_formula_sum "Si O2"
_cell_formula_units_Z 40
_cell_length_a 7.692347
_cell_length_b 7.692347
_cell_length_c 28.442456
_cell_angle_alpha 90.000000
_cell_angle_beta 90.000000
_cell_angle_gamma 90.000000
_cell_volume 1683.002762
_symmetry_space_group_name_H-M "P 41 21 2"
_symmetry_group_IT_number 92
_symmetry_cell_setting 'tetragonal'
loop_
_space_group_symop_operation_xyz
x,y,z
1/2-y,1/2+x,1/4+z
-x,-y,1/2+z
1/2+y,1/2-x,3/4+z
1/2+x,1/2-y,3/4-z
1/2-x,1/2+y,1/4-z
y,x,-z
-y,-x,1/2-z
loop_
_atom_site_type_symbol
_atom_site_label
_atom_site_fract_x
_atom_site_fract_y
_atom_site_fract_z
Si Si1 0.282914 0.103595 0.287244
Si Si2 0.919344 0.230257 0.293044
Si Si3 0.089440 0.464330 0.057384
Si Si4 0.960723 0.058148 0.854535
Si Si5 0.537340 0.583523 0.199463
O O1 0.352751 0.978090 0.246879
O O2 0.422344 0.251729 0.301156
O O3 0.109752 0.203931 0.268694
O O4 0.229366 0.982118 0.331678
O O5 0.782204 0.217796 0.250000
O O6 0.908795 0.423029 0.315714
O O7 0.897717 0.081307 0.333236
O O8 0.245560 0.519638 0.092072
O O9 0.035111 0.268023 0.067607
O O10 0.947329 0.032260 0.910563
O O11 0.467318 0.532683 0.250000
#
# Coordination Sequence:
#
# PCOD8305359 Si02
#       5
#     8   8   8   8   8
#     4   9  20  44  67  90 145 185 225 305 373 418
#     4   9  19  41  72 101 139 187 236 290 370 438
#     4  11  21  44  75 103 134 201 230 307 385 419
#     4  10  21  46  67  98 153 182 237 308 368 435
#     4  11  25  43  67 108 137 185 264 297 358 466
#
# _framework density 23.767040999999999
#
# number of rings (size 3 to 8) (size 9 to 14) (size 15 to 20)
#    1.200    0.800    2.000    1.800    0.000    2.400 
#   14.400    0.000    0.000    0.000    0.000    0.000 
#    0.000    0.000    0.000    0.000    0.000    0.000 
#
# Total GULP energy -495750.124734 kJ/mol
# GULP energy per Si atom -12393.753118 kJ/mol
# Density = 2.371295 g / cm^3
# Si number density = 23.767041 Si / 1000 Ang^3
#
#
#
# Elastic Constant Matrix: (Units=GPa)
#
#
# Indices 1 2 3 4 5 6 
#
# 1 86.6675 6.7597 17.7261 0.0000 0.0000 0.0000
# 2 6.7597 86.6673 17.7257 0.0000 0.0000 0.0000
# 3 17.7261 17.7257 126.0599 0.0000 0.0000 0.0000
# 4 0.0000 0.0000 0.0000 20.7365 0.0000 0.0000
# 5 0.0000 0.0000 0.0000 0.0000 20.7366 0.0000
# 6 0.0000 0.0000 0.0000 0.0000 0.0000 24.4627
#
#
#
# Elastic Compliance Matrix: (Units=1/GPa)
#
#
# Indices 1 2 3 4 5 6 
#
# 1 0.011911 -0.000604 -0.001590 0.000000 0.000000 0.000000
# 2 -0.000604 0.011911 -0.001590 0.000000 0.000000 0.000000
# 3 -0.001590 -0.001590 0.008380 0.000000 0.000000 0.000000
# 4 0.000000 0.000000 0.000000 0.048224 0.000000 0.000000
# 5 0.000000 0.000000 0.000000 0.000000 0.048224 0.000000
# 6 0.000000 0.000000 0.000000 0.000000 0.000000 0.040879
#
#
# Mechanical properties :
#
#
# Convention : Reuss Voigt Hill
#
# Bulk Modulus (GPa) = 40.59444 42.64640 41.62042
# Shear Modulus (GPa) = 26.98232 30.33269 28.65751
#
# Velocity S-wave (km/s) = 3.37305 3.57634 3.47618
# Velocity P-wave (km/s) = 5.68218 5.91913 5.80186
#
# Compressibility (1/GPa) = 0.02463392
#
# Stress axis : x y z
#
# Youngs Moduli (GPa) = 83.95854 83.95854 119.33368
#
# Poissons Ratio (x) = 0.05069 0.18973
# Poissons Ratio (y) = 0.05069 0.18973
# Poissons Ratio (z) = 0.13349 0.13348
#
# Static dielectric constant tensor:
#      x y z
#    x 4.148860 0.000000 0.000000 
#    y 0.000000 4.148860 0.000000 
#    z 0.000000 0.000000 3.800870 
# 
# 
# High freq. dielectric constant tensor:
#      x y z
#    x 1.930450 0.000000 0.000000 
#    y 0.000000 1.930450 0.000000 
#    z 0.000000 0.000000 1.921840 
# 
# From -- ./inp_files/4121.got.cif
#   From: 2010.03.12/outbox.cif.g09.slc.cpg/sg92_3_cif.got.tgz:4121.got - 2010.04.08 20:41:11.
