data_PCOD8305845
_publ_section_title
;
Structure prediction by ZEFSAII (Michael W. Deem and Ramdas Pophale) SiO2 
 PCOD8305845
Probable space group: P 43 2 2
;
_chemical_formula_sum "Si O2"
_cell_formula_units_Z 60
_cell_length_a 11.498683
_cell_length_b 11.498683
_cell_length_c 21.831997
_cell_angle_alpha 90.000000
_cell_angle_beta 90.000000
_cell_angle_gamma 90.000000
_cell_volume 2886.620328
_symmetry_space_group_name_H-M "P 43 2 2"
_symmetry_group_IT_number 95
_symmetry_cell_setting 'tetragonal'
loop_
_space_group_symop_operation_xyz
x,y,z
-y,x,3/4+z
-x,-y,1/2+z
y,-x,1/4+z
x,-y,1/2-z
-x,y,-z
y,x,1/4-z
-y,-x,3/4-z
loop_
_atom_site_type_symbol
_atom_site_label
_atom_site_fract_x
_atom_site_fract_y
_atom_site_fract_z
Si Si1 0.810715 0.100930 0.523888
Si Si2 0.752813 0.133965 0.660127
Si Si3 0.496954 0.217696 0.332625
Si Si4 0.586131 0.913336 0.051850
Si Si5 0.909463 0.000000 0.750000
Si Si6 0.125231 0.640823 0.019400
Si Si7 0.389689 0.834457 0.592671
Si Si8 0.529158 0.589626 0.430261
O O1 0.745144 0.101052 0.588722
O O2 0.719235 0.096255 0.468820
O O3 0.881454 0.219903 0.516146
O O4 0.894846 0.990445 0.521777
O O5 0.619208 0.142856 0.682340
O O6 0.824564 0.034245 0.694500
O O7 0.820353 0.253861 0.673237
O O8 0.568206 0.167706 0.389727
O O9 0.585632 0.219089 0.276130
O O10 0.461671 0.349992 0.344734
O O11 0.558288 0.047695 0.065282
O O12 0.500000 0.866397 0.000000
O O13 0.162129 0.593730 0.084818
O O14 0.000000 0.591674 0.000000
O O15 0.464739 0.729163 0.565422
O O16 0.500000 0.544684 0.500000
O O17 0.439586 0.560414 0.375000
#
# Coordination Sequence:
#
# PCOD8305845 Si02
#       8
#     8   8   8   8   4   8   8   8
#     4  11  24  41  62  98 130 172 215 266 336 403
#     4  10  23  42  62  93 135 169 215 277 319 394
#     4  11  25  42  66 100 128 174 225 275 337 390
#     4  12  23  41  68  92 133 173 214 274 334 398
#     4  12  22  40  70  94 134 178 216 264 338 406
#     4  11  22  40  64  96 130 166 218 281 332 401
#     4  10  22  43  67  92 131 169 221 274 336 395
#     4  11  25  46  70  98 137 180 229 284 338 411
#
# _framework density 20.785553
#
# number of rings (size 3 to 8) (size 9 to 14) (size 15 to 20)
#    0.000    1.067    4.667    1.600    2.800    0.533 
#    2.400    0.000    0.000    0.000    0.000    0.000 
#    0.000    0.000    0.000    0.000    0.000    0.000 
#
# Total GULP energy -744100.010708 kJ/mol
# GULP energy per Si atom -12401.666845 kJ/mol
# Density = 2.073824 g / cm^3
# Si number density = 20.785553 Si / 1000 Ang^3
#
#
#
# Elastic Constant Matrix: (Units=GPa)
#
#
# Indices 1 2 3 4 5 6 
#
# 1 73.2924 19.2558 32.4714 0.0000 0.0000 0.0000
# 2 19.2558 73.2915 32.4713 0.0000 0.0000 0.0000
# 3 32.4714 32.4713 108.8164 0.0000 0.0000 0.0000
# 4 0.0000 0.0000 0.0000 34.5106 0.0000 0.0000
# 5 0.0000 0.0000 0.0000 0.0000 34.5107 0.0000
# 6 0.0000 0.0000 0.0000 0.0000 0.0000 26.8591
#
#
#
# Elastic Compliance Matrix: (Units=1/GPa)
#
#
# Indices 1 2 3 4 5 6 
#
# 1 0.016086 -0.002420 -0.004078 0.000000 0.000000 0.000000
# 2 -0.002420 0.016087 -0.004078 0.000000 0.000000 0.000000
# 3 -0.004078 -0.004078 0.011624 0.000000 0.000000 0.000000
# 4 0.000000 0.000000 0.000000 0.028977 0.000000 0.000000
# 5 0.000000 0.000000 0.000000 0.000000 0.028977 0.000000
# 6 0.000000 0.000000 0.000000 0.000000 0.000000 0.037231
#
#
# Mechanical properties :
#
#
# Convention : Reuss Voigt Hill
#
# Bulk Modulus (GPa) = 44.16059 47.08860 45.62459
# Shear Modulus (GPa) = 29.81835 30.58954 30.20395
#
# Velocity S-wave (km/s) = 3.79168 3.84040 3.81612
# Velocity P-wave (km/s) = 6.36090 6.50911 6.43543
#
# Compressibility (1/GPa) = 0.02264463
#
# Stress axis : x y z
#
# Youngs Moduli (GPa) = 62.16394 62.16311 86.03059
#
# Poissons Ratio (x) = 0.15041 0.35086
# Poissons Ratio (y) = 0.15041 0.35086
# Poissons Ratio (z) = 0.25352 0.25352
#
# Static dielectric constant tensor:
#      x y z
#    x 3.721040 0.000000 0.000000 
#    y 0.000000 3.721040 0.000000 
#    z 0.000000 0.000000 3.759260 
# 
# 
# High freq. dielectric constant tensor:
#      x y z
#    x 1.813410 0.000000 0.000000 
#    y 0.000000 1.813410 0.000000 
#    z 0.000000 0.000000 1.819530 
# 
# From -- ./inp_files/6504.got.cif
#   From: 2010.03.12/outbox.cif.g09.slc.cpg/sg95_4_cif.got.tgz:6504.got - 2010.04.08 20:51:55.
