data_PCOD8305274
_publ_section_title
;
Structure prediction by ZEFSAII (Michael W. Deem and Ramdas Pophale) SiO2 
 PCOD8305274
Probable space group: P 41 21 2
;
_chemical_formula_sum "Si O2"
_cell_formula_units_Z 48
_cell_length_a 14.181845
_cell_length_b 14.181845
_cell_length_c 12.031793
_cell_angle_alpha 90.000000
_cell_angle_beta 90.000000
_cell_angle_gamma 90.000000
_cell_volume 2419.891090
_symmetry_space_group_name_H-M "P 41 21 2"
_symmetry_group_IT_number 92
_symmetry_cell_setting 'tetragonal'
loop_
_space_group_symop_operation_xyz
x,y,z
1/2-y,1/2+x,1/4+z
-x,-y,1/2+z
1/2+y,1/2-x,3/4+z
1/2+x,1/2-y,3/4-z
1/2-x,1/2+y,1/4-z
y,x,-z
-y,-x,1/2-z
loop_
_atom_site_type_symbol
_atom_site_label
_atom_site_fract_x
_atom_site_fract_y
_atom_site_fract_z
Si Si1 0.936205 0.193600 0.681464
Si Si2 0.994701 0.353819 0.840889
Si Si3 0.302306 0.850437 0.509605
Si Si4 0.348542 0.662037 0.622173
Si Si5 0.989852 0.712773 0.810153
Si Si6 0.967852 0.367143 0.082268
O O1 0.892166 0.107835 0.750000
O O2 0.872103 0.216092 0.573812
O O3 0.939265 0.286075 0.757922
O O4 0.039529 0.164216 0.642247
O O5 0.102228 0.367756 0.807536
O O6 0.951374 0.457569 0.842070
O O7 0.984459 0.312272 0.966016
O O8 0.296691 0.742897 0.550367
O O9 0.297943 0.917812 0.615640
O O10 0.322218 0.677783 0.750000
O O11 0.313098 0.560399 0.579780
O O12 0.913371 0.634403 0.843078
O O13 0.020111 0.707371 0.681534
#
# Coordination Sequence:
#
# PCOD8305274 Si02
#       6
#     8   8   8   8   8   8
#     4  11  25  43  64  88 129 177 218 252 319 391
#     4  10  20  38  62  97 128 162 200 262 328 392
#     4  11  22  38  67  91 123 169 211 261 333 378
#     4  11  24  43  64  94 129 171 221 268 320 394
#     4  11  22  38  61  95 128 160 208 273 327 383
#     4  10  21  33  62  95 132 150 203 268 335 377
#
# _framework density 19.835604
#
# number of rings (size 3 to 8) (size 9 to 14) (size 15 to 20)
#    0.000    1.333    3.333    3.000    9.333    0.000 
#    0.000    6.667    0.000    0.000    0.000    0.000 
#    0.000    0.000    0.000    0.000    0.000    0.000 
#
# Total GULP energy -595360.089993 kJ/mol
# GULP energy per Si atom -12403.335208 kJ/mol
# Density = 1.979046 g / cm^3
# Si number density = 19.835604 Si / 1000 Ang^3
#
#
#
# Elastic Constant Matrix: (Units=GPa)
#
#
# Indices 1 2 3 4 5 6 
#
# 1 57.3548 32.1392 27.2801 0.0000 0.0000 0.0000
# 2 32.1392 57.3556 27.2793 0.0000 0.0000 0.0000
# 3 27.2801 27.2793 134.1894 0.0000 0.0000 0.0000
# 4 0.0000 0.0000 0.0000 22.6704 0.0000 0.0000
# 5 0.0000 0.0000 0.0000 0.0000 22.6707 0.0000
# 6 0.0000 0.0000 0.0000 0.0000 0.0000 23.3335
#
#
#
# Elastic Compliance Matrix: (Units=1/GPa)
#
#
# Indices 1 2 3 4 5 6 
#
# 1 0.026206 -0.013451 -0.002593 0.000000 0.000000 0.000000
# 2 -0.013451 0.026206 -0.002593 0.000000 0.000000 0.000000
# 3 -0.002593 -0.002593 0.008506 0.000000 0.000000 0.000000
# 4 0.000000 0.000000 0.000000 0.044110 0.000000 0.000000
# 5 0.000000 0.000000 0.000000 0.000000 0.044110 0.000000
# 6 0.000000 0.000000 0.000000 0.000000 0.000000 0.042857
#
#
# Mechanical properties :
#
#
# Convention : Reuss Voigt Hill
#
# Bulk Modulus (GPa) = 42.29408 46.92190 44.60799
# Shear Modulus (GPa) = 21.08360 24.54833 22.81597
#
# Velocity S-wave (km/s) = 3.26378 3.52176 3.39522
# Velocity P-wave (km/s) = 5.96419 6.34380 6.15692
#
# Compressibility (1/GPa) = 0.02364397
#
# Stress axis : x y z
#
# Youngs Moduli (GPa) = 38.15881 38.15962 117.55858
#
# Poissons Ratio (x) = 0.51330 0.30484
# Poissons Ratio (y) = 0.51329 0.30480
# Poissons Ratio (z) = 0.09895 0.09894
#
# Static dielectric constant tensor:
#      x y z
#    x 3.431630 0.000000 0.000000 
#    y 0.000000 3.431630 0.000000 
#    z 0.000000 0.000000 4.057680 
# 
# 
# High freq. dielectric constant tensor:
#      x y z
#    x 1.759560 0.000000 0.000000 
#    y 0.000000 1.759560 0.000000 
#    z 0.000000 0.000000 1.797380 
# 
# From -- ./inp_files/2198.got.cif
#   From: 2010.03.12/outbox.cif.g09.slc.cpg/sg92_2_cif.got.tgz:2198.got - 2010.04.08 20:41:11.
