data_PCOD8305817
_publ_section_title
;
Structure prediction by ZEFSAII (Michael W. Deem and Ramdas Pophale) SiO2 
 PCOD8305817
Probable space group: P 43 2 2
;
_chemical_formula_sum "Si O2"
_cell_formula_units_Z 44
_cell_length_a 13.390414
_cell_length_b 13.390414
_cell_length_c 13.952658
_cell_angle_alpha 90.000000
_cell_angle_beta 90.000000
_cell_angle_gamma 90.000000
_cell_volume 2501.756048
_symmetry_space_group_name_H-M "P 43 2 2"
_symmetry_group_IT_number 95
_symmetry_cell_setting 'tetragonal'
loop_
_space_group_symop_operation_xyz
x,y,z
-y,x,3/4+z
-x,-y,1/2+z
y,-x,1/4+z
x,-y,1/2-z
-x,y,-z
y,x,1/4-z
-y,-x,3/4-z
loop_
_atom_site_type_symbol
_atom_site_label
_atom_site_fract_x
_atom_site_fract_y
_atom_site_fract_z
Si Si1 0.872808 0.524309 0.855035
Si Si2 0.588333 0.385450 0.269148
Si Si3 0.615412 0.000000 0.250000
Si Si4 0.197640 0.889905 0.776364
Si Si5 0.717199 0.258551 0.134386
Si Si6 0.609271 0.724193 0.706771
O O1 0.908937 0.500000 0.750000
O O2 0.805570 0.622585 0.852182
O O3 0.822060 0.428670 0.902975
O O4 0.973035 0.544980 0.912596
O O5 0.565104 0.500000 0.250000
O O6 0.630275 0.369726 0.375000
O O7 0.677266 0.345756 0.202763
O O8 0.483566 0.329295 0.257417
O O9 0.683414 0.091910 0.289494
O O10 0.149280 0.850721 0.875000
O O11 0.195788 0.808260 0.688422
O O12 0.149179 0.000000 0.750000
O O13 0.758352 0.309440 0.036738
O O14 0.652644 0.652644 0.625000
#
# Coordination Sequence:
#
# PCOD8305817 Si02
#       6
#     8   8   4   8   8   8
#     4  10  19  35  55  74 110 151 185 227 271 336
#     4  11  20  29  42  69 109 152 195 232 263 304
#     4   8  20  38  56  86 104 144 186 224 288 350
#     4   9  19  39  65  83 107 137 182 231 302 355
#     4  10  20  34  51  77 110 147 188 232 269 328
#     4  11  21  30  49  75 106 152 196 224 274 319
#
# _framework density 17.587647
#
# number of rings (size 3 to 8) (size 9 to 14) (size 15 to 20)
#    0.545    1.455    3.636    1.091    2.545    0.000 
#    3.273    0.000    0.000    3.273    0.000    0.000 
#    0.000    0.000    0.000    0.000    0.000    0.000 
#
# Total GULP energy -545126.065018 kJ/mol
# GULP energy per Si atom -12389.228750 kJ/mol
# Density = 1.754762 g / cm^3
# Si number density = 17.587647 Si / 1000 Ang^3
#
#
#
# Elastic Constant Matrix: (Units=GPa)
#
#
# Indices 1 2 3 4 5 6 
#
# 1 56.8572 26.0196 50.7533 0.0000 0.0000 0.0000
# 2 26.0196 56.8575 50.7534 0.0000 0.0000 0.0000
# 3 50.7533 50.7534 162.0057 0.0000 0.0000 0.0000
# 4 0.0000 0.0000 0.0000 31.6121 0.0000 0.0000
# 5 0.0000 0.0000 0.0000 0.0000 31.6120 0.0000
# 6 0.0000 0.0000 0.0000 0.0000 0.0000 12.9564
#
#
#
# Elastic Compliance Matrix: (Units=1/GPa)
#
#
# Indices 1 2 3 4 5 6 
#
# 1 0.026003 -0.006425 -0.006134 0.000000 0.000000 0.000000
# 2 -0.006425 0.026003 -0.006134 0.000000 0.000000 0.000000
# 3 -0.006134 -0.006134 0.010016 0.000000 0.000000 0.000000
# 4 0.000000 0.000000 0.000000 0.031633 0.000000 0.000000
# 5 0.000000 0.000000 0.000000 0.000000 0.031634 0.000000
# 6 0.000000 0.000000 0.000000 0.000000 0.000000 0.077182
#
#
# Mechanical properties :
#
#
# Convention : Reuss Voigt Hill
#
# Bulk Modulus (GPa) = 40.58728 58.97478 49.78103
# Shear Modulus (GPa) = 20.15584 25.11570 22.63577
#
# Velocity S-wave (km/s) = 3.38897 3.78303 3.59141
# Velocity P-wave (km/s) = 6.20006 7.25854 6.75008
#
# Compressibility (1/GPa) = 0.02463826
#
# Stress axis : x y z
#
# Youngs Moduli (GPa) = 38.45692 38.45713 99.84355
#
# Poissons Ratio (x) = 0.24707 0.61240
# Poissons Ratio (y) = 0.24707 0.61239
# Poissons Ratio (z) = 0.23588 0.23588
#
# Static dielectric constant tensor:
#      x y z
#    x 3.140070 0.000000 0.000000 
#    y 0.000000 3.140070 0.000000 
#    z 0.000000 0.000000 3.460140 
# 
# 
# High freq. dielectric constant tensor:
#      x y z
#    x 1.655900 0.000000 0.000000 
#    y 0.000000 1.655900 0.000000 
#    z 0.000000 0.000000 1.693750 
# 
# From -- ./inp_files/3787.got.cif
#   From: 2010.03.12/outbox.cif.g09.slc.cpg/sg95_2_cif.got.tgz:3787.got - 2010.04.08 20:51:55.
