data_PCOD8305296
_publ_section_title
;
Structure prediction by ZEFSAII (Michael W. Deem and Ramdas Pophale) SiO2 
 PCOD8305296
Probable space group: P 41 21 2
;
_chemical_formula_sum "Si O2"
_cell_formula_units_Z 48
_cell_length_a 8.824907
_cell_length_b 8.824907
_cell_length_c 29.720649
_cell_angle_alpha 90.000000
_cell_angle_beta 90.000000
_cell_angle_gamma 90.000000
_cell_volume 2314.613935
_symmetry_space_group_name_H-M "P 41 21 2"
_symmetry_group_IT_number 92
_symmetry_cell_setting 'tetragonal'
loop_
_space_group_symop_operation_xyz
x,y,z
1/2-y,1/2+x,1/4+z
-x,-y,1/2+z
1/2+y,1/2-x,3/4+z
1/2+x,1/2-y,3/4-z
1/2-x,1/2+y,1/4-z
y,x,-z
-y,-x,1/2-z
loop_
_atom_site_type_symbol
_atom_site_label
_atom_site_fract_x
_atom_site_fract_y
_atom_site_fract_z
Si Si1 0.576441 0.086030 0.038133
Si Si2 0.404019 0.582304 0.381499
Si Si3 0.956754 0.401955 0.883541
Si Si4 0.088869 0.571704 0.801872
Si Si5 0.855653 0.917322 0.080886
Si Si6 0.914821 0.855589 0.818769
O O1 0.591320 0.266400 0.042264
O O2 0.435774 0.022153 0.066907
O O3 0.726522 0.999448 0.053199
O O4 0.546396 0.051107 0.985855
O O5 0.224242 0.595300 0.382780
O O6 0.483624 0.742502 0.382852
O O7 0.462138 0.493687 0.336621
O O8 0.465414 0.493779 0.425707
O O9 0.026995 0.524645 0.850281
O O10 0.269786 0.592139 0.803556
O O11 0.002623 0.728049 0.790301
O O12 0.797906 0.866170 0.130813
#
# Coordination Sequence:
#
# PCOD8305296 Si02
#       6
#     8   8   8   8   8   8
#     4  12  24  40  69  95 134 169 225 276 336 411
#     4  10  23  38  73  86 130 181 218 273 341 404
#     4  12  21  44  61  96 130 174 218 278 340 388
#     4  12  24  39  68  98 128 176 223 274 343 402
#     4  10  20  42  64  95 125 173 221 274 330 402
#     4  10  21  43  64  95 128 175 217 277 331 400
#
# _framework density 20.737798000000002
#
# number of rings (size 3 to 8) (size 9 to 14) (size 15 to 20)
#    1.000    0.000    3.333    4.500    0.000    2.667 
#    0.000    6.667    0.000    0.000    0.000    0.000 
#    0.000    0.000    0.000    0.000    0.000    0.000 
#
# Total GULP energy -595121.451033 kJ/mol
# GULP energy per Si atom -12398.363563 kJ/mol
# Density = 2.069060 g / cm^3
# Si number density = 20.737798 Si / 1000 Ang^3
#
#
#
# Elastic Constant Matrix: (Units=GPa)
#
#
# Indices 1 2 3 4 5 6 
#
# 1 97.4048 22.0034 -9.5760 0.0000 0.0000 0.0000
# 2 22.0034 97.4048 -9.5760 0.0000 0.0000 0.0000
# 3 -9.5760 -9.5760 31.3127 0.0000 0.0000 0.0000
# 4 0.0000 0.0000 0.0000 24.2430 0.0000 0.0000
# 5 0.0000 0.0000 0.0000 0.0000 24.2430 0.0000
# 6 0.0000 0.0000 0.0000 0.0000 0.0000 40.7284
#
#
#
# Elastic Compliance Matrix: (Units=1/GPa)
#
#
# Indices 1 2 3 4 5 6 
#
# 1 0.011034 -0.002228 0.002693 0.000000 0.000000 0.000000
# 2 -0.002228 0.011034 0.002693 0.000000 0.000000 0.000000
# 3 0.002693 0.002693 0.033583 0.000000 0.000000 0.000000
# 4 0.000000 0.000000 0.000000 0.041249 0.000000 0.000000
# 5 0.000000 0.000000 0.000000 0.000000 0.041249 0.000000
# 6 0.000000 0.000000 0.000000 0.000000 0.000000 0.024553
#
#
# Mechanical properties :
#
#
# Convention : Reuss Voigt Hill
#
# Bulk Modulus (GPa) = 16.13702 25.75833 20.94768
# Shear Modulus (GPa) = 28.24185 32.72762 30.48474
#
# Velocity S-wave (km/s) = 3.69433 3.97692 3.83823
# Velocity P-wave (km/s) = 5.09861 5.79101 5.45580
#
# Compressibility (1/GPa) = 0.06196932
#
# Stress axis : x y z
#
# Youngs Moduli (GPa) = 90.62503 90.62503 29.77679
#
# Poissons Ratio (x) = 0.20190 -0.08020
# Poissons Ratio (y) = 0.20190 -0.08020
# Poissons Ratio (z) = -0.24407 -0.24407
#
# Static dielectric constant tensor:
#      x y z
#    x 3.809680 0.000000 0.000000 
#    y 0.000000 3.809680 0.000000 
#    z 0.000000 0.000000 3.525190 
# 
# 
# High freq. dielectric constant tensor:
#      x y z
#    x 1.818990 0.000000 0.000000 
#    y 0.000000 1.818990 0.000000 
#    z 0.000000 0.000000 1.787950 
# 
# From -- ./inp_files/4521.got.cif
#   From: 2010.03.12/outbox.cif.g09.slc.cpg/sg92_3_cif.got.tgz:4521.got - 2010.04.08 20:41:11.
