data_PCOD8305524
_publ_section_title
;
Structure prediction by ZEFSAII (Michael W. Deem and Ramdas Pophale) SiO2 
 PCOD8305524
Probable space group: P 42 2 2
;
_chemical_formula_sum "Si O2"
_cell_formula_units_Z 36
_cell_length_a 16.643974
_cell_length_b 16.643974
_cell_length_c 7.604154
_cell_angle_alpha 90.000000
_cell_angle_beta 90.000000
_cell_angle_gamma 90.000000
_cell_volume 2106.516965
_symmetry_space_group_name_H-M "P 42 2 2"
_symmetry_group_IT_number 93
_symmetry_cell_setting 'tetragonal'
loop_
_space_group_symop_operation_xyz
x,y,z
-y,x,1/2+z
-x,-y,z
y,-x,1/2+z
x,-y,-z
-x,y,-z
y,x,1/2-z
-y,-x,1/2-z
loop_
_atom_site_type_symbol
_atom_site_label
_atom_site_fract_x
_atom_site_fract_y
_atom_site_fract_z
Si Si1 0.895795 0.660964 0.172937
Si Si2 0.815977 0.815977 0.250000
Si Si3 0.494478 0.091739 0.795181
Si Si4 0.677629 0.924741 0.723320
Si Si5 0.839013 0.087918 0.083687
O O1 0.832109 0.720600 0.263692
O O2 0.863984 0.568542 0.192999
O O3 0.981165 0.667024 0.274391
O O4 0.910279 0.695401 0.979779
O O5 0.851005 0.858683 0.425133
O O6 0.405707 0.124515 0.750769
O O7 0.500000 0.000000 0.731201
O O8 0.500000 0.103252 0.000000
O O9 0.749579 0.892320 0.843478
O O10 0.899768 0.100233 0.250000
O O11 0.848441 0.000000 0.000000
#
# Coordination Sequence:
#
# PCOD8305524 Si02
#       5
#     8   4   8   8   8
#     4  10  19  32  53  76 104 135 173 215 271 330
#     4  12  22  36  57  76 104 140 181 226 278 330
#     4   9  17  28  48  78 104 130 163 211 266 330
#     4  10  19  34  54  74 101 132 175 223 271 327
#     4  12  25  41  60  75 100 138 186 241 285 328
#
# _framework density 17.089822000000002
#
# number of rings (size 3 to 8) (size 9 to 14) (size 15 to 20)
#    0.000    1.556    4.444    2.000    3.111    3.556 
#    0.000    1.667    0.000    0.000    0.000    0.000 
#    0.000    0.000    0.000    1.000    7.556    3.111 
#
# Total GULP energy -446021.130704 kJ/mol
# GULP energy per Si atom -12389.475853 kJ/mol
# Density = 1.705092 g / cm^3
# Si number density = 17.089822 Si / 1000 Ang^3
#
#
#
# Elastic Constant Matrix: (Units=GPa)
#
#
# Indices 1 2 3 4 5 6 
#
# 1 78.4528 39.5512 32.9893 0.0000 0.0000 0.0000
# 2 39.5512 78.4550 32.9896 0.0000 0.0000 0.0000
# 3 32.9893 32.9896 89.7245 0.0000 0.0000 0.0000
# 4 0.0000 0.0000 0.0000 25.3693 0.0000 0.0000
# 5 0.0000 0.0000 0.0000 0.0000 25.3692 0.0000
# 6 0.0000 0.0000 0.0000 0.0000 0.0000 10.9976
#
#
#
# Elastic Compliance Matrix: (Units=1/GPa)
#
#
# Indices 1 2 3 4 5 6 
#
# 1 0.018186 -0.007519 -0.003922 0.000000 0.000000 0.000000
# 2 -0.007519 0.018186 -0.003922 0.000000 0.000000 0.000000
# 3 -0.003922 -0.003922 0.014029 0.000000 0.000000 0.000000
# 4 0.000000 0.000000 0.000000 0.039418 0.000000 0.000000
# 5 0.000000 0.000000 0.000000 0.000000 0.039418 0.000000
# 6 0.000000 0.000000 0.000000 0.000000 0.000000 0.090929
#
#
# Mechanical properties :
#
#
# Convention : Reuss Voigt Hill
#
# Bulk Modulus (GPa) = 50.82493 50.85470 50.83981
# Shear Modulus (GPa) = 19.42121 21.75405 20.58763
#
# Velocity S-wave (km/s) = 3.37474 3.57168 3.47460
# Velocity P-wave (km/s) = 6.70743 6.84332 6.77572
#
# Compressibility (1/GPa) = 0.01967539
#
# Stress axis : x y z
#
# Youngs Moduli (GPa) = 54.98625 54.98783 71.27950
#
# Poissons Ratio (x) = 0.41345 0.27956
# Poissons Ratio (y) = 0.41344 0.27956
# Poissons Ratio (z) = 0.21566 0.21566
#
# Static dielectric constant tensor:
#      x y z
#    x 3.101520 0.000000 0.000000 
#    y 0.000000 3.101520 0.000000 
#    z 0.000000 0.000000 3.379270 
# 
# 
# High freq. dielectric constant tensor:
#      x y z
#    x 1.622400 0.000000 0.000000 
#    y 0.000000 1.622400 0.000000 
#    z 0.000000 0.000000 1.685170 
# 
# From -- ./inp_files/1691.got.cif
#   From: 2010.03.12/outbox.cif.g09.slc.cpg/sg93_1_cif.got.tgz:1691.got - 2010.04.08 20:44:19.
