data_PCOD8305573
_publ_section_title
;
Structure prediction by ZEFSAII (Michael W. Deem and Ramdas Pophale) SiO2 
 PCOD8305573
Probable space group: P 42 2 2
;
_chemical_formula_sum "Si O2"
_cell_formula_units_Z 32
_cell_length_a 13.034460
_cell_length_b 13.034460
_cell_length_c 9.875160
_cell_angle_alpha 90.000000
_cell_angle_beta 90.000000
_cell_angle_gamma 90.000000
_cell_volume 1677.761515
_symmetry_space_group_name_H-M "P 42 2 2"
_symmetry_group_IT_number 93
_symmetry_cell_setting 'tetragonal'
loop_
_space_group_symop_operation_xyz
x,y,z
-y,x,1/2+z
-x,-y,z
y,-x,1/2+z
x,-y,-z
-x,y,-z
y,x,1/2-z
-y,-x,1/2-z
loop_
_atom_site_type_symbol
_atom_site_label
_atom_site_fract_x
_atom_site_fract_y
_atom_site_fract_z
Si Si1 0.894461 0.436779 0.713606
Si Si2 0.266986 0.113443 0.995689
Si Si3 0.885728 0.711392 0.032118
Si Si4 0.793986 0.363627 0.240263
O O1 0.884299 0.374716 0.574981
O O2 0.887050 0.359738 0.837558
O O3 0.799969 0.517192 0.718355
O O4 0.000000 0.500000 0.719432
O O5 0.184783 0.189985 0.061654
O O6 0.290468 0.140512 0.840110
O O7 0.218690 0.000000 0.000000
O O8 0.840083 0.645577 0.909297
O O9 0.000000 0.750154 0.000000
O O10 0.675738 0.324263 0.250000
#
# Coordination Sequence:
#
# PCOD8305573 Si02
#       4
#     8   8   8   8
#     4  12  21  36  63  86 117 155 208 253 298 349
#     4  11  22  37  57  88 121 159 200 246 301 364
#     4  11  22  37  57  88 121 159 200 246 301 364
#     4  10  22  36  56  86 121 149 194 254 305 350
#
# _framework density 19.073032999999999
#
# number of rings (size 3 to 8) (size 9 to 14) (size 15 to 20)
#    0.000    1.000    5.000    2.250    0.000    0.500 
#    0.000    0.000    0.000   10.500    0.000   14.000 
#    0.000    0.000    0.000    0.000    0.000    0.000 
#
# Total GULP energy -396868.625346 kJ/mol
# GULP energy per Si atom -12402.144542 kJ/mol
# Density = 1.902962 g / cm^3
# Si number density = 19.073033 Si / 1000 Ang^3
#
#
#
# Elastic Constant Matrix: (Units=GPa)
#
#
# Indices 1 2 3 4 5 6 
#
# 1 111.5574 60.3787 13.0669 0.0000 0.0000 0.0000
# 2 60.3787 111.5568 13.0665 0.0000 0.0000 0.0000
# 3 13.0669 13.0665 70.4083 0.0000 0.0000 0.0000
# 4 0.0000 0.0000 0.0000 28.6400 0.0000 0.0000
# 5 0.0000 0.0000 0.0000 0.0000 28.6404 0.0000
# 6 0.0000 0.0000 0.0000 0.0000 0.0000 32.7777
#
#
#
# Elastic Compliance Matrix: (Units=1/GPa)
#
#
# Indices 1 2 3 4 5 6 
#
# 1 0.012762 -0.006777 -0.001111 0.000000 0.000000 0.000000
# 2 -0.006777 0.012762 -0.001111 0.000000 0.000000 0.000000
# 3 -0.001111 -0.001111 0.014615 0.000000 0.000000 0.000000
# 4 0.000000 0.000000 0.000000 0.034916 0.000000 0.000000
# 5 0.000000 0.000000 0.000000 0.000000 0.034916 0.000000
# 6 0.000000 0.000000 0.000000 0.000000 0.000000 0.030509
#
#
# Mechanical properties :
#
#
# Convention : Reuss Voigt Hill
#
# Bulk Modulus (GPa) = 45.16266 51.83850 48.50058
# Shear Modulus (GPa) = 30.14624 31.81231 30.97927
#
# Velocity S-wave (km/s) = 3.97995 4.08845 4.03456
# Velocity P-wave (km/s) = 6.69703 7.03741 6.86933
#
# Compressibility (1/GPa) = 0.02214218
#
# Stress axis : x y z
#
# Youngs Moduli (GPa) = 78.35641 78.35609 68.42218
#
# Poissons Ratio (x) = 0.53104 0.07600
# Poissons Ratio (y) = 0.53104 0.07599
# Poissons Ratio (z) = 0.08704 0.08703
#
# Static dielectric constant tensor:
#      x y z
#    x 3.668690 0.000000 0.000000 
#    y 0.000000 3.668690 0.000000 
#    z 0.000000 0.000000 3.627920 
# 
# 
# High freq. dielectric constant tensor:
#      x y z
#    x 1.730330 0.000000 0.000000 
#    y 0.000000 1.730340 0.000000 
#    z 0.000000 0.000000 1.763400 
# 
# From -- ./inp_files/1545.got.cif
#   From: 2010.03.12/outbox.cif.g09.slc.cpg/sg93_1_cif.got.tgz:1545.got - 2010.04.08 20:44:19.
