data_PCOD8305185
_publ_section_title
;
Structure prediction by ZEFSAII (Michael W. Deem and Ramdas Pophale) SiO2 
 PCOD8305185
Probable space group: P 41 2 2
;
_chemical_formula_sum "Si O2"
_cell_formula_units_Z 40
_cell_length_a 9.400959
_cell_length_b 9.400959
_cell_length_c 23.184261
_cell_angle_alpha 90.000000
_cell_angle_beta 90.000000
_cell_angle_gamma 90.000000
_cell_volume 2048.979317
_symmetry_space_group_name_H-M "P 41 2 2"
_symmetry_group_IT_number 91
_symmetry_cell_setting 'tetragonal'
loop_
_space_group_symop_operation_xyz
x,y,z
-y,x,1/4+z
-x,-y,1/2+z
y,-x,3/4+z
x,-y,1/2-z
-x,y,-z
y,x,3/4-z
-y,-x,1/4-z
loop_
_atom_site_type_symbol
_atom_site_label
_atom_site_fract_x
_atom_site_fract_y
_atom_site_fract_z
Si Si1 0.097031 0.156329 0.737070
Si Si2 0.164690 0.438874 0.486279
Si Si3 0.170648 0.665097 0.262752
Si Si4 0.658933 0.196920 0.172062
Si Si5 0.878232 0.328408 0.894611
O O1 0.205481 0.193284 0.787165
O O2 0.180571 0.158876 0.676477
O O3 0.974301 0.273368 0.736156
O O4 0.031590 0.000000 0.750000
O O5 0.252307 0.294847 0.478758
O O6 0.231879 0.519708 0.541253
O O7 0.184683 0.535983 0.429309
O O8 0.000000 0.408125 0.500000
O O9 0.178874 0.500000 0.250000
O O10 0.186664 0.686944 0.331200
O O11 0.678699 0.321302 0.125000
O O12 0.647884 0.046631 0.139533
#
# Coordination Sequence:
#
# PCOD8305185 Si02
#       5
#     8   8   8   8   8
#     4   9  19  36  63  92 115 148 197 253 303 354
#     4   9  21  40  59  83 118 162 194 240 311 361
#     4  12  24  38  57  89 125 158 204 244 299 374
#     4   9  15  35  65  88 111 148 202 250 290 351
#     4   9  20  39  61  87 122 147 197 261 299 347
#
# _framework density 19.521916999999998
#
# number of rings (size 3 to 8) (size 9 to 14) (size 15 to 20)
#    0.000    2.400    2.000    3.000    0.000    4.000 
#    3.600    4.000    0.000    0.000    0.000    0.000 
#    0.000    0.000    0.000    0.000    0.000    0.000 
#
# Total GULP energy -495929.739402 kJ/mol
# GULP energy per Si atom -12398.243485 kJ/mol
# Density = 1.947748 g / cm^3
# Si number density = 19.521917 Si / 1000 Ang^3
#
#
#
# Elastic Constant Matrix: (Units=GPa)
#
#
# Indices 1 2 3 4 5 6 
#
# 1 88.7878 46.5136 26.1102 0.0000 0.0000 0.0000
# 2 46.5136 88.7875 26.1098 0.0000 0.0000 0.0000
# 3 26.1102 26.1098 96.1854 0.0000 0.0000 0.0000
# 4 0.0000 0.0000 0.0000 22.9883 0.0000 0.0000
# 5 0.0000 0.0000 0.0000 0.0000 22.9884 0.0000
# 6 0.0000 0.0000 0.0000 0.0000 0.0000 9.2318
#
#
#
# Elastic Compliance Matrix: (Units=1/GPa)
#
#
# Indices 1 2 3 4 5 6 
#
# 1 0.015956 -0.007700 -0.002241 0.000000 0.000000 0.000000
# 2 -0.007700 0.015956 -0.002241 0.000000 0.000000 0.000000
# 3 -0.002241 -0.002241 0.011613 0.000000 0.000000 0.000000
# 4 0.000000 0.000000 0.000000 0.043500 0.000000 0.000000
# 5 0.000000 0.000000 0.000000 0.000000 0.043500 0.000000
# 6 0.000000 0.000000 0.000000 0.000000 0.000000 0.108321
#
#
# Mechanical properties :
#
#
# Convention : Reuss Voigt Hill
#
# Bulk Modulus (GPa) = 52.19029 52.35867 52.27448
# Shear Modulus (GPa) = 18.54622 22.71017 20.62820
#
# Velocity S-wave (km/s) = 3.08558 3.41444 3.25417
# Velocity P-wave (km/s) = 6.28384 6.51331 6.39961
#
# Compressibility (1/GPa) = 0.01916065
#
# Stress axis : x y z
#
# Youngs Moduli (GPa) = 62.67418 62.67415 86.10815
#
# Poissons Ratio (x) = 0.48257 0.19298
# Poissons Ratio (y) = 0.48257 0.19297
# Poissons Ratio (z) = 0.14046 0.14046
#
# Static dielectric constant tensor:
#      x y z
#    x 3.492700 0.000000 0.000000 
#    y 0.000000 3.492690 0.000000 
#    z 0.000000 0.000000 3.587470 
# 
# 
# High freq. dielectric constant tensor:
#      x y z
#    x 1.749040 0.000000 0.000000 
#    y 0.000000 1.749040 0.000000 
#    z 0.000000 0.000000 1.759380 
# 
# From -- ./inp_files/6719.got.cif
#   From: 2010.03.12/outbox.cif.g09.slc.cpg/sg91_4_cif.got.tgz:6719.got - 2010.04.08 20:27:58.
