data_PCOD8305393
_publ_section_title
;
Structure prediction by ZEFSAII (Michael W. Deem and Ramdas Pophale) SiO2 
 PCOD8305393
Probable space group: P 41 21 2
;
_chemical_formula_sum "Si O2"
_cell_formula_units_Z 36
_cell_length_a 8.987306
_cell_length_b 8.987306
_cell_length_c 20.803156
_cell_angle_alpha 90.000000
_cell_angle_beta 90.000000
_cell_angle_gamma 90.000000
_cell_volume 1680.305633
_symmetry_space_group_name_H-M "P 41 21 2"
_symmetry_group_IT_number 92
_symmetry_cell_setting 'tetragonal'
loop_
_space_group_symop_operation_xyz
x,y,z
1/2-y,1/2+x,1/4+z
-x,-y,1/2+z
1/2+y,1/2-x,3/4+z
1/2+x,1/2-y,3/4-z
1/2-x,1/2+y,1/4-z
y,x,-z
-y,-x,1/2-z
loop_
_atom_site_type_symbol
_atom_site_label
_atom_site_fract_x
_atom_site_fract_y
_atom_site_fract_z
Si Si1 0.729952 0.166659 0.427342
Si Si2 0.099580 0.900421 0.250000
Si Si3 0.050058 0.075318 0.378203
Si Si4 0.370104 0.942145 0.170805
Si Si5 0.679456 0.724325 0.682066
O O1 0.653490 0.280279 0.377949
O O2 0.758831 0.243496 0.496065
O O3 0.883630 0.114848 0.396960
O O4 0.614188 0.033591 0.437550
O O5 0.273890 0.921947 0.235612
O O6 0.009272 0.957500 0.189140
O O7 0.119045 0.966231 0.432109
O O8 0.307795 0.845446 0.111880
O O9 0.369383 0.116703 0.152674
#
# Coordination Sequence:
#
# PCOD8305393 Si02
#       5
#     8   4   8   8   8
#     4  12  26  44  71 105 141 186 233 300 354 417
#     4  10  22  44  66  92 138 182 230 282 348 430
#     4  11  25  45  66 104 143 181 233 289 353 422
#     4  11  24  42  73  98 138 182 240 288 355 423
#     4  11  25  45  68 103 136 189 235 288 354 432
#
# _framework density 21.424672000000001
#
# number of rings (size 3 to 8) (size 9 to 14) (size 15 to 20)
#    0.000    0.889    2.222    4.667    9.333    1.778 
#    4.000    0.000    0.000    0.000    0.000    0.000 
#    0.000    0.000    0.000    0.000    0.000    0.000 
#
# Total GULP energy -446559.446027 kJ/mol
# GULP energy per Si atom -12404.429056 kJ/mol
# Density = 2.137591 g / cm^3
# Si number density = 21.424672 Si / 1000 Ang^3
#
#
#
# Elastic Constant Matrix: (Units=GPa)
#
#
# Indices 1 2 3 4 5 6 
#
# 1 115.2873 27.4772 7.8827 0.0000 0.0000 0.0000
# 2 27.4772 115.2868 7.8830 0.0000 0.0000 0.0000
# 3 7.8827 7.8830 66.0190 0.0000 0.0000 0.0000
# 4 0.0000 0.0000 0.0000 31.0607 0.0000 0.0000
# 5 0.0000 0.0000 0.0000 0.0000 31.0609 0.0000
# 6 0.0000 0.0000 0.0000 0.0000 0.0000 44.2903
#
#
#
# Elastic Compliance Matrix: (Units=1/GPa)
#
#
# Indices 1 2 3 4 5 6 
#
# 1 0.009243 -0.002145 -0.000848 0.000000 0.000000 0.000000
# 2 -0.002145 0.009243 -0.000848 0.000000 0.000000 0.000000
# 3 -0.000848 -0.000848 0.015350 0.000000 0.000000 0.000000
# 4 0.000000 0.000000 0.000000 0.032195 0.000000 0.000000
# 5 0.000000 0.000000 0.000000 0.000000 0.032195 0.000000
# 6 0.000000 0.000000 0.000000 0.000000 0.000000 0.022578
#
#
# Mechanical properties :
#
#
# Convention : Reuss Voigt Hill
#
# Bulk Modulus (GPa) = 38.23257 42.56431 40.39844
# Shear Modulus (GPa) = 36.44239 38.17241 37.30740
#
# Velocity S-wave (km/s) = 4.12874 4.22560 4.17745
# Velocity P-wave (km/s) = 6.37279 6.61194 6.49347
#
# Compressibility (1/GPa) = 0.02615571
#
# Stress axis : x y z
#
# Youngs Moduli (GPa) = 108.18793 108.18746 65.14846
#
# Poissons Ratio (x) = 0.23207 0.05521
# Poissons Ratio (y) = 0.23207 0.05522
# Poissons Ratio (z) = 0.09169 0.09170
#
# Static dielectric constant tensor:
#      x y z
#    x 4.038180 0.000000 0.000000 
#    y 0.000000 4.038190 0.000000 
#    z 0.000000 0.000000 3.783900 
# 
# 
# High freq. dielectric constant tensor:
#      x y z
#    x 1.854300 0.000000 0.000000 
#    y 0.000000 1.854300 0.000000 
#    z 0.000000 0.000000 1.834100 
# 
# From -- ./inp_files/3439.got.cif
#   From: 2010.03.12/outbox.cif.g09.slc.cpg/sg92_2_cif.got.tgz:3439.got - 2010.04.08 20:41:11.
