data_PCOD8305472
_publ_section_title
;
Structure prediction by ZEFSAII (Michael W. Deem and Ramdas Pophale) SiO2 
 PCOD8305472
Probable space group: P 41 21 2
;
_chemical_formula_sum "Si O2"
_cell_formula_units_Z 40
_cell_length_a 8.332944
_cell_length_b 8.332944
_cell_length_c 25.842740
_cell_angle_alpha 90.000000
_cell_angle_beta 90.000000
_cell_angle_gamma 90.000000
_cell_volume 1794.467035
_symmetry_space_group_name_H-M "P 41 21 2"
_symmetry_group_IT_number 92
_symmetry_cell_setting 'tetragonal'
loop_
_space_group_symop_operation_xyz
x,y,z
1/2-y,1/2+x,1/4+z
-x,-y,1/2+z
1/2+y,1/2-x,3/4+z
1/2+x,1/2-y,3/4-z
1/2-x,1/2+y,1/4-z
y,x,-z
-y,-x,1/2-z
loop_
_atom_site_type_symbol
_atom_site_label
_atom_site_fract_x
_atom_site_fract_y
_atom_site_fract_z
Si Si1 0.907265 0.447145 0.149657
Si Si2 0.246536 0.776877 0.930859
Si Si3 0.060291 0.181206 0.222039
Si Si4 0.040026 0.734864 0.353002
Si Si5 0.629486 0.359402 0.688930
O O1 0.855691 0.607889 0.179124
O O2 0.757623 0.375099 0.116190
O O3 0.964727 0.317964 0.191706
O O4 0.045352 0.495672 0.108488
O O5 0.170205 0.950173 0.920272
O O6 0.331216 0.769134 0.985816
O O7 0.937597 0.062404 0.250000
O O8 0.177807 0.085880 0.183961
O O9 0.023394 0.810737 0.411081
O O10 0.219790 0.752553 0.330480
O O11 0.630710 0.369291 0.750000
#
# Coordination Sequence:
#
# PCOD8305472 Si02
#       5
#     8   8   8   8   8
#     4  11  26  48  70 106 146 184 239 293 359 427
#     4  11  26  45  70 101 147 180 238 294 354 427
#     4  12  26  45  72 104 140 194 240 289 362 426
#     4  11  24  45  69 104 141 183 241 290 350 430
#     4  11  25  45  71 104 141 188 237 291 365 422
#
# _framework density 22.290742999999999
#
# number of rings (size 3 to 8) (size 9 to 14) (size 15 to 20)
#    0.000    0.800    4.000    3.000   11.200    0.800 
#    0.000    0.000    0.000    0.000    0.000    0.000 
#    0.000    0.000    0.000    0.000    0.000    0.000 
#
# Total GULP energy -495954.138121 kJ/mol
# GULP energy per Si atom -12398.853453 kJ/mol
# Density = 2.224001 g / cm^3
# Si number density = 22.290743 Si / 1000 Ang^3
#
#
#
# Elastic Constant Matrix: (Units=GPa)
#
#
# Indices 1 2 3 4 5 6 
#
# 1 63.2032 40.4185 36.9742 0.0000 0.0000 0.0000
# 2 40.4185 63.2016 36.9739 0.0000 0.0000 0.0000
# 3 36.9742 36.9739 141.8020 0.0000 0.0000 0.0000
# 4 0.0000 0.0000 0.0000 34.9034 0.0000 0.0000
# 5 0.0000 0.0000 0.0000 0.0000 34.9040 0.0000
# 6 0.0000 0.0000 0.0000 0.0000 0.0000 39.2185
#
#
#
# Elastic Compliance Matrix: (Units=1/GPa)
#
#
# Indices 1 2 3 4 5 6 
#
# 1 0.027873 -0.016017 -0.003092 0.000000 0.000000 0.000000
# 2 -0.016017 0.027874 -0.003092 0.000000 0.000000 0.000000
# 3 -0.003092 -0.003092 0.008664 0.000000 0.000000 0.000000
# 4 0.000000 0.000000 0.000000 0.028651 0.000000 0.000000
# 5 0.000000 0.000000 0.000000 0.000000 0.028650 0.000000
# 6 0.000000 0.000000 0.000000 0.000000 0.000000 0.025498
#
#
# Mechanical properties :
#
#
# Convention : Reuss Voigt Hill
#
# Bulk Modulus (GPa) = 49.97099 55.21555 52.59327
# Shear Modulus (GPa) = 25.21668 32.06118 28.63893
#
# Velocity S-wave (km/s) = 3.36707 3.79663 3.58829
# Velocity P-wave (km/s) = 6.13048 6.63654 6.38852
#
# Compressibility (1/GPa) = 0.02001161
#
# Stress axis : x y z
#
# Youngs Moduli (GPa) = 35.87648 35.87551 115.41584
#
# Poissons Ratio (x) = 0.57462 0.35681
# Poissons Ratio (y) = 0.57463 0.35683
# Poissons Ratio (z) = 0.11091 0.11091
#
# Static dielectric constant tensor:
#      x y z
#    x 4.130130 0.000000 0.000000 
#    y 0.000000 4.130130 0.000000 
#    z 0.000000 0.000000 4.209210 
# 
# 
# High freq. dielectric constant tensor:
#      x y z
#    x 1.878130 0.000000 0.000000 
#    y 0.000000 1.878130 0.000000 
#    z 0.000000 0.000000 1.894120 
# 
# From -- ./inp_files/3754.got.cif
#   From: 2010.03.12/outbox.cif.g09.slc.cpg/sg92_2_cif.got.tgz:3754.got - 2010.04.08 20:41:11.
