data_PCOD8305809
_publ_section_title
;
Structure prediction by ZEFSAII (Michael W. Deem and Ramdas Pophale) SiO2 
 PCOD8305809
Probable space group: P 43 2 2
;
_chemical_formula_sum "Si O2"
_cell_formula_units_Z 52
_cell_length_a 17.768388
_cell_length_b 17.768388
_cell_length_c 9.931526
_cell_angle_alpha 90.000000
_cell_angle_beta 90.000000
_cell_angle_gamma 90.000000
_cell_volume 3135.537810
_symmetry_space_group_name_H-M "P 43 2 2"
_symmetry_group_IT_number 95
_symmetry_cell_setting 'tetragonal'
loop_
_space_group_symop_operation_xyz
x,y,z
-y,x,3/4+z
-x,-y,1/2+z
y,-x,1/4+z
x,-y,1/2-z
-x,y,-z
y,x,1/4-z
-y,-x,3/4-z
loop_
_atom_site_type_symbol
_atom_site_label
_atom_site_fract_x
_atom_site_fract_y
_atom_site_fract_z
Si Si1 0.454948 0.323748 0.372825
Si Si2 0.416211 0.163599 0.972659
Si Si3 0.686545 0.585160 0.913343
Si Si4 0.824522 0.370135 0.223805
Si Si5 0.562937 0.085374 0.283992
Si Si6 0.386995 0.913942 0.265366
Si Si7 0.287502 0.712499 0.875000
O O1 0.500000 0.357224 0.500000
O O2 0.390311 0.385793 0.346003
O O3 0.502992 0.317384 0.234720
O O4 0.424108 0.242548 0.420664
O O5 0.413789 0.254330 0.961702
O O6 0.391495 0.133388 0.826792
O O7 0.500000 0.133960 0.000000
O O8 0.366827 0.125042 0.090994
O O9 0.712535 0.639688 0.031397
O O10 0.884632 0.412253 0.320134
O O11 0.789710 0.294810 0.291681
O O12 0.869151 0.339011 0.095340
O O13 0.473885 0.097229 0.274453
O O14 0.584902 0.000000 0.250000
O O15 0.362214 0.000000 0.250000
#
# Coordination Sequence:
#
# PCOD8305809 Si02
#       7
#     8   8   8   8   8   8   4
#     4  11  18  32  51  69  88 123 176 226 274 311
#     4  10  19  33  46  66 100 117 147 205 261 308
#     4  11  20  34  51  68  88 127 175 226 273 310
#     4  11  19  32  53  69  93 129 169 208 248 310
#     4  10  18  28  49  74  94 122 159 201 254 312
#     4  10  20  31  48  75 102 127 151 197 268 318
#     4  10  20  32  54  72  84 130 184 208 254 310
#
# _framework density 16.584076
#
# number of rings (size 3 to 8) (size 9 to 14) (size 15 to 20)
#    0.000    1.538    4.615    4.154    0.000    2.462 
#    0.000    9.231    0.000    0.000    0.000    0.000 
#    0.000    0.000    0.000    0.000    0.000    1.538 
#
# Total GULP energy -644330.665020 kJ/mol
# GULP energy per Si atom -12390.974327 kJ/mol
# Density = 1.654633 g / cm^3
# Si number density = 16.584076 Si / 1000 Ang^3
#
#
#
# Elastic Constant Matrix: (Units=GPa)
#
#
# Indices 1 2 3 4 5 6 
#
# 1 73.7393 30.2452 32.1146 0.0000 0.0000 0.0000
# 2 30.2452 73.7396 32.1147 0.0000 0.0000 0.0000
# 3 32.1146 32.1147 88.6718 0.0000 0.0000 0.0000
# 4 0.0000 0.0000 0.0000 23.8258 0.0000 0.0000
# 5 0.0000 0.0000 0.0000 0.0000 23.8257 0.0000
# 6 0.0000 0.0000 0.0000 0.0000 0.0000 8.6554
#
#
#
# Elastic Compliance Matrix: (Units=1/GPa)
#
#
# Indices 1 2 3 4 5 6 
#
# 1 0.017690 -0.005302 -0.004487 0.000000 0.000000 0.000000
# 2 -0.005302 0.017690 -0.004487 0.000000 0.000000 0.000000
# 3 -0.004487 -0.004487 0.014527 0.000000 0.000000 0.000000
# 4 0.000000 0.000000 0.000000 0.041971 0.000000 0.000000
# 5 0.000000 0.000000 0.000000 0.000000 0.041971 0.000000
# 6 0.000000 0.000000 0.000000 0.000000 0.000000 0.115535
#
#
# Mechanical properties :
#
#
# Convention : Reuss Voigt Hill
#
# Bulk Modulus (GPa) = 46.82296 47.23333 47.02814
# Shear Modulus (GPa) = 17.54057 20.70647 19.12352
#
# Velocity S-wave (km/s) = 3.25572 3.53735 3.39945
# Velocity P-wave (km/s) = 6.51367 6.72509 6.62022
#
# Compressibility (1/GPa) = 0.02135704
#
# Stress axis : x y z
#
# Youngs Moduli (GPa) = 56.52954 56.52978 68.83524
#
# Poissons Ratio (x) = 0.29970 0.30884
# Poissons Ratio (y) = 0.29970 0.30884
# Poissons Ratio (z) = 0.25363 0.25363
#
# Static dielectric constant tensor:
#      x y z
#    x 2.981220 0.000000 0.000000 
#    y 0.000000 2.981230 0.000000 
#    z 0.000000 0.000000 3.401820 
# 
# 
# High freq. dielectric constant tensor:
#      x y z
#    x 1.599720 0.000000 0.000000 
#    y 0.000000 1.599720 0.000000 
#    z 0.000000 0.000000 1.659070 
# 
# From -- ./inp_files/2752.got.cif
#   From: 2010.03.12/outbox.cif.g09.slc.cpg/sg95_2_cif.got.tgz:2752.got - 2010.04.08 20:51:55.
