data_PCOD8305801
_publ_section_title
;
Structure prediction by ZEFSAII (Michael W. Deem and Ramdas Pophale) SiO2 
 PCOD8305801
Probable space group: P 42 21 2
;
_chemical_formula_sum "Si O2"
_cell_formula_units_Z 36
_cell_length_a 8.724644
_cell_length_b 8.724644
_cell_length_c 21.346030
_cell_angle_alpha 90.000000
_cell_angle_beta 90.000000
_cell_angle_gamma 90.000000
_cell_volume 1624.847272
_symmetry_space_group_name_H-M "P 42 21 2"
_symmetry_group_IT_number 94
_symmetry_cell_setting 'tetragonal'
loop_
_space_group_symop_operation_xyz
x,y,z
1/2-y,1/2+x,1/2+z
-x,-y,z
1/2+y,1/2-x,1/2+z
1/2+x,1/2-y,1/2-z
1/2-x,1/2+y,1/2-z
y,x,-z
-y,-x,-z
loop_
_atom_site_type_symbol
_atom_site_label
_atom_site_fract_x
_atom_site_fract_y
_atom_site_fract_z
Si Si1 0.000000 0.500000 0.474094
Si Si2 0.842233 0.766333 0.325816
Si Si3 0.937205 0.773831 0.552064
Si Si4 0.826168 0.956125 0.205673
Si Si5 0.262385 0.841637 0.614773
O O1 0.093860 0.388643 0.519588
O O2 0.113895 0.602410 0.432893
O O3 0.774073 0.813566 0.392637
O O4 0.792563 0.891821 0.274920
O O5 0.786762 0.598080 0.306247
O O6 0.025627 0.767653 0.333940
O O7 0.904160 0.904160 0.500000
O O8 0.109221 0.799623 0.577203
O O9 0.801443 0.821225 0.155028
O O10 0.000000 0.000000 0.197641
#
# Coordination Sequence:
#
# PCOD8305801 Si02
#       5
#     4   8   8   8   8
#     4  12  26  44  72 106 140 184 232 298 344 430
#     4  12  25  47  71 104 141 195 239 299 358 438
#     4  12  26  46  76 103 140 194 244 287 359 438
#     4  12  26  46  71 107 146 184 245 305 368 418
#     4  12  25  49  73 105 143 193 241 296 357 433
#
# _framework density 22.155927999999999
#
# number of rings (size 3 to 8) (size 9 to 14) (size 15 to 20)
#    0.000    0.000    4.444    5.333    6.222    0.000 
#    4.000    0.000    0.000    0.000    0.000    0.000 
#    0.000    0.000    0.000    0.000    0.000    0.000 
#
# Total GULP energy -446462.665205 kJ/mol
# GULP energy per Si atom -12401.740700 kJ/mol
# Density = 2.210550 g / cm^3
# Si number density = 22.155928 Si / 1000 Ang^3
#
#
#
# Elastic Constant Matrix: (Units=GPa)
#
#
# Indices 1 2 3 4 5 6 
#
# 1 85.8523 48.3989 64.6653 0.0000 0.0000 0.0000
# 2 48.3989 85.8523 64.6653 0.0000 0.0000 0.0000
# 3 64.6653 64.6653 172.1341 0.0000 0.0000 0.0000
# 4 0.0000 0.0000 0.0000 -24.7561 0.0000 0.0000
# 5 0.0000 0.0000 0.0000 0.0000 -24.7561 0.0000
# 6 0.0000 0.0000 0.0000 0.0000 0.0000 25.3805
#
#
#
# Elastic Compliance Matrix: (Units=1/GPa)
#
#
# Indices 1 2 3 4 5 6 
#
# 1 0.019187 -0.007513 -0.004385 0.000000 0.000000 0.000000
# 2 -0.007513 0.019187 -0.004385 0.000000 0.000000 0.000000
# 3 -0.004385 -0.004385 0.009104 0.000000 0.000000 0.000000
# 4 0.000000 0.000000 0.000000 -0.040394 0.000000 0.000000
# 5 0.000000 0.000000 0.000000 0.000000 -0.040394 0.000000
# 6 0.000000 0.000000 0.000000 0.000000 0.000000 0.039400
#
#
# Mechanical properties :
#
#
# Convention : Reuss Voigt Hill
#
# Bulk Modulus (GPa) = 67.07050 77.69974 72.38512
# Shear Modulus (GPa) = 114.60773 6.24761 60.42767
#
# Velocity S-wave (km/s) = 7.20001 1.68106 5.22810
# Velocity P-wave (km/s) = 9.97286 6.23807 8.31780
#
# Compressibility (1/GPa) = 0.01490968
#
# Stress axis : x y z
#
# Youngs Moduli (GPa) = 52.11979 52.11979 109.83887
#
# Poissons Ratio (x) = 0.39159 0.48167
# Poissons Ratio (y) = 0.39159 0.48167
# Poissons Ratio (z) = 0.22856 0.22856
#
# Static dielectric constant tensor:
#      x y z
#    x 4.143070 0.000000 0.000000 
#    y 0.000000 4.143070 0.000000 
#    z 0.000000 0.000000 4.410010 
# 
# 
# High freq. dielectric constant tensor:
#      x y z
#    x 1.873010 0.000000 0.000000 
#    y 0.000000 1.873010 0.000000 
#    z 0.000000 0.000000 1.897920 
# 
# From -- ./inp_files/4507.got.cif
#   From: 2010.03.12/outbox.cif.g09.slc.cpg/sg94_3_cif.got.tgz:4507.got - 2010.04.08 20:48:32.
