data_PCOD8305581
_publ_section_title
;
Structure prediction by ZEFSAII (Michael W. Deem and Ramdas Pophale) SiO2 
 PCOD8305581
Probable space group: P 42 2 2
;
_chemical_formula_sum "Si O2"
_cell_formula_units_Z 38
_cell_length_a 14.382976
_cell_length_b 14.382976
_cell_length_c 9.248802
_cell_angle_alpha 90.000000
_cell_angle_beta 90.000000
_cell_angle_gamma 90.000000
_cell_volume 1913.299657
_symmetry_space_group_name_H-M "P 42 2 2"
_symmetry_group_IT_number 93
_symmetry_cell_setting 'tetragonal'
loop_
_space_group_symop_operation_xyz
x,y,z
-y,x,1/2+z
-x,-y,z
y,-x,1/2+z
x,-y,-z
-x,y,-z
y,x,1/2-z
-y,-x,1/2-z
loop_
_atom_site_type_symbol
_atom_site_label
_atom_site_fract_x
_atom_site_fract_y
_atom_site_fract_z
Si Si1 0.248213 0.342551 0.118658
Si Si2 0.500000 0.643385 0.500000
Si Si3 0.000000 0.757733 0.000000
Si Si4 0.500000 0.500000 0.750000
Si Si5 0.308759 0.000000 0.000000
Si Si6 0.190786 0.176539 0.916895
Si Si7 0.050330 0.401117 0.213754
O O1 0.316051 0.316051 0.250000
O O2 0.159271 0.401101 0.174730
O O3 0.296540 0.407444 0.001492
O O4 0.229357 0.250285 0.030008
O O5 0.502710 0.588837 0.649102
O O6 0.082646 0.829036 0.037887
O O7 0.993829 0.687821 0.134989
O O8 0.241302 0.920457 0.058897
O O9 0.380248 0.038821 0.117948
O O10 0.205667 0.205667 0.750000
O O11 0.000000 0.500000 0.172957
#
# Coordination Sequence:
#
# PCOD8305581 Si02
#       7
#     8   4   4   2   4   8   8
#     4  11  24  44  68  97 135 177 222 274 343 406
#     4  11  24  44  67  96 130 174 221 280 332 409
#     4  10  23  41  66  92 130 174 222 266 332 396
#     4  10  24  46  64  90 132 166 224 274 328 394
#     4  12  23  43  66  94 140 170 226 277 333 404
#     4  11  24  43  65  96 132 175 219 277 331 397
#     4  11  24  42  64  97 134 174 220 279 333 401
#
# _framework density 19.860976999999998
#
# number of rings (size 3 to 8) (size 9 to 14) (size 15 to 20)
#    0.000    1.053    5.263    0.632    7.368    0.421 
#    0.000    1.053    0.000    0.000    0.000    0.000 
#    0.000    0.000    0.000    0.000    0.000    0.000 
#
# Total GULP energy -470959.362790 kJ/mol
# GULP energy per Si atom -12393.667442 kJ/mol
# Density = 1.981577 g / cm^3
# Si number density = 19.860977 Si / 1000 Ang^3
#
#
#
# Elastic Constant Matrix: (Units=GPa)
#
#
# Indices 1 2 3 4 5 6 
#
# 1 95.0380 51.4955 32.1361 0.0000 0.0000 0.0000
# 2 51.4955 95.0380 32.1361 0.0000 0.0000 0.0000
# 3 32.1361 32.1361 121.7156 0.0000 0.0000 0.0000
# 4 0.0000 0.0000 0.0000 37.8993 0.0000 0.0000
# 5 0.0000 0.0000 0.0000 0.0000 37.8993 0.0000
# 6 0.0000 0.0000 0.0000 0.0000 0.0000 37.7739
#
#
#
# Elastic Compliance Matrix: (Units=1/GPa)
#
#
# Indices 1 2 3 4 5 6 
#
# 1 0.015342 -0.007624 -0.002038 0.000000 0.000000 0.000000
# 2 -0.007624 0.015342 -0.002038 0.000000 0.000000 0.000000
# 3 -0.002038 -0.002038 0.009292 0.000000 0.000000 0.000000
# 4 0.000000 0.000000 0.000000 0.026386 0.000000 0.000000
# 5 0.000000 0.000000 0.000000 0.000000 0.026386 0.000000
# 6 0.000000 0.000000 0.000000 0.000000 0.000000 0.026473
#
#
# Mechanical properties :
#
#
# Convention : Reuss Voigt Hill
#
# Bulk Modulus (GPa) = 60.32415 60.36967 60.34691
# Shear Modulus (GPa) = 33.75056 35.78277 34.76666
#
# Velocity S-wave (km/s) = 4.12678 4.24920 4.18844
# Velocity P-wave (km/s) = 7.29014 7.38488 7.33766
#
# Compressibility (1/GPa) = 0.01657711
#
# Stress axis : x y z
#
# Youngs Moduli (GPa) = 65.17999 65.17999 107.62014
#
# Poissons Ratio (x) = 0.49693 0.21931
# Poissons Ratio (y) = 0.49693 0.21931
# Poissons Ratio (z) = 0.13282 0.13282
#
# Static dielectric constant tensor:
#      x y z
#    x 3.673050 0.000000 0.000000 
#    y 0.000000 3.673050 0.000000 
#    z 0.000000 0.000000 3.787090 
# 
# 
# High freq. dielectric constant tensor:
#      x y z
#    x 1.776420 0.000000 0.000000 
#    y 0.000000 1.776420 0.000000 
#    z 0.000000 0.000000 1.793590 
# 
# From -- ./inp_files/1789.got.cif
#   From: 2010.03.12/outbox.cif.g09.slc.cpg/sg93_1_cif.got.tgz:1789.got - 2010.04.08 20:44:19.
