data_PCOD8305825
_publ_section_title
;
Structure prediction by ZEFSAII (Michael W. Deem and Ramdas Pophale) SiO2 
 PCOD8305825
Probable space group: P 43 2 2
;
_chemical_formula_sum "Si O2"
_cell_formula_units_Z 56
_cell_length_a 14.364963
_cell_length_b 14.364963
_cell_length_c 13.768165
_cell_angle_alpha 90.000000
_cell_angle_beta 90.000000
_cell_angle_gamma 90.000000
_cell_volume 2841.090614
_symmetry_space_group_name_H-M "P 43 2 2"
_symmetry_group_IT_number 95
_symmetry_cell_setting 'tetragonal'
loop_
_space_group_symop_operation_xyz
x,y,z
-y,x,3/4+z
-x,-y,1/2+z
y,-x,1/4+z
x,-y,1/2-z
-x,y,-z
y,x,1/4-z
-y,-x,3/4-z
loop_
_atom_site_type_symbol
_atom_site_label
_atom_site_fract_x
_atom_site_fract_y
_atom_site_fract_z
Si Si1 0.351083 0.501246 0.644499
Si Si2 0.944929 0.181350 0.316255
Si Si3 0.681229 0.421451 0.676549
Si Si4 0.102474 0.321303 0.532989
Si Si5 0.775275 0.289810 0.975506
Si Si6 0.173688 0.846533 0.636985
Si Si7 0.802273 0.502209 0.516789
O O1 0.302328 0.500000 0.750000
O O2 0.409846 0.409846 0.625000
O O3 0.413517 0.594142 0.645965
O O4 0.276884 0.508826 0.561703
O O5 0.907142 0.092859 0.375000
O O6 0.894356 0.276061 0.358535
O O7 0.918909 0.167409 0.202819
O O8 0.055741 0.180527 0.330347
O O9 0.650534 0.500000 0.750000
O O10 0.699660 0.329388 0.737402
O O11 0.771577 0.453856 0.616811
O O12 0.168765 0.263539 0.458307
O O13 0.120555 0.432744 0.530046
O O14 0.000000 0.298577 0.500000
O O15 0.767655 0.232346 0.875000
O O16 0.829494 0.389753 0.962044
O O17 0.832577 0.232287 0.054950
#
# Coordination Sequence:
#
# PCOD8305825 Si02
#       7
#     8   8   8   8   8   8   8
#     4  11  22  32  47  77 117 150 191 245 299 347
#     4   9  19  38  69  94 119 150 198 246 311 385
#     4  11  21  35  54  76 108 159 209 244 283 345
#     4   9  19  37  62  88 114 153 200 248 301 366
#     4  11  23  37  57  84 120 162 210 252 302 359
#     4  10  20  40  63  94 122 152 195 255 309 377
#     4  11  22  35  57  83 115 157 203 252 297 354
#
# _framework density 19.710740000000001
#
# number of rings (size 3 to 8) (size 9 to 14) (size 15 to 20)
#    0.000    1.714    4.286    1.714    2.000    4.000 
#    0.000    4.286    0.000    4.286    0.000    0.000 
#    0.000    0.000    0.000    0.000    0.000    0.000 
#
# Total GULP energy -693904.832757 kJ/mol
# GULP energy per Si atom -12391.157728 kJ/mol
# Density = 1.966588 g / cm^3
# Si number density = 19.710740 Si / 1000 Ang^3
#
#
#
# Elastic Constant Matrix: (Units=GPa)
#
#
# Indices 1 2 3 4 5 6 
#
# 1 58.4228 19.6567 24.9291 0.0000 0.0000 0.0000
# 2 19.6567 58.4227 24.9289 0.0000 0.0000 0.0000
# 3 24.9291 24.9289 109.1443 0.0000 0.0000 0.0000
# 4 0.0000 0.0000 0.0000 24.5663 0.0000 0.0000
# 5 0.0000 0.0000 0.0000 0.0000 24.5658 0.0000
# 6 0.0000 0.0000 0.0000 0.0000 0.0000 10.8562
#
#
#
# Elastic Compliance Matrix: (Units=1/GPa)
#
#
# Indices 1 2 3 4 5 6 
#
# 1 0.020395 -0.005401 -0.003425 0.000000 0.000000 0.000000
# 2 -0.005401 0.020395 -0.003425 0.000000 0.000000 0.000000
# 3 -0.003425 -0.003425 0.010727 0.000000 0.000000 0.000000
# 4 0.000000 0.000000 0.000000 0.040706 0.000000 0.000000
# 5 0.000000 0.000000 0.000000 0.000000 0.040707 0.000000
# 6 0.000000 0.000000 0.000000 0.000000 0.000000 0.092114
#
#
# Mechanical properties :
#
#
# Convention : Reuss Voigt Hill
#
# Bulk Modulus (GPa) = 37.01471 40.55770 38.78620
# Shear Modulus (GPa) = 19.33865 22.42932 20.88398
#
# Velocity S-wave (km/s) = 3.13569 3.37697 3.25856
# Velocity P-wave (km/s) = 5.65064 5.98551 5.82049
#
# Compressibility (1/GPa) = 0.02701629
#
# Stress axis : x y z
#
# Youngs Moduli (GPa) = 49.03141 49.03150 93.22580
#
# Poissons Ratio (x) = 0.26480 0.31928
# Poissons Ratio (y) = 0.26480 0.31927
# Poissons Ratio (z) = 0.16792 0.16792
#
# Static dielectric constant tensor:
#      x y z
#    x 3.497130 0.000000 0.000000 
#    y 0.000000 3.497150 0.000000 
#    z 0.000000 0.000000 3.667180 
# 
# 
# High freq. dielectric constant tensor:
#      x y z
#    x 1.748220 0.000000 0.000000 
#    y 0.000000 1.748220 0.000000 
#    z 0.000000 0.000000 1.775180 
# 
# From -- ./inp_files/3971.got.cif
#   From: 2010.03.12/outbox.cif.g09.slc.cpg/sg95_2_cif.got.tgz:3971.got - 2010.04.08 20:51:55.
