data_PCOD8305615
_publ_section_title
;
Structure prediction by ZEFSAII (Michael W. Deem and Ramdas Pophale) SiO2 
 PCOD8305615
Probable space group: P 42 21 2
;
_chemical_formula_sum "Si O2"
_cell_formula_units_Z 38
_cell_length_a 9.437011
_cell_length_b 9.437011
_cell_length_c 21.106646
_cell_angle_alpha 90.000000
_cell_angle_beta 90.000000
_cell_angle_gamma 90.000000
_cell_volume 1879.698301
_symmetry_space_group_name_H-M "P 42 21 2"
_symmetry_group_IT_number 94
_symmetry_cell_setting 'tetragonal'
loop_
_space_group_symop_operation_xyz
x,y,z
1/2-y,1/2+x,1/2+z
-x,-y,z
1/2+y,1/2-x,1/2+z
1/2+x,1/2-y,1/2-z
1/2-x,1/2+y,1/2-z
y,x,-z
-y,-x,-z
loop_
_atom_site_type_symbol
_atom_site_label
_atom_site_fract_x
_atom_site_fract_y
_atom_site_fract_z
Si Si1 0.148745 0.421660 0.716747
Si Si2 0.915454 0.862651 0.299822
Si Si3 0.388386 0.721627 0.060187
Si Si4 0.500000 0.000000 0.006942
Si Si5 0.435418 0.251171 0.420075
Si Si6 0.500000 0.500000 0.500000
O O1 0.227935 0.496126 0.775158
O O2 0.134206 0.249567 0.723616
O O3 0.237582 0.460830 0.654488
O O4 0.000000 0.500000 0.711628
O O5 0.928099 0.860703 0.376017
O O6 0.000000 0.000000 0.274972
O O7 0.491057 0.857545 0.049911
O O8 0.229204 0.779003 0.066230
O O9 0.387945 0.612056 0.000000
O O10 0.374373 0.006476 0.957907
O O11 0.520115 0.378245 0.449285
#
# Coordination Sequence:
#
# PCOD8305615 Si02
#       6
#     8   8   8   4   8   2
#     4  11  24  46  68  92 135 176 222 275 331 408
#     4  11  25  45  67  98 130 176 223 273 344 400
#     4   9  20  40  66  90 131 166 213 273 324 393
#     4  10  16  40  60  92 122 174 202 260 332 380
#     4  10  21  38  64  92 131 166 210 269 327 383
#     4  12  20  40  60 104 124 160 226 268 320 396
#
# _framework density 20.216007999999999
#
# number of rings (size 3 to 8) (size 9 to 14) (size 15 to 20)
#    0.000    1.684    4.211    1.263    2.947    0.421 
#    7.579    0.000    0.000    0.000    0.000    0.000 
#    0.000    0.000    0.000    0.000    0.000    0.000 
#
# Total GULP energy -470771.470836 kJ/mol
# GULP energy per Si atom -12388.722917 kJ/mol
# Density = 2.017000 g / cm^3
# Si number density = 20.216008 Si / 1000 Ang^3
#
#
#
# Elastic Constant Matrix: (Units=GPa)
#
#
# Indices 1 2 3 4 5 6 
#
# 1 108.9519 57.3886 38.7237 0.0000 0.0000 0.0000
# 2 57.3886 108.9517 38.7235 0.0000 0.0000 0.0000
# 3 38.7237 38.7235 106.3362 0.0000 0.0000 0.0000
# 4 0.0000 0.0000 0.0000 31.8584 0.0000 0.0000
# 5 0.0000 0.0000 0.0000 0.0000 31.8584 0.0000
# 6 0.0000 0.0000 0.0000 0.0000 0.0000 37.2329
#
#
#
# Elastic Compliance Matrix: (Units=1/GPa)
#
#
# Indices 1 2 3 4 5 6 
#
# 1 0.013316 -0.006077 -0.002636 0.000000 0.000000 0.000000
# 2 -0.006077 0.013316 -0.002636 0.000000 0.000000 0.000000
# 3 -0.002636 -0.002636 0.011324 0.000000 0.000000 0.000000
# 4 0.000000 0.000000 0.000000 0.031389 0.000000 0.000000
# 5 0.000000 0.000000 0.000000 0.000000 0.031389 0.000000
# 6 0.000000 0.000000 0.000000 0.000000 0.000000 0.026858
#
#
# Mechanical properties :
#
#
# Convention : Reuss Voigt Hill
#
# Bulk Modulus (GPa) = 65.54112 65.99015 65.76563
# Shear Modulus (GPa) = 32.17956 32.81687 32.49821
#
# Velocity S-wave (km/s) = 3.99405 4.03340 4.01377
# Velocity P-wave (km/s) = 7.33217 7.37594 7.35409
#
# Compressibility (1/GPa) = 0.01525760
#
# Stress axis : x y z
#
# Youngs Moduli (GPa) = 75.09516 75.09510 88.30668
#
# Poissons Ratio (x) = 0.45637 0.23280
# Poissons Ratio (y) = 0.45637 0.23280
# Poissons Ratio (z) = 0.19797 0.19797
#
# Static dielectric constant tensor:
#      x y z
#    x 3.575290 0.000000 0.000000 
#    y 0.000000 3.575290 0.000000 
#    z 0.000000 0.000000 4.061310 
# 
# 
# High freq. dielectric constant tensor:
#      x y z
#    x 1.787160 0.000000 0.000000 
#    y 0.000000 1.787160 0.000000 
#    z 0.000000 0.000000 1.802280 
# 
# From -- ./inp_files/4997.got.cif
#   From: 2010.03.12/outbox.cif.g09.slc.cpg/sg94_3_cif.got.tgz:4997.got - 2010.04.08 20:48:32.
