data_PCOD8305201
_publ_section_title
;
Structure prediction by ZEFSAII (Michael W. Deem and Ramdas Pophale) SiO2 
 PCOD8305201
Probable space group: P 41 21 2
;
_chemical_formula_sum "Si O2"
_cell_formula_units_Z 60
_cell_length_a 14.893115
_cell_length_b 14.893115
_cell_length_c 16.558226
_cell_angle_alpha 90.000000
_cell_angle_beta 90.000000
_cell_angle_gamma 90.000000
_cell_volume 3672.695238
_symmetry_space_group_name_H-M "P 41 21 2"
_symmetry_group_IT_number 92
_symmetry_cell_setting 'tetragonal'
loop_
_space_group_symop_operation_xyz
x,y,z
1/2-y,1/2+x,1/4+z
-x,-y,1/2+z
1/2+y,1/2-x,3/4+z
1/2+x,1/2-y,3/4-z
1/2-x,1/2+y,1/4-z
y,x,-z
-y,-x,1/2-z
loop_
_atom_site_type_symbol
_atom_site_label
_atom_site_fract_x
_atom_site_fract_y
_atom_site_fract_z
Si Si1 0.967217 0.457457 0.627418
Si Si2 0.198343 0.198154 0.341711
Si Si3 0.749583 0.480303 0.010434
Si Si4 0.376404 0.623597 0.750000
Si Si5 0.266127 0.392168 0.358491
Si Si6 0.193587 0.945716 0.573813
Si Si7 0.376426 0.877163 0.525645
Si Si8 0.444250 0.097484 0.727443
O O1 0.900669 0.414763 0.562134
O O2 0.903893 0.484159 0.700969
O O3 0.048239 0.392931 0.655900
O O4 0.013285 0.549158 0.599353
O O5 0.113315 0.198352 0.280525
O O6 0.186935 0.139573 0.422572
O O7 0.219782 0.296459 0.380205
O O8 0.275292 0.156458 0.285486
O O9 0.720310 0.536645 0.931319
O O10 0.854118 0.457417 0.001598
O O11 0.722034 0.545032 0.083112
O O12 0.476360 0.637418 0.782113
O O13 0.360725 0.371878 0.316500
O O14 0.202318 0.433892 0.290370
O O15 0.289146 0.939839 0.529924
#
# Coordination Sequence:
#
# PCOD8305201 Si02
#       8
#     8   8   8   4   8   8   8   8
#     4  10  19  29  52  72 105 129 165 210 251 315
#     4   9  21  31  51  74 105 139 162 214 256 310
#     4  10  18  32  48  75 104 129 169 206 256 311
#     4  10  20  34  50  74 104 138 170 204 260 314
#     4  10  20  32  51  75 104 133 172 210 262 303
#     4  10  20  32  50  74 104 134 166 206 254 313
#     4  10  19  32  47  78 101 134 165 204 261 305
#     4  10  18  31  48  75 101 133 161 210 259 305
#
# _framework density 16.336777000000001
#
# number of rings (size 3 to 8) (size 9 to 14) (size 15 to 20)
#    0.000    2.133    2.667    1.200    3.733    0.000 
#    0.000    1.333    0.000    0.000    0.000    1.867 
#    0.000    0.000    0.000    0.000    0.000    0.000 
#
# Total GULP energy -743363.540010 kJ/mol
# GULP energy per Si atom -12389.392334 kJ/mol
# Density = 1.629959 g / cm^3
# Si number density = 16.336777 Si / 1000 Ang^3
#
#
#
# Elastic Constant Matrix: (Units=GPa)
#
#
# Indices 1 2 3 4 5 6 
#
# 1 82.0821 39.4986 40.7428 0.0000 0.0000 0.0000
# 2 39.4986 82.0829 40.7426 0.0000 0.0000 0.0000
# 3 40.7428 40.7426 74.9523 0.0000 0.0000 0.0000
# 4 0.0000 0.0000 0.0000 20.0023 0.0000 0.0000
# 5 0.0000 0.0000 0.0000 0.0000 20.0023 0.0000
# 6 0.0000 0.0000 0.0000 0.0000 0.0000 21.7937
#
#
#
# Elastic Compliance Matrix: (Units=1/GPa)
#
#
# Indices 1 2 3 4 5 6 
#
# 1 0.018211 -0.005272 -0.007033 0.000000 0.000000 0.000000
# 2 -0.005272 0.018211 -0.007033 0.000000 0.000000 0.000000
# 3 -0.007033 -0.007033 0.020988 0.000000 0.000000 0.000000
# 4 0.000000 0.000000 0.000000 0.049994 0.000000 0.000000
# 5 0.000000 0.000000 0.000000 0.000000 0.049994 0.000000
# 6 0.000000 0.000000 0.000000 0.000000 0.000000 0.045885
#
#
# Mechanical properties :
#
#
# Convention : Reuss Voigt Hill
#
# Bulk Modulus (GPa) = 53.38296 53.45391 53.41844
# Shear Modulus (GPa) = 20.14464 20.23520 20.18992
#
# Velocity S-wave (km/s) = 3.51534 3.52323 3.51929
# Velocity P-wave (km/s) = 7.01600 7.02438 7.02019
#
# Compressibility (1/GPa) = 0.01873257
#
# Stress axis : x y z
#
# Youngs Moduli (GPa) = 54.91171 54.91265 47.64599
#
# Poissons Ratio (x) = 0.28951 0.33511
# Poissons Ratio (y) = 0.28950 0.33510
# Poissons Ratio (z) = 0.38622 0.38621
#
# Static dielectric constant tensor:
#      x y z
#    x 3.053460 0.000000 0.000000 
#    y 0.000000 3.053470 0.000000 
#    z 0.000000 0.000000 2.901700 
# 
# 
# High freq. dielectric constant tensor:
#      x y z
#    x 1.625810 0.000000 0.000000 
#    y 0.000000 1.625810 0.000000 
#    z 0.000000 0.000000 1.619140 
# 
# From -- ./inp_files/2800.got.cif
#   From: 2010.03.12/outbox.cif.g09.slc.cpg/sg92_2_cif.got.tgz:2800.got - 2010.04.08 20:41:11.
