data_PCOD8305262
_publ_section_title
;
Structure prediction by ZEFSAII (Michael W. Deem and Ramdas Pophale) SiO2 
 PCOD8305262
Probable space group: P 41 21 2
;
_chemical_formula_sum "Si O2"
_cell_formula_units_Z 40
_cell_length_a 11.745485
_cell_length_b 11.745485
_cell_length_c 12.415729
_cell_angle_alpha 90.000000
_cell_angle_beta 90.000000
_cell_angle_gamma 90.000000
_cell_volume 1712.829498
_symmetry_space_group_name_H-M "P 41 21 2"
_symmetry_group_IT_number 92
_symmetry_cell_setting 'tetragonal'
loop_
_space_group_symop_operation_xyz
x,y,z
1/2-y,1/2+x,1/4+z
-x,-y,1/2+z
1/2+y,1/2-x,3/4+z
1/2+x,1/2-y,3/4-z
1/2-x,1/2+y,1/4-z
y,x,-z
-y,-x,1/2-z
loop_
_atom_site_type_symbol
_atom_site_label
_atom_site_fract_x
_atom_site_fract_y
_atom_site_fract_z
Si Si1 0.789467 0.937677 0.919406
Si Si2 0.074792 0.002412 0.117779
Si Si3 0.253082 0.537251 0.450047
Si Si4 0.094483 0.740167 0.502496
Si Si5 0.107559 0.723282 0.910645
O O1 0.705635 0.873280 0.836674
O O2 0.887511 0.003614 0.848026
O O3 0.846628 0.846628 0.000000
O O4 0.707646 0.020377 0.989886
O O5 0.057810 0.110548 0.195405
O O6 0.208344 0.967101 0.104186
O O7 0.032664 0.032664 0.000000
O O8 0.193513 0.656239 0.470824
O O9 0.193054 0.496458 0.338765
O O10 0.222750 0.452002 0.545249
O O11 0.151160 0.842067 0.572335
#
# Coordination Sequence:
#
# PCOD8305262 Si02
#       5
#     8   8   8   8   8
#     4  10  20  36  58  89 120 154 203 255 304 364
#     4   8  19  39  62  85 118 162 204 246 304 371
#     4  11  20  38  65  91 123 163 205 258 309 365
#     4  10  22  38  62  90 120 163 208 252 309 375
#     4  11  21  35  60  91 121 156 205 253 304 367
#
# _framework density 23.353173000000002
#
# number of rings (size 3 to 8) (size 9 to 14) (size 15 to 20)
#    0.000    2.000    0.000    5.400    0.000    1.600 
#    0.000   10.000    0.000   60.000    0.000    0.000 
#    0.000    0.000    0.000    0.000    0.000    0.000 
#
# Total GULP energy -495697.955389 kJ/mol
# GULP energy per Si atom -12392.448885 kJ/mol
# Density = 2.330002 g / cm^3
# Si number density = 23.353173 Si / 1000 Ang^3
#
#
#
# Elastic Constant Matrix: (Units=GPa)
#
#
# Indices 1 2 3 4 5 6 
#
# 1 108.8663 70.3550 31.9560 0.0000 0.0000 0.0000
# 2 70.3550 108.8663 31.9560 0.0000 0.0000 0.0000
# 3 31.9560 31.9560 33.6176 0.0000 0.0000 0.0000
# 4 0.0000 0.0000 0.0000 28.0863 0.0000 0.0000
# 5 0.0000 0.0000 0.0000 0.0000 28.0863 0.0000
# 6 0.0000 0.0000 0.0000 0.0000 0.0000 41.5186
#
#
#
# Elastic Compliance Matrix: (Units=1/GPa)
#
#
# Indices 1 2 3 4 5 6 
#
# 1 0.017204 -0.008763 -0.008024 0.000000 0.000000 0.000000
# 2 -0.008763 0.017204 -0.008024 0.000000 0.000000 0.000000
# 3 -0.008024 -0.008024 0.045001 0.000000 0.000000 0.000000
# 4 0.000000 0.000000 0.000000 0.035605 0.000000 0.000000
# 5 0.000000 0.000000 0.000000 0.000000 0.035605 0.000000
# 6 0.000000 0.000000 0.000000 0.000000 0.000000 0.024086
#
#
# Mechanical properties :
#
#
# Convention : Reuss Voigt Hill
#
# Bulk Modulus (GPa) = 33.57104 57.76491 45.66797
# Shear Modulus (GPa) = 21.34445 27.34378 24.34411
#
# Velocity S-wave (km/s) = 3.02650 3.42553 3.23218
# Velocity P-wave (km/s) = 5.15941 6.35883 5.79026
#
# Compressibility (1/GPa) = 0.02978758
#
# Stress axis : x y z
#
# Youngs Moduli (GPa) = 58.12690 58.12690 22.22181
#
# Poissons Ratio (x) = 0.50935 0.17830
# Poissons Ratio (y) = 0.50935 0.17830
# Poissons Ratio (z) = 0.46640 0.46640
#
# Static dielectric constant tensor:
#      x y z
#    x 4.398830 0.000000 0.000000 
#    y 0.000000 4.398830 0.000000 
#    z 0.000000 0.000000 4.245930 
# 
# 
# High freq. dielectric constant tensor:
#      x y z
#    x 1.921070 0.000000 0.000000 
#    y 0.000000 1.921070 0.000000 
#    z 0.000000 0.000000 1.914720 
# 
# From -- ./inp_files/2646.got.cif
#   From: 2010.03.12/outbox.cif.g09.slc.cpg/sg92_2_cif.got.tgz:2646.got - 2010.04.08 20:41:11.
