data_PCOD8305441
_publ_section_title
;
Structure prediction by ZEFSAII (Michael W. Deem and Ramdas Pophale) SiO2 
 PCOD8305441
Probable space group: P 41 21 2
;
_chemical_formula_sum "Si O2"
_cell_formula_units_Z 40
_cell_length_a 9.520266
_cell_length_b 9.520266
_cell_length_c 20.951193
_cell_angle_alpha 90.000000
_cell_angle_beta 90.000000
_cell_angle_gamma 90.000000
_cell_volume 1898.921114
_symmetry_space_group_name_H-M "P 41 21 2"
_symmetry_group_IT_number 92
_symmetry_cell_setting 'tetragonal'
loop_
_space_group_symop_operation_xyz
x,y,z
1/2-y,1/2+x,1/4+z
-x,-y,1/2+z
1/2+y,1/2-x,3/4+z
1/2+x,1/2-y,3/4-z
1/2-x,1/2+y,1/4-z
y,x,-z
-y,-x,1/2-z
loop_
_atom_site_type_symbol
_atom_site_label
_atom_site_fract_x
_atom_site_fract_y
_atom_site_fract_z
Si Si1 0.556641 0.326012 0.993704
Si Si2 0.468446 0.067253 0.920569
Si Si3 0.391560 0.752777 0.801783
Si Si4 0.136469 0.332138 0.640200
Si Si5 0.362016 0.059864 0.777732
O O1 0.504827 0.228897 0.935581
O O2 0.720656 0.359223 0.988226
O O3 0.467805 0.467805 0.000000
O O4 0.535343 0.231915 0.056085
O O5 0.606853 0.971631 0.911555
O O6 0.388725 0.075976 0.853360
O O7 0.386284 0.987890 0.979701
O O8 0.373694 0.626307 0.750000
O O9 0.289719 0.732967 0.862080
O O10 0.549429 0.761772 0.828766
O O11 0.343771 0.893958 0.765622
#
# Coordination Sequence:
#
# PCOD8305441 Si02
#       5
#     8   8   8   8   8
#     4  12  26  42  70 101 133 180 231 275 344 411
#     4  11  23  46  67  97 143 176 222 288 344 398
#     4  11  21  40  68  95 133 171 223 276 333 397
#     4  11  23  42  68  98 133 176 222 278 338 402
#     4  11  24  43  68  99 137 180 229 278 343 407
#
# _framework density 21.064589999999999
#
# number of rings (size 3 to 8) (size 9 to 14) (size 15 to 20)
#    0.000    0.800    6.000    3.000    5.600    0.000 
#    0.000    0.000    0.000    6.000    0.000    0.000 
#    0.000    0.000    0.000    0.000    0.000    0.000 
#
# Total GULP energy -495707.882861 kJ/mol
# GULP energy per Si atom -12392.697072 kJ/mol
# Density = 2.101665 g / cm^3
# Si number density = 21.064590 Si / 1000 Ang^3
#
#
#
# Elastic Constant Matrix: (Units=GPa)
#
#
# Indices 1 2 3 4 5 6 
#
# 1 80.1252 35.6377 40.1337 0.0000 0.0000 0.0000
# 2 35.6377 80.1254 40.1339 0.0000 0.0000 0.0000
# 3 40.1337 40.1339 129.6372 0.0000 0.0000 0.0000
# 4 0.0000 0.0000 0.0000 28.9040 0.0000 0.0000
# 5 0.0000 0.0000 0.0000 0.0000 28.9038 0.0000
# 6 0.0000 0.0000 0.0000 0.0000 0.0000 33.7080
#
#
#
# Elastic Compliance Matrix: (Units=1/GPa)
#
#
# Indices 1 2 3 4 5 6 
#
# 1 0.016739 -0.005739 -0.003405 0.000000 0.000000 0.000000
# 2 -0.005739 0.016739 -0.003405 0.000000 0.000000 0.000000
# 3 -0.003405 -0.003405 0.009822 0.000000 0.000000 0.000000
# 4 0.000000 0.000000 0.000000 0.034597 0.000000 0.000000
# 5 0.000000 0.000000 0.000000 0.000000 0.034598 0.000000
# 6 0.000000 0.000000 0.000000 0.000000 0.000000 0.029667
#
#
# Mechanical properties :
#
#
# Convention : Reuss Voigt Hill
#
# Bulk Modulus (GPa) = 54.94464 57.96649 56.45557
# Shear Modulus (GPa) = 28.84707 29.90199 29.37453
#
# Velocity S-wave (km/s) = 3.70463 3.77176 3.73835
# Velocity P-wave (km/s) = 6.66630 6.82250 6.74485
#
# Compressibility (1/GPa) = 0.01820014
#
# Stress axis : x y z
#
# Youngs Moduli (GPa) = 59.74129 59.74136 101.80927
#
# Poissons Ratio (x) = 0.34288 0.34669
# Poissons Ratio (y) = 0.34288 0.34669
# Poissons Ratio (z) = 0.20344 0.20344
#
# Static dielectric constant tensor:
#      x y z
#    x 3.677230 0.000000 0.000000 
#    y 0.000000 3.677230 0.000000 
#    z 0.000000 0.000000 4.227030 
# 
# 
# High freq. dielectric constant tensor:
#      x y z
#    x 1.807210 0.000000 0.000000 
#    y 0.000000 1.807210 0.000000 
#    z 0.000000 0.000000 1.858010 
# 
# From -- ./inp_files/3753.got.cif
#   From: 2010.03.12/outbox.cif.g09.slc.cpg/sg92_2_cif.got.tgz:3753.got - 2010.04.08 20:41:11.
