data_PCOD8305798
_publ_section_title
;
Structure prediction by ZEFSAII (Michael W. Deem and Ramdas Pophale) SiO2 
 PCOD8305798
Probable space group: P 42 21 2
;
_chemical_formula_sum "Si O2"
_cell_formula_units_Z 18
_cell_length_a 9.265709
_cell_length_b 9.265709
_cell_length_c 7.908969
_cell_angle_alpha 90.000000
_cell_angle_beta 90.000000
_cell_angle_gamma 90.000000
_cell_volume 679.011589
_symmetry_space_group_name_H-M "P 42 21 2"
_symmetry_group_IT_number 94
_symmetry_cell_setting 'tetragonal'
loop_
_space_group_symop_operation_xyz
x,y,z
1/2-y,1/2+x,1/2+z
-x,-y,z
1/2+y,1/2-x,1/2+z
1/2+x,1/2-y,1/2-z
1/2-x,1/2+y,1/2-z
y,x,-z
-y,-x,-z
loop_
_atom_site_type_symbol
_atom_site_label
_atom_site_fract_x
_atom_site_fract_y
_atom_site_fract_z
Si Si1 0.000000 0.000000 0.000000
Si Si2 0.671186 0.001319 0.420444
Si Si3 0.372531 0.716053 0.263940
O O1 0.003970 0.142496 0.118055
O O2 0.714557 0.164128 0.370720
O O3 0.500000 0.000000 0.396829
O O4 0.717652 0.958689 0.607306
O O5 0.751017 0.898787 0.286677
#
# Coordination Sequence:
#
# PCOD8305798 Si02
#       3
#     2   8   8
#     4  12  32  50  84 122 168 220 284 344 432 516
#     4  11  28  56  85 128 170 228 286 355 422 517
#     4  11  30  54  88 122 177 224 287 352 431 503
#
# _framework density 26.509117
#
# number of rings (size 3 to 8) (size 9 to 14) (size 15 to 20)
#    0.000    0.889    0.000    1.333   18.667    3.556 
#    0.000    0.000    0.000    0.000    0.000    0.000 
#    0.000    0.000    0.000    0.000    0.000    0.000 
#
# Total GULP energy -223213.110739 kJ/mol
# GULP energy per Si atom -12400.728374 kJ/mol
# Density = 2.644878 g / cm^3
# Si number density = 26.509117 Si / 1000 Ang^3
#
#
#
# Elastic Constant Matrix: (Units=GPa)
#
#
# Indices 1 2 3 4 5 6 
#
# 1 196.3105 79.8441 87.7315 0.0000 0.0000 0.0000
# 2 79.8441 196.3105 87.7315 0.0000 0.0000 0.0000
# 3 87.7315 87.7315 164.7051 0.0000 0.0000 0.0000
# 4 0.0000 0.0000 0.0000 40.5761 0.0000 0.0000
# 5 0.0000 0.0000 0.0000 0.0000 40.5761 0.0000
# 6 0.0000 0.0000 0.0000 0.0000 0.0000 58.1966
#
#
#
# Elastic Compliance Matrix: (Units=1/GPa)
#
#
# Indices 1 2 3 4 5 6 
#
# 1 0.007030 -0.001556 -0.002916 0.000000 0.000000 0.000000
# 2 -0.001556 0.007030 -0.002916 0.000000 0.000000 0.000000
# 3 -0.002916 -0.002916 0.009177 0.000000 0.000000 0.000000
# 4 0.000000 0.000000 0.000000 0.024645 0.000000 0.000000
# 5 0.000000 0.000000 0.000000 0.000000 0.024645 0.000000
# 6 0.000000 0.000000 0.000000 0.000000 0.000000 0.017183
#
#
# Mechanical properties :
#
#
# Convention : Reuss Voigt Hill
#
# Bulk Modulus (GPa) = 118.16910 118.66003 118.41457
# Shear Modulus (GPa) = 46.59563 48.00438 47.30000
#
# Velocity S-wave (km/s) = 4.19707 4.26004 4.22867
# Velocity P-wave (km/s) = 8.25595 8.31002 8.28303
#
# Compressibility (1/GPa) = 0.00846245
#
# Stress axis : x y z
#
# Youngs Moduli (GPa) = 142.24915 142.24915 108.96223
#
# Poissons Ratio (x) = 0.22137 0.31769
# Poissons Ratio (y) = 0.22137 0.31769
# Poissons Ratio (z) = 0.41474 0.41474
#
# Static dielectric constant tensor:
#      x y z
#    x 5.044370 0.000000 0.000000 
#    y 0.000000 5.044370 0.000000 
#    z 0.000000 0.000000 5.109810 
# 
# 
# High freq. dielectric constant tensor:
#      x y z
#    x 2.072430 0.000000 0.000000 
#    y 0.000000 2.072430 0.000000 
#    z 0.000000 0.000000 2.090030 
# 
# From -- ./inp_files/785.got.cif
#   From: 2010.03.12/outbox.cif.g09.slc.cpg/sg94_1_cif.got.tgz:785.got - 2010.04.08 20:48:32.
