data_PCOD8305912
_publ_section_title
;
Structure prediction by ZEFSAII (Michael W. Deem and Ramdas Pophale) SiO2 
 PCOD8305912
Probable space group: P 43 21 2
;
_chemical_formula_sum "Si O2"
_cell_formula_units_Z 48
_cell_length_a 15.377120
_cell_length_b 15.377120
_cell_length_c 10.426964
_cell_angle_alpha 90.000000
_cell_angle_beta 90.000000
_cell_angle_gamma 90.000000
_cell_volume 2465.516317
_symmetry_space_group_name_H-M "P 43 21 2"
_symmetry_group_IT_number 96
_symmetry_cell_setting 'tetragonal'
loop_
_space_group_symop_operation_xyz
x,y,z
1/2-y,1/2+x,3/4+z
-x,-y,1/2+z
1/2+y,1/2-x,1/4+z
1/2+x,1/2-y,1/4-z
1/2-x,1/2+y,3/4-z
y,x,-z
-y,-x,1/2-z
loop_
_atom_site_type_symbol
_atom_site_label
_atom_site_fract_x
_atom_site_fract_y
_atom_site_fract_z
Si Si1 0.447489 0.447489 0.500000
Si Si2 0.996635 0.857622 0.478262
Si Si3 0.872340 0.733885 0.339566
Si Si4 0.522278 0.739697 0.527055
Si Si5 0.290991 0.290991 0.000000
Si Si6 0.542362 0.928124 0.624884
Si Si7 0.626754 0.383896 0.600530
O O1 0.374347 0.434953 0.611474
O O2 0.543611 0.438720 0.557272
O O3 0.949950 0.949950 0.500000
O O4 0.924629 0.785395 0.448146
O O5 0.044408 0.825505 0.604720
O O6 0.772435 0.726224 0.380731
O O7 0.917232 0.640429 0.323605
O O8 0.874953 0.787088 0.207410
O O9 0.611628 0.729995 0.446405
O O10 0.503337 0.836324 0.578047
O O11 0.438202 0.710778 0.446399
O O12 0.490097 0.963887 0.748968
O O13 0.629542 0.370459 0.750000
#
# Coordination Sequence:
#
# PCOD8305912 Si02
#       7
#     4   8   8   8   4   8   8
#     4  10  21  30  58  94 134 160 193 256 320 402
#     4  11  18  35  62  87 126 164 205 241 328 386
#     4  10  20  41  62  83 120 170 203 260 320 384
#     4  11  22  36  65  92 121 168 210 259 312 397
#     4  10  21  34  60  88 116 158 217 248 290 388
#     4  11  25  43  70  93 123 170 232 276 323 375
#     4  11  23  37  62  94 133 162 205 263 338 390
#
# _framework density 19.468537999999999
#
# number of rings (size 3 to 8) (size 9 to 14) (size 15 to 20)
#    0.000    1.333    5.833    1.000    4.667    1.333 
#    0.000    0.000   11.000    0.000    0.000    0.000 
#    0.000    0.000    0.000    0.000    0.000    0.000 
#
# Total GULP energy -594998.409469 kJ/mol
# GULP energy per Si atom -12395.800197 kJ/mol
# Density = 1.942423 g / cm^3
# Si number density = 19.468538 Si / 1000 Ang^3
#
#
#
# Elastic Constant Matrix: (Units=GPa)
#
#
# Indices 1 2 3 4 5 6 
#
# 1 88.0121 44.5878 57.5222 0.0000 0.0000 0.0000
# 2 44.5878 88.0119 57.5222 0.0000 0.0000 0.0000
# 3 57.5222 57.5222 144.1934 0.0000 0.0000 0.0000
# 4 0.0000 0.0000 0.0000 24.7218 0.0000 0.0000
# 5 0.0000 0.0000 0.0000 0.0000 24.7219 0.0000
# 6 0.0000 0.0000 0.0000 0.0000 0.0000 31.1487
#
#
#
# Elastic Compliance Matrix: (Units=1/GPa)
#
#
# Indices 1 2 3 4 5 6 
#
# 1 0.017281 -0.005748 -0.004601 0.000000 0.000000 0.000000
# 2 -0.005748 0.017281 -0.004601 0.000000 0.000000 0.000000
# 3 -0.004601 -0.004601 0.010606 0.000000 0.000000 0.000000
# 4 0.000000 0.000000 0.000000 0.040450 0.000000 0.000000
# 5 0.000000 0.000000 0.000000 0.000000 0.040450 0.000000
# 6 0.000000 0.000000 0.000000 0.000000 0.000000 0.032104
#
#
# Mechanical properties :
#
#
# Convention : Reuss Voigt Hill
#
# Bulk Modulus (GPa) = 65.49271 71.05356 68.27313
# Shear Modulus (GPa) = 25.88520 26.82416 26.35468
#
# Velocity S-wave (km/s) = 3.65031 3.71593 3.68327
# Velocity P-wave (km/s) = 7.17493 7.41530 7.29611
#
# Compressibility (1/GPa) = 0.01526888
#
# Stress axis : x y z
#
# Youngs Moduli (GPa) = 57.86731 57.86710 94.28672
#
# Poissons Ratio (x) = 0.33260 0.43380
# Poissons Ratio (y) = 0.33260 0.43380
# Poissons Ratio (z) = 0.26624 0.26624
#
# Static dielectric constant tensor:
#      x y z
#    x 3.595630 0.000000 0.000000 
#    y 0.000000 3.595630 0.000000 
#    z 0.000000 0.000000 3.626860 
# 
# 
# High freq. dielectric constant tensor:
#      x y z
#    x 1.754880 0.000000 0.000000 
#    y 0.000000 1.754880 0.000000 
#    z 0.000000 0.000000 1.749140 
# 
# From -- ./inp_files/2225.got.cif
#   From: 2010.03.12/outbox.cif.g09.slc.cpg/sg96_2_cif.got.tgz:2225.got - 2010.04.08 20:56:49.
