data_PCOD8305965
_publ_section_title
;
Structure prediction by ZEFSAII (Michael W. Deem and Ramdas Pophale) SiO2 
 PCOD8305965
Probable space group: P 43 21 2
;
_chemical_formula_sum "Si O2"
_cell_formula_units_Z 32
_cell_length_a 8.040042
_cell_length_b 8.040042
_cell_length_c 18.865749
_cell_angle_alpha 90.000000
_cell_angle_beta 90.000000
_cell_angle_gamma 90.000000
_cell_volume 1219.524942
_symmetry_space_group_name_H-M "P 43 21 2"
_symmetry_group_IT_number 96
_symmetry_cell_setting 'tetragonal'
loop_
_space_group_symop_operation_xyz
x,y,z
1/2-y,1/2+x,3/4+z
-x,-y,1/2+z
1/2+y,1/2-x,1/4+z
1/2+x,1/2-y,1/4-z
1/2-x,1/2+y,3/4-z
y,x,-z
-y,-x,1/2-z
loop_
_atom_site_type_symbol
_atom_site_label
_atom_site_fract_x
_atom_site_fract_y
_atom_site_fract_z
Si Si1 0.364279 0.092969 0.993992
Si Si2 0.615346 0.376182 0.670964
Si Si3 0.955553 0.226349 0.871024
Si Si4 0.147473 0.325597 0.158165
O O1 0.551470 0.138509 0.018635
O O2 0.292460 0.954969 0.047801
O O3 0.263489 0.263489 0.000000
O O4 0.343035 0.027385 0.912561
O O5 0.568657 0.431344 0.750000
O O6 0.458592 0.384761 0.619824
O O7 0.674408 0.183111 0.673583
O O8 0.732866 0.520235 0.640914
O O9 0.142396 0.231627 0.837792
#
# Coordination Sequence:
#
# PCOD8305965 Si02
#       4
#     8   8   8   8
#     4  10  23  45  75 108 142 202 247 311 391 458
#     4  12  28  48  74 119 155 202 265 322 387 476
#     4  11  25  47  74 112 156 204 258 324 385 464
#     4  11  25  48  78 106 155 195 257 317 395 462
#
# _framework density 26.239723000000001
#
# number of rings (size 3 to 8) (size 9 to 14) (size 15 to 20)
#    0.000    1.000    0.000    6.750    7.000    3.000 
#    0.000    0.000    0.000    0.000    0.000    0.000 
#    0.000    0.000    0.000    0.000    0.000    0.000 
#
# Total GULP energy -396562.573074 kJ/mol
# GULP energy per Si atom -12392.580409 kJ/mol
# Density = 2.618000 g / cm^3
# Si number density = 26.239723 Si / 1000 Ang^3
#
#
#
# Elastic Constant Matrix: (Units=GPa)
#
#
# Indices 1 2 3 4 5 6 
#
# 1 130.5155 36.1245 5.0844 0.0000 0.0000 0.0000
# 2 36.1245 130.5151 5.0842 0.0000 0.0000 0.0000
# 3 5.0844 5.0842 58.5527 0.0000 0.0000 0.0000
# 4 0.0000 0.0000 0.0000 32.6306 0.0000 0.0000
# 5 0.0000 0.0000 0.0000 0.0000 32.6306 0.0000
# 6 0.0000 0.0000 0.0000 0.0000 0.0000 19.1254
#
#
#
# Elastic Compliance Matrix: (Units=1/GPa)
#
#
# Indices 1 2 3 4 5 6 
#
# 1 0.008314 -0.002281 -0.000524 0.000000 0.000000 0.000000
# 2 -0.002281 0.008314 -0.000524 0.000000 0.000000 0.000000
# 3 -0.000524 -0.000524 0.017170 0.000000 0.000000 0.000000
# 4 0.000000 0.000000 0.000000 0.030646 0.000000 0.000000
# 5 0.000000 0.000000 0.000000 0.000000 0.030646 0.000000
# 6 0.000000 0.000000 0.000000 0.000000 0.000000 0.052287
#
#
# Mechanical properties :
#
#
# Convention : Reuss Voigt Hill
#
# Bulk Modulus (GPa) = 36.84593 45.79661 41.32127
# Shear Modulus (GPa) = 30.66000 35.09666 32.87833
#
# Velocity S-wave (km/s) = 3.42198 3.66121 3.54361
# Velocity P-wave (km/s) = 5.44847 5.94673 5.70304
#
# Compressibility (1/GPa) = 0.02714004
#
# Stress axis : x y z
#
# Youngs Moduli (GPa) = 120.28509 120.28475 58.24246
#
# Poissons Ratio (x) = 0.27433 0.03051
# Poissons Ratio (y) = 0.27433 0.03051
# Poissons Ratio (z) = 0.06301 0.06301
#
# Static dielectric constant tensor:
#      x y z
#    x 4.717170 0.000000 0.000000 
#    y 0.000000 4.717170 0.000000 
#    z 0.000000 0.000000 4.934960 
# 
# 
# High freq. dielectric constant tensor:
#      x y z
#    x 2.059140 0.000000 0.000000 
#    y 0.000000 2.059140 0.000000 
#    z 0.000000 0.000000 2.041070 
# 
# From -- ./inp_files/3359.got.cif
#   From: 2010.03.12/outbox.cif.g09.slc.cpg/sg96_2_cif.got.tgz:3359.got - 2010.04.08 20:56:49.
