data_PCOD8305883
_publ_section_title
;
Structure prediction by ZEFSAII (Michael W. Deem and Ramdas Pophale) SiO2 
 PCOD8305883
Probable space group: P 43 21 2
;
_chemical_formula_sum "Si O2"
_cell_formula_units_Z 56
_cell_length_a 12.162934
_cell_length_b 12.162934
_cell_length_c 19.303499
_cell_angle_alpha 90.000000
_cell_angle_beta 90.000000
_cell_angle_gamma 90.000000
_cell_volume 2855.701027
_symmetry_space_group_name_H-M "P 43 21 2"
_symmetry_group_IT_number 96
_symmetry_cell_setting 'tetragonal'
loop_
_space_group_symop_operation_xyz
x,y,z
1/2-y,1/2+x,3/4+z
-x,-y,1/2+z
1/2+y,1/2-x,1/4+z
1/2+x,1/2-y,1/4-z
1/2-x,1/2+y,3/4-z
y,x,-z
-y,-x,1/2-z
loop_
_atom_site_type_symbol
_atom_site_label
_atom_site_fract_x
_atom_site_fract_y
_atom_site_fract_z
Si Si1 0.716384 0.700840 0.752076
Si Si2 0.168096 0.182422 0.372983
Si Si3 0.822853 0.662420 0.612370
Si Si4 0.835490 0.980102 0.451759
Si Si5 0.477921 0.818217 0.193646
Si Si6 0.946406 0.098532 0.326441
Si Si7 0.054779 0.403657 0.417190
O O1 0.754832 0.788836 0.808042
O O2 0.779884 0.726494 0.680402
O O3 0.585661 0.713638 0.741705
O O4 0.745215 0.577323 0.776268
O O5 0.111268 0.286969 0.405819
O O6 0.072743 0.099781 0.349776
O O7 0.240157 0.125998 0.432600
O O8 0.887789 0.742652 0.560746
O O9 0.719232 0.608504 0.573205
O O10 0.907256 0.566614 0.634539
O O11 0.930000 0.930000 0.500000
O O12 0.882093 0.017220 0.377565
O O13 0.450895 0.915368 0.249208
O O14 0.503072 0.872973 0.119213
O O15 0.949410 0.050591 0.250000
#
# Coordination Sequence:
#
# PCOD8305883 Si02
#       7
#     8   8   8   8   8   8   8
#     4   9  20  36  54  81 111 143 185 233 274 330
#     4  10  19  35  56  77 108 146 183 223 275 333
#     4   9  19  36  56  78 110 148 186 226 278 341
#     4  11  21  35  57  86 114 145 188 240 288 332
#     4  10  19  36  57  80 107 142 186 226 272 332
#     4  10  20  35  57  81 109 150 188 226 281 343
#     4   9  20  35  56  79 106 144 183 222 270 331
#
# _framework density 19.609895999999999
#
# number of rings (size 3 to 8) (size 9 to 14) (size 15 to 20)
#    0.000    2.286    0.000    3.429    0.000    2.286 
#    0.000    8.571    0.000    0.000    0.000    0.000 
#    0.000    0.000    0.000    0.000    0.000    0.000 
#
# Total GULP energy -694354.866970 kJ/mol
# GULP energy per Si atom -12399.194053 kJ/mol
# Density = 1.956526 g / cm^3
# Si number density = 19.609896 Si / 1000 Ang^3
#
#
#
# Elastic Constant Matrix: (Units=GPa)
#
#
# Indices 1 2 3 4 5 6 
#
# 1 65.1795 27.7825 25.2660 0.0000 0.0000 0.0000
# 2 27.7825 65.1795 25.2663 0.0000 0.0000 0.0000
# 3 25.2660 25.2663 87.9052 0.0000 0.0000 0.0000
# 4 0.0000 0.0000 0.0000 29.1011 0.0000 0.0000
# 5 0.0000 0.0000 0.0000 0.0000 29.1010 0.0000
# 6 0.0000 0.0000 0.0000 0.0000 0.0000 17.3483
#
#
#
# Elastic Compliance Matrix: (Units=1/GPa)
#
#
# Indices 1 2 3 4 5 6 
#
# 1 0.019744 -0.006996 -0.003664 0.000000 0.000000 0.000000
# 2 -0.006996 0.019745 -0.003664 0.000000 0.000000 0.000000
# 3 -0.003664 -0.003664 0.013482 0.000000 0.000000 0.000000
# 4 0.000000 0.000000 0.000000 0.034363 0.000000 0.000000
# 5 0.000000 0.000000 0.000000 0.000000 0.034363 0.000000
# 6 0.000000 0.000000 0.000000 0.000000 0.000000 0.057642
#
#
# Mechanical properties :
#
#
# Convention : Reuss Voigt Hill
#
# Bulk Modulus (GPa) = 41.11368 41.65486 41.38427
# Shear Modulus (GPa) = 23.13785 24.44005 23.78895
#
# Velocity S-wave (km/s) = 3.43870 3.53414 3.48675
# Velocity P-wave (km/s) = 6.06445 6.15966 6.11224
#
# Compressibility (1/GPa) = 0.02432280
#
# Stress axis : x y z
#
# Youngs Moduli (GPa) = 50.64705 50.64683 74.17097
#
# Poissons Ratio (x) = 0.35430 0.27179
# Poissons Ratio (y) = 0.35430 0.27179
# Poissons Ratio (z) = 0.18559 0.18559
#
# Static dielectric constant tensor:
#      x y z
#    x 3.423520 0.000000 0.000000 
#    y 0.000000 3.423520 0.000000 
#    z 0.000000 0.000000 3.669050 
# 
# 
# High freq. dielectric constant tensor:
#      x y z
#    x 1.751810 0.000000 0.000000 
#    y 0.000000 1.751810 0.000000 
#    z 0.000000 0.000000 1.773430 
# 
# From -- ./inp_files/3551.got.cif
#   From: 2010.03.12/outbox.cif.g09.slc.cpg/sg96_2_cif.got.tgz:3551.got - 2010.04.08 20:56:49.
