data_PCOD8305586
_publ_section_title
;
Structure prediction by ZEFSAII (Michael W. Deem and Ramdas Pophale) SiO2 
 PCOD8305586
Probable space group: P 42 2 2
;
_chemical_formula_sum "Si O2"
_cell_formula_units_Z 36
_cell_length_a 9.092380
_cell_length_b 9.092380
_cell_length_c 19.818341
_cell_angle_alpha 90.000000
_cell_angle_beta 90.000000
_cell_angle_gamma 90.000000
_cell_volume 1638.409482
_symmetry_space_group_name_H-M "P 42 2 2"
_symmetry_group_IT_number 93
_symmetry_cell_setting 'tetragonal'
loop_
_space_group_symop_operation_xyz
x,y,z
-y,x,1/2+z
-x,-y,z
y,-x,1/2+z
x,-y,-z
-x,y,-z
y,x,1/2-z
-y,-x,1/2-z
loop_
_atom_site_type_symbol
_atom_site_label
_atom_site_fract_x
_atom_site_fract_y
_atom_site_fract_z
Si Si1 0.000000 0.500000 0.000000
Si Si2 0.826348 0.528998 0.424455
Si Si3 0.577285 0.217837 0.215412
Si Si4 0.000000 0.000000 0.500000
Si Si5 0.709901 0.067176 0.730619
Si Si6 0.252749 0.858335 0.583477
O O1 0.886289 0.396717 0.960629
O O2 0.763761 0.500000 0.500000
O O3 0.760469 0.423028 0.366136
O O4 0.773253 0.688252 0.400009
O O5 0.000000 0.500000 0.423874
O O6 0.631605 0.368396 0.250000
O O7 0.418962 0.176916 0.245355
O O8 0.692394 0.089128 0.233644
O O9 0.898084 0.098951 0.546914
O O10 0.867307 0.132694 0.750000
O O11 0.712813 0.047694 0.650184
#
# Coordination Sequence:
#
# PCOD8305586 Si02
#       6
#     2   8   8   2   8   8
#     4  10  24  42  66  98 136 186 214 292 352 430
#     4  11  22  41  70  99 137 179 231 295 353 422
#     4  11  24  42  66  98 135 181 238 283 352 423
#     4  10  24  42  72 106 128 182 234 288 364 414
#     4  11  22  42  64  92 134 173 223 287 345 407
#     4  11  23  44  68  97 142 177 232 289 356 424
#
# _framework density 21.972531
#
# number of rings (size 3 to 8) (size 9 to 14) (size 15 to 20)
#    0.000    1.111    4.444    2.667    0.000    9.778 
#    0.000    2.778    0.000    0.000    0.000    0.000 
#    0.000    0.000    0.000    0.000    0.000    0.000 
#
# Total GULP energy -446277.336579 kJ/mol
# GULP energy per Si atom -12396.592683 kJ/mol
# Density = 2.192252 g / cm^3
# Si number density = 21.972531 Si / 1000 Ang^3
#
#
#
# Elastic Constant Matrix: (Units=GPa)
#
#
# Indices 1 2 3 4 5 6 
#
# 1 73.6722 39.5173 43.1738 0.0000 0.0000 0.0000
# 2 39.5173 73.6709 43.1730 0.0000 0.0000 0.0000
# 3 43.1738 43.1730 206.6946 0.0000 0.0000 0.0000
# 4 0.0000 0.0000 0.0000 32.2172 0.0000 0.0000
# 5 0.0000 0.0000 0.0000 0.0000 32.2168 0.0000
# 6 0.0000 0.0000 0.0000 0.0000 0.0000 40.1244
#
#
#
# Elastic Compliance Matrix: (Units=1/GPa)
#
#
# Indices 1 2 3 4 5 6 
#
# 1 0.019894 -0.009385 -0.002195 0.000000 0.000000 0.000000
# 2 -0.009385 0.019894 -0.002195 0.000000 0.000000 0.000000
# 3 -0.002195 -0.002195 0.005755 0.000000 0.000000 0.000000
# 4 0.000000 0.000000 0.000000 0.031039 0.000000 0.000000
# 5 0.000000 0.000000 0.000000 0.000000 0.031040 0.000000
# 6 0.000000 0.000000 0.000000 0.000000 0.000000 0.024922
#
#
# Mechanical properties :
#
#
# Convention : Reuss Voigt Hill
#
# Bulk Modulus (GPa) = 55.57646 67.30735 61.44190
# Shear Modulus (GPa) = 30.10362 36.12323 33.11343
#
# Velocity S-wave (km/s) = 3.70544 4.05905 3.88627
# Velocity P-wave (km/s) = 6.60724 7.25719 6.93983
#
# Compressibility (1/GPa) = 0.01799323
#
# Stress axis : x y z
#
# Youngs Moduli (GPa) = 50.26636 50.26556 173.75949
#
# Poissons Ratio (x) = 0.47173 0.38143
# Poissons Ratio (y) = 0.47174 0.38142
# Poissons Ratio (z) = 0.11034 0.11034
#
# Static dielectric constant tensor:
#      x y z
#    x 3.833620 0.000000 0.000000 
#    y 0.000000 3.833620 0.000000 
#    z 0.000000 0.000000 4.395690 
# 
# 
# High freq. dielectric constant tensor:
#      x y z
#    x 1.854660 0.000000 0.000000 
#    y 0.000000 1.854660 0.000000 
#    z 0.000000 0.000000 1.886730 
# 
# From -- ./inp_files/6124.got.cif
#   From: 2010.03.12/outbox.cif.g09.slc.cpg/sg93_4_cif.got.tgz:6124.got - 2010.04.08 20:44:19.
