data_PCOD8305870
_publ_section_title
;
Structure prediction by ZEFSAII (Michael W. Deem and Ramdas Pophale) SiO2 
 PCOD8305870
Probable space group: P 43 2 2
;
_chemical_formula_sum "Si O2"
_cell_formula_units_Z 40
_cell_length_a 8.992513
_cell_length_b 8.992513
_cell_length_c 20.197648
_cell_angle_alpha 90.000000
_cell_angle_beta 90.000000
_cell_angle_gamma 90.000000
_cell_volume 1633.288664
_symmetry_space_group_name_H-M "P 43 2 2"
_symmetry_group_IT_number 95
_symmetry_cell_setting 'tetragonal'
loop_
_space_group_symop_operation_xyz
x,y,z
-y,x,3/4+z
-x,-y,1/2+z
y,-x,1/4+z
x,-y,1/2-z
-x,y,-z
y,x,1/4-z
-y,-x,3/4-z
loop_
_atom_site_type_symbol
_atom_site_label
_atom_site_fract_x
_atom_site_fract_y
_atom_site_fract_z
Si Si1 0.654327 0.970673 0.349484
Si Si2 0.394181 0.500000 0.750000
Si Si3 0.406644 0.252523 0.187146
Si Si4 0.326402 0.865035 0.506381
Si Si5 0.037516 0.901050 0.690666
Si Si6 0.691991 0.308010 0.375000
O O1 0.495385 0.900348 0.328514
O O2 0.705643 0.929042 0.422427
O O3 0.783772 0.899770 0.304744
O O4 0.660656 0.148033 0.341812
O O5 0.483665 0.621113 0.709903
O O6 0.310214 0.578076 0.812274
O O7 0.311411 0.311411 0.125000
O O8 0.286939 0.231040 0.246147
O O9 0.500000 0.830266 0.500000
O O10 0.269800 0.984969 0.451904
O O11 0.971195 0.000000 0.750000
O O12 0.970153 0.970153 0.625000
#
# Coordination Sequence:
#
# PCOD8305870 Si02
#       6
#     8   4   8   8   8   4
#     4  12  28  52  80 119 170 216 286 351 420 513
#     4  12  28  52  84 116 162 216 280 348 416 510
#     4  12  25  51  77 115 166 211 275 344 417 505
#     4  12  26  51  77 115 165 211 276 343 422 505
#     4  12  26  52  77 114 162 210 272 347 410 500
#     4  12  30  54  84 124 164 228 288 356 440 504
#
# _framework density 24.490463999999999
#
# number of rings (size 3 to 8) (size 9 to 14) (size 15 to 20)
#    0.000    0.000    7.000    0.600    7.000    0.000 
#    3.600    0.000    0.000    0.000    0.000    0.000 
#    0.000    0.000    0.000    0.000    0.000    0.000 
#
# Total GULP energy -495645.933015 kJ/mol
# GULP energy per Si atom -12391.148325 kJ/mol
# Density = 2.443472 g / cm^3
# Si number density = 24.490464 Si / 1000 Ang^3
#
#
#
# Elastic Constant Matrix: (Units=GPa)
#
#
# Indices 1 2 3 4 5 6 
#
# 1 122.7513 76.8337 41.5120 0.0000 0.0000 0.0000
# 2 76.8337 122.7519 41.5123 0.0000 0.0000 0.0000
# 3 41.5120 41.5123 122.4530 0.0000 0.0000 0.0000
# 4 0.0000 0.0000 0.0000 37.8769 0.0000 0.0000
# 5 0.0000 0.0000 0.0000 0.0000 37.8764 0.0000
# 6 0.0000 0.0000 0.0000 0.0000 0.0000 32.3521
#
#
#
# Elastic Compliance Matrix: (Units=1/GPa)
#
#
# Indices 1 2 3 4 5 6 
#
# 1 0.013805 -0.007973 -0.001977 0.000000 0.000000 0.000000
# 2 -0.007973 0.013805 -0.001977 0.000000 0.000000 0.000000
# 3 -0.001977 -0.001977 0.009507 0.000000 0.000000 0.000000
# 4 0.000000 0.000000 0.000000 0.026401 0.000000 0.000000
# 5 0.000000 0.000000 0.000000 0.000000 0.026402 0.000000
# 6 0.000000 0.000000 0.000000 0.000000 0.000000 0.030910
#
#
# Mechanical properties :
#
#
# Convention : Reuss Voigt Hill
#
# Bulk Modulus (GPa) = 75.39540 76.40801 75.90171
# Shear Modulus (GPa) = 33.53305 35.49431 34.51368
#
# Velocity S-wave (km/s) = 3.70432 3.81111 3.75810
# Velocity P-wave (km/s) = 7.01060 7.11568 7.06333
#
# Compressibility (1/GPa) = 0.01326341
#
# Stress axis : x y z
#
# Youngs Moduli (GPa) = 72.43491 72.43515 105.18461
#
# Poissons Ratio (x) = 0.57749 0.20799
# Poissons Ratio (y) = 0.57749 0.20799
# Poissons Ratio (z) = 0.14323 0.14323
#
# Static dielectric constant tensor:
#      x y z
#    x 4.504520 0.000000 0.000000 
#    y 0.000000 4.504540 0.000000 
#    z 0.000000 0.000000 22.705640 
# 
# 
# High freq. dielectric constant tensor:
#      x y z
#    x 1.975160 0.000000 0.000000 
#    y 0.000000 1.975160 0.000000 
#    z 0.000000 0.000000 1.993760 
# 
# From -- ./inp_files/6892.got.cif
#   From: 2010.03.12/outbox.cif.g09.slc.cpg/sg95_4_cif.got.tgz:6892.got - 2010.04.08 20:51:55.
