data_PCOD8305290
_publ_section_title
;
Structure prediction by ZEFSAII (Michael W. Deem and Ramdas Pophale) SiO2 
 PCOD8305290
Probable space group: P 41 21 2
;
_chemical_formula_sum "Si O2"
_cell_formula_units_Z 40
_cell_length_a 10.705878
_cell_length_b 10.705878
_cell_length_c 15.459699
_cell_angle_alpha 90.000000
_cell_angle_beta 90.000000
_cell_angle_gamma 90.000000
_cell_volume 1771.926136
_symmetry_space_group_name_H-M "P 41 21 2"
_symmetry_group_IT_number 92
_symmetry_cell_setting 'tetragonal'
loop_
_space_group_symop_operation_xyz
x,y,z
1/2-y,1/2+x,1/4+z
-x,-y,1/2+z
1/2+y,1/2-x,3/4+z
1/2+x,1/2-y,3/4-z
1/2-x,1/2+y,1/4-z
y,x,-z
-y,-x,1/2-z
loop_
_atom_site_type_symbol
_atom_site_label
_atom_site_fract_x
_atom_site_fract_y
_atom_site_fract_z
Si Si1 0.195978 0.499148 0.391440
Si Si2 0.876907 0.642293 0.280680
Si Si3 0.572034 0.258504 0.307270
Si Si4 0.871164 0.470148 0.711581
Si Si5 0.078543 0.106352 0.271225
O O1 0.123698 0.368417 0.401191
O O2 0.229672 0.522381 0.289632
O O3 0.319752 0.502303 0.447753
O O4 0.108724 0.613158 0.423414
O O5 0.763172 0.553238 0.250302
O O6 0.873748 0.665998 0.384804
O O7 0.873525 0.773472 0.231789
O O8 0.001014 0.568893 0.257187
O O9 0.679590 0.320411 0.250000
O O10 0.532330 0.350228 0.384718
O O11 0.037155 0.962846 0.250000
#
# Coordination Sequence:
#
# PCOD8305290 Si02
#       5
#     8   8   8   8   8
#     4  10  20  40  71  97 128 176 233 290 348 426
#     4  10  23  43  67 100 142 183 229 297 358 429
#     4  11  24  44  75 103 137 184 240 297 356 422
#     4   9  19  42  68  93 131 185 231 273 364 423
#     4  12  27  43  65 105 140 178 238 297 359 423
#
# _framework density 22.574303
#
# number of rings (size 3 to 8) (size 9 to 14) (size 15 to 20)
#    0.000    1.600    2.000    1.800    8.400    0.800 
#   18.000    0.000    0.000    0.000    0.000    0.000 
#    0.000    0.000    0.000    0.000    0.000    0.000 
#
# Total GULP energy -495914.086283 kJ/mol
# GULP energy per Si atom -12397.852157 kJ/mol
# Density = 2.252292 g / cm^3
# Si number density = 22.574303 Si / 1000 Ang^3
#
#
#
# Elastic Constant Matrix: (Units=GPa)
#
#
# Indices 1 2 3 4 5 6 
#
# 1 57.1213 21.3111 30.9603 0.0000 0.0000 0.0000
# 2 21.3111 57.1258 30.9609 0.0000 0.0000 0.0000
# 3 30.9603 30.9609 187.6481 0.0000 0.0000 0.0000
# 4 0.0000 0.0000 0.0000 30.4666 0.0000 0.0000
# 5 0.0000 0.0000 0.0000 0.0000 30.4660 0.0000
# 6 0.0000 0.0000 0.0000 0.0000 0.0000 25.9068
#
#
#
# Elastic Compliance Matrix: (Units=1/GPa)
#
#
# Indices 1 2 3 4 5 6 
#
# 1 0.021292 -0.006632 -0.002419 0.000000 0.000000 0.000000
# 2 -0.006632 0.021290 -0.002419 0.000000 0.000000 0.000000
# 3 -0.002419 -0.002419 0.006127 0.000000 0.000000 0.000000
# 4 0.000000 0.000000 0.000000 0.032823 0.000000 0.000000
# 5 0.000000 0.000000 0.000000 0.000000 0.032823 0.000000
# 6 0.000000 0.000000 0.000000 0.000000 0.000000 0.038600
#
#
# Mechanical properties :
#
#
# Convention : Reuss Voigt Hill
#
# Bulk Modulus (GPa) = 38.80400 52.03998 45.42199
# Shear Modulus (GPa) = 27.10257 31.94544 29.52400
#
# Velocity S-wave (km/s) = 3.46872 3.76589 3.62036
# Velocity P-wave (km/s) = 5.76797 6.48167 6.13521
#
# Compressibility (1/GPa) = 0.02577054
#
# Stress axis : x y z
#
# Youngs Moduli (GPa) = 46.96617 46.97003 163.20590
#
# Poissons Ratio (x) = 0.31151 0.39475
# Poissons Ratio (y) = 0.31149 0.39472
# Poissons Ratio (z) = 0.11360 0.11360
#
# Static dielectric constant tensor:
#      x y z
#    x 3.784120 0.000000 0.000000 
#    y 0.000000 3.784120 0.000000 
#    z 0.000000 0.000000 4.495760 
# 
# 
# High freq. dielectric constant tensor:
#      x y z
#    x 1.868270 0.000000 0.000000 
#    y 0.000000 1.868270 0.000000 
#    z 0.000000 0.000000 1.912450 
# 
# From -- ./inp_files/2602.got.cif
#   From: 2010.03.12/outbox.cif.g09.slc.cpg/sg92_2_cif.got.tgz:2602.got - 2010.04.08 20:41:11.
