data_PCOD8305422
_publ_section_title
;
Structure prediction by ZEFSAII (Michael W. Deem and Ramdas Pophale) SiO2 
 PCOD8305422
Probable space group: P 41 21 2
;
_chemical_formula_sum "Si O2"
_cell_formula_units_Z 28
_cell_length_a 7.537378
_cell_length_b 7.537378
_cell_length_c 19.057170
_cell_angle_alpha 90.000000
_cell_angle_beta 90.000000
_cell_angle_gamma 90.000000
_cell_volume 1082.677221
_symmetry_space_group_name_H-M "P 41 21 2"
_symmetry_group_IT_number 92
_symmetry_cell_setting 'tetragonal'
loop_
_space_group_symop_operation_xyz
x,y,z
1/2-y,1/2+x,1/4+z
-x,-y,1/2+z
1/2+y,1/2-x,3/4+z
1/2+x,1/2-y,3/4-z
1/2-x,1/2+y,1/4-z
y,x,-z
-y,-x,1/2-z
loop_
_atom_site_type_symbol
_atom_site_label
_atom_site_fract_x
_atom_site_fract_y
_atom_site_fract_z
Si Si1 0.492721 0.383046 0.605048
Si Si2 0.351720 0.648281 0.250000
Si Si3 0.160871 0.554717 0.021624
Si Si4 0.878200 0.516050 0.129538
O O1 0.569800 0.443342 0.680505
O O2 0.311794 0.492404 0.589604
O O3 0.636311 0.430418 0.545888
O O4 0.451957 0.175293 0.600171
O O5 0.144512 0.607093 0.251865
O O6 0.129772 0.664407 0.950139
O O7 0.024725 0.619095 0.082387
#
# Coordination Sequence:
#
# PCOD8305422 Si02
#       4
#     8   4   8   8
#     4  11  27  47  80 113 157 207 261 334 395 477
#     4  10  24  46  76 108 154 206 250 324 400 460
#     4  11  25  50  76 115 159 212 261 333 391 473
#     4  11  28  47  78 117 156 208 270 324 402 472
#
# _framework density 25.861816999999999
#
# number of rings (size 3 to 8) (size 9 to 14) (size 15 to 20)
#    0.000    1.143    2.857    0.000   12.000    3.429 
#    0.000    0.000    0.000    0.000    0.000    0.000 
#    0.000    0.000    0.000    0.000    0.000    0.000 
#
# Total GULP energy -347342.704066 kJ/mol
# GULP energy per Si atom -12405.096574 kJ/mol
# Density = 2.580295 g / cm^3
# Si number density = 25.861817 Si / 1000 Ang^3
#
#
#
# Elastic Constant Matrix: (Units=GPa)
#
#
# Indices 1 2 3 4 5 6 
#
# 1 123.8781 25.2460 46.0122 0.0000 0.0000 0.0000
# 2 25.2460 123.8785 46.0124 0.0000 0.0000 0.0000
# 3 46.0122 46.0124 142.9579 0.0000 0.0000 0.0000
# 4 0.0000 0.0000 0.0000 32.0968 0.0000 0.0000
# 5 0.0000 0.0000 0.0000 0.0000 32.0967 0.0000
# 6 0.0000 0.0000 0.0000 0.0000 0.0000 37.4820
#
#
#
# Elastic Compliance Matrix: (Units=1/GPa)
#
#
# Indices 1 2 3 4 5 6 
#
# 1 0.009253 -0.000885 -0.002693 0.000000 0.000000 0.000000
# 2 -0.000885 0.009253 -0.002693 0.000000 0.000000 0.000000
# 3 -0.002693 -0.002693 0.008729 0.000000 0.000000 0.000000
# 4 0.000000 0.000000 0.000000 0.031156 0.000000 0.000000
# 5 0.000000 0.000000 0.000000 0.000000 0.031156 0.000000
# 6 0.000000 0.000000 0.000000 0.000000 0.000000 0.026679
#
#
# Mechanical properties :
#
#
# Convention : Reuss Voigt Hill
#
# Bulk Modulus (GPa) = 68.06715 69.47286 68.77000
# Shear Modulus (GPa) = 37.40628 38.56468 37.98548
#
# Velocity S-wave (km/s) = 3.80727 3.86577 3.83663
# Velocity P-wave (km/s) = 6.76046 6.84449 6.80260
#
# Compressibility (1/GPa) = 0.01469137
#
# Stress axis : x y z
#
# Youngs Moduli (GPa) = 108.07004 108.07033 114.56375
#
# Poissons Ratio (x) = 0.09569 0.30855
# Poissons Ratio (y) = 0.09569 0.30855
# Poissons Ratio (z) = 0.29106 0.29106
#
# Static dielectric constant tensor:
#      x y z
#    x 4.512550 0.000000 0.000000 
#    y 0.000000 4.512540 0.000000 
#    z 0.000000 0.000000 4.932550 
# 
# 
# High freq. dielectric constant tensor:
#      x y z
#    x 2.031840 0.000000 0.000000 
#    y 0.000000 2.031840 0.000000 
#    z 0.000000 0.000000 2.046160 
# 
# From -- ./inp_files/2925.got.cif
#   From: 2010.03.12/outbox.cif.g09.slc.cpg/sg92_2_cif.got.tgz:2925.got - 2010.04.08 20:41:11.
