data_PCOD8305874
_publ_section_title
;
Structure prediction by ZEFSAII (Michael W. Deem and Ramdas Pophale) SiO2 
 PCOD8305874
Probable space group: P 43 21 2
;
_chemical_formula_sum "Si O2"
_cell_formula_units_Z 40
_cell_length_a 14.758899
_cell_length_b 14.758899
_cell_length_c 8.986652
_cell_angle_alpha 90.000000
_cell_angle_beta 90.000000
_cell_angle_gamma 90.000000
_cell_volume 1957.518368
_symmetry_space_group_name_H-M "P 43 21 2"
_symmetry_group_IT_number 96
_symmetry_cell_setting 'tetragonal'
loop_
_space_group_symop_operation_xyz
x,y,z
1/2-y,1/2+x,3/4+z
-x,-y,1/2+z
1/2+y,1/2-x,1/4+z
1/2+x,1/2-y,1/4-z
1/2-x,1/2+y,3/4-z
y,x,-z
-y,-x,1/2-z
loop_
_atom_site_type_symbol
_atom_site_label
_atom_site_fract_x
_atom_site_fract_y
_atom_site_fract_z
Si Si1 0.746360 0.362649 0.572051
Si Si2 0.074231 0.571443 0.002566
Si Si3 0.183603 0.668565 0.395021
Si Si4 0.953318 0.918451 0.166690
Si Si5 0.221979 0.484550 0.474884
O O1 0.818719 0.415062 0.467354
O O2 0.770728 0.377793 0.746811
O O3 0.746422 0.252459 0.546972
O O4 0.649042 0.402166 0.526609
O O5 0.057027 0.483616 0.104935
O O6 0.050917 0.665172 0.084608
O O7 0.182035 0.585014 0.512911
O O8 0.083366 0.706798 0.364729
O O9 0.013635 0.828401 0.189468
O O10 0.950911 0.950911 0.000000
O O11 0.997543 0.002458 0.250000
#
# Coordination Sequence:
#
# PCOD8305874 Si02
#       5
#     8   8   8   8   8
#     4   9  17  34  51  75 111 146 181 223 279 334
#     4  11  20  34  58  82 111 143 187 233 287 338
#     4   9  16  29  52  81 111 136 189 231 269 323
#     4  11  21  36  56  81 113 146 194 235 279 333
#     4  10  17  30  54  86 108 136 185 238 274 318
#
# _framework density 20.434035999999999
#
# number of rings (size 3 to 8) (size 9 to 14) (size 15 to 20)
#    0.000    2.000    8.000    0.000    5.600    0.000 
#    0.000    2.000    0.000    0.000    0.000    2.800 
#    0.000    0.000    0.000    0.000    0.000    0.000 
#
# Total GULP energy -495585.917018 kJ/mol
# GULP energy per Si atom -12389.647925 kJ/mol
# Density = 2.038753 g / cm^3
# Si number density = 20.434036 Si / 1000 Ang^3
#
#
#
# Elastic Constant Matrix: (Units=GPa)
#
#
# Indices 1 2 3 4 5 6 
#
# 1 128.7812 93.0739 44.4490 0.0000 0.0000 0.0000
# 2 93.0739 128.7793 44.4473 0.0000 0.0000 0.0000
# 3 44.4490 44.4473 33.0738 0.0000 0.0000 0.0000
# 4 0.0000 0.0000 0.0000 15.8182 0.0000 0.0000
# 5 0.0000 0.0000 0.0000 0.0000 15.8185 0.0000
# 6 0.0000 0.0000 0.0000 0.0000 0.0000 33.3682
#
#
#
# Elastic Compliance Matrix: (Units=1/GPa)
#
#
# Indices 1 2 3 4 5 6 
#
# 1 0.018887 -0.009120 -0.013127 0.000000 0.000000 0.000000
# 2 -0.009120 0.018886 -0.013125 0.000000 0.000000 0.000000
# 3 -0.013127 -0.013125 0.065515 0.000000 0.000000 0.000000
# 4 0.000000 0.000000 0.000000 0.063218 0.000000 0.000000
# 5 0.000000 0.000000 0.000000 0.000000 0.063217 0.000000
# 6 0.000000 0.000000 0.000000 0.000000 0.000000 0.029969
#
#
# Mechanical properties :
#
#
# Convention : Reuss Voigt Hill
#
# Bulk Modulus (GPa) = 30.72604 72.73050 51.72827
# Shear Modulus (GPa) = 14.65054 20.24524 17.44789
#
# Velocity S-wave (km/s) = 2.68053 3.15105 2.92527
# Velocity P-wave (km/s) = 4.96484 6.99349 6.06459
#
# Compressibility (1/GPa) = 0.03254569
#
# Stress axis : x y z
#
# Youngs Moduli (GPa) = 52.94658 52.94863 15.26361
#
# Poissons Ratio (x) = 0.48287 0.20037
# Poissons Ratio (y) = 0.48285 0.20033
# Poissons Ratio (z) = 0.69503 0.69493
#
# Static dielectric constant tensor:
#      x y z
#    x 4.083970 0.000000 0.000000 
#    y 0.000000 4.083970 0.000000 
#    z 0.000000 0.000000 3.064910 
# 
# 
# High freq. dielectric constant tensor:
#      x y z
#    x 1.812370 0.000000 0.000000 
#    y 0.000000 1.812370 0.000000 
#    z 0.000000 0.000000 1.720920 
# 
# From -- ./inp_files/2072.got.cif
#   From: 2010.03.12/outbox.cif.g09.slc.cpg/sg96_2_cif.got.tgz:2072.got - 2010.04.08 20:56:49.
