data_PCOD8305889
_publ_section_title
;
Structure prediction by ZEFSAII (Michael W. Deem and Ramdas Pophale) SiO2 
 PCOD8305889
Probable space group: P 43 21 2
;
_chemical_formula_sum "Si O2"
_cell_formula_units_Z 48
_cell_length_a 16.436082
_cell_length_b 16.436082
_cell_length_c 9.886725
_cell_angle_alpha 90.000000
_cell_angle_beta 90.000000
_cell_angle_gamma 90.000000
_cell_volume 2670.847264
_symmetry_space_group_name_H-M "P 43 21 2"
_symmetry_group_IT_number 96
_symmetry_cell_setting 'tetragonal'
loop_
_space_group_symop_operation_xyz
x,y,z
1/2-y,1/2+x,3/4+z
-x,-y,1/2+z
1/2+y,1/2-x,1/4+z
1/2+x,1/2-y,1/4-z
1/2-x,1/2+y,3/4-z
y,x,-z
-y,-x,1/2-z
loop_
_atom_site_type_symbol
_atom_site_label
_atom_site_fract_x
_atom_site_fract_y
_atom_site_fract_z
Si Si1 0.693970 0.830419 0.505466
Si Si2 0.154880 0.291262 0.510795
Si Si3 0.776918 0.913690 0.735233
Si Si4 0.697986 0.583503 0.412513
Si Si5 0.403919 0.732729 0.511542
Si Si6 0.208002 0.905338 0.160782
O O1 0.760826 0.760826 0.500000
O O2 0.710712 0.895149 0.621618
O O3 0.608468 0.787289 0.533773
O O4 0.696748 0.878355 0.365526
O O5 0.226065 0.226065 0.500000
O O6 0.088646 0.269957 0.623529
O O7 0.101063 0.285329 0.375457
O O8 0.199892 0.376742 0.548211
O O9 0.847448 0.846609 0.735926
O O10 0.810563 0.002946 0.706024
O O11 0.628009 0.628009 0.500000
O O12 0.692907 0.489113 0.447237
O O13 0.690964 0.604135 0.251283
O O14 0.145860 0.854141 0.250000
#
# Coordination Sequence:
#
# PCOD8305889 Si02
#       6
#     8   8   8   8   8   8
#     4   9  18  34  57  77 105 149 193 223 266 328
#     4   9  20  36  56  81 108 146 196 229 268 335
#     4  10  19  37  58  79 113 151 185 229 284 334
#     4  11  23  36  57  87 116 145 188 236 281 335
#     4  10  21  37  59  84 112 150 190 228 280 340
#     4  11  23  36  57  86 116 147 187 235 286 335
#
# _framework density 17.971824999999999
#
# number of rings (size 3 to 8) (size 9 to 14) (size 15 to 20)
#    0.000    2.000    3.333    0.000    9.333    0.667 
#    0.000    0.000    0.000    6.000    0.000    0.000 
#    0.000    0.000    0.000    0.000    0.000    0.000 
#
# Total GULP energy -594695.984744 kJ/mol
# GULP energy per Si atom -12389.499682 kJ/mol
# Density = 1.793092 g / cm^3
# Si number density = 17.971825 Si / 1000 Ang^3
#
#
#
# Elastic Constant Matrix: (Units=GPa)
#
#
# Indices 1 2 3 4 5 6 
#
# 1 58.4752 40.7784 46.3853 0.0000 0.0000 0.0000
# 2 40.7784 58.4751 46.3853 0.0000 0.0000 0.0000
# 3 46.3853 46.3853 173.8156 0.0000 0.0000 0.0000
# 4 0.0000 0.0000 0.0000 18.8033 0.0000 0.0000
# 5 0.0000 0.0000 0.0000 0.0000 18.8037 0.0000
# 6 0.0000 0.0000 0.0000 0.0000 0.0000 17.2492
#
#
#
# Elastic Compliance Matrix: (Units=1/GPa)
#
#
# Indices 1 2 3 4 5 6 
#
# 1 0.034966 -0.021542 -0.003582 0.000000 0.000000 0.000000
# 2 -0.021542 0.034966 -0.003582 0.000000 0.000000 0.000000
# 3 -0.003582 -0.003582 0.007665 0.000000 0.000000 0.000000
# 4 0.000000 0.000000 0.000000 0.053182 0.000000 0.000000
# 5 0.000000 0.000000 0.000000 0.000000 0.053181 0.000000
# 6 0.000000 0.000000 0.000000 0.000000 0.000000 0.057974
#
#
# Mechanical properties :
#
#
# Convention : Reuss Voigt Hill
#
# Bulk Modulus (GPa) = 49.54635 61.98487 55.76561
# Shear Modulus (GPa) = 16.33592 21.45236 18.89414
#
# Velocity S-wave (km/s) = 3.01819 3.45870 3.24592
# Velocity P-wave (km/s) = 6.30672 7.10739 6.71899
#
# Compressibility (1/GPa) = 0.02018312
#
# Stress axis : x y z
#
# Youngs Moduli (GPa) = 28.59962 28.59953 130.46006
#
# Poissons Ratio (x) = 0.61609 0.46734
# Poissons Ratio (y) = 0.61610 0.46734
# Poissons Ratio (z) = 0.10245 0.10245
#
# Static dielectric constant tensor:
#      x y z
#    x 3.259020 0.000000 0.000000 
#    y 0.000000 3.259020 0.000000 
#    z 0.000000 0.000000 3.731800 
# 
# 
# High freq. dielectric constant tensor:
#      x y z
#    x 1.675380 0.000000 0.000000 
#    y 0.000000 1.675380 0.000000 
#    z 0.000000 0.000000 1.722350 
# 
# From -- ./inp_files/1483.got.cif
#   From: 2010.03.12/outbox.cif.g09.slc.cpg/sg96_1_cif.got.tgz:1483.got - 2010.04.08 20:56:49.
