data_PCOD8305313
_publ_section_title
;
Structure prediction by ZEFSAII (Michael W. Deem and Ramdas Pophale) SiO2 
 PCOD8305313
Probable space group: P 41 21 2
;
_chemical_formula_sum "Si O2"
_cell_formula_units_Z 40
_cell_length_a 8.523199
_cell_length_b 8.523199
_cell_length_c 25.698223
_cell_angle_alpha 90.000000
_cell_angle_beta 90.000000
_cell_angle_gamma 90.000000
_cell_volume 1866.845385
_symmetry_space_group_name_H-M "P 41 21 2"
_symmetry_group_IT_number 92
_symmetry_cell_setting 'tetragonal'
loop_
_space_group_symop_operation_xyz
x,y,z
1/2-y,1/2+x,1/4+z
-x,-y,1/2+z
1/2+y,1/2-x,3/4+z
1/2+x,1/2-y,3/4-z
1/2-x,1/2+y,1/4-z
y,x,-z
-y,-x,1/2-z
loop_
_atom_site_type_symbol
_atom_site_label
_atom_site_fract_x
_atom_site_fract_y
_atom_site_fract_z
Si Si1 0.576989 0.576989 0.500000
Si Si2 0.548910 0.734047 0.659779
Si Si3 0.837126 0.920382 0.163268
Si Si4 0.562261 0.704586 0.158061
Si Si5 0.206582 0.428996 0.096929
Si Si6 0.530570 0.469431 0.250000
O O1 0.578818 0.411602 0.470362
O O2 0.720597 0.591232 0.539774
O O3 0.405400 0.725447 0.619954
O O4 0.660408 0.586206 0.641669
O O5 0.483592 0.694364 0.717561
O O6 0.624156 0.903097 0.652587
O O7 0.658525 0.865867 0.169383
O O8 0.861467 0.088496 0.134872
O O9 0.400453 0.779518 0.138449
O O10 0.531811 0.617253 0.212073
#
# Coordination Sequence:
#
# PCOD8305313 Si02
#       6
#     4   8   8   8   8   4
#     4  10  21  38  59  84 114 150 195 244 297 358
#     4  10  21  38  59  85 118 157 200 250 307 365
#     4  10  22  40  59  85 121 157 197 249 304 366
#     4  11  22  39  61  88 122 158 201 251 306 366
#     4  11  21  37  61  87 116 156 201 249 305 366
#     4  10  21  38  59  86 120 156 201 256 305 368
#
# _framework density 21.426518000000002
#
# number of rings (size 3 to 8) (size 9 to 14) (size 15 to 20)
#    0.000    1.600    0.000    6.600    0.000    1.600 
#    0.000   15.000    0.000    0.000    0.000    0.000 
#    0.000    0.000    0.000    0.000    0.000    0.000 
#
# Total GULP energy -495641.795596 kJ/mol
# GULP energy per Si atom -12391.044890 kJ/mol
# Density = 2.137775 g / cm^3
# Si number density = 21.426518 Si / 1000 Ang^3
#
#
#
# Elastic Constant Matrix: (Units=GPa)
#
#
# Indices 1 2 3 4 5 6 
#
# 1 73.7463 24.8808 26.6565 0.0000 0.0000 0.0000
# 2 24.8808 73.7461 26.6565 0.0000 0.0000 0.0000
# 3 26.6565 26.6565 99.5322 0.0000 0.0000 0.0000
# 4 0.0000 0.0000 0.0000 19.0619 0.0000 0.0000
# 5 0.0000 0.0000 0.0000 0.0000 19.0619 0.0000
# 6 0.0000 0.0000 0.0000 0.0000 0.0000 50.7061
#
#
#
# Elastic Compliance Matrix: (Units=1/GPa)
#
#
# Indices 1 2 3 4 5 6 
#
# 1 0.016160 -0.004304 -0.003175 0.000000 0.000000 0.000000
# 2 -0.004304 0.016160 -0.003175 0.000000 0.000000 0.000000
# 3 -0.003175 -0.003175 0.011748 0.000000 0.000000 0.000000
# 4 0.000000 0.000000 0.000000 0.052461 0.000000 0.000000
# 5 0.000000 0.000000 0.000000 0.000000 0.052461 0.000000
# 6 0.000000 0.000000 0.000000 0.000000 0.000000 0.019721
#
#
# Mechanical properties :
#
#
# Convention : Reuss Voigt Hill
#
# Bulk Modulus (GPa) = 43.94006 44.82359 44.38183
# Shear Modulus (GPa) = 25.30289 29.02136 27.16212
#
# Velocity S-wave (km/s) = 3.44017 3.68429 3.56432
# Velocity P-wave (km/s) = 6.02757 6.25010 6.13984
#
# Compressibility (1/GPa) = 0.02275827
#
# Stress axis : x y z
#
# Youngs Moduli (GPa) = 61.88144 61.88127 85.12299
#
# Poissons Ratio (x) = 0.26636 0.27028
# Poissons Ratio (y) = 0.26636 0.27028
# Poissons Ratio (z) = 0.19648 0.19648
#
# Static dielectric constant tensor:
#      x y z
#    x 3.868370 0.000000 0.000000 
#    y 0.000000 3.868370 0.000000 
#    z 0.000000 0.000000 3.809470 
# 
# 
# High freq. dielectric constant tensor:
#      x y z
#    x 1.848260 0.000000 0.000000 
#    y 0.000000 1.848260 0.000000 
#    z 0.000000 0.000000 1.833960 
# 
# From -- ./inp_files/3822.got.cif
#   From: 2010.03.12/outbox.cif.g09.slc.cpg/sg92_2_cif.got.tgz:3822.got - 2010.04.08 20:41:11.
