data_PCOD8305729
_publ_section_title
;
Structure prediction by ZEFSAII (Michael W. Deem and Ramdas Pophale) SiO2 
 PCOD8305729
Probable space group: P 42 21 2
;
_chemical_formula_sum "Si O2"
_cell_formula_units_Z 26
_cell_length_a 8.774574
_cell_length_b 8.774574
_cell_length_c 13.541600
_cell_angle_alpha 90.000000
_cell_angle_beta 90.000000
_cell_angle_gamma 90.000000
_cell_volume 1042.610425
_symmetry_space_group_name_H-M "P 42 21 2"
_symmetry_group_IT_number 94
_symmetry_cell_setting 'tetragonal'
loop_
_space_group_symop_operation_xyz
x,y,z
1/2-y,1/2+x,1/2+z
-x,-y,z
1/2+y,1/2-x,1/2+z
1/2+x,1/2-y,1/2-z
1/2-x,1/2+y,1/2-z
y,x,-z
-y,-x,-z
loop_
_atom_site_type_symbol
_atom_site_label
_atom_site_fract_x
_atom_site_fract_y
_atom_site_fract_z
Si Si1 0.681965 0.318036 0.500000
Si Si2 0.647605 0.094873 0.674991
Si Si3 0.153616 0.176795 0.653416
Si Si4 0.500000 0.500000 0.000000
Si Si5 0.661552 0.661552 0.500000
O O1 0.712770 0.197558 0.586413
O O2 0.697609 0.491397 0.536888
O O3 0.598153 0.202026 0.766345
O O4 0.500000 0.000000 0.642677
O O5 0.788030 0.981697 0.702903
O O6 0.301590 0.236274 0.594928
O O7 0.014918 0.146403 0.574448
#
# Coordination Sequence:
#
# PCOD8305729 Si02
#       5
#     4   8   8   2   4
#     4  11  23  46  77 111 154 206 262 326 386 466
#     4  12  26  46  76 113 152 205 263 320 391 470
#     4  11  25  47  71 113 150 208 256 323 390 464
#     4  10  26  46  74 104 160 196 250 318 386 448
#     4  10  22  46  72 106 154 204 260 322 388 458
#
# _framework density 24.937407
#
# number of rings (size 3 to 8) (size 9 to 14) (size 15 to 20)
#    0.000    0.923    3.077    2.769    4.308    2.462 
#   11.077    0.000    0.000    0.000    0.000    0.000 
#    0.000    0.000    0.000    0.000    0.000    0.000 
#
# Total GULP energy -322200.748846 kJ/mol
# GULP energy per Si atom -12392.336494 kJ/mol
# Density = 2.488065 g / cm^3
# Si number density = 24.937407 Si / 1000 Ang^3
#
#
#
# Elastic Constant Matrix: (Units=GPa)
#
#
# Indices 1 2 3 4 5 6 
#
# 1 111.6632 56.7306 56.1415 0.0000 0.0000 0.0000
# 2 56.7306 111.6647 56.1410 0.0000 0.0000 0.0000
# 3 56.1415 56.1410 144.8331 0.0000 0.0000 0.0000
# 4 0.0000 0.0000 0.0000 30.8116 0.0000 0.0000
# 5 0.0000 0.0000 0.0000 0.0000 30.8118 0.0000
# 6 0.0000 0.0000 0.0000 0.0000 0.0000 45.4861
#
#
#
# Elastic Compliance Matrix: (Units=1/GPa)
#
#
# Indices 1 2 3 4 5 6 
#
# 1 0.013106 -0.005098 -0.003104 0.000000 0.000000 0.000000
# 2 -0.005098 0.013106 -0.003104 0.000000 0.000000 0.000000
# 3 -0.003104 -0.003104 0.009311 0.000000 0.000000 0.000000
# 4 0.000000 0.000000 0.000000 0.032455 0.000000 0.000000
# 5 0.000000 0.000000 0.000000 0.000000 0.032455 0.000000
# 6 0.000000 0.000000 0.000000 0.000000 0.000000 0.021985
#
#
# Mechanical properties :
#
#
# Convention : Reuss Voigt Hill
#
# Bulk Modulus (GPa) = 77.45504 78.46524 77.96014
# Shear Modulus (GPa) = 33.48190 34.69844 34.09017
#
# Velocity S-wave (km/s) = 3.66818 3.73422 3.70135
# Velocity P-wave (km/s) = 7.00485 7.07995 7.04250
#
# Compressibility (1/GPa) = 0.01291071
#
# Stress axis : x y z
#
# Youngs Moduli (GPa) = 76.29963 76.30132 107.39908
#
# Poissons Ratio (x) = 0.38897 0.33340
# Poissons Ratio (y) = 0.38896 0.33338
# Poissons Ratio (z) = 0.23686 0.23685
#
# Static dielectric constant tensor:
#      x y z
#    x 4.566330 0.000000 0.000000 
#    y 0.000000 4.566310 0.000000 
#    z 0.000000 0.000000 4.302700 
# 
# 
# High freq. dielectric constant tensor:
#      x y z
#    x 2.001700 0.000000 0.000000 
#    y 0.000000 2.001700 0.000000 
#    z 0.000000 0.000000 1.976200 
# 
# From -- ./inp_files/3122.got.cif
#   From: 2010.03.12/outbox.cif.g09.slc.cpg/sg94_2_cif.got.tgz:3122.got - 2010.04.08 20:48:32.
