data_PCOD8305899
_publ_section_title
;
Structure prediction by ZEFSAII (Michael W. Deem and Ramdas Pophale) SiO2 
 PCOD8305899
Probable space group: P 43 21 2
;
_chemical_formula_sum "Si O2"
_cell_formula_units_Z 60
_cell_length_a 14.320634
_cell_length_b 14.320634
_cell_length_c 15.127613
_cell_angle_alpha 90.000000
_cell_angle_beta 90.000000
_cell_angle_gamma 90.000000
_cell_volume 3102.379318
_symmetry_space_group_name_H-M "P 43 21 2"
_symmetry_group_IT_number 96
_symmetry_cell_setting 'tetragonal'
loop_
_space_group_symop_operation_xyz
x,y,z
1/2-y,1/2+x,3/4+z
-x,-y,1/2+z
1/2+y,1/2-x,1/4+z
1/2+x,1/2-y,1/4-z
1/2-x,1/2+y,3/4-z
y,x,-z
-y,-x,1/2-z
loop_
_atom_site_type_symbol
_atom_site_label
_atom_site_fract_x
_atom_site_fract_y
_atom_site_fract_z
Si Si1 0.020909 0.020909 0.500000
Si Si2 0.694906 0.548514 0.664649
Si Si3 0.427234 0.034790 0.321002
Si Si4 0.410527 0.618377 0.848340
Si Si5 0.063719 0.612253 0.005544
Si Si6 0.947464 0.689866 0.348997
Si Si7 0.242066 0.842619 0.836889
Si Si8 0.040814 0.233501 0.234235
O O1 0.000752 0.130539 0.488450
O O2 0.970574 0.979978 0.588548
O O3 0.801105 0.537500 0.694374
O O4 0.668389 0.658077 0.657399
O O5 0.680777 0.493112 0.572698
O O6 0.475096 0.131682 0.348091
O O7 0.345659 0.053777 0.251137
O O8 0.515299 0.978349 0.284741
O O9 0.373721 0.978328 0.397181
O O10 0.364545 0.635456 0.750000
O O11 0.476119 0.702774 0.884250
O O12 0.332301 0.603166 0.922888
O O13 0.174900 0.600038 0.008743
O O14 0.840483 0.695272 0.381000
O O15 0.213632 0.786369 0.750000
O O16 0.262320 0.951038 0.821721
#
# Coordination Sequence:
#
# PCOD8305899 Si02
#       8
#     4   8   8   8   8   8   8   8
#     4  10  24  42  62  92 132 162 210 276 314 382
#     4  11  23  40  66  92 126 172 218 259 319 388
#     4  10  24  37  61  91 127 168 207 254 327 380
#     4  10  23  39  61  91 128 160 209 267 328 373
#     4  11  21  42  62  93 127 170 211 263 315 388
#     4  11  22  37  60  89 129 165 202 264 315 387
#     4  10  20  34  60  96 119 159 209 261 326 373
#     4  11  21  39  65  89 129 161 217 258 321 381
#
# _framework density 19.339995999999999
#
# number of rings (size 3 to 8) (size 9 to 14) (size 15 to 20)
#    0.400    1.067    4.000    1.200    3.733    2.133 
#    0.000    0.000    0.000    0.000    0.000    0.000 
#    0.000    0.000    0.000    0.000    0.000    0.000 
#
# Total GULP energy -743769.525163 kJ/mol
# GULP energy per Si atom -12396.158753 kJ/mol
# Density = 1.929598 g / cm^3
# Si number density = 19.339996 Si / 1000 Ang^3
#
#
#
# Elastic Constant Matrix: (Units=GPa)
#
#
# Indices 1 2 3 4 5 6 
#
# 1 69.5928 22.1618 27.1921 0.0000 0.0000 0.0000
# 2 22.1618 69.5939 27.1918 0.0000 0.0000 0.0000
# 3 27.1921 27.1918 87.1079 0.0000 0.0000 0.0000
# 4 0.0000 0.0000 0.0000 26.0820 0.0000 0.0000
# 5 0.0000 0.0000 0.0000 0.0000 26.0823 0.0000
# 6 0.0000 0.0000 0.0000 0.0000 0.0000 26.6490
#
#
#
# Elastic Compliance Matrix: (Units=1/GPa)
#
#
# Indices 1 2 3 4 5 6 
#
# 1 0.017228 -0.003855 -0.004175 0.000000 0.000000 0.000000
# 2 -0.003855 0.017228 -0.004174 0.000000 0.000000 0.000000
# 3 -0.004175 -0.004174 0.014086 0.000000 0.000000 0.000000
# 4 0.000000 0.000000 0.000000 0.038341 0.000000 0.000000
# 5 0.000000 0.000000 0.000000 0.000000 0.038340 0.000000
# 6 0.000000 0.000000 0.000000 0.000000 0.000000 0.037525
#
#
# Mechanical properties :
#
#
# Convention : Reuss Voigt Hill
#
# Bulk Modulus (GPa) = 41.43551 42.15400 41.79475
# Shear Modulus (GPa) = 25.61466 25.74592 25.68029
#
# Velocity S-wave (km/s) = 3.64323 3.65256 3.64790
# Velocity P-wave (km/s) = 6.25850 6.29538 6.27697
#
# Compressibility (1/GPa) = 0.02413389
#
# Stress axis : x y z
#
# Youngs Moduli (GPa) = 58.04466 58.04584 70.99110
#
# Poissons Ratio (x) = 0.22377 0.29636
# Poissons Ratio (y) = 0.22377 0.29635
# Poissons Ratio (z) = 0.24231 0.24231
#
# Static dielectric constant tensor:
#      x y z
#    x 3.474090 0.000000 0.000000 
#    y 0.000000 3.474090 0.000000 
#    z 0.000000 0.000000 3.601390 
# 
# 
# High freq. dielectric constant tensor:
#      x y z
#    x 1.750230 0.000000 0.000000 
#    y 0.000000 1.750230 0.000000 
#    z 0.000000 0.000000 1.744780 
# 
# From -- ./inp_files/2806.got.cif
#   From: 2010.03.12/outbox.cif.g09.slc.cpg/sg96_2_cif.got.tgz:2806.got - 2010.04.08 20:56:49.
