data_PCOD8305594
_publ_section_title
;
Structure prediction by ZEFSAII (Michael W. Deem and Ramdas Pophale) SiO2 
 PCOD8305594
Probable space group: P 42 2 2
;
_chemical_formula_sum "Si O2"
_cell_formula_units_Z 32
_cell_length_a 15.705664
_cell_length_b 15.705664
_cell_length_c 7.493233
_cell_angle_alpha 90.000000
_cell_angle_beta 90.000000
_cell_angle_gamma 90.000000
_cell_volume 1848.339911
_symmetry_space_group_name_H-M "P 42 2 2"
_symmetry_group_IT_number 93
_symmetry_cell_setting 'tetragonal'
loop_
_space_group_symop_operation_xyz
x,y,z
-y,x,1/2+z
-x,-y,z
y,-x,1/2+z
x,-y,-z
-x,y,-z
y,x,1/2-z
-y,-x,1/2-z
loop_
_atom_site_type_symbol
_atom_site_label
_atom_site_fract_x
_atom_site_fract_y
_atom_site_fract_z
Si Si1 0.709551 0.163102 0.707122
Si Si2 0.265225 0.131302 0.697440
Si Si3 0.843738 0.973222 0.198862
Si Si4 0.899580 0.596900 0.499960
O O1 0.740152 0.259849 0.750000
O O2 0.696160 0.142022 0.499742
O O3 0.779542 0.104231 0.799702
O O4 0.624149 0.142909 0.813439
O O5 0.215868 0.215868 0.750000
O O6 0.197248 0.052315 0.690417
O O7 0.345120 0.126268 0.830960
O O8 0.938325 0.938325 0.250000
O O9 0.854338 0.000000 0.000000
O O10 0.867994 0.500000 0.500000
O O11 0.000000 0.603353 0.500000
#
# Coordination Sequence:
#
# PCOD8305594 Si02
#       4
#     8   8   8   8
#     4  11  20  36  58  82 109 150 190 229 278 331
#     4  12  21  37  59  79 111 152 192 236 283 328
#     4  11  21  37  52  76 110 149 199 241 279 321
#     4  11  23  40  57  83 118 149 189 238 285 338
#
# _framework density 17.312833000000001
#
# number of rings (size 3 to 8) (size 9 to 14) (size 15 to 20)
#    0.000    0.750    7.500    2.250    0.000    1.500 
#    0.000    8.750    0.000    0.000    0.000    0.000 
#    0.000    3.000    0.000    0.000    0.000    0.000 
#
# Total GULP energy -396465.328712 kJ/mol
# GULP energy per Si atom -12389.541522 kJ/mol
# Density = 1.727343 g / cm^3
# Si number density = 17.312833 Si / 1000 Ang^3
#
#
#
# Elastic Constant Matrix: (Units=GPa)
#
#
# Indices 1 2 3 4 5 6 
#
# 1 92.4478 54.4991 56.6587 0.0000 0.0000 0.0000
# 2 54.4991 92.4461 56.6586 0.0000 0.0000 0.0000
# 3 56.6587 56.6586 153.6504 0.0000 0.0000 0.0000
# 4 0.0000 0.0000 0.0000 16.1938 0.0000 0.0000
# 5 0.0000 0.0000 0.0000 0.0000 16.1946 0.0000
# 6 0.0000 0.0000 0.0000 0.0000 0.0000 15.9337
#
#
#
# Elastic Compliance Matrix: (Units=1/GPa)
#
#
# Indices 1 2 3 4 5 6 
#
# 1 0.017930 -0.008421 -0.003506 0.000000 0.000000 0.000000
# 2 -0.008421 0.017931 -0.003507 0.000000 0.000000 0.000000
# 3 -0.003506 -0.003507 0.009094 0.000000 0.000000 0.000000
# 4 0.000000 0.000000 0.000000 0.061752 0.000000 0.000000
# 5 0.000000 0.000000 0.000000 0.000000 0.061749 0.000000
# 6 0.000000 0.000000 0.000000 0.000000 0.000000 0.062760
#
#
# Mechanical properties :
#
#
# Convention : Reuss Voigt Hill
#
# Bulk Modulus (GPa) = 70.98875 74.90855 72.94865
# Shear Modulus (GPa) = 18.74196 21.04629 19.89412
#
# Velocity S-wave (km/s) = 3.29378 3.49040 3.39351
# Velocity P-wave (km/s) = 7.45371 7.72045 7.58826
#
# Compressibility (1/GPa) = 0.01408674
#
# Stress axis : x y z
#
# Youngs Moduli (GPa) = 55.77119 55.76986 109.95821
#
# Poissons Ratio (x) = 0.46966 0.38557
# Poissons Ratio (y) = 0.46967 0.38558
# Poissons Ratio (z) = 0.19556 0.19556
#
# Static dielectric constant tensor:
#      x y z
#    x 3.391300 0.000000 0.000000 
#    y 0.000000 3.391290 0.000000 
#    z 0.000000 0.000000 3.458850 
# 
# 
# High freq. dielectric constant tensor:
#      x y z
#    x 1.643930 0.000000 0.000000 
#    y 0.000000 1.643930 0.000000 
#    z 0.000000 0.000000 1.690120 
# 
# From -- ./inp_files/1553.got.cif
#   From: 2010.03.12/outbox.cif.g09.slc.cpg/sg93_1_cif.got.tgz:1553.got - 2010.04.08 20:44:19.
