data_PCOD8305903
_publ_section_title
;
Structure prediction by ZEFSAII (Michael W. Deem and Ramdas Pophale) SiO2 
 PCOD8305903
Probable space group: P 43 21 2
;
_chemical_formula_sum "Si O2"
_cell_formula_units_Z 40
_cell_length_a 9.066213
_cell_length_b 9.066213
_cell_length_c 24.555859
_cell_angle_alpha 90.000000
_cell_angle_beta 90.000000
_cell_angle_gamma 90.000000
_cell_volume 2018.398744
_symmetry_space_group_name_H-M "P 43 21 2"
_symmetry_group_IT_number 96
_symmetry_cell_setting 'tetragonal'
loop_
_space_group_symop_operation_xyz
x,y,z
1/2-y,1/2+x,3/4+z
-x,-y,1/2+z
1/2+y,1/2-x,1/4+z
1/2+x,1/2-y,1/4-z
1/2-x,1/2+y,3/4-z
y,x,-z
-y,-x,1/2-z
loop_
_atom_site_type_symbol
_atom_site_label
_atom_site_fract_x
_atom_site_fract_y
_atom_site_fract_z
Si Si1 0.583356 0.948103 0.904951
Si Si2 0.919901 0.863343 0.605534
Si Si3 0.339984 0.965908 0.987118
Si Si4 0.830067 0.596589 0.422138
Si Si5 0.310426 0.325212 0.662504
O O1 0.490248 0.907131 0.959302
O O2 0.678105 0.094458 0.915771
O O3 0.468055 0.986351 0.856889
O O4 0.682889 0.807498 0.887265
O O5 0.009679 0.788837 0.556431
O O6 0.752933 0.805322 0.607652
O O7 0.997830 0.816291 0.662832
O O8 0.922737 0.038961 0.597825
O O9 0.377296 0.125270 0.015092
O O10 0.280156 0.849119 0.031388
#
# Coordination Sequence:
#
# PCOD8305903 Si02
#       5
#     8   8   8   8   8
#     4   9  20  35  53  75 108 136 167 214 262 304
#     4   9  18  33  54  77 103 133 175 213 253 305
#     4   9  18  35  55  77 101 136 177 215 248 301
#     4   9  18  33  52  77 105 135 172 214 255 302
#     4  10  20  36  52  76 107 134 169 214 258 308
#
# _framework density 19.817689999999999
#
# number of rings (size 3 to 8) (size 9 to 14) (size 15 to 20)
#    0.000    3.200    0.000    2.400    0.000    8.000 
#    0.000   10.000    0.000    0.000    0.000    0.000 
#    0.000    0.000    0.000    0.000    0.000    0.000 
#
# Total GULP energy -495648.541849 kJ/mol
# GULP energy per Si atom -12391.213546 kJ/mol
# Density = 1.977258 g / cm^3
# Si number density = 19.817690 Si / 1000 Ang^3
#
#
#
# Elastic Constant Matrix: (Units=GPa)
#
#
# Indices 1 2 3 4 5 6 
#
# 1 59.2555 34.1409 11.7003 0.0000 0.0000 0.0000
# 2 34.1409 59.2555 11.7003 0.0000 0.0000 0.0000
# 3 11.7003 11.7003 51.1757 0.0000 0.0000 0.0000
# 4 0.0000 0.0000 0.0000 26.0281 0.0000 0.0000
# 5 0.0000 0.0000 0.0000 0.0000 26.0281 0.0000
# 6 0.0000 0.0000 0.0000 0.0000 0.0000 43.8663
#
#
#
# Elastic Compliance Matrix: (Units=1/GPa)
#
#
# Indices 1 2 3 4 5 6 
#
# 1 0.025588 -0.014230 -0.002597 0.000000 0.000000 0.000000
# 2 -0.014230 0.025588 -0.002597 0.000000 0.000000 0.000000
# 3 -0.002597 -0.002597 0.020728 0.000000 0.000000 0.000000
# 4 0.000000 0.000000 0.000000 0.038420 0.000000 0.000000
# 5 0.000000 0.000000 0.000000 0.000000 0.038420 0.000000
# 6 0.000000 0.000000 0.000000 0.000000 0.000000 0.022797
#
#
# Mechanical properties :
#
#
# Convention : Reuss Voigt Hill
#
# Bulk Modulus (GPa) = 30.25132 31.64108 30.94620
# Shear Modulus (GPa) = 22.58303 26.66083 24.62193
#
# Velocity S-wave (km/s) = 3.37937 3.67182 3.52862
# Velocity P-wave (km/s) = 5.52492 5.82899 5.67899
#
# Compressibility (1/GPa) = 0.03305641
#
# Stress axis : x y z
#
# Youngs Moduli (GPa) = 39.08146 39.08146 48.24417
#
# Poissons Ratio (x) = 0.55613 0.12528
# Poissons Ratio (y) = 0.55613 0.12528
# Poissons Ratio (z) = 0.10148 0.10148
#
# Static dielectric constant tensor:
#      x y z
#    x 3.506240 0.000000 0.000000 
#    y 0.000000 3.506240 0.000000 
#    z 0.000000 0.000000 3.765330 
# 
# 
# High freq. dielectric constant tensor:
#      x y z
#    x 1.756840 0.000000 0.000000 
#    y 0.000000 1.756840 0.000000 
#    z 0.000000 0.000000 1.766060 
# 
# From -- ./inp_files/3819.got.cif
#   From: 2010.03.12/outbox.cif.g09.slc.cpg/sg96_2_cif.got.tgz:3819.got - 2010.04.08 20:56:49.
