data_PCOD8305914
_publ_section_title
;
Structure prediction by ZEFSAII (Michael W. Deem and Ramdas Pophale) SiO2 
 PCOD8305914
Probable space group: P 43 21 2
;
_chemical_formula_sum "Si O2"
_cell_formula_units_Z 56
_cell_length_a 13.947487
_cell_length_b 13.947487
_cell_length_c 15.639810
_cell_angle_alpha 90.000000
_cell_angle_beta 90.000000
_cell_angle_gamma 90.000000
_cell_volume 3042.449675
_symmetry_space_group_name_H-M "P 43 21 2"
_symmetry_group_IT_number 96
_symmetry_cell_setting 'tetragonal'
loop_
_space_group_symop_operation_xyz
x,y,z
1/2-y,1/2+x,3/4+z
-x,-y,1/2+z
1/2+y,1/2-x,1/4+z
1/2+x,1/2-y,1/4-z
1/2-x,1/2+y,3/4-z
y,x,-z
-y,-x,1/2-z
loop_
_atom_site_type_symbol
_atom_site_label
_atom_site_fract_x
_atom_site_fract_y
_atom_site_fract_z
Si Si1 0.834234 0.588592 0.304322
Si Si2 0.845735 0.536185 0.669400
Si Si3 0.127910 0.263904 0.679102
Si Si4 0.173329 0.937799 0.315953
Si Si5 0.186463 0.657564 0.248399
Si Si6 0.946308 0.413292 0.235220
Si Si7 0.204301 0.826402 0.482305
O O1 0.899966 0.671339 0.261398
O O2 0.864667 0.490616 0.257958
O O3 0.849531 0.588184 0.405684
O O4 0.722325 0.615690 0.284758
O O5 0.803271 0.431595 0.685672
O O6 0.845732 0.546493 0.567557
O O7 0.775274 0.616456 0.706546
O O8 0.950949 0.540386 0.712466
O O9 0.117686 0.330423 0.594519
O O10 0.240572 0.232672 0.687342
O O11 0.053391 0.175580 0.676069
O O12 0.089067 0.910934 0.250000
O O13 0.274615 0.900721 0.279355
O O14 0.156755 0.893017 0.409597
O O15 0.287651 0.712349 0.250000
#
# Coordination Sequence:
#
# PCOD8305914 Si02
#       7
#     8   8   8   8   8   8   8
#     4   9  21  35  53  84 112 153 192 244 292 352
#     4  11  22  36  57  89 117 153 198 248 298 360
#     4  10  21  32  55  81 118 144 185 234 295 357
#     4  11  19  33  54  86 114 152 179 239 296 353
#     4  11  20  33  56  87 121 148 181 242 309 351
#     4  10  22  35  57  82 117 152 202 248 290 346
#     4  10  21  34  54  84 117 145 192 234 297 360
#
# _framework density 18.406222
#
# number of rings (size 3 to 8) (size 9 to 14) (size 15 to 20)
#    0.857    0.857    4.286    1.714    8.000    0.571 
#    0.000    0.000    0.000    3.429    0.000    0.000 
#    0.000    0.000    0.000    0.000    0.000    0.000 
#
# Total GULP energy -693906.233816 kJ/mol
# GULP energy per Si atom -12391.182747 kJ/mol
# Density = 1.836433 g / cm^3
# Si number density = 18.406222 Si / 1000 Ang^3
#
#
#
# Elastic Constant Matrix: (Units=GPa)
#
#
# Indices 1 2 3 4 5 6 
#
# 1 51.4065 0.3841 7.9245 0.0000 0.0000 0.0000
# 2 0.3841 51.4070 7.9247 0.0000 0.0000 0.0000
# 3 7.9245 7.9247 117.6836 0.0000 0.0000 0.0000
# 4 0.0000 0.0000 0.0000 22.2627 0.0000 0.0000
# 5 0.0000 0.0000 0.0000 0.0000 22.2625 0.0000
# 6 0.0000 0.0000 0.0000 0.0000 0.0000 31.9786
#
#
#
# Elastic Compliance Matrix: (Units=1/GPa)
#
#
# Indices 1 2 3 4 5 6 
#
# 1 0.019657 0.000058 -0.001328 0.000000 0.000000 0.000000
# 2 0.000058 0.019657 -0.001328 0.000000 0.000000 0.000000
# 3 -0.001328 -0.001328 0.008676 0.000000 0.000000 0.000000
# 4 0.000000 0.000000 0.000000 0.044918 0.000000 0.000000
# 5 0.000000 0.000000 0.000000 0.000000 0.044919 0.000000
# 6 0.000000 0.000000 0.000000 0.000000 0.000000 0.031271
#
#
# Mechanical properties :
#
#
# Convention : Reuss Voigt Hill
#
# Bulk Modulus (GPa) = 23.36704 28.10708 25.73706
# Shear Modulus (GPa) = 26.51714 28.91836 27.71775
#
# Velocity S-wave (km/s) = 3.79972 3.96803 3.88479
# Velocity P-wave (km/s) = 5.65449 6.02472 5.84254
#
# Compressibility (1/GPa) = 0.04279533
#
# Stress axis : x y z
#
# Youngs Moduli (GPa) = 50.87246 50.87287 115.25852
#
# Poissons Ratio (x) = -0.00294 0.15301
# Poissons Ratio (y) = -0.00294 0.15301
# Poissons Ratio (z) = 0.06754 0.06754
#
# Static dielectric constant tensor:
#      x y z
#    x 3.163530 0.000000 0.000000 
#    y 0.000000 3.163530 0.000000 
#    z 0.000000 0.000000 3.605380 
# 
# 
# High freq. dielectric constant tensor:
#      x y z
#    x 1.689500 0.000000 0.000000 
#    y 0.000000 1.689500 0.000000 
#    z 0.000000 0.000000 1.732390 
# 
# From -- ./inp_files/2753.got.cif
#   From: 2010.03.12/outbox.cif.g09.slc.cpg/sg96_2_cif.got.tgz:2753.got - 2010.04.08 20:56:49.
