data_PCOD8305209
_publ_section_title
;
Structure prediction by ZEFSAII (Michael W. Deem and Ramdas Pophale) SiO2 
 PCOD8305209
Probable space group: P 41 21 2
;
_chemical_formula_sum "Si O2"
_cell_formula_units_Z 56
_cell_length_a 18.012704
_cell_length_b 18.012704
_cell_length_c 10.236951
_cell_angle_alpha 90.000000
_cell_angle_beta 90.000000
_cell_angle_gamma 90.000000
_cell_volume 3321.455584
_symmetry_space_group_name_H-M "P 41 21 2"
_symmetry_group_IT_number 92
_symmetry_cell_setting 'tetragonal'
loop_
_space_group_symop_operation_xyz
x,y,z
1/2-y,1/2+x,1/4+z
-x,-y,1/2+z
1/2+y,1/2-x,3/4+z
1/2+x,1/2-y,3/4-z
1/2-x,1/2+y,1/4-z
y,x,-z
-y,-x,1/2-z
loop_
_atom_site_type_symbol
_atom_site_label
_atom_site_fract_x
_atom_site_fract_y
_atom_site_fract_z
Si Si1 0.038553 0.454490 0.157264
Si Si2 0.006005 0.296218 0.862845
Si Si3 0.241907 0.359425 0.003780
Si Si4 0.728263 0.826441 0.260069
Si Si5 0.193786 0.665288 0.000665
Si Si6 0.982741 0.718826 0.655213
Si Si7 0.645305 0.767014 0.013729
O O1 0.009783 0.495769 0.285641
O O2 0.125232 0.466416 0.134559
O O3 0.018683 0.369102 0.174017
O O4 0.945337 0.245501 0.789688
O O5 0.077453 0.301833 0.770838
O O6 0.025420 0.260003 0.002418
O O7 0.191239 0.316802 0.108607
O O8 0.323271 0.323271 0.000000
O O9 0.201845 0.355226 0.864295
O O10 0.801996 0.777007 0.249806
O O11 0.674972 0.813660 0.136634
O O12 0.753431 0.912578 0.266969
O O13 0.154007 0.682242 0.863997
O O14 0.058750 0.751969 0.714223
O O15 0.689488 0.689488 0.000000
#
# Coordination Sequence:
#
# PCOD8305209 Si02
#       7
#     8   8   8   8   8   8   8
#     4  10  20  30  44  70 105 134 161 205 257 310
#     4  11  19  34  50  78 106 138 180 219 259 325
#     4  10  18  33  53  73 103 137 173 216 259 308
#     4  10  18  37  54  77 104 142 180 222 267 320
#     4  10  22  33  54  79 108 139 184 221 260 323
#     4  11  19  34  56  73 101 145 179 217 274 316
#     4  10  22  37  53  79 112 145 185 224 270 330
#
# _framework density 16.860078000000001
#
# number of rings (size 3 to 8) (size 9 to 14) (size 15 to 20)
#    0.000    1.714    4.286    1.714    2.000    1.143 
#    0.000    0.000    0.000    0.857    0.000    0.000 
#    0.000    0.000    0.000    0.000    0.000    0.000 
#
# Total GULP energy -694496.417252 kJ/mol
# GULP energy per Si atom -12401.721737 kJ/mol
# Density = 1.682170 g / cm^3
# Si number density = 16.860078 Si / 1000 Ang^3
#
#
#
# Elastic Constant Matrix: (Units=GPa)
#
#
# Indices 1 2 3 4 5 6 
#
# 1 67.3022 17.5233 19.3189 0.0000 0.0000 0.0000
# 2 17.5233 67.3022 19.3189 0.0000 0.0000 0.0000
# 3 19.3189 19.3189 94.5913 0.0000 0.0000 0.0000
# 4 0.0000 0.0000 0.0000 22.6444 0.0000 0.0000
# 5 0.0000 0.0000 0.0000 0.0000 22.6444 0.0000
# 6 0.0000 0.0000 0.0000 0.0000 0.0000 17.6212
#
#
#
# Elastic Compliance Matrix: (Units=1/GPa)
#
#
# Indices 1 2 3 4 5 6 
#
# 1 0.016543 -0.003545 -0.002655 0.000000 0.000000 0.000000
# 2 -0.003545 0.016543 -0.002655 0.000000 0.000000 0.000000
# 3 -0.002655 -0.002655 0.011656 0.000000 0.000000 0.000000
# 4 0.000000 0.000000 0.000000 0.044161 0.000000 0.000000
# 5 0.000000 0.000000 0.000000 0.000000 0.044161 0.000000
# 6 0.000000 0.000000 0.000000 0.000000 0.000000 0.056750
#
#
# Mechanical properties :
#
#
# Convention : Reuss Voigt Hill
#
# Bulk Modulus (GPa) = 36.99091 37.94644 37.46868
# Shear Modulus (GPa) = 23.09090 24.11765 23.60427
#
# Velocity S-wave (km/s) = 3.70477 3.78624 3.74573
# Velocity P-wave (km/s) = 6.34728 6.45521 6.40147
#
# Compressibility (1/GPa) = 0.02703367
#
# Stress axis : x y z
#
# Youngs Moduli (GPa) = 60.44680 60.44680 85.79157
#
# Poissons Ratio (x) = 0.21431 0.22775
# Poissons Ratio (y) = 0.21431 0.22775
# Poissons Ratio (z) = 0.16047 0.16047
#
# Static dielectric constant tensor:
#      x y z
#    x 3.089680 0.000000 0.000000 
#    y 0.000000 3.089680 0.000000 
#    z 0.000000 0.000000 3.404420 
# 
# 
# High freq. dielectric constant tensor:
#      x y z
#    x 1.631180 0.000000 0.000000 
#    y 0.000000 1.631180 0.000000 
#    z 0.000000 0.000000 1.665970 
# 
# From -- ./inp_files/2329.got.cif
#   From: 2010.03.12/outbox.cif.g09.slc.cpg/sg92_2_cif.got.tgz:2329.got - 2010.04.08 20:41:11.
