data_PCOD8305081
_publ_section_title
;
Structure prediction by ZEFSAII (Michael W. Deem and Ramdas Pophale) SiO2 
 PCOD8305081
Probable space group: P 41 2 2
;
_chemical_formula_sum "Si O2"
_cell_formula_units_Z 56
_cell_length_a 11.798019
_cell_length_b 11.798019
_cell_length_c 17.344257
_cell_angle_alpha 90.000000
_cell_angle_beta 90.000000
_cell_angle_gamma 90.000000
_cell_volume 2414.203541
_symmetry_space_group_name_H-M "P 41 2 2"
_symmetry_group_IT_number 91
_symmetry_cell_setting 'tetragonal'
loop_
_space_group_symop_operation_xyz
x,y,z
-y,x,1/4+z
-x,-y,1/2+z
y,-x,3/4+z
x,-y,1/2-z
-x,y,-z
y,x,3/4-z
-y,-x,1/4-z
loop_
_atom_site_type_symbol
_atom_site_label
_atom_site_fract_x
_atom_site_fract_y
_atom_site_fract_z
Si Si1 0.963333 0.240636 0.413080
Si Si2 0.153083 0.474228 0.586824
Si Si3 0.251367 0.902598 0.921366
Si Si4 0.679112 0.829797 0.918879
Si Si5 0.545964 0.181901 0.333503
Si Si6 0.674946 0.397846 0.302169
Si Si7 0.151976 0.305833 0.820533
O O1 0.922562 0.366869 0.394966
O O2 0.869721 0.145204 0.392809
O O3 0.000000 0.221375 0.500000
O O4 0.073071 0.233046 0.359382
O O5 0.139645 0.496484 0.496895
O O6 0.280521 0.447279 0.616329
O O7 0.110495 0.580880 0.636210
O O8 0.339115 0.887076 0.851046
O O9 0.240402 0.034147 0.947921
O O10 0.300919 0.822204 0.989568
O O11 0.714583 0.714583 0.875000
O O12 0.546352 0.845293 0.899557
O O13 0.572799 0.314857 0.323094
O O14 0.626726 0.500000 0.250000
O O15 0.778859 0.334678 0.257159
O O16 0.230724 0.230724 0.875000
#
# Coordination Sequence:
#
# PCOD8305081 Si02
#       7
#     8   8   8   8   8   8   8
#     4  12  23  45  72  95 133 192 239 277 356 439
#     4  11  22  43  75 100 132 189 233 285 354 429
#     4  12  27  44  69 107 142 183 239 304 356 426
#     4  12  26  46  68  99 142 186 237 293 358 433
#     4  12  24  45  71 103 139 183 241 296 347 431
#     4  10  23  45  72 101 147 188 235 292 365 435
#     4  11  24  45  70 107 143 180 235 305 361 421
#
# _framework density 23.196055999999999
#
# number of rings (size 3 to 8) (size 9 to 14) (size 15 to 20)
#    0.000    0.571    5.714    2.143    0.000    2.857 
#    2.571    0.000    0.000    0.000    0.000    0.000 
#    0.000    0.000    0.000    0.000    0.000    0.000 
#
# Total GULP energy -694358.858699 kJ/mol
# GULP energy per Si atom -12399.265334 kJ/mol
# Density = 2.314326 g / cm^3
# Si number density = 23.196056 Si / 1000 Ang^3
#
#
#
# Elastic Constant Matrix: (Units=GPa)
#
#
# Indices 1 2 3 4 5 6 
#
# 1 95.1481 43.2337 3.2990 0.0000 0.0000 0.0000
# 2 43.2337 95.1481 3.2990 0.0000 0.0000 0.0000
# 3 3.2990 3.2990 69.0104 0.0000 0.0000 0.0000
# 4 0.0000 0.0000 0.0000 24.4494 0.0000 0.0000
# 5 0.0000 0.0000 0.0000 0.0000 24.4494 0.0000
# 6 0.0000 0.0000 0.0000 0.0000 0.0000 28.6143
#
#
#
# Elastic Compliance Matrix: (Units=1/GPa)
#
#
# Indices 1 2 3 4 5 6 
#
# 1 0.013253 -0.006010 -0.000346 0.000000 0.000000 0.000000
# 2 -0.006010 0.013253 -0.000346 0.000000 0.000000 0.000000
# 3 -0.000346 -0.000346 0.014524 0.000000 0.000000 0.000000
# 4 0.000000 0.000000 0.000000 0.040901 0.000000 0.000000
# 5 0.000000 0.000000 0.000000 0.000000 0.040901 0.000000
# 6 0.000000 0.000000 0.000000 0.000000 0.000000 0.034948
#
#
# Mechanical properties :
#
#
# Convention : Reuss Voigt Hill
#
# Bulk Modulus (GPa) = 36.19975 39.88554 38.04264
# Shear Modulus (GPa) = 27.71761 29.46763 28.59262
#
# Velocity S-wave (km/s) = 3.46052 3.56810 3.51472
# Velocity P-wave (km/s) = 5.62199 5.84871 5.73647
#
# Compressibility (1/GPa) = 0.02762450
#
# Stress axis : x y z
#
# Youngs Moduli (GPa) = 75.45640 75.45640 68.85309
#
# Poissons Ratio (x) = 0.45348 0.02384
# Poissons Ratio (y) = 0.45348 0.02384
# Poissons Ratio (z) = 0.02613 0.02613
#
# Static dielectric constant tensor:
#      x y z
#    x 4.185240 0.000000 0.000000 
#    y 0.000000 4.185240 0.000000 
#    z 0.000000 0.000000 4.164780 
# 
# 
# High freq. dielectric constant tensor:
#      x y z
#    x 1.913380 0.000000 0.000000 
#    y 0.000000 1.913380 0.000000 
#    z 0.000000 0.000000 1.918230 
# 
# From -- ./inp_files/21530.got.cif
#   From: 2010.03.12/outbox.cif.g09.slc.cpg/sg91_11_cif.got.tgz:21530.got - 2010.04.08 20:27:58.
