data_PCOD8305162
_publ_section_title
;
Structure prediction by ZEFSAII (Michael W. Deem and Ramdas Pophale) SiO2 
 PCOD8305162
Probable space group: P 41 2 2
;
_chemical_formula_sum "Si O2"
_cell_formula_units_Z 56
_cell_length_a 13.813581
_cell_length_b 13.813581
_cell_length_c 12.281870
_cell_angle_alpha 90.000000
_cell_angle_beta 90.000000
_cell_angle_gamma 90.000000
_cell_volume 2343.565270
_symmetry_space_group_name_H-M "P 41 2 2"
_symmetry_group_IT_number 91
_symmetry_cell_setting 'tetragonal'
loop_
_space_group_symop_operation_xyz
x,y,z
-y,x,1/4+z
-x,-y,1/2+z
y,-x,3/4+z
x,-y,1/2-z
-x,y,-z
y,x,3/4-z
-y,-x,1/4-z
loop_
_atom_site_type_symbol
_atom_site_label
_atom_site_fract_x
_atom_site_fract_y
_atom_site_fract_z
Si Si1 0.916011 0.441766 0.068961
Si Si2 0.764753 0.847335 0.637934
Si Si3 0.336167 0.490015 0.372258
Si Si4 0.015401 0.150688 0.118068
Si Si5 0.660142 0.998800 0.515620
Si Si6 0.337554 0.277439 0.759094
Si Si7 0.379050 0.152901 0.308534
O O1 0.951030 0.427306 0.194641
O O2 0.823420 0.382549 0.038612
O O3 0.903871 0.553092 0.029882
O O4 0.000000 0.391762 0.000000
O O5 0.874485 0.886603 0.634651
O O6 0.687896 0.930771 0.614219
O O7 0.745256 0.762015 0.551984
O O8 0.729137 0.825042 0.761291
O O9 0.299554 0.500000 0.250000
O O10 0.442631 0.442631 0.375000
O O11 0.342078 0.594398 0.431239
O O12 0.259257 0.422771 0.431417
O O13 0.002455 0.239195 0.199529
O O14 0.939713 0.060288 0.125000
O O15 0.000000 0.196245 0.000000
O O16 0.626146 0.099357 0.572902
O O17 0.329393 0.329393 0.875000
#
# Coordination Sequence:
#
# PCOD8305162 Si02
#       7
#     8   8   8   8   8   8   8
#     4  11  24  45  72 107 151 188 256 321 385 458
#     4  12  25  48  74 105 158 195 265 318 383 474
#     4  11  27  51  78 111 157 199 258 326 404 489
#     4  12  27  48  74 111 152 210 260 313 385 466
#     4  12  25  45  76 103 154 199 251 326 385 467
#     4  11  24  48  79 114 145 204 260 326 397 469
#     4  11  29  46  71 115 144 203 255 314 404 464
#
# _framework density 23.895216999999999
#
# number of rings (size 3 to 8) (size 9 to 14) (size 15 to 20)
#    0.000    0.571    2.857    4.286    8.000    3.429 
#    0.000    1.429    0.000    0.000    0.000    0.000 
#    0.000    0.000    0.000    0.000    0.000    0.000 
#
# Total GULP energy -693773.110417 kJ/mol
# GULP energy per Si atom -12388.805543 kJ/mol
# Density = 2.384083 g / cm^3
# Si number density = 23.895217 Si / 1000 Ang^3
#
#
#
# Elastic Constant Matrix: (Units=GPa)
#
#
# Indices 1 2 3 4 5 6 
#
# 1 81.3892 39.5345 29.3998 0.0000 0.0000 0.0000
# 2 39.5345 81.3896 29.3994 0.0000 0.0000 0.0000
# 3 29.3998 29.3994 87.8874 0.0000 0.0000 0.0000
# 4 0.0000 0.0000 0.0000 47.4056 0.0000 0.0000
# 5 0.0000 0.0000 0.0000 0.0000 47.4053 0.0000
# 6 0.0000 0.0000 0.0000 0.0000 0.0000 33.9327
#
#
#
# Elastic Compliance Matrix: (Units=1/GPa)
#
#
# Indices 1 2 3 4 5 6 
#
# 1 0.016884 -0.007008 -0.003304 0.000000 0.000000 0.000000
# 2 -0.007008 0.016884 -0.003304 0.000000 0.000000 0.000000
# 3 -0.003304 -0.003304 0.013588 0.000000 0.000000 0.000000
# 4 0.000000 0.000000 0.000000 0.021095 0.000000 0.000000
# 5 0.000000 0.000000 0.000000 0.000000 0.021095 0.000000
# 6 0.000000 0.000000 0.000000 0.000000 0.000000 0.029470
#
#
# Mechanical properties :
#
#
# Convention : Reuss Voigt Hill
#
# Bulk Modulus (GPa) = 49.68733 49.70374 49.69554
# Shear Modulus (GPa) = 32.68926 35.90420 34.29673
#
# Velocity S-wave (km/s) = 3.70270 3.88050 3.79264
# Velocity P-wave (km/s) = 6.25451 6.39716 6.32624
#
# Compressibility (1/GPa) = 0.02012585
#
# Stress axis : x y z
#
# Youngs Moduli (GPa) = 59.22707 59.22766 73.59182
#
# Poissons Ratio (x) = 0.41507 0.24313
# Poissons Ratio (y) = 0.41506 0.24312
# Poissons Ratio (z) = 0.19567 0.19566
#
# Static dielectric constant tensor:
#      x y z
#    x 4.403560 0.000000 0.000000 
#    y 0.000000 4.403560 0.000000 
#    z 0.000000 0.000000 4.388250 
# 
# 
# High freq. dielectric constant tensor:
#      x y z
#    x 1.952860 0.000000 0.000000 
#    y 0.000000 1.952860 0.000000 
#    z 0.000000 0.000000 1.962460 
# 
# From -- ./inp_files/15982.got.cif
#   From: 2010.03.12/outbox.cif.g09.slc.cpg/sg91_8_cif.got.tgz:15982.got - 2010.04.08 20:27:58.
