data_PCOD8305399
_publ_section_title
;
Structure prediction by ZEFSAII (Michael W. Deem and Ramdas Pophale) SiO2 
 PCOD8305399
Probable space group: P 41 21 2
;
_chemical_formula_sum "Si O2"
_cell_formula_units_Z 40
_cell_length_a 13.875006
_cell_length_b 13.875006
_cell_length_c 9.327565
_cell_angle_alpha 90.000000
_cell_angle_beta 90.000000
_cell_angle_gamma 90.000000
_cell_volume 1795.703559
_symmetry_space_group_name_H-M "P 41 21 2"
_symmetry_group_IT_number 92
_symmetry_cell_setting 'tetragonal'
loop_
_space_group_symop_operation_xyz
x,y,z
1/2-y,1/2+x,1/4+z
-x,-y,1/2+z
1/2+y,1/2-x,3/4+z
1/2+x,1/2-y,3/4-z
1/2-x,1/2+y,1/4-z
y,x,-z
-y,-x,1/2-z
loop_
_atom_site_type_symbol
_atom_site_label
_atom_site_fract_x
_atom_site_fract_y
_atom_site_fract_z
Si Si1 0.786087 0.786087 0.500000
Si Si2 0.010247 0.099970 0.627259
Si Si3 0.795680 0.931088 0.259677
Si Si4 0.625965 0.763034 0.732578
Si Si5 0.348000 0.348000 0.500000
Si Si6 0.896025 0.492026 0.115306
O O1 0.778619 0.885718 0.415050
O O2 0.694501 0.784534 0.601959
O O3 0.020933 0.020933 0.500000
O O4 0.117609 0.127142 0.682477
O O5 0.963554 0.196617 0.565511
O O6 0.942835 0.057166 0.750000
O O7 0.829354 0.040372 0.281439
O O8 0.697139 0.925168 0.167566
O O9 0.685757 0.710819 0.859790
O O10 0.584611 0.863701 0.791792
O O11 0.975090 0.436319 0.209857
#
# Coordination Sequence:
#
# PCOD8305399 Si02
#       6
#     4   8   8   8   4   8
#     4  12  30  41  74 111 150 190 240 308 350 468
#     4  12  22  44  74 107 146 187 237 301 373 427
#     4  11  26  44  75 110 138 191 245 306 372 433
#     4  11  26  47  71 108 145 192 238 303 364 443
#     4  10  22  47  76  97 146 184 242 304 368 426
#     4  11  28  52  74  99 142 198 247 306 373 453
#
# _framework density 22.275393000000001
#
# number of rings (size 3 to 8) (size 9 to 14) (size 15 to 20)
#    0.000    0.800    6.000    0.000   15.400    0.000 
#    0.000    0.000    0.000    0.000    0.000    0.000 
#    0.000    0.000    0.000    0.000    0.000    0.000 
#
# Total GULP energy -496085.350663 kJ/mol
# GULP energy per Si atom -12402.133767 kJ/mol
# Density = 2.222469 g / cm^3
# Si number density = 22.275393 Si / 1000 Ang^3
#
#
#
# Elastic Constant Matrix: (Units=GPa)
#
#
# Indices 1 2 3 4 5 6 
#
# 1 72.9899 37.4901 48.3753 0.0000 0.0000 0.0000
# 2 37.4901 72.9886 48.3759 0.0000 0.0000 0.0000
# 3 48.3753 48.3759 149.9822 0.0000 0.0000 0.0000
# 4 0.0000 0.0000 0.0000 46.3103 0.0000 0.0000
# 5 0.0000 0.0000 0.0000 0.0000 46.3108 0.0000
# 6 0.0000 0.0000 0.0000 0.0000 0.0000 30.6153
#
#
#
# Elastic Compliance Matrix: (Units=1/GPa)
#
#
# Indices 1 2 3 4 5 6 
#
# 1 0.020392 -0.007778 -0.004069 0.000000 0.000000 0.000000
# 2 -0.007778 0.020392 -0.004069 0.000000 0.000000 0.000000
# 3 -0.004069 -0.004069 0.009292 0.000000 0.000000 0.000000
# 4 0.000000 0.000000 0.000000 0.021593 0.000000 0.000000
# 5 0.000000 0.000000 0.000000 0.000000 0.021593 0.000000
# 6 0.000000 0.000000 0.000000 0.000000 0.000000 0.032663
#
#
# Mechanical properties :
#
#
# Convention : Reuss Voigt Hill
#
# Bulk Modulus (GPa) = 54.80533 62.71593 58.76063
# Shear Modulus (GPa) = 30.51782 35.42859 32.97320
#
# Velocity S-wave (km/s) = 3.70540 3.99241 3.85158
# Velocity P-wave (km/s) = 6.55466 7.03338 6.79823
#
# Compressibility (1/GPa) = 0.01824640
#
# Stress axis : x y z
#
# Youngs Moduli (GPa) = 49.03919 49.03776 107.61776
#
# Poissons Ratio (x) = 0.38139 0.43785
# Poissons Ratio (y) = 0.38140 0.43789
# Poissons Ratio (z) = 0.19952 0.19953
#
# Static dielectric constant tensor:
#      x y z
#    x 3.979380 0.000000 0.000000 
#    y 0.000000 3.979370 0.000000 
#    z 0.000000 0.000000 4.676560 
# 
# 
# High freq. dielectric constant tensor:
#      x y z
#    x 1.870050 0.000000 0.000000 
#    y 0.000000 1.870050 0.000000 
#    z 0.000000 0.000000 1.896280 
# 
# From -- ./inp_files/1367.got.cif
#   From: 2010.03.12/outbox.cif.g09.slc.cpg/sg92_1_cif.got.tgz:1367.got - 2010.04.08 20:41:11.
