data_PCOD8305331
_publ_section_title
;
Structure prediction by ZEFSAII (Michael W. Deem and Ramdas Pophale) SiO2 
 PCOD8305331
Probable space group: P 41 21 2
;
_chemical_formula_sum "Si O2"
_cell_formula_units_Z 48
_cell_length_a 8.594328
_cell_length_b 8.594328
_cell_length_c 27.309724
_cell_angle_alpha 90.000000
_cell_angle_beta 90.000000
_cell_angle_gamma 90.000000
_cell_volume 2017.163773
_symmetry_space_group_name_H-M "P 41 21 2"
_symmetry_group_IT_number 92
_symmetry_cell_setting 'tetragonal'
loop_
_space_group_symop_operation_xyz
x,y,z
1/2-y,1/2+x,1/4+z
-x,-y,1/2+z
1/2+y,1/2-x,3/4+z
1/2+x,1/2-y,3/4-z
1/2-x,1/2+y,1/4-z
y,x,-z
-y,-x,1/2-z
loop_
_atom_site_type_symbol
_atom_site_label
_atom_site_fract_x
_atom_site_fract_y
_atom_site_fract_z
Si Si1 0.154854 0.704555 0.020480
Si Si2 0.973736 0.309661 0.940662
Si Si3 0.873601 0.946783 0.650692
Si Si4 0.612708 0.129045 0.162898
Si Si5 0.086947 0.681291 0.642034
Si Si6 0.751105 0.507988 0.436241
O O1 0.196254 0.889735 0.019782
O O2 0.265651 0.646022 0.063071
O O3 0.979421 0.655462 0.035752
O O4 0.202142 0.643356 0.967325
O O5 0.957668 0.227321 0.887902
O O6 0.900486 0.484403 0.934642
O O7 0.153284 0.340953 0.956913
O O8 0.965732 0.066734 0.686275
O O9 0.986305 0.827352 0.621225
O O10 0.639279 0.943625 0.150309
O O11 0.508563 0.196602 0.119606
O O12 0.765522 0.235343 0.167136
#
# Coordination Sequence:
#
# PCOD8305331 Si02
#       6
#     8   8   8   8   8   8
#     4  11  23  39  65  94 125 175 216 269 324 390
#     4  10  21  41  64  92 128 170 213 276 320 384
#     4  11  19  42  65  92 124 170 222 266 325 383
#     4  11  22  41  60  96 131 168 215 270 332 391
#     4  10  22  37  68  89 124 175 210 263 333 388
#     4  11  22  38  66  93 130 166 222 264 332 392
#
# _framework density 23.79579
#
# number of rings (size 3 to 8) (size 9 to 14) (size 15 to 20)
#    0.000    1.333    5.000    2.500    0.000    2.667 
#    0.000    8.333    0.000    0.000    0.000    0.000 
#    0.000    0.000    0.000    0.000    0.000    0.000 
#
# Total GULP energy -594700.646811 kJ/mol
# GULP energy per Si atom -12389.596809 kJ/mol
# Density = 2.374163 g / cm^3
# Si number density = 23.795790 Si / 1000 Ang^3
#
#
#
# Elastic Constant Matrix: (Units=GPa)
#
#
# Indices 1 2 3 4 5 6 
#
# 1 104.8522 36.4046 -7.5136 0.0000 0.0000 0.0000
# 2 36.4046 104.8522 -7.5136 0.0000 0.0000 0.0000
# 3 -7.5136 -7.5136 15.1148 0.0000 0.0000 0.0000
# 4 0.0000 0.0000 0.0000 17.9484 0.0000 0.0000
# 5 0.0000 0.0000 0.0000 0.0000 17.9484 0.0000
# 6 0.0000 0.0000 0.0000 0.0000 0.0000 47.0929
#
#
#
# Elastic Compliance Matrix: (Units=1/GPa)
#
#
# Indices 1 2 3 4 5 6 
#
# 1 0.011042 -0.003568 0.003716 0.000000 0.000000 0.000000
# 2 -0.003568 0.011042 0.003716 0.000000 0.000000 0.000000
# 3 0.003716 0.003716 0.069854 0.000000 0.000000 0.000000
# 4 0.000000 0.000000 0.000000 0.055715 0.000000 0.000000
# 5 0.000000 0.000000 0.000000 0.000000 0.055715 0.000000
# 6 0.000000 0.000000 0.000000 0.000000 0.000000 0.021235
#
#
# Mechanical properties :
#
#
# Convention : Reuss Voigt Hill
#
# Bulk Modulus (GPa) = 10.03354 29.73047 19.88201
# Shear Modulus (GPa) = 19.99216 30.16073 25.07644
#
# Velocity S-wave (km/s) = 2.90169 3.56403 3.24978
# Velocity P-wave (km/s) = 3.93091 5.42748 4.73865
#
# Compressibility (1/GPa) = 0.09966569
#
# Stress axis : x y z
#
# Youngs Moduli (GPa) = 90.56206 90.56206 14.31554
#
# Poissons Ratio (x) = 0.32309 -0.05319
# Poissons Ratio (y) = 0.32309 -0.05319
# Poissons Ratio (z) = -0.33649 -0.33649
#
# Static dielectric constant tensor:
#      x y z
#    x 4.809010 0.000000 0.000000 
#    y 0.000000 4.809010 0.000000 
#    z 0.000000 0.000000 3.662270 
# 
# 
# High freq. dielectric constant tensor:
#      x y z
#    x 1.953480 0.000000 0.000000 
#    y 0.000000 1.953480 0.000000 
#    z 0.000000 0.000000 1.892430 
# 
# From -- ./inp_files/4474.got.cif
#   From: 2010.03.12/outbox.cif.g09.slc.cpg/sg92_3_cif.got.tgz:4474.got - 2010.04.08 20:41:11.
