data_PCOD8305156
_publ_section_title
;
Structure prediction by ZEFSAII (Michael W. Deem and Ramdas Pophale) SiO2 
 PCOD8305156
Probable space group: P 41 2 2
;
_chemical_formula_sum "Si O2"
_cell_formula_units_Z 48
_cell_length_a 11.034003
_cell_length_b 11.034003
_cell_length_c 16.715070
_cell_angle_alpha 90.000000
_cell_angle_beta 90.000000
_cell_angle_gamma 90.000000
_cell_volume 2035.046772
_symmetry_space_group_name_H-M "P 41 2 2"
_symmetry_group_IT_number 91
_symmetry_cell_setting 'tetragonal'
loop_
_space_group_symop_operation_xyz
x,y,z
-y,x,1/4+z
-x,-y,1/2+z
y,-x,3/4+z
x,-y,1/2-z
-x,y,-z
y,x,3/4-z
-y,-x,1/4-z
loop_
_atom_site_type_symbol
_atom_site_label
_atom_site_fract_x
_atom_site_fract_y
_atom_site_fract_z
Si Si1 0.255618 0.072539 0.411396
Si Si2 0.946551 0.526179 0.084774
Si Si3 0.487705 0.694389 0.594271
Si Si4 0.643047 0.102965 0.421576
Si Si5 0.335320 0.500242 0.341824
Si Si6 0.120060 0.055386 0.669865
O O1 0.188647 0.188647 0.375000
O O2 0.341607 0.005966 0.347907
O O3 0.340415 0.118376 0.483636
O O4 0.157384 0.977261 0.443962
O O5 0.977179 0.421138 0.149805
O O6 0.801788 0.530886 0.095291
O O7 0.000000 0.480961 0.000000
O O8 0.500000 0.732454 0.500000
O O9 0.355083 0.644917 0.625000
O O10 0.582289 0.587719 0.605509
O O11 0.543940 0.199671 0.391199
O O12 0.774300 0.116918 0.381471
O O13 0.372291 0.500000 0.250000
O O14 0.363445 0.363445 0.375000
O O15 0.177908 0.000000 0.750000
O O16 0.053995 0.946006 0.625000
#
# Coordination Sequence:
#
# PCOD8305156 Si02
#       6
#     8   8   8   8   8   8
#     4  11  26  45  76 106 146 193 242 307 371 444
#     4  12  29  46  70 110 149 189 252 304 368 446
#     4  11  25  48  77 104 147 195 248 309 378 446
#     4  12  26  45  70 105 147 196 237 303 377 437
#     4  11  25  44  74 102 141 183 247 306 368 439
#     4  11  23  46  74 107 147 190 246 300 370 448
#
# _framework density 23.586680999999999
#
# number of rings (size 3 to 8) (size 9 to 14) (size 15 to 20)
#    0.000    0.667    1.667    6.000    9.333    2.000 
#    3.000    0.000    0.000    0.000    0.000    0.000 
#    0.000    0.000    0.000    0.000    0.000    0.000 
#
# Total GULP energy -595120.850844 kJ/mol
# GULP energy per Si atom -12398.351059 kJ/mol
# Density = 2.353300 g / cm^3
# Si number density = 23.586681 Si / 1000 Ang^3
#
#
#
# Elastic Constant Matrix: (Units=GPa)
#
#
# Indices 1 2 3 4 5 6 
#
# 1 103.5742 41.8700 25.7940 0.0000 0.0000 0.0000
# 2 41.8700 103.5741 25.7937 0.0000 0.0000 0.0000
# 3 25.7940 25.7937 112.1161 0.0000 0.0000 0.0000
# 4 0.0000 0.0000 0.0000 39.4731 0.0000 0.0000
# 5 0.0000 0.0000 0.0000 0.0000 39.4731 0.0000
# 6 0.0000 0.0000 0.0000 0.0000 0.0000 41.3434
#
#
#
# Elastic Compliance Matrix: (Units=1/GPa)
#
#
# Indices 1 2 3 4 5 6 
#
# 1 0.011846 -0.004360 -0.001722 0.000000 0.000000 0.000000
# 2 -0.004360 0.011846 -0.001722 0.000000 0.000000 0.000000
# 3 -0.001722 -0.001722 0.009712 0.000000 0.000000 0.000000
# 4 0.000000 0.000000 0.000000 0.025334 0.000000 0.000000
# 5 0.000000 0.000000 0.000000 0.000000 0.025334 0.000000
# 6 0.000000 0.000000 0.000000 0.000000 0.000000 0.024188
#
#
# Mechanical properties :
#
#
# Convention : Reuss Voigt Hill
#
# Bulk Modulus (GPa) = 56.19489 56.24222 56.21856
# Shear Modulus (GPa) = 38.52059 39.11171 38.81615
#
# Velocity S-wave (km/s) = 4.04561 4.07653 4.06110
# Velocity P-wave (km/s) = 6.76012 6.78632 6.77323
#
# Compressibility (1/GPa) = 0.01779521
#
# Stress axis : x y z
#
# Youngs Moduli (GPa) = 84.41401 84.41402 102.96729
#
# Poissons Ratio (x) = 0.36804 0.17735
# Poissons Ratio (y) = 0.36804 0.17734
# Poissons Ratio (z) = 0.14539 0.14539
#
# Static dielectric constant tensor:
#      x y z
#    x 4.311710 0.000000 0.000000 
#    y 0.000000 4.311710 0.000000 
#    z 0.000000 0.000000 4.175670 
# 
# 
# High freq. dielectric constant tensor:
#      x y z
#    x 1.941720 0.000000 0.000000 
#    y 0.000000 1.941720 0.000000 
#    z 0.000000 0.000000 1.935380 
# 
# From -- ./inp_files/5614.got.cif
#   From: 2010.03.12/outbox.cif.g09.slc.cpg/sg91_3_cif.got.tgz:5614.got - 2010.04.08 20:27:58.
