data_PCOD8305374
_publ_section_title
;
Structure prediction by ZEFSAII (Michael W. Deem and Ramdas Pophale) SiO2 
 PCOD8305374
Probable space group: P 41 21 2
;
_chemical_formula_sum "Si O2"
_cell_formula_units_Z 28
_cell_length_a 8.475805
_cell_length_b 8.475805
_cell_length_c 20.221352
_cell_angle_alpha 90.000000
_cell_angle_beta 90.000000
_cell_angle_gamma 90.000000
_cell_volume 1452.687174
_symmetry_space_group_name_H-M "P 41 21 2"
_symmetry_group_IT_number 92
_symmetry_cell_setting 'tetragonal'
loop_
_space_group_symop_operation_xyz
x,y,z
1/2-y,1/2+x,1/4+z
-x,-y,1/2+z
1/2+y,1/2-x,3/4+z
1/2+x,1/2-y,3/4-z
1/2-x,1/2+y,1/4-z
y,x,-z
-y,-x,1/2-z
loop_
_atom_site_type_symbol
_atom_site_label
_atom_site_fract_x
_atom_site_fract_y
_atom_site_fract_z
Si Si1 0.420599 0.173316 0.492100
Si Si2 0.497650 0.028237 0.867995
Si Si3 0.489818 0.489818 0.000000
Si Si4 0.727948 0.722198 0.572759
O O1 0.241683 0.241683 0.500000
O O2 0.448840 0.038310 0.547073
O O3 0.542088 0.321091 0.499511
O O4 0.446874 0.103481 0.419513
O O5 0.634919 0.156768 0.863957
O O6 0.339755 0.116047 0.891281
O O7 0.406655 0.414247 0.064955
O O8 0.781447 0.781447 0.500000
#
# Coordination Sequence:
#
# PCOD8305374 Si02
#       4
#     8   8   4   8
#     4  10  24  38  67  93 125 167 210 273 311 381
#     4  12  22  44  64  94 129 172 215 260 334 376
#     4   8  20  40  60  96 122 160 210 270 306 384
#     4  10  22  41  63  93 127 172 211 265 314 391
#
# _framework density 19.274626000000001
#
# number of rings (size 3 to 8) (size 9 to 14) (size 15 to 20)
#    1.714    0.000    2.857    1.714    4.000    0.000 
#    0.000    1.429    0.000    0.000    0.000    0.000 
#    0.000    0.000    0.000    0.000    0.000    0.000 
#
# Total GULP energy -346996.474256 kJ/mol
# GULP energy per Si atom -12392.731223 kJ/mol
# Density = 1.923076 g / cm^3
# Si number density = 19.274626 Si / 1000 Ang^3
#
#
#
# Elastic Constant Matrix: (Units=GPa)
#
#
# Indices 1 2 3 4 5 6 
#
# 1 50.1918 18.8084 10.4113 0.0000 0.0000 0.0000
# 2 18.8084 50.1918 10.4113 0.0000 0.0000 0.0000
# 3 10.4113 10.4113 76.1336 0.0000 0.0000 0.0000
# 4 0.0000 0.0000 0.0000 31.1642 0.0000 0.0000
# 5 0.0000 0.0000 0.0000 0.0000 31.1642 0.0000
# 6 0.0000 0.0000 0.0000 0.0000 0.0000 45.1914
#
#
#
# Elastic Compliance Matrix: (Units=1/GPa)
#
#
# Indices 1 2 3 4 5 6 
#
# 1 0.023490 -0.008374 -0.002067 0.000000 0.000000 0.000000
# 2 -0.008374 0.023490 -0.002067 0.000000 0.000000 0.000000
# 3 -0.002067 -0.002067 0.013700 0.000000 0.000000 0.000000
# 4 0.000000 0.000000 0.000000 0.032088 0.000000 0.000000
# 5 0.000000 0.000000 0.000000 0.000000 0.032088 0.000000
# 6 0.000000 0.000000 0.000000 0.000000 0.000000 0.022128
#
#
# Mechanical properties :
#
#
# Convention : Reuss Voigt Hill
#
# Bulk Modulus (GPa) = 28.03907 28.41989 28.22948
# Shear Modulus (GPa) = 27.19025 30.62970 28.90997
#
# Velocity S-wave (km/s) = 3.75997 3.99070 3.87705
# Velocity P-wave (km/s) = 5.78174 6.00092 5.89235
#
# Compressibility (1/GPa) = 0.03566452
#
# Stress axis : x y z
#
# Youngs Moduli (GPa) = 42.57080 42.57080 72.99177
#
# Poissons Ratio (x) = 0.35648 0.15089
# Poissons Ratio (y) = 0.35648 0.15089
# Poissons Ratio (z) = 0.08800 0.08800
#
# Static dielectric constant tensor:
#      x y z
#    x 3.293800 0.000000 0.000000 
#    y 0.000000 3.293800 0.000000 
#    z 0.000000 0.000000 3.318910 
# 
# 
# High freq. dielectric constant tensor:
#      x y z
#    x 1.739130 0.000000 0.000000 
#    y 0.000000 1.739130 0.000000 
#    z 0.000000 0.000000 1.747510 
# 
# From -- ./inp_files/3300.got.cif
#   From: 2010.03.12/outbox.cif.g09.slc.cpg/sg92_2_cif.got.tgz:3300.got - 2010.04.08 20:41:11.
