data_PCOD8305612
_publ_section_title
;
Structure prediction by ZEFSAII (Michael W. Deem and Ramdas Pophale) SiO2 
 PCOD8305612
Probable space group: P 42 2 2
;
_chemical_formula_sum "Si O2"
_cell_formula_units_Z 26
_cell_length_a 7.845323
_cell_length_b 7.845323
_cell_length_c 19.274854
_cell_angle_alpha 90.000000
_cell_angle_beta 90.000000
_cell_angle_gamma 90.000000
_cell_volume 1186.349781
_symmetry_space_group_name_H-M "P 42 2 2"
_symmetry_group_IT_number 93
_symmetry_cell_setting 'tetragonal'
loop_
_space_group_symop_operation_xyz
x,y,z
-y,x,1/2+z
-x,-y,z
y,-x,1/2+z
x,-y,-z
-x,y,-z
y,x,1/2-z
-y,-x,1/2-z
loop_
_atom_site_type_symbol
_atom_site_label
_atom_site_fract_x
_atom_site_fract_y
_atom_site_fract_z
Si Si1 0.663726 0.166796 0.873979
Si Si2 0.205279 0.687118 0.325522
Si Si3 0.204331 0.991577 0.421746
Si Si4 0.500000 0.000000 0.000000
O O1 0.503015 0.275083 0.844975
O O2 0.841281 0.271120 0.878342
O O3 0.686294 0.999968 0.825827
O O4 0.624579 0.112651 0.953180
O O5 0.268564 0.731437 0.250000
O O6 0.272639 0.823319 0.382567
O O7 0.276908 0.000000 0.500000
O O8 0.000000 0.000000 0.421408
#
# Coordination Sequence:
#
# PCOD8305612 Si02
#       4
#     8   8   8   2
#     4   9  16  25  41  65  96 140 178 219 281 329
#     4   9  17  27  40  64  99 136 176 222 270 330
#     4   9  15  24  41  66  98 135 176 227 282 336
#     4   8  12  24  38  56  92 126 160 216 274 314
#
# _framework density 21.915966000000001
#
# number of rings (size 3 to 8) (size 9 to 14) (size 15 to 20)
#    0.000    3.385    0.000    5.538    0.000    5.538 
#    0.000    0.000    0.000    0.000    0.000   21.538 
#    0.000    2.462    0.000  397.231    0.000    0.000 
#
# Total GULP energy -322105.956750 kJ/mol
# GULP energy per Si atom -12388.690644 kJ/mol
# Density = 2.186608 g / cm^3
# Si number density = 21.915966 Si / 1000 Ang^3
#
#
#
# Elastic Constant Matrix: (Units=GPa)
#
#
# Indices 1 2 3 4 5 6 
#
# 1 120.9534 16.2951 51.8791 0.0000 0.0000 0.0000
# 2 16.2951 120.9531 51.8792 0.0000 0.0000 0.0000
# 3 51.8791 51.8792 168.7919 0.0000 0.0000 0.0000
# 4 0.0000 0.0000 0.0000 7.2344 0.0000 0.0000
# 5 0.0000 0.0000 0.0000 0.0000 7.2350 0.0000
# 6 0.0000 0.0000 0.0000 0.0000 0.0000 -1.7102
#
#
#
# Elastic Compliance Matrix: (Units=1/GPa)
#
#
# Indices 1 2 3 4 5 6 
#
# 1 0.009523 -0.000032 -0.002917 0.000000 0.000000 0.000000
# 2 -0.000032 0.009523 -0.002917 0.000000 0.000000 0.000000
# 3 -0.002917 -0.002917 0.007718 0.000000 0.000000 0.000000
# 4 0.000000 0.000000 0.000000 0.138229 0.000000 0.000000
# 5 0.000000 0.000000 0.000000 0.000000 0.138217 0.000000
# 6 0.000000 0.000000 0.000000 0.000000 0.000000 -0.584716
#
#
# Mechanical properties :
#
#
# Convention : Reuss Voigt Hill
#
# Bulk Modulus (GPa) = 66.52631 72.31170 69.41900
# Shear Modulus (GPa) = -18.88480 21.92817 1.52168
#
# Velocity S-wave (km/s) = -2.93864 3.16659 0.83417
# Velocity P-wave (km/s) = 4.34821 6.81442 5.71591
#
# Compressibility (1/GPa) = 0.01503165
#
# Stress axis : x y z
#
# Youngs Moduli (GPa) = 105.00690 105.00658 129.57182
#
# Poissons Ratio (x) = 0.00333 0.37799
# Poissons Ratio (y) = 0.00333 0.37800
# Poissons Ratio (z) = 0.30633 0.30633
#
# Static dielectric constant tensor:
#      x y z
#    x 3.965540 0.000000 0.000000 
#    y 0.000000 3.965530 0.000000 
#    z 0.000000 0.000000 3.768050 
# 
# 
# High freq. dielectric constant tensor:
#      x y z
#    x 1.828440 0.000000 0.000000 
#    y 0.000000 1.828440 0.000000 
#    z 0.000000 0.000000 1.858400 
# 
# From -- ./inp_files/4895.got.cif
#   From: 2010.03.12/outbox.cif.g09.slc.cpg/sg93_3_cif.got.tgz:4895.got - 2010.04.08 20:44:19.
