data_PCOD8305449
_publ_section_title
;
Structure prediction by ZEFSAII (Michael W. Deem and Ramdas Pophale) SiO2 
 PCOD8305449
Probable space group: P 41 21 2
;
_chemical_formula_sum "Si O2"
_cell_formula_units_Z 44
_cell_length_a 8.437198
_cell_length_b 8.437198
_cell_length_c 27.763482
_cell_angle_alpha 90.000000
_cell_angle_beta 90.000000
_cell_angle_gamma 90.000000
_cell_volume 1976.379839
_symmetry_space_group_name_H-M "P 41 21 2"
_symmetry_group_IT_number 92
_symmetry_cell_setting 'tetragonal'
loop_
_space_group_symop_operation_xyz
x,y,z
1/2-y,1/2+x,1/4+z
-x,-y,1/2+z
1/2+y,1/2-x,3/4+z
1/2+x,1/2-y,3/4-z
1/2-x,1/2+y,1/4-z
y,x,-z
-y,-x,1/2-z
loop_
_atom_site_type_symbol
_atom_site_label
_atom_site_fract_x
_atom_site_fract_y
_atom_site_fract_z
Si Si1 0.187250 0.668111 0.904961
Si Si2 0.075863 0.496624 0.102927
Si Si3 0.179319 0.771962 0.428198
Si Si4 0.394160 0.560631 0.673868
Si Si5 0.749938 0.250063 0.250000
Si Si6 0.318513 0.093884 0.723391
O O1 0.057448 0.528737 0.899031
O O2 0.295754 0.638963 0.860427
O O3 0.293705 0.675820 0.953320
O O4 0.105601 0.842512 0.900721
O O5 0.195913 0.371413 0.127068
O O6 0.173867 0.637757 0.076792
O O7 0.971126 0.404642 0.062410
O O8 0.148402 0.651942 0.472438
O O9 0.064489 0.922242 0.439208
O O10 0.268524 0.593819 0.716713
O O11 0.914422 0.257657 0.278109
#
# Coordination Sequence:
#
# PCOD8305449 Si02
#       6
#     8   8   8   8   4   8
#     4  11  22  43  71 102 137 183 246 289 361 428
#     4  11  26  48  68 112 144 194 237 305 372 430
#     4  11  27  45  73 103 155 180 242 300 373 439
#     4  11  22  42  72 101 136 190 230 305 355 439
#     4  12  22  44  68 102 134 188 256 286 360 428
#     4  12  26  43  75 106 136 198 246 308 354 452
#
# _framework density 22.262927000000001
#
# number of rings (size 3 to 8) (size 9 to 14) (size 15 to 20)
#    0.000    0.727    5.455    2.182    5.091    2.909 
#    0.000    0.000    0.000    0.000    0.000    0.000 
#    0.000    0.000    0.000    0.000    0.000    0.000 
#
# Total GULP energy -545115.527638 kJ/mol
# GULP energy per Si atom -12388.989264 kJ/mol
# Density = 2.221226 g / cm^3
# Si number density = 22.262927 Si / 1000 Ang^3
#
#
#
# Elastic Constant Matrix: (Units=GPa)
#
#
# Indices 1 2 3 4 5 6 
#
# 1 75.4870 26.8485 29.7361 0.0000 0.0000 0.0000
# 2 26.8485 75.4885 29.7366 0.0000 0.0000 0.0000
# 3 29.7361 29.7366 80.2778 0.0000 0.0000 0.0000
# 4 0.0000 0.0000 0.0000 37.6432 0.0000 0.0000
# 5 0.0000 0.0000 0.0000 0.0000 37.6430 0.0000
# 6 0.0000 0.0000 0.0000 0.0000 0.0000 33.9084
#
#
#
# Elastic Compliance Matrix: (Units=1/GPa)
#
#
# Indices 1 2 3 4 5 6 
#
# 1 0.016506 -0.004054 -0.004613 0.000000 0.000000 0.000000
# 2 -0.004054 0.016506 -0.004613 0.000000 0.000000 0.000000
# 3 -0.004613 -0.004613 0.015874 0.000000 0.000000 0.000000
# 4 0.000000 0.000000 0.000000 0.026565 0.000000 0.000000
# 5 0.000000 0.000000 0.000000 0.000000 0.026565 0.000000
# 6 0.000000 0.000000 0.000000 0.000000 0.000000 0.029491
#
#
# Mechanical properties :
#
#
# Convention : Reuss Voigt Hill
#
# Bulk Modulus (GPa) = 44.78629 44.87730 44.83180
# Shear Modulus (GPa) = 30.21009 31.50107 30.85558
#
# Velocity S-wave (km/s) = 3.68770 3.76567 3.72689
# Velocity P-wave (km/s) = 6.18812 6.25369 6.22099
#
# Compressibility (1/GPa) = 0.02232826
#
# Stress axis : x y z
#
# Youngs Moduli (GPa) = 60.58388 60.58494 62.99655
#
# Poissons Ratio (x) = 0.24559 0.29057
# Poissons Ratio (y) = 0.24558 0.29058
# Poissons Ratio (z) = 0.27945 0.27945
#
# Static dielectric constant tensor:
#      x y z
#    x 4.818840 0.000000 0.000000 
#    y 0.000000 4.818860 0.000000 
#    z 0.000000 0.000000 4.218950 
# 
# 
# High freq. dielectric constant tensor:
#      x y z
#    x 1.875760 0.000000 0.000000 
#    y 0.000000 1.875760 0.000000 
#    z 0.000000 0.000000 1.877840 
# 
# From -- ./inp_files/4411.got.cif
#   From: 2010.03.12/outbox.cif.g09.slc.cpg/sg92_3_cif.got.tgz:4411.got - 2010.04.08 20:41:11.
