data_PCOD8305565
_publ_section_title
;
Structure prediction by ZEFSAII (Michael W. Deem and Ramdas Pophale) SiO2 
 PCOD8305565
Probable space group: P 42 2 2
;
_chemical_formula_sum "Si O2"
_cell_formula_units_Z 52
_cell_length_a 21.959815
_cell_length_b 21.959815
_cell_length_c 5.405517
_cell_angle_alpha 90.000000
_cell_angle_beta 90.000000
_cell_angle_gamma 90.000000
_cell_volume 2606.721246
_symmetry_space_group_name_H-M "P 42 2 2"
_symmetry_group_IT_number 93
_symmetry_cell_setting 'tetragonal'
loop_
_space_group_symop_operation_xyz
x,y,z
-y,x,1/2+z
-x,-y,z
y,-x,1/2+z
x,-y,-z
-x,y,-z
y,x,1/2-z
-y,-x,1/2-z
loop_
_atom_site_type_symbol
_atom_site_label
_atom_site_fract_x
_atom_site_fract_y
_atom_site_fract_z
Si Si1 0.635127 0.962548 0.250321
Si Si2 0.163696 0.163696 0.250000
Si Si3 0.565184 0.270021 0.968755
Si Si4 0.437401 0.152217 0.350668
Si Si5 0.217170 0.217170 0.750000
Si Si6 0.654587 0.227326 0.361784
Si Si7 0.037806 0.225699 0.249244
Si Si8 0.323759 0.676242 0.750000
O O1 0.584339 0.909855 0.224341
O O2 0.704534 0.937772 0.262819
O O3 0.620533 0.000000 0.500000
O O4 0.625744 0.000000 0.000000
O O5 0.195752 0.185193 0.500949
O O6 0.092254 0.177385 0.267387
O O7 0.602118 0.263833 0.220484
O O8 0.500000 0.302451 0.000000
O O9 0.552423 0.203857 0.853524
O O10 0.604843 0.314312 0.799380
O O11 0.500000 0.143112 0.500000
O O12 0.379126 0.171014 0.513309
O O13 0.201043 0.289204 0.704005
O O14 0.690853 0.276046 0.533358
O O15 0.000000 0.216315 0.500000
O O16 0.000000 0.211226 0.000000
#
# Coordination Sequence:
#
# PCOD8305565 Si02
#       8
#     8   4   8   8   4   8   8   4
#     4  10  24  42  63  86 122 176 225 270 326 380
#     4  12  25  40  68 105 124 177 219 267 328 396
#     4  11  22  38  61  90 125 170 208 263 343 406
#     4  11  24  39  59  87 124 168 225 280 326 397
#     4  12  24  36  62  98 138 158 218 278 334 396
#     4  11  22  37  58  90 129 165 200 273 348 393
#     4  10  22  43  66  94 134 172 213 266 326 394
#     4  10  21  38  58  88 125 161 207 262 328 409
#
# _framework density 19.948432
#
# number of rings (size 3 to 8) (size 9 to 14) (size 15 to 20)
#    0.000    1.231    3.077    2.308    6.462    1.538 
#    0.000    0.769    0.000    1.385    0.000    7.538 
#    0.000    0.000    0.000    0.000    0.000    0.000 
#
# Total GULP energy -644477.236753 kJ/mol
# GULP energy per Si atom -12393.793014 kJ/mol
# Density = 1.990303 g / cm^3
# Si number density = 19.948432 Si / 1000 Ang^3
#
#
#
# Elastic Constant Matrix: (Units=GPa)
#
#
# Indices 1 2 3 4 5 6 
#
# 1 113.1869 68.1261 40.9189 0.0000 0.0000 0.0000
# 2 68.1261 113.1851 40.9181 0.0000 0.0000 0.0000
# 3 40.9189 40.9181 125.1318 0.0000 0.0000 0.0000
# 4 0.0000 0.0000 0.0000 23.5879 0.0000 0.0000
# 5 0.0000 0.0000 0.0000 0.0000 23.5897 0.0000
# 6 0.0000 0.0000 0.0000 0.0000 0.0000 9.5401
#
#
#
# Elastic Compliance Matrix: (Units=1/GPa)
#
#
# Indices 1 2 3 4 5 6 
#
# 1 0.014331 -0.007861 -0.002116 0.000000 0.000000 0.000000
# 2 -0.007861 0.014332 -0.002116 0.000000 0.000000 0.000000
# 3 -0.002116 -0.002116 0.009375 0.000000 0.000000 0.000000
# 4 0.000000 0.000000 0.000000 0.042395 0.000000 0.000000
# 5 0.000000 0.000000 0.000000 0.000000 0.042391 0.000000
# 6 0.000000 0.000000 0.000000 0.000000 0.000000 0.104821
#
#
# Mechanical properties :
#
#
# Convention : Reuss Voigt Hill
#
# Bulk Modulus (GPa) = 72.18790 72.38110 72.28450
# Shear Modulus (GPa) = 19.49707 24.77957 22.13832
#
# Velocity S-wave (km/s) = 3.12969 3.52828 3.33495
# Velocity P-wave (km/s) = 7.02323 7.27745 7.15147
#
# Compressibility (1/GPa) = 0.01385274
#
# Stress axis : x y z
#
# Youngs Moduli (GPa) = 69.77680 69.77588 106.66286
#
# Poissons Ratio (x) = 0.54852 0.22568
# Poissons Ratio (y) = 0.54853 0.22568
# Poissons Ratio (z) = 0.14764 0.14763
#
# Static dielectric constant tensor:
#      x y z
#    x 3.761140 0.000000 0.000000 
#    y 0.000000 3.761130 0.000000 
#    z 0.000000 0.000000 3.974220 
# 
# 
# High freq. dielectric constant tensor:
#      x y z
#    x 1.767910 0.000000 0.000000 
#    y 0.000000 1.767910 0.000000 
#    z 0.000000 0.000000 1.796780 
# 
# From -- ./inp_files/747.got.cif
#   From: 2010.03.12/outbox.cif.g09.slc.cpg/sg93_1_cif.got.tgz:747.got - 2010.04.08 20:44:19.
