data_PCOD8305602
_publ_section_title
;
Structure prediction by ZEFSAII (Michael W. Deem and Ramdas Pophale) SiO2 
 PCOD8305602
Probable space group: P 42 2 2
;
_chemical_formula_sum "Si O2"
_cell_formula_units_Z 32
_cell_length_a 14.057009
_cell_length_b 14.057009
_cell_length_c 8.138020
_cell_angle_alpha 90.000000
_cell_angle_beta 90.000000
_cell_angle_gamma 90.000000
_cell_volume 1608.068699
_symmetry_space_group_name_H-M "P 42 2 2"
_symmetry_group_IT_number 93
_symmetry_cell_setting 'tetragonal'
loop_
_space_group_symop_operation_xyz
x,y,z
-y,x,1/2+z
-x,-y,z
y,-x,1/2+z
x,-y,-z
-x,y,-z
y,x,1/2-z
-y,-x,1/2-z
loop_
_atom_site_type_symbol
_atom_site_label
_atom_site_fract_x
_atom_site_fract_y
_atom_site_fract_z
Si Si1 0.317811 0.463897 0.818099
Si Si2 0.607305 0.986017 0.307534
Si Si3 0.780287 0.641974 0.327665
Si Si4 0.176686 0.682123 0.298835
O O1 0.412735 0.412735 0.750000
O O2 0.287497 0.551537 0.702934
O O3 0.229357 0.390338 0.826689
O O4 0.339424 0.500000 0.000000
O O5 0.637426 0.881724 0.258278
O O6 0.500000 0.000000 0.246237
O O7 0.617805 0.000000 0.500000
O O8 0.674577 0.063169 0.217370
O O9 0.735315 0.735315 0.250000
O O10 0.789901 0.652473 0.521245
O O11 0.211281 0.788720 0.250000
#
# Coordination Sequence:
#
# PCOD8305602 Si02
#       4
#     8   8   8   8
#     4  11  23  41  60  83 120 163 209 252 303 356
#     4  11  22  39  66  90 121 160 204 252 304 356
#     4  12  24  40  62  90 124 161 204 250 305 362
#     4  11  23  40  63  92 121 157 206 255 303 361
#
# _framework density 19.899646000000001
#
# number of rings (size 3 to 8) (size 9 to 14) (size 15 to 20)
#    0.000    0.750    2.500    7.500    0.000    1.500 
#    0.000    5.000    0.000    0.750    0.000    5.250 
#    0.000    0.000    0.000    0.000    0.000    0.000 
#
# Total GULP energy -396924.470913 kJ/mol
# GULP energy per Si atom -12403.889716 kJ/mol
# Density = 1.985435 g / cm^3
# Si number density = 19.899646 Si / 1000 Ang^3
#
#
#
# Elastic Constant Matrix: (Units=GPa)
#
#
# Indices 1 2 3 4 5 6 
#
# 1 139.2951 87.2427 49.8752 0.0000 0.0000 0.0000
# 2 87.2427 139.2939 49.8752 0.0000 0.0000 0.0000
# 3 49.8752 49.8752 97.4434 0.0000 0.0000 0.0000
# 4 0.0000 0.0000 0.0000 36.7266 0.0000 0.0000
# 5 0.0000 0.0000 0.0000 0.0000 36.7178 0.0000
# 6 0.0000 0.0000 0.0000 0.0000 0.0000 28.9609
#
#
#
# Elastic Compliance Matrix: (Units=1/GPa)
#
#
# Indices 1 2 3 4 5 6 
#
# 1 0.012455 -0.006757 -0.002917 0.000000 0.000000 0.000000
# 2 -0.006757 0.012455 -0.002917 0.000000 0.000000 0.000000
# 3 -0.002917 -0.002917 0.013248 0.000000 0.000000 0.000000
# 4 0.000000 0.000000 0.000000 0.027228 0.000000 0.000000
# 5 0.000000 0.000000 0.000000 0.000000 0.027235 0.000000
# 6 0.000000 0.000000 0.000000 0.000000 0.000000 0.034529
#
#
# Mechanical properties :
#
#
# Convention : Reuss Voigt Hill
#
# Bulk Modulus (GPa) = 77.05135 83.33541 80.19338
# Shear Modulus (GPa) = 31.91687 33.08368 32.50028
#
# Velocity S-wave (km/s) = 4.00921 4.08183 4.04568
# Velocity P-wave (km/s) = 7.76116 8.01148 7.88732
#
# Compressibility (1/GPa) = 0.01297836
#
# Stress axis : x y z
#
# Youngs Moduli (GPa) = 80.28856 80.28777 75.48195
#
# Poissons Ratio (x) = 0.54247 0.22016
# Poissons Ratio (y) = 0.54247 0.22017
# Poissons Ratio (z) = 0.23418 0.23418
#
# Static dielectric constant tensor:
#      x y z
#    x 1.403470 0.000000 0.000000 
#    y 0.000000 1.408650 0.000000 
#    z 0.000000 0.000000 3.624830 
# 
# 
# High freq. dielectric constant tensor:
#      x y z
#    x 1.767450 0.000000 0.000000 
#    y 0.000000 1.767450 0.000000 
#    z 0.000000 0.000000 1.794910 
# 
# From -- ./inp_files/1551.got.cif
#   From: 2010.03.12/outbox.cif.g09.slc.cpg/sg93_1_cif.got.tgz:1551.got - 2010.04.08 20:44:19.
