data_PCOD8305048
_publ_section_title
;
Structure prediction by ZEFSAII (Michael W. Deem and Ramdas Pophale) SiO2 
 PCOD8305048
Probable space group: P 41 2 2
;
_chemical_formula_sum "Si O2"
_cell_formula_units_Z 32
_cell_length_a 8.158925
_cell_length_b 8.158925
_cell_length_c 22.266697
_cell_angle_alpha 90.000000
_cell_angle_beta 90.000000
_cell_angle_gamma 90.000000
_cell_volume 1482.250759
_symmetry_space_group_name_H-M "P 41 2 2"
_symmetry_group_IT_number 91
_symmetry_cell_setting 'tetragonal'
loop_
_space_group_symop_operation_xyz
x,y,z
-y,x,1/4+z
-x,-y,1/2+z
y,-x,3/4+z
x,-y,1/2-z
-x,y,-z
y,x,3/4-z
-y,-x,1/4-z
loop_
_atom_site_type_symbol
_atom_site_label
_atom_site_fract_x
_atom_site_fract_y
_atom_site_fract_z
Si Si1 0.017172 0.982829 0.125000
Si Si2 0.500000 0.790035 0.500000
Si Si3 0.166493 0.238009 0.473697
Si Si4 0.464421 0.331610 0.664133
Si Si5 0.063210 0.332135 0.170772
O O1 0.084866 0.884307 0.182131
O O2 0.823954 0.965609 0.120867
O O3 0.369026 0.677825 0.463149
O O4 0.583488 0.898183 0.446993
O O5 0.285084 0.369406 0.446231
O O6 0.284907 0.169339 0.523112
O O7 0.000000 0.319436 0.500000
O O8 0.503603 0.496398 0.625000
O O9 0.443939 0.172114 0.622281
#
# Coordination Sequence:
#
# PCOD8305048 Si02
#       5
#     4   4   8   8   8
#     4  10  22  44  68  94 130 182 232 284 334 428
#     4  12  28  42  68 110 140 180 244 296 366 426
#     4  10  22  42  70  98 128 180 237 274 344 418
#     4  12  25  43  71  96 145 181 229 291 366 417
#     4  11  25  42  70  94 140 178 234 288 348 422
#
# _framework density 21.588788999999998
#
# number of rings (size 3 to 8) (size 9 to 14) (size 15 to 20)
#    0.000    1.000    1.250    4.500    8.750    2.000 
#    0.000    0.000    0.000    0.000    0.000    0.000 
#    0.000    0.000    0.000    0.000    0.000    0.000 
#
# Total GULP energy -396490.383374 kJ/mol
# GULP energy per Si atom -12390.324480 kJ/mol
# Density = 2.153965 g / cm^3
# Si number density = 21.588789 Si / 1000 Ang^3
#
#
#
# Elastic Constant Matrix: (Units=GPa)
#
#
# Indices 1 2 3 4 5 6 
#
# 1 105.3926 55.3936 43.9364 0.0000 0.0000 0.0000
# 2 55.3936 105.3921 43.9363 0.0000 0.0000 0.0000
# 3 43.9364 43.9363 95.9320 0.0000 0.0000 0.0000
# 4 0.0000 0.0000 0.0000 137.4919 0.0000 0.0000
# 5 0.0000 0.0000 0.0000 0.0000 137.4864 0.0000
# 6 0.0000 0.0000 0.0000 0.0000 0.0000 29.6253
#
#
#
# Elastic Compliance Matrix: (Units=1/GPa)
#
#
# Indices 1 2 3 4 5 6 
#
# 1 0.014148 -0.005852 -0.003799 0.000000 0.000000 0.000000
# 2 -0.005852 0.014148 -0.003800 0.000000 0.000000 0.000000
# 3 -0.003799 -0.003800 0.013904 0.000000 0.000000 0.000000
# 4 0.000000 0.000000 0.000000 0.007273 0.000000 0.000000
# 5 0.000000 0.000000 0.000000 0.000000 0.007273 0.000000
# 6 0.000000 0.000000 0.000000 0.000000 0.000000 0.033755
#
#
# Mechanical properties :
#
#
# Convention : Reuss Voigt Hill
#
# Bulk Modulus (GPa) = 65.36698 65.91661 65.64179
# Shear Modulus (GPa) = 40.81489 71.81741 56.31615
#
# Velocity S-wave (km/s) = 4.35277 5.77393 5.11297
# Velocity P-wave (km/s) = 7.45695 8.66315 8.08258
#
# Compressibility (1/GPa) = 0.01529824
#
# Stress axis : x y z
#
# Youngs Moduli (GPa) = 70.68042 70.68009 71.91994
#
# Poissons Ratio (x) = 0.41364 0.27326
# Poissons Ratio (y) = 0.41364 0.27326
# Poissons Ratio (z) = 0.26855 0.26855
#
# Static dielectric constant tensor:
#      x y z
#    x 3.850240 0.000000 0.000000 
#    y 0.000000 3.850190 0.000000 
#    z 0.000000 0.000000 4.207480 
# 
# 
# High freq. dielectric constant tensor:
#      x y z
#    x 1.853720 0.000000 0.000000 
#    y 0.000000 1.853720 0.000000 
#    z 0.000000 0.000000 1.865000 
# 
# From -- ./inp_files/6071.got.cif
#   From: 2010.03.12/outbox.cif.g09.slc.cpg/sg91_4_cif.got.tgz:6071.got - 2010.04.08 20:27:58.
