data_PCOD8305869
_publ_section_title
;
Structure prediction by ZEFSAII (Michael W. Deem and Ramdas Pophale) SiO2 
 PCOD8305869
Probable space group: P 43 2 2
;
_chemical_formula_sum "Si O2"
_cell_formula_units_Z 32
_cell_length_a 12.058454
_cell_length_b 12.058454
_cell_length_c 10.061728
_cell_angle_alpha 90.000000
_cell_angle_beta 90.000000
_cell_angle_gamma 90.000000
_cell_volume 1463.038770
_symmetry_space_group_name_H-M "P 43 2 2"
_symmetry_group_IT_number 95
_symmetry_cell_setting 'tetragonal'
loop_
_space_group_symop_operation_xyz
x,y,z
-y,x,3/4+z
-x,-y,1/2+z
y,-x,1/4+z
x,-y,1/2-z
-x,y,-z
y,x,1/4-z
-y,-x,3/4-z
loop_
_atom_site_type_symbol
_atom_site_label
_atom_site_fract_x
_atom_site_fract_y
_atom_site_fract_z
Si Si1 0.814766 0.378971 0.602743
Si Si2 0.500000 0.376780 0.000000
Si Si3 0.056665 0.056665 0.125000
Si Si4 0.000000 0.544421 0.500000
Si Si5 0.281739 0.001591 0.469603
Si Si6 0.781824 0.781824 0.125000
O O1 0.707504 0.411155 0.688276
O O2 0.890169 0.476692 0.540432
O O3 0.894112 0.304921 0.692497
O O4 0.760139 0.307848 0.487384
O O5 0.449621 0.449621 0.125000
O O6 0.032934 0.186456 0.118251
O O7 0.997770 0.000000 0.250000
O O8 0.037283 0.613900 0.629638
O O9 0.238261 0.096210 0.567345
#
# Coordination Sequence:
#
# PCOD8305869 Si02
#       6
#     8   4   4   4   8   4
#     4  12  27  49  79 109 155 205 261 331 397 481
#     4  12  32  56  80 114 160 208 280 346 412 470
#     4  12  25  42  70 105 154 192 242 308 399 470
#     4  12  24  50  74 110 146 206 268 312 392 492
#     4  12  25  46  73 112 151 204 254 320 394 494
#     4  12  27  44  76 115 158 194 264 318 409 474
#
# _framework density 21.872285999999999
#
# number of rings (size 3 to 8) (size 9 to 14) (size 15 to 20)
#    0.000    0.000    6.250    2.250    7.000    0.000 
#    0.000    0.000    0.000    0.000    0.000    0.000 
#    0.000    0.000    0.000    0.000    0.000    0.000 
#
# Total GULP energy -396610.865326 kJ/mol
# GULP energy per Si atom -12394.089541 kJ/mol
# Density = 2.182250 g / cm^3
# Si number density = 21.872286 Si / 1000 Ang^3
#
#
#
# Elastic Constant Matrix: (Units=GPa)
#
#
# Indices 1 2 3 4 5 6 
#
# 1 98.3400 53.3743 66.7676 0.0000 0.0000 0.0000
# 2 53.3743 98.3400 66.7676 0.0000 0.0000 0.0000
# 3 66.7676 66.7676 168.7941 0.0000 0.0000 0.0000
# 4 0.0000 0.0000 0.0000 172.9138 0.0000 0.0000
# 5 0.0000 0.0000 0.0000 0.0000 172.9138 0.0000
# 6 0.0000 0.0000 0.0000 0.0000 0.0000 43.2711
#
#
#
# Elastic Compliance Matrix: (Units=1/GPa)
#
#
# Indices 1 2 3 4 5 6 
#
# 1 0.016176 -0.006064 -0.004000 0.000000 0.000000 0.000000
# 2 -0.006064 0.016176 -0.004000 0.000000 0.000000 0.000000
# 3 -0.004000 -0.004000 0.009089 0.000000 0.000000 0.000000
# 4 0.000000 0.000000 0.000000 0.005783 0.000000 0.000000
# 5 0.000000 0.000000 0.000000 0.000000 0.005783 0.000000
# 6 0.000000 0.000000 0.000000 0.000000 0.000000 0.023110
#
#
# Mechanical properties :
#
#
# Convention : Reuss Voigt Hill
#
# Bulk Modulus (GPa) = 75.11361 82.14369 78.62865
# Shear Modulus (GPa) = 46.00635 89.72403 67.86519
#
# Velocity S-wave (km/s) = 4.59127 6.41177 5.57632
# Velocity P-wave (km/s) = 7.90714 9.61520 8.80269
#
# Compressibility (1/GPa) = 0.01331317
#
# Stress axis : x y z
#
# Youngs Moduli (GPa) = 61.82175 61.82175 110.02692
#
# Poissons Ratio (x) = 0.37487 0.44009
# Poissons Ratio (y) = 0.37487 0.44009
# Poissons Ratio (z) = 0.24728 0.24728
#
# Static dielectric constant tensor:
#      x y z
#    x 4.061360 0.000000 0.000000 
#    y 0.000000 4.061360 0.000000 
#    z 0.000000 0.000000 4.454660 
# 
# 
# High freq. dielectric constant tensor:
#      x y z
#    x 1.861060 0.000000 0.000000 
#    y 0.000000 1.861060 0.000000 
#    z 0.000000 0.000000 1.892990 
# 
# From -- ./inp_files/3516.got.cif
#   From: 2010.03.12/outbox.cif.g09.slc.cpg/sg95_2_cif.got.tgz:3516.got - 2010.04.08 20:51:55.
