data_PCOD8305398
_publ_section_title
;
Structure prediction by ZEFSAII (Michael W. Deem and Ramdas Pophale) SiO2 
 PCOD8305398
Probable space group: P 41 21 2
;
_chemical_formula_sum "Si O2"
_cell_formula_units_Z 56
_cell_length_a 15.329744
_cell_length_b 15.329744
_cell_length_c 11.615697
_cell_angle_alpha 90.000000
_cell_angle_beta 90.000000
_cell_angle_gamma 90.000000
_cell_volume 2729.701004
_symmetry_space_group_name_H-M "P 41 21 2"
_symmetry_group_IT_number 92
_symmetry_cell_setting 'tetragonal'
loop_
_space_group_symop_operation_xyz
x,y,z
1/2-y,1/2+x,1/4+z
-x,-y,1/2+z
1/2+y,1/2-x,3/4+z
1/2+x,1/2-y,3/4-z
1/2-x,1/2+y,1/4-z
y,x,-z
-y,-x,1/2-z
loop_
_atom_site_type_symbol
_atom_site_label
_atom_site_fract_x
_atom_site_fract_y
_atom_site_fract_z
Si Si1 0.184553 0.157617 0.127469
Si Si2 0.994586 0.376308 0.559434
Si Si3 0.339074 0.989983 0.688448
Si Si4 0.452044 0.511805 0.381582
Si Si5 0.013276 0.326110 0.806008
Si Si6 0.104848 0.797695 0.669158
Si Si7 0.823090 0.650136 0.718051
O O1 0.094333 0.109537 0.146826
O O2 0.259891 0.087166 0.151140
O O3 0.189565 0.246813 0.198744
O O4 0.193312 0.193312 0.000000
O O5 0.922768 0.451174 0.581630
O O6 0.084010 0.424598 0.529310
O O7 0.976172 0.317271 0.447140
O O8 0.001049 0.312939 0.669018
O O9 0.369383 0.087144 0.717545
O O10 0.254515 0.969907 0.763583
O O11 0.512866 0.512866 0.500000
O O12 0.492826 0.507175 0.250000
O O13 0.394476 0.425480 0.386946
O O14 0.917151 0.314070 0.861122
O O15 0.190904 0.809097 0.750000
O O16 0.126499 0.755367 0.549677
#
# Coordination Sequence:
#
# PCOD8305398 Si02
#       7
#     8   8   8   8   8   8   8
#     4  11  24  42  65  94 135 173 226 273 332 396
#     4  10  23  38  63  91 138 163 209 276 332 393
#     4  11  21  40  64  93 123 174 212 257 332 398
#     4  10  22  46  69  94 129 178 226 281 330 397
#     4  11  24  41  63 100 132 171 219 282 331 394
#     4  11  25  42  66  94 131 170 220 271 321 398
#     4  12  23  39  69  96 125 177 219 262 338 398
#
# _framework density 20.515066999999998
#
# number of rings (size 3 to 8) (size 9 to 14) (size 15 to 20)
#    0.000    1.143    2.857    4.286    6.000    0.000 
#    5.143    3.571    0.000    0.000    0.000    0.000 
#    0.000    0.000    0.000    0.000    0.000    0.000 
#
# Total GULP energy -693878.558384 kJ/mol
# GULP energy per Si atom -12390.688543 kJ/mol
# Density = 2.046837 g / cm^3
# Si number density = 20.515067 Si / 1000 Ang^3
#
#
#
# Elastic Constant Matrix: (Units=GPa)
#
#
# Indices 1 2 3 4 5 6 
#
# 1 60.0481 18.5672 35.1916 0.0000 0.0000 0.0000
# 2 18.5672 60.0486 35.1919 0.0000 0.0000 0.0000
# 3 35.1916 35.1919 135.0039 0.0000 0.0000 0.0000
# 4 0.0000 0.0000 0.0000 55.9431 0.0000 0.0000
# 5 0.0000 0.0000 0.0000 0.0000 55.9352 0.0000
# 6 0.0000 0.0000 0.0000 0.0000 0.0000 28.4225
#
#
#
# Elastic Compliance Matrix: (Units=1/GPa)
#
#
# Indices 1 2 3 4 5 6 
#
# 1 0.020350 -0.003757 -0.004325 0.000000 0.000000 0.000000
# 2 -0.003757 0.020350 -0.004325 0.000000 0.000000 0.000000
# 3 -0.004325 -0.004325 0.009662 0.000000 0.000000 0.000000
# 4 0.000000 0.000000 0.000000 0.017875 0.000000 0.000000
# 5 0.000000 0.000000 0.000000 0.000000 0.017878 0.000000
# 6 0.000000 0.000000 0.000000 0.000000 0.000000 0.035183
#
#
# Mechanical properties :
#
#
# Convention : Reuss Voigt Hill
#
# Bulk Modulus (GPa) = 39.14476 48.11132 43.62804
# Shear Modulus (GPa) = 32.33537 39.13681 35.73609
#
# Velocity S-wave (km/s) = 3.97442 4.37247 4.17819
# Velocity P-wave (km/s) = 6.33906 6.99957 6.67749
#
# Compressibility (1/GPa) = 0.02554620
#
# Stress axis : x y z
#
# Youngs Moduli (GPa) = 49.14019 49.14051 103.49719
#
# Poissons Ratio (x) = 0.18464 0.44764
# Poissons Ratio (y) = 0.18464 0.44764
# Poissons Ratio (z) = 0.21254 0.21254
#
# Static dielectric constant tensor:
#      x y z
#    x 3.625220 0.000000 0.000000 
#    y 0.000000 3.625260 0.000000 
#    z 0.000000 0.000000 4.095450 
# 
# 
# High freq. dielectric constant tensor:
#      x y z
#    x 1.795480 0.000000 0.000000 
#    y 0.000000 1.795480 0.000000 
#    z 0.000000 0.000000 1.822810 
# 
# From -- ./inp_files/2260.got.cif
#   From: 2010.03.12/outbox.cif.g09.slc.cpg/sg92_2_cif.got.tgz:2260.got - 2010.04.08 20:41:11.
