data_PCOD8305362
_publ_section_title
;
Structure prediction by ZEFSAII (Michael W. Deem and Ramdas Pophale) SiO2 
 PCOD8305362
Probable space group: P 41 21 2
;
_chemical_formula_sum "Si O2"
_cell_formula_units_Z 64
_cell_length_a 11.202209
_cell_length_b 11.202209
_cell_length_c 24.342657
_cell_angle_alpha 90.000000
_cell_angle_beta 90.000000
_cell_angle_gamma 90.000000
_cell_volume 3054.747526
_symmetry_space_group_name_H-M "P 41 21 2"
_symmetry_group_IT_number 92
_symmetry_cell_setting 'tetragonal'
loop_
_space_group_symop_operation_xyz
x,y,z
1/2-y,1/2+x,1/4+z
-x,-y,1/2+z
1/2+y,1/2-x,3/4+z
1/2+x,1/2-y,3/4-z
1/2-x,1/2+y,1/4-z
y,x,-z
-y,-x,1/2-z
loop_
_atom_site_type_symbol
_atom_site_label
_atom_site_fract_x
_atom_site_fract_y
_atom_site_fract_z
Si Si1 0.505470 0.048033 0.201893
Si Si2 0.758327 0.871014 0.896261
Si Si3 0.085704 0.191595 0.049208
Si Si4 0.873632 0.199476 0.188493
Si Si5 0.624689 0.836229 0.252034
Si Si6 0.312166 0.845230 0.533562
Si Si7 0.078838 0.362314 0.137692
Si Si8 0.597803 0.526229 0.158879
O O1 0.558470 0.175336 0.187797
O O2 0.398452 0.084458 0.243766
O O3 0.612231 0.973868 0.231308
O O4 0.463706 0.976328 0.147401
O O5 0.776112 0.736801 0.916822
O O6 0.700327 0.882847 0.836510
O O7 0.888288 0.926586 0.899310
O O8 0.145730 0.265044 0.098966
O O9 0.972522 0.270645 0.034035
O O10 0.179919 0.179919 0.000000
O O11 0.030397 0.064997 0.066004
O O12 0.851506 0.148495 0.250000
O O13 0.982749 0.290232 0.176014
O O14 0.883522 0.082830 0.150735
O O15 0.752632 0.774260 0.242611
O O16 0.591365 0.827518 0.316794
O O17 0.209438 0.941278 0.550857
#
# Coordination Sequence:
#
# PCOD8305362 Si02
#       8
#     8   8   8   8   8   8   8   8
#     4  11  23  39  62  93 125 172 216 262 323 395
#     4  11  23  33  61  89 126 159 204 268 313 389
#     4   9  20  39  63  86 119 166 206 258 312 382
#     4  10  22  35  59  89 122 167 204 254 326 387
#     4  10  22  40  64  88 130 163 207 270 320 381
#     4  10  24  39  59  92 128 169 211 266 327 381
#     4  10  22  40  60  90 123 167 219 253 314 395
#     4   9  22  37  55  90 126 154 207 256 324 385
#
# _framework density 20.950997000000001
#
# number of rings (size 3 to 8) (size 9 to 14) (size 15 to 20)
#    0.000    2.000    0.000    3.750   15.750    1.000 
#    0.000    0.000    0.000    0.000    0.000    0.000 
#    0.000    0.000    0.000    0.000    0.000    0.000 
#
# Total GULP energy -792924.337344 kJ/mol
# GULP energy per Si atom -12389.442771 kJ/mol
# Density = 2.090331 g / cm^3
# Si number density = 20.950997 Si / 1000 Ang^3
#
#
#
# Elastic Constant Matrix: (Units=GPa)
#
#
# Indices 1 2 3 4 5 6 
#
# 1 72.6047 20.1981 23.7264 0.0000 0.0000 0.0000
# 2 20.1981 72.6047 23.7263 0.0000 0.0000 0.0000
# 3 23.7264 23.7263 122.8744 0.0000 0.0000 0.0000
# 4 0.0000 0.0000 0.0000 33.1045 0.0000 0.0000
# 5 0.0000 0.0000 0.0000 0.0000 33.1046 0.0000
# 6 0.0000 0.0000 0.0000 0.0000 0.0000 13.1642
#
#
#
# Elastic Compliance Matrix: (Units=1/GPa)
#
#
# Indices 1 2 3 4 5 6 
#
# 1 0.015519 -0.003563 -0.002309 0.000000 0.000000 0.000000
# 2 -0.003563 0.015519 -0.002309 0.000000 0.000000 0.000000
# 3 -0.002309 -0.002309 0.009030 0.000000 0.000000 0.000000
# 4 0.000000 0.000000 0.000000 0.030207 0.000000 0.000000
# 5 0.000000 0.000000 0.000000 0.000000 0.030207 0.000000
# 6 0.000000 0.000000 0.000000 0.000000 0.000000 0.075963
#
#
# Mechanical properties :
#
#
# Convention : Reuss Voigt Hill
#
# Bulk Modulus (GPa) = 42.18087 44.82060 43.50074
# Shear Modulus (GPa) = 24.91177 29.23686 27.07432
#
# Velocity S-wave (km/s) = 3.45200 3.73968 3.59871
# Velocity P-wave (km/s) = 6.00543 6.33138 6.17056
#
# Compressibility (1/GPa) = 0.02370743
#
# Stress axis : x y z
#
# Youngs Moduli (GPa) = 64.43797 64.43800 110.74243
#
# Poissons Ratio (x) = 0.22958 0.25566
# Poissons Ratio (y) = 0.22958 0.25566
# Poissons Ratio (z) = 0.14876 0.14876
#
# Static dielectric constant tensor:
#      x y z
#    x 3.704360 0.000000 0.000000 
#    y 0.000000 3.704360 0.000000 
#    z 0.000000 0.000000 4.121240 
# 
# 
# High freq. dielectric constant tensor:
#      x y z
#    x 1.802620 0.000000 0.000000 
#    y 0.000000 1.802620 0.000000 
#    z 0.000000 0.000000 1.843290 
# 
# From -- ./inp_files/3980.got.cif
#   From: 2010.03.12/outbox.cif.g09.slc.cpg/sg92_2_cif.got.tgz:3980.got - 2010.04.08 20:41:11.
