data_PCOD8305444
_publ_section_title
;
Structure prediction by ZEFSAII (Michael W. Deem and Ramdas Pophale) SiO2 
 PCOD8305444
Probable space group: P 41 21 2
;
_chemical_formula_sum "Si O2"
_cell_formula_units_Z 56
_cell_length_a 12.247354
_cell_length_b 12.247354
_cell_length_c 19.127703
_cell_angle_alpha 90.000000
_cell_angle_beta 90.000000
_cell_angle_gamma 90.000000
_cell_volume 2869.111074
_symmetry_space_group_name_H-M "P 41 21 2"
_symmetry_group_IT_number 92
_symmetry_cell_setting 'tetragonal'
loop_
_space_group_symop_operation_xyz
x,y,z
1/2-y,1/2+x,1/4+z
-x,-y,1/2+z
1/2+y,1/2-x,3/4+z
1/2+x,1/2-y,3/4-z
1/2-x,1/2+y,1/4-z
y,x,-z
-y,-x,1/2-z
loop_
_atom_site_type_symbol
_atom_site_label
_atom_site_fract_x
_atom_site_fract_y
_atom_site_fract_z
Si Si1 0.225131 0.816142 0.994468
Si Si2 0.928494 0.492227 0.538169
Si Si3 0.989211 0.250493 0.563854
Si Si4 0.938513 0.610405 0.680347
Si Si5 0.027708 0.972293 0.750000
Si Si6 0.206429 0.894386 0.844727
Si Si7 0.286681 0.713320 0.750000
Si Si8 0.429602 0.715238 0.534090
O O1 0.211576 0.896754 0.928455
O O2 0.252712 0.696778 0.965647
O O3 0.317311 0.860415 0.045835
O O4 0.113363 0.819412 0.037634
O O5 0.938504 0.581386 0.598694
O O6 0.806197 0.497286 0.508113
O O7 0.955739 0.375993 0.572048
O O8 0.011391 0.515931 0.475758
O O9 0.084975 0.236486 0.507279
O O10 0.027078 0.203742 0.637611
O O11 0.015820 0.714743 0.690335
O O12 0.083217 0.918802 0.818938
O O13 0.899700 0.948364 0.746882
O O14 0.242678 0.774812 0.818710
#
# Coordination Sequence:
#
# PCOD8305444 Si02
#       8
#     8   8   8   8   4   8   4   8
#     4  11  25  41  63  96 136 165 222 263 331 384
#     4  11  24  41  68  93 128 174 226 260 319 384
#     4  11  24  40  64  97 126 170 212 273 319 387
#     4  12  22  43  65  96 131 170 216 274 312 393
#     4  11  26  42  64  91 134 170 216 257 342 384
#     4  11  23  40  65  96 126 170 205 272 330 383
#     4  11  22  38  66  97 124 158 216 267 328 374
#     4  11  24  45  64  91 130 176 213 268 319 390
#
# _framework density 19.518241
#
# number of rings (size 3 to 8) (size 9 to 14) (size 15 to 20)
#    0.000    0.857    7.143    0.000    4.000    0.000 
#    0.000    0.000    0.000    4.286    0.000    0.000 
#    0.000    0.000    0.000    0.000    0.000    0.000 
#
# Total GULP energy -694737.932767 kJ/mol
# GULP energy per Si atom -12406.034514 kJ/mol
# Density = 1.947382 g / cm^3
# Si number density = 19.518241 Si / 1000 Ang^3
#
#
#
# Elastic Constant Matrix: (Units=GPa)
#
#
# Indices 1 2 3 4 5 6 
#
# 1 86.6383 16.8044 13.3015 0.0000 0.0000 0.0000
# 2 16.8044 86.6380 13.3015 0.0000 0.0000 0.0000
# 3 13.3015 13.3015 81.5897 0.0000 0.0000 0.0000
# 4 0.0000 0.0000 0.0000 25.5711 0.0000 0.0000
# 5 0.0000 0.0000 0.0000 0.0000 25.5713 0.0000
# 6 0.0000 0.0000 0.0000 0.0000 0.0000 29.6838
#
#
#
# Elastic Compliance Matrix: (Units=1/GPa)
#
#
# Indices 1 2 3 4 5 6 
#
# 1 0.012205 -0.002115 -0.001645 0.000000 0.000000 0.000000
# 2 -0.002115 0.012205 -0.001645 0.000000 0.000000 0.000000
# 3 -0.001645 -0.001645 0.012793 0.000000 0.000000 0.000000
# 4 0.000000 0.000000 0.000000 0.039107 0.000000 0.000000
# 5 0.000000 0.000000 0.000000 0.000000 0.039106 0.000000
# 6 0.000000 0.000000 0.000000 0.000000 0.000000 0.033688
#
#
# Mechanical properties :
#
#
# Convention : Reuss Voigt Hill
#
# Bulk Modulus (GPa) = 37.88840 37.96454 37.92647
# Shear Modulus (GPa) = 29.63640 30.26248 29.94944
#
# Velocity S-wave (km/s) = 3.90089 3.94187 3.92143
# Velocity P-wave (km/s) = 6.30422 6.34120 6.32274
#
# Compressibility (1/GPa) = 0.02639330
#
# Stress axis : x y z
#
# Youngs Moduli (GPa) = 81.93377 81.93351 78.16887
#
# Poissons Ratio (x) = 0.17327 0.12859
# Poissons Ratio (y) = 0.17327 0.12859
# Poissons Ratio (z) = 0.13478 0.13478
#
# Static dielectric constant tensor:
#      x y z
#    x 3.561750 0.000000 0.000000 
#    y 0.000000 3.561740 0.000000 
#    z 0.000000 0.000000 3.384380 
# 
# 
# High freq. dielectric constant tensor:
#      x y z
#    x 1.763420 0.000000 0.000000 
#    y 0.000000 1.763420 0.000000 
#    z 0.000000 0.000000 1.760250 
# 
# From -- ./inp_files/3589.got.cif
#   From: 2010.03.12/outbox.cif.g09.slc.cpg/sg92_2_cif.got.tgz:3589.got - 2010.04.08 20:41:11.
