data_PCOD8305831
_publ_section_title
;
Structure prediction by ZEFSAII (Michael W. Deem and Ramdas Pophale) SiO2 
 PCOD8305831
Probable space group: P 43 2 2
;
_chemical_formula_sum "Si O2"
_cell_formula_units_Z 56
_cell_length_a 16.629130
_cell_length_b 16.629130
_cell_length_c 11.704442
_cell_angle_alpha 90.000000
_cell_angle_beta 90.000000
_cell_angle_gamma 90.000000
_cell_volume 3236.605523
_symmetry_space_group_name_H-M "P 43 2 2"
_symmetry_group_IT_number 95
_symmetry_cell_setting 'tetragonal'
loop_
_space_group_symop_operation_xyz
x,y,z
-y,x,3/4+z
-x,-y,1/2+z
y,-x,1/4+z
x,-y,1/2-z
-x,y,-z
y,x,1/4-z
-y,-x,3/4-z
loop_
_atom_site_type_symbol
_atom_site_label
_atom_site_fract_x
_atom_site_fract_y
_atom_site_fract_z
Si Si1 0.249432 0.349278 0.198959
Si Si2 0.589177 0.091826 0.025158
Si Si3 0.190495 0.402914 0.747281
Si Si4 0.128204 0.559144 0.977547
Si Si5 0.513989 0.700906 0.714119
Si Si6 0.952353 0.594821 0.393815
Si Si7 0.650805 0.362195 0.148116
O O1 0.270532 0.270532 0.125000
O O2 0.153341 0.353937 0.206119
O O3 0.294833 0.427225 0.145321
O O4 0.280291 0.338577 0.327447
O O5 0.600285 0.004212 0.971812
O O6 0.500000 0.124077 0.000000
O O7 0.605858 0.092607 0.161721
O O8 0.193283 0.500000 0.750000
O O9 0.151824 0.378642 0.624286
O O10 0.134660 0.370120 0.853572
O O11 0.279337 0.364703 0.755443
O O12 0.060386 0.497195 0.933386
O O13 0.208214 0.510857 0.011077
O O14 0.559382 0.662525 0.821233
O O15 0.438643 0.640754 0.699331
O O16 0.000000 0.638560 0.500000
#
# Coordination Sequence:
#
# PCOD8305831 Si02
#       7
#     8   8   8   8   8   8   8
#     4  10  21  34  53  74  96 129 172 232 270 316
#     4  12  19  32  53  76  97 127 167 210 268 321
#     4  10  22  37  47  73  99 131 166 217 280 319
#     4  11  21  35  50  73 102 127 159 217 270 330
#     4  11  20  37  54  68  95 130 184 225 283 313
#     4  11  21  31  54  77 100 122 157 221 268 328
#     4  11  21  37  54  66  95 136 174 237 270 322
#
# _framework density 17.302077000000001
#
# number of rings (size 3 to 8) (size 9 to 14) (size 15 to 20)
#    0.000    1.143    7.143    1.714    2.000    0.571 
#    0.000    5.714    0.000    0.000    0.000    0.000 
#    0.000    0.000    0.000    0.000    0.000    0.000 
#
# Total GULP energy -693858.935842 kJ/mol
# GULP energy per Si atom -12390.338140 kJ/mol
# Density = 1.726270 g / cm^3
# Si number density = 17.302077 Si / 1000 Ang^3
#
#
#
# Elastic Constant Matrix: (Units=GPa)
#
#
# Indices 1 2 3 4 5 6 
#
# 1 63.9894 10.5549 18.0852 0.0000 0.0000 0.0000
# 2 10.5549 63.9894 18.0852 0.0000 0.0000 0.0000
# 3 18.0852 18.0852 96.2799 0.0000 0.0000 0.0000
# 4 0.0000 0.0000 0.0000 21.8733 0.0000 0.0000
# 5 0.0000 0.0000 0.0000 0.0000 21.8733 0.0000
# 6 0.0000 0.0000 0.0000 0.0000 0.0000 6.5361
#
#
#
# Elastic Compliance Matrix: (Units=1/GPa)
#
#
# Indices 1 2 3 4 5 6 
#
# 1 0.016737 -0.001977 -0.002773 0.000000 0.000000 0.000000
# 2 -0.001977 0.016737 -0.002773 0.000000 0.000000 0.000000
# 3 -0.002773 -0.002773 0.011428 0.000000 0.000000 0.000000
# 4 0.000000 0.000000 0.000000 0.045718 0.000000 0.000000
# 5 0.000000 0.000000 0.000000 0.000000 0.045718 0.000000
# 6 0.000000 0.000000 0.000000 0.000000 0.000000 0.152996
#
#
# Mechanical properties :
#
#
# Convention : Reuss Voigt Hill
#
# Bulk Modulus (GPa) = 33.49176 35.30103 34.39640
# Shear Modulus (GPa) = 15.90678 21.89209 18.89944
#
# Velocity S-wave (km/s) = 3.03538 3.56095 3.30861
# Velocity P-wave (km/s) = 5.62884 6.11181 5.87529
#
# Compressibility (1/GPa) = 0.02985809
#
# Stress axis : x y z
#
# Youngs Moduli (GPa) = 59.74668 59.74668 87.50461
#
# Poissons Ratio (x) = 0.11813 0.24261
# Poissons Ratio (y) = 0.11813 0.24261
# Poissons Ratio (z) = 0.16565 0.16565
#
# Static dielectric constant tensor:
#      x y z
#    x 3.050600 0.000000 0.000000 
#    y 0.000000 3.050600 0.000000 
#    z 0.000000 0.000000 3.820770 
# 
# 
# High freq. dielectric constant tensor:
#      x y z
#    x 1.624970 0.000000 0.000000 
#    y 0.000000 1.624970 0.000000 
#    z 0.000000 0.000000 1.697440 
# 
# From -- ./inp_files/4045.got.cif
#   From: 2010.03.12/outbox.cif.g09.slc.cpg/sg95_3_cif.got.tgz:4045.got - 2010.04.08 20:51:55.
