data_PCOD8305509
_publ_section_title
;
Structure prediction by ZEFSAII (Michael W. Deem and Ramdas Pophale) SiO2 
 PCOD8305509
Probable space group: P 42 2 2
;
_chemical_formula_sum "Si O2"
_cell_formula_units_Z 48
_cell_length_a 14.242169
_cell_length_b 14.242169
_cell_length_c 12.167783
_cell_angle_alpha 90.000000
_cell_angle_beta 90.000000
_cell_angle_gamma 90.000000
_cell_volume 2468.105533
_symmetry_space_group_name_H-M "P 42 2 2"
_symmetry_group_IT_number 93
_symmetry_cell_setting 'tetragonal'
loop_
_space_group_symop_operation_xyz
x,y,z
-y,x,1/2+z
-x,-y,z
y,-x,1/2+z
x,-y,-z
-x,y,-z
y,x,1/2-z
-y,-x,1/2-z
loop_
_atom_site_type_symbol
_atom_site_label
_atom_site_fract_x
_atom_site_fract_y
_atom_site_fract_z
Si Si1 0.001127 0.725953 0.797829
Si Si2 0.612888 0.181477 0.678120
Si Si3 0.254681 0.684534 0.591270
Si Si4 0.806472 0.920932 0.077762
Si Si5 0.199884 0.500000 0.500000
Si Si6 0.000000 0.848100 0.000000
Si Si7 0.902009 0.551384 0.721260
O O1 0.916237 0.661150 0.749659
O O2 0.082568 0.661473 0.850583
O O3 0.046047 0.792393 0.703768
O O4 0.959783 0.786882 0.897882
O O5 0.644809 0.260638 0.589802
O O6 0.655141 0.218087 0.790820
O O7 0.499978 0.167999 0.690053
O O8 0.175393 0.754723 0.545601
O O9 0.266665 0.589328 0.522003
O O10 0.916621 0.911009 0.050094
O O11 0.761177 0.000000 0.000000
O O12 0.134197 0.467464 0.599306
O O13 0.000000 0.500000 0.729884
#
# Coordination Sequence:
#
# PCOD8305509 Si02
#       7
#     8   8   8   8   4   4   8
#     4  10  20  36  54  77 109 148 198 257 300 355
#     4   8  15  30  50  73 106 152 178 229 302 357
#     4   9  16  29  50  74 111 146 188 237 289 353
#     4  11  22  36  54  74 106 156 207 254 293 347
#     4  10  17  26  50  86 110 145 192 244 304 351
#     4  12  23  36  55  74 108 160 206 239 299 364
#     4   9  17  29  51  80 112 144 191 251 306 351
#
# _framework density 19.448115999999999
#
# number of rings (size 3 to 8) (size 9 to 14) (size 15 to 20)
#    0.000    2.333    1.667    3.000    0.000    0.667 
#    0.000    5.417    0.000    0.000    0.000    0.000 
#    0.000    2.667   18.000   12.167    0.000    3.167 
#
# Total GULP energy -594636.244360 kJ/mol
# GULP energy per Si atom -12388.255091 kJ/mol
# Density = 1.940385 g / cm^3
# Si number density = 19.448116 Si / 1000 Ang^3
#
#
#
# Elastic Constant Matrix: (Units=GPa)
#
#
# Indices 1 2 3 4 5 6 
#
# 1 107.4096 48.9210 40.0339 0.0000 0.0000 0.0000
# 2 48.9210 107.4096 40.0339 0.0000 0.0000 0.0000
# 3 40.0339 40.0339 78.4317 0.0000 0.0000 0.0000
# 4 0.0000 0.0000 0.0000 24.3746 0.0000 0.0000
# 5 0.0000 0.0000 0.0000 0.0000 24.3746 0.0000
# 6 0.0000 0.0000 0.0000 0.0000 0.0000 21.2616
#
#
#
# Elastic Compliance Matrix: (Units=1/GPa)
#
#
# Indices 1 2 3 4 5 6 
#
# 1 0.012879 -0.004218 -0.004421 0.000000 0.000000 0.000000
# 2 -0.004218 0.012879 -0.004421 0.000000 0.000000 0.000000
# 3 -0.004421 -0.004421 0.017263 0.000000 0.000000 0.000000
# 4 0.000000 0.000000 0.000000 0.041026 0.000000 0.000000
# 5 0.000000 0.000000 0.000000 0.000000 0.041026 0.000000
# 6 0.000000 0.000000 0.000000 0.000000 0.000000 0.047033
#
#
# Mechanical properties :
#
#
# Convention : Reuss Voigt Hill
#
# Bulk Modulus (GPa) = 59.16597 61.24761 60.20679
# Shear Modulus (GPa) = 24.52661 24.95298 24.73980
#
# Velocity S-wave (km/s) = 3.55509 3.58586 3.57051
# Velocity P-wave (km/s) = 6.88041 6.97895 6.92986
#
# Compressibility (1/GPa) = 0.01690161
#
# Stress axis : x y z
#
# Youngs Moduli (GPa) = 77.64500 77.64500 57.92749
#
# Poissons Ratio (x) = 0.32752 0.25609
# Poissons Ratio (y) = 0.32752 0.25609
# Poissons Ratio (z) = 0.34325 0.34325
#
# Static dielectric constant tensor:
#      x y z
#    x 3.898490 0.000000 0.000000 
#    y 0.000000 3.898490 0.000000 
#    z 0.000000 0.000000 -8.423370 
# 
# 
# High freq. dielectric constant tensor:
#      x y z
#    x 1.739440 0.000000 0.000000 
#    y 0.000000 1.739440 0.000000 
#    z 0.000000 0.000000 1.739920 
# 
# From -- ./inp_files/3435.got.cif
#   From: 2010.03.12/outbox.cif.g09.slc.cpg/sg93_2_cif.got.tgz:3435.got - 2010.04.08 20:44:19.
