data_PCOD8305700
_publ_section_title
;
Structure prediction by ZEFSAII (Michael W. Deem and Ramdas Pophale) SiO2 
 PCOD8305700
Probable space group: P 42 21 2
;
_chemical_formula_sum "Si O2"
_cell_formula_units_Z 32
_cell_length_a 13.397055
_cell_length_b 13.397055
_cell_length_c 9.526882
_cell_angle_alpha 90.000000
_cell_angle_beta 90.000000
_cell_angle_gamma 90.000000
_cell_volume 1709.895096
_symmetry_space_group_name_H-M "P 42 21 2"
_symmetry_group_IT_number 94
_symmetry_cell_setting 'tetragonal'
loop_
_space_group_symop_operation_xyz
x,y,z
1/2-y,1/2+x,1/2+z
-x,-y,z
1/2+y,1/2-x,1/2+z
1/2+x,1/2-y,1/2-z
1/2-x,1/2+y,1/2-z
y,x,-z
-y,-x,-z
loop_
_atom_site_type_symbol
_atom_site_label
_atom_site_fract_x
_atom_site_fract_y
_atom_site_fract_z
Si Si1 0.393963 0.048203 0.661535
Si Si2 0.700979 0.154193 0.678703
Si Si3 0.251930 0.597285 0.070527
Si Si4 0.774251 0.617268 0.128233
O O1 0.347619 0.102331 0.525304
O O2 0.410820 0.131114 0.778392
O O3 0.500000 0.000000 0.620108
O O4 0.318296 0.961946 0.718203
O O5 0.634106 0.226981 0.772948
O O6 0.814427 0.191873 0.705831
O O7 0.679532 0.168392 0.512313
O O8 0.285743 0.482477 0.084600
O O9 0.340527 0.659474 0.000000
#
# Coordination Sequence:
#
# PCOD8305700 Si02
#       4
#     8   8   8   8
#     4  11  22  36  62  93 120 154 209 258 306 359
#     4  10  22  37  57  88 125 156 198 254 312 355
#     4  11  22  38  62  89 122 164 201 253 314 373
#     4  10  22  40  58  87 125 159 200 257 307 365
#
# _framework density 18.714597999999999
#
# number of rings (size 3 to 8) (size 9 to 14) (size 15 to 20)
#    0.000    1.500    5.000    0.000    7.000    0.000 
#    0.000   10.000    0.000    0.000    0.000    3.500 
#    0.000    0.000    0.000    0.000    0.000    0.000 
#
# Total GULP energy -396544.915894 kJ/mol
# GULP energy per Si atom -12392.028622 kJ/mol
# Density = 1.867200 g / cm^3
# Si number density = 18.714598 Si / 1000 Ang^3
#
#
#
# Elastic Constant Matrix: (Units=GPa)
#
#
# Indices 1 2 3 4 5 6 
#
# 1 100.8640 63.3495 34.4418 0.0000 0.0000 0.0000
# 2 63.3495 100.8662 34.4426 0.0000 0.0000 0.0000
# 3 34.4418 34.4426 66.0065 0.0000 0.0000 0.0000
# 4 0.0000 0.0000 0.0000 27.2927 0.0000 0.0000
# 5 0.0000 0.0000 0.0000 0.0000 27.2926 0.0000
# 6 0.0000 0.0000 0.0000 0.0000 0.0000 43.0578
#
#
#
# Elastic Compliance Matrix: (Units=1/GPa)
#
#
# Indices 1 2 3 4 5 6 
#
# 1 0.017226 -0.009430 -0.004068 0.000000 0.000000 0.000000
# 2 -0.009430 0.017226 -0.004068 0.000000 0.000000 0.000000
# 3 -0.004068 -0.004068 0.019395 0.000000 0.000000 0.000000
# 4 0.000000 0.000000 0.000000 0.036640 0.000000 0.000000
# 5 0.000000 0.000000 0.000000 0.000000 0.036640 0.000000
# 6 0.000000 0.000000 0.000000 0.000000 0.000000 0.023225
#
#
# Mechanical properties :
#
#
# Convention : Reuss Voigt Hill
#
# Bulk Modulus (GPa) = 53.43157 59.13383 56.28270
# Shear Modulus (GPa) = 26.07951 28.56211 27.32081
#
# Velocity S-wave (km/s) = 3.73706 3.91089 3.82496
# Velocity P-wave (km/s) = 6.87267 7.21524 7.04604
#
# Compressibility (1/GPa) = 0.01871553
#
# Stress axis : x y z
#
# Youngs Moduli (GPa) = 58.05196 58.05297 51.55876
#
# Poissons Ratio (x) = 0.54743 0.20974
# Poissons Ratio (y) = 0.54742 0.20974
# Poissons Ratio (z) = 0.23615 0.23616
#
# Static dielectric constant tensor:
#      x y z
#    x 3.497370 0.000000 0.000000 
#    y 0.000000 3.497370 0.000000 
#    z 0.000000 0.000000 3.545740 
# 
# 
# High freq. dielectric constant tensor:
#      x y z
#    x 1.718600 0.000000 0.000000 
#    y 0.000000 1.718600 0.000000 
#    z 0.000000 0.000000 1.731650 
# 
# From -- ./inp_files/1185.got.cif
#   From: 2010.03.12/outbox.cif.g09.slc.cpg/sg94_1_cif.got.tgz:1185.got - 2010.04.08 20:48:32.
