data_PCOD8305224
_publ_section_title
;
Structure prediction by ZEFSAII (Michael W. Deem and Ramdas Pophale) SiO2 
 PCOD8305224
Probable space group: P 41 21 2
;
_chemical_formula_sum "Si O2"
_cell_formula_units_Z 48
_cell_length_a 8.794224
_cell_length_b 8.794224
_cell_length_c 34.504465
_cell_angle_alpha 90.000000
_cell_angle_beta 90.000000
_cell_angle_gamma 90.000000
_cell_volume 2668.519280
_symmetry_space_group_name_H-M "P 41 21 2"
_symmetry_group_IT_number 92
_symmetry_cell_setting 'tetragonal'
loop_
_space_group_symop_operation_xyz
x,y,z
1/2-y,1/2+x,1/4+z
-x,-y,1/2+z
1/2+y,1/2-x,3/4+z
1/2+x,1/2-y,3/4-z
1/2-x,1/2+y,1/4-z
y,x,-z
-y,-x,1/2-z
loop_
_atom_site_type_symbol
_atom_site_label
_atom_site_fract_x
_atom_site_fract_y
_atom_site_fract_z
Si Si1 0.831445 0.973227 0.225154
Si Si2 0.853190 0.948284 0.094007
Si Si3 0.617083 0.577403 0.279017
Si Si4 0.376830 0.311408 0.592226
Si Si5 0.610444 0.917556 0.292512
Si Si6 0.156300 0.367631 0.713756
O O1 0.682738 0.961709 0.251423
O O2 0.868426 0.810648 0.206410
O O3 0.795970 0.103668 0.193743
O O4 0.978995 0.021005 0.250000
O O5 0.740625 0.814625 0.109326
O O6 0.978808 0.864217 0.067880
O O7 0.923045 0.053316 0.128187
O O8 0.770948 0.072079 0.068015
O O9 0.488961 0.511040 0.250000
O O10 0.570815 0.741349 0.295279
O O11 0.777639 0.593114 0.256534
O O12 0.527477 0.221760 0.577515
O O13 0.446990 0.996096 0.293437
#
# Coordination Sequence:
#
# PCOD8305224 Si02
#       6
#     8   8   8   8   8   8
#     4   9  17  30  49  71  95 123 159 199 240 284
#     4  10  19  32  50  70  96 128 165 199 240 288
#     4   9  18  33  53  75  99 128 163 205 246 291
#     4  10  19  32  49  70  96 128 164 201 238 288
#     4   9  18  32  50  73  99 125 158 201 246 287
#     4   9  17  31  51  73  96 126 163 201 241 288
#
# _framework density 17.987501999999999
#
# number of rings (size 3 to 8) (size 9 to 14) (size 15 to 20)
#    0.000    2.667    0.000    2.000    0.000    4.667 
#    0.000    5.000    0.000    4.000    0.000    0.000 
#    0.000    0.000    0.000    0.000    0.000    0.000 
#
# Total GULP energy -594861.343354 kJ/mol
# GULP energy per Si atom -12392.944653 kJ/mol
# Density = 1.794656 g / cm^3
# Si number density = 17.987502 Si / 1000 Ang^3
#
#
#
# Elastic Constant Matrix: (Units=GPa)
#
#
# Indices 1 2 3 4 5 6 
#
# 1 80.1368 17.0291 15.0586 0.0000 0.0000 0.0000
# 2 17.0291 80.1374 15.0589 0.0000 0.0000 0.0000
# 3 15.0586 15.0589 56.1238 0.0000 0.0000 0.0000
# 4 0.0000 0.0000 0.0000 20.8203 0.0000 0.0000
# 5 0.0000 0.0000 0.0000 0.0000 20.8202 0.0000
# 6 0.0000 0.0000 0.0000 0.0000 0.0000 17.0574
#
#
#
# Elastic Compliance Matrix: (Units=1/GPa)
#
#
# Indices 1 2 3 4 5 6 
#
# 1 0.013536 -0.002310 -0.003012 0.000000 0.000000 0.000000
# 2 -0.002310 0.013535 -0.003012 0.000000 0.000000 0.000000
# 3 -0.003012 -0.003012 0.019434 0.000000 0.000000 0.000000
# 4 0.000000 0.000000 0.000000 0.048030 0.000000 0.000000
# 5 0.000000 0.000000 0.000000 0.000000 0.048030 0.000000
# 6 0.000000 0.000000 0.000000 0.000000 0.000000 0.058625
#
#
# Mechanical properties :
#
#
# Convention : Reuss Voigt Hill
#
# Bulk Modulus (GPa) = 33.51551 34.52124 34.01837
# Shear Modulus (GPa) = 21.94863 23.02301 22.48582
#
# Velocity S-wave (km/s) = 3.49695 3.58151 3.53948
# Velocity P-wave (km/s) = 5.91422 6.02797 5.97137
#
# Compressibility (1/GPa) = 0.02983693
#
# Stress axis : x y z
#
# Youngs Moduli (GPa) = 73.87947 73.87992 51.45618
#
# Poissons Ratio (x) = 0.17069 0.15498
# Poissons Ratio (y) = 0.17068 0.15498
# Poissons Ratio (z) = 0.22251 0.22252
#
# Static dielectric constant tensor:
#      x y z
#    x 3.307930 0.000000 0.000000 
#    y 0.000000 3.307930 0.000000 
#    z 0.000000 0.000000 3.307080 
# 
# 
# High freq. dielectric constant tensor:
#      x y z
#    x 1.688780 0.000000 0.000000 
#    y 0.000000 1.688780 0.000000 
#    z 0.000000 0.000000 1.687350 
# 
# From -- ./inp_files/4455.got.cif
#   From: 2010.03.12/outbox.cif.g09.slc.cpg/sg92_3_cif.got.tgz:4455.got - 2010.04.08 20:41:11.
