data_PCOD8305299
_publ_section_title
;
Structure prediction by ZEFSAII (Michael W. Deem and Ramdas Pophale) SiO2 
 PCOD8305299
Probable space group: P 41 21 2
;
_chemical_formula_sum "Si O2"
_cell_formula_units_Z 60
_cell_length_a 17.303806
_cell_length_b 17.303806
_cell_length_c 8.876582
_cell_angle_alpha 90.000000
_cell_angle_beta 90.000000
_cell_angle_gamma 90.000000
_cell_volume 2657.841291
_symmetry_space_group_name_H-M "P 41 21 2"
_symmetry_group_IT_number 92
_symmetry_cell_setting 'tetragonal'
loop_
_space_group_symop_operation_xyz
x,y,z
1/2-y,1/2+x,1/4+z
-x,-y,1/2+z
1/2+y,1/2-x,3/4+z
1/2+x,1/2-y,3/4-z
1/2-x,1/2+y,1/4-z
y,x,-z
-y,-x,1/2-z
loop_
_atom_site_type_symbol
_atom_site_label
_atom_site_fract_x
_atom_site_fract_y
_atom_site_fract_z
Si Si1 0.726013 0.318999 0.915191
Si Si2 0.928782 0.867297 0.856087
Si Si3 0.413574 0.325657 0.801887
Si Si4 0.609849 0.829674 0.447669
Si Si5 0.041296 0.750773 0.754043
Si Si6 0.464597 0.464597 0.000000
Si Si7 0.236397 0.341744 0.749425
Si Si8 0.081734 0.518451 0.442822
O O1 0.708026 0.291975 0.750000
O O2 0.815242 0.343742 0.909632
O O3 0.666865 0.385345 0.960639
O O4 0.715545 0.247576 0.029731
O O5 0.995929 0.803043 0.879227
O O6 0.960639 0.952625 0.828804
O O7 0.871957 0.871957 0.000000
O O8 0.433816 0.248010 0.894567
O O9 0.439690 0.310208 0.630785
O O10 0.459335 0.397878 0.873072
O O11 0.323367 0.346930 0.814253
O O12 0.624062 0.822455 0.626037
O O13 0.561523 0.906759 0.411873
O O14 0.118446 0.723590 0.838921
O O15 0.998407 0.673805 0.697820
O O16 0.035220 0.448383 0.362417
#
# Coordination Sequence:
#
# PCOD8305299 Si02
#       8
#     8   8   8   8   8   4   8   8
#     4   9  21  43  71 101 135 183 241 293 354 437
#     4  12  29  43  65 105 153 187 241 301 365 436
#     4  11  22  45  72 104 144 191 246 295 365 442
#     4  10  20  46  73 100 135 184 241 300 361 444
#     4  12  27  46  72 105 152 196 237 306 378 438
#     4  12  28  44  72 110 148 202 242 298 366 452
#     4  10  22  41  75 104 134 185 246 293 363 437
#     4  12  28  49  72 107 146 189 250 315 380 445
#
# _framework density 22.574712999999999
#
# number of rings (size 3 to 8) (size 9 to 14) (size 15 to 20)
#    0.000    1.067    4.000    2.000    7.467    3.200 
#    0.000    0.000    0.000    0.000    0.000    0.000 
#    0.000    0.000    0.000    0.000    0.000    0.000 
#
# Total GULP energy -743842.727493 kJ/mol
# GULP energy per Si atom -12397.378792 kJ/mol
# Density = 2.252333 g / cm^3
# Si number density = 22.574713 Si / 1000 Ang^3
#
#
#
# Elastic Constant Matrix: (Units=GPa)
#
#
# Indices 1 2 3 4 5 6 
#
# 1 89.1821 35.9714 31.8228 0.0000 0.0000 0.0000
# 2 35.9714 89.1825 31.8202 0.0000 0.0000 0.0000
# 3 31.8228 31.8202 92.5876 0.0000 0.0000 0.0000
# 4 0.0000 0.0000 0.0000 31.3633 0.0000 0.0000
# 5 0.0000 0.0000 0.0000 0.0000 31.3627 0.0000
# 6 0.0000 0.0000 0.0000 0.0000 0.0000 28.9183
#
#
#
# Elastic Compliance Matrix: (Units=1/GPa)
#
#
# Indices 1 2 3 4 5 6 
#
# 1 0.014238 -0.004555 -0.003328 0.000000 0.000000 0.000000
# 2 -0.004555 0.014238 -0.003327 0.000000 0.000000 0.000000
# 3 -0.003328 -0.003327 0.013088 0.000000 0.000000 0.000000
# 4 0.000000 0.000000 0.000000 0.031884 0.000000 0.000000
# 5 0.000000 0.000000 0.000000 0.000000 0.031885 0.000000
# 6 0.000000 0.000000 0.000000 0.000000 0.000000 0.034580
#
#
# Mechanical properties :
#
#
# Convention : Reuss Voigt Hill
#
# Bulk Modulus (GPa) = 52.24166 52.24233 52.24199
# Shear Modulus (GPa) = 29.63570 29.75139 29.69355
#
# Velocity S-wave (km/s) = 3.62717 3.63424 3.63070
# Velocity P-wave (km/s) = 6.38229 6.38768 6.38499
#
# Compressibility (1/GPa) = 0.01914181
#
# Stress axis : x y z
#
# Youngs Moduli (GPa) = 70.23482 70.23669 76.40580
#
# Poissons Ratio (x) = 0.31995 0.25428
# Poissons Ratio (y) = 0.31994 0.25424
# Poissons Ratio (z) = 0.23375 0.23371
#
# Static dielectric constant tensor:
#      x y z
#    x 4.234180 0.000000 0.000000 
#    y 0.000000 4.234190 0.000000 
#    z 0.000000 0.000000 3.955490 
# 
# 
# High freq. dielectric constant tensor:
#      x y z
#    x 1.888350 0.000000 0.000000 
#    y 0.000000 1.888350 0.000000 
#    z 0.000000 0.000000 1.881180 
# 
# From -- ./inp_files/1626.got.cif
#   From: 2010.03.12/outbox.cif.g09.slc.cpg/sg92_1_cif.got.tgz:1626.got - 2010.04.08 20:41:11.
