data_PCOD8305278
_publ_section_title
;
Structure prediction by ZEFSAII (Michael W. Deem and Ramdas Pophale) SiO2 
 PCOD8305278
Probable space group: P 41 21 2
;
_chemical_formula_sum "Si O2"
_cell_formula_units_Z 44
_cell_length_a 8.449686
_cell_length_b 8.449686
_cell_length_c 27.156704
_cell_angle_alpha 90.000000
_cell_angle_beta 90.000000
_cell_angle_gamma 90.000000
_cell_volume 1938.912450
_symmetry_space_group_name_H-M "P 41 21 2"
_symmetry_group_IT_number 92
_symmetry_cell_setting 'tetragonal'
loop_
_space_group_symop_operation_xyz
x,y,z
1/2-y,1/2+x,1/4+z
-x,-y,1/2+z
1/2+y,1/2-x,3/4+z
1/2+x,1/2-y,3/4-z
1/2-x,1/2+y,1/4-z
y,x,-z
-y,-x,1/2-z
loop_
_atom_site_type_symbol
_atom_site_label
_atom_site_fract_x
_atom_site_fract_y
_atom_site_fract_z
Si Si1 0.042432 0.512429 0.727951
Si Si2 0.596380 0.403621 0.250000
Si Si3 0.587072 0.961429 0.668857
Si Si4 0.726167 0.848992 0.343840
Si Si5 0.052285 0.970141 0.602218
Si Si6 0.137667 0.295194 0.647270
O O1 0.219461 0.572346 0.738097
O O2 0.039324 0.353499 0.694901
O O3 0.960252 0.456384 0.778572
O O4 0.949099 0.657347 0.701995
O O5 0.536677 0.499985 0.298375
O O6 0.676103 0.091561 0.635218
O O7 0.682608 0.794923 0.675569
O O8 0.419500 0.907751 0.646982
O O9 0.885528 0.913485 0.368874
O O10 0.116968 0.110714 0.636750
O O11 0.178687 0.830056 0.594910
#
# Coordination Sequence:
#
# PCOD8305278 Si02
#       6
#     8   4   8   8   8   8
#     4  10  23  42  67 103 132 186 234 290 349 438
#     4  10  20  38  72 100 130 186 232 284 354 428
#     4  11  23  45  65  99 143 179 232 297 351 432
#     4  11  26  44  70  99 139 186 233 296 364 419
#     4  11  21  42  66 100 134 184 232 295 354 429
#     4  10  21  39  66  95 137 176 233 286 350 419
#
# _framework density 22.693134000000001
#
# number of rings (size 3 to 8) (size 9 to 14) (size 15 to 20)
#    0.000    1.455    1.818    4.364    0.000    4.364 
#    3.273    3.636    0.000    0.000    0.000    0.000 
#    0.000    0.000    0.000    0.000    0.000    0.000 
#
# Total GULP energy -545364.953597 kJ/mol
# GULP energy per Si atom -12394.658036 kJ/mol
# Density = 2.264148 g / cm^3
# Si number density = 22.693134 Si / 1000 Ang^3
#
#
#
# Elastic Constant Matrix: (Units=GPa)
#
#
# Indices 1 2 3 4 5 6 
#
# 1 82.0527 24.4285 39.6409 0.0000 0.0000 0.0000
# 2 24.4285 82.0522 39.6409 0.0000 0.0000 0.0000
# 3 39.6409 39.6409 163.8651 0.0000 0.0000 0.0000
# 4 0.0000 0.0000 0.0000 30.9993 0.0000 0.0000
# 5 0.0000 0.0000 0.0000 0.0000 30.9995 0.0000
# 6 0.0000 0.0000 0.0000 0.0000 0.0000 35.6165
#
#
#
# Elastic Compliance Matrix: (Units=1/GPa)
#
#
# Indices 1 2 3 4 5 6 
#
# 1 0.014404 -0.002950 -0.002771 0.000000 0.000000 0.000000
# 2 -0.002950 0.014404 -0.002771 0.000000 0.000000 0.000000
# 3 -0.002771 -0.002771 0.007443 0.000000 0.000000 0.000000
# 4 0.000000 0.000000 0.000000 0.032259 0.000000 0.000000
# 5 0.000000 0.000000 0.000000 0.000000 0.032259 0.000000
# 6 0.000000 0.000000 0.000000 0.000000 0.000000 0.028077
#
#
# Mechanical properties :
#
#
# Convention : Reuss Voigt Hill
#
# Bulk Modulus (GPa) = 51.89856 59.48785 55.69321
# Shear Modulus (GPa) = 32.84028 34.47370 33.65699
#
# Velocity S-wave (km/s) = 3.80826 3.90182 3.85533
# Velocity P-wave (km/s) = 6.50050 6.82421 6.66432
#
# Compressibility (1/GPa) = 0.01926836
#
# Stress axis : x y z
#
# Youngs Moduli (GPa) = 69.42441 69.42395 134.34987
#
# Poissons Ratio (x) = 0.20478 0.37228
# Poissons Ratio (y) = 0.20478 0.37228
# Poissons Ratio (z) = 0.19237 0.19237
#
# Static dielectric constant tensor:
#      x y z
#    x 3.989960 0.000000 0.000000 
#    y 0.000000 3.989970 0.000000 
#    z 0.000000 0.000000 4.510840 
# 
# 
# High freq. dielectric constant tensor:
#      x y z
#    x 1.892770 0.000000 0.000000 
#    y 0.000000 1.892770 0.000000 
#    z 0.000000 0.000000 1.898610 
# 
# From -- ./inp_files/4430.got.cif
#   From: 2010.03.12/outbox.cif.g09.slc.cpg/sg92_3_cif.got.tgz:4430.got - 2010.04.08 20:41:11.
