data_PCOD8305878
_publ_section_title
;
Structure prediction by ZEFSAII (Michael W. Deem and Ramdas Pophale) SiO2 
 PCOD8305878
Probable space group: P 43 21 2
;
_chemical_formula_sum "Si O2"
_cell_formula_units_Z 44
_cell_length_a 8.374835
_cell_length_b 8.374835
_cell_length_c 28.100483
_cell_angle_alpha 90.000000
_cell_angle_beta 90.000000
_cell_angle_gamma 90.000000
_cell_volume 1970.907778
_symmetry_space_group_name_H-M "P 43 21 2"
_symmetry_group_IT_number 96
_symmetry_cell_setting 'tetragonal'
loop_
_space_group_symop_operation_xyz
x,y,z
1/2-y,1/2+x,3/4+z
-x,-y,1/2+z
1/2+y,1/2-x,1/4+z
1/2+x,1/2-y,1/4-z
1/2-x,1/2+y,3/4-z
y,x,-z
-y,-x,1/2-z
loop_
_atom_site_type_symbol
_atom_site_label
_atom_site_fract_x
_atom_site_fract_y
_atom_site_fract_z
Si Si1 0.137363 0.430039 0.431004
Si Si2 0.758711 0.665274 0.656471
Si Si3 0.064615 0.080308 0.897857
Si Si4 0.649324 0.833414 0.900854
Si Si5 0.636842 0.363159 0.250000
Si Si6 0.417991 0.098314 0.224055
O O1 0.208760 0.249633 0.430601
O O2 0.208090 0.547409 0.390231
O O3 0.168067 0.519239 0.480608
O O4 0.948724 0.401918 0.423879
O O5 0.606752 0.571444 0.633839
O O6 0.834925 0.767364 0.613947
O O7 0.700404 0.768321 0.702047
O O8 0.931127 0.173261 0.869331
O O9 0.028612 0.093239 0.954312
O O10 0.538722 0.941855 0.934707
O O11 0.590419 0.178525 0.237260
#
# Coordination Sequence:
#
# PCOD8305878 Si02
#       6
#     8   8   8   8   4   8
#     4  12  23  43  66  98 135 180 221 280 344 415
#     4  10  22  40  68  93 129 175 225 277 334 401
#     4  10  20  40  64  93 128 172 222 278 326 397
#     4  11  24  42  66  97 139 173 224 279 347 402
#     4  10  18  38  70  88 124 170 228 260 328 406
#     4  10  23  41  64  99 129 173 222 280 327 403
#
# _framework density 22.324739000000001
#
# number of rings (size 3 to 8) (size 9 to 14) (size 15 to 20)
#    0.000    1.455    1.818    4.909    0.000    1.455 
#   13.091    3.636    0.000    0.000    0.000    0.000 
#    0.000    0.000    0.000    0.000    0.000    0.000 
#
# Total GULP energy -545255.086862 kJ/mol
# GULP energy per Si atom -12392.161065 kJ/mol
# Density = 2.227393 g / cm^3
# Si number density = 22.324739 Si / 1000 Ang^3
#
#
#
# Elastic Constant Matrix: (Units=GPa)
#
#
# Indices 1 2 3 4 5 6 
#
# 1 78.9564 24.6382 22.1414 0.0000 0.0000 0.0000
# 2 24.6382 78.9559 22.1410 0.0000 0.0000 0.0000
# 3 22.1414 22.1410 104.1484 0.0000 0.0000 0.0000
# 4 0.0000 0.0000 0.0000 22.8496 0.0000 0.0000
# 5 0.0000 0.0000 0.0000 0.0000 22.8497 0.0000
# 6 0.0000 0.0000 0.0000 0.0000 0.0000 51.9414
#
#
#
# Elastic Compliance Matrix: (Units=1/GPa)
#
#
# Indices 1 2 3 4 5 6 
#
# 1 0.014514 -0.003896 -0.002257 0.000000 0.000000 0.000000
# 2 -0.003896 0.014514 -0.002257 0.000000 0.000000 0.000000
# 3 -0.002257 -0.002257 0.010561 0.000000 0.000000 0.000000
# 4 0.000000 0.000000 0.000000 0.043765 0.000000 0.000000
# 5 0.000000 0.000000 0.000000 0.000000 0.043764 0.000000
# 6 0.000000 0.000000 0.000000 0.000000 0.000000 0.019252
#
#
# Mechanical properties :
#
#
# Convention : Reuss Voigt Hill
#
# Bulk Modulus (GPa) = 43.92103 44.43355 44.17729
# Shear Modulus (GPa) = 29.27716 32.40413 30.84064
#
# Velocity S-wave (km/s) = 3.62529 3.81398 3.72083
# Velocity P-wave (km/s) = 6.10246 6.27230 6.18796
#
# Compressibility (1/GPa) = 0.02276814
#
# Stress axis : x y z
#
# Youngs Moduli (GPa) = 68.89901 68.89863 94.68391
#
# Poissons Ratio (x) = 0.26844 0.21373
# Poissons Ratio (y) = 0.26844 0.21373
# Poissons Ratio (z) = 0.15553 0.15552
#
# Static dielectric constant tensor:
#      x y z
#    x 3.972560 0.000000 0.000000 
#    y 0.000000 3.972560 0.000000 
#    z 0.000000 0.000000 4.024970 
# 
# 
# High freq. dielectric constant tensor:
#      x y z
#    x 1.873110 0.000000 0.000000 
#    y 0.000000 1.873110 0.000000 
#    z 0.000000 0.000000 1.878960 
# 
# From -- ./inp_files/4393.got.cif
#   From: 2010.03.12/outbox.cif.g09.slc.cpg/sg96_3_cif.got.tgz:4393.got - 2010.04.08 20:56:49.
