data_PCOD8305196
_publ_section_title
;
Structure prediction by ZEFSAII (Michael W. Deem and Ramdas Pophale) SiO2 
 PCOD8305196
Probable space group: P 41 21 2
;
_chemical_formula_sum "Si O2"
_cell_formula_units_Z 48
_cell_length_a 12.254181
_cell_length_b 12.254181
_cell_length_c 17.297079
_cell_angle_alpha 90.000000
_cell_angle_beta 90.000000
_cell_angle_gamma 90.000000
_cell_volume 2597.415037
_symmetry_space_group_name_H-M "P 41 21 2"
_symmetry_group_IT_number 92
_symmetry_cell_setting 'tetragonal'
loop_
_space_group_symop_operation_xyz
x,y,z
1/2-y,1/2+x,1/4+z
-x,-y,1/2+z
1/2+y,1/2-x,3/4+z
1/2+x,1/2-y,3/4-z
1/2-x,1/2+y,1/4-z
y,x,-z
-y,-x,1/2-z
loop_
_atom_site_type_symbol
_atom_site_label
_atom_site_fract_x
_atom_site_fract_y
_atom_site_fract_z
Si Si1 0.775341 0.905783 0.264714
Si Si2 0.047335 0.128164 0.079759
Si Si3 0.874008 0.285774 0.288851
Si Si4 0.922534 0.994056 0.820163
Si Si5 0.037932 0.200924 0.539759
Si Si6 0.194827 0.823963 0.549048
O O1 0.797625 0.889184 0.356592
O O2 0.735827 0.793263 0.228929
O O3 0.883024 0.954085 0.223406
O O4 0.691733 0.004373 0.244819
O O5 0.933038 0.188873 0.066147
O O6 0.027917 0.008143 0.113938
O O7 0.116772 0.116772 0.000000
O O8 0.819442 0.180559 0.250000
O O9 0.808131 0.395081 0.267347
O O10 0.868918 0.265487 0.379985
O O11 0.915881 0.084120 0.750000
O O12 0.811205 0.970980 0.866727
O O13 0.095407 0.095407 0.500000
O O14 0.913280 0.214041 0.516105
#
# Coordination Sequence:
#
# PCOD8305196 Si02
#       6
#     8   8   8   8   8   8
#     4  11  22  35  58  92 122 158 194 248 318 366
#     4  11  20  37  62  85 116 154 208 251 291 362
#     4  11  21  35  57  91 126 143 188 256 311 351
#     4  10  17  31  56  89 117 143 194 247 295 348
#     4  11  20  35  59  93 116 149 195 255 300 346
#     4  12  21  35  62  90 118 158 199 246 304 362
#
# _framework density 18.479911999999999
#
# number of rings (size 3 to 8) (size 9 to 14) (size 15 to 20)
#    0.000    1.000    8.333    0.500    2.333    0.000 
#    0.000    0.833    7.333    0.000    0.000    0.000 
#    0.000    0.000    0.000    0.000    0.000    0.000 
#
# Total GULP energy -594852.921971 kJ/mol
# GULP energy per Si atom -12392.769208 kJ/mol
# Density = 1.843785 g / cm^3
# Si number density = 18.479912 Si / 1000 Ang^3
#
#
#
# Elastic Constant Matrix: (Units=GPa)
#
#
# Indices 1 2 3 4 5 6 
#
# 1 82.4741 32.8835 39.5561 0.0000 0.0000 0.0000
# 2 32.8835 82.4746 39.5569 0.0000 0.0000 0.0000
# 3 39.5561 39.5569 132.4784 0.0000 0.0000 0.0000
# 4 0.0000 0.0000 0.0000 26.0327 0.0000 0.0000
# 5 0.0000 0.0000 0.0000 0.0000 26.0326 0.0000
# 6 0.0000 0.0000 0.0000 0.0000 0.0000 18.8770
#
#
#
# Elastic Compliance Matrix: (Units=1/GPa)
#
#
# Indices 1 2 3 4 5 6 
#
# 1 0.015533 -0.004632 -0.003255 0.000000 0.000000 0.000000
# 2 -0.004632 0.015533 -0.003255 0.000000 0.000000 0.000000
# 3 -0.003255 -0.003255 0.009492 0.000000 0.000000 0.000000
# 4 0.000000 0.000000 0.000000 0.038413 0.000000 0.000000
# 5 0.000000 0.000000 0.000000 0.000000 0.038413 0.000000
# 6 0.000000 0.000000 0.000000 0.000000 0.000000 0.052974
#
#
# Mechanical properties :
#
#
# Convention : Reuss Voigt Hill
#
# Bulk Modulus (GPa) = 54.72133 57.93555 56.32844
# Shear Modulus (GPa) = 25.15925 26.55051 25.85488
#
# Velocity S-wave (km/s) = 3.69377 3.79452 3.74449
# Velocity P-wave (km/s) = 6.91863 7.11453 7.01726
#
# Compressibility (1/GPa) = 0.01827441
#
# Stress axis : x y z
#
# Youngs Moduli (GPa) = 64.37926 64.37929 105.35034
#
# Poissons Ratio (x) = 0.29821 0.34290
# Poissons Ratio (y) = 0.29821 0.34291
# Poissons Ratio (z) = 0.20954 0.20955
#
# Static dielectric constant tensor:
#      x y z
#    x 3.157500 0.000000 0.000000 
#    y 0.000000 3.157500 0.000000 
#    z 0.000000 0.000000 3.754870 
# 
# 
# High freq. dielectric constant tensor:
#      x y z
#    x 1.688620 0.000000 0.000000 
#    y 0.000000 1.688620 0.000000 
#    z 0.000000 0.000000 1.736390 
# 
# From -- ./inp_files/3094.got.cif
#   From: 2010.03.12/outbox.cif.g09.slc.cpg/sg92_2_cif.got.tgz:3094.got - 2010.04.08 20:41:11.
