data_PCOD8305013
_publ_section_title
;
Structure prediction by ZEFSAII (Michael W. Deem and Ramdas Pophale) SiO2 
 PCOD8305013
Probable space group: P 41 2 2
;
_chemical_formula_sum "Si O2"
_cell_formula_units_Z 40
_cell_length_a 13.556800
_cell_length_b 13.556800
_cell_length_c 10.148337
_cell_angle_alpha 90.000000
_cell_angle_beta 90.000000
_cell_angle_gamma 90.000000
_cell_volume 1865.130649
_symmetry_space_group_name_H-M "P 41 2 2"
_symmetry_group_IT_number 91
_symmetry_cell_setting 'tetragonal'
loop_
_space_group_symop_operation_xyz
x,y,z
-y,x,1/4+z
-x,-y,1/2+z
y,-x,3/4+z
x,-y,1/2-z
-x,y,-z
y,x,3/4-z
-y,-x,1/4-z
loop_
_atom_site_type_symbol
_atom_site_label
_atom_site_fract_x
_atom_site_fract_y
_atom_site_fract_z
Si Si1 0.818619 0.818620 0.125009
Si Si2 0.000003 0.725596 0.749987
Si Si3 0.134927 0.566887 0.627925
Si Si4 0.865080 0.433104 0.627931
Si Si5 0.274842 0.725159 0.125000
Si Si6 0.725142 0.274859 0.125000
O O1 0.797485 0.931824 0.087713
O O2 0.751551 0.788970 0.247559
O O3 0.931822 0.797498 0.162325
O O4 0.788996 0.751563 0.002434
O O5 0.938137 0.660448 0.855624
O O6 0.061877 0.660446 0.644359
O O7 0.111142 0.500000 0.750000
O O8 0.115156 0.499993 0.500000
O O9 0.248067 0.608682 0.639404
O O10 0.888858 0.500000 0.750000
O O11 0.751943 0.391300 0.639416
#
# Coordination Sequence:
#
# PCOD8305013 Si02
#       6
#     8   8   8   8   4   4
#     4  10  22  38  62  83 126 169 200 254 300 365
#     4  10  23  40  62  95 126 166 214 253 311 362
#     4  11  23  38  64  91 119 156 202 255 300 365
#     4  11  23  38  64  91 119 156 202 255 300 365
#     4  10  22  40  58  90 126 158 194 250 326 362
#     4  10  22  40  58  90 126 158 194 250 326 362
#
# _framework density 21.446221000000001
#
# number of rings (size 3 to 8) (size 9 to 14) (size 15 to 20)
#    0.000    1.600    0.000    5.400    0.000   19.200 
#    0.000    0.000    0.000   80.400    0.000    0.000 
#    0.000    0.000    0.000    0.000    0.000    0.000 
#
# Total GULP energy -495554.176578 kJ/mol
# GULP energy per Si atom -12388.854414 kJ/mol
# Density = 2.139741 g / cm^3
# Si number density = 21.446221 Si / 1000 Ang^3
#
#
#
# Elastic Constant Matrix: (Units=GPa)
#
#
# Indices 1 2 3 4 5 6 
#
# 1 106.1201 74.2164 48.8780 0.0000 0.0000 0.0000
# 2 74.2164 106.1201 48.8780 0.0000 0.0000 0.0000
# 3 48.8780 48.8780 164.2957 0.0000 0.0000 0.0000
# 4 0.0000 0.0000 0.0000 33.4426 0.0000 0.0000
# 5 0.0000 0.0000 0.0000 0.0000 33.4426 0.0000
# 6 0.0000 0.0000 0.0000 0.0000 0.0000 48.9202
#
#
#
# Elastic Compliance Matrix: (Units=1/GPa)
#
#
# Indices 1 2 3 4 5 6 
#
# 1 0.018978 -0.012366 -0.001967 0.000000 0.000000 0.000000
# 2 -0.012366 0.018978 -0.001967 0.000000 0.000000 0.000000
# 3 -0.001967 -0.001967 0.007257 0.000000 0.000000 0.000000
# 4 0.000000 0.000000 0.000000 0.029902 0.000000 0.000000
# 5 0.000000 0.000000 0.000000 0.000000 0.029902 0.000000
# 6 0.000000 0.000000 0.000000 0.000000 0.000000 0.020441
#
#
# Mechanical properties :
#
#
# Convention : Reuss Voigt Hill
#
# Bulk Modulus (GPa) = 79.28888 80.05342 79.67115
# Shear Modulus (GPa) = 30.81425 36.79862 33.80644
#
# Velocity S-wave (km/s) = 3.79465 4.14678 3.97462
# Velocity P-wave (km/s) = 7.50003 7.76764 7.63501
#
# Compressibility (1/GPa) = 0.01261211
#
# Stress axis : x y z
#
# Youngs Moduli (GPa) = 52.69304 52.69304 137.80009
#
# Poissons Ratio (x) = 0.65163 0.27104
# Poissons Ratio (y) = 0.65163 0.27104
# Poissons Ratio (z) = 0.10364 0.10364
#
# Static dielectric constant tensor:
#      x y z
#    x 4.002490 0.000000 0.000000 
#    y 0.000000 4.002490 0.000000 
#    z 0.000000 0.000000 3.710700 
# 
# 
# High freq. dielectric constant tensor:
#      x y z
#    x 1.828190 0.000000 0.000000 
#    y 0.000000 1.828190 0.000000 
#    z 0.000000 0.000000 1.865470 
# 
# From -- ./inp_files/19464.got.cif
#   From: 2010.03.12/outbox.cif.g09.slc.cpg/sg91_10_cif.got.tgz:19464.got - 2010.04.08 20:27:58.
