data_PCOD8305538
_publ_section_title
;
Structure prediction by ZEFSAII (Michael W. Deem and Ramdas Pophale) SiO2 
 PCOD8305538
Probable space group: P 42 2 2
;
_chemical_formula_sum "Si O2"
_cell_formula_units_Z 56
_cell_length_a 14.349925
_cell_length_b 14.349925
_cell_length_c 10.799307
_cell_angle_alpha 90.000000
_cell_angle_beta 90.000000
_cell_angle_gamma 90.000000
_cell_volume 2223.797050
_symmetry_space_group_name_H-M "P 42 2 2"
_symmetry_group_IT_number 93
_symmetry_cell_setting 'tetragonal'
loop_
_space_group_symop_operation_xyz
x,y,z
-y,x,1/2+z
-x,-y,z
y,-x,1/2+z
x,-y,-z
-x,y,-z
y,x,1/2-z
-y,-x,1/2-z
loop_
_atom_site_type_symbol
_atom_site_label
_atom_site_fract_x
_atom_site_fract_y
_atom_site_fract_z
Si Si1 0.659798 0.525281 0.306144
Si Si2 0.152223 0.913853 0.567842
Si Si3 0.341058 0.847307 0.469408
Si Si4 0.612117 0.106101 0.192387
Si Si5 0.362855 0.706007 0.046701
Si Si6 0.847142 0.574335 0.222213
Si Si7 0.064319 0.254012 0.317379
O O1 0.564348 0.564348 0.250000
O O2 0.705262 0.585084 0.416860
O O3 0.641143 0.420589 0.355217
O O4 0.742942 0.532292 0.206329
O O5 0.239183 0.890010 0.481537
O O6 0.187444 0.951638 0.699878
O O7 0.089146 0.819671 0.573947
O O8 0.098343 0.000000 0.500000
O O9 0.376722 0.878475 0.337940
O O10 0.338664 0.736264 0.472836
O O11 0.408160 0.883704 0.581323
O O12 0.642107 0.190127 0.103344
O O13 0.498879 0.091445 0.193897
O O14 0.677720 0.021448 0.148779
O O15 0.849251 0.675717 0.290554
#
# Coordination Sequence:
#
# PCOD8305538 Si02
#       7
#     8   8   8   8   8   8   8
#     4  10  19  39  64 100 136 183 244 298 353 458
#     4  10  20  38  66 103 134 193 250 297 383 467
#     4  11  20  38  62  96 141 191 241 301 371 451
#     4  11  22  38  59 102 145 186 243 313 372 448
#     4  10  22  36  65  99 134 188 240 298 378 434
#     4  10  21  35  65  99 141 193 239 297 379 455
#     4  10  21  37  64 102 145 184 241 317 378 445
#
# _framework density 25.182155000000002
#
# number of rings (size 3 to 8) (size 9 to 14) (size 15 to 20)
#    0.000    1.714    2.857    2.143    2.000    0.000 
#    0.000    4.286    0.000   15.429    3.714    0.000 
#    0.000    0.000    0.000    0.000    0.000    0.000 
#
# Total GULP energy -693815.069751 kJ/mol
# GULP energy per Si atom -12389.554817 kJ/mol
# Density = 2.512484 g / cm^3
# Si number density = 25.182155 Si / 1000 Ang^3
#
#
#
# Elastic Constant Matrix: (Units=GPa)
#
#
# Indices 1 2 3 4 5 6 
#
# 1 103.8394 27.6033 14.0550 0.0000 0.0000 0.0000
# 2 27.6033 103.8394 14.0550 0.0000 0.0000 0.0000
# 3 14.0550 14.0550 57.2016 0.0000 0.0000 0.0000
# 4 0.0000 0.0000 0.0000 5.9126 0.0000 0.0000
# 5 0.0000 0.0000 0.0000 0.0000 5.9126 0.0000
# 6 0.0000 0.0000 0.0000 0.0000 0.0000 40.5625
#
#
#
# Elastic Compliance Matrix: (Units=1/GPa)
#
#
# Indices 1 2 3 4 5 6 
#
# 1 0.010573 -0.002544 -0.001973 0.000000 0.000000 0.000000
# 2 -0.002544 0.010573 -0.001973 0.000000 0.000000 0.000000
# 3 -0.001973 -0.001973 0.018452 0.000000 0.000000 0.000000
# 4 0.000000 0.000000 0.000000 0.169129 0.000000 0.000000
# 5 0.000000 0.000000 0.000000 0.000000 0.169129 0.000000
# 6 0.000000 0.000000 0.000000 0.000000 0.000000 0.024653
#
#
# Mechanical properties :
#
#
# Convention : Reuss Voigt Hill
#
# Bulk Modulus (GPa) = 37.56684 41.81189 39.68936
# Shear Modulus (GPa) = 11.78238 24.42204 18.10221
#
# Velocity S-wave (km/s) = 2.16541 3.11756 2.68405
# Velocity P-wave (km/s) = 4.60461 5.44047 5.03990
#
# Compressibility (1/GPa) = 0.02661922
#
# Stress axis : x y z
#
# Youngs Moduli (GPa) = 94.57619 94.57619 54.19583
#
# Poissons Ratio (x) = 0.24057 0.10693
# Poissons Ratio (y) = 0.24057 0.10693
# Poissons Ratio (z) = 0.18660 0.18660
#
# Static dielectric constant tensor:
#      x y z
#    x 4.691870 0.000000 0.000000 
#    y 0.000000 4.691870 0.000000 
#    z 0.000000 0.000000 4.506250 
# 
# 
# High freq. dielectric constant tensor:
#      x y z
#    x 2.000530 0.000000 0.000000 
#    y 0.000000 2.000530 0.000000 
#    z 0.000000 0.000000 2.000750 
# 
# From -- ./inp_files/3500.got.cif
#   From: 2010.03.12/outbox.cif.g09.slc.cpg/sg93_2_cif.got.tgz:3500.got - 2010.04.08 20:44:19.
