data_PCOD8305447
_publ_section_title
;
Structure prediction by ZEFSAII (Michael W. Deem and Ramdas Pophale) SiO2 
 PCOD8305447
Probable space group: P 41 21 2
;
_chemical_formula_sum "Si O2"
_cell_formula_units_Z 40
_cell_length_a 8.508145
_cell_length_b 8.508145
_cell_length_c 25.952529
_cell_angle_alpha 90.000000
_cell_angle_beta 90.000000
_cell_angle_gamma 90.000000
_cell_volume 1878.665459
_symmetry_space_group_name_H-M "P 41 21 2"
_symmetry_group_IT_number 92
_symmetry_cell_setting 'tetragonal'
loop_
_space_group_symop_operation_xyz
x,y,z
1/2-y,1/2+x,1/4+z
-x,-y,1/2+z
1/2+y,1/2-x,3/4+z
1/2+x,1/2-y,3/4-z
1/2-x,1/2+y,1/4-z
y,x,-z
-y,-x,1/2-z
loop_
_atom_site_type_symbol
_atom_site_label
_atom_site_fract_x
_atom_site_fract_y
_atom_site_fract_z
Si Si1 0.346321 0.097780 0.342408
Si Si2 0.928859 0.051584 0.693532
Si Si3 0.609091 0.141791 0.268839
Si Si4 0.790271 0.075460 0.364616
Si Si5 0.559147 0.037028 0.678821
O O1 0.452520 0.190721 0.300301
O O2 0.272787 0.237348 0.376631
O O3 0.229837 0.981381 0.313419
O O4 0.439346 0.975482 0.377653
O O5 0.996695 0.003306 0.750000
O O6 0.741334 0.028634 0.693642
O O7 0.011117 0.965016 0.645169
O O8 0.703046 0.296955 0.250000
O O9 0.710494 0.038951 0.309135
O O10 0.557928 0.026076 0.222833
O O11 0.716276 0.984861 0.413535
#
# Coordination Sequence:
#
# PCOD8305447 Si02
#       5
#     8   8   8   8   8
#     4  11  24  44  69  99 136 183 231 286 350 419
#     4  12  24  43  69  99 139 180 228 291 358 419
#     4  11  22  41  68  97 134 177 231 290 338 423
#     4  11  25  41  67  98 132 183 234 287 344 423
#     4  11  24  43  66  99 139 176 233 288 353 408
#
# _framework density 21.291709999999998
#
# number of rings (size 3 to 8) (size 9 to 14) (size 15 to 20)
#    0.000    0.800    4.000    4.200    2.800    0.000 
#    0.000    1.000    0.000    0.000    0.000    0.000 
#    0.000    0.000    0.000    0.000    0.000    0.000 
#
# Total GULP energy -495692.311051 kJ/mol
# GULP energy per Si atom -12392.307776 kJ/mol
# Density = 2.124325 g / cm^3
# Si number density = 21.291710 Si / 1000 Ang^3
#
#
#
# Elastic Constant Matrix: (Units=GPa)
#
#
# Indices 1 2 3 4 5 6 
#
# 1 89.8090 31.4133 42.4393 0.0000 0.0000 0.0000
# 2 31.4133 89.8088 42.4392 0.0000 0.0000 0.0000
# 3 42.4393 42.4392 121.8697 0.0000 0.0000 0.0000
# 4 0.0000 0.0000 0.0000 32.9541 0.0000 0.0000
# 5 0.0000 0.0000 0.0000 0.0000 32.9540 0.0000
# 6 0.0000 0.0000 0.0000 0.0000 0.0000 39.4371
#
#
#
# Elastic Compliance Matrix: (Units=1/GPa)
#
#
# Indices 1 2 3 4 5 6 
#
# 1 0.014017 -0.003108 -0.003799 0.000000 0.000000 0.000000
# 2 -0.003108 0.014017 -0.003799 0.000000 0.000000 0.000000
# 3 -0.003799 -0.003799 0.010851 0.000000 0.000000 0.000000
# 4 0.000000 0.000000 0.000000 0.030345 0.000000 0.000000
# 5 0.000000 0.000000 0.000000 0.000000 0.030345 0.000000
# 6 0.000000 0.000000 0.000000 0.000000 0.000000 0.025357
#
#
# Mechanical properties :
#
#
# Convention : Reuss Voigt Hill
#
# Bulk Modulus (GPa) = 57.22782 59.34125 58.28453
# Shear Modulus (GPa) = 32.85828 33.41542 33.13685
#
# Velocity S-wave (km/s) = 3.93267 3.96588 3.94931
# Velocity P-wave (km/s) = 6.89620 6.99300 6.94477
#
# Compressibility (1/GPa) = 0.01747402
#
# Stress axis : x y z
#
# Youngs Moduli (GPa) = 71.34216 71.34205 92.15418
#
# Poissons Ratio (x) = 0.22170 0.35010
# Poissons Ratio (y) = 0.22170 0.35009
# Poissons Ratio (z) = 0.27103 0.27103
#
# Static dielectric constant tensor:
#      x y z
#    x 3.748890 0.000000 0.000000 
#    y 0.000000 3.748890 0.000000 
#    z 0.000000 0.000000 4.143250 
# 
# 
# High freq. dielectric constant tensor:
#      x y z
#    x 1.829050 0.000000 0.000000 
#    y 0.000000 1.829050 0.000000 
#    z 0.000000 0.000000 1.852040 
# 
# From -- ./inp_files/3768.got.cif
#   From: 2010.03.12/outbox.cif.g09.slc.cpg/sg92_2_cif.got.tgz:3768.got - 2010.04.08 20:41:11.
