data_PCOD8305887
_publ_section_title
;
Structure prediction by ZEFSAII (Michael W. Deem and Ramdas Pophale) SiO2 
 PCOD8305887
Probable space group: P 43 21 2
;
_chemical_formula_sum "Si O2"
_cell_formula_units_Z 48
_cell_length_a 8.771961
_cell_length_b 8.771961
_cell_length_c 31.606390
_cell_angle_alpha 90.000000
_cell_angle_beta 90.000000
_cell_angle_gamma 90.000000
_cell_volume 2432.026366
_symmetry_space_group_name_H-M "P 43 21 2"
_symmetry_group_IT_number 96
_symmetry_cell_setting 'tetragonal'
loop_
_space_group_symop_operation_xyz
x,y,z
1/2-y,1/2+x,3/4+z
-x,-y,1/2+z
1/2+y,1/2-x,1/4+z
1/2+x,1/2-y,1/4-z
1/2-x,1/2+y,3/4-z
y,x,-z
-y,-x,1/2-z
loop_
_atom_site_type_symbol
_atom_site_label
_atom_site_fract_x
_atom_site_fract_y
_atom_site_fract_z
Si Si1 0.429385 0.080947 0.416915
Si Si2 0.578814 0.429530 0.661215
Si Si3 0.572698 0.403954 0.413469
Si Si4 0.930986 0.069015 0.750000
Si Si5 0.072751 0.598500 0.907438
Si Si6 0.578730 0.080968 0.760011
Si Si7 0.070664 0.070664 0.500000
O O1 0.250195 0.124001 0.412810
O O2 0.535317 0.226974 0.412132
O O3 0.466647 0.014031 0.463951
O O4 0.479057 0.959611 0.382697
O O5 0.474210 0.461442 0.621408
O O6 0.722812 0.539947 0.657300
O O7 0.484039 0.467997 0.705675
O O8 0.536352 0.473650 0.459917
O O9 0.748283 0.433432 0.402318
O O10 0.756781 0.041075 0.763910
O O11 0.013105 0.510521 0.950028
O O12 0.548195 0.258522 0.765883
#
# Coordination Sequence:
#
# PCOD8305887 Si02
#       7
#     8   8   8   4   8   8   4
#     4  10  20  37  58  81 108 149 196 228 273 349
#     4  10  19  36  59  79 108 148 189 229 278 343
#     4  11  22  35  54  85 117 144 184 239 290 336
#     4   9  18  36  56  73 102 148 196 227 266 343
#     4  11  21  35  55  84 117 142 178 239 297 332
#     4   8  16  33  55  75  99 140 191 230 262 328
#     4   7  14  30  54  77  96 132 188 231 258 313
#
# _framework density 19.736626000000001
#
# number of rings (size 3 to 8) (size 9 to 14) (size 15 to 20)
#    0.000    2.333    0.000    6.000    0.000    1.333 
#    0.000   13.333    0.000    1.000    0.000    0.000 
#    0.000    0.000    0.000    0.000    0.000    0.000 
#
# Total GULP energy -594628.981589 kJ/mol
# GULP energy per Si atom -12388.103783 kJ/mol
# Density = 1.969170 g / cm^3
# Si number density = 19.736626 Si / 1000 Ang^3
#
#
#
# Elastic Constant Matrix: (Units=GPa)
#
#
# Indices 1 2 3 4 5 6 
#
# 1 50.0155 8.2777 30.3907 0.0000 0.0000 0.0000
# 2 8.2777 50.0158 30.3905 0.0000 0.0000 0.0000
# 3 30.3907 30.3905 137.5753 0.0000 0.0000 0.0000
# 4 0.0000 0.0000 0.0000 30.0590 0.0000 0.0000
# 5 0.0000 0.0000 0.0000 0.0000 30.0589 0.0000
# 6 0.0000 0.0000 0.0000 0.0000 0.0000 23.8193
#
#
#
# Elastic Compliance Matrix: (Units=1/GPa)
#
#
# Indices 1 2 3 4 5 6 
#
# 1 0.023124 -0.000835 -0.004924 0.000000 0.000000 0.000000
# 2 -0.000835 0.023124 -0.004923 0.000000 0.000000 0.000000
# 3 -0.004924 -0.004923 0.009444 0.000000 0.000000 0.000000
# 4 0.000000 0.000000 0.000000 0.033268 0.000000 0.000000
# 5 0.000000 0.000000 0.000000 0.000000 0.033268 0.000000
# 6 0.000000 0.000000 0.000000 0.000000 0.000000 0.041983
#
#
# Mechanical properties :
#
#
# Convention : Reuss Voigt Hill
#
# Bulk Modulus (GPa) = 29.13204 41.74715 35.43960
# Shear Modulus (GPa) = 25.37853 28.02395 26.70124
#
# Velocity S-wave (km/s) = 3.58978 3.77224 3.68214
# Velocity P-wave (km/s) = 5.65460 6.33807 6.00606
#
# Compressibility (1/GPa) = 0.03432646
#
# Stress axis : x y z
#
# Youngs Moduli (GPa) = 43.24557 43.24602 105.88765
#
# Poissons Ratio (x) = 0.03613 0.52134
# Poissons Ratio (y) = 0.03613 0.52133
# Poissons Ratio (z) = 0.21292 0.21292
#
# Static dielectric constant tensor:
#      x y z
#    x 3.222110 0.000000 0.000000 
#    y 0.000000 3.222110 0.000000 
#    z 0.000000 0.000000 4.235340 
# 
# 
# High freq. dielectric constant tensor:
#      x y z
#    x 1.736980 0.000000 0.000000 
#    y 0.000000 1.736980 0.000000 
#    z 0.000000 0.000000 1.806680 
# 
# From -- ./inp_files/4504.got.cif
#   From: 2010.03.12/outbox.cif.g09.slc.cpg/sg96_3_cif.got.tgz:4504.got - 2010.04.08 20:56:49.
