data_PCOD8305793
_publ_section_title
;
Structure prediction by ZEFSAII (Michael W. Deem and Ramdas Pophale) SiO2 
 PCOD8305793
Probable space group: P 42 21 2
;
_chemical_formula_sum "Si O2"
_cell_formula_units_Z 54
_cell_length_a 13.716800
_cell_length_b 13.716800
_cell_length_c 12.316273
_cell_angle_alpha 90.000000
_cell_angle_beta 90.000000
_cell_angle_gamma 90.000000
_cell_volume 2317.314182
_symmetry_space_group_name_H-M "P 42 21 2"
_symmetry_group_IT_number 94
_symmetry_cell_setting 'tetragonal'
loop_
_space_group_symop_operation_xyz
x,y,z
1/2-y,1/2+x,1/2+z
-x,-y,z
1/2+y,1/2-x,1/2+z
1/2+x,1/2-y,1/2-z
1/2-x,1/2+y,1/2-z
y,x,-z
-y,-x,-z
loop_
_atom_site_type_symbol
_atom_site_label
_atom_site_fract_x
_atom_site_fract_y
_atom_site_fract_z
Si Si1 0.165395 0.950033 0.910012
Si Si2 0.332316 0.848457 0.603073
Si Si3 0.335626 0.821853 0.974956
Si Si4 0.368509 0.415312 0.829475
Si Si5 0.337223 0.662778 0.500000
Si Si6 0.500000 0.500000 0.000000
Si Si7 0.036806 0.608553 0.831171
Si Si8 0.204649 0.453606 0.113988
O O1 0.267540 0.892526 0.902259
O O2 0.108827 0.946748 0.794205
O O3 0.183223 0.058592 0.949096
O O4 0.097713 0.902288 0.000000
O O5 0.249018 0.908212 0.666200
O O6 0.303994 0.735510 0.595733
O O7 0.436889 0.833155 0.657394
O O8 0.343773 0.898237 0.485965
O O9 0.430366 0.795216 0.905746
O O10 0.277823 0.722178 0.000000
O O11 0.363841 0.878112 0.085385
O O12 0.421057 0.315071 0.861667
O O13 0.406208 0.496052 0.917703
O O14 0.000000 0.500000 0.846767
O O15 0.076974 0.633912 0.712468
#
# Coordination Sequence:
#
# PCOD8305793 Si02
#       8
#     8   8   8   8   4   2   8   8
#     4  11  26  48  74 111 149 193 251 325 375 457
#     4  12  25  50  71 106 150 197 249 315 375 463
#     4  11  25  48  74 108 149 190 257 313 386 463
#     4  12  27  50  72 109 158 192 261 317 385 454
#     4  12  24  46  78 104 144 200 252 294 388 444
#     4  12  26  44  74 106 148 208 242 324 384 458
#     4  12  27  44  74 108 146 197 251 319 383 451
#     4  12  25  46  74 101 150 198 248 310 384 462
#
# _framework density 23.30284
#
# number of rings (size 3 to 8) (size 9 to 14) (size 15 to 20)
#    0.000    0.296    5.926    2.889    5.185    1.185 
#    0.000    0.000    0.000    0.000    0.000    0.000 
#    0.000    0.000    0.000    0.000    0.000    0.000 
#
# Total GULP energy -669309.060608 kJ/mol
# GULP energy per Si atom -12394.612233 kJ/mol
# Density = 2.324980 g / cm^3
# Si number density = 23.302840 Si / 1000 Ang^3
#
#
#
# Elastic Constant Matrix: (Units=GPa)
#
#
# Indices 1 2 3 4 5 6 
#
# 1 90.5906 18.3239 29.6293 0.0000 0.0000 0.0000
# 2 18.3239 90.5912 29.6286 0.0000 0.0000 0.0000
# 3 29.6293 29.6286 153.6423 0.0000 0.0000 0.0000
# 4 0.0000 0.0000 0.0000 25.2729 0.0000 0.0000
# 5 0.0000 0.0000 0.0000 0.0000 25.2727 0.0000
# 6 0.0000 0.0000 0.0000 0.0000 0.0000 35.0561
#
#
#
# Elastic Compliance Matrix: (Units=1/GPa)
#
#
# Indices 1 2 3 4 5 6 
#
# 1 0.012048 -0.001790 -0.001978 0.000000 0.000000 0.000000
# 2 -0.001790 0.012048 -0.001978 0.000000 0.000000 0.000000
# 3 -0.001978 -0.001978 0.007272 0.000000 0.000000 0.000000
# 4 0.000000 0.000000 0.000000 0.039568 0.000000 0.000000
# 5 0.000000 0.000000 0.000000 0.000000 0.039568 0.000000
# 6 0.000000 0.000000 0.000000 0.000000 0.000000 0.028526
#
#
# Mechanical properties :
#
#
# Convention : Reuss Voigt Hill
#
# Bulk Modulus (GPa) = 50.31571 54.44304 52.37938
# Shear Modulus (GPa) = 31.81747 34.26981 33.04364
#
# Velocity S-wave (km/s) = 3.69913 3.83904 3.76973
# Velocity P-wave (km/s) = 6.31535 6.56239 6.44006
#
# Compressibility (1/GPa) = 0.01987451
#
# Stress axis : x y z
#
# Youngs Moduli (GPa) = 83.00322 83.00409 137.52194
#
# Poissons Ratio (x) = 0.14857 0.27204
# Poissons Ratio (y) = 0.14857 0.27203
# Poissons Ratio (z) = 0.16420 0.16419
#
# Static dielectric constant tensor:
#      x y z
#    x 4.229400 0.000000 0.000000 
#    y 0.000000 4.229400 0.000000 
#    z 0.000000 0.000000 4.303480 
# 
# 
# High freq. dielectric constant tensor:
#      x y z
#    x 1.929410 0.000000 0.000000 
#    y 0.000000 1.929410 0.000000 
#    z 0.000000 0.000000 1.925710 
# 
# From -- ./inp_files/2746.got.cif
#   From: 2010.03.12/outbox.cif.g09.slc.cpg/sg94_2_cif.got.tgz:2746.got - 2010.04.08 20:48:32.
