data_PCOD8305648
_publ_section_title
;
Structure prediction by ZEFSAII (Michael W. Deem and Ramdas Pophale) SiO2 
 PCOD8305648
Probable space group: P 42 21 2
;
_chemical_formula_sum "Si O2"
_cell_formula_units_Z 48
_cell_length_a 8.376684
_cell_length_b 8.376684
_cell_length_c 31.705954
_cell_angle_alpha 90.000000
_cell_angle_beta 90.000000
_cell_angle_gamma 90.000000
_cell_volume 2224.769850
_symmetry_space_group_name_H-M "P 42 21 2"
_symmetry_group_IT_number 94
_symmetry_cell_setting 'tetragonal'
loop_
_space_group_symop_operation_xyz
x,y,z
1/2-y,1/2+x,1/2+z
-x,-y,z
1/2+y,1/2-x,1/2+z
1/2+x,1/2-y,1/2-z
1/2-x,1/2+y,1/2-z
y,x,-z
-y,-x,-z
loop_
_atom_site_type_symbol
_atom_site_label
_atom_site_fract_x
_atom_site_fract_y
_atom_site_fract_z
Si Si1 0.889479 0.779865 0.218727
Si Si2 0.743303 0.626562 0.296806
Si Si3 0.828257 0.443892 0.882532
Si Si4 0.000000 0.500000 0.581559
Si Si5 0.000000 0.000000 0.094420
Si Si6 0.216806 0.707802 0.633828
Si Si7 0.207752 0.763300 0.048506
O O1 0.870330 0.700964 0.264318
O O2 0.812718 0.669268 0.182691
O O3 0.076101 0.784556 0.207874
O O4 0.790240 0.944074 0.214976
O O5 0.820829 0.649053 0.343233
O O6 0.731709 0.603494 0.872421
O O7 0.733729 0.359072 0.920942
O O8 0.000000 0.500000 0.898944
O O9 0.064424 0.648405 0.608390
O O10 0.136718 0.432815 0.552286
O O11 0.094272 0.127572 0.123916
O O12 0.865661 0.068789 0.063310
O O13 0.252326 0.747675 0.000000
#
# Coordination Sequence:
#
# PCOD8305648 Si02
#       7
#     8   8   8   4   4   8   8
#     4  11  23  40  63  95 135 173 225 277 322 405
#     4  11  24  40  64  98 131 175 225 276 337 392
#     4  12  23  42  72  96 132 184 225 279 338 413
#     4  10  26  44  64  98 134 170 214 288 340 412
#     4  10  19  40  68  98 132 182 228 276 323 408
#     4  11  22  42  68  96 134 177 223 271 339 397
#     4  11  24  42  68 100 136 173 229 279 349 409
#
# _framework density 21.575265999999999
#
# number of rings (size 3 to 8) (size 9 to 14) (size 15 to 20)
#    0.000    1.000    3.333    4.250    1.167    3.333 
#    0.000    1.667    0.000    0.000    0.000    0.000 
#    0.000    0.000    0.000    0.000    0.000    0.000 
#
# Total GULP energy -594974.091798 kJ/mol
# GULP energy per Si atom -12395.293579 kJ/mol
# Density = 2.152616 g / cm^3
# Si number density = 21.575266 Si / 1000 Ang^3
#
#
#
# Elastic Constant Matrix: (Units=GPa)
#
#
# Indices 1 2 3 4 5 6 
#
# 1 86.0684 18.1282 30.7401 0.0000 0.0000 0.0000
# 2 18.1282 86.0685 30.7402 0.0000 0.0000 0.0000
# 3 30.7401 30.7402 146.6482 0.0000 0.0000 0.0000
# 4 0.0000 0.0000 0.0000 15.0020 0.0000 0.0000
# 5 0.0000 0.0000 0.0000 0.0000 15.0016 0.0000
# 6 0.0000 0.0000 0.0000 0.0000 0.0000 30.5356
#
#
#
# Elastic Compliance Matrix: (Units=1/GPa)
#
#
# Indices 1 2 3 4 5 6 
#
# 1 0.012835 -0.001884 -0.002296 0.000000 0.000000 0.000000
# 2 -0.001884 0.012835 -0.002296 0.000000 0.000000 0.000000
# 3 -0.002296 -0.002296 0.007781 0.000000 0.000000 0.000000
# 4 0.000000 0.000000 0.000000 0.066658 0.000000 0.000000
# 5 0.000000 0.000000 0.000000 0.000000 0.066660 0.000000
# 6 0.000000 0.000000 0.000000 0.000000 0.000000 0.032749
#
#
# Mechanical properties :
#
#
# Convention : Reuss Voigt Hill
#
# Bulk Modulus (GPa) = 48.77507 53.11134 50.94320
# Shear Modulus (GPa) = 22.79963 28.05296 25.42630
#
# Velocity S-wave (km/s) = 3.25429 3.60979 3.43664
# Velocity P-wave (km/s) = 6.06437 6.48416 6.27778
#
# Compressibility (1/GPa) = 0.02050228
#
# Stress axis : x y z
#
# Youngs Moduli (GPa) = 77.91011 77.91019 128.51027
#
# Poissons Ratio (x) = 0.14675 0.29502
# Poissons Ratio (y) = 0.14674 0.29502
# Poissons Ratio (z) = 0.17886 0.17886
#
# Static dielectric constant tensor:
#      x y z
#    x 3.981340 0.000000 0.000000 
#    y 0.000000 3.981340 0.000000 
#    z 0.000000 0.000000 3.941010 
# 
# 
# High freq. dielectric constant tensor:
#      x y z
#    x 1.849730 0.000000 0.000000 
#    y 0.000000 1.849730 0.000000 
#    z 0.000000 0.000000 1.843400 
# 
# From -- ./inp_files/5649.got.cif
#   From: 2010.03.12/outbox.cif.g09.slc.cpg/sg94_3_cif.got.tgz:5649.got - 2010.04.08 20:48:32.
