data_PCOD8305843
_publ_section_title
;
Structure prediction by ZEFSAII (Michael W. Deem and Ramdas Pophale) SiO2 
 PCOD8305843
Probable space group: P 43 2 2
;
_chemical_formula_sum "Si O2"
_cell_formula_units_Z 40
_cell_length_a 11.679467
_cell_length_b 11.679467
_cell_length_c 14.136763
_cell_angle_alpha 90.000000
_cell_angle_beta 90.000000
_cell_angle_gamma 90.000000
_cell_volume 1928.395126
_symmetry_space_group_name_H-M "P 43 2 2"
_symmetry_group_IT_number 95
_symmetry_cell_setting 'tetragonal'
loop_
_space_group_symop_operation_xyz
x,y,z
-y,x,3/4+z
-x,-y,1/2+z
y,-x,1/4+z
x,-y,1/2-z
-x,y,-z
y,x,1/4-z
-y,-x,3/4-z
loop_
_atom_site_type_symbol
_atom_site_label
_atom_site_fract_x
_atom_site_fract_y
_atom_site_fract_z
Si Si1 0.636633 0.075021 0.000378
Si Si2 0.624217 0.624217 0.125000
Si Si3 0.733105 0.733105 0.625000
Si Si4 0.443013 0.746140 0.214089
Si Si5 0.670503 0.809214 0.982458
Si Si6 0.122936 0.656369 0.040243
O O1 0.706084 0.138688 0.915008
O O2 0.673170 0.943223 0.001688
O O3 0.500000 0.086992 0.000000
O O4 0.673841 0.131091 0.098031
O O5 0.515262 0.628944 0.194256
O O6 0.742731 0.601446 0.184674
O O7 0.706412 0.648488 0.539993
O O8 0.378445 0.792511 0.122143
O O9 0.528868 0.841283 0.257110
O O10 0.794891 0.754470 0.999224
O O11 0.000000 0.684219 0.000000
#
# Coordination Sequence:
#
# PCOD8305843 Si02
#       6
#     8   4   4   8   8   8
#     4  12  23  44  68  96 138 180 224 276 341 411
#     4  10  22  42  69 101 132 174 228 278 336 403
#     4  12  26  42  67 103 136 180 224 274 344 413
#     4  11  23  43  66 100 137 174 226 274 342 404
#     4  11  23  43  69 100 132 175 234 277 334 401
#     4  11  23  42  70  98 132 181 229 279 335 404
#
# _framework density 20.742637999999999
#
# number of rings (size 3 to 8) (size 9 to 14) (size 15 to 20)
#    0.000    0.800    4.000    5.400    0.000    0.000 
#    0.000   20.000    0.000    0.000    0.000    0.000 
#    0.000    0.000    0.000    0.000    0.000    0.000 
#
# Total GULP energy -495727.196595 kJ/mol
# GULP energy per Si atom -12393.179915 kJ/mol
# Density = 2.069543 g / cm^3
# Si number density = 20.742638 Si / 1000 Ang^3
#
#
#
# Elastic Constant Matrix: (Units=GPa)
#
#
# Indices 1 2 3 4 5 6 
#
# 1 87.7437 37.0215 21.1581 0.0000 0.0000 0.0000
# 2 37.0215 87.7437 21.1581 0.0000 0.0000 0.0000
# 3 21.1581 21.1581 112.1698 0.0000 0.0000 0.0000
# 4 0.0000 0.0000 0.0000 27.4354 0.0000 0.0000
# 5 0.0000 0.0000 0.0000 0.0000 27.4354 0.0000
# 6 0.0000 0.0000 0.0000 0.0000 0.0000 12.0880
#
#
#
# Elastic Compliance Matrix: (Units=1/GPa)
#
#
# Indices 1 2 3 4 5 6 
#
# 1 0.014139 -0.005576 -0.001615 0.000000 0.000000 0.000000
# 2 -0.005576 0.014139 -0.001615 0.000000 0.000000 0.000000
# 3 -0.001615 -0.001615 0.009524 0.000000 0.000000 0.000000
# 4 0.000000 0.000000 0.000000 0.036449 0.000000 0.000000
# 5 0.000000 0.000000 0.000000 0.000000 0.036449 0.000000
# 6 0.000000 0.000000 0.000000 0.000000 0.000000 0.082726
#
#
# Mechanical properties :
#
#
# Convention : Reuss Voigt Hill
#
# Bulk Modulus (GPa) = 49.53091 49.59251 49.56171
# Shear Modulus (GPa) = 22.95997 27.27973 25.11985
#
# Velocity S-wave (km/s) = 3.33062 3.63044 3.48375
# Velocity P-wave (km/s) = 6.22264 6.44467 6.33463
#
# Compressibility (1/GPa) = 0.02018941
#
# Stress axis : x y z
#
# Youngs Moduli (GPa) = 70.72604 70.72604 104.99367
#
# Poissons Ratio (x) = 0.39438 0.16958
# Poissons Ratio (y) = 0.39438 0.16958
# Poissons Ratio (z) = 0.11424 0.11424
#
# Static dielectric constant tensor:
#      x y z
#    x 3.732770 0.000000 0.000000 
#    y 0.000000 3.732770 0.000000 
#    z 0.000000 0.000000 4.674120 
# 
# 
# High freq. dielectric constant tensor:
#      x y z
#    x 1.801560 0.000000 0.000000 
#    y 0.000000 1.801560 0.000000 
#    z 0.000000 0.000000 1.843150 
# 
# From -- ./inp_files/4850.got.cif
#   From: 2010.03.12/outbox.cif.g09.slc.cpg/sg95_3_cif.got.tgz:4850.got - 2010.04.08 20:51:55.
