data_PCOD8305567
_publ_section_title
;
Structure prediction by ZEFSAII (Michael W. Deem and Ramdas Pophale) SiO2 
 PCOD8305567
Probable space group: P 42 2 2
;
_chemical_formula_sum "Si O2"
_cell_formula_units_Z 34
_cell_length_a 11.649971
_cell_length_b 11.649971
_cell_length_c 13.800511
_cell_angle_alpha 90.000000
_cell_angle_beta 90.000000
_cell_angle_gamma 90.000000
_cell_volume 1873.030529
_symmetry_space_group_name_H-M "P 42 2 2"
_symmetry_group_IT_number 93
_symmetry_cell_setting 'tetragonal'
loop_
_space_group_symop_operation_xyz
x,y,z
-y,x,1/2+z
-x,-y,z
y,-x,1/2+z
x,-y,-z
-x,y,-z
y,x,1/2-z
-y,-x,1/2-z
loop_
_atom_site_type_symbol
_atom_site_label
_atom_site_fract_x
_atom_site_fract_y
_atom_site_fract_z
Si Si1 0.230991 0.621917 0.177485
Si Si2 0.500000 0.332243 0.500000
Si Si3 0.106002 0.421280 0.642798
Si Si4 0.000000 0.000000 0.500000
Si Si5 0.867268 0.163753 0.358902
Si Si6 0.500000 0.300146 0.000000
O O1 0.333751 0.666250 0.250000
O O2 0.262626 0.529183 0.096972
O O3 0.134073 0.561529 0.243659
O O4 0.178209 0.731700 0.122306
O O5 0.613323 0.400375 0.533912
O O6 0.072784 0.288086 0.624861
O O7 0.221205 0.456756 0.586760
O O8 0.000000 0.500000 0.609794
O O9 0.082132 0.075906 0.565392
O O10 0.884893 0.115108 0.250000
#
# Coordination Sequence:
#
# PCOD8305567 Si02
#       6
#     8   4   8   2   8   4
#     4   9  19  42  56  81 126 156 186 249 302 348
#     4  11  20  36  61  90 126 155 202 231 304 382
#     4  10  21  39  61  85 120 157 196 252 303 349
#     4  12  22  36  70  84 108 168 206 254 282 362
#     4   9  21  41  58  85 121 154 196 247 305 344
#     4  11  21  32  60  94 115 161 196 236 298 371
#
# _framework density 18.152401000000001
#
# number of rings (size 3 to 8) (size 9 to 14) (size 15 to 20)
#    0.000    2.588    4.706    0.706    3.294    0.941 
#    8.471    0.000   10.353    0.000    0.000    0.000 
#    0.000    0.000    0.000    0.000    0.000    0.000 
#
# Total GULP energy -421269.646405 kJ/mol
# GULP energy per Si atom -12390.283718 kJ/mol
# Density = 1.811109 g / cm^3
# Si number density = 18.152401 Si / 1000 Ang^3
#
#
#
# Elastic Constant Matrix: (Units=GPa)
#
#
# Indices 1 2 3 4 5 6 
#
# 1 110.7427 62.1001 70.0784 0.0000 0.0000 0.0000
# 2 62.1001 110.7431 70.0783 0.0000 0.0000 0.0000
# 3 70.0784 70.0783 113.9008 0.0000 0.0000 0.0000
# 4 0.0000 0.0000 0.0000 27.4133 0.0000 0.0000
# 5 0.0000 0.0000 0.0000 0.0000 27.4129 0.0000
# 6 0.0000 0.0000 0.0000 0.0000 0.0000 21.1102
#
#
#
# Elastic Compliance Matrix: (Units=1/GPa)
#
#
# Indices 1 2 3 4 5 6 
#
# 1 0.016052 -0.004506 -0.007104 0.000000 0.000000 0.000000
# 2 -0.004506 0.016052 -0.007104 0.000000 0.000000 0.000000
# 3 -0.007104 -0.007104 0.017521 0.000000 0.000000 0.000000
# 4 0.000000 0.000000 0.000000 0.036479 0.000000 0.000000
# 5 0.000000 0.000000 0.000000 0.000000 0.036479 0.000000
# 6 0.000000 0.000000 0.000000 0.000000 0.000000 0.047370
#
#
# Mechanical properties :
#
#
# Convention : Reuss Voigt Hill
#
# Bulk Modulus (GPa) = 81.98210 82.21113 82.09661
# Shear Modulus (GPa) = 23.64670 24.06261 23.85465
#
# Velocity S-wave (km/s) = 3.61318 3.64481 3.62903
# Velocity P-wave (km/s) = 7.91631 7.94359 7.92996
#
# Compressibility (1/GPa) = 0.01219778
#
# Stress axis : x y z
#
# Youngs Moduli (GPa) = 62.29732 62.29778 57.07491
#
# Poissons Ratio (x) = 0.28072 0.40545
# Poissons Ratio (y) = 0.28071 0.40544
# Poissons Ratio (z) = 0.44255 0.44254
#
# Static dielectric constant tensor:
#      x y z
#    x 3.325820 0.000000 0.000000 
#    y 0.000000 3.325830 0.000000 
#    z 0.000000 0.000000 3.373220 
# 
# 
# High freq. dielectric constant tensor:
#      x y z
#    x 1.694560 0.000000 0.000000 
#    y 0.000000 1.694560 0.000000 
#    z 0.000000 0.000000 1.706400 
# 
# From -- ./inp_files/4291.got.cif
#   From: 2010.03.12/outbox.cif.g09.slc.cpg/sg93_3_cif.got.tgz:4291.got - 2010.04.08 20:44:19.
