data_PCOD8305791
_publ_section_title
;
Structure prediction by ZEFSAII (Michael W. Deem and Ramdas Pophale) SiO2 
 PCOD8305791
Probable space group: P 42 21 2
;
_chemical_formula_sum "Si O2"
_cell_formula_units_Z 28
_cell_length_a 7.719886
_cell_length_b 7.719886
_cell_length_c 21.623498
_cell_angle_alpha 90.000000
_cell_angle_beta 90.000000
_cell_angle_gamma 90.000000
_cell_volume 1288.687823
_symmetry_space_group_name_H-M "P 42 21 2"
_symmetry_group_IT_number 94
_symmetry_cell_setting 'tetragonal'
loop_
_space_group_symop_operation_xyz
x,y,z
1/2-y,1/2+x,1/2+z
-x,-y,z
1/2+y,1/2-x,1/2+z
1/2+x,1/2-y,1/2-z
1/2-x,1/2+y,1/2-z
y,x,-z
-y,-x,-z
loop_
_atom_site_type_symbol
_atom_site_label
_atom_site_fract_x
_atom_site_fract_y
_atom_site_fract_z
Si Si1 0.804458 0.514092 0.677673
Si Si2 0.838614 0.875940 0.067472
Si Si3 0.000000 0.500000 0.375385
Si Si4 0.413042 0.678383 0.195377
O O1 0.771946 0.399749 0.616136
O O2 0.778006 0.720077 0.671157
O O3 0.682148 0.429485 0.730226
O O4 0.000000 0.500000 0.699935
O O5 0.673393 0.994147 0.083908
O O6 0.795099 0.795099 0.000000
O O7 0.000000 0.000000 0.062980
O O8 0.025581 0.669170 0.333498
O O9 0.500000 0.500000 0.171120
#
# Coordination Sequence:
#
# PCOD8305791 Si02
#       4
#     8   8   4   8
#     4  12  24  43  68 103 140 177 231 283 349 414
#     4  11  25  46  70  97 139 187 230 280 336 412
#     4  12  24  48  68 104 138 178 230 290 342 410
#     4  12  25  42  69 105 138 178 223 290 354 415
#
# _framework density 21.727526000000001
#
# number of rings (size 3 to 8) (size 9 to 14) (size 15 to 20)
#    0.000    0.286    4.286    6.000    2.000    0.000 
#    0.000    0.000    0.000    0.000    0.000    0.000 
#    0.000    0.000    0.000    0.000    0.000    0.000 
#
# Total GULP energy -347028.476154 kJ/mol
# GULP energy per Si atom -12393.874148 kJ/mol
# Density = 2.167807 g / cm^3
# Si number density = 21.727526 Si / 1000 Ang^3
#
#
#
# Elastic Constant Matrix: (Units=GPa)
#
#
# Indices 1 2 3 4 5 6 
#
# 1 130.7805 30.7251 47.1088 0.0000 0.0000 0.0000
# 2 30.7251 130.7805 47.1088 0.0000 0.0000 0.0000
# 3 47.1088 47.1088 126.4762 0.0000 0.0000 0.0000
# 4 0.0000 0.0000 0.0000 12.6625 0.0000 0.0000
# 5 0.0000 0.0000 0.0000 0.0000 12.6625 0.0000
# 6 0.0000 0.0000 0.0000 0.0000 0.0000 33.1882
#
#
#
# Elastic Compliance Matrix: (Units=1/GPa)
#
#
# Indices 1 2 3 4 5 6 
#
# 1 0.008953 -0.001042 -0.002946 0.000000 0.000000 0.000000
# 2 -0.001042 0.008953 -0.002946 0.000000 0.000000 0.000000
# 3 -0.002946 -0.002946 0.010102 0.000000 0.000000 0.000000
# 4 0.000000 0.000000 0.000000 0.078973 0.000000 0.000000
# 5 0.000000 0.000000 0.000000 0.000000 0.078973 0.000000
# 6 0.000000 0.000000 0.000000 0.000000 0.000000 0.030131
#
#
# Mechanical properties :
#
#
# Convention : Reuss Voigt Hill
#
# Bulk Modulus (GPa) = 70.73684 70.88029 70.80857
# Shear Modulus (GPa) = 21.30686 29.24229 25.27458
#
# Velocity S-wave (km/s) = 3.13491 3.67258 3.41435
# Velocity P-wave (km/s) = 6.76244 7.11878 6.94289
#
# Compressibility (1/GPa) = 0.01413691
#
# Stress axis : x y z
#
# Youngs Moduli (GPa) = 111.70010 111.70010 98.99429
#
# Poissons Ratio (x) = 0.11638 0.29169
# Poissons Ratio (y) = 0.11638 0.29169
# Poissons Ratio (z) = 0.32912 0.32912
#
# Static dielectric constant tensor:
#      x y z
#    x 3.928400 0.000000 0.000000 
#    y 0.000000 3.928400 0.000000 
#    z 0.000000 0.000000 4.576590 
# 
# 
# High freq. dielectric constant tensor:
#      x y z
#    x 1.862080 0.000000 0.000000 
#    y 0.000000 1.862080 0.000000 
#    z 0.000000 0.000000 1.841150 
# 
# From -- ./inp_files/3855.got.cif
#   From: 2010.03.12/outbox.cif.g09.slc.cpg/sg94_2_cif.got.tgz:3855.got - 2010.04.08 20:48:32.
