data_PCOD8305758
_publ_section_title
;
Structure prediction by ZEFSAII (Michael W. Deem and Ramdas Pophale) SiO2 
 PCOD8305758
Probable space group: P 42 21 2
;
_chemical_formula_sum "Si O2"
_cell_formula_units_Z 36
_cell_length_a 8.770916
_cell_length_b 8.770916
_cell_length_c 20.646480
_cell_angle_alpha 90.000000
_cell_angle_beta 90.000000
_cell_angle_gamma 90.000000
_cell_volume 1588.312388
_symmetry_space_group_name_H-M "P 42 21 2"
_symmetry_group_IT_number 94
_symmetry_cell_setting 'tetragonal'
loop_
_space_group_symop_operation_xyz
x,y,z
1/2-y,1/2+x,1/2+z
-x,-y,z
1/2+y,1/2-x,1/2+z
1/2+x,1/2-y,1/2-z
1/2-x,1/2+y,1/2-z
y,x,-z
-y,-x,-z
loop_
_atom_site_type_symbol
_atom_site_label
_atom_site_fract_x
_atom_site_fract_y
_atom_site_fract_z
Si Si1 0.176878 0.220848 0.663526
Si Si2 0.782392 0.674082 0.200646
Si Si3 0.003888 0.821330 0.116117
Si Si4 0.220919 0.220919 0.000000
Si Si5 0.558090 0.827305 0.109239
O O1 0.293133 0.236164 0.723984
O O2 0.249646 0.328521 0.607926
O O3 0.000581 0.242142 0.683234
O O4 0.195332 0.058210 0.629902
O O5 0.952528 0.715633 0.177537
O O6 0.694402 0.803847 0.159675
O O7 0.918086 0.790315 0.049503
O O8 0.000000 0.000000 0.133576
O O9 0.382366 0.207221 0.036694
O O10 0.500000 0.000000 0.115502
#
# Coordination Sequence:
#
# PCOD8305758 Si02
#       5
#     8   8   8   4   8
#     4  12  23  42  70 100 136 176 222 284 349 412
#     4  11  24  42  66 102 138 173 222 279 349 420
#     4  11  23  43  67  94 129 178 229 279 341 412
#     4  10  25  46  65  92 132 174 226 276 336 408
#     4  11  24  44  67  96 133 179 229 285 345 412
#
# _framework density 22.665565999999998
#
# number of rings (size 3 to 8) (size 9 to 14) (size 15 to 20)
#    0.000    0.889    0.000    8.333    0.000    3.556 
#    0.000   15.556    0.000    0.000    0.000    0.000 
#    0.000    0.000    0.000    0.000    0.000    0.000 
#
# Total GULP energy -446172.584458 kJ/mol
# GULP energy per Si atom -12393.682902 kJ/mol
# Density = 2.261398 g / cm^3
# Si number density = 22.665566 Si / 1000 Ang^3
#
#
#
# Elastic Constant Matrix: (Units=GPa)
#
#
# Indices 1 2 3 4 5 6 
#
# 1 101.9169 43.0679 51.2329 0.0000 0.0000 0.0000
# 2 43.0679 101.9169 51.2329 0.0000 0.0000 0.0000
# 3 51.2329 51.2329 127.4833 0.0000 0.0000 0.0000
# 4 0.0000 0.0000 0.0000 27.3334 0.0000 0.0000
# 5 0.0000 0.0000 0.0000 0.0000 27.3334 0.0000
# 6 0.0000 0.0000 0.0000 0.0000 0.0000 47.3101
#
#
#
# Elastic Compliance Matrix: (Units=1/GPa)
#
#
# Indices 1 2 3 4 5 6 
#
# 1 0.013313 -0.003680 -0.003871 0.000000 0.000000 0.000000
# 2 -0.003680 0.013313 -0.003871 0.000000 0.000000 0.000000
# 3 -0.003871 -0.003871 0.010956 0.000000 0.000000 0.000000
# 4 0.000000 0.000000 0.000000 0.036585 0.000000 0.000000
# 5 0.000000 0.000000 0.000000 0.000000 0.036585 0.000000
# 6 0.000000 0.000000 0.000000 0.000000 0.000000 0.021137
#
#
# Mechanical properties :
#
#
# Convention : Reuss Voigt Hill
#
# Bulk Modulus (GPa) = 67.85732 69.15383 68.50558
# Shear Modulus (GPa) = 31.31912 32.78095 32.05003
#
# Velocity S-wave (km/s) = 3.72128 3.80714 3.76445
# Velocity P-wave (km/s) = 6.96185 7.06417 7.01320
#
# Compressibility (1/GPa) = 0.01473680
#
# Stress axis : x y z
#
# Youngs Moduli (GPa) = 75.11460 75.11460 91.27521
#
# Poissons Ratio (x) = 0.27639 0.35337
# Poissons Ratio (y) = 0.27639 0.35337
# Poissons Ratio (z) = 0.29080 0.29080
#
# Static dielectric constant tensor:
#      x y z
#    x 4.261860 0.000000 0.000000 
#    y 0.000000 4.261860 0.000000 
#    z 0.000000 0.000000 4.027780 
# 
# 
# High freq. dielectric constant tensor:
#      x y z
#    x 1.908530 0.000000 0.000000 
#    y 0.000000 1.908530 0.000000 
#    z 0.000000 0.000000 1.887990 
# 
# From -- ./inp_files/4532.got.cif
#   From: 2010.03.12/outbox.cif.g09.slc.cpg/sg94_3_cif.got.tgz:4532.got - 2010.04.08 20:48:32.
