data_PCOD8305371
_publ_section_title
;
Structure prediction by ZEFSAII (Michael W. Deem and Ramdas Pophale) SiO2 
 PCOD8305371
Probable space group: P 41 21 2
;
_chemical_formula_sum "Si O2"
_cell_formula_units_Z 44
_cell_length_a 11.059864
_cell_length_b 11.059864
_cell_length_c 16.819726
_cell_angle_alpha 90.000000
_cell_angle_beta 90.000000
_cell_angle_gamma 90.000000
_cell_volume 2057.398837
_symmetry_space_group_name_H-M "P 41 21 2"
_symmetry_group_IT_number 92
_symmetry_cell_setting 'tetragonal'
loop_
_space_group_symop_operation_xyz
x,y,z
1/2-y,1/2+x,1/4+z
-x,-y,1/2+z
1/2+y,1/2-x,3/4+z
1/2+x,1/2-y,3/4-z
1/2-x,1/2+y,1/4-z
y,x,-z
-y,-x,1/2-z
loop_
_atom_site_type_symbol
_atom_site_label
_atom_site_fract_x
_atom_site_fract_y
_atom_site_fract_z
Si Si1 0.016885 0.567917 0.141821
Si Si2 0.159152 0.159152 0.000000
Si Si3 0.904640 0.095361 0.250000
Si Si4 0.563656 0.527354 0.628340
Si Si5 0.627420 0.114016 0.257709
Si Si6 0.921092 0.299496 0.791565
Si Si7 0.619099 0.380902 0.250000
O O1 0.912771 0.613385 0.083870
O O2 0.977478 0.451552 0.191801
O O3 0.134941 0.522398 0.094738
O O4 0.041832 0.683128 0.198809
O O5 0.060281 0.144632 0.931935
O O6 0.286924 0.144011 0.953927
O O7 0.763628 0.067072 0.258291
O O8 0.958756 0.037762 0.170675
O O9 0.658785 0.589967 0.567774
O O10 0.492020 0.617181 0.687454
O O11 0.613265 0.249794 0.292919
#
# Coordination Sequence:
#
# PCOD8305371 Si02
#       7
#     8   4   4   8   8   8   4
#     4  10  22  40  64  91 123 170 214 261 319 379
#     4  11  23  41  61  96 132 168 217 265 323 381
#     4  11  23  41  63  90 124 166 205 267 323 373
#     4  11  24  40  64  95 130 168 212 265 321 385
#     4  10  22  42  63  90 126 165 214 266 317 383
#     4  11  22  40  63  94 128 168 213 266 315 387
#     4  10  24  40  62  94 126 166 210 266 312 386
#
# _framework density 21.386226000000001
#
# number of rings (size 3 to 8) (size 9 to 14) (size 15 to 20)
#    0.000    1.455    1.818    2.727    5.091    0.000 
#    0.000    0.000    0.000    0.000    0.000    0.000 
#    0.000    0.000    0.000    0.000    0.000    0.000 
#
# Total GULP energy -545467.155333 kJ/mol
# GULP energy per Si atom -12396.980803 kJ/mol
# Density = 2.133755 g / cm^3
# Si number density = 21.386226 Si / 1000 Ang^3
#
#
#
# Elastic Constant Matrix: (Units=GPa)
#
#
# Indices 1 2 3 4 5 6 
#
# 1 68.1810 11.0364 16.2757 0.0000 0.0000 0.0000
# 2 11.0364 68.1814 16.2761 0.0000 0.0000 0.0000
# 3 16.2757 16.2761 83.7035 0.0000 0.0000 0.0000
# 4 0.0000 0.0000 0.0000 31.3285 0.0000 0.0000
# 5 0.0000 0.0000 0.0000 0.0000 31.3285 0.0000
# 6 0.0000 0.0000 0.0000 0.0000 0.0000 36.0646
#
#
#
# Elastic Compliance Matrix: (Units=1/GPa)
#
#
# Indices 1 2 3 4 5 6 
#
# 1 0.015610 -0.001890 -0.002668 0.000000 0.000000 0.000000
# 2 -0.001890 0.015610 -0.002668 0.000000 0.000000 0.000000
# 3 -0.002668 -0.002668 0.012984 0.000000 0.000000 0.000000
# 4 0.000000 0.000000 0.000000 0.031920 0.000000 0.000000
# 5 0.000000 0.000000 0.000000 0.000000 0.031920 0.000000
# 6 0.000000 0.000000 0.000000 0.000000 0.000000 0.027728
#
#
# Mechanical properties :
#
#
# Convention : Reuss Voigt Hill
#
# Bulk Modulus (GPa) = 33.61032 34.13802 33.87417
# Shear Modulus (GPa) = 31.22279 31.50950 31.36614
#
# Velocity S-wave (km/s) = 3.82507 3.84259 3.83384
# Velocity P-wave (km/s) = 5.93786 5.97366 5.95579
#
# Compressibility (1/GPa) = 0.02975277
#
# Stress axis : x y z
#
# Youngs Moduli (GPa) = 64.06327 64.06348 77.01551
#
# Poissons Ratio (x) = 0.12107 0.20545
# Poissons Ratio (y) = 0.12107 0.20546
# Poissons Ratio (z) = 0.17090 0.17091
#
# Static dielectric constant tensor:
#      x y z
#    x 3.789670 0.000000 0.000000 
#    y 0.000000 3.789670 0.000000 
#    z 0.000000 0.000000 3.926470 
# 
# 
# High freq. dielectric constant tensor:
#      x y z
#    x 1.843130 0.000000 0.000000 
#    y 0.000000 1.843130 0.000000 
#    z 0.000000 0.000000 1.844070 
# 
# From -- ./inp_files/3075.got.cif
#   From: 2010.03.12/outbox.cif.g09.slc.cpg/sg92_2_cif.got.tgz:3075.got - 2010.04.08 20:41:11.
