data_PCOD8305913
_publ_section_title
;
Structure prediction by ZEFSAII (Michael W. Deem and Ramdas Pophale) SiO2 
 PCOD8305913
Probable space group: P 43 21 2
;
_chemical_formula_sum "Si O2"
_cell_formula_units_Z 48
_cell_length_a 8.057801
_cell_length_b 8.057801
_cell_length_c 31.761152
_cell_angle_alpha 90.000000
_cell_angle_beta 90.000000
_cell_angle_gamma 90.000000
_cell_volume 2062.193062
_symmetry_space_group_name_H-M "P 43 21 2"
_symmetry_group_IT_number 96
_symmetry_cell_setting 'tetragonal'
loop_
_space_group_symop_operation_xyz
x,y,z
1/2-y,1/2+x,3/4+z
-x,-y,1/2+z
1/2+y,1/2-x,1/4+z
1/2+x,1/2-y,1/4-z
1/2-x,1/2+y,3/4-z
y,x,-z
-y,-x,1/2-z
loop_
_atom_site_type_symbol
_atom_site_label
_atom_site_fract_x
_atom_site_fract_y
_atom_site_fract_z
Si Si1 0.866271 0.798091 0.673847
Si Si2 0.413134 0.882501 0.773521
Si Si3 0.451586 0.400753 0.710340
Si Si4 0.622114 0.541698 0.633420
Si Si5 0.258223 0.502736 0.497954
Si Si6 0.764973 0.439953 0.549171
O O1 0.719934 0.686999 0.656030
O O2 0.764316 0.907507 0.707042
O O3 0.025640 0.703239 0.693093
O O4 0.947637 0.903638 0.636765
O O5 0.460889 0.696218 0.787520
O O6 0.579509 0.990604 0.772474
O O7 0.328653 0.894918 0.726406
O O8 0.570069 0.429932 0.750000
O O9 0.563588 0.410620 0.668499
O O10 0.383391 0.213929 0.712715
O O11 0.751134 0.466427 0.599191
O O12 0.309124 0.309124 0.500000
O O13 0.397010 0.581475 0.466921
#
# Coordination Sequence:
#
# PCOD8305913 Si02
#       6
#     8   8   8   8   8   8
#     4  11  25  41  66 100 136 178 235 288 348 421
#     4  10  23  41  69  99 130 185 230 282 354 415
#     4  11  25  46  72  98 142 187 237 285 356 430
#     4  12  25  44  69 104 141 181 237 296 349 416
#     4  10  20  42  66  94 133 177 229 273 349 412
#     4  10  24  43  67  99 135 181 230 289 344 415
#
# _framework density 23.276191000000001
#
# number of rings (size 3 to 8) (size 9 to 14) (size 15 to 20)
#    0.000    1.333    1.667    4.000    7.000    4.667 
#    3.000    0.000    0.000    0.000    0.000    0.000 
#    0.000    0.000    0.000    0.000    0.000    0.000 
#
# Total GULP energy -595069.272048 kJ/mol
# GULP energy per Si atom -12397.276501 kJ/mol
# Density = 2.322321 g / cm^3
# Si number density = 23.276191 Si / 1000 Ang^3
#
#
#
# Elastic Constant Matrix: (Units=GPa)
#
#
# Indices 1 2 3 4 5 6 
#
# 1 24.8641 5.1246 19.0263 0.0000 0.0000 0.0000
# 2 5.1246 24.8644 19.0262 0.0000 0.0000 0.0000
# 3 19.0263 19.0262 138.2286 0.0000 0.0000 0.0000
# 4 0.0000 0.0000 0.0000 28.8426 0.0000 0.0000
# 5 0.0000 0.0000 0.0000 0.0000 28.8426 0.0000
# 6 0.0000 0.0000 0.0000 0.0000 0.0000 38.5086
#
#
#
# Elastic Compliance Matrix: (Units=1/GPa)
#
#
# Indices 1 2 3 4 5 6 
#
# 1 0.045531 -0.005129 -0.005561 0.000000 0.000000 0.000000
# 2 -0.005129 0.045531 -0.005561 0.000000 0.000000 0.000000
# 3 -0.005561 -0.005561 0.008765 0.000000 0.000000 0.000000
# 4 0.000000 0.000000 0.000000 0.034671 0.000000 0.000000
# 5 0.000000 0.000000 0.000000 0.000000 0.034671 0.000000
# 6 0.000000 0.000000 0.000000 0.000000 0.000000 0.025968
#
#
# Mechanical properties :
#
#
# Convention : Reuss Voigt Hill
#
# Bulk Modulus (GPa) = 14.85329 30.47905 22.66617
# Shear Modulus (GPa) = 19.99354 28.89074 24.44214
#
# Velocity S-wave (km/s) = 2.93400 3.52691 3.24403
# Velocity P-wave (km/s) = 4.22764 5.45054 4.87757
#
# Compressibility (1/GPa) = 0.06732517
#
# Stress axis : x y z
#
# Youngs Moduli (GPa) = 21.96296 21.96329 114.08631
#
# Poissons Ratio (x) = 0.11264 0.63445
# Poissons Ratio (y) = 0.11264 0.63444
# Poissons Ratio (z) = 0.12214 0.12214
#
# Static dielectric constant tensor:
#      x y z
#    x 4.160030 0.000000 0.000000 
#    y 0.000000 4.160030 0.000000 
#    z 0.000000 0.000000 4.325440 
# 
# 
# High freq. dielectric constant tensor:
#      x y z
#    x 1.925740 0.000000 0.000000 
#    y 0.000000 1.925740 0.000000 
#    z 0.000000 0.000000 1.921550 
# 
# From -- ./inp_files/4502.got.cif
#   From: 2010.03.12/outbox.cif.g09.slc.cpg/sg96_3_cif.got.tgz:4502.got - 2010.04.08 20:56:49.
