data_PCOD8305542
_publ_section_title
;
Structure prediction by ZEFSAII (Michael W. Deem and Ramdas Pophale) SiO2 
 PCOD8305542
Probable space group: P 42 2 2
;
_chemical_formula_sum "Si O2"
_cell_formula_units_Z 64
_cell_length_a 20.462779
_cell_length_b 20.462779
_cell_length_c 8.745786
_cell_angle_alpha 90.000000
_cell_angle_beta 90.000000
_cell_angle_gamma 90.000000
_cell_volume 3662.082080
_symmetry_space_group_name_H-M "P 42 2 2"
_symmetry_group_IT_number 93
_symmetry_cell_setting 'tetragonal'
loop_
_space_group_symop_operation_xyz
x,y,z
-y,x,1/2+z
-x,-y,z
y,-x,1/2+z
x,-y,-z
-x,y,-z
y,x,1/2-z
-y,-x,1/2-z
loop_
_atom_site_type_symbol
_atom_site_label
_atom_site_fract_x
_atom_site_fract_y
_atom_site_fract_z
Si Si1 0.360459 0.069138 0.823202
Si Si2 0.504568 0.099697 0.321927
Si Si3 0.620215 0.292985 0.666450
Si Si4 0.280360 0.818205 0.325346
Si Si5 0.612146 0.707742 0.674959
Si Si6 0.767349 0.497394 0.676079
Si Si7 0.077391 0.635389 0.671583
Si Si8 0.274406 0.184542 0.334059
O O1 0.430738 0.064293 0.739554
O O2 0.303789 0.114848 0.754147
O O3 0.333669 0.994929 0.814107
O O4 0.373225 0.095104 0.994054
O O5 0.500000 0.084359 0.500000
O O6 0.516728 0.175425 0.291685
O O7 0.436848 0.078688 0.243830
O O8 0.639608 0.360393 0.750000
O O9 0.589527 0.306946 0.499546
O O10 0.574758 0.255464 0.784987
O O11 0.683931 0.249638 0.640689
O O12 0.217454 0.782547 0.250000
O O13 0.343475 0.772048 0.317483
O O14 0.258455 0.839753 0.495213
O O15 0.647129 0.647129 0.750000
O O16 0.549290 0.711833 0.784285
O O17 0.789204 0.500000 0.500000
O O18 0.128674 0.685789 0.745183
O O19 0.206846 0.206846 0.250000
#
# Coordination Sequence:
#
# PCOD8305542 Si02
#       8
#     8   8   8   8   8   8   8   8
#     4  11  23  37  53  75 106 143 180 217 259 308
#     4  12  23  35  50  73 103 141 181 218 257 303
#     4  10  20  34  52  75 100 128 165 211 260 310
#     4  10  20  34  54  76 103 135 172 216 260 304
#     4  10  20  34  52  75 100 128 165 211 260 310
#     4  12  22  33  53  75 101 133 167 212 259 308
#     4  11  23  37  53  75 106 143 180 217 259 308
#     4  10  20  34  54  76 103 135 172 216 260 304
#
# _framework density 17.476396000000001
#
# number of rings (size 3 to 8) (size 9 to 14) (size 15 to 20)
#    0.000    1.250    2.500    4.875    0.000    5.500 
#    0.000    0.000    0.000    0.375    0.000    2.625 
#    0.000    0.500    0.000    5.250    0.000    2.250 
#
# Total GULP energy -793327.420923 kJ/mol
# GULP energy per Si atom -12395.740952 kJ/mol
# Density = 1.743662 g / cm^3
# Si number density = 17.476396 Si / 1000 Ang^3
#
#
#
# Elastic Constant Matrix: (Units=GPa)
#
#
# Indices 1 2 3 4 5 6 
#
# 1 54.9857 38.9926 39.8057 0.0000 0.0000 0.0000
# 2 38.9926 54.9684 39.8076 0.0000 0.0000 0.0000
# 3 39.8057 39.8076 148.2023 0.0000 0.0000 0.0000
# 4 0.0000 0.0000 0.0000 22.8504 0.0000 0.0000
# 5 0.0000 0.0000 0.0000 0.0000 22.8529 0.0000
# 6 0.0000 0.0000 0.0000 0.0000 0.0000 3.5194
#
#
#
# Elastic Compliance Matrix: (Units=1/GPa)
#
#
# Indices 1 2 3 4 5 6 
#
# 1 0.038161 -0.024392 -0.003698 0.000000 0.000000 0.000000
# 2 -0.024392 0.038177 -0.003703 0.000000 0.000000 0.000000
# 3 -0.003698 -0.003703 0.008735 0.000000 0.000000 0.000000
# 4 0.000000 0.000000 0.000000 0.043763 0.000000 0.000000
# 5 0.000000 0.000000 0.000000 0.000000 0.043758 0.000000
# 6 0.000000 0.000000 0.000000 0.000000 0.000000 0.284138
#
#
# Mechanical properties :
#
#
# Convention : Reuss Voigt Hill
#
# Bulk Modulus (GPa) = 46.53899 55.04092 50.78996
# Shear Modulus (GPa) = 9.47903 19.14791 14.31347
#
# Velocity S-wave (km/s) = 2.33145 3.31364 2.86495
# Velocity P-wave (km/s) = 5.82538 6.79729 6.33001
#
# Compressibility (1/GPa) = 0.02148736
#
# Stress axis : x y z
#
# Youngs Moduli (GPa) = 26.20477 26.19392 114.47714
#
# Poissons Ratio (x) = 0.63892 0.42332
# Poissons Ratio (y) = 0.63919 0.42390
# Poissons Ratio (z) = 0.09690 0.09699
#
# Static dielectric constant tensor:
#      x y z
#    x 3.339770 0.000000 0.000000 
#    y 0.000000 3.339690 0.000000 
#    z 0.000000 0.000000 3.509720 
# 
# 
# High freq. dielectric constant tensor:
#      x y z
#    x 1.650760 0.000000 0.000000 
#    y 0.000000 1.650760 0.000000 
#    z 0.000000 0.000000 1.699310 
# 
# From -- ./inp_files/2286.got.cif
#   From: 2010.03.12/outbox.cif.g09.slc.cpg/sg93_2_cif.got.tgz:2286.got - 2010.04.08 20:44:19.
