data_PCOD8305340
_publ_section_title
;
Structure prediction by ZEFSAII (Michael W. Deem and Ramdas Pophale) SiO2 
 PCOD8305340
Probable space group: P 41 21 2
;
_chemical_formula_sum "Si O2"
_cell_formula_units_Z 60
_cell_length_a 11.428656
_cell_length_b 11.428656
_cell_length_c 22.071373
_cell_angle_alpha 90.000000
_cell_angle_beta 90.000000
_cell_angle_gamma 90.000000
_cell_volume 2882.834241
_symmetry_space_group_name_H-M "P 41 21 2"
_symmetry_group_IT_number 92
_symmetry_cell_setting 'tetragonal'
loop_
_space_group_symop_operation_xyz
x,y,z
1/2-y,1/2+x,1/4+z
-x,-y,1/2+z
1/2+y,1/2-x,3/4+z
1/2+x,1/2-y,3/4-z
1/2-x,1/2+y,1/4-z
y,x,-z
-y,-x,1/2-z
loop_
_atom_site_type_symbol
_atom_site_label
_atom_site_fract_x
_atom_site_fract_y
_atom_site_fract_z
Si Si1 0.405992 0.123651 0.486339
Si Si2 0.638129 0.587345 0.068342
Si Si3 0.598719 0.300787 0.872060
Si Si4 0.475996 0.094876 0.943241
Si Si5 0.477255 0.783039 0.098248
Si Si6 0.507926 0.592254 0.635653
Si Si7 0.353983 0.646018 0.750000
Si Si8 0.372629 0.235175 0.046054
O O1 0.411479 0.221428 0.433362
O O2 0.506360 0.139957 0.537568
O O3 0.280718 0.128071 0.520527
O O4 0.426815 0.004396 0.450581
O O5 0.591556 0.699384 0.107040
O O6 0.592243 0.465976 0.094902
O O7 0.592243 0.592243 0.000000
O O8 0.534899 0.200434 0.908592
O O9 0.694259 0.368742 0.912999
O O10 0.498572 0.388570 0.848425
O O11 0.670973 0.245707 0.816889
O O12 0.363638 0.044834 0.906944
O O13 0.446189 0.137461 0.010814
O O14 0.447583 0.627962 0.697632
O O15 0.556613 0.708034 0.601939
O O16 0.339288 0.339288 0.000000
#
# Coordination Sequence:
#
# PCOD8305340 Si02
#       8
#     8   8   8   8   8   8   4   8
#     4  11  24  43  65  97 139 179 233 288 352 414
#     4   9  20  41  70  95 133 184 237 287 343 424
#     4  11  23  42  64 100 139 178 233 289 354 421
#     4  12  25  40  70  99 142 184 233 290 355 427
#     4  10  21  42  65  94 133 180 224 287 343 413
#     4  11  25  42  72  99 137 185 237 289 368 419
#     4  12  26  46  66 102 142 174 230 308 340 428
#     4  12  23  44  69  99 140 185 232 296 351 428
#
# _framework density 20.812850000000001
#
# number of rings (size 3 to 8) (size 9 to 14) (size 15 to 20)
#    0.000    1.067    4.667    2.000    6.533    0.000 
#    0.000    2.667    0.000    0.000    0.000    0.000 
#    0.000    0.000    0.000    0.000    0.000    0.000 
#
# Total GULP energy -743880.010271 kJ/mol
# GULP energy per Si atom -12398.000171 kJ/mol
# Density = 2.076548 g / cm^3
# Si number density = 20.812850 Si / 1000 Ang^3
#
#
#
# Elastic Constant Matrix: (Units=GPa)
#
#
# Indices 1 2 3 4 5 6 
#
# 1 117.4730 64.7684 54.5725 0.0000 0.0000 0.0000
# 2 64.7684 117.4731 54.5722 0.0000 0.0000 0.0000
# 3 54.5725 54.5722 96.2919 0.0000 0.0000 0.0000
# 4 0.0000 0.0000 0.0000 38.1314 0.0000 0.0000
# 5 0.0000 0.0000 0.0000 0.0000 38.1316 0.0000
# 6 0.0000 0.0000 0.0000 0.0000 0.0000 34.5642
#
#
#
# Elastic Compliance Matrix: (Units=1/GPa)
#
#
# Indices 1 2 3 4 5 6 
#
# 1 0.013640 -0.005333 -0.004708 0.000000 0.000000 0.000000
# 2 -0.005333 0.013640 -0.004708 0.000000 0.000000 0.000000
# 3 -0.004708 -0.004708 0.015721 0.000000 0.000000 0.000000
# 4 0.000000 0.000000 0.000000 0.026225 0.000000 0.000000
# 5 0.000000 0.000000 0.000000 0.000000 0.026225 0.000000
# 6 0.000000 0.000000 0.000000 0.000000 0.000000 0.028932
#
#
# Mechanical properties :
#
#
# Convention : Reuss Voigt Hill
#
# Bulk Modulus (GPa) = 74.05392 75.45157 74.75275
# Shear Modulus (GPa) = 31.56918 32.65377 32.11148
#
# Velocity S-wave (km/s) = 3.89885 3.96526 3.93220
# Velocity P-wave (km/s) = 7.47838 7.56938 7.52402
#
# Compressibility (1/GPa) = 0.01350367
#
# Stress axis : x y z
#
# Youngs Moduli (GPa) = 73.31270 73.31302 63.60847
#
# Poissons Ratio (x) = 0.39101 0.29945
# Poissons Ratio (y) = 0.39101 0.29945
# Poissons Ratio (z) = 0.34514 0.34513
#
# Static dielectric constant tensor:
#      x y z
#    x 4.035400 0.000000 0.000000 
#    y 0.000000 4.035390 0.000000 
#    z 0.000000 0.000000 3.645090 
# 
# 
# High freq. dielectric constant tensor:
#      x y z
#    x 1.826630 0.000000 0.000000 
#    y 0.000000 1.826630 0.000000 
#    z 0.000000 0.000000 1.793680 
# 
# From -- ./inp_files/3613.got.cif
#   From: 2010.03.12/outbox.cif.g09.slc.cpg/sg92_2_cif.got.tgz:3613.got - 2010.04.08 20:41:11.
