data_PCOD8305216
_publ_section_title
;
Structure prediction by ZEFSAII (Michael W. Deem and Ramdas Pophale) SiO2 
 PCOD8305216
Probable space group: P 41 21 2
;
_chemical_formula_sum "Si O2"
_cell_formula_units_Z 56
_cell_length_a 15.107500
_cell_length_b 15.107500
_cell_length_c 11.875048
_cell_angle_alpha 90.000000
_cell_angle_beta 90.000000
_cell_angle_gamma 90.000000
_cell_volume 2710.320061
_symmetry_space_group_name_H-M "P 41 21 2"
_symmetry_group_IT_number 92
_symmetry_cell_setting 'tetragonal'
loop_
_space_group_symop_operation_xyz
x,y,z
1/2-y,1/2+x,1/4+z
-x,-y,1/2+z
1/2+y,1/2-x,3/4+z
1/2+x,1/2-y,3/4-z
1/2-x,1/2+y,1/4-z
y,x,-z
-y,-x,1/2-z
loop_
_atom_site_type_symbol
_atom_site_label
_atom_site_fract_x
_atom_site_fract_y
_atom_site_fract_z
Si Si1 0.631745 0.829963 0.369219
Si Si2 0.860827 0.984127 0.447577
Si Si3 0.691987 0.933655 0.572554
Si Si4 0.221049 0.650653 0.943761
Si Si5 0.783274 0.913206 0.234455
Si Si6 0.175814 0.851902 0.479324
Si Si7 0.450965 0.697148 0.741029
O O1 0.633392 0.865528 0.497906
O O2 0.534496 0.840740 0.316932
O O3 0.689392 0.896239 0.293371
O O4 0.668817 0.727519 0.364682
O O5 0.955976 0.955976 0.500000
O O6 0.791669 0.929412 0.525198
O O7 0.850184 0.964214 0.316239
O O8 0.846497 0.088083 0.447797
O O9 0.684195 0.904722 0.701555
O O10 0.323477 0.667551 0.958799
O O11 0.221304 0.596073 0.826448
O O12 0.166701 0.741991 0.936779
O O13 0.768572 0.967296 0.118680
O O14 0.181848 0.952609 0.431278
O O15 0.393193 0.606808 0.750000
#
# Coordination Sequence:
#
# PCOD8305216 Si02
#       7
#     8   8   8   8   8   8   8
#     4   9  21  39  63  93 121 157 216 257 325 375
#     4  10  18  36  62  94 124 151 206 265 322 369
#     4  10  20  38  63  90 122 160 203 265 311 377
#     4  10  21  39  58  85 125 165 197 251 317 371
#     4   9  19  39  60  85 123 169 195 254 319 377
#     4  10  22  38  61  96 116 167 214 258 318 397
#     4  10  22  42  59  86 134 166 207 257 327 385
#
# _framework density 20.661767000000001
#
# number of rings (size 3 to 8) (size 9 to 14) (size 15 to 20)
#    0.000    2.286    1.429    0.429    2.000    0.571 
#   20.571    1.429    0.000    0.000    0.000    0.000 
#    0.000    0.000    0.000    0.000    0.000    0.000 
#
# Total GULP energy -693923.952048 kJ/mol
# GULP energy per Si atom -12391.499144 kJ/mol
# Density = 2.061474 g / cm^3
# Si number density = 20.661767 Si / 1000 Ang^3
#
#
#
# Elastic Constant Matrix: (Units=GPa)
#
#
# Indices 1 2 3 4 5 6 
#
# 1 95.2593 34.8106 37.3565 0.0000 0.0000 0.0000
# 2 34.8106 95.2594 37.3566 0.0000 0.0000 0.0000
# 3 37.3565 37.3566 134.6492 0.0000 0.0000 0.0000
# 4 0.0000 0.0000 0.0000 16.7912 0.0000 0.0000
# 5 0.0000 0.0000 0.0000 0.0000 16.7910 0.0000
# 6 0.0000 0.0000 0.0000 0.0000 0.0000 24.6773
#
#
#
# Elastic Compliance Matrix: (Units=1/GPa)
#
#
# Indices 1 2 3 4 5 6 
#
# 1 0.012844 -0.003699 -0.002537 0.000000 0.000000 0.000000
# 2 -0.003699 0.012844 -0.002537 0.000000 0.000000 0.000000
# 3 -0.002537 -0.002537 0.008835 0.000000 0.000000 0.000000
# 4 0.000000 0.000000 0.000000 0.059555 0.000000 0.000000
# 5 0.000000 0.000000 0.000000 0.000000 0.059556 0.000000
# 6 0.000000 0.000000 0.000000 0.000000 0.000000 0.040523
#
#
# Mechanical properties :
#
#
# Convention : Reuss Voigt Hill
#
# Bulk Modulus (GPa) = 58.90480 60.46838 59.68659
# Shear Modulus (GPa) = 23.00306 26.02818 24.51562
#
# Velocity S-wave (km/s) = 3.34026 3.55311 3.44833
# Velocity P-wave (km/s) = 6.59146 6.79428 6.69364
#
# Compressibility (1/GPa) = 0.01697654
#
# Stress axis : x y z
#
# Youngs Moduli (GPa) = 77.85563 77.85566 113.19126
#
# Poissons Ratio (x) = 0.28796 0.28720
# Poissons Ratio (y) = 0.28796 0.28720
# Poissons Ratio (z) = 0.19755 0.19755
#
# Static dielectric constant tensor:
#      x y z
#    x 3.714820 0.000000 0.000000 
#    y 0.000000 3.714810 0.000000 
#    z 0.000000 0.000000 3.959540 
# 
# 
# High freq. dielectric constant tensor:
#      x y z
#    x 1.800050 0.000000 0.000000 
#    y 0.000000 1.800050 0.000000 
#    z 0.000000 0.000000 1.796470 
# 
# From -- ./inp_files/2280.got.cif
#   From: 2010.03.12/outbox.cif.g09.slc.cpg/sg92_2_cif.got.tgz:2280.got - 2010.04.08 20:41:11.
