data_PCOD8305813
_publ_section_title
;
Structure prediction by ZEFSAII (Michael W. Deem and Ramdas Pophale) SiO2 
 PCOD8305813
Probable space group: P 43 2 2
;
_chemical_formula_sum "Si O2"
_cell_formula_units_Z 40
_cell_length_a 11.368744
_cell_length_b 11.368744
_cell_length_c 16.681047
_cell_angle_alpha 90.000000
_cell_angle_beta 90.000000
_cell_angle_gamma 90.000000
_cell_volume 2155.997637
_symmetry_space_group_name_H-M "P 43 2 2"
_symmetry_group_IT_number 95
_symmetry_cell_setting 'tetragonal'
loop_
_space_group_symop_operation_xyz
x,y,z
-y,x,3/4+z
-x,-y,1/2+z
y,-x,1/4+z
x,-y,1/2-z
-x,y,-z
y,x,1/4-z
-y,-x,3/4-z
loop_
_atom_site_type_symbol
_atom_site_label
_atom_site_fract_x
_atom_site_fract_y
_atom_site_fract_z
Si Si1 0.698040 0.301961 0.375000
Si Si2 0.404138 0.000000 0.250000
Si Si3 0.376350 0.688939 0.458251
Si Si4 0.367190 0.132225 0.483504
Si Si5 0.544224 0.227249 0.672645
Si Si6 0.918034 0.738443 0.646728
O O1 0.806766 0.305588 0.311257
O O2 0.700791 0.423351 0.423553
O O3 0.484314 0.093579 0.298125
O O4 0.320502 0.066075 0.188567
O O5 0.500000 0.688774 0.500000
O O6 0.383315 0.616686 0.375000
O O7 0.282045 0.632340 0.515564
O O8 0.334063 0.820555 0.444200
O O9 0.500000 0.080151 0.500000
O O10 0.390684 0.228223 0.413754
O O11 0.273062 0.034938 0.452003
O O12 0.871728 0.871728 0.625000
#
# Coordination Sequence:
#
# PCOD8305813 Si02
#       6
#     4   4   8   8   8   8
#     4  10  22  38  58  88 126 158 198 234 308 360
#     4  10  18  38  62  88 108 156 208 242 298 338
#     4  11  23  35  55  91 123 152 192 248 305 362
#     4   9  20  37  60  84 119 162 196 245 293 366
#     4  10  21  36  61  86 118 159 198 241 298 360
#     4  10  19  37  61  85 113 152 205 251 290 349
#
# _framework density 18.552897000000002
#
# number of rings (size 3 to 8) (size 9 to 14) (size 15 to 20)
#    0.000    2.000    4.000    0.600    4.200    0.800 
#    0.000    0.000    2.200    0.000    0.000    0.000 
#    0.000    0.000    0.000    0.000    0.000    0.000 
#
# Total GULP energy -495569.255558 kJ/mol
# GULP energy per Si atom -12389.231389 kJ/mol
# Density = 1.851067 g / cm^3
# Si number density = 18.552897 Si / 1000 Ang^3
#
#
#
# Elastic Constant Matrix: (Units=GPa)
#
#
# Indices 1 2 3 4 5 6 
#
# 1 90.8663 52.0125 43.5867 0.0000 0.0000 0.0000
# 2 52.0125 90.8667 43.5863 0.0000 0.0000 0.0000
# 3 43.5867 43.5863 117.0254 0.0000 0.0000 0.0000
# 4 0.0000 0.0000 0.0000 34.1268 0.0000 0.0000
# 5 0.0000 0.0000 0.0000 0.0000 34.1279 0.0000
# 6 0.0000 0.0000 0.0000 0.0000 0.0000 32.4460
#
#
#
# Elastic Compliance Matrix: (Units=1/GPa)
#
#
# Indices 1 2 3 4 5 6 
#
# 1 0.017397 -0.008340 -0.003373 0.000000 0.000000 0.000000
# 2 -0.008340 0.017397 -0.003373 0.000000 0.000000 0.000000
# 3 -0.003373 -0.003373 0.011058 0.000000 0.000000 0.000000
# 4 0.000000 0.000000 0.000000 0.029302 0.000000 0.000000
# 5 0.000000 0.000000 0.000000 0.000000 0.029302 0.000000
# 6 0.000000 0.000000 0.000000 0.000000 0.000000 0.030820
#
#
# Mechanical properties :
#
#
# Convention : Reuss Voigt Hill
#
# Bulk Modulus (GPa) = 63.78054 64.12548 63.95301
# Shear Modulus (GPa) = 29.29514 30.77833 30.03674
#
# Velocity S-wave (km/s) = 3.97798 4.07744 4.02802
# Velocity P-wave (km/s) = 7.45328 7.53697 7.49525
#
# Compressibility (1/GPa) = 0.01567876
#
# Stress axis : x y z
#
# Youngs Moduli (GPa) = 57.48018 57.48076 90.43257
#
# Poissons Ratio (x) = 0.47940 0.30507
# Poissons Ratio (y) = 0.47939 0.30505
# Poissons Ratio (z) = 0.19390 0.19390
#
# Static dielectric constant tensor:
#      x y z
#    x 3.253390 0.000000 0.000000 
#    y 0.000000 3.253390 0.000000 
#    z 0.000000 0.000000 3.783040 
# 
# 
# High freq. dielectric constant tensor:
#      x y z
#    x 1.703910 0.000000 0.000000 
#    y 0.000000 1.703910 0.000000 
#    z 0.000000 0.000000 1.743870 
# 
# From -- ./inp_files/4866.got.cif
#   From: 2010.03.12/outbox.cif.g09.slc.cpg/sg95_3_cif.got.tgz:4866.got - 2010.04.08 20:51:55.
