data_PCOD8305014
_publ_section_title
;
Structure prediction by ZEFSAII (Michael W. Deem and Ramdas Pophale) SiO2 
 PCOD8305014
Probable space group: P 41 2 2
;
_chemical_formula_sum "Si O2"
_cell_formula_units_Z 40
_cell_length_a 16.038126
_cell_length_b 16.038126
_cell_length_c 7.769700
_cell_angle_alpha 90.000000
_cell_angle_beta 90.000000
_cell_angle_gamma 90.000000
_cell_volume 1998.533777
_symmetry_space_group_name_H-M "P 41 2 2"
_symmetry_group_IT_number 91
_symmetry_cell_setting 'tetragonal'
loop_
_space_group_symop_operation_xyz
x,y,z
-y,x,1/4+z
-x,-y,1/2+z
y,-x,3/4+z
x,-y,1/2-z
-x,y,-z
y,x,3/4-z
-y,-x,1/4-z
loop_
_atom_site_type_symbol
_atom_site_label
_atom_site_fract_x
_atom_site_fract_y
_atom_site_fract_z
Si Si1 0.753559 0.049040 0.427609
Si Si2 0.340441 0.659560 0.625000
Si Si3 0.199876 0.631433 0.369067
Si Si4 0.277742 0.500000 0.750000
Si Si5 0.078528 0.078528 0.375000
Si Si6 0.445329 0.829946 0.223915
Si Si7 0.000000 0.651521 0.000000
O O1 0.699180 0.127967 0.376894
O O2 0.841100 0.079943 0.502519
O O3 0.768573 0.000000 0.250000
O O4 0.707853 0.994880 0.577359
O O5 0.278109 0.676057 0.463804
O O6 0.335483 0.560310 0.642663
O O7 0.165866 0.545948 0.454723
O O8 0.220971 0.604210 0.173645
O O9 0.222085 0.432266 0.646726
O O10 0.000000 0.077594 0.500000
O O11 0.409447 0.921688 0.243731
#
# Coordination Sequence:
#
# PCOD8305014 Si02
#       7
#     8   4   8   4   4   8   4
#     4  11  25  42  67  98 128 166 223 262 326 390
#     4  10  22  40  59  88 121 170 216 256 320 374
#     4   9  21  39  61  95 130 166 205 261 327 393
#     4  10  22  38  62  86 122 170 212 258 316 370
#     4  12  26  48  67  88 123 174 224 278 318 362
#     4   9  20  37  62  95 132 164 201 260 332 388
#     4  10  22  40  66 100 134 166 208 264 324 400
#
# _framework density 20.014671
#
# number of rings (size 3 to 8) (size 9 to 14) (size 15 to 20)
#    0.000    2.000    1.000    0.600    7.000    7.200 
#    0.000    4.000    0.000    0.000    0.000    0.000 
#    0.000    0.000    0.000    0.000    0.000    0.000 
#
# Total GULP energy -495567.657464 kJ/mol
# GULP energy per Si atom -12389.191437 kJ/mol
# Density = 1.996912 g / cm^3
# Si number density = 20.014671 Si / 1000 Ang^3
#
#
#
# Elastic Constant Matrix: (Units=GPa)
#
#
# Indices 1 2 3 4 5 6 
#
# 1 102.7230 58.3533 55.9701 0.0000 0.0000 0.0000
# 2 58.3533 102.7223 55.9700 0.0000 0.0000 0.0000
# 3 55.9701 55.9700 136.6531 0.0000 0.0000 0.0000
# 4 0.0000 0.0000 0.0000 28.4558 0.0000 0.0000
# 5 0.0000 0.0000 0.0000 0.0000 28.4556 0.0000
# 6 0.0000 0.0000 0.0000 0.0000 0.0000 20.9004
#
#
#
# Elastic Compliance Matrix: (Units=1/GPa)
#
#
# Indices 1 2 3 4 5 6 
#
# 1 0.015608 -0.006930 -0.003554 0.000000 0.000000 0.000000
# 2 -0.006930 0.015608 -0.003555 0.000000 0.000000 0.000000
# 3 -0.003554 -0.003555 0.010229 0.000000 0.000000 0.000000
# 4 0.000000 0.000000 0.000000 0.035142 0.000000 0.000000
# 5 0.000000 0.000000 0.000000 0.000000 0.035142 0.000000
# 6 0.000000 0.000000 0.000000 0.000000 0.000000 0.047846
#
#
# Mechanical properties :
#
#
# Convention : Reuss Voigt Hill
#
# Bulk Modulus (GPa) = 74.80326 75.85390 75.32858
# Shear Modulus (GPa) = 26.02669 27.01603 26.52136
#
# Velocity S-wave (km/s) = 3.60999 3.67796 3.64414
# Velocity P-wave (km/s) = 7.40482 7.48452 7.44478
#
# Compressibility (1/GPa) = 0.01336840
#
# Stress axis : x y z
#
# Youngs Moduli (GPa) = 64.06886 64.06841 97.75657
#
# Poissons Ratio (x) = 0.44398 0.34747
# Poissons Ratio (y) = 0.44398 0.34748
# Poissons Ratio (z) = 0.22773 0.22773
#
# Static dielectric constant tensor:
#      x y z
#    x 3.629590 0.000000 0.000000 
#    y 0.000000 3.629600 0.000000 
#    z 0.000000 0.000000 4.959590 
# 
# 
# High freq. dielectric constant tensor:
#      x y z
#    x 1.779970 0.000000 0.000000 
#    y 0.000000 1.779970 0.000000 
#    z 0.000000 0.000000 1.798260 
# 
# From -- ./inp_files/2489.got.cif
#   From: 2010.03.12/outbox.cif.g09.slc.cpg/sg91_2_cif.got.tgz:2489.got - 2010.04.08 20:27:58.
