data_PCOD8305551
_publ_section_title
;
Structure prediction by ZEFSAII (Michael W. Deem and Ramdas Pophale) SiO2 
 PCOD8305551
Probable space group: P 42 2 2
;
_chemical_formula_sum "Si O2"
_cell_formula_units_Z 60
_cell_length_a 11.503878
_cell_length_b 11.503878
_cell_length_c 22.380762
_cell_angle_alpha 90.000000
_cell_angle_beta 90.000000
_cell_angle_gamma 90.000000
_cell_volume 2961.852341
_symmetry_space_group_name_H-M "P 42 2 2"
_symmetry_group_IT_number 93
_symmetry_cell_setting 'tetragonal'
loop_
_space_group_symop_operation_xyz
x,y,z
-y,x,1/2+z
-x,-y,z
y,-x,1/2+z
x,-y,-z
-x,y,-z
y,x,1/2-z
-y,-x,1/2-z
loop_
_atom_site_type_symbol
_atom_site_label
_atom_site_fract_x
_atom_site_fract_y
_atom_site_fract_z
Si Si1 0.098706 0.339951 0.046690
Si Si2 0.981779 0.630255 0.177890
Si Si3 0.441974 0.127238 0.113359
Si Si4 0.360632 0.290064 0.926466
Si Si5 0.347586 0.232295 0.695610
Si Si6 0.236284 0.128848 0.020058
Si Si7 0.500000 0.295838 0.500000
Si Si8 0.597288 0.783360 0.247047
O O1 0.049645 0.373074 0.109665
O O2 0.125908 0.201776 0.043925
O O3 0.214930 0.415973 0.039463
O O4 0.000000 0.375868 0.000000
O O5 0.878146 0.679867 0.219328
O O6 0.000000 0.500000 0.202366
O O7 0.101793 0.698898 0.184575
O O8 0.516870 0.225725 0.079976
O O9 0.326178 0.117249 0.074555
O O10 0.422171 0.172406 0.180046
O O11 0.500000 0.000000 0.114653
O O12 0.308069 0.318877 0.862091
O O13 0.280142 0.201076 0.962811
O O14 0.375741 0.414766 0.959674
O O15 0.272664 0.272664 0.750000
O O16 0.482152 0.237972 0.713772
O O17 0.197976 0.000000 0.000000
O O18 0.660362 0.660362 0.250000
#
# Coordination Sequence:
#
# PCOD8305551 Si02
#       8
#     8   8   8   8   8   8   4   8
#     4  11  21  39  64  94 128 173 214 275 342 398
#     4  10  20  37  64  90 122 162 219 269 319 400
#     4  12  23  42  68  94 131 181 228 275 338 414
#     4  11  23  40  66  97 130 175 222 269 341 406
#     4  11  22  41  63  93 128 169 216 270 334 406
#     4  11  24  41  64  94 133 173 226 281 332 403
#     4  10  21  38  63  96 132 166 216 270 334 402
#     4  11  24  42  64  96 130 172 223 276 340 403
#
# _framework density 20.257594999999998
#
# number of rings (size 3 to 8) (size 9 to 14) (size 15 to 20)
#    0.000    1.067    2.667    6.600    0.000    1.600 
#    0.000    9.333    0.000    2.000    0.000    0.000 
#    0.000    0.000    0.000    0.000    0.000    0.000 
#
# Total GULP energy -743767.039857 kJ/mol
# GULP energy per Si atom -12396.117331 kJ/mol
# Density = 2.021149 g / cm^3
# Si number density = 20.257595 Si / 1000 Ang^3
#
#
#
# Elastic Constant Matrix: (Units=GPa)
#
#
# Indices 1 2 3 4 5 6 
#
# 1 82.4539 16.0535 17.5369 0.0000 0.0000 0.0000
# 2 16.0535 82.4539 17.5369 0.0000 0.0000 0.0000
# 3 17.5369 17.5369 103.0450 0.0000 0.0000 0.0000
# 4 0.0000 0.0000 0.0000 51.0802 0.0000 0.0000
# 5 0.0000 0.0000 0.0000 0.0000 51.0802 0.0000
# 6 0.0000 0.0000 0.0000 0.0000 0.0000 20.3388
#
#
#
# Elastic Compliance Matrix: (Units=1/GPa)
#
#
# Indices 1 2 3 4 5 6 
#
# 1 0.012933 -0.002127 -0.001839 0.000000 0.000000 0.000000
# 2 -0.002127 0.012933 -0.001839 0.000000 0.000000 0.000000
# 3 -0.001839 -0.001839 0.010330 0.000000 0.000000 0.000000
# 4 0.000000 0.000000 0.000000 0.019577 0.000000 0.000000
# 5 0.000000 0.000000 0.000000 0.000000 0.019577 0.000000
# 6 0.000000 0.000000 0.000000 0.000000 0.000000 0.049167
#
#
# Mechanical properties :
#
#
# Convention : Reuss Voigt Hill
#
# Bulk Modulus (GPa) = 40.67230 41.13416 40.90323
# Shear Modulus (GPa) = 34.64429 38.95487 36.79958
#
# Velocity S-wave (km/s) = 4.13993 4.38993 4.26676
# Velocity P-wave (km/s) = 6.55539 6.78564 6.67151
#
# Compressibility (1/GPa) = 0.02458676
#
# Stress axis : x y z
#
# Youngs Moduli (GPa) = 77.32015 77.32015 96.80093
#
# Poissons Ratio (x) = 0.16445 0.17803
# Poissons Ratio (y) = 0.16445 0.17803
# Poissons Ratio (z) = 0.14220 0.14220
#
# Static dielectric constant tensor:
#      x y z
#    x 3.727080 0.000000 0.000000 
#    y 0.000000 3.727080 0.000000 
#    z 0.000000 0.000000 3.691310 
# 
# 
# High freq. dielectric constant tensor:
#      x y z
#    x 1.786980 0.000000 0.000000 
#    y 0.000000 1.786980 0.000000 
#    z 0.000000 0.000000 1.809700 
# 
# From -- ./inp_files/6347.got.cif
#   From: 2010.03.12/outbox.cif.g09.slc.cpg/sg93_4_cif.got.tgz:6347.got - 2010.04.08 20:44:19.
