data_PCOD8305842
_publ_section_title
;
Structure prediction by ZEFSAII (Michael W. Deem and Ramdas Pophale) SiO2 
 PCOD8305842
Probable space group: P 43 2 2
;
_chemical_formula_sum "Si O2"
_cell_formula_units_Z 36
_cell_length_a 12.681258
_cell_length_b 12.681258
_cell_length_c 10.951736
_cell_angle_alpha 90.000000
_cell_angle_beta 90.000000
_cell_angle_gamma 90.000000
_cell_volume 1761.195807
_symmetry_space_group_name_H-M "P 43 2 2"
_symmetry_group_IT_number 95
_symmetry_cell_setting 'tetragonal'
loop_
_space_group_symop_operation_xyz
x,y,z
-y,x,3/4+z
-x,-y,1/2+z
y,-x,1/4+z
x,-y,1/2-z
-x,y,-z
y,x,1/4-z
-y,-x,3/4-z
loop_
_atom_site_type_symbol
_atom_site_label
_atom_site_fract_x
_atom_site_fract_y
_atom_site_fract_z
Si Si1 0.877120 0.900362 0.331310
Si Si2 0.544652 0.135958 0.372025
Si Si3 0.929203 0.225000 0.828749
Si Si4 0.094204 0.465791 0.126736
Si Si5 0.225780 0.225780 0.625000
O O1 0.792524 0.937156 0.432124
O O2 0.830326 0.809670 0.247614
O O3 0.979639 0.845895 0.392452
O O4 0.912475 0.000000 0.250000
O O5 0.500000 0.181136 0.500000
O O6 0.479374 0.163328 0.246776
O O7 0.653476 0.196039 0.355637
O O8 0.544414 0.007940 0.376295
O O9 0.815113 0.184888 0.875000
O O10 0.945609 0.345747 0.864529
O O11 0.158668 0.500000 0.250000
#
# Coordination Sequence:
#
# PCOD8305842 Si02
#       5
#     8   8   8   8   4
#     4  12  23  38  57  95 139 184 216 255 305 409
#     4  10  23  39  65  89 121 158 216 271 321 381
#     4  12  25  37  62  93 141 180 217 257 323 395
#     4  10  22  42  61  88 127 169 212 272 318 372
#     4  12  24  38  66  92 122 168 222 264 336 386
#
# _framework density 20.440657000000002
#
# number of rings (size 3 to 8) (size 9 to 14) (size 15 to 20)
#    0.000    0.889    2.222    6.000   12.444    0.000 
#    0.000    0.000    0.000    0.000    2.889    0.000 
#    0.000    0.000    0.000    0.000    0.000    0.000 
#
# Total GULP energy -446069.871612 kJ/mol
# GULP energy per Si atom -12390.829767 kJ/mol
# Density = 2.039413 g / cm^3
# Si number density = 20.440657 Si / 1000 Ang^3
#
#
#
# Elastic Constant Matrix: (Units=GPa)
#
#
# Indices 1 2 3 4 5 6 
#
# 1 104.0844 48.3363 39.0369 0.0000 0.0000 0.0000
# 2 48.3363 104.0829 39.0367 0.0000 0.0000 0.0000
# 3 39.0369 39.0367 164.5028 0.0000 0.0000 0.0000
# 4 0.0000 0.0000 0.0000 22.3924 0.0000 0.0000
# 5 0.0000 0.0000 0.0000 0.0000 22.3923 0.0000
# 6 0.0000 0.0000 0.0000 0.0000 0.0000 22.8600
#
#
#
# Elastic Compliance Matrix: (Units=1/GPa)
#
#
# Indices 1 2 3 4 5 6 
#
# 1 0.012703 -0.005235 -0.001772 0.000000 0.000000 0.000000
# 2 -0.005235 0.012703 -0.001772 0.000000 0.000000 0.000000
# 3 -0.001772 -0.001772 0.006920 0.000000 0.000000 0.000000
# 4 0.000000 0.000000 0.000000 0.044658 0.000000 0.000000
# 5 0.000000 0.000000 0.000000 0.000000 0.044658 0.000000
# 6 0.000000 0.000000 0.000000 0.000000 0.000000 0.043745
#
#
# Mechanical properties :
#
#
# Convention : Reuss Voigt Hill
#
# Bulk Modulus (GPa) = 67.71357 69.49886 68.60621
# Shear Modulus (GPa) = 26.61430 29.94630 28.28030
#
# Velocity S-wave (km/s) = 3.61228 3.83173 3.72362
# Velocity P-wave (km/s) = 7.11315 7.32464 7.21967
#
# Compressibility (1/GPa) = 0.01476809
#
# Stress axis : x y z
#
# Youngs Moduli (GPa) = 78.71993 78.71875 144.50717
#
# Poissons Ratio (x) = 0.41207 0.25611
# Poissons Ratio (y) = 0.41208 0.25611
# Poissons Ratio (z) = 0.13952 0.13952
#
# Static dielectric constant tensor:
#      x y z
#    x 3.542580 0.000000 0.000000 
#    y 0.000000 3.542580 0.000000 
#    z 0.000000 0.000000 4.522950 
# 
# 
# High freq. dielectric constant tensor:
#      x y z
#    x 1.759980 0.000000 0.000000 
#    y 0.000000 1.759980 0.000000 
#    z 0.000000 0.000000 1.844370 
# 
# From -- ./inp_files/3543.got.cif
#   From: 2010.03.12/outbox.cif.g09.slc.cpg/sg95_2_cif.got.tgz:3543.got - 2010.04.08 20:51:55.
