data_PCOD8305714
_publ_section_title
;
Structure prediction by ZEFSAII (Michael W. Deem and Ramdas Pophale) SiO2 
 PCOD8305714
Probable space group: P 42 21 2
;
_chemical_formula_sum "Si O2"
_cell_formula_units_Z 26
_cell_length_a 15.749992
_cell_length_b 15.749992
_cell_length_c 5.200918
_cell_angle_alpha 90.000000
_cell_angle_beta 90.000000
_cell_angle_gamma 90.000000
_cell_volume 1290.151411
_symmetry_space_group_name_H-M "P 42 21 2"
_symmetry_group_IT_number 94
_symmetry_cell_setting 'tetragonal'
loop_
_space_group_symop_operation_xyz
x,y,z
1/2-y,1/2+x,1/2+z
-x,-y,z
1/2+y,1/2-x,1/2+z
1/2+x,1/2-y,1/2-z
1/2-x,1/2+y,1/2-z
y,x,-z
-y,-x,-z
loop_
_atom_site_type_symbol
_atom_site_label
_atom_site_fract_x
_atom_site_fract_y
_atom_site_fract_z
Si Si1 0.677398 0.071480 0.066459
Si Si2 0.500000 0.500000 0.500000
Si Si3 0.528132 0.188843 0.047993
Si Si4 0.546835 0.657104 0.822332
O O1 0.626318 0.160219 0.055380
O O2 0.663449 0.018724 0.808588
O O3 0.778020 0.089450 0.115297
O O4 0.640994 0.017487 0.308528
O O5 0.496884 0.582718 0.678233
O O6 0.521171 0.290889 0.998375
O O7 0.621465 0.621465 0.000000
#
# Coordination Sequence:
#
# PCOD8305714 Si02
#       4
#     8   2   8   8
#     4  10  22  40  70 105 138 177 230 280 354 411
#     4  12  22  48  76  94 128 202 238 284 352 414
#     4  10  22  40  70 103 138 181 222 287 347 417
#     4  10  24  41  76  94 137 184 241 284 343 411
#
# _framework density 20.152674000000001
#
# number of rings (size 3 to 8) (size 9 to 14) (size 15 to 20)
#    1.846    0.000    0.000    4.154    0.000    3.692 
#    0.000    0.000   71.077    0.000    0.000    0.000 
#    0.000    0.000    0.000    0.000    0.000    0.000 
#
# Total GULP energy -322115.665372 kJ/mol
# GULP energy per Si atom -12389.064053 kJ/mol
# Density = 2.010681 g / cm^3
# Si number density = 20.152674 Si / 1000 Ang^3
#
#
#
# Elastic Constant Matrix: (Units=GPa)
#
#
# Indices 1 2 3 4 5 6 
#
# 1 131.4415 86.3370 54.5092 0.0000 0.0000 0.0000
# 2 86.3370 131.4415 54.5092 0.0000 0.0000 0.0000
# 3 54.5092 54.5092 163.0216 0.0000 0.0000 0.0000
# 4 0.0000 0.0000 0.0000 14.8472 0.0000 0.0000
# 5 0.0000 0.0000 0.0000 0.0000 14.8472 0.0000
# 6 0.0000 0.0000 0.0000 0.0000 0.0000 27.4994
#
#
#
# Elastic Compliance Matrix: (Units=1/GPa)
#
#
# Indices 1 2 3 4 5 6 
#
# 1 0.013843 -0.008328 -0.001844 0.000000 0.000000 0.000000
# 2 -0.008328 0.013843 -0.001844 0.000000 0.000000 0.000000
# 3 -0.001844 -0.001844 0.007367 0.000000 0.000000 0.000000
# 4 0.000000 0.000000 0.000000 0.067353 0.000000 0.000000
# 5 0.000000 0.000000 0.000000 0.000000 0.067353 0.000000
# 6 0.000000 0.000000 0.000000 0.000000 0.000000 0.036364
#
#
# Mechanical properties :
#
#
# Convention : Reuss Voigt Hill
#
# Bulk Modulus (GPa) = 90.73503 90.73507 90.73505
# Shear Modulus (GPa) = 21.38320 26.80871 24.09596
#
# Velocity S-wave (km/s) = 3.26093 3.65126 3.46160
# Velocity P-wave (km/s) = 7.70063 7.93077 7.81655
#
# Compressibility (1/GPa) = 0.01102110
#
# Stress axis : x y z
#
# Youngs Moduli (GPa) = 72.23959 72.23959 135.73462
#
# Poissons Ratio (x) = 0.60160 0.25030
# Poissons Ratio (y) = 0.60160 0.25030
# Poissons Ratio (z) = 0.13321 0.13321
#
# Static dielectric constant tensor:
#      x y z
#    x 3.402940 0.000000 0.000000 
#    y 0.000000 3.402940 0.000000 
#    z 0.000000 0.000000 3.865500 
# 
# 
# High freq. dielectric constant tensor:
#      x y z
#    x 1.765880 0.000000 0.000000 
#    y 0.000000 1.765880 0.000000 
#    z 0.000000 0.000000 1.811160 
# 
# From -- ./inp_files/216.got.cif
#   From: 2010.03.12/outbox.cif.g09.slc.cpg/sg94_1_cif.got.tgz:216.got - 2010.04.08 20:48:32.
