data_PCOD8305571
_publ_section_title
;
Structure prediction by ZEFSAII (Michael W. Deem and Ramdas Pophale) SiO2 
 PCOD8305571
Probable space group: P 42 2 2
;
_chemical_formula_sum "Si O2"
_cell_formula_units_Z 48
_cell_length_a 8.630981
_cell_length_b 8.630981
_cell_length_c 29.676966
_cell_angle_alpha 90.000000
_cell_angle_beta 90.000000
_cell_angle_gamma 90.000000
_cell_volume 2210.750950
_symmetry_space_group_name_H-M "P 42 2 2"
_symmetry_group_IT_number 93
_symmetry_cell_setting 'tetragonal'
loop_
_space_group_symop_operation_xyz
x,y,z
-y,x,1/2+z
-x,-y,z
y,-x,1/2+z
x,-y,-z
-x,y,-z
y,x,1/2-z
-y,-x,1/2-z
loop_
_atom_site_type_symbol
_atom_site_label
_atom_site_fract_x
_atom_site_fract_y
_atom_site_fract_z
Si Si1 0.000000 0.500000 0.153994
Si Si2 0.744421 0.191202 0.609222
Si Si3 0.180983 0.821462 0.992801
Si Si4 0.790972 0.755877 0.801922
Si Si5 0.511459 0.181459 0.136914
Si Si6 0.000000 0.000000 0.655962
Si Si7 0.672085 0.576175 0.544088
O O1 0.119647 0.421682 0.119792
O O2 0.089485 0.619472 0.186229
O O3 0.762513 0.235441 0.556901
O O4 0.749654 0.340077 0.642158
O O5 0.877909 0.072241 0.621915
O O6 0.244201 0.693078 0.029065
O O7 0.000000 0.813310 0.000000
O O8 0.237743 0.000000 0.000000
O O9 0.747643 0.747643 0.750000
O O10 0.629969 0.738141 0.828724
O O11 0.870123 0.921014 0.812811
O O12 0.565788 0.218956 0.086801
O O13 0.500000 0.000000 0.145299
O O14 0.500000 0.500000 0.551705
O O15 0.752235 0.500000 0.500000
#
# Coordination Sequence:
#
# PCOD8305571 Si02
#       7
#     4   8   8   8   8   4   8
#     4  10  28  44  71 104 140 184 225 294 358 420
#     4  11  23  44  68 105 143 184 232 287 354 413
#     4  11  24  41  71 104 138 182 242 294 336 405
#     4  11  26  46  74 103 141 178 235 290 357 426
#     4  12  25  43  73 100 137 182 230 288 350 419
#     4  10  21  44  71 102 138 180 228 295 347 414
#     4  11  26  43  64  98 142 188 230 274 343 418
#
# _framework density 21.712078000000002
#
# number of rings (size 3 to 8) (size 9 to 14) (size 15 to 20)
#    0.000    1.000    3.333    2.250    8.167    0.000 
#    0.000    1.667    0.000    0.000    0.000    0.000 
#    0.000    0.000    0.000    0.000    0.000    0.000 
#
# Total GULP energy -594938.164082 kJ/mol
# GULP energy per Si atom -12394.545085 kJ/mol
# Density = 2.166266 g / cm^3
# Si number density = 21.712078 Si / 1000 Ang^3
#
#
#
# Elastic Constant Matrix: (Units=GPa)
#
#
# Indices 1 2 3 4 5 6 
#
# 1 102.8215 37.0118 19.3018 0.0000 0.0000 0.0000
# 2 37.0118 102.8215 19.3018 0.0000 0.0000 0.0000
# 3 19.3018 19.3018 101.4192 0.0000 0.0000 0.0000
# 4 0.0000 0.0000 0.0000 38.1299 0.0000 0.0000
# 5 0.0000 0.0000 0.0000 0.0000 38.1299 0.0000
# 6 0.0000 0.0000 0.0000 0.0000 0.0000 33.1411
#
#
#
# Elastic Compliance Matrix: (Units=1/GPa)
#
#
# Indices 1 2 3 4 5 6 
#
# 1 0.011372 -0.003824 -0.001437 0.000000 0.000000 0.000000
# 2 -0.003824 0.011372 -0.001437 0.000000 0.000000 0.000000
# 3 -0.001437 -0.001437 0.010407 0.000000 0.000000 0.000000
# 4 0.000000 0.000000 0.000000 0.026226 0.000000 0.000000
# 5 0.000000 0.000000 0.000000 0.000000 0.026226 0.000000
# 6 0.000000 0.000000 0.000000 0.000000 0.000000 0.030174
#
#
# Mechanical properties :
#
#
# Convention : Reuss Voigt Hill
#
# Bulk Modulus (GPa) = 50.61564 50.92142 50.76853
# Shear Modulus (GPa) = 36.83095 37.30997 37.07046
#
# Velocity S-wave (km/s) = 4.12313 4.14985 4.13651
# Velocity P-wave (km/s) = 6.78452 6.81657 6.80056
#
# Compressibility (1/GPa) = 0.01975674
#
# Stress axis : x y z
#
# Youngs Moduli (GPa) = 87.93809 87.93809 96.09056
#
# Poissons Ratio (x) = 0.33625 0.13803
# Poissons Ratio (y) = 0.33625 0.13803
# Poissons Ratio (z) = 0.12632 0.12632
#
# Static dielectric constant tensor:
#      x y z
#    x 4.234000 0.000000 0.000000 
#    y 0.000000 4.234000 0.000000 
#    z 0.000000 0.000000 3.771670 
# 
# 
# High freq. dielectric constant tensor:
#      x y z
#    x 1.864270 0.000000 0.000000 
#    y 0.000000 1.864270 0.000000 
#    z 0.000000 0.000000 1.839910 
# 
# From -- ./inp_files/7828.got.cif
#   From: 2010.03.12/outbox.cif.g09.slc.cpg/sg93_4_cif.got.tgz:7828.got - 2010.04.08 20:44:19.
