data_PCOD8305317
_publ_section_title
;
Structure prediction by ZEFSAII (Michael W. Deem and Ramdas Pophale) SiO2 
 PCOD8305317
Probable space group: P 41 21 2
;
_chemical_formula_sum "Si O2"
_cell_formula_units_Z 36
_cell_length_a 15.359614
_cell_length_b 15.359614
_cell_length_c 8.620765
_cell_angle_alpha 90.000000
_cell_angle_beta 90.000000
_cell_angle_gamma 90.000000
_cell_volume 2033.791415
_symmetry_space_group_name_H-M "P 41 21 2"
_symmetry_group_IT_number 92
_symmetry_cell_setting 'tetragonal'
loop_
_space_group_symop_operation_xyz
x,y,z
1/2-y,1/2+x,1/4+z
-x,-y,1/2+z
1/2+y,1/2-x,3/4+z
1/2+x,1/2-y,3/4-z
1/2-x,1/2+y,1/4-z
y,x,-z
-y,-x,1/2-z
loop_
_atom_site_type_symbol
_atom_site_label
_atom_site_fract_x
_atom_site_fract_y
_atom_site_fract_z
Si Si1 0.107490 0.996816 0.618043
Si Si2 0.308970 0.883117 0.831537
Si Si3 0.764012 0.764012 0.500000
Si Si4 0.233299 0.575339 0.469155
Si Si5 0.845983 0.221916 0.471656
O O1 0.054139 0.945862 0.750000
O O2 0.166601 0.933728 0.513135
O O3 0.173492 0.064076 0.698240
O O4 0.043384 0.043384 0.500000
O O5 0.225523 0.846262 0.917497
O O6 0.301681 0.858680 0.649370
O O7 0.306112 0.987337 0.854679
O O8 0.393906 0.839485 0.906436
O O9 0.855480 0.753526 0.585759
O O10 0.761824 0.681335 0.385429
#
# Coordination Sequence:
#
# PCOD8305317 Si02
#       5
#     8   8   4   8   8
#     4  11  23  37  60  92 121 151 191 250 297 346
#     4   9  18  38  60  74 115 152 191 231 299 337
#     4  10  22  34  62  82 114 158 200 230 280 358
#     4  10  21  39  57  86 115 157 191 246 285 350
#     4   9  18  39  54  82 115 157 183 235 293 351
#
# _framework density 17.700931000000001
#
# number of rings (size 3 to 8) (size 9 to 14) (size 15 to 20)
#    0.000    2.222    4.444    0.000    9.333    0.000 
#    4.000    4.444    0.000    0.000    0.000    0.000 
#    0.000    0.000    0.000    0.000    0.000    0.000 
#
# Total GULP energy -446257.954933 kJ/mol
# GULP energy per Si atom -12396.054304 kJ/mol
# Density = 1.766064 g / cm^3
# Si number density = 17.700931 Si / 1000 Ang^3
#
#
#
# Elastic Constant Matrix: (Units=GPa)
#
#
# Indices 1 2 3 4 5 6 
#
# 1 104.6886 55.6498 56.5949 0.0000 0.0000 0.0000
# 2 55.6498 104.6867 56.5940 0.0000 0.0000 0.0000
# 3 56.5949 56.5940 101.8563 0.0000 0.0000 0.0000
# 4 0.0000 0.0000 0.0000 30.1538 0.0000 0.0000
# 5 0.0000 0.0000 0.0000 0.0000 30.1537 0.0000
# 6 0.0000 0.0000 0.0000 0.0000 0.0000 30.7807
#
#
#
# Elastic Compliance Matrix: (Units=1/GPa)
#
#
# Indices 1 2 3 4 5 6 
#
# 1 0.015327 -0.005065 -0.005702 0.000000 0.000000 0.000000
# 2 -0.005065 0.015327 -0.005702 0.000000 0.000000 0.000000
# 3 -0.005702 -0.005702 0.016154 0.000000 0.000000 0.000000
# 4 0.000000 0.000000 0.000000 0.033163 0.000000 0.000000
# 5 0.000000 0.000000 0.000000 0.000000 0.033163 0.000000
# 6 0.000000 0.000000 0.000000 0.000000 0.000000 0.032488
#
#
# Mechanical properties :
#
#
# Convention : Reuss Voigt Hill
#
# Bulk Modulus (GPa) = 72.09525 72.10100 72.09812
# Shear Modulus (GPa) = 27.29486 27.71051 27.50269
#
# Velocity S-wave (km/s) = 3.93109 3.96091 3.94603
# Velocity P-wave (km/s) = 7.83726 7.85746 7.84737
#
# Compressibility (1/GPa) = 0.01387054
#
# Stress axis : x y z
#
# Youngs Moduli (GPa) = 65.24369 65.24292 61.90397
#
# Poissons Ratio (x) = 0.33047 0.35297
# Poissons Ratio (y) = 0.33047 0.35297
# Poissons Ratio (z) = 0.37202 0.37201
#
# Static dielectric constant tensor:
#      x y z
#    x 3.395500 0.000000 0.000000 
#    y 0.000000 3.395500 0.000000 
#    z 0.000000 0.000000 3.697330 
# 
# 
# High freq. dielectric constant tensor:
#      x y z
#    x 1.684580 0.000000 0.000000 
#    y 0.000000 1.684580 0.000000 
#    z 0.000000 0.000000 1.681150 
# 
# From -- ./inp_files/1220.got.cif
#   From: 2010.03.12/outbox.cif.g09.slc.cpg/sg92_1_cif.got.tgz:1220.got - 2010.04.08 20:41:11.
