data_PCOD8305685
_publ_section_title
;
Structure prediction by ZEFSAII (Michael W. Deem and Ramdas Pophale) SiO2 
 PCOD8305685
Probable space group: P 42 21 2
;
_chemical_formula_sum "Si O2"
_cell_formula_units_Z 36
_cell_length_a 9.130025
_cell_length_b 9.130025
_cell_length_c 20.407203
_cell_angle_alpha 90.000000
_cell_angle_beta 90.000000
_cell_angle_gamma 90.000000
_cell_volume 1701.090496
_symmetry_space_group_name_H-M "P 42 21 2"
_symmetry_group_IT_number 94
_symmetry_cell_setting 'tetragonal'
loop_
_space_group_symop_operation_xyz
x,y,z
1/2-y,1/2+x,1/2+z
-x,-y,z
1/2+y,1/2-x,1/2+z
1/2+x,1/2-y,1/2-z
1/2-x,1/2+y,1/2-z
y,x,-z
-y,-x,-z
loop_
_atom_site_type_symbol
_atom_site_label
_atom_site_fract_x
_atom_site_fract_y
_atom_site_fract_z
Si Si1 0.254385 0.254385 0.000000
Si Si2 0.743941 0.855574 0.797526
Si Si3 0.808613 0.269466 0.166346
Si Si4 0.462256 0.326720 0.883581
Si Si5 0.837164 0.980106 0.094656
O O1 0.384132 0.273708 0.949287
O O2 0.098453 0.262144 0.961129
O O3 0.773614 0.815892 0.722370
O O4 0.626756 0.733627 0.820783
O O5 0.889711 0.837227 0.838513
O O6 0.701596 0.027945 0.804925
O O7 0.769436 0.393246 0.114597
O O8 0.777169 0.133513 0.118921
O O9 0.500000 0.500000 0.879866
O O10 0.000000 0.000000 0.065912
#
# Coordination Sequence:
#
# PCOD8305685 Si02
#       5
#     4   8   8   8   8
#     4  10  22  44  62  82 124 168 216 268 316 370
#     4  10  21  38  64  97 129 160 201 258 324 394
#     4  11  21  39  67  97 125 160 205 257 324 389
#     4  11  23  41  61  88 127 169 211 262 316 373
#     4   9  20  39  63  88 118 161 206 256 313 377
#
# _framework density 21.162894999999999
#
# number of rings (size 3 to 8) (size 9 to 14) (size 15 to 20)
#    0.000    1.778    0.000    4.000    0.000    1.778 
#    0.000   31.111    0.000    2.667    0.000    0.000 
#    0.000    0.000    0.000    0.000    0.000    0.000 
#
# Total GULP energy -445994.140107 kJ/mol
# GULP energy per Si atom -12388.726114 kJ/mol
# Density = 2.111473 g / cm^3
# Si number density = 21.162895 Si / 1000 Ang^3
#
#
#
# Elastic Constant Matrix: (Units=GPa)
#
#
# Indices 1 2 3 4 5 6 
#
# 1 137.4446 72.2024 58.2551 0.0000 0.0000 0.0000
# 2 72.2024 137.4446 58.2551 0.0000 0.0000 0.0000
# 3 58.2551 58.2551 112.7132 0.0000 0.0000 0.0000
# 4 0.0000 0.0000 0.0000 38.7843 0.0000 0.0000
# 5 0.0000 0.0000 0.0000 0.0000 38.7843 0.0000
# 6 0.0000 0.0000 0.0000 0.0000 0.0000 37.0853
#
#
#
# Elastic Compliance Matrix: (Units=1/GPa)
#
#
# Indices 1 2 3 4 5 6 
#
# 1 0.011010 -0.004318 -0.003459 0.000000 0.000000 0.000000
# 2 -0.004318 0.011010 -0.003459 0.000000 0.000000 0.000000
# 3 -0.003459 -0.003459 0.012447 0.000000 0.000000 0.000000
# 4 0.000000 0.000000 0.000000 0.025784 0.000000 0.000000
# 5 0.000000 0.000000 0.000000 0.000000 0.025784 0.000000
# 6 0.000000 0.000000 0.000000 0.000000 0.000000 0.026965
#
#
# Mechanical properties :
#
#
# Convention : Reuss Voigt Hill
#
# Bulk Modulus (GPa) = 83.35767 85.00305 84.18036
# Shear Modulus (GPa) = 35.85041 36.19010 36.02025
#
# Velocity S-wave (km/s) = 4.12031 4.13979 4.13006
# Velocity P-wave (km/s) = 7.88100 7.94379 7.91245
#
# Compressibility (1/GPa) = 0.01199650
#
# Stress axis : x y z
#
# Youngs Moduli (GPa) = 90.82809 90.82809 80.33830
#
# Poissons Ratio (x) = 0.39217 0.27787
# Poissons Ratio (y) = 0.39217 0.27787
# Poissons Ratio (z) = 0.31415 0.31415
#
# Static dielectric constant tensor:
#      x y z
#    x 3.774710 0.000000 0.000000 
#    y 0.000000 3.774710 0.000000 
#    z 0.000000 0.000000 3.797130 
# 
# 
# High freq. dielectric constant tensor:
#      x y z
#    x 1.832560 0.000000 0.000000 
#    y 0.000000 1.832560 0.000000 
#    z 0.000000 0.000000 1.834240 
# 
# From -- ./inp_files/4550.got.cif
#   From: 2010.03.12/outbox.cif.g09.slc.cpg/sg94_3_cif.got.tgz:4550.got - 2010.04.08 20:48:32.
