data_PCOD8305167
_publ_section_title
;
Structure prediction by ZEFSAII (Michael W. Deem and Ramdas Pophale) SiO2 
 PCOD8305167
Probable space group: P 41 2 2
;
_chemical_formula_sum "Si O2"
_cell_formula_units_Z 40
_cell_length_a 14.815606
_cell_length_b 14.815606
_cell_length_c 8.095909
_cell_angle_alpha 90.000000
_cell_angle_beta 90.000000
_cell_angle_gamma 90.000000
_cell_volume 1777.069684
_symmetry_space_group_name_H-M "P 41 2 2"
_symmetry_group_IT_number 91
_symmetry_cell_setting 'tetragonal'
loop_
_space_group_symop_operation_xyz
x,y,z
-y,x,1/4+z
-x,-y,1/2+z
y,-x,3/4+z
x,-y,1/2-z
-x,y,-z
y,x,3/4-z
-y,-x,1/4-z
loop_
_atom_site_type_symbol
_atom_site_label
_atom_site_fract_x
_atom_site_fract_y
_atom_site_fract_z
Si Si1 0.913288 0.086713 0.125000
Si Si2 0.760962 0.760962 0.875000
Si Si3 0.736669 0.400934 0.171585
Si Si4 0.793956 0.410080 0.815811
Si Si5 0.406119 0.004002 0.554624
Si Si6 0.733849 0.124325 0.920108
O O1 0.905210 0.176398 0.234105
O O2 0.914385 0.000000 0.250000
O O3 0.746076 0.679114 0.748392
O O4 0.760375 0.854105 0.769983
O O5 0.725554 0.500000 0.250000
O O6 0.636854 0.363147 0.125000
O O7 0.787191 0.322659 0.273431
O O8 0.799036 0.413456 0.012144
O O9 0.743111 0.500000 0.750000
O O10 0.894048 0.408863 0.741960
O O11 0.500000 0.956041 0.500000
O O12 0.385640 0.000000 0.750000
O O13 0.329706 0.961092 0.441200
#
# Coordination Sequence:
#
# PCOD8305167 Si02
#       6
#     4   4   8   8   8   8
#     4  12  30  55  78 110 153 208 260 318 380 476
#     4  12  26  43  68 114 141 198 240 298 378 460
#     4  12  24  46  76 110 148 202 253 315 381 457
#     4  11  25  43  69 107 147 184 248 306 375 449
#     4  11  25  42  71 111 147 186 238 321 386 446
#     4  12  25  47  77 103 146 199 255 312 384 453
#
# _framework density 22.508965
#
# number of rings (size 3 to 8) (size 9 to 14) (size 15 to 20)
#    0.000    0.400    5.000    2.400    8.400    0.800 
#    0.000    1.000    0.000    0.000    0.000    0.000 
#    0.000    0.000    0.000    0.000    0.000    0.000 
#
# Total GULP energy -495651.223611 kJ/mol
# GULP energy per Si atom -12391.280590 kJ/mol
# Density = 2.245773 g / cm^3
# Si number density = 22.508965 Si / 1000 Ang^3
#
#
#
# Elastic Constant Matrix: (Units=GPa)
#
#
# Indices 1 2 3 4 5 6 
#
# 1 137.2151 64.2515 51.4917 0.0000 0.0000 0.0000
# 2 64.2515 137.2146 51.4915 0.0000 0.0000 0.0000
# 3 51.4917 51.4915 129.5441 0.0000 0.0000 0.0000
# 4 0.0000 0.0000 0.0000 40.9983 0.0000 0.0000
# 5 0.0000 0.0000 0.0000 0.0000 40.9985 0.0000
# 6 0.0000 0.0000 0.0000 0.0000 0.0000 31.0103
#
#
#
# Elastic Compliance Matrix: (Units=1/GPa)
#
#
# Indices 1 2 3 4 5 6 
#
# 1 0.009967 -0.003738 -0.002476 0.000000 0.000000 0.000000
# 2 -0.003738 0.009967 -0.002476 0.000000 0.000000 0.000000
# 3 -0.002476 -0.002476 0.009688 0.000000 0.000000 0.000000
# 4 0.000000 0.000000 0.000000 0.024391 0.000000 0.000000
# 5 0.000000 0.000000 0.000000 0.000000 0.024391 0.000000
# 6 0.000000 0.000000 0.000000 0.000000 0.000000 0.032247
#
#
# Mechanical properties :
#
#
# Convention : Reuss Voigt Hill
#
# Bulk Modulus (GPa) = 81.68490 82.04925 81.86707
# Shear Modulus (GPa) = 37.84630 38.38404 38.11517
#
# Velocity S-wave (km/s) = 4.10492 4.13398 4.11948
# Velocity P-wave (km/s) = 7.67046 7.70178 7.68613
#
# Compressibility (1/GPa) = 0.01224216
#
# Stress axis : x y z
#
# Youngs Moduli (GPa) = 100.32729 100.32702 103.22323
#
# Poissons Ratio (x) = 0.37503 0.25558
# Poissons Ratio (y) = 0.37503 0.25558
# Poissons Ratio (z) = 0.24841 0.24841
#
# Static dielectric constant tensor:
#      x y z
#    x 4.204200 0.000000 0.000000 
#    y 0.000000 4.204210 0.000000 
#    z 0.000000 0.000000 3.977460 
# 
# 
# High freq. dielectric constant tensor:
#      x y z
#    x 1.888960 0.000000 0.000000 
#    y 0.000000 1.888960 0.000000 
#    z 0.000000 0.000000 1.896920 
# 
# From -- ./inp_files/9722.got.cif
#   From: 2010.03.12/outbox.cif.g09.slc.cpg/sg91_5_cif.got.tgz:9722.got - 2010.04.08 20:27:58.
