data_PCOD8305490
_publ_section_title
;
Structure prediction by ZEFSAII (Michael W. Deem and Ramdas Pophale) SiO2 
 PCOD8305490
Probable space group: P 41 21 2
;
_chemical_formula_sum "Si O2"
_cell_formula_units_Z 40
_cell_length_a 13.683950
_cell_length_b 13.683950
_cell_length_c 9.799138
_cell_angle_alpha 90.000000
_cell_angle_beta 90.000000
_cell_angle_gamma 90.000000
_cell_volume 1834.893369
_symmetry_space_group_name_H-M "P 41 21 2"
_symmetry_group_IT_number 92
_symmetry_cell_setting 'tetragonal'
loop_
_space_group_symop_operation_xyz
x,y,z
1/2-y,1/2+x,1/4+z
-x,-y,1/2+z
1/2+y,1/2-x,3/4+z
1/2+x,1/2-y,3/4-z
1/2-x,1/2+y,1/4-z
y,x,-z
-y,-x,1/2-z
loop_
_atom_site_type_symbol
_atom_site_label
_atom_site_fract_x
_atom_site_fract_y
_atom_site_fract_z
Si Si1 0.073226 0.952517 0.404927
Si Si2 0.831029 0.663922 0.499279
Si Si3 0.460470 0.241110 0.759623
Si Si4 0.663003 0.819866 0.007261
Si Si5 0.711267 0.045273 0.991647
O O1 0.035426 0.964574 0.250000
O O2 0.030235 0.856702 0.475426
O O3 0.189362 0.952311 0.405333
O O4 0.042222 0.042222 0.500000
O O5 0.745522 0.745522 0.500000
O O6 0.805066 0.574234 0.598077
O O7 0.853975 0.618799 0.349237
O O8 0.933948 0.708616 0.544286
O O9 0.379409 0.210805 0.651504
O O10 0.770310 0.770310 0.000000
O O11 0.590108 0.778395 0.891993
O O12 0.668751 0.936558 0.997773
#
# Coordination Sequence:
#
# PCOD8305490 Si02
#       5
#     8   8   8   8   8
#     4  12  26  48  74 106 142 189 248 295 352 419
#     4  12  24  47  71 100 142 187 243 300 359 433
#     4  12  25  46  72 101 143 190 238 294 364 429
#     4  12  26  45  69 104 146 185 239 302 361 429
#     4  12  25  46  72 101 147 188 234 304 364 423
#
# _framework density 21.799630000000001
#
# number of rings (size 3 to 8) (size 9 to 14) (size 15 to 20)
#    0.000    0.000    6.000    3.600    2.800    4.800 
#    7.200    0.000    0.000    0.000    0.000    0.000 
#    0.000    0.000    0.000    0.000    0.000    0.000 
#
# Total GULP energy -496152.526478 kJ/mol
# GULP energy per Si atom -12403.813162 kJ/mol
# Density = 2.175001 g / cm^3
# Si number density = 21.799630 Si / 1000 Ang^3
#
#
#
# Elastic Constant Matrix: (Units=GPa)
#
#
# Indices 1 2 3 4 5 6 
#
# 1 76.9511 46.1279 22.4187 0.0000 0.0000 0.0000
# 2 46.1279 76.9520 22.4189 0.0000 0.0000 0.0000
# 3 22.4187 22.4189 103.5691 0.0000 0.0000 0.0000
# 4 0.0000 0.0000 0.0000 11.4955 0.0000 0.0000
# 5 0.0000 0.0000 0.0000 0.0000 11.4979 0.0000
# 6 0.0000 0.0000 0.0000 0.0000 0.0000 30.7338
#
#
#
# Elastic Compliance Matrix: (Units=1/GPa)
#
#
# Indices 1 2 3 4 5 6 
#
# 1 0.020632 -0.011811 -0.001909 0.000000 0.000000 0.000000
# 2 -0.011811 0.020631 -0.001909 0.000000 0.000000 0.000000
# 3 -0.001909 -0.001909 0.010482 0.000000 0.000000 0.000000
# 4 0.000000 0.000000 0.000000 0.086991 0.000000 0.000000
# 5 0.000000 0.000000 0.000000 0.000000 0.086972 0.000000
# 6 0.000000 0.000000 0.000000 0.000000 0.000000 0.032537
#
#
# Mechanical properties :
#
#
# Convention : Reuss Voigt Hill
#
# Bulk Modulus (GPa) = 48.81478 48.82260 48.81869
# Shear Modulus (GPa) = 16.87289 21.84588 19.35939
#
# Velocity S-wave (km/s) = 2.78510 3.16906 2.98327
# Velocity P-wave (km/s) = 5.72569 5.98626 5.85742
#
# Compressibility (1/GPa) = 0.02048560
#
# Stress axis : x y z
#
# Youngs Moduli (GPa) = 48.46927 48.46985 95.40199
#
# Poissons Ratio (x) = 0.57248 0.18215
# Poissons Ratio (y) = 0.57248 0.18215
# Poissons Ratio (z) = 0.09254 0.09254
#
# Static dielectric constant tensor:
#      x y z
#    x 3.938690 0.000000 0.000000 
#    y 0.000000 3.938690 0.000000 
#    z 0.000000 0.000000 0.779410 
# 
# 
# High freq. dielectric constant tensor:
#      x y z
#    x 1.861260 0.000000 0.000000 
#    y 0.000000 1.861260 0.000000 
#    z 0.000000 0.000000 1.872860 
# 
# From -- ./inp_files/1333.got.cif
#   From: 2010.03.12/outbox.cif.g09.slc.cpg/sg92_1_cif.got.tgz:1333.got - 2010.04.08 20:41:11.
