data_PCOD8305618
_publ_section_title
;
Structure prediction by ZEFSAII (Michael W. Deem and Ramdas Pophale) SiO2 
 PCOD8305618
Probable space group: P 42 21 2
;
_chemical_formula_sum "Si O2"
_cell_formula_units_Z 64
_cell_length_a 12.635563
_cell_length_b 12.635563
_cell_length_c 22.307745
_cell_angle_alpha 90.000000
_cell_angle_beta 90.000000
_cell_angle_gamma 90.000000
_cell_volume 3561.597734
_symmetry_space_group_name_H-M "P 42 21 2"
_symmetry_group_IT_number 94
_symmetry_cell_setting 'tetragonal'
loop_
_space_group_symop_operation_xyz
x,y,z
1/2-y,1/2+x,1/2+z
-x,-y,z
1/2+y,1/2-x,1/2+z
1/2+x,1/2-y,1/2-z
1/2-x,1/2+y,1/2-z
y,x,-z
-y,-x,-z
loop_
_atom_site_type_symbol
_atom_site_label
_atom_site_fract_x
_atom_site_fract_y
_atom_site_fract_z
Si Si1 0.109198 0.063010 0.065870
Si Si2 0.625400 0.809468 0.432237
Si Si3 0.389033 0.756689 0.825252
Si Si4 0.423172 0.225494 0.246618
Si Si5 0.254471 0.066634 0.855990
Si Si6 0.623990 0.183342 0.180241
Si Si7 0.752290 0.621496 0.208547
Si Si8 0.273903 0.886554 0.065331
O O1 0.118811 0.149621 0.117651
O O2 0.217209 0.998236 0.072459
O O3 0.113391 0.113391 0.000000
O O4 0.000000 0.000000 0.074554
O O5 0.696927 0.889264 0.393141
O O6 0.506284 0.809187 0.406621
O O7 0.624174 0.837619 0.502591
O O8 0.676235 0.693557 0.426296
O O9 0.362083 0.849075 0.777625
O O10 0.306549 0.660248 0.819028
O O11 0.505680 0.715134 0.811714
O O12 0.495656 0.278195 0.298493
O O13 0.501266 0.172048 0.198185
O O14 0.354586 0.310586 0.210522
O O15 0.333204 0.161064 0.837767
O O16 0.697933 0.117396 0.225289
O O17 0.636955 0.131535 0.115201
#
# Coordination Sequence:
#
# PCOD8305618 Si02
#       8
#     8   8   8   8   8   8   8   8
#     4  11  18  29  53  85 112 139 168 222 287 328
#     4   9  16  31  52  77 102 134 179 220 260 329
#     4   9  19  35  56  76 101 141 181 217 269 324
#     4   9  20  37  51  77 109 134 182 227 263 324
#     4  10  19  33  51  78 108 142 179 218 269 331
#     4   9  20  34  53  80 103 138 178 219 274 319
#     4  10  21  36  54  74 106 144 179 225 268 318
#     4  10  17  30  53  80 111 134 170 227 273 325
#
# _framework density 17.969463999999999
#
# number of rings (size 3 to 8) (size 9 to 14) (size 15 to 20)
#    0.000    2.375    2.500    1.500    0.000    8.000 
#    0.000    0.000    2.750    1.500    0.000    3.500 
#    0.000    0.000    0.000    0.000    0.000    0.000 
#
# Total GULP energy -793452.022919 kJ/mol
# GULP energy per Si atom -12397.687858 kJ/mol
# Density = 1.792856 g / cm^3
# Si number density = 17.969464 Si / 1000 Ang^3
#
#
#
# Elastic Constant Matrix: (Units=GPa)
#
#
# Indices 1 2 3 4 5 6 
#
# 1 63.1190 6.8110 30.6870 0.0000 0.0000 0.0000
# 2 6.8110 63.1190 30.6870 0.0000 0.0000 0.0000
# 3 30.6870 30.6870 114.0234 0.0000 0.0000 0.0000
# 4 0.0000 0.0000 0.0000 24.9030 0.0000 0.0000
# 5 0.0000 0.0000 0.0000 0.0000 24.9030 0.0000
# 6 0.0000 0.0000 0.0000 0.0000 0.0000 14.8336
#
#
#
# Elastic Compliance Matrix: (Units=1/GPa)
#
#
# Indices 1 2 3 4 5 6 
#
# 1 0.018241 0.000481 -0.005039 0.000000 0.000000 0.000000
# 2 0.000481 0.018241 -0.005039 0.000000 0.000000 0.000000
# 3 -0.005039 -0.005039 0.011482 0.000000 0.000000 0.000000
# 4 0.000000 0.000000 0.000000 0.040156 0.000000 0.000000
# 5 0.000000 0.000000 0.000000 0.000000 0.040156 0.000000
# 6 0.000000 0.000000 0.000000 0.000000 0.000000 0.067415
#
#
# Mechanical properties :
#
#
# Convention : Reuss Voigt Hill
#
# Bulk Modulus (GPa) = 34.75611 41.84793 38.30202
# Shear Modulus (GPa) = 22.27439 24.39965 23.33702
#
# Velocity S-wave (km/s) = 3.52457 3.68889 3.60766
# Velocity P-wave (km/s) = 5.99560 6.44071 6.22214
#
# Compressibility (1/GPa) = 0.02877192
#
# Stress axis : x y z
#
# Youngs Moduli (GPa) = 54.82199 54.82199 87.09096
#
# Poissons Ratio (x) = -0.02639 0.43882
# Poissons Ratio (y) = -0.02639 0.43882
# Poissons Ratio (z) = 0.27623 0.27623
#
# Static dielectric constant tensor:
#      x y z
#    x 3.108660 0.000000 0.000000 
#    y 0.000000 3.108660 0.000000 
#    z 0.000000 0.000000 3.547810 
# 
# 
# High freq. dielectric constant tensor:
#      x y z
#    x 1.674680 0.000000 0.000000 
#    y 0.000000 1.674680 0.000000 
#    z 0.000000 0.000000 1.700310 
# 
# From -- ./inp_files/5165.got.cif
#   From: 2010.03.12/outbox.cif.g09.slc.cpg/sg94_3_cif.got.tgz:5165.got - 2010.04.08 20:48:32.
