data_PCOD8305657
_publ_section_title
;
Structure prediction by ZEFSAII (Michael W. Deem and Ramdas Pophale) SiO2 
 PCOD8305657
Probable space group: P 42 21 2
;
_chemical_formula_sum "Si O2"
_cell_formula_units_Z 42
_cell_length_a 11.206309
_cell_length_b 11.206309
_cell_length_c 17.365071
_cell_angle_alpha 90.000000
_cell_angle_beta 90.000000
_cell_angle_gamma 90.000000
_cell_volume 2180.729257
_symmetry_space_group_name_H-M "P 42 21 2"
_symmetry_group_IT_number 94
_symmetry_cell_setting 'tetragonal'
loop_
_space_group_symop_operation_xyz
x,y,z
1/2-y,1/2+x,1/2+z
-x,-y,z
1/2+y,1/2-x,1/2+z
1/2+x,1/2-y,1/2-z
1/2-x,1/2+y,1/2-z
y,x,-z
-y,-x,-z
loop_
_atom_site_type_symbol
_atom_site_label
_atom_site_fract_x
_atom_site_fract_y
_atom_site_fract_z
Si Si1 0.558688 0.311325 0.711331
Si Si2 0.000000 0.000000 0.500000
Si Si3 0.057116 0.821001 0.226142
Si Si4 0.167589 0.731227 0.383761
Si Si5 0.923180 0.612021 0.663897
Si Si6 0.242068 0.452078 0.039973
O O1 0.649006 0.417789 0.732468
O O2 0.429709 0.365209 0.692197
O O3 0.609958 0.237776 0.638283
O O4 0.546153 0.225416 0.784070
O O5 0.999813 0.121404 0.550420
O O6 0.098561 0.781625 0.310262
O O7 0.077067 0.715048 0.165552
O O8 0.069883 0.706930 0.450777
O O9 0.264736 0.826939 0.413763
O O10 0.000000 0.500000 0.693086
O O11 0.955879 0.647913 0.576112
#
# Coordination Sequence:
#
# PCOD8305657 Si02
#       6
#     8   2   8   8   8   8
#     4  10  21  38  63  91 121 161 211 257 314 382
#     4   8  20  32  60  92 112 164 212 262 304 360
#     4  10  21  36  64  93 121 158 214 260 315 369
#     4   9  19  36  59  90 120 165 198 262 311 367
#     4  11  23  37  59  88 126 163 205 262 314 375
#     4  10  20  36  60  86 128 165 210 257 319 369
#
# _framework density 19.259613999999999
#
# number of rings (size 3 to 8) (size 9 to 14) (size 15 to 20)
#    0.000    2.286    1.905    1.143    8.000    0.000 
#    0.000    5.714    0.000   18.286    0.000    0.000 
#    0.000    0.000    0.000    0.000    0.000    0.000 
#
# Total GULP energy -520710.518454 kJ/mol
# GULP energy per Si atom -12397.869487 kJ/mol
# Density = 1.921578 g / cm^3
# Si number density = 19.259614 Si / 1000 Ang^3
#
#
#
# Elastic Constant Matrix: (Units=GPa)
#
#
# Indices 1 2 3 4 5 6 
#
# 1 117.6482 68.0414 54.9832 0.0000 0.0000 0.0000
# 2 68.0414 117.6482 54.9832 0.0000 0.0000 0.0000
# 3 54.9832 54.9832 113.0832 0.0000 0.0000 0.0000
# 4 0.0000 0.0000 0.0000 31.2016 0.0000 0.0000
# 5 0.0000 0.0000 0.0000 0.0000 31.2016 0.0000
# 6 0.0000 0.0000 0.0000 0.0000 0.0000 35.6231
#
#
#
# Elastic Compliance Matrix: (Units=1/GPa)
#
#
# Indices 1 2 3 4 5 6 
#
# 1 0.013861 -0.006298 -0.003677 0.000000 0.000000 0.000000
# 2 -0.006298 0.013861 -0.003677 0.000000 0.000000 0.000000
# 3 -0.003677 -0.003677 0.012419 0.000000 0.000000 0.000000
# 4 0.000000 0.000000 0.000000 0.032050 0.000000 0.000000
# 5 0.000000 0.000000 0.000000 0.000000 0.032050 0.000000
# 6 0.000000 0.000000 0.000000 0.000000 0.000000 0.028072
#
#
# Mechanical properties :
#
#
# Convention : Reuss Voigt Hill
#
# Bulk Modulus (GPa) = 77.90655 78.26616 78.08636
# Shear Modulus (GPa) = 30.50736 30.96337 30.73536
#
# Velocity S-wave (km/s) = 3.98428 4.01394 3.99914
# Velocity P-wave (km/s) = 7.85522 7.88720 7.87123
#
# Compressibility (1/GPa) = 0.01283589
#
# Stress axis : x y z
#
# Youngs Moduli (GPa) = 72.14595 72.14595 80.52181
#
# Poissons Ratio (x) = 0.45436 0.29610
# Poissons Ratio (y) = 0.45436 0.29610
# Poissons Ratio (z) = 0.26530 0.26530
#
# Static dielectric constant tensor:
#      x y z
#    x 3.615450 0.000000 0.000000 
#    y 0.000000 3.615450 0.000000 
#    z 0.000000 0.000000 3.372430 
# 
# 
# High freq. dielectric constant tensor:
#      x y z
#    x 1.751370 0.000000 0.000000 
#    y 0.000000 1.751370 0.000000 
#    z 0.000000 0.000000 1.729450 
# 
# From -- ./inp_files/4028.got.cif
#   From: 2010.03.12/outbox.cif.g09.slc.cpg/sg94_3_cif.got.tgz:4028.got - 2010.04.08 20:48:32.
