data_PCOD8305338
_publ_section_title
;
Structure prediction by ZEFSAII (Michael W. Deem and Ramdas Pophale) SiO2 
 PCOD8305338
Probable space group: P 41 21 2
;
_chemical_formula_sum "Si O2"
_cell_formula_units_Z 44
_cell_length_a 11.519032
_cell_length_b 11.519032
_cell_length_c 17.093587
_cell_angle_alpha 90.000000
_cell_angle_beta 90.000000
_cell_angle_gamma 90.000000
_cell_volume 2268.115551
_symmetry_space_group_name_H-M "P 41 21 2"
_symmetry_group_IT_number 92
_symmetry_cell_setting 'tetragonal'
loop_
_space_group_symop_operation_xyz
x,y,z
1/2-y,1/2+x,1/4+z
-x,-y,1/2+z
1/2+y,1/2-x,3/4+z
1/2+x,1/2-y,3/4-z
1/2-x,1/2+y,1/4-z
y,x,-z
-y,-x,1/2-z
loop_
_atom_site_type_symbol
_atom_site_label
_atom_site_fract_x
_atom_site_fract_y
_atom_site_fract_z
Si Si1 0.912975 0.087026 0.250000
Si Si2 0.961523 0.510969 0.788881
Si Si3 0.090719 0.950112 0.333440
Si Si4 0.213737 0.522535 0.419550
Si Si5 0.447714 0.147749 0.096122
Si Si6 0.821625 0.890410 0.587965
O O1 0.918859 0.212362 0.209125
O O2 0.015886 0.067823 0.315496
O O3 0.939805 0.614800 0.729088
O O4 0.843219 0.514985 0.838226
O O5 0.980873 0.389752 0.742242
O O6 0.074011 0.526194 0.843433
O O7 0.114303 0.885698 0.250000
O O8 0.218667 0.976706 0.366456
O O9 0.020356 0.868915 0.394191
O O10 0.302464 0.626577 0.402177
O O11 0.313856 0.112913 0.104589
O O12 0.854691 0.854691 0.500000
#
# Coordination Sequence:
#
# PCOD8305338 Si02
#       6
#     4   8   8   8   8   8
#     4   8  20  40  62  80 120 156 196 252 292 356
#     4  10  23  37  60  90 120 156 200 245 311 366
#     4   9  20  36  57  87 116 150 201 245 297 344
#     4  10  21  42  57  90 119 159 202 245 310 361
#     4  11  21  36  58  87 121 155 195 253 297 359
#     4  11  21  34  64  89 117 158 199 257 297 353
#
# _framework density 19.399365
#
# number of rings (size 3 to 8) (size 9 to 14) (size 15 to 20)
#    0.545    1.455    1.818    1.636    5.091    0.000 
#    3.273    7.273    0.000    0.000    0.000    0.000 
#    0.000    0.000    0.000    0.000    0.000    0.000 
#
# Total GULP energy -545284.221756 kJ/mol
# GULP energy per Si atom -12392.823222 kJ/mol
# Density = 1.935521 g / cm^3
# Si number density = 19.399365 Si / 1000 Ang^3
#
#
#
# Elastic Constant Matrix: (Units=GPa)
#
#
# Indices 1 2 3 4 5 6 
#
# 1 88.2449 11.8947 26.7002 0.0000 0.0000 0.0000
# 2 11.8947 88.2450 26.7005 0.0000 0.0000 0.0000
# 3 26.7002 26.7005 82.5994 0.0000 0.0000 0.0000
# 4 0.0000 0.0000 0.0000 24.9195 0.0000 0.0000
# 5 0.0000 0.0000 0.0000 0.0000 24.9195 0.0000
# 6 0.0000 0.0000 0.0000 0.0000 0.0000 12.3795
#
#
#
# Elastic Compliance Matrix: (Units=1/GPa)
#
#
# Indices 1 2 3 4 5 6 
#
# 1 0.012582 -0.000516 -0.003900 0.000000 0.000000 0.000000
# 2 -0.000516 0.012582 -0.003900 0.000000 0.000000 0.000000
# 3 -0.003900 -0.003900 0.014628 0.000000 0.000000 0.000000
# 4 0.000000 0.000000 0.000000 0.040129 0.000000 0.000000
# 5 0.000000 0.000000 0.000000 0.000000 0.040129 0.000000
# 6 0.000000 0.000000 0.000000 0.000000 0.000000 0.080778
#
#
# Mechanical properties :
#
#
# Convention : Reuss Voigt Hill
#
# Bulk Modulus (GPa) = 43.18020 43.29781 43.23901
# Shear Modulus (GPa) = 22.20435 25.36329 23.78382
#
# Velocity S-wave (km/s) = 3.38685 3.61976 3.50524
# Velocity P-wave (km/s) = 6.13198 6.31173 6.22250
#
# Compressibility (1/GPa) = 0.02315876
#
# Stress axis : x y z
#
# Youngs Moduli (GPa) = 79.48031 79.48021 68.36107
#
# Poissons Ratio (x) = 0.04100 0.26663
# Poissons Ratio (y) = 0.04100 0.26663
# Poissons Ratio (z) = 0.31000 0.31000
#
# Static dielectric constant tensor:
#      x y z
#    x 3.398610 0.000000 0.000000 
#    y 0.000000 3.398600 0.000000 
#    z 0.000000 0.000000 3.678890 
# 
# 
# High freq. dielectric constant tensor:
#      x y z
#    x 1.741700 0.000000 0.000000 
#    y 0.000000 1.741700 0.000000 
#    z 0.000000 0.000000 1.757800 
# 
# From -- ./inp_files/3059.got.cif
#   From: 2010.03.12/outbox.cif.g09.slc.cpg/sg92_2_cif.got.tgz:3059.got - 2010.04.08 20:41:11.
