data_PCOD8305808
_publ_section_title
;
Structure prediction by ZEFSAII (Michael W. Deem and Ramdas Pophale) SiO2 
 PCOD8305808
Probable space group: P 43 2 2
;
_chemical_formula_sum "Si O2"
_cell_formula_units_Z 64
_cell_length_a 14.606266
_cell_length_b 14.606266
_cell_length_c 18.078949
_cell_angle_alpha 90.000000
_cell_angle_beta 90.000000
_cell_angle_gamma 90.000000
_cell_volume 3857.017333
_symmetry_space_group_name_H-M "P 43 2 2"
_symmetry_group_IT_number 95
_symmetry_cell_setting 'tetragonal'
loop_
_space_group_symop_operation_xyz
x,y,z
-y,x,3/4+z
-x,-y,1/2+z
y,-x,1/4+z
x,-y,1/2-z
-x,y,-z
y,x,1/4-z
-y,-x,3/4-z
loop_
_atom_site_type_symbol
_atom_site_label
_atom_site_fract_x
_atom_site_fract_y
_atom_site_fract_z
Si Si1 0.116207 0.243509 0.834925
Si Si2 0.106716 0.602348 0.073687
Si Si3 0.902258 0.238308 0.850767
Si Si4 0.889602 0.380290 0.414596
Si Si5 0.062534 0.590634 0.426390
Si Si6 0.898141 0.449793 0.171548
Si Si7 0.754477 0.875965 0.432434
Si Si8 0.911751 0.793858 0.172672
O O1 0.150331 0.349837 0.827903
O O2 0.171813 0.194154 0.899685
O O3 0.127218 0.194717 0.755419
O O4 0.010939 0.230502 0.856582
O O5 0.132768 0.494693 0.069723
O O6 0.147884 0.658329 0.142196
O O7 0.997816 0.606649 0.079130
O O8 0.146410 0.644073 0.996833
O O9 0.857030 0.142971 0.875000
O O10 0.876451 0.319168 0.909072
O O11 0.863926 0.261632 0.769305
O O12 0.849292 0.477301 0.383993
O O13 0.864951 0.297653 0.360226
O O14 0.000000 0.601763 0.500000
O O15 0.000789 0.573131 0.353890
O O16 0.902768 0.500000 0.250000
O O17 0.788623 0.978925 0.417084
O O18 0.881489 0.881489 0.125000
#
# Coordination Sequence:
#
# PCOD8305808 Si02
#       8
#     8   8   8   8   8   8   8   8
#     4  10  21  34  49  69  95 140 172 208 254 296
#     4   9  16  29  48  72  96 121 154 210 264 306
#     4  10  24  35  50  69  98 138 177 218 250 297
#     4   9  15  27  45  70  92 118 154 206 259 300
#     4  10  19  31  53  76  91 129 167 214 268 313
#     4  10  17  29  50  71  96 118 162 207 257 312
#     4  10  22  35  47  70 101 132 175 214 253 296
#     4  10  19  31  47  66  93 132 173 210 251 291
#
# _framework density 16.593133000000002
#
# number of rings (size 3 to 8) (size 9 to 14) (size 15 to 20)
#    0.000    2.250    3.750    0.750    8.750    2.000 
#    0.000    2.500    0.000    0.000    0.000    0.000 
#    0.000    1.000    0.750    0.500    0.500    0.000 
#
# Total GULP energy -792856.938715 kJ/mol
# GULP energy per Si atom -12388.389667 kJ/mol
# Density = 1.655537 g / cm^3
# Si number density = 16.593133 Si / 1000 Ang^3
#
#
#
# Elastic Constant Matrix: (Units=GPa)
#
#
# Indices 1 2 3 4 5 6 
#
# 1 58.7883 32.5052 36.1870 0.0000 0.0000 0.0000
# 2 32.5052 58.7898 36.1866 0.0000 0.0000 0.0000
# 3 36.1870 36.1866 106.9449 0.0000 0.0000 0.0000
# 4 0.0000 0.0000 0.0000 25.7197 0.0000 0.0000
# 5 0.0000 0.0000 0.0000 0.0000 25.7195 0.0000
# 6 0.0000 0.0000 0.0000 0.0000 0.0000 2.7769
#
#
#
# Elastic Compliance Matrix: (Units=1/GPa)
#
#
# Indices 1 2 3 4 5 6 
#
# 1 0.026508 -0.011539 -0.005065 0.000000 0.000000 0.000000
# 2 -0.011539 0.026507 -0.005065 0.000000 0.000000 0.000000
# 3 -0.005065 -0.005065 0.012778 0.000000 0.000000 0.000000
# 4 0.000000 0.000000 0.000000 0.038881 0.000000 0.000000
# 5 0.000000 0.000000 0.000000 0.000000 0.038881 0.000000
# 6 0.000000 0.000000 0.000000 0.000000 0.000000 0.360119
#
#
# Mechanical properties :
#
#
# Convention : Reuss Voigt Hill
#
# Bulk Modulus (GPa) = 44.53143 48.25338 46.39241
# Shear Modulus (GPa) = 9.01719 18.81949 13.91834
#
# Velocity S-wave (km/s) = 2.33369 3.37140 2.89935
# Velocity P-wave (km/s) = 5.84440 6.65572 6.26321
#
# Compressibility (1/GPa) = 0.02245605
#
# Stress axis : x y z
#
# Youngs Moduli (GPa) = 37.72447 37.72586 78.25777
#
# Poissons Ratio (x) = 0.43530 0.39639
# Poissons Ratio (y) = 0.43529 0.39636
# Poissons Ratio (z) = 0.19108 0.19107
#
# Static dielectric constant tensor:
#      x y z
#    x 3.067770 0.000000 0.000000 
#    y 0.000000 3.067770 0.000000 
#    z 0.000000 0.000000 3.441860 
# 
# 
# High freq. dielectric constant tensor:
#      x y z
#    x 1.602740 0.000000 0.000000 
#    y 0.000000 1.602740 0.000000 
#    z 0.000000 0.000000 1.663890 
# 
# From -- ./inp_files/5806.got.cif
#   From: 2010.03.12/outbox.cif.g09.slc.cpg/sg95_3_cif.got.tgz:5806.got - 2010.04.08 20:51:55.
