data_PCOD8305678
_publ_section_title
;
Structure prediction by ZEFSAII (Michael W. Deem and Ramdas Pophale) SiO2 
 PCOD8305678
Probable space group: P 42 21 2
;
_chemical_formula_sum "Si O2"
_cell_formula_units_Z 38
_cell_length_a 10.402108
_cell_length_b 10.402108
_cell_length_c 15.226282
_cell_angle_alpha 90.000000
_cell_angle_beta 90.000000
_cell_angle_gamma 90.000000
_cell_volume 1647.542346
_symmetry_space_group_name_H-M "P 42 21 2"
_symmetry_group_IT_number 94
_symmetry_cell_setting 'tetragonal'
loop_
_space_group_symop_operation_xyz
x,y,z
1/2-y,1/2+x,1/2+z
-x,-y,z
1/2+y,1/2-x,1/2+z
1/2+x,1/2-y,1/2-z
1/2-x,1/2+y,1/2-z
y,x,-z
-y,-x,-z
loop_
_atom_site_type_symbol
_atom_site_label
_atom_site_fract_x
_atom_site_fract_y
_atom_site_fract_z
Si Si1 0.500000 0.500000 0.500000
Si Si2 0.406662 0.303985 0.915656
Si Si3 0.818073 0.818073 0.500000
Si Si4 0.400658 0.112950 0.768873
Si Si5 0.973835 0.147549 0.254618
Si Si6 0.288164 0.393456 0.382157
O O1 0.368670 0.495982 0.441543
O O2 0.555396 0.322503 0.940436
O O3 0.392662 0.169046 0.866965
O O4 0.357228 0.414794 0.851173
O O5 0.313570 0.313570 0.000000
O O6 0.810466 0.690323 0.440051
O O7 0.252805 0.086248 0.740129
O O8 0.463888 0.207720 0.695582
O O9 0.500000 0.000000 0.772974
O O10 0.884136 0.199202 0.174278
O O11 0.000000 0.000000 0.225764
#
# Coordination Sequence:
#
# PCOD8305678 Si02
#       6
#     2   8   4   8   8   8
#     4  10  20  44  62 108 132 192 236 284 352 450
#     4  11  23  41  69 102 135 183 241 301 360 435
#     4  11  21  43  71 104 138 182 241 307 359 425
#     4  11  25  45  69 104 146 187 237 306 373 432
#     4  11  22  43  70  98 135 193 242 286 363 449
#     4  10  22  40  71  99 142 185 238 296 363 440
#
# _framework density 23.064658999999999
#
# number of rings (size 3 to 8) (size 9 to 14) (size 15 to 20)
#    0.000    1.263    1.053    5.368    0.000    5.053 
#    1.895   12.632    0.000    0.000    0.000    0.000 
#    0.000    0.000    0.000    0.000    0.000    0.000 
#
# Total GULP energy -470756.803558 kJ/mol
# GULP energy per Si atom -12388.336936 kJ/mol
# Density = 2.301216 g / cm^3
# Si number density = 23.064659 Si / 1000 Ang^3
#
#
#
# Elastic Constant Matrix: (Units=GPa)
#
#
# Indices 1 2 3 4 5 6 
#
# 1 115.9793 59.8725 59.5015 0.0000 0.0000 0.0000
# 2 59.8725 115.9793 59.5015 0.0000 0.0000 0.0000
# 3 59.5015 59.5015 172.4008 0.0000 0.0000 0.0000
# 4 0.0000 0.0000 0.0000 29.2429 0.0000 0.0000
# 5 0.0000 0.0000 0.0000 0.0000 29.2429 0.0000
# 6 0.0000 0.0000 0.0000 0.0000 0.0000 43.2579
#
#
#
# Elastic Compliance Matrix: (Units=1/GPa)
#
#
# Indices 1 2 3 4 5 6 
#
# 1 0.012621 -0.005202 -0.002561 0.000000 0.000000 0.000000
# 2 -0.005202 0.012621 -0.002561 0.000000 0.000000 0.000000
# 3 -0.002561 -0.002561 0.007568 0.000000 0.000000 0.000000
# 4 0.000000 0.000000 0.000000 0.034196 0.000000 0.000000
# 5 0.000000 0.000000 0.000000 0.000000 0.034196 0.000000
# 6 0.000000 0.000000 0.000000 0.000000 0.000000 0.023117
#
#
# Mechanical properties :
#
#
# Convention : Reuss Voigt Hill
#
# Bulk Modulus (GPa) = 82.20889 84.67891 83.44390
# Shear Modulus (GPa) = 33.55212 35.38100 34.46656
#
# Velocity S-wave (km/s) = 3.81819 3.92087 3.86987
# Velocity P-wave (km/s) = 7.42686 7.56908 7.49831
#
# Compressibility (1/GPa) = 0.01216413
#
# Stress axis : x y z
#
# Youngs Moduli (GPa) = 79.23093 79.23093 132.13483
#
# Poissons Ratio (x) = 0.41215 0.33836
# Poissons Ratio (y) = 0.41215 0.33836
# Poissons Ratio (z) = 0.20289 0.20289
#
# Static dielectric constant tensor:
#      x y z
#    x 4.172790 0.000000 0.000000 
#    y 0.000000 4.172790 0.000000 
#    z 0.000000 0.000000 4.579050 
# 
# 
# High freq. dielectric constant tensor:
#      x y z
#    x 1.894960 0.000000 0.000000 
#    y 0.000000 1.894960 0.000000 
#    z 0.000000 0.000000 1.946260 
# 
# From -- ./inp_files/3460.got.cif
#   From: 2010.03.12/outbox.cif.g09.slc.cpg/sg94_2_cif.got.tgz:3460.got - 2010.04.08 20:48:32.
