data_PCOD8305443
_publ_section_title
;
Structure prediction by ZEFSAII (Michael W. Deem and Ramdas Pophale) SiO2 
 PCOD8305443
Probable space group: P 41 21 2
;
_chemical_formula_sum "Si O2"
_cell_formula_units_Z 48
_cell_length_a 9.695465
_cell_length_b 9.695465
_cell_length_c 25.125930
_cell_angle_alpha 90.000000
_cell_angle_beta 90.000000
_cell_angle_gamma 90.000000
_cell_volume 2361.888716
_symmetry_space_group_name_H-M "P 41 21 2"
_symmetry_group_IT_number 92
_symmetry_cell_setting 'tetragonal'
loop_
_space_group_symop_operation_xyz
x,y,z
1/2-y,1/2+x,1/4+z
-x,-y,1/2+z
1/2+y,1/2-x,3/4+z
1/2+x,1/2-y,3/4-z
1/2-x,1/2+y,1/4-z
y,x,-z
-y,-x,1/2-z
loop_
_atom_site_type_symbol
_atom_site_label
_atom_site_fract_x
_atom_site_fract_y
_atom_site_fract_z
Si Si1 0.794029 0.047668 0.541214
Si Si2 0.204240 0.303572 0.411796
Si Si3 0.136291 0.959512 0.161098
Si Si4 0.921736 0.765500 0.715393
Si Si5 0.482799 0.679333 0.918183
Si Si6 0.404854 0.595147 0.750000
Si Si7 0.747228 0.747228 0.500000
O O1 0.786180 0.046815 0.605011
O O2 0.689075 0.155850 0.517151
O O3 0.939752 0.104904 0.520942
O O4 0.735785 0.904952 0.518204
O O5 0.191138 0.460730 0.430660
O O6 0.364766 0.273510 0.400035
O O7 0.124860 0.288342 0.355817
O O8 0.128469 0.200965 0.452729
O O9 0.207941 0.849912 0.200354
O O10 0.973658 0.935592 0.150423
O O11 0.154852 0.112555 0.184125
O O12 0.990047 0.825231 0.768378
#
# Coordination Sequence:
#
# PCOD8305443 Si02
#       7
#     8   8   8   8   8   4   4
#     4  11  26  39  66  97 132 171 216 271 329 391
#     4  11  23  43  68  94 130 171 219 271 327 396
#     4  11  21  45  66  89 132 178 213 265 335 391
#     4  11  24  43  65  98 128 166 225 275 317 394
#     4  11  23  41  71  96 126 175 221 269 335 388
#     4  11  22  45  62  92 134 171 208 267 336 390
#     4  11  24  43  66  94 132 177 214 267 334 390
#
# _framework density 20.322717000000001
#
# number of rings (size 3 to 8) (size 9 to 14) (size 15 to 20)
#    0.000    1.000    5.000    2.000    2.333    5.333 
#    3.000    0.000    0.000    0.000    0.000    0.000 
#    0.000    0.000    0.000    0.000    0.000    0.000 
#
# Total GULP energy -595076.043538 kJ/mol
# GULP energy per Si atom -12397.417574 kJ/mol
# Density = 2.027646 g / cm^3
# Si number density = 20.322717 Si / 1000 Ang^3
#
#
#
# Elastic Constant Matrix: (Units=GPa)
#
#
# Indices 1 2 3 4 5 6 
#
# 1 90.8022 58.3848 15.2743 0.0000 0.0000 0.0000
# 2 58.3848 90.8028 15.2734 0.0000 0.0000 0.0000
# 3 15.2743 15.2734 63.3232 0.0000 0.0000 0.0000
# 4 0.0000 0.0000 0.0000 31.9557 0.0000 0.0000
# 5 0.0000 0.0000 0.0000 0.0000 31.9560 0.0000
# 6 0.0000 0.0000 0.0000 0.0000 0.0000 36.5305
#
#
#
# Elastic Compliance Matrix: (Units=1/GPa)
#
#
# Indices 1 2 3 4 5 6 
#
# 1 0.018949 -0.011898 -0.001701 0.000000 0.000000 0.000000
# 2 -0.011898 0.018949 -0.001701 0.000000 0.000000 0.000000
# 3 -0.001701 -0.001701 0.016612 0.000000 0.000000 0.000000
# 4 0.000000 0.000000 0.000000 0.031293 0.000000 0.000000
# 5 0.000000 0.000000 0.000000 0.000000 0.031293 0.000000
# 6 0.000000 0.000000 0.000000 0.000000 0.000000 0.027374
#
#
# Mechanical properties :
#
#
# Convention : Reuss Voigt Hill
#
# Bulk Modulus (GPa) = 41.82038 46.97703 44.39870
# Shear Modulus (GPa) = 27.31617 30.48814 28.90215
#
# Velocity S-wave (km/s) = 3.67020 3.87744 3.77524
# Velocity P-wave (km/s) = 6.21155 6.57357 6.39512
#
# Compressibility (1/GPa) = 0.02391179
#
# Stress axis : x y z
#
# Youngs Moduli (GPa) = 52.77205 52.77268 60.19571
#
# Poissons Ratio (x) = 0.62789 0.10240
# Poissons Ratio (y) = 0.62789 0.10236
# Poissons Ratio (z) = 0.08977 0.08974
#
# Static dielectric constant tensor:
#      x y z
#    x 3.682770 0.000000 0.000000 
#    y 0.000000 3.682780 0.000000 
#    z 0.000000 0.000000 3.778270 
# 
# 
# High freq. dielectric constant tensor:
#      x y z
#    x 1.796680 0.000000 0.000000 
#    y 0.000000 1.796680 0.000000 
#    z 0.000000 0.000000 1.808940 
# 
# From -- ./inp_files/4552.got.cif
#   From: 2010.03.12/outbox.cif.g09.slc.cpg/sg92_3_cif.got.tgz:4552.got - 2010.04.08 20:41:11.
