data_PCOD8305647
_publ_section_title
;
Structure prediction by ZEFSAII (Michael W. Deem and Ramdas Pophale) SiO2 
 PCOD8305647
Probable space group: P 42 21 2
;
_chemical_formula_sum "Si O2"
_cell_formula_units_Z 28
_cell_length_a 8.544929
_cell_length_b 8.544929
_cell_length_c 16.986588
_cell_angle_alpha 90.000000
_cell_angle_beta 90.000000
_cell_angle_gamma 90.000000
_cell_volume 1240.289509
_symmetry_space_group_name_H-M "P 42 21 2"
_symmetry_group_IT_number 94
_symmetry_cell_setting 'tetragonal'
loop_
_space_group_symop_operation_xyz
x,y,z
1/2-y,1/2+x,1/2+z
-x,-y,z
1/2+y,1/2-x,1/2+z
1/2+x,1/2-y,1/2-z
1/2-x,1/2+y,1/2-z
y,x,-z
-y,-x,-z
loop_
_atom_site_type_symbol
_atom_site_label
_atom_site_fract_x
_atom_site_fract_y
_atom_site_fract_z
Si Si1 0.941573 0.825140 0.426636
Si Si2 0.753296 0.753296 0.000000
Si Si3 0.283006 0.132933 0.297335
Si Si4 0.716170 0.876787 0.838333
O O1 0.821267 0.821267 0.500000
O O2 0.845727 0.771893 0.349716
O O3 0.092848 0.723014 0.449640
O O4 0.000000 0.000000 0.411809
O O5 0.884689 0.759320 0.068257
O O6 0.448006 0.218676 0.306361
O O7 0.224600 0.152405 0.207574
O O8 0.294751 0.952489 0.323993
#
# Coordination Sequence:
#
# PCOD8305647 Si02
#       4
#     8   4   8   8
#     4   9  16  34  65  84 114 165 207 251 316 367
#     4  10  19  40  62  87 120 168 210 271 312 383
#     4  11  23  41  63  94 125 170 212 261 314 393
#     4  11  24  40  64  94 129 165 216 257 324 377
#
# _framework density 22.575375999999999
#
# number of rings (size 3 to 8) (size 9 to 14) (size 15 to 20)
#    0.000    2.000    5.714    1.714    0.000    0.000 
#    5.143    2.857    0.000    0.000    0.000    0.000 
#    0.000    0.000    0.000    0.000    0.000    0.000 
#
# Total GULP energy -346939.852282 kJ/mol
# GULP energy per Si atom -12390.709010 kJ/mol
# Density = 2.252399 g / cm^3
# Si number density = 22.575376 Si / 1000 Ang^3
#
#
#
# Elastic Constant Matrix: (Units=GPa)
#
#
# Indices 1 2 3 4 5 6 
#
# 1 51.8181 15.3539 41.0630 0.0000 0.0000 0.0000
# 2 15.3539 51.8181 41.0630 0.0000 0.0000 0.0000
# 3 41.0630 41.0630 158.2228 0.0000 0.0000 0.0000
# 4 0.0000 0.0000 0.0000 33.9733 0.0000 0.0000
# 5 0.0000 0.0000 0.0000 0.0000 33.9733 0.0000
# 6 0.0000 0.0000 0.0000 0.0000 0.0000 18.6345
#
#
#
# Elastic Compliance Matrix: (Units=1/GPa)
#
#
# Indices 1 2 3 4 5 6 
#
# 1 0.024615 -0.002809 -0.005659 0.000000 0.000000 0.000000
# 2 -0.002809 0.024615 -0.005659 0.000000 0.000000 0.000000
# 3 -0.005659 -0.005659 0.009258 0.000000 0.000000 0.000000
# 4 0.000000 0.000000 0.000000 0.029435 0.000000 0.000000
# 5 0.000000 0.000000 0.000000 0.000000 0.029435 0.000000
# 6 0.000000 0.000000 0.000000 0.000000 0.000000 0.053664
#
#
# Mechanical properties :
#
#
# Convention : Reuss Voigt Hill
#
# Bulk Modulus (GPa) = 33.07630 50.75763 41.91696
# Shear Modulus (GPa) = 23.88292 28.27484 26.07888
#
# Velocity S-wave (km/s) = 3.25610 3.54286 3.40250
# Velocity P-wave (km/s) = 5.36838 6.26643 5.83471
#
# Compressibility (1/GPa) = 0.03023313
#
# Stress axis : x y z
#
# Youngs Moduli (GPa) = 40.62523 40.62523 108.01831
#
# Poissons Ratio (x) = 0.11411 0.61131
# Poissons Ratio (y) = 0.11411 0.61131
# Poissons Ratio (z) = 0.22991 0.22991
#
# Static dielectric constant tensor:
#      x y z
#    x 3.781640 0.000000 0.000000 
#    y 0.000000 3.781640 0.000000 
#    z 0.000000 0.000000 4.412410 
# 
# 
# High freq. dielectric constant tensor:
#      x y z
#    x 1.856830 0.000000 0.000000 
#    y 0.000000 1.856830 0.000000 
#    z 0.000000 0.000000 1.907290 
# 
# From -- ./inp_files/3843.got.cif
#   From: 2010.03.12/outbox.cif.g09.slc.cpg/sg94_2_cif.got.tgz:3843.got - 2010.04.08 20:48:32.
