data_PCOD8305256
_publ_section_title
;
Structure prediction by ZEFSAII (Michael W. Deem and Ramdas Pophale) SiO2 
 PCOD8305256
Probable space group: P 41 21 2
;
_chemical_formula_sum "Si O2"
_cell_formula_units_Z 40
_cell_length_a 14.834764
_cell_length_b 14.834764
_cell_length_c 7.778806
_cell_angle_alpha 90.000000
_cell_angle_beta 90.000000
_cell_angle_gamma 90.000000
_cell_volume 1711.883571
_symmetry_space_group_name_H-M "P 41 21 2"
_symmetry_group_IT_number 92
_symmetry_cell_setting 'tetragonal'
loop_
_space_group_symop_operation_xyz
x,y,z
1/2-y,1/2+x,1/4+z
-x,-y,1/2+z
1/2+y,1/2-x,3/4+z
1/2+x,1/2-y,3/4-z
1/2-x,1/2+y,1/4-z
y,x,-z
-y,-x,1/2-z
loop_
_atom_site_type_symbol
_atom_site_label
_atom_site_fract_x
_atom_site_fract_y
_atom_site_fract_z
Si Si1 0.553509 0.797879 0.537836
Si Si2 0.449612 0.902606 0.008202
Si Si3 0.097249 0.902752 0.250000
Si Si4 0.139603 0.284373 0.785966
Si Si5 0.717250 0.394662 0.920788
Si Si6 0.543995 0.456006 0.750000
O O1 0.566799 0.871790 0.390102
O O2 0.581610 0.701574 0.466208
O O3 0.447793 0.792057 0.586614
O O4 0.615556 0.816541 0.706231
O O5 0.547050 0.933286 0.078448
O O6 0.448503 0.794215 0.973872
O O7 0.055306 0.950508 0.418401
O O8 0.205946 0.202621 0.730544
O O9 0.112646 0.257127 0.979561
O O10 0.620002 0.443533 0.901520
#
# Coordination Sequence:
#
# PCOD8305256 Si02
#       6
#     8   8   4   8   8   4
#     4  11  17  30  54  80 112 136 190 234 278 321
#     4  11  20  34  56  84 111 143 187 234 288 340
#     4  12  20  35  58  84 109 152 184 238 284 334
#     4   9  17  28  51  81 105 138 181 240 271 318
#     4   9  16  34  49  76 109 139 181 233 270 330
#     4  10  20  35  56  82 111 140 198 232 276 338
#
# _framework density 23.366074000000001
#
# number of rings (size 3 to 8) (size 9 to 14) (size 15 to 20)
#    0.000    2.000    8.000    2.400    0.000    0.000 
#    0.000    2.000    0.000    0.000    0.000    0.000 
#    0.000    0.000    0.000    0.000    0.000    0.000 
#
# Total GULP energy -495560.972272 kJ/mol
# GULP energy per Si atom -12389.024307 kJ/mol
# Density = 2.331289 g / cm^3
# Si number density = 23.366074 Si / 1000 Ang^3
#
#
#
# Elastic Constant Matrix: (Units=GPa)
#
#
# Indices 1 2 3 4 5 6 
#
# 1 72.3218 24.2510 11.5171 0.0000 0.0000 0.0000
# 2 24.2510 72.3234 11.5180 0.0000 0.0000 0.0000
# 3 11.5171 11.5180 16.9118 0.0000 0.0000 0.0000
# 4 0.0000 0.0000 0.0000 8.8588 0.0000 0.0000
# 5 0.0000 0.0000 0.0000 0.0000 8.8585 0.0000
# 6 0.0000 0.0000 0.0000 0.0000 0.0000 36.0798
#
#
#
# Elastic Compliance Matrix: (Units=1/GPa)
#
#
# Indices 1 2 3 4 5 6 
#
# 1 0.016583 -0.004220 -0.008419 0.000000 0.000000 0.000000
# 2 -0.004220 0.016583 -0.008420 0.000000 0.000000 0.000000
# 3 -0.008419 -0.008420 0.070599 0.000000 0.000000 0.000000
# 4 0.000000 0.000000 0.000000 0.112882 0.000000 0.000000
# 5 0.000000 0.000000 0.000000 0.000000 0.112886 0.000000
# 6 0.000000 0.000000 0.000000 0.000000 0.000000 0.027716
#
#
# Mechanical properties :
#
#
# Convention : Reuss Voigt Hill
#
# Bulk Modulus (GPa) = 16.22166 28.45882 22.34024
# Shear Modulus (GPa) = 11.90714 18.37746 15.14230
#
# Velocity S-wave (km/s) = 2.25986 2.80751 2.54844
# Velocity P-wave (km/s) = 3.71036 4.76607 4.27096
#
# Compressibility (1/GPa) = 0.06164598
#
# Stress axis : x y z
#
# Youngs Moduli (GPa) = 60.30358 60.30395 14.16453
#
# Poissons Ratio (x) = 0.25446 0.11925
# Poissons Ratio (y) = 0.25446 0.11927
# Poissons Ratio (z) = 0.50771 0.50778
#
# Static dielectric constant tensor:
#      x y z
#    x 4.906930 0.000000 0.000000 
#    y 0.000000 4.906980 0.000000 
#    z 0.000000 0.000000 3.628800 
# 
# 
# High freq. dielectric constant tensor:
#      x y z
#    x 1.934770 0.000000 0.000000 
#    y 0.000000 1.934770 0.000000 
#    z 0.000000 0.000000 1.853010 
# 
# From -- ./inp_files/1379.got.cif
#   From: 2010.03.12/outbox.cif.g09.slc.cpg/sg92_1_cif.got.tgz:1379.got - 2010.04.08 20:41:11.
