data_PCOD8305822
_publ_section_title
;
Structure prediction by ZEFSAII (Michael W. Deem and Ramdas Pophale) SiO2 
 PCOD8305822
Probable space group: P 43 2 2
;
_chemical_formula_sum "Si O2"
_cell_formula_units_Z 48
_cell_length_a 14.840289
_cell_length_b 14.840289
_cell_length_c 10.842086
_cell_angle_alpha 90.000000
_cell_angle_beta 90.000000
_cell_angle_gamma 90.000000
_cell_volume 2387.797894
_symmetry_space_group_name_H-M "P 43 2 2"
_symmetry_group_IT_number 95
_symmetry_cell_setting 'tetragonal'
loop_
_space_group_symop_operation_xyz
x,y,z
-y,x,3/4+z
-x,-y,1/2+z
y,-x,1/4+z
x,-y,1/2-z
-x,y,-z
y,x,1/4-z
-y,-x,3/4-z
loop_
_atom_site_type_symbol
_atom_site_label
_atom_site_fract_x
_atom_site_fract_y
_atom_site_fract_z
Si Si1 0.759541 0.472772 0.111346
Si Si2 0.000000 0.765909 0.500000
Si Si3 0.795544 0.281182 0.642375
Si Si4 0.170456 0.170456 0.125000
Si Si5 0.611751 0.902473 0.211941
Si Si6 0.876175 0.314413 0.190885
Si Si7 0.391357 0.363624 0.990595
O O1 0.741282 0.500000 0.250000
O O2 0.817287 0.544812 0.034232
O O3 0.823621 0.386783 0.108394
O O4 0.659677 0.454725 0.056190
O O5 0.921170 0.829509 0.548564
O O6 0.966364 0.705986 0.385426
O O7 0.824392 0.253368 0.779831
O O8 0.882382 0.316778 0.569221
O O9 0.766816 0.195793 0.557435
O O10 0.719307 0.360035 0.653906
O O11 0.568950 0.000000 0.250000
O O12 0.655254 0.906553 0.076177
O O13 0.500000 0.376001 0.000000
O O14 0.349175 0.349175 0.125000
#
# Coordination Sequence:
#
# PCOD8305822 Si02
#       7
#     8   4   8   4   8   8   8
#     4   9  21  40  56  84 125 162 203 255 315 373
#     4  10  20  36  64  84 116 150 198 236 304 362
#     4  10  20  38  59  83 122 160 197 254 309 373
#     4  10  20  38  62  86 116 160 192 242 306 376
#     4  11  21  36  59  91 122 154 207 259 315 368
#     4   9  20  37  60  84 117 162 203 242 311 386
#     4  11  22  38  59  88 119 161 218 262 306 366
#
# _framework density 20.102204
#
# number of rings (size 3 to 8) (size 9 to 14) (size 15 to 20)
#    0.000    2.000    0.833    2.500    1.167    0.667 
#    0.000    5.833   14.667    0.000    0.000    0.000 
#    0.000    0.000    0.000    0.000    0.000    0.000 
#
# Total GULP energy -594751.709664 kJ/mol
# GULP energy per Si atom -12390.660618 kJ/mol
# Density = 2.005645 g / cm^3
# Si number density = 20.102204 Si / 1000 Ang^3
#
#
#
# Elastic Constant Matrix: (Units=GPa)
#
#
# Indices 1 2 3 4 5 6 
#
# 1 107.1138 41.3505 41.4341 0.0000 0.0000 0.0000
# 2 41.3505 107.1138 41.4341 0.0000 0.0000 0.0000
# 3 41.4341 41.4341 93.8021 0.0000 0.0000 0.0000
# 4 0.0000 0.0000 0.0000 7.4914 0.0000 0.0000
# 5 0.0000 0.0000 0.0000 0.0000 7.4914 0.0000
# 6 0.0000 0.0000 0.0000 0.0000 0.0000 26.8457
#
#
#
# Elastic Compliance Matrix: (Units=1/GPa)
#
#
# Indices 1 2 3 4 5 6 
#
# 1 0.012073 -0.003133 -0.003949 0.000000 0.000000 0.000000
# 2 -0.003133 0.012073 -0.003949 0.000000 0.000000 0.000000
# 3 -0.003949 -0.003949 0.014149 0.000000 0.000000 0.000000
# 4 0.000000 0.000000 0.000000 0.133487 0.000000 0.000000
# 5 0.000000 0.000000 0.000000 0.000000 0.133487 0.000000
# 6 0.000000 0.000000 0.000000 0.000000 0.000000 0.037250
#
#
# Mechanical properties :
#
#
# Convention : Reuss Voigt Hill
#
# Bulk Modulus (GPa) = 61.60139 61.82968 61.71554
# Shear Modulus (GPa) = 13.51381 20.61976 17.06679
#
# Velocity S-wave (km/s) = 2.59560 3.20620 2.91692
# Velocity P-wave (km/s) = 6.30028 6.67314 6.48938
#
# Compressibility (1/GPa) = 0.01623340
#
# Stress axis : x y z
#
# Youngs Moduli (GPa) = 82.83015 82.83015 70.67480
#
# Poissons Ratio (x) = 0.25952 0.27908
# Poissons Ratio (y) = 0.25952 0.27908
# Poissons Ratio (z) = 0.32708 0.32708
#
# Static dielectric constant tensor:
#      x y z
#    x 3.679160 0.000000 0.000000 
#    y 0.000000 3.679160 0.000000 
#    z 0.000000 0.000000 3.615440 
# 
# 
# High freq. dielectric constant tensor:
#      x y z
#    x 1.774360 0.000000 0.000000 
#    y 0.000000 1.774360 0.000000 
#    z 0.000000 0.000000 1.797430 
# 
# From -- ./inp_files/3900.got.cif
#   From: 2010.03.12/outbox.cif.g09.slc.cpg/sg95_2_cif.got.tgz:3900.got - 2010.04.08 20:51:55.
