data_PCOD8305142
_publ_section_title
;
Structure prediction by ZEFSAII (Michael W. Deem and Ramdas Pophale) SiO2 
 PCOD8305142
Probable space group: P 41 2 2
;
_chemical_formula_sum "Si O2"
_cell_formula_units_Z 56
_cell_length_a 13.691622
_cell_length_b 13.691622
_cell_length_c 12.751374
_cell_angle_alpha 90.000000
_cell_angle_beta 90.000000
_cell_angle_gamma 90.000000
_cell_volume 2390.379111
_symmetry_space_group_name_H-M "P 41 2 2"
_symmetry_group_IT_number 91
_symmetry_cell_setting 'tetragonal'
loop_
_space_group_symop_operation_xyz
x,y,z
-y,x,1/4+z
-x,-y,1/2+z
y,-x,3/4+z
x,-y,1/2-z
-x,y,-z
y,x,3/4-z
-y,-x,1/4-z
loop_
_atom_site_type_symbol
_atom_site_label
_atom_site_fract_x
_atom_site_fract_y
_atom_site_fract_z
Si Si1 0.903510 0.422252 0.947226
Si Si2 0.728698 0.866746 0.591775
Si Si3 0.343892 0.492876 0.368850
Si Si4 0.046679 0.114669 0.105002
Si Si5 0.702028 0.059852 0.498792
Si Si6 0.339341 0.290446 0.762766
Si Si7 0.369086 0.167972 0.312185
O O1 0.893507 0.373343 0.833523
O O2 0.906046 0.539056 0.936188
O O3 0.816409 0.386861 0.022446
O O4 0.000000 0.382018 0.000000
O O5 0.839101 0.907904 0.591890
O O6 0.717860 0.773100 0.518811
O O7 0.693264 0.839967 0.707221
O O8 0.664573 0.955312 0.543701
O O9 0.305583 0.500000 0.250000
O O10 0.454356 0.454356 0.375000
O O11 0.347560 0.598085 0.425039
O O12 0.276406 0.413690 0.428513
O O13 0.040568 0.191628 0.199430
O O14 0.985696 0.014305 0.125000
O O15 0.000000 0.162725 0.000000
O O16 0.703956 0.139231 0.592913
O O17 0.344704 0.344704 0.875000
#
# Coordination Sequence:
#
# PCOD8305142 Si02
#       7
#     8   8   8   8   8   8   8
#     4  11  22  43  71 103 145 192 251 315 380 459
#     4  12  26  46  73 104 153 198 254 319 385 464
#     4  11  25  48  78 110 155 205 260 322 396 479
#     4  12  27  47  68 105 148 200 259 308 386 474
#     4  12  24  42  72 101 145 198 244 318 380 461
#     4  11  25  45  74 112 146 199 256 319 390 461
#     4  11  26  45  69 110 141 194 261 316 390 452
#
# _framework density 23.427244999999999
#
# number of rings (size 3 to 8) (size 9 to 14) (size 15 to 20)
#    0.000    0.571    2.857    5.571    4.000    1.714 
#    0.000    8.571    0.000    0.000    0.000    0.000 
#    0.000    0.000    0.000    0.000    0.000    0.000 
#
# Total GULP energy -694344.543295 kJ/mol
# GULP energy per Si atom -12399.009702 kJ/mol
# Density = 2.337392 g / cm^3
# Si number density = 23.427245 Si / 1000 Ang^3
#
#
#
# Elastic Constant Matrix: (Units=GPa)
#
#
# Indices 1 2 3 4 5 6 
#
# 1 91.4063 26.0285 34.9438 0.0000 0.0000 0.0000
# 2 26.0285 91.4065 34.9437 0.0000 0.0000 0.0000
# 3 34.9438 34.9437 146.1968 0.0000 0.0000 0.0000
# 4 0.0000 0.0000 0.0000 42.3921 0.0000 0.0000
# 5 0.0000 0.0000 0.0000 0.0000 42.3920 0.0000
# 6 0.0000 0.0000 0.0000 0.0000 0.0000 33.9488
#
#
#
# Elastic Compliance Matrix: (Units=1/GPa)
#
#
# Indices 1 2 3 4 5 6 
#
# 1 0.012612 -0.002684 -0.002373 0.000000 0.000000 0.000000
# 2 -0.002684 0.012612 -0.002373 0.000000 0.000000 0.000000
# 3 -0.002373 -0.002373 0.007974 0.000000 0.000000 0.000000
# 4 0.000000 0.000000 0.000000 0.023589 0.000000 0.000000
# 5 0.000000 0.000000 0.000000 0.000000 0.023589 0.000000
# 6 0.000000 0.000000 0.000000 0.000000 0.000000 0.029456
#
#
# Mechanical properties :
#
#
# Convention : Reuss Voigt Hill
#
# Bulk Modulus (GPa) = 54.53169 57.87129 56.20149
# Shear Modulus (GPa) = 38.22493 39.28614 38.75554
#
# Velocity S-wave (km/s) = 4.04374 4.09949 4.07171
# Velocity P-wave (km/s) = 6.71789 6.86760 6.79316
#
# Compressibility (1/GPa) = 0.01833796
#
# Stress axis : x y z
#
# Youngs Moduli (GPa) = 79.29208 79.29231 125.40118
#
# Poissons Ratio (x) = 0.21283 0.29756
# Poissons Ratio (y) = 0.21283 0.29756
# Poissons Ratio (z) = 0.18815 0.18815
#
# Static dielectric constant tensor:
#      x y z
#    x 4.222020 0.000000 0.000000 
#    y 0.000000 4.222020 0.000000 
#    z 0.000000 0.000000 4.334610 
# 
# 
# High freq. dielectric constant tensor:
#      x y z
#    x 1.928390 0.000000 0.000000 
#    y 0.000000 1.928390 0.000000 
#    z 0.000000 0.000000 1.936610 
# 
# From -- ./inp_files/15981.got.cif
#   From: 2010.03.12/outbox.cif.g09.slc.cpg/sg91_8_cif.got.tgz:15981.got - 2010.04.08 20:27:58.
