data_PCOD8305518
_publ_section_title
;
Structure prediction by ZEFSAII (Michael W. Deem and Ramdas Pophale) SiO2 
 PCOD8305518
Probable space group: P 42 2 2
;
_chemical_formula_sum "Si O2"
_cell_formula_units_Z 48
_cell_length_a 11.700856
_cell_length_b 11.700856
_cell_length_c 20.538643
_cell_angle_alpha 90.000000
_cell_angle_beta 90.000000
_cell_angle_gamma 90.000000
_cell_volume 2811.946253
_symmetry_space_group_name_H-M "P 42 2 2"
_symmetry_group_IT_number 93
_symmetry_cell_setting 'tetragonal'
loop_
_space_group_symop_operation_xyz
x,y,z
-y,x,1/2+z
-x,-y,z
y,-x,1/2+z
x,-y,-z
-x,y,-z
y,x,1/2-z
-y,-x,1/2-z
loop_
_atom_site_type_symbol
_atom_site_label
_atom_site_fract_x
_atom_site_fract_y
_atom_site_fract_z
Si Si1 0.715210 0.178516 0.665000
Si Si2 0.302538 0.199975 0.656330
Si Si3 0.633477 0.124776 0.800636
Si Si4 0.510684 0.130557 0.576466
Si Si5 0.969689 0.879641 0.819941
Si Si6 0.374723 0.133306 0.798817
O O1 0.631802 0.173746 0.726937
O O2 0.787393 0.294472 0.655353
O O3 0.636533 0.168263 0.600847
O O4 0.809840 0.085811 0.684456
O O5 0.404973 0.204168 0.604551
O O6 0.200161 0.112783 0.636975
O O7 0.360526 0.161464 0.723202
O O8 0.236258 0.319983 0.659547
O O9 0.503580 0.129645 0.823522
O O10 0.679903 0.993908 0.808109
O O11 0.500000 0.145604 0.500000
O O12 0.500000 0.000000 0.599121
O O13 0.908845 0.908845 0.750000
O O14 0.000000 0.000000 0.855009
#
# Coordination Sequence:
#
# PCOD8305518 Si02
#       6
#     8   8   8   8   8   8
#     4  11  19  31  50  77 111 138 174 221 261 330
#     4  11  18  32  49  75 108 139 174 217 261 322
#     4  10  18  30  51  80 109 135 165 215 282 328
#     4  11  22  37  56  75 104 150 188 215 258 314
#     4  11  18  26  46  79 108 137 167 209 280 334
#     4  10  18  30  52  78 109 138 163 215 283 328
#
# _framework density 17.070027
#
# number of rings (size 3 to 8) (size 9 to 14) (size 15 to 20)
#    0.000    1.333    6.667    3.000    0.000    0.000 
#    0.000    0.833    0.000    7.000    0.000    2.333 
#    0.000    0.000    0.000    0.000    0.000    0.000 
#
# Total GULP energy -594664.038129 kJ/mol
# GULP energy per Si atom -12388.834128 kJ/mol
# Density = 1.703117 g / cm^3
# Si number density = 17.070027 Si / 1000 Ang^3
#
#
#
# Elastic Constant Matrix: (Units=GPa)
#
#
# Indices 1 2 3 4 5 6 
#
# 1 110.0996 53.6937 33.8501 0.0000 0.0000 0.0000
# 2 53.6937 110.0996 33.8501 0.0000 0.0000 0.0000
# 3 33.8501 33.8501 50.2045 0.0000 0.0000 0.0000
# 4 0.0000 0.0000 0.0000 17.9069 0.0000 0.0000
# 5 0.0000 0.0000 0.0000 0.0000 17.9069 0.0000
# 6 0.0000 0.0000 0.0000 0.0000 0.0000 29.7137
#
#
#
# Elastic Compliance Matrix: (Units=1/GPa)
#
#
# Indices 1 2 3 4 5 6 
#
# 1 0.013096 -0.004632 -0.005707 0.000000 0.000000 0.000000
# 2 -0.004632 0.013096 -0.005707 0.000000 0.000000 0.000000
# 3 -0.005707 -0.005707 0.027614 0.000000 0.000000 0.000000
# 4 0.000000 0.000000 0.000000 0.055844 0.000000 0.000000
# 5 0.000000 0.000000 0.000000 0.000000 0.055844 0.000000
# 6 0.000000 0.000000 0.000000 0.000000 0.000000 0.033654
#
#
# Mechanical properties :
#
#
# Convention : Reuss Voigt Hill
#
# Bulk Modulus (GPa) = 46.05134 57.02125 51.53629
# Shear Modulus (GPa) = 20.96609 23.03949 22.00279
#
# Velocity S-wave (km/s) = 3.50843 3.67782 3.59412
# Velocity P-wave (km/s) = 6.59155 7.17718 6.89059
#
# Compressibility (1/GPa) = 0.02171490
#
# Stress axis : x y z
#
# Youngs Moduli (GPa) = 76.35721 76.35721 36.21338
#
# Poissons Ratio (x) = 0.35371 0.20666
# Poissons Ratio (y) = 0.35371 0.20666
# Poissons Ratio (z) = 0.43576 0.43576
#
# Static dielectric constant tensor:
#      x y z
#    x 3.417100 0.000000 0.000000 
#    y 0.000000 3.417100 0.000000 
#    z 0.000000 0.000000 2.635420 
# 
# 
# High freq. dielectric constant tensor:
#      x y z
#    x 1.670680 0.000000 0.000000 
#    y 0.000000 1.670680 0.000000 
#    z 0.000000 0.000000 1.588330 
# 
# From -- ./inp_files/6207.got.cif
#   From: 2010.03.12/outbox.cif.g09.slc.cpg/sg93_4_cif.got.tgz:6207.got - 2010.04.08 20:44:19.
