data_PCOD8305346
_publ_section_title
;
Structure prediction by ZEFSAII (Michael W. Deem and Ramdas Pophale) SiO2 
 PCOD8305346
Probable space group: P 41 21 2
;
_chemical_formula_sum "Si O2"
_cell_formula_units_Z 48
_cell_length_a 11.094488
_cell_length_b 11.094488
_cell_length_c 18.808777
_cell_angle_alpha 90.000000
_cell_angle_beta 90.000000
_cell_angle_gamma 90.000000
_cell_volume 2315.128423
_symmetry_space_group_name_H-M "P 41 21 2"
_symmetry_group_IT_number 92
_symmetry_cell_setting 'tetragonal'
loop_
_space_group_symop_operation_xyz
x,y,z
1/2-y,1/2+x,1/4+z
-x,-y,1/2+z
1/2+y,1/2-x,3/4+z
1/2+x,1/2-y,3/4-z
1/2-x,1/2+y,1/4-z
y,x,-z
-y,-x,1/2-z
loop_
_atom_site_type_symbol
_atom_site_label
_atom_site_fract_x
_atom_site_fract_y
_atom_site_fract_z
Si Si1 0.069639 0.646401 0.861231
Si Si2 0.581884 0.560687 0.083761
Si Si3 0.565496 0.968485 0.288624
Si Si4 0.150118 0.196408 0.172149
Si Si5 0.830994 0.680116 0.452712
Si Si6 0.445167 0.701372 0.563928
O O1 0.084043 0.790224 0.872151
O O2 0.200476 0.593162 0.877879
O O3 0.973238 0.582477 0.913111
O O4 0.028424 0.619291 0.781637
O O5 0.469778 0.637763 0.113205
O O6 0.546321 0.425025 0.103422
O O7 0.590334 0.590334 0.000000
O O8 0.662490 0.881760 0.325952
O O9 0.456519 0.877551 0.272659
O O10 0.270726 0.167666 0.127703
O O11 0.185106 0.149670 0.250171
O O12 0.795302 0.795302 0.500000
O O13 0.731479 0.577253 0.464923
#
# Coordination Sequence:
#
# PCOD8305346 Si02
#       6
#     8   8   8   8   8   8
#     4  11  24  42  69 101 136 183 230 289 342 422
#     4  10  21  43  65  96 132 182 220 276 349 394
#     4  11  25  43  70 101 139 180 232 285 358 407
#     4  11  24  44  69  96 138 181 225 290 344 414
#     4  11  25  41  70  96 136 176 234 281 344 413
#     4  10  24  40  69  93 135 176 231 273 350 406
#
# _framework density 20.73319
#
# number of rings (size 3 to 8) (size 9 to 14) (size 15 to 20)
#    0.000    1.333    3.333    2.500   16.333    1.333 
#    0.000    1.667    0.000    0.000    0.000    0.000 
#    0.000    0.000    0.000    0.000    0.000    0.000 
#
# Total GULP energy -594976.186466 kJ/mol
# GULP energy per Si atom -12395.337218 kJ/mol
# Density = 2.068600 g / cm^3
# Si number density = 20.733190 Si / 1000 Ang^3
#
#
#
# Elastic Constant Matrix: (Units=GPa)
#
#
# Indices 1 2 3 4 5 6 
#
# 1 102.4954 54.8322 19.2660 0.0000 0.0000 0.0000
# 2 54.8322 102.4954 19.2660 0.0000 0.0000 0.0000
# 3 19.2660 19.2660 39.1053 0.0000 0.0000 0.0000
# 4 0.0000 0.0000 0.0000 31.0924 0.0000 0.0000
# 5 0.0000 0.0000 0.0000 0.0000 31.0924 0.0000
# 6 0.0000 0.0000 0.0000 0.0000 0.0000 25.8133
#
#
#
# Elastic Compliance Matrix: (Units=1/GPa)
#
#
# Indices 1 2 3 4 5 6 
#
# 1 0.014104 -0.006876 -0.003561 0.000000 0.000000 0.000000
# 2 -0.006876 0.014104 -0.003561 0.000000 0.000000 0.000000
# 3 -0.003561 -0.003561 0.029081 0.000000 0.000000 0.000000
# 4 0.000000 0.000000 0.000000 0.032162 0.000000 0.000000
# 5 0.000000 0.000000 0.000000 0.000000 0.032162 0.000000
# 6 0.000000 0.000000 0.000000 0.000000 0.000000 0.038740
#
#
# Mechanical properties :
#
#
# Convention : Reuss Voigt Hill
#
# Bulk Modulus (GPa) = 34.13795 47.86938 41.00367
# Shear Modulus (GPa) = 25.23783 27.64841 26.44312
#
# Velocity S-wave (km/s) = 3.49272 3.65572 3.57515
# Velocity P-wave (km/s) = 5.72421 6.39980 6.07141
#
# Compressibility (1/GPa) = 0.02929291
#
# Stress axis : x y z
#
# Youngs Moduli (GPa) = 70.89964 70.89964 34.38674
#
# Poissons Ratio (x) = 0.48751 0.12246
# Poissons Ratio (y) = 0.48751 0.12246
# Poissons Ratio (z) = 0.25249 0.25249
#
# Static dielectric constant tensor:
#      x y z
#    x 4.029930 0.000000 0.000000 
#    y 0.000000 4.029930 0.000000 
#    z 0.000000 0.000000 3.437430 
# 
# 
# High freq. dielectric constant tensor:
#      x y z
#    x 1.827410 0.000000 0.000000 
#    y 0.000000 1.827410 0.000000 
#    z 0.000000 0.000000 1.784160 
# 
# From -- ./inp_files/3123.got.cif
#   From: 2010.03.12/outbox.cif.g09.slc.cpg/sg92_2_cif.got.tgz:3123.got - 2010.04.08 20:41:11.
