data_PCOD8305861
_publ_section_title
;
Structure prediction by ZEFSAII (Michael W. Deem and Ramdas Pophale) SiO2 
 PCOD8305861
Probable space group: P 43 2 2
;
_chemical_formula_sum "Si O2"
_cell_formula_units_Z 60
_cell_length_a 11.400279
_cell_length_b 11.400279
_cell_length_c 20.993726
_cell_angle_alpha 90.000000
_cell_angle_beta 90.000000
_cell_angle_gamma 90.000000
_cell_volume 2728.478178
_symmetry_space_group_name_H-M "P 43 2 2"
_symmetry_group_IT_number 95
_symmetry_cell_setting 'tetragonal'
loop_
_space_group_symop_operation_xyz
x,y,z
-y,x,3/4+z
-x,-y,1/2+z
y,-x,1/4+z
x,-y,1/2-z
-x,y,-z
y,x,1/4-z
-y,-x,3/4-z
loop_
_atom_site_type_symbol
_atom_site_label
_atom_site_fract_x
_atom_site_fract_y
_atom_site_fract_z
Si Si1 0.249086 0.440800 0.184464
Si Si2 0.492983 0.663917 0.691383
Si Si3 0.700384 0.000000 0.250000
Si Si4 0.755416 0.113954 0.712673
Si Si5 0.555370 0.738518 0.936105
Si Si6 0.225216 0.887588 0.433069
Si Si7 0.162271 0.512572 0.944340
Si Si8 0.193682 0.850792 0.072408
O O1 0.208475 0.500000 0.250000
O O2 0.373865 0.378103 0.195770
O O3 0.263470 0.529358 0.124693
O O4 0.143659 0.356398 0.159681
O O5 0.403703 0.553942 0.688727
O O6 0.462244 0.741070 0.752508
O O7 0.615477 0.933866 0.199871
O O8 0.784271 0.914314 0.290091
O O9 0.795369 0.218667 0.758407
O O10 0.616017 0.106183 0.702773
O O11 0.826901 0.126602 0.647325
O O12 0.801194 0.000000 0.750000
O O13 0.480136 0.781770 0.875888
O O14 0.690727 0.774186 0.934954
O O15 0.500000 0.792374 0.000000
O O16 0.135714 0.864287 0.375000
O O17 0.211219 0.020075 0.458416
#
# Coordination Sequence:
#
# PCOD8305861 Si02
#       8
#     8   8   4   8   8   8   8   8
#     4  11  23  37  68 109 143 177 229 298 369 421
#     4  11  21  41  66 106 144 179 235 293 362 433
#     4  12  26  50  72 104 144 196 246 298 362 454
#     4  11  22  42  73 100 128 180 239 295 354 416
#     4  11  26  46  68 102 144 189 240 293 358 441
#     4  12  23  43  66 100 138 176 229 297 362 411
#     4  11  23  43  76  98 138 195 241 295 366 435
#     4  11  28  45  69 104 141 187 243 295 354 436
#
# _framework density 21.990278
#
# number of rings (size 3 to 8) (size 9 to 14) (size 15 to 20)
#    0.000    0.800    6.000    1.200    2.800    3.200 
#    0.000    1.333    0.000    0.000    0.000    0.000 
#    0.000    0.000    0.000    0.000    0.000    0.000 
#
# Total GULP energy -743855.778303 kJ/mol
# GULP energy per Si atom -12397.596305 kJ/mol
# Density = 2.194023 g / cm^3
# Si number density = 21.990278 Si / 1000 Ang^3
#
#
#
# Elastic Constant Matrix: (Units=GPa)
#
#
# Indices 1 2 3 4 5 6 
#
# 1 106.9866 46.4846 49.8633 0.0000 0.0000 0.0000
# 2 46.4846 106.9864 49.8634 0.0000 0.0000 0.0000
# 3 49.8633 49.8634 178.7318 0.0000 0.0000 0.0000
# 4 0.0000 0.0000 0.0000 32.7508 0.0000 0.0000
# 5 0.0000 0.0000 0.0000 0.0000 32.7509 0.0000
# 6 0.0000 0.0000 0.0000 0.0000 0.0000 22.0959
#
#
#
# Elastic Compliance Matrix: (Units=1/GPa)
#
#
# Indices 1 2 3 4 5 6 
#
# 1 0.012244 -0.004285 -0.002220 0.000000 0.000000 0.000000
# 2 -0.004285 0.012244 -0.002220 0.000000 0.000000 0.000000
# 3 -0.002220 -0.002220 0.006834 0.000000 0.000000 0.000000
# 4 0.000000 0.000000 0.000000 0.030534 0.000000 0.000000
# 5 0.000000 0.000000 0.000000 0.000000 0.030534 0.000000
# 6 0.000000 0.000000 0.000000 0.000000 0.000000 0.045257
#
#
# Mechanical properties :
#
#
# Convention : Reuss Voigt Hill
#
# Bulk Modulus (GPa) = 72.09893 76.12529 74.11211
# Shear Modulus (GPa) = 31.30481 33.95240 32.62861
#
# Velocity S-wave (km/s) = 3.77712 3.93361 3.85616
# Velocity P-wave (km/s) = 7.20279 7.43800 7.32134
#
# Compressibility (1/GPa) = 0.01386983
#
# Stress axis : x y z
#
# Youngs Moduli (GPa) = 81.67578 81.67557 146.33014
#
# Poissons Ratio (x) = 0.34997 0.32490
# Poissons Ratio (y) = 0.34997 0.32491
# Poissons Ratio (z) = 0.18135 0.18135
#
# Static dielectric constant tensor:
#      x y z
#    x 3.885180 0.000000 0.000000 
#    y 0.000000 3.885180 0.000000 
#    z 0.000000 0.000000 4.252840 
# 
# 
# High freq. dielectric constant tensor:
#      x y z
#    x 1.856820 0.000000 0.000000 
#    y 0.000000 1.856820 0.000000 
#    z 0.000000 0.000000 1.876280 
# 
# From -- ./inp_files/6518.got.cif
#   From: 2010.03.12/outbox.cif.g09.slc.cpg/sg95_4_cif.got.tgz:6518.got - 2010.04.08 20:51:55.
