data_PCOD8305635
_publ_section_title
;
Structure prediction by ZEFSAII (Michael W. Deem and Ramdas Pophale) SiO2 
 PCOD8305635
Probable space group: P 42 21 2
;
_chemical_formula_sum "Si O2"
_cell_formula_units_Z 56
_cell_length_a 11.227891
_cell_length_b 11.227891
_cell_length_c 21.451751
_cell_angle_alpha 90.000000
_cell_angle_beta 90.000000
_cell_angle_gamma 90.000000
_cell_volume 2704.326495
_symmetry_space_group_name_H-M "P 42 21 2"
_symmetry_group_IT_number 94
_symmetry_cell_setting 'tetragonal'
loop_
_space_group_symop_operation_xyz
x,y,z
1/2-y,1/2+x,1/2+z
-x,-y,z
1/2+y,1/2-x,1/2+z
1/2+x,1/2-y,1/2-z
1/2-x,1/2+y,1/2-z
y,x,-z
-y,-x,-z
loop_
_atom_site_type_symbol
_atom_site_label
_atom_site_fract_x
_atom_site_fract_y
_atom_site_fract_z
Si Si1 0.881593 0.422712 0.585128
Si Si2 0.190948 0.780393 0.359283
Si Si3 0.687362 0.452351 0.802629
Si Si4 0.594682 0.237508 0.747306
Si Si5 0.443870 0.871826 0.559855
Si Si6 0.717313 0.110385 0.156035
Si Si7 0.430237 0.235296 0.319004
O O1 0.875559 0.286548 0.612349
O O2 0.850192 0.425120 0.512777
O O3 0.775928 0.490962 0.619487
O O4 0.000000 0.500000 0.598641
O O5 0.240319 0.712015 0.297940
O O6 0.149970 0.684571 0.410341
O O7 0.070035 0.853477 0.340830
O O8 0.577847 0.369424 0.778225
O O9 0.779871 0.374541 0.844131
O O10 0.757433 0.488341 0.741110
O O11 0.480634 0.186808 0.712056
O O12 0.619717 0.152472 0.806363
O O13 0.541156 0.782700 0.589909
O O14 0.500000 0.000000 0.575257
O O15 0.852047 0.148292 0.168365
#
# Coordination Sequence:
#
# PCOD8305635 Si02
#       7
#     8   8   8   8   8   8   8
#     4  11  24  38  58  87 125 160 214 257 314 365
#     4  10  19  37  61  87 123 160 208 255 307 375
#     4  10  19  36  58  88 124 153 203 247 313 386
#     4   9  20  34  60  87 118 162 194 254 309 381
#     4  10  20  39  63  89 111 162 214 260 306 375
#     4  10  21  38  60  85 120 158 205 252 316 378
#     4  10  22  34  55  88 120 157 194 252 313 372
#
# _framework density 20.707560000000001
#
# number of rings (size 3 to 8) (size 9 to 14) (size 15 to 20)
#    0.000    2.000    2.857    0.429    2.000    1.143 
#    0.000    1.429    0.000    1.714    0.000    0.000 
#    0.000    0.000    0.000    0.000    0.000    0.000 
#
# Total GULP energy -693761.299908 kJ/mol
# GULP energy per Si atom -12388.594641 kJ/mol
# Density = 2.066043 g / cm^3
# Si number density = 20.707560 Si / 1000 Ang^3
#
#
#
# Elastic Constant Matrix: (Units=GPa)
#
#
# Indices 1 2 3 4 5 6 
#
# 1 69.1036 11.9124 26.0570 0.0000 0.0000 0.0000
# 2 11.9124 69.1036 26.0570 0.0000 0.0000 0.0000
# 3 26.0570 26.0570 92.2145 0.0000 0.0000 0.0000
# 4 0.0000 0.0000 0.0000 24.9619 0.0000 0.0000
# 5 0.0000 0.0000 0.0000 0.0000 24.9619 0.0000
# 6 0.0000 0.0000 0.0000 0.0000 0.0000 26.5085
#
#
#
# Elastic Compliance Matrix: (Units=1/GPa)
#
#
# Indices 1 2 3 4 5 6 
#
# 1 0.016285 -0.001200 -0.004263 0.000000 0.000000 0.000000
# 2 -0.001200 0.016285 -0.004263 0.000000 0.000000 0.000000
# 3 -0.004263 -0.004263 0.013253 0.000000 0.000000 0.000000
# 4 0.000000 0.000000 0.000000 0.040061 0.000000 0.000000
# 5 0.000000 0.000000 0.000000 0.000000 0.040061 0.000000
# 6 0.000000 0.000000 0.000000 0.000000 0.000000 0.037724
#
#
# Mechanical properties :
#
#
# Convention : Reuss Voigt Hill
#
# Bulk Modulus (GPa) = 37.91733 39.83052 38.87393
# Shear Modulus (GPa) = 26.05373 26.37947 26.21660
#
# Velocity S-wave (km/s) = 3.55092 3.57305 3.56201
# Velocity P-wave (km/s) = 5.92981 6.02485 5.97752
#
# Compressibility (1/GPa) = 0.02637317
#
# Stress axis : x y z
#
# Youngs Moduli (GPa) = 61.40543 61.40543 75.45320
#
# Poissons Ratio (x) = 0.07369 0.32163
# Poissons Ratio (y) = 0.07369 0.32163
# Poissons Ratio (z) = 0.26175 0.26175
#
# Static dielectric constant tensor:
#      x y z
#    x 3.820210 0.000000 0.000000 
#    y 0.000000 3.820210 0.000000 
#    z 0.000000 0.000000 3.695980 
# 
# 
# High freq. dielectric constant tensor:
#      x y z
#    x 1.804690 0.000000 0.000000 
#    y 0.000000 1.804690 0.000000 
#    z 0.000000 0.000000 1.799570 
# 
# From -- ./inp_files/4723.got.cif
#   From: 2010.03.12/outbox.cif.g09.slc.cpg/sg94_3_cif.got.tgz:4723.got - 2010.04.08 20:48:32.
