data_PCOD8305688
_publ_section_title
;
Structure prediction by ZEFSAII (Michael W. Deem and Ramdas Pophale) SiO2 
 PCOD8305688
Probable space group: P 42 21 2
;
_chemical_formula_sum "Si O2"
_cell_formula_units_Z 40
_cell_length_a 14.521300
_cell_length_b 14.521300
_cell_length_c 9.232918
_cell_angle_alpha 90.000000
_cell_angle_beta 90.000000
_cell_angle_gamma 90.000000
_cell_volume 1946.928372
_symmetry_space_group_name_H-M "P 42 21 2"
_symmetry_group_IT_number 94
_symmetry_cell_setting 'tetragonal'
loop_
_space_group_symop_operation_xyz
x,y,z
1/2-y,1/2+x,1/2+z
-x,-y,z
1/2+y,1/2-x,1/2+z
1/2+x,1/2-y,1/2-z
1/2-x,1/2+y,1/2-z
y,x,-z
-y,-x,-z
loop_
_atom_site_type_symbol
_atom_site_label
_atom_site_fract_x
_atom_site_fract_y
_atom_site_fract_z
Si Si1 0.534615 0.769403 0.119416
Si Si2 0.408077 0.053716 0.827855
Si Si3 0.216942 0.642330 0.440708
Si Si4 0.576690 0.568160 0.827125
Si Si5 0.497835 0.240250 0.798270
O O1 0.504468 0.861184 0.201323
O O2 0.643145 0.777095 0.084947
O O3 0.525490 0.676483 0.215076
O O4 0.476881 0.762273 0.969676
O O5 0.436266 0.151655 0.759490
O O6 0.500000 0.000000 0.883920
O O7 0.331435 0.067723 0.952555
O O8 0.310298 0.689703 0.500000
O O9 0.242353 0.592282 0.291020
O O10 0.500000 0.500000 0.763373
O O11 0.561041 0.668792 0.758884
O O12 0.572934 0.572934 0.000000
#
# Coordination Sequence:
#
# PCOD8305688 Si02
#       5
#     8   8   8   8   8
#     4  10  21  40  66  93 125 167 217 269 318 389
#     4  11  23  39  65  99 131 168 215 269 327 388
#     4  11  24  40  63  95 136 171 212 272 338 382
#     4   9  19  39  64  89 120 165 214 262 314 389
#     4  10  22  38  64  94 126 166 218 259 327 387
#
# _framework density 20.545183000000002
#
# number of rings (size 3 to 8) (size 9 to 14) (size 15 to 20)
#    0.000    1.800    2.000    3.000    8.400    0.000 
#    0.000    1.000    0.000    7.200    0.000    0.000 
#    0.000    0.000    0.000    0.000    0.000    0.000 
#
# Total GULP energy -495849.742471 kJ/mol
# GULP energy per Si atom -12396.243562 kJ/mol
# Density = 2.049842 g / cm^3
# Si number density = 20.545183 Si / 1000 Ang^3
#
#
#
# Elastic Constant Matrix: (Units=GPa)
#
#
# Indices 1 2 3 4 5 6 
#
# 1 121.8446 50.8478 43.0894 0.0000 0.0000 0.0000
# 2 50.8478 121.8460 43.0897 0.0000 0.0000 0.0000
# 3 43.0894 43.0897 70.9226 0.0000 0.0000 0.0000
# 4 0.0000 0.0000 0.0000 24.4670 0.0000 0.0000
# 5 0.0000 0.0000 0.0000 0.0000 24.4665 0.0000
# 6 0.0000 0.0000 0.0000 0.0000 0.0000 36.5648
#
#
#
# Elastic Compliance Matrix: (Units=1/GPa)
#
#
# Indices 1 2 3 4 5 6 
#
# 1 0.011198 -0.002887 -0.005049 0.000000 0.000000 0.000000
# 2 -0.002887 0.011198 -0.005049 0.000000 0.000000 0.000000
# 3 -0.005049 -0.005049 0.020235 0.000000 0.000000 0.000000
# 4 0.000000 0.000000 0.000000 0.040871 0.000000 0.000000
# 5 0.000000 0.000000 0.000000 0.000000 0.040872 0.000000
# 6 0.000000 0.000000 0.000000 0.000000 0.000000 0.027349
#
#
# Mechanical properties :
#
#
# Convention : Reuss Voigt Hill
#
# Bulk Modulus (GPa) = 60.02545 65.40743 62.71644
# Shear Modulus (GPa) = 27.28574 28.93876 28.11225
#
# Velocity S-wave (km/s) = 3.64824 3.75713 3.70309
# Velocity P-wave (km/s) = 6.85755 7.12224 6.99115
#
# Compressibility (1/GPa) = 0.01665960
#
# Stress axis : x y z
#
# Youngs Moduli (GPa) = 89.30445 89.30534 49.41959
#
# Poissons Ratio (x) = 0.25786 0.24952
# Poissons Ratio (y) = 0.25786 0.24952
# Poissons Ratio (z) = 0.45089 0.45090
#
# Static dielectric constant tensor:
#      x y z
#    x 3.803610 0.000000 0.000000 
#    y 0.000000 3.803610 0.000000 
#    z 0.000000 0.000000 3.419110 
# 
# 
# High freq. dielectric constant tensor:
#      x y z
#    x 1.808810 0.000000 0.000000 
#    y 0.000000 1.808810 0.000000 
#    z 0.000000 0.000000 1.767670 
# 
# From -- ./inp_files/1411.got.cif
#   From: 2010.03.12/outbox.cif.g09.slc.cpg/sg94_1_cif.got.tgz:1411.got - 2010.04.08 20:48:32.
