data_PCOD8305458
_publ_section_title
;
Structure prediction by ZEFSAII (Michael W. Deem and Ramdas Pophale) SiO2 
 PCOD8305458
Probable space group: P 41 21 2
;
_chemical_formula_sum "Si O2"
_cell_formula_units_Z 24
_cell_length_a 14.222062
_cell_length_b 14.222062
_cell_length_c 5.002778
_cell_angle_alpha 90.000000
_cell_angle_beta 90.000000
_cell_angle_gamma 90.000000
_cell_volume 1011.897136
_symmetry_space_group_name_H-M "P 41 21 2"
_symmetry_group_IT_number 92
_symmetry_cell_setting 'tetragonal'
loop_
_space_group_symop_operation_xyz
x,y,z
1/2-y,1/2+x,1/4+z
-x,-y,1/2+z
1/2+y,1/2-x,3/4+z
1/2+x,1/2-y,3/4-z
1/2-x,1/2+y,1/4-z
y,x,-z
-y,-x,1/2-z
loop_
_atom_site_type_symbol
_atom_site_label
_atom_site_fract_x
_atom_site_fract_y
_atom_site_fract_z
Si Si1 0.422507 0.120790 0.945263
Si Si2 0.387572 0.232321 0.458526
Si Si3 0.881287 0.960363 0.252528
O O1 0.400450 0.205221 0.149105
O O2 0.388571 0.030320 0.106094
O O3 0.370889 0.144613 0.663123
O O4 0.300284 0.300284 0.500000
O O5 0.486308 0.282443 0.531037
O O6 0.890137 0.890137 0.500000
O O7 0.891270 0.891270 0.000000
O O8 0.963429 0.036572 0.250000
#
# Coordination Sequence:
#
# PCOD8305458 Si02
#       3
#     8   8   8
#     4  12  25  46  70  92 127 180 229 263 316 398
#     4  11  23  42  69 100 133 167 216 284 340 382
#     4   9  17  32  56  88 128 171 207 247 321 408
#
# _framework density 23.717825000000001
#
# number of rings (size 3 to 8) (size 9 to 14) (size 15 to 20)
#    0.000    1.333    0.000    7.000    0.000    5.333 
#    0.000   16.667    0.000    0.000    0.000    0.000 
#    0.000    0.000    0.000    0.000    0.000    0.000 
#
# Total GULP energy -297423.419952 kJ/mol
# GULP energy per Si atom -12392.642498 kJ/mol
# Density = 2.366384 g / cm^3
# Si number density = 23.717825 Si / 1000 Ang^3
#
#
#
# Elastic Constant Matrix: (Units=GPa)
#
#
# Indices 1 2 3 4 5 6 
#
# 1 55.4442 45.4027 33.9493 0.0000 0.0000 0.0000
# 2 45.4027 55.4441 33.9488 0.0000 0.0000 0.0000
# 3 33.9493 33.9488 180.4887 0.0000 0.0000 0.0000
# 4 0.0000 0.0000 0.0000 41.6927 0.0000 0.0000
# 5 0.0000 0.0000 0.0000 0.0000 41.6925 0.0000
# 6 0.0000 0.0000 0.0000 0.0000 0.0000 19.9199
#
#
#
# Elastic Compliance Matrix: (Units=1/GPa)
#
#
# Indices 1 2 3 4 5 6 
#
# 1 0.055470 -0.044117 -0.002136 0.000000 0.000000 0.000000
# 2 -0.044117 0.055470 -0.002135 0.000000 0.000000 0.000000
# 3 -0.002136 -0.002135 0.006344 0.000000 0.000000 0.000000
# 4 0.000000 0.000000 0.000000 0.023985 0.000000 0.000000
# 5 0.000000 0.000000 0.000000 0.000000 0.023985 0.000000
# 6 0.000000 0.000000 0.000000 0.000000 0.000000 0.050201
#
#
# Mechanical properties :
#
#
# Convention : Reuss Voigt Hill
#
# Bulk Modulus (GPa) = 48.75851 57.55317 53.15584
# Shear Modulus (GPa) = 15.67065 32.53277 24.10171
#
# Velocity S-wave (km/s) = 2.57322 3.70761 3.19122
# Velocity P-wave (km/s) = 5.42503 6.53046 6.00325
#
# Compressibility (1/GPa) = 0.02050924
#
# Stress axis : x y z
#
# Youngs Moduli (GPa) = 18.02760 18.02765 157.63154
#
# Poissons Ratio (x) = 0.79532 0.33666
# Poissons Ratio (y) = 0.79532 0.33661
# Poissons Ratio (z) = 0.03850 0.03850
#
# Static dielectric constant tensor:
#      x y z
#    x 4.164800 0.000000 0.000000 
#    y 0.000000 4.164800 0.000000 
#    z 0.000000 0.000000 4.746830 
# 
# 
# High freq. dielectric constant tensor:
#      x y z
#    x 1.929780 0.000000 0.000000 
#    y 0.000000 1.929780 0.000000 
#    z 0.000000 0.000000 1.962530 
# 
# From -- ./inp_files/135.got.cif
#   From: 2010.03.12/outbox.cif.g09.slc.cpg/sg92_1_cif.got.tgz:135.got - 2010.04.08 20:41:11.
