data_PCOD8305816
_publ_section_title
;
Structure prediction by ZEFSAII (Michael W. Deem and Ramdas Pophale) SiO2 
 PCOD8305816
Probable space group: P 43 2 2
;
_chemical_formula_sum "Si O2"
_cell_formula_units_Z 56
_cell_length_a 14.448051
_cell_length_b 14.448051
_cell_length_c 13.775314
_cell_angle_alpha 90.000000
_cell_angle_beta 90.000000
_cell_angle_gamma 90.000000
_cell_volume 2875.544144
_symmetry_space_group_name_H-M "P 43 2 2"
_symmetry_group_IT_number 95
_symmetry_cell_setting 'tetragonal'
loop_
_space_group_symop_operation_xyz
x,y,z
-y,x,3/4+z
-x,-y,1/2+z
y,-x,1/4+z
x,-y,1/2-z
-x,y,-z
y,x,1/4-z
-y,-x,3/4-z
loop_
_atom_site_type_symbol
_atom_site_label
_atom_site_fract_x
_atom_site_fract_y
_atom_site_fract_z
Si Si1 0.111608 0.581356 0.322236
Si Si2 0.548170 0.094840 0.602444
Si Si3 0.167381 0.167381 0.625000
Si Si4 0.226710 0.000000 0.750000
Si Si5 0.314728 0.864163 0.610764
Si Si6 0.392304 0.391862 0.735403
Si Si7 0.292483 0.212193 0.451265
Si Si8 0.786527 0.509989 0.971787
O O1 0.138035 0.500000 0.250000
O O2 0.114010 0.673473 0.254803
O O3 0.188992 0.582390 0.408309
O O4 0.014118 0.557760 0.374810
O O5 0.500000 0.111879 0.500000
O O6 0.652834 0.130285 0.599774
O O7 0.489495 0.154116 0.679395
O O8 0.165336 0.076422 0.693393
O O9 0.256725 0.176275 0.555502
O O10 0.291635 0.041377 0.833787
O O11 0.232250 0.791479 0.627310
O O12 0.403856 0.821109 0.660369
O O13 0.418828 0.500000 0.750000
O O14 0.370960 0.370960 0.625000
O O15 0.300226 0.362268 0.792809
O O16 0.479333 0.324509 0.763312
#
# Coordination Sequence:
#
# PCOD8305816 Si02
#       8
#     8   8   4   4   8   8   8   8
#     4   9  19  34  52  79 110 150 189 246 312 361
#     4  11  21  30  55  83 111 148 195 251 308 359
#     4  10  20  34  56  90 116 154 178 252 298 378
#     4  10  20  32  58  90 122 142 196 232 312 362
#     4   9  20  33  55  80 119 148 189 245 299 364
#     4  11  21  36  53  75 110 154 202 246 295 353
#     4  10  19  33  52  80 114 148 189 242 303 350
#     4  10  21  35  52  80 114 149 197 253 302 353
#
# _framework density 19.474575000000002
#
# number of rings (size 3 to 8) (size 9 to 14) (size 15 to 20)
#    0.000    2.000    0.714    3.429   10.000    0.000 
#    0.000    5.714    0.000    0.000   22.286    0.000 
#    0.000    0.000    0.000    0.000    0.000    0.000 
#
# Total GULP energy -693874.783657 kJ/mol
# GULP energy per Si atom -12390.621137 kJ/mol
# Density = 1.943025 g / cm^3
# Si number density = 19.474575 Si / 1000 Ang^3
#
#
#
# Elastic Constant Matrix: (Units=GPa)
#
#
# Indices 1 2 3 4 5 6 
#
# 1 92.1179 31.6414 40.1843 0.0000 0.0000 0.0000
# 2 31.6414 92.1179 40.1843 0.0000 0.0000 0.0000
# 3 40.1843 40.1843 74.7471 0.0000 0.0000 0.0000
# 4 0.0000 0.0000 0.0000 27.6590 0.0000 0.0000
# 5 0.0000 0.0000 0.0000 0.0000 27.6590 0.0000
# 6 0.0000 0.0000 0.0000 0.0000 0.0000 15.3473
#
#
#
# Elastic Compliance Matrix: (Units=1/GPa)
#
#
# Indices 1 2 3 4 5 6 
#
# 1 0.014475 -0.002061 -0.006674 0.000000 0.000000 0.000000
# 2 -0.002061 0.014475 -0.006674 0.000000 0.000000 0.000000
# 3 -0.006674 -0.006674 0.020554 0.000000 0.000000 0.000000
# 4 0.000000 0.000000 0.000000 0.036155 0.000000 0.000000
# 5 0.000000 0.000000 0.000000 0.000000 0.036155 0.000000
# 6 0.000000 0.000000 0.000000 0.000000 0.000000 0.065158
#
#
# Mechanical properties :
#
#
# Convention : Reuss Voigt Hill
#
# Bulk Modulus (GPa) = 53.51308 53.66700 53.59004
# Shear Modulus (GPa) = 22.31973 23.93124 23.12548
#
# Velocity S-wave (km/s) = 3.38908 3.50929 3.44971
# Velocity P-wave (km/s) = 6.54618 6.63607 6.59128
#
# Compressibility (1/GPa) = 0.01868702
#
# Stress axis : x y z
#
# Youngs Moduli (GPa) = 69.08571 69.08571 48.65164
#
# Poissons Ratio (x) = 0.14236 0.32470
# Poissons Ratio (y) = 0.14236 0.32470
# Poissons Ratio (z) = 0.46107 0.46107
#
# Static dielectric constant tensor:
#      x y z
#    x 3.638200 0.000000 0.000000 
#    y 0.000000 3.638200 0.000000 
#    z 0.000000 0.000000 4.200570 
# 
# 
# High freq. dielectric constant tensor:
#      x y z
#    x 1.739990 0.000000 0.000000 
#    y 0.000000 1.739990 0.000000 
#    z 0.000000 0.000000 1.759550 
# 
# From -- ./inp_files/5017.got.cif
#   From: 2010.03.12/outbox.cif.g09.slc.cpg/sg95_3_cif.got.tgz:5017.got - 2010.04.08 20:51:55.
