data_PCOD8305614
_publ_section_title
;
Structure prediction by ZEFSAII (Michael W. Deem and Ramdas Pophale) SiO2 
 PCOD8305614
Probable space group: P 42 21 2
;
_chemical_formula_sum "Si O2"
_cell_formula_units_Z 40
_cell_length_a 14.588065
_cell_length_b 14.588065
_cell_length_c 10.035669
_cell_angle_alpha 90.000000
_cell_angle_beta 90.000000
_cell_angle_gamma 90.000000
_cell_volume 2135.707183
_symmetry_space_group_name_H-M "P 42 21 2"
_symmetry_group_IT_number 94
_symmetry_cell_setting 'tetragonal'
loop_
_space_group_symop_operation_xyz
x,y,z
1/2-y,1/2+x,1/2+z
-x,-y,z
1/2+y,1/2-x,1/2+z
1/2+x,1/2-y,1/2-z
1/2-x,1/2+y,1/2-z
y,x,-z
-y,-x,-z
loop_
_atom_site_type_symbol
_atom_site_label
_atom_site_fract_x
_atom_site_fract_y
_atom_site_fract_z
Si Si1 0.307215 0.464458 0.992236
Si Si2 0.305903 0.209375 0.114731
Si Si3 0.169664 0.845670 0.145059
Si Si4 0.522254 0.398360 0.252945
Si Si5 0.787633 0.958614 0.218860
O O1 0.216259 0.407575 0.949632
O O2 0.333069 0.534618 0.875117
O O3 0.387587 0.387587 0.000000
O O4 0.289986 0.524533 0.122327
O O5 0.294609 0.280658 0.237685
O O6 0.295175 0.106372 0.171702
O O7 0.231428 0.231428 0.000000
O O8 0.059336 0.861706 0.152659
O O9 0.222195 0.942580 0.151981
O O10 0.194852 0.805149 0.000000
O O11 0.500000 0.500000 0.199190
O O12 0.619943 0.404082 0.327341
#
# Coordination Sequence:
#
# PCOD8305614 Si02
#       5
#     8   8   8   8   8
#     4  10  16  34  52  78 123 159 178 237 294 350
#     4  10  21  38  54  80 121 157 194 232 292 362
#     4  10  21  35  51  82 126 151 177 251 301 345
#     4   9  17  27  51  83 117 146 183 225 304 367
#     4  11  20  30  59  85 110 157 195 232 295 369
#
# _framework density 18.729158999999999
#
# number of rings (size 3 to 8) (size 9 to 14) (size 15 to 20)
#    0.000    2.000    8.000    0.600    2.800    4.400 
#    0.000    0.000    0.000    0.000    0.000   21.000 
#    0.000    0.000    0.000    0.000    0.000    0.000 
#
# Total GULP energy -495642.547263 kJ/mol
# GULP energy per Si atom -12391.063682 kJ/mol
# Density = 1.868653 g / cm^3
# Si number density = 18.729159 Si / 1000 Ang^3
#
#
#
# Elastic Constant Matrix: (Units=GPa)
#
#
# Indices 1 2 3 4 5 6 
#
# 1 58.7924 31.8568 23.0728 0.0000 0.0000 0.0000
# 2 31.8568 58.7927 23.0729 0.0000 0.0000 0.0000
# 3 23.0728 23.0729 114.3087 0.0000 0.0000 0.0000
# 4 0.0000 0.0000 0.0000 19.1896 0.0000 0.0000
# 5 0.0000 0.0000 0.0000 0.0000 19.1895 0.0000
# 6 0.0000 0.0000 0.0000 0.0000 0.0000 27.2958
#
#
#
# Elastic Compliance Matrix: (Units=1/GPa)
#
#
# Indices 1 2 3 4 5 6 
#
# 1 0.024710 -0.012415 -0.002482 0.000000 0.000000 0.000000
# 2 -0.012415 0.024710 -0.002482 0.000000 0.000000 0.000000
# 3 -0.002482 -0.002482 0.009750 0.000000 0.000000 0.000000
# 4 0.000000 0.000000 0.000000 0.052112 0.000000 0.000000
# 5 0.000000 0.000000 0.000000 0.000000 0.052112 0.000000
# 6 0.000000 0.000000 0.000000 0.000000 0.000000 0.036636
#
#
# Mechanical properties :
#
#
# Convention : Reuss Voigt Hill
#
# Bulk Modulus (GPa) = 40.96169 43.09985 42.03077
# Shear Modulus (GPa) = 20.58256 23.39441 21.98849
#
# Velocity S-wave (km/s) = 3.31865 3.53808 3.43012
# Velocity P-wave (km/s) = 6.05001 6.30498 6.17881
#
# Compressibility (1/GPa) = 0.02441306
#
# Stress axis : x y z
#
# Youngs Moduli (GPa) = 40.46921 40.46935 102.56332
#
# Poissons Ratio (x) = 0.50244 0.25453
# Poissons Ratio (y) = 0.50244 0.25453
# Poissons Ratio (z) = 0.10043 0.10043
#
# Static dielectric constant tensor:
#      x y z
#    x 3.316410 0.000000 0.000000 
#    y 0.000000 3.316410 0.000000 
#    z 0.000000 0.000000 3.525660 
# 
# 
# High freq. dielectric constant tensor:
#      x y z
#    x 1.690660 0.000000 0.000000 
#    y 0.000000 1.690660 0.000000 
#    z 0.000000 0.000000 1.739730 
# 
# From -- ./inp_files/2491.got.cif
#   From: 2010.03.12/outbox.cif.g09.slc.cpg/sg94_2_cif.got.tgz:2491.got - 2010.04.08 20:48:32.
