data_PCOD8305917
_publ_section_title
;
Structure prediction by ZEFSAII (Michael W. Deem and Ramdas Pophale) SiO2 
 PCOD8305917
Probable space group: P 43 21 2
;
_chemical_formula_sum "Si O2"
_cell_formula_units_Z 60
_cell_length_a 18.033540
_cell_length_b 18.033540
_cell_length_c 9.503971
_cell_angle_alpha 90.000000
_cell_angle_beta 90.000000
_cell_angle_gamma 90.000000
_cell_volume 3090.772770
_symmetry_space_group_name_H-M "P 43 21 2"
_symmetry_group_IT_number 96
_symmetry_cell_setting 'tetragonal'
loop_
_space_group_symop_operation_xyz
x,y,z
1/2-y,1/2+x,3/4+z
-x,-y,1/2+z
1/2+y,1/2-x,1/4+z
1/2+x,1/2-y,1/4-z
1/2-x,1/2+y,3/4-z
y,x,-z
-y,-x,1/2-z
loop_
_atom_site_type_symbol
_atom_site_label
_atom_site_fract_x
_atom_site_fract_y
_atom_site_fract_z
Si Si1 0.233463 0.845031 0.367638
Si Si2 0.043116 0.685488 0.301474
Si Si3 0.584643 0.181068 0.652590
Si Si4 0.666499 0.333502 0.250000
Si Si5 0.607535 0.629373 0.343044
Si Si6 0.001644 0.206883 0.045253
Si Si7 0.200451 0.197367 0.697287
Si Si8 0.710164 0.463829 0.613797
O O1 0.174138 0.825863 0.250000
O O2 0.262711 0.924480 0.321271
O O3 0.194459 0.848193 0.517180
O O4 0.297134 0.782619 0.380419
O O5 0.100058 0.617085 0.312925
O O6 0.964431 0.663357 0.235595
O O7 0.032807 0.726491 0.451611
O O8 0.650091 0.237206 0.611066
O O9 0.539202 0.217543 0.783742
O O10 0.681594 0.420545 0.231320
O O11 0.706846 0.298959 0.384749
O O12 0.635836 0.635836 0.500000
O O13 0.632841 0.549507 0.283292
O O14 0.519289 0.645946 0.328383
O O15 0.009517 0.235570 0.206947
O O16 0.170605 0.116721 0.648903
#
# Coordination Sequence:
#
# PCOD8305917 Si02
#       8
#     8   8   8   4   8   8   8   8
#     4  12  20  35  63  95 118 158 220 261 306 370
#     4  12  24  42  66  92 126 170 211 271 320 385
#     4  12  23  43  66  92 123 166 214 268 315 379
#     4  10  22  38  62  94 124 164 200 266 328 372
#     4  10  21  36  56  88 133 166 200 257 324 383
#     4  10  21  41  59  91 133 163 206 255 324 396
#     4  11  21  38  64  92 125 161 219 265 312 378
#     4  10  21  37  61  93 126 166 207 261 313 380
#
# _framework density 19.41262
#
# number of rings (size 3 to 8) (size 9 to 14) (size 15 to 20)
#    0.000    1.067    6.667    0.400    0.933    0.000 
#    2.400    2.667    2.933    0.000    0.000    0.000 
#    0.000    0.000    0.000    0.000    0.000    0.000 
#
# Total GULP energy -743588.407401 kJ/mol
# GULP energy per Si atom -12393.140123 kJ/mol
# Density = 1.936844 g / cm^3
# Si number density = 19.412620 Si / 1000 Ang^3
#
#
#
# Elastic Constant Matrix: (Units=GPa)
#
#
# Indices 1 2 3 4 5 6 
#
# 1 58.9333 42.0992 30.5026 0.0000 0.0000 0.0000
# 2 42.0992 58.9435 30.5123 0.0000 0.0000 0.0000
# 3 30.5026 30.5123 95.9232 0.0000 0.0000 0.0000
# 4 0.0000 0.0000 0.0000 30.6399 0.0000 0.0000
# 5 0.0000 0.0000 0.0000 0.0000 30.6375 0.0000
# 6 0.0000 0.0000 0.0000 0.0000 0.0000 29.1761
#
#
#
# Elastic Compliance Matrix: (Units=1/GPa)
#
#
# Indices 1 2 3 4 5 6 
#
# 1 0.035819 -0.023568 -0.003893 0.000000 0.000000 0.000000
# 2 -0.023568 0.035816 -0.003899 0.000000 0.000000 0.000000
# 3 -0.003893 -0.003899 0.012903 0.000000 0.000000 0.000000
# 4 0.000000 0.000000 0.000000 0.032637 0.000000 0.000000
# 5 0.000000 0.000000 0.000000 0.000000 0.032640 0.000000
# 6 0.000000 0.000000 0.000000 0.000000 0.000000 0.034275
#
#
# Mechanical properties :
#
#
# Convention : Reuss Voigt Hill
#
# Bulk Modulus (GPa) = 45.83114 46.66981 46.25047
# Shear Modulus (GPa) = 19.67866 25.46976 22.57421
#
# Velocity S-wave (km/s) = 3.18733 3.62611 3.41378
# Velocity P-wave (km/s) = 6.09964 6.45172 6.27815
#
# Compressibility (1/GPa) = 0.02181923
#
# Stress axis : x y z
#
# Youngs Moduli (GPa) = 27.91803 27.92034 77.50032
#
# Poissons Ratio (x) = 0.65802 0.30175
# Poissons Ratio (y) = 0.65796 0.30214
# Poissons Ratio (z) = 0.10870 0.10885
#
# Static dielectric constant tensor:
#      x y z
#    x 3.501760 0.000000 0.000000 
#    y 0.000000 3.501790 0.000000 
#    z 0.000000 0.000000 3.846070 
# 
# 
# High freq. dielectric constant tensor:
#      x y z
#    x 1.742280 0.000000 0.000000 
#    y 0.000000 1.742280 0.000000 
#    z 0.000000 0.000000 1.777170 
# 
# From -- ./inp_files/1633.got.cif
#   From: 2010.03.12/outbox.cif.g09.slc.cpg/sg96_1_cif.got.tgz:1633.got - 2010.04.08 20:56:49.
