data_PCOD8305324
_publ_section_title
;
Structure prediction by ZEFSAII (Michael W. Deem and Ramdas Pophale) SiO2 
 PCOD8305324
Probable space group: P 41 21 2
;
_chemical_formula_sum "Si O2"
_cell_formula_units_Z 48
_cell_length_a 11.126859
_cell_length_b 11.126859
_cell_length_c 19.405878
_cell_angle_alpha 90.000000
_cell_angle_beta 90.000000
_cell_angle_gamma 90.000000
_cell_volume 2402.583367
_symmetry_space_group_name_H-M "P 41 21 2"
_symmetry_group_IT_number 92
_symmetry_cell_setting 'tetragonal'
loop_
_space_group_symop_operation_xyz
x,y,z
1/2-y,1/2+x,1/4+z
-x,-y,1/2+z
1/2+y,1/2-x,3/4+z
1/2+x,1/2-y,3/4-z
1/2-x,1/2+y,1/4-z
y,x,-z
-y,-x,1/2-z
loop_
_atom_site_type_symbol
_atom_site_label
_atom_site_fract_x
_atom_site_fract_y
_atom_site_fract_z
Si Si1 0.822741 0.653840 0.532193
Si Si2 0.101795 0.246080 0.172033
Si Si3 0.860969 0.592720 0.142422
Si Si4 0.419988 0.392622 0.425407
Si Si5 0.503050 0.958853 0.996421
Si Si6 0.432744 0.685708 0.525640
O O1 0.781672 0.781672 0.500000
O O2 0.831778 0.675232 0.614262
O O3 0.722804 0.556049 0.511662
O O4 0.950328 0.610385 0.502403
O O5 0.196175 0.167127 0.215331
O O6 0.998757 0.158402 0.139882
O O7 0.039988 0.330796 0.228216
O O8 0.720919 0.581217 0.124604
O O9 0.887674 0.506550 0.206986
O O10 0.894880 0.728463 0.161629
O O11 0.947469 0.552397 0.080662
O O12 0.360638 0.360638 0.500000
O O13 0.553739 0.442079 0.441157
#
# Coordination Sequence:
#
# PCOD8305324 Si02
#       6
#     8   8   8   8   8   8
#     4  11  25  42  67  95 135 175 223 279 336 401
#     4  11  23  41  68  91 135 177 224 270 338 405
#     4  11  23  40  68  98 133 174 227 278 335 392
#     4  10  21  40  64  93 130 179 214 270 339 393
#     4  11  23  42  65  99 131 177 226 274 335 401
#     4  10  24  42  64  98 134 177 226 274 339 406
#
# _framework density 19.978494999999999
#
# number of rings (size 3 to 8) (size 9 to 14) (size 15 to 20)
#    0.000    1.333    5.000    1.500    7.000    1.333 
#    0.000    1.667    0.000    0.000    0.000    0.000 
#    0.000    0.000    0.000    0.000    0.000    0.000 
#
# Total GULP energy -595112.121579 kJ/mol
# GULP energy per Si atom -12398.169200 kJ/mol
# Density = 1.993302 g / cm^3
# Si number density = 19.978495 Si / 1000 Ang^3
#
#
#
# Elastic Constant Matrix: (Units=GPa)
#
#
# Indices 1 2 3 4 5 6 
#
# 1 105.8844 53.7160 46.6256 0.0000 0.0000 0.0000
# 2 53.7160 105.8844 46.6256 0.0000 0.0000 0.0000
# 3 46.6256 46.6256 89.2712 0.0000 0.0000 0.0000
# 4 0.0000 0.0000 0.0000 37.6978 0.0000 0.0000
# 5 0.0000 0.0000 0.0000 0.0000 37.6978 0.0000
# 6 0.0000 0.0000 0.0000 0.0000 0.0000 21.0579
#
#
#
# Elastic Compliance Matrix: (Units=1/GPa)
#
#
# Indices 1 2 3 4 5 6 
#
# 1 0.014093 -0.005076 -0.004710 0.000000 0.000000 0.000000
# 2 -0.005076 0.014093 -0.004710 0.000000 0.000000 0.000000
# 3 -0.004710 -0.004710 0.016122 0.000000 0.000000 0.000000
# 4 0.000000 0.000000 0.000000 0.026527 0.000000 0.000000
# 5 0.000000 0.000000 0.000000 0.000000 0.026527 0.000000
# 6 0.000000 0.000000 0.000000 0.000000 0.000000 0.047488
#
#
# Mechanical properties :
#
#
# Convention : Reuss Voigt Hill
#
# Bulk Modulus (GPa) = 65.28487 66.10826 65.69657
# Shear Modulus (GPa) = 27.94151 29.56223 28.75187
#
# Velocity S-wave (km/s) = 3.74382 3.85086 3.79772
# Velocity P-wave (km/s) = 7.17194 7.27556 7.22393
#
# Compressibility (1/GPa) = 0.01531748
#
# Stress axis : x y z
#
# Youngs Moduli (GPa) = 70.95689 70.95689 62.02886
#
# Poissons Ratio (x) = 0.36015 0.29214
# Poissons Ratio (y) = 0.36015 0.29214
# Poissons Ratio (z) = 0.33419 0.33419
#
# Static dielectric constant tensor:
#      x y z
#    x 3.701360 0.000000 0.000000 
#    y 0.000000 3.701360 0.000000 
#    z 0.000000 0.000000 3.611300 
# 
# 
# High freq. dielectric constant tensor:
#      x y z
#    x 1.784930 0.000000 0.000000 
#    y 0.000000 1.784930 0.000000 
#    z 0.000000 0.000000 1.770600 
# 
# From -- ./inp_files/3121.got.cif
#   From: 2010.03.12/outbox.cif.g09.slc.cpg/sg92_2_cif.got.tgz:3121.got - 2010.04.08 20:41:11.
