data_PCOD8305589
_publ_section_title
;
Structure prediction by ZEFSAII (Michael W. Deem and Ramdas Pophale) SiO2 
 PCOD8305589
Probable space group: P 42 2 2
;
_chemical_formula_sum "Si O2"
_cell_formula_units_Z 20
_cell_length_a 5.043362
_cell_length_b 5.043362
_cell_length_c 32.433451
_cell_angle_alpha 90.000000
_cell_angle_beta 90.000000
_cell_angle_gamma 90.000000
_cell_volume 824.961051
_symmetry_space_group_name_H-M "P 42 2 2"
_symmetry_group_IT_number 93
_symmetry_cell_setting 'tetragonal'
loop_
_space_group_symop_operation_xyz
x,y,z
-y,x,1/2+z
-x,-y,z
y,-x,1/2+z
x,-y,-z
-x,y,-z
y,x,1/2-z
-y,-x,1/2-z
loop_
_atom_site_type_symbol
_atom_site_label
_atom_site_fract_x
_atom_site_fract_y
_atom_site_fract_z
Si Si1 0.816647 0.744113 0.928930
Si Si2 0.500000 0.000000 0.692240
Si Si3 0.500000 0.500000 0.136113
Si Si4 0.000000 0.000000 0.250000
Si Si5 0.500000 0.500000 0.500000
O O1 0.585361 0.748269 0.893863
O O2 0.000000 0.500000 0.916345
O O3 0.682289 0.697055 0.973267
O O4 0.000000 0.000000 0.930020
O O5 0.572519 0.253492 0.664687
O O6 0.250369 0.030554 0.721083
#
# Coordination Sequence:
#
# PCOD8305589 Si02
#       5
#     8   4   4   2   2
#     4  11  26  47  75 112 151 205 258 322 387 457
#     4  12  26  48  78 111 156 192 252 309 378 464
#     4  11  26  48  80 115 152 202 254 317 378 458
#     4  12  28  48  76 116 150 200 244 306 388 458
#     4  10  26  46  76 110 160 206 268 326 396 468
#
# _framework density 24.243563999999999
#
# number of rings (size 3 to 8) (size 9 to 14) (size 15 to 20)
#    0.000    0.800    2.000    3.000    2.800   14.400 
#    0.000    0.000    4.400    0.000    0.000    0.000 
#    0.000    0.000    0.000    0.000    0.000    0.000 
#
# Total GULP energy -247911.514168 kJ/mol
# GULP energy per Si atom -12395.575708 kJ/mol
# Density = 2.418838 g / cm^3
# Si number density = 24.243564 Si / 1000 Ang^3
#
#
#
# Elastic Constant Matrix: (Units=GPa)
#
#
# Indices 1 2 3 4 5 6 
#
# 1 197.8944 85.7324 99.7534 0.0000 0.0000 0.0000
# 2 85.7324 197.8944 99.7534 0.0000 0.0000 0.0000
# 3 99.7534 99.7534 207.6574 0.0000 0.0000 0.0000
# 4 0.0000 0.0000 0.0000 12.0652 0.0000 0.0000
# 5 0.0000 0.0000 0.0000 0.0000 12.0652 0.0000
# 6 0.0000 0.0000 0.0000 0.0000 0.0000 53.4250
#
#
#
# Elastic Compliance Matrix: (Units=1/GPa)
#
#
# Indices 1 2 3 4 5 6 
#
# 1 0.007120 -0.001795 -0.002558 0.000000 0.000000 0.000000
# 2 -0.001795 0.007120 -0.002558 0.000000 0.000000 0.000000
# 3 -0.002558 -0.002558 0.007273 0.000000 0.000000 0.000000
# 4 0.000000 0.000000 0.000000 0.082883 0.000000 0.000000
# 5 0.000000 0.000000 0.000000 0.000000 0.082883 0.000000
# 6 0.000000 0.000000 0.000000 0.000000 0.000000 0.018718
#
#
# Mechanical properties :
#
#
# Convention : Reuss Voigt Hill
#
# Bulk Modulus (GPa) = 130.01693 130.43606 130.22650
# Shear Modulus (GPa) = 22.48353 36.72487 29.60420
#
# Velocity S-wave (km/s) = 3.04863 3.89630 3.49824
# Velocity P-wave (km/s) = 8.13253 8.61166 8.37552
#
# Compressibility (1/GPa) = 0.00769131
#
# Stress axis : x y z
#
# Youngs Moduli (GPa) = 140.44143 140.44143 137.48949
#
# Poissons Ratio (x) = 0.25213 0.35171
# Poissons Ratio (y) = 0.25213 0.35171
# Poissons Ratio (z) = 0.35926 0.35926
#
# Static dielectric constant tensor:
#      x y z
#    x 4.802180 0.000000 0.000000 
#    y 0.000000 4.802180 0.000000 
#    z 0.000000 0.000000 4.848680 
# 
# 
# High freq. dielectric constant tensor:
#      x y z
#    x 1.971230 0.000000 0.000000 
#    y 0.000000 1.971230 0.000000 
#    z 0.000000 0.000000 1.989680 
# 
# From -- ./inp_files/7549.got.cif
#   From: 2010.03.12/outbox.cif.g09.slc.cpg/sg93_4_cif.got.tgz:7549.got - 2010.04.08 20:44:19.
