data_PCOD8305151
_publ_section_title
;
Structure prediction by ZEFSAII (Michael W. Deem and Ramdas Pophale) SiO2 
 PCOD8305151
Probable space group: P 41 2 2
;
_chemical_formula_sum "Si O2"
_cell_formula_units_Z 40
_cell_length_a 8.616400
_cell_length_b 8.616400
_cell_length_c 22.947718
_cell_angle_alpha 90.000000
_cell_angle_beta 90.000000
_cell_angle_gamma 90.000000
_cell_volume 1703.692488
_symmetry_space_group_name_H-M "P 41 2 2"
_symmetry_group_IT_number 91
_symmetry_cell_setting 'tetragonal'
loop_
_space_group_symop_operation_xyz
x,y,z
-y,x,1/4+z
-x,-y,1/2+z
y,-x,3/4+z
x,-y,1/2-z
-x,y,-z
y,x,3/4-z
-y,-x,1/4-z
loop_
_atom_site_type_symbol
_atom_site_label
_atom_site_fract_x
_atom_site_fract_y
_atom_site_fract_z
Si Si1 0.794252 0.368990 0.929618
Si Si2 0.000000 0.160789 0.000000
Si Si3 0.774394 0.079529 0.536237
Si Si4 0.565335 0.500000 0.250000
Si Si5 0.301912 0.317958 0.554640
Si Si6 0.667012 0.030777 0.660533
O O1 0.772456 0.324245 0.863709
O O2 0.832172 0.551786 0.931298
O O3 0.949239 0.273009 0.947158
O O4 0.638570 0.336205 0.968905
O O5 0.845325 0.053319 0.006664
O O6 0.671371 0.197441 0.498379
O O7 0.670508 0.010658 0.589621
O O8 0.921362 0.164402 0.566111
O O9 0.459870 0.579060 0.299743
O O10 0.126457 0.384392 0.556942
#
# Coordination Sequence:
#
# PCOD8305151 Si02
#       6
#     8   4   8   4   8   8
#     4  12  27  45  73 104 149 194 232 306 381 433
#     4  12  24  46  72 106 152 180 236 310 368 428
#     4  11  23  43  76 104 138 179 259 301 345 446
#     4  12  26  46  68 110 148 192 248 298 362 454
#     4  12  23  44  74 102 138 192 248 300 350 442
#     4  11  23  46  72 105 135 195 245 294 367 437
#
# _framework density 23.478413
#
# number of rings (size 3 to 8) (size 9 to 14) (size 15 to 20)
#    0.000    0.400    6.000    3.000    2.800    0.800 
#    3.600    0.000    4.400    0.000    0.000    0.000 
#    0.000    0.000    0.000    0.000    0.000    0.000 
#
# Total GULP energy -495704.105613 kJ/mol
# GULP energy per Si atom -12392.602640 kJ/mol
# Density = 2.342498 g / cm^3
# Si number density = 23.478413 Si / 1000 Ang^3
#
#
#
# Elastic Constant Matrix: (Units=GPa)
#
#
# Indices 1 2 3 4 5 6 
#
# 1 81.1905 20.7081 20.9228 0.0000 0.0000 0.0000
# 2 20.7081 81.1905 20.9228 0.0000 0.0000 0.0000
# 3 20.9228 20.9228 119.6118 0.0000 0.0000 0.0000
# 4 0.0000 0.0000 0.0000 37.1689 0.0000 0.0000
# 5 0.0000 0.0000 0.0000 0.0000 37.1689 0.0000
# 6 0.0000 0.0000 0.0000 0.0000 0.0000 27.9598
#
#
#
# Elastic Compliance Matrix: (Units=1/GPa)
#
#
# Indices 1 2 3 4 5 6 
#
# 1 0.013553 -0.002980 -0.001849 0.000000 0.000000 0.000000
# 2 -0.002980 0.013553 -0.001849 0.000000 0.000000 0.000000
# 3 -0.001849 -0.001849 0.009007 0.000000 0.000000 0.000000
# 4 0.000000 0.000000 0.000000 0.026904 0.000000 0.000000
# 5 0.000000 0.000000 0.000000 0.000000 0.026904 0.000000
# 6 0.000000 0.000000 0.000000 0.000000 0.000000 0.035766
#
#
# Mechanical properties :
#
#
# Convention : Reuss Voigt Hill
#
# Bulk Modulus (GPa) = 43.94479 45.23337 44.58908
# Shear Modulus (GPa) = 34.09891 35.08878 34.59384
#
# Velocity S-wave (km/s) = 3.81511 3.87009 3.84270
# Velocity P-wave (km/s) = 6.17774 6.26720 6.22263
#
# Compressibility (1/GPa) = 0.02275583
#
# Stress axis : x y z
#
# Youngs Moduli (GPa) = 73.78186 73.78186 111.01964
#
# Poissons Ratio (x) = 0.21989 0.20533
# Poissons Ratio (y) = 0.21989 0.20533
# Poissons Ratio (z) = 0.13646 0.13646
#
# Static dielectric constant tensor:
#      x y z
#    x 4.213200 0.000000 0.000000 
#    y 0.000000 4.213200 0.000000 
#    z 0.000000 0.000000 4.257060 
# 
# 
# High freq. dielectric constant tensor:
#      x y z
#    x 1.920990 0.000000 0.000000 
#    y 0.000000 1.920990 0.000000 
#    z 0.000000 0.000000 1.931030 
# 
# From -- ./inp_files/6821.got.cif
#   From: 2010.03.12/outbox.cif.g09.slc.cpg/sg91_4_cif.got.tgz:6821.got - 2010.04.08 20:27:58.
