data_PCOD8305227
_publ_section_title
;
Structure prediction by ZEFSAII (Michael W. Deem and Ramdas Pophale) SiO2 
 PCOD8305227
Probable space group: P 41 21 2
;
_chemical_formula_sum "Si O2"
_cell_formula_units_Z 60
_cell_length_a 11.810884
_cell_length_b 11.810884
_cell_length_c 22.547521
_cell_angle_alpha 90.000000
_cell_angle_beta 90.000000
_cell_angle_gamma 90.000000
_cell_volume 3145.311105
_symmetry_space_group_name_H-M "P 41 21 2"
_symmetry_group_IT_number 92
_symmetry_cell_setting 'tetragonal'
loop_
_space_group_symop_operation_xyz
x,y,z
1/2-y,1/2+x,1/4+z
-x,-y,1/2+z
1/2+y,1/2-x,3/4+z
1/2+x,1/2-y,3/4-z
1/2-x,1/2+y,1/4-z
y,x,-z
-y,-x,1/2-z
loop_
_atom_site_type_symbol
_atom_site_label
_atom_site_fract_x
_atom_site_fract_y
_atom_site_fract_z
Si Si1 0.702600 0.928352 0.954497
Si Si2 0.520678 0.479323 0.750000
Si Si3 0.342976 0.107350 0.158960
Si Si4 0.939220 0.819622 0.930136
Si Si5 0.257480 0.022007 0.040648
Si Si6 0.848991 0.726014 0.695379
Si Si7 0.948592 0.630583 0.579400
Si Si8 0.025668 0.309347 0.313266
O O1 0.816023 0.875683 0.928152
O O2 0.604673 0.838535 0.944633
O O3 0.681753 0.045995 0.920709
O O4 0.711656 0.945631 0.025692
O O5 0.410082 0.473137 0.708003
O O6 0.526934 0.377048 0.796520
O O7 0.318290 0.101199 0.088937
O O8 0.236353 0.166924 0.191280
O O9 0.365857 0.978056 0.179489
O O10 0.970797 0.785182 0.864097
O O11 0.284108 0.890527 0.046187
O O12 0.293459 0.072934 0.977760
O O13 0.922997 0.709683 0.635914
O O14 0.927724 0.746109 0.752736
O O15 0.079373 0.593556 0.583544
#
# Coordination Sequence:
#
# PCOD8305227 Si02
#       8
#     8   4   8   8   8   8   8   8
#     4   9  20  37  53  78 114 145 181 231 283 340
#     4  10  20  36  54  78 108 144 184 220 272 342
#     4  10  20  35  57  81 108 142 185 235 279 331
#     4  10  21  36  57  83 112 150 187 227 285 341
#     4  10  20  35  55  77 105 145 183 221 275 337
#     4  10  19  33  53  80 108 137 182 233 275 320
#     4   9  20  35  54  81 110 145 187 226 278 341
#     4  10  20  34  56  82 109 146 189 232 279 334
#
# _framework density 19.076015999999999
#
# number of rings (size 3 to 8) (size 9 to 14) (size 15 to 20)
#    0.000    2.400    0.000    3.200    0.000    7.467 
#    0.000    2.667    0.000    1.600    0.000    0.000 
#    0.000    0.000    0.000    0.000    0.000    0.000 
#
# Total GULP energy -743777.078878 kJ/mol
# GULP energy per Si atom -12396.284648 kJ/mol
# Density = 1.903260 g / cm^3
# Si number density = 19.076016 Si / 1000 Ang^3
#
#
#
# Elastic Constant Matrix: (Units=GPa)
#
#
# Indices 1 2 3 4 5 6 
#
# 1 78.8803 43.5828 56.4820 0.0000 0.0000 0.0000
# 2 43.5828 78.8808 56.4821 0.0000 0.0000 0.0000
# 3 56.4820 56.4821 149.5946 0.0000 0.0000 0.0000
# 4 0.0000 0.0000 0.0000 27.9184 0.0000 0.0000
# 5 0.0000 0.0000 0.0000 0.0000 27.9183 0.0000
# 6 0.0000 0.0000 0.0000 0.0000 0.0000 32.6808
#
#
#
# Elastic Compliance Matrix: (Units=1/GPa)
#
#
# Indices 1 2 3 4 5 6 
#
# 1 0.020430 -0.007900 -0.004731 0.000000 0.000000 0.000000
# 2 -0.007900 0.020430 -0.004731 0.000000 0.000000 0.000000
# 3 -0.004731 -0.004731 0.010257 0.000000 0.000000 0.000000
# 4 0.000000 0.000000 0.000000 0.035819 0.000000 0.000000
# 5 0.000000 0.000000 0.000000 0.000000 0.035819 0.000000
# 6 0.000000 0.000000 0.000000 0.000000 0.000000 0.030599
#
#
# Mechanical properties :
#
#
# Convention : Reuss Voigt Hill
#
# Bulk Modulus (GPa) = 61.00117 68.93884 64.97001
# Shear Modulus (GPa) = 25.83423 27.75742 26.79583
#
# Velocity S-wave (km/s) = 3.68404 3.81871 3.75198
# Velocity P-wave (km/s) = 7.08121 7.46062 7.27339
#
# Compressibility (1/GPa) = 0.01639313
#
# Stress axis : x y z
#
# Youngs Moduli (GPa) = 48.94754 48.94789 97.49371
#
# Poissons Ratio (x) = 0.38671 0.46122
# Poissons Ratio (y) = 0.38671 0.46121
# Poissons Ratio (z) = 0.23156 0.23156
#
# Static dielectric constant tensor:
#      x y z
#    x 3.468720 0.000000 0.000000 
#    y 0.000000 3.468720 0.000000 
#    z 0.000000 0.000000 3.607120 
# 
# 
# High freq. dielectric constant tensor:
#      x y z
#    x 1.739720 0.000000 0.000000 
#    y 0.000000 1.739720 0.000000 
#    z 0.000000 0.000000 1.741870 
# 
# From -- ./inp_files/3647.got.cif
#   From: 2010.03.12/outbox.cif.g09.slc.cpg/sg92_2_cif.got.tgz:3647.got - 2010.04.08 20:41:11.
