data_PCOD8305947
_publ_section_title
;
Structure prediction by ZEFSAII (Michael W. Deem and Ramdas Pophale) SiO2 
 PCOD8305947
Probable space group: P 43 21 2
;
_chemical_formula_sum "Si O2"
_cell_formula_units_Z 48
_cell_length_a 19.014345
_cell_length_b 19.014345
_cell_length_c 5.422328
_cell_angle_alpha 90.000000
_cell_angle_beta 90.000000
_cell_angle_gamma 90.000000
_cell_volume 1960.417289
_symmetry_space_group_name_H-M "P 43 21 2"
_symmetry_group_IT_number 96
_symmetry_cell_setting 'tetragonal'
loop_
_space_group_symop_operation_xyz
x,y,z
1/2-y,1/2+x,3/4+z
-x,-y,1/2+z
1/2+y,1/2-x,1/4+z
1/2+x,1/2-y,1/4-z
1/2-x,1/2+y,3/4-z
y,x,-z
-y,-x,1/2-z
loop_
_atom_site_type_symbol
_atom_site_label
_atom_site_fract_x
_atom_site_fract_y
_atom_site_fract_z
Si Si1 0.338662 0.181288 0.977506
Si Si2 0.853066 0.962503 0.001242
Si Si3 0.077022 0.439062 0.254960
Si Si4 0.545918 0.817737 0.868926
Si Si5 0.198427 0.892673 0.434233
Si Si6 0.226209 0.075588 0.993318
O O1 0.372780 0.127562 0.780977
O O2 0.343068 0.262828 0.886467
O O3 0.259006 0.154513 0.018823
O O4 0.381150 0.174394 0.228191
O O5 0.818671 0.939817 0.739005
O O6 0.854842 0.047788 0.042864
O O7 0.932987 0.932987 0.000000
O O8 0.816669 0.926929 0.239249
O O9 0.083691 0.495727 0.033749
O O10 0.107746 0.475389 0.505263
O O11 0.479783 0.790931 0.709505
O O12 0.557905 0.757673 0.070911
O O13 0.158114 0.841887 0.250000
#
# Coordination Sequence:
#
# PCOD8305947 Si02
#       6
#     8   8   8   8   8   8
#     4  11  23  41  66  93 140 186 231 285 355 421
#     4  11  25  50  73 104 139 184 234 298 358 431
#     4  11  25  35  56  94 134 183 244 289 341 412
#     4  10  22  42  62  91 138 184 228 289 351 419
#     4  10  24  46  72 103 138 180 232 301 366 428
#     4  11  24  42  73 100 140 188 234 280 354 422
#
# _framework density 24.484584000000002
#
# number of rings (size 3 to 8) (size 9 to 14) (size 15 to 20)
#    0.000    1.333    1.667    2.500   14.000    1.333 
#    3.000    3.333    0.000    0.000    0.000    0.000 
#    0.000    0.000    0.000    0.000    0.000    0.000 
#
# Total GULP energy -594858.574549 kJ/mol
# GULP energy per Si atom -12392.886970 kJ/mol
# Density = 2.442886 g / cm^3
# Si number density = 24.484584 Si / 1000 Ang^3
#
#
#
# Elastic Constant Matrix: (Units=GPa)
#
#
# Indices 1 2 3 4 5 6 
#
# 1 38.2193 39.0506 4.0347 0.0000 0.0000 0.0000
# 2 39.0506 38.2263 4.0362 0.0000 0.0000 0.0000
# 3 4.0347 4.0362 102.1464 0.0000 0.0000 0.0000
# 4 0.0000 0.0000 0.0000 24.9867 0.0000 0.0000
# 5 0.0000 0.0000 0.0000 0.0000 24.9866 0.0000
# 6 0.0000 0.0000 0.0000 0.0000 0.0000 47.0726
#
#
#
# Elastic Compliance Matrix: (Units=1/GPa)
#
#
# Indices 1 2 3 4 5 6 
#
# 1 -0.597566 0.610507 -0.000520 0.000000 0.000000 0.000000
# 2 0.610507 -0.597458 -0.000506 0.000000 0.000000 0.000000
# 3 -0.000520 -0.000506 0.009830 0.000000 0.000000 0.000000
# 4 0.000000 0.000000 0.000000 0.040021 0.000000 0.000000
# 5 0.000000 0.000000 0.000000 0.000000 0.040022 0.000000
# 6 0.000000 0.000000 0.000000 0.000000 0.000000 0.021244
#
#
# Mechanical properties :
#
#
# Convention : Reuss Voigt Hill
#
# Bulk Modulus (GPa) = 29.61535 30.31502 29.96519
# Shear Modulus (GPa) = -2.18187 28.17387 12.99600
#
# Velocity S-wave (km/s) = -0.94502 3.39584 2.30637
# Velocity P-wave (km/s) = 3.30621 5.27104 4.39971
#
# Compressibility (1/GPa) = 0.03376627
#
# Stress axis : x y z
#
# Youngs Moduli (GPa) = -1.67345 -1.67376 101.72491
#
# Poissons Ratio (x) = 1.02184 0.05293
# Poissons Ratio (y) = 1.02166 0.05152
# Poissons Ratio (z) = -0.00087 -0.00085
#
# Static dielectric constant tensor:
#      x y z
#    x 4.464780 0.000000 0.000000 
#    y 0.000000 4.464780 0.000000 
#    z 0.000000 0.000000 4.374270 
# 
# 
# High freq. dielectric constant tensor:
#      x y z
#    x 1.969520 0.000000 0.000000 
#    y 0.000000 1.969520 0.000000 
#    z 0.000000 0.000000 1.975060 
# 
# From -- ./inp_files/631.got.cif
#   From: 2010.03.12/outbox.cif.g09.slc.cpg/sg96_1_cif.got.tgz:631.got - 2010.04.08 20:56:49.
