data_PCOD8305973
_publ_section_title
;
Structure prediction by ZEFSAII (Michael W. Deem and Ramdas Pophale) SiO2 
 PCOD8305973
Probable space group: P 43 21 2
;
_chemical_formula_sum "Si O2"
_cell_formula_units_Z 40
_cell_length_a 15.733591
_cell_length_b 15.733591
_cell_length_c 6.825724
_cell_angle_alpha 90.000000
_cell_angle_beta 90.000000
_cell_angle_gamma 90.000000
_cell_volume 1689.679894
_symmetry_space_group_name_H-M "P 43 21 2"
_symmetry_group_IT_number 96
_symmetry_cell_setting 'tetragonal'
loop_
_space_group_symop_operation_xyz
x,y,z
1/2-y,1/2+x,3/4+z
-x,-y,1/2+z
1/2+y,1/2-x,1/4+z
1/2+x,1/2-y,1/4-z
1/2-x,1/2+y,3/4-z
y,x,-z
-y,-x,1/2-z
loop_
_atom_site_type_symbol
_atom_site_label
_atom_site_fract_x
_atom_site_fract_y
_atom_site_fract_z
Si Si1 0.074079 0.939355 0.029138
Si Si2 0.179131 0.179131 0.500000
Si Si3 0.840381 0.685969 0.316989
Si Si4 0.162257 0.837744 0.750000
Si Si5 0.940095 0.783582 0.651417
Si Si6 0.608826 0.018476 0.295662
O O1 0.087840 0.912161 0.250000
O O2 0.083130 0.851972 0.903933
O O3 0.147963 0.002276 0.957460
O O4 0.981659 0.981659 0.000000
O O5 0.168387 0.270894 0.604343
O O6 0.109529 0.170045 0.328965
O O7 0.749064 0.653098 0.386232
O O8 0.876375 0.748618 0.484195
O O9 0.894784 0.598353 0.298756
O O10 0.993083 0.706066 0.744934
O O11 0.564488 0.055336 0.102691
#
# Coordination Sequence:
#
# PCOD8305973 Si02
#       6
#     8   4   8   4   8   8
#     4  12  27  48  72 105 150 200 251 320 386 450
#     4  12  24  42  81 102 147 204 240 310 386 446
#     4  11  24  47  68 107 144 184 252 304 370 463
#     4  12  24  44  69 108 145 190 256 310 368 472
#     4  11  25  47  72 108 149 189 256 313 374 470
#     4  10  24  45  71 104 144 183 239 313 372 448
#
# _framework density 23.673124999999999
#
# number of rings (size 3 to 8) (size 9 to 14) (size 15 to 20)
#    0.000    0.800    5.000    1.200    4.200    3.200 
#    1.800    2.000    0.000    0.000    0.000    0.000 
#    0.000    0.000    0.000    0.000    0.000    0.000 
#
# Total GULP energy -495687.424084 kJ/mol
# GULP energy per Si atom -12392.185602 kJ/mol
# Density = 2.361924 g / cm^3
# Si number density = 23.673125 Si / 1000 Ang^3
#
#
#
# Elastic Constant Matrix: (Units=GPa)
#
#
# Indices 1 2 3 4 5 6 
#
# 1 62.7527 55.1571 35.7772 0.0000 0.0000 0.0000
# 2 55.1571 62.7676 35.7737 0.0000 0.0000 0.0000
# 3 35.7772 35.7737 139.7824 0.0000 0.0000 0.0000
# 4 0.0000 0.0000 0.0000 38.5998 0.0000 0.0000
# 5 0.0000 0.0000 0.0000 0.0000 38.6000 0.0000
# 6 0.0000 0.0000 0.0000 0.0000 0.0000 46.7457
#
#
#
# Elastic Compliance Matrix: (Units=1/GPa)
#
#
# Indices 1 2 3 4 5 6 
#
# 1 0.070795 -0.060744 -0.002574 0.000000 0.000000 0.000000
# 2 -0.060744 0.070773 -0.002565 0.000000 0.000000 0.000000
# 3 -0.002574 -0.002565 0.008469 0.000000 0.000000 0.000000
# 4 0.000000 0.000000 0.000000 0.025907 0.000000 0.000000
# 5 0.000000 0.000000 0.000000 0.000000 0.025907 0.000000
# 6 0.000000 0.000000 0.000000 0.000000 0.000000 0.021392
#
#
# Mechanical properties :
#
#
# Convention : Reuss Voigt Hill
#
# Bulk Modulus (GPa) = 54.73299 57.63541 56.18420
# Shear Modulus (GPa) = 13.84665 34.02873 23.93769
#
# Velocity S-wave (km/s) = 2.42111 3.79547 3.18335
# Velocity P-wave (km/s) = 5.56653 6.60354 6.10708
#
# Compressibility (1/GPa) = 0.01827052
#
# Stress axis : x y z
#
# Youngs Moduli (GPa) = 14.12538 14.12978 118.07428
#
# Poissons Ratio (x) = 0.85830 0.30392
# Poissons Ratio (y) = 0.85803 0.30287
# Poissons Ratio (z) = 0.03636 0.03624
#
# Static dielectric constant tensor:
#      x y z
#    x 4.616410 0.000000 0.000000 
#    y 0.000000 4.616430 0.000000 
#    z 0.000000 0.000000 4.255490 
# 
# 
# High freq. dielectric constant tensor:
#      x y z
#    x 1.952460 0.000000 0.000000 
#    y 0.000000 1.952460 0.000000 
#    z 0.000000 0.000000 1.919610 
# 
# From -- ./inp_files/435.got.cif
#   From: 2010.03.12/outbox.cif.g09.slc.cpg/sg96_1_cif.got.tgz:435.got - 2010.04.08 20:56:49.
