data_PCOD8305595
_publ_section_title
;
Structure prediction by ZEFSAII (Michael W. Deem and Ramdas Pophale) SiO2 
 PCOD8305595
Probable space group: P 42 2 2
;
_chemical_formula_sum "Si O2"
_cell_formula_units_Z 20
_cell_length_a 7.549603
_cell_length_b 7.549603
_cell_length_c 13.901416
_cell_angle_alpha 90.000000
_cell_angle_beta 90.000000
_cell_angle_gamma 90.000000
_cell_volume 792.332133
_symmetry_space_group_name_H-M "P 42 2 2"
_symmetry_group_IT_number 93
_symmetry_cell_setting 'tetragonal'
loop_
_space_group_symop_operation_xyz
x,y,z
-y,x,1/2+z
-x,-y,z
y,-x,1/2+z
x,-y,-z
-x,y,-z
y,x,1/2-z
-y,-x,1/2-z
loop_
_atom_site_type_symbol
_atom_site_label
_atom_site_fract_x
_atom_site_fract_y
_atom_site_fract_z
Si Si1 0.768165 0.231836 0.750000
Si Si2 0.460787 0.705928 0.105596
Si Si3 0.295997 0.947693 0.397186
O O1 0.786373 0.415996 0.689752
O O2 0.932751 0.202849 0.818859
O O3 0.500000 0.500000 0.100628
O O4 0.256180 0.737318 0.130796
O O5 0.500000 0.789645 0.000000
O O6 0.500000 0.000000 0.399665
O O7 0.211956 0.000000 0.500000
#
# Coordination Sequence:
#
# PCOD8305595 Si02
#       3
#     4   8   8
#     4  12  23  38  74 111 152 209 252 322 399 450
#     4  11  20  38  68 111 151 202 265 322 384 468
#     4  11  21  38  66 114 155 202 265 322 383 468
#
# _framework density 25.241938000000001
#
# number of rings (size 3 to 8) (size 9 to 14) (size 15 to 20)
#    0.000    0.800    8.000    3.000    0.000    0.000 
#    0.000    0.000    0.000   13.200    0.000    2.800 
#    0.000    0.000    0.000    0.000    0.000    0.000 
#
# Total GULP energy -247999.251630 kJ/mol
# GULP energy per Si atom -12399.962581 kJ/mol
# Density = 2.518449 g / cm^3
# Si number density = 25.241938 Si / 1000 Ang^3
#
#
#
# Elastic Constant Matrix: (Units=GPa)
#
#
# Indices 1 2 3 4 5 6 
#
# 1 170.8316 35.6931 81.7404 0.0000 0.0000 0.0000
# 2 35.6931 170.8320 81.7401 0.0000 0.0000 0.0000
# 3 81.7404 81.7401 229.6813 0.0000 0.0000 0.0000
# 4 0.0000 0.0000 0.0000 45.6447 0.0000 0.0000
# 5 0.0000 0.0000 0.0000 0.0000 45.6446 0.0000
# 6 0.0000 0.0000 0.0000 0.0000 0.0000 10.2208
#
#
#
# Elastic Compliance Matrix: (Units=1/GPa)
#
#
# Indices 1 2 3 4 5 6 
#
# 1 0.007070 -0.000329 -0.002399 0.000000 0.000000 0.000000
# 2 -0.000329 0.007070 -0.002399 0.000000 0.000000 0.000000
# 3 -0.002399 -0.002399 0.006061 0.000000 0.000000 0.000000
# 4 0.000000 0.000000 0.000000 0.021908 0.000000 0.000000
# 5 0.000000 0.000000 0.000000 0.000000 0.021908 0.000000
# 6 0.000000 0.000000 0.000000 0.000000 0.000000 0.097839
#
#
# Mechanical properties :
#
#
# Convention : Reuss Voigt Hill
#
# Bulk Modulus (GPa) = 100.52907 107.74355 104.13631
# Shear Modulus (GPa) = 28.50154 45.11345 36.80750
#
# Velocity S-wave (km/s) = 3.36391 4.23216 3.82277
# Velocity P-wave (km/s) = 7.41623 8.16447 7.79933
#
# Compressibility (1/GPa) = 0.00994737
#
# Stress axis : x y z
#
# Youngs Moduli (GPa) = 141.43378 141.43438 164.97759
#
# Poissons Ratio (x) = 0.04658 0.39579
# Poissons Ratio (y) = 0.04658 0.39579
# Poissons Ratio (z) = 0.33931 0.33931
#
# Static dielectric constant tensor:
#      x y z
#    x 3.863120 0.000000 0.000000 
#    y 0.000000 3.863050 0.000000 
#    z 0.000000 0.000000 5.524950 
# 
# 
# High freq. dielectric constant tensor:
#      x y z
#    x 1.991300 0.000000 0.000000 
#    y 0.000000 1.991300 0.000000 
#    z 0.000000 0.000000 2.037350 
# 
# From -- ./inp_files/3638.got.cif
#   From: 2010.03.12/outbox.cif.g09.slc.cpg/sg93_2_cif.got.tgz:3638.got - 2010.04.08 20:44:19.
