data_PCOD8305214
_publ_section_title
;
Structure prediction by ZEFSAII (Michael W. Deem and Ramdas Pophale) SiO2 
 PCOD8305214
Probable space group: P 41 21 2
;
_chemical_formula_sum "Si O2"
_cell_formula_units_Z 64
_cell_length_a 11.925831
_cell_length_b 11.925831
_cell_length_c 24.511746
_cell_angle_alpha 90.000000
_cell_angle_beta 90.000000
_cell_angle_gamma 90.000000
_cell_volume 3486.193984
_symmetry_space_group_name_H-M "P 41 21 2"
_symmetry_group_IT_number 92
_symmetry_cell_setting 'tetragonal'
loop_
_space_group_symop_operation_xyz
x,y,z
1/2-y,1/2+x,1/4+z
-x,-y,1/2+z
1/2+y,1/2-x,3/4+z
1/2+x,1/2-y,3/4-z
1/2-x,1/2+y,1/4-z
y,x,-z
-y,-x,1/2-z
loop_
_atom_site_type_symbol
_atom_site_label
_atom_site_fract_x
_atom_site_fract_y
_atom_site_fract_z
Si Si1 0.826057 0.410958 0.212798
Si Si2 0.306609 0.405095 0.871723
Si Si3 0.280124 0.735681 0.458786
Si Si4 0.921851 0.355724 0.717985
Si Si5 0.919540 0.585471 0.678057
Si Si6 0.762695 0.531392 0.579845
Si Si7 0.178276 0.352351 0.688929
Si Si8 0.755053 0.360580 0.328642
O O1 0.764181 0.528747 0.201087
O O2 0.835258 0.398684 0.278735
O O3 0.739500 0.322498 0.189826
O O4 0.945552 0.400590 0.181600
O O5 0.275909 0.346248 0.815532
O O6 0.214708 0.372956 0.917552
O O7 0.422570 0.352174 0.893370
O O8 0.314330 0.537162 0.857421
O O9 0.207300 0.626899 0.444340
O O10 0.404812 0.728506 0.434561
O O11 0.273734 0.750470 0.524398
O O12 0.875586 0.484327 0.717599
O O13 0.898685 0.294041 0.775181
O O14 0.052693 0.370083 0.709027
O O15 0.872343 0.547881 0.618442
O O16 0.191963 0.332829 0.625065
#
# Coordination Sequence:
#
# PCOD8305214 Si02
#       8
#     8   8   8   8   8   8   8   8
#     4  10  21  38  56  83 113 148 197 239 281 338
#     4  10  18  35  57  80 110 146 191 230 286 347
#     4  10  19  35  55  83 115 144 186 234 289 342
#     4   9  18  32  56  81 106 146 189 225 274 335
#     4  10  21  34  58  83 114 149 187 239 280 342
#     4  10  20  34  57  83 114 147 182 238 288 340
#     4   9  19  33  57  80 103 147 194 229 271 344
#     4  10  21  37  59  80 110 153 192 240 291 338
#
# _framework density 18.358129000000002
#
# number of rings (size 3 to 8) (size 9 to 14) (size 15 to 20)
#    0.000    2.250    2.500    0.375    0.000    2.000 
#    2.250    0.000    5.500    0.000    0.000    0.000 
#    0.000    0.000    0.000    0.000    0.000    0.000 
#
# Total GULP energy -792837.963847 kJ/mol
# GULP energy per Si atom -12388.093185 kJ/mol
# Density = 1.831634 g / cm^3
# Si number density = 18.358129 Si / 1000 Ang^3
#
#
#
# Elastic Constant Matrix: (Units=GPa)
#
#
# Indices 1 2 3 4 5 6 
#
# 1 77.8821 37.0952 39.9133 0.0000 0.0000 0.0000
# 2 37.0952 77.8821 39.9133 0.0000 0.0000 0.0000
# 3 39.9133 39.9133 129.4844 0.0000 0.0000 0.0000
# 4 0.0000 0.0000 0.0000 22.4860 0.0000 0.0000
# 5 0.0000 0.0000 0.0000 0.0000 22.4860 0.0000
# 6 0.0000 0.0000 0.0000 0.0000 0.0000 15.0507
#
#
#
# Elastic Compliance Matrix: (Units=1/GPa)
#
#
# Indices 1 2 3 4 5 6 
#
# 1 0.017792 -0.006726 -0.003411 0.000000 0.000000 0.000000
# 2 -0.006726 0.017792 -0.003411 0.000000 0.000000 0.000000
# 3 -0.003411 -0.003411 0.009826 0.000000 0.000000 0.000000
# 4 0.000000 0.000000 0.000000 0.044472 0.000000 0.000000
# 5 0.000000 0.000000 0.000000 0.000000 0.044472 0.000000
# 6 0.000000 0.000000 0.000000 0.000000 0.000000 0.066442
#
#
# Mechanical properties :
#
#
# Convention : Reuss Voigt Hill
#
# Bulk Modulus (GPa) = 54.60575 57.67692 56.14133
# Shear Modulus (GPa) = 21.36795 23.22633 22.29714
#
# Velocity S-wave (km/s) = 3.41537 3.56080 3.48884
# Velocity P-wave (km/s) = 6.73516 6.95640 6.84667
#
# Compressibility (1/GPa) = 0.01831309
#
# Stress axis : x y z
#
# Youngs Moduli (GPa) = 56.20635 56.20635 101.77324
#
# Poissons Ratio (x) = 0.37805 0.34714
# Poissons Ratio (y) = 0.37805 0.34714
# Poissons Ratio (z) = 0.19172 0.19172
#
# Static dielectric constant tensor:
#      x y z
#    x 3.338510 0.000000 0.000000 
#    y 0.000000 3.338510 0.000000 
#    z 0.000000 0.000000 3.717840 
# 
# 
# High freq. dielectric constant tensor:
#      x y z
#    x 1.697660 0.000000 0.000000 
#    y 0.000000 1.697660 0.000000 
#    z 0.000000 0.000000 1.724060 
# 
# From -- ./inp_files/3973.got.cif
#   From: 2010.03.12/outbox.cif.g09.slc.cpg/sg92_2_cif.got.tgz:3973.got - 2010.04.08 20:41:11.
