data_PCOD8305033
_publ_section_title
;
Structure prediction by ZEFSAII (Michael W. Deem and Ramdas Pophale) SiO2 
 PCOD8305033
Probable space group: P 41 2 2
;
_chemical_formula_sum "Si O2"
_cell_formula_units_Z 40
_cell_length_a 11.849485
_cell_length_b 11.849485
_cell_length_c 13.705016
_cell_angle_alpha 90.000000
_cell_angle_beta 90.000000
_cell_angle_gamma 90.000000
_cell_volume 1924.325336
_symmetry_space_group_name_H-M "P 41 2 2"
_symmetry_group_IT_number 91
_symmetry_cell_setting 'tetragonal'
loop_
_space_group_symop_operation_xyz
x,y,z
-y,x,1/4+z
-x,-y,1/2+z
y,-x,3/4+z
x,-y,1/2-z
-x,y,-z
y,x,3/4-z
-y,-x,1/4-z
loop_
_atom_site_type_symbol
_atom_site_label
_atom_site_fract_x
_atom_site_fract_y
_atom_site_fract_z
Si Si1 0.293711 0.543994 0.443660
Si Si2 0.422341 0.500000 0.250000
Si Si3 0.207247 0.207285 0.669673
Si Si4 0.355394 0.876133 0.240497
Si Si5 0.140919 0.859082 0.125000
Si Si6 0.992678 0.850078 0.306262
O O1 0.335812 0.503950 0.338433
O O2 0.395358 0.507902 0.514551
O O3 0.255908 0.673305 0.455985
O O4 0.189229 0.468633 0.471770
O O5 0.164462 0.289709 0.585847
O O6 0.118294 0.212571 0.760772
O O7 0.222687 0.079683 0.624689
O O8 0.272583 0.875127 0.147344
O O9 0.402728 0.000000 0.250000
O O10 0.064379 0.897870 0.215633
O O11 0.951584 0.951584 0.375000
#
# Coordination Sequence:
#
# PCOD8305033 Si02
#       6
#     8   4   8   8   4   8
#     4  11  23  44  71 102 132 180 236 286 352 412
#     4  10  22  42  76  98 126 182 240 294 332 418
#     4  11  25  43  68 103 135 184 235 285 349 430
#     4  11  22  40  68  99 140 178 229 299 344 412
#     4  10  22  40  66  98 132 180 238 282 354 420
#     4  11  25  40  68  99 139 185 228 289 349 423
#
# _framework density 20.786507
#
# number of rings (size 3 to 8) (size 9 to 14) (size 15 to 20)
#    0.000    1.200    4.000    1.800    7.000    1.600 
#    3.600    2.000    4.400    0.000    0.000    0.000 
#    0.000    0.000    0.000    0.000    0.000    0.000 
#
# Total GULP energy -495557.439278 kJ/mol
# GULP energy per Si atom -12388.935982 kJ/mol
# Density = 2.073920 g / cm^3
# Si number density = 20.786507 Si / 1000 Ang^3
#
#
#
# Elastic Constant Matrix: (Units=GPa)
#
#
# Indices 1 2 3 4 5 6 
#
# 1 137.7276 90.0443 22.3628 0.0000 0.0000 0.0000
# 2 90.0443 137.7249 22.3608 0.0000 0.0000 0.0000
# 3 22.3628 22.3608 46.5347 0.0000 0.0000 0.0000
# 4 0.0000 0.0000 0.0000 30.9718 0.0000 0.0000
# 5 0.0000 0.0000 0.0000 0.0000 30.9721 0.0000
# 6 0.0000 0.0000 0.0000 0.0000 0.0000 129.8812
#
#
#
# Elastic Compliance Matrix: (Units=1/GPa)
#
#
# Indices 1 2 3 4 5 6 
#
# 1 0.012910 -0.008062 -0.002330 0.000000 0.000000 0.000000
# 2 -0.008062 0.012910 -0.002329 0.000000 0.000000 0.000000
# 3 -0.002330 -0.002329 0.023728 0.000000 0.000000 0.000000
# 4 0.000000 0.000000 0.000000 0.032287 0.000000 0.000000
# 5 0.000000 0.000000 0.000000 0.000000 0.032287 0.000000
# 6 0.000000 0.000000 0.000000 0.000000 0.000000 0.007699
#
#
# Mechanical properties :
#
#
# Convention : Reuss Voigt Hill
#
# Bulk Modulus (GPa) = 41.48417 65.72478 53.60447
# Shear Modulus (GPa) = 32.19572 50.84631 41.52102
#
# Velocity S-wave (km/s) = 3.93985 4.95119 4.47419
# Velocity P-wave (km/s) = 6.37943 8.02330 7.24812
#
# Compressibility (1/GPa) = 0.02410558
#
# Stress axis : x y z
#
# Youngs Moduli (GPa) = 77.45935 77.45891 42.14389
#
# Poissons Ratio (x) = 0.62449 0.09820
# Poissons Ratio (y) = 0.62450 0.09816
# Poissons Ratio (z) = 0.18048 0.18041
#
# Static dielectric constant tensor:
#      x y z
#    x 3.837970 0.000000 0.000000 
#    y 0.000000 3.837980 0.000000 
#    z 0.000000 0.000000 4.203750 
# 
# 
# High freq. dielectric constant tensor:
#      x y z
#    x 1.813480 0.000000 0.000000 
#    y 0.000000 1.813480 0.000000 
#    z 0.000000 0.000000 1.815930 
# 
# From -- ./inp_files/11383.got.cif
#   From: 2010.03.12/outbox.cif.g09.slc.cpg/sg91_6_cif.got.tgz:11383.got - 2010.04.08 20:27:58.
