data_PCOD8305704
_publ_section_title
;
Structure prediction by ZEFSAII (Michael W. Deem and Ramdas Pophale) SiO2 
 PCOD8305704
Probable space group: P 42 21 2
;
_chemical_formula_sum "Si O2"
_cell_formula_units_Z 48
_cell_length_a 14.733328
_cell_length_b 14.733328
_cell_length_c 11.444832
_cell_angle_alpha 90.000000
_cell_angle_beta 90.000000
_cell_angle_gamma 90.000000
_cell_volume 2484.340600
_symmetry_space_group_name_H-M "P 42 21 2"
_symmetry_group_IT_number 94
_symmetry_cell_setting 'tetragonal'
loop_
_space_group_symop_operation_xyz
x,y,z
1/2-y,1/2+x,1/2+z
-x,-y,z
1/2+y,1/2-x,1/2+z
1/2+x,1/2-y,1/2-z
1/2-x,1/2+y,1/2-z
y,x,-z
-y,-x,-z
loop_
_atom_site_type_symbol
_atom_site_label
_atom_site_fract_x
_atom_site_fract_y
_atom_site_fract_z
Si Si1 0.008363 0.645068 0.280499
Si Si2 0.095467 0.095467 0.500000
Si Si3 0.495919 0.141710 0.762074
Si Si4 0.244361 0.902915 0.917368
Si Si5 0.500000 0.500000 0.798073
Si Si6 0.065809 0.827849 0.848349
Si Si7 0.799928 0.419136 0.011875
O O1 0.095135 0.580000 0.308841
O O2 0.029236 0.714957 0.177178
O O3 0.921531 0.590242 0.239294
O O4 0.976303 0.698704 0.393483
O O5 0.029517 0.079887 0.388138
O O6 0.085330 0.196072 0.550933
O O7 0.472007 0.241388 0.719254
O O8 0.523610 0.143348 0.896202
O O9 0.176127 0.835003 0.848238
O O10 0.319339 0.845605 0.990786
O O11 0.186466 0.960854 0.013988
O O12 0.526688 0.582096 0.712382
#
# Coordination Sequence:
#
# PCOD8305704 Si02
#       7
#     8   4   8   8   4   8   8
#     4  10  22  38  63  99 126 166 211 269 323 391
#     4  11  22  38  60  94 118 163 222 266 318 379
#     4  10  22  37  63  92 129 164 208 266 326 381
#     4  10  23  38  65  89 128 170 213 251 329 391
#     4  11  24  39  64  86 126 169 219 266 316 376
#     4  11  21  43  59  91 126 171 213 262 317 393
#     4  11  21  39  63  93 124 164 211 266 322 386
#
# _framework density 19.321023
#
# number of rings (size 3 to 8) (size 9 to 14) (size 15 to 20)
#    0.000    1.500    3.333    2.000    2.333    2.667 
#    0.000    0.000    0.000    0.000    4.333    0.000 
#    0.000    0.000    0.000    0.000    0.000    0.000 
#
# Total GULP energy -594734.941849 kJ/mol
# GULP energy per Si atom -12390.311289 kJ/mol
# Density = 1.927705 g / cm^3
# Si number density = 19.321023 Si / 1000 Ang^3
#
#
#
# Elastic Constant Matrix: (Units=GPa)
#
#
# Indices 1 2 3 4 5 6 
#
# 1 107.2485 43.2182 53.9051 0.0000 0.0000 0.0000
# 2 43.2182 107.2485 53.9051 0.0000 0.0000 0.0000
# 3 53.9051 53.9051 99.2700 0.0000 0.0000 0.0000
# 4 0.0000 0.0000 0.0000 32.8786 0.0000 0.0000
# 5 0.0000 0.0000 0.0000 0.0000 32.8786 0.0000
# 6 0.0000 0.0000 0.0000 0.0000 0.0000 16.4636
#
#
#
# Elastic Compliance Matrix: (Units=1/GPa)
#
#
# Indices 1 2 3 4 5 6 
#
# 1 0.013248 -0.002370 -0.005907 0.000000 0.000000 0.000000
# 2 -0.002370 0.013248 -0.005907 0.000000 0.000000 0.000000
# 3 -0.005907 -0.005907 0.016489 0.000000 0.000000 0.000000
# 4 0.000000 0.000000 0.000000 0.030415 0.000000 0.000000
# 5 0.000000 0.000000 0.000000 0.000000 0.030415 0.000000
# 6 0.000000 0.000000 0.000000 0.000000 0.000000 0.060740
#
#
# Mechanical properties :
#
#
# Convention : Reuss Voigt Hill
#
# Bulk Modulus (GPa) = 68.41265 68.42487 68.41876
# Shear Modulus (GPa) = 25.27867 27.29341 26.28604
#
# Velocity S-wave (km/s) = 3.62104 3.76257 3.69248
# Velocity P-wave (km/s) = 7.27790 7.37343 7.32582
#
# Compressibility (1/GPa) = 0.01461718
#
# Stress axis : x y z
#
# Youngs Moduli (GPa) = 75.48265 75.48265 60.64672
#
# Poissons Ratio (x) = 0.17886 0.35825
# Poissons Ratio (y) = 0.17886 0.35825
# Poissons Ratio (z) = 0.44589 0.44589
#
# Static dielectric constant tensor:
#      x y z
#    x 3.676990 0.000000 0.000000 
#    y 0.000000 3.676990 0.000000 
#    z 0.000000 0.000000 3.632270 
# 
# 
# High freq. dielectric constant tensor:
#      x y z
#    x 1.752340 0.000000 0.000000 
#    y 0.000000 1.752340 0.000000 
#    z 0.000000 0.000000 1.755280 
# 
# From -- ./inp_files/2676.got.cif
#   From: 2010.03.12/outbox.cif.g09.slc.cpg/sg94_2_cif.got.tgz:2676.got - 2010.04.08 20:48:32.
