data_PCOD8305774
_publ_section_title
;
Structure prediction by ZEFSAII (Michael W. Deem and Ramdas Pophale) SiO2 
 PCOD8305774
Probable space group: P 42 21 2
;
_chemical_formula_sum "Si O2"
_cell_formula_units_Z 32
_cell_length_a 8.842264
_cell_length_b 8.842264
_cell_length_c 17.888825
_cell_angle_alpha 90.000000
_cell_angle_beta 90.000000
_cell_angle_gamma 90.000000
_cell_volume 1398.649100
_symmetry_space_group_name_H-M "P 42 21 2"
_symmetry_group_IT_number 94
_symmetry_cell_setting 'tetragonal'
loop_
_space_group_symop_operation_xyz
x,y,z
1/2-y,1/2+x,1/2+z
-x,-y,z
1/2+y,1/2-x,1/2+z
1/2+x,1/2-y,1/2-z
1/2-x,1/2+y,1/2-z
y,x,-z
-y,-x,-z
loop_
_atom_site_type_symbol
_atom_site_label
_atom_site_fract_x
_atom_site_fract_y
_atom_site_fract_z
Si Si1 0.526563 0.170539 0.439673
Si Si2 0.671440 0.679397 0.667539
Si Si3 0.127426 0.294780 0.894782
Si Si4 0.018665 0.169754 0.311114
O O1 0.387334 0.274658 0.412280
O O2 0.678544 0.234980 0.403064
O O3 0.538048 0.174777 0.528732
O O4 0.500000 0.000000 0.411188
O O5 0.498397 0.735295 0.663154
O O6 0.679684 0.548584 0.728649
O O7 0.787621 0.806422 0.694753
O O8 0.204908 0.447853 0.866376
O O9 0.000000 0.000000 0.344058
#
# Coordination Sequence:
#
# PCOD8305774 Si02
#       4
#     8   8   8   8
#     4  11  23  43  68  97 133 175 225 278 336 402
#     4  12  24  42  68  96 133 178 227 280 339 404
#     4  11  25  44  67  98 135 177 225 276 337 409
#     4  12  25  42  66  99 136 176 224 280 342 402
#
# _framework density 22.879218999999999
#
# number of rings (size 3 to 8) (size 9 to 14) (size 15 to 20)
#    0.000    0.500    0.000    9.750    0.000    4.000 
#    0.000    7.500    0.000    0.000    0.000    0.000 
#    0.000    0.000    0.000    0.000    0.000    0.000 
#
# Total GULP energy -397022.832985 kJ/mol
# GULP energy per Si atom -12406.963531 kJ/mol
# Density = 2.282714 g / cm^3
# Si number density = 22.879219 Si / 1000 Ang^3
#
#
#
# Elastic Constant Matrix: (Units=GPa)
#
#
# Indices 1 2 3 4 5 6 
#
# 1 119.8941 35.1634 41.5139 0.0000 0.0000 0.0000
# 2 35.1634 119.8941 41.5139 0.0000 0.0000 0.0000
# 3 41.5139 41.5139 111.2338 0.0000 0.0000 0.0000
# 4 0.0000 0.0000 0.0000 38.2305 0.0000 0.0000
# 5 0.0000 0.0000 0.0000 0.0000 38.2305 0.0000
# 6 0.0000 0.0000 0.0000 0.0000 0.0000 52.0664
#
#
#
# Elastic Compliance Matrix: (Units=1/GPa)
#
#
# Indices 1 2 3 4 5 6 
#
# 1 0.009931 -0.001871 -0.003008 0.000000 0.000000 0.000000
# 2 -0.001871 0.009931 -0.003008 0.000000 0.000000 0.000000
# 3 -0.003008 -0.003008 0.011235 0.000000 0.000000 0.000000
# 4 0.000000 0.000000 0.000000 0.026157 0.000000 0.000000
# 5 0.000000 0.000000 0.000000 0.000000 0.026157 0.000000
# 6 0.000000 0.000000 0.000000 0.000000 0.000000 0.019206
#
#
# Mechanical properties :
#
#
# Convention : Reuss Voigt Hill
#
# Bulk Modulus (GPa) = 65.26157 65.26717 65.26437
# Shear Modulus (GPa) = 40.48581 41.22752 40.85666
#
# Velocity S-wave (km/s) = 4.21116 4.24956 4.23040
# Velocity P-wave (km/s) = 7.22713 7.25721 7.24219
#
# Compressibility (1/GPa) = 0.01532295
#
# Stress axis : x y z
#
# Youngs Moduli (GPa) = 100.69458 100.69458 89.00458
#
# Poissons Ratio (x) = 0.18841 0.26773
# Poissons Ratio (y) = 0.18841 0.26773
# Poissons Ratio (z) = 0.30290 0.30290
#
# Static dielectric constant tensor:
#      x y z
#    x 4.215910 0.000000 0.000000 
#    y 0.000000 4.215910 0.000000 
#    z 0.000000 0.000000 3.958260 
# 
# 
# High freq. dielectric constant tensor:
#      x y z
#    x 1.915770 0.000000 0.000000 
#    y 0.000000 1.915770 0.000000 
#    z 0.000000 0.000000 1.899040 
# 
# From -- ./inp_files/4394.got.cif
#   From: 2010.03.12/outbox.cif.g09.slc.cpg/sg94_3_cif.got.tgz:4394.got - 2010.04.08 20:48:32.
