data_PCOD8305291
_publ_section_title
;
Structure prediction by ZEFSAII (Michael W. Deem and Ramdas Pophale) SiO2 
 PCOD8305291
Probable space group: P 41 21 2
;
_chemical_formula_sum "Si O2"
_cell_formula_units_Z 40
_cell_length_a 8.794025
_cell_length_b 8.794025
_cell_length_c 25.651041
_cell_angle_alpha 90.000000
_cell_angle_beta 90.000000
_cell_angle_gamma 90.000000
_cell_volume 1983.720067
_symmetry_space_group_name_H-M "P 41 21 2"
_symmetry_group_IT_number 92
_symmetry_cell_setting 'tetragonal'
loop_
_space_group_symop_operation_xyz
x,y,z
1/2-y,1/2+x,1/4+z
-x,-y,1/2+z
1/2+y,1/2-x,3/4+z
1/2+x,1/2-y,3/4-z
1/2-x,1/2+y,1/4-z
y,x,-z
-y,-x,1/2-z
loop_
_atom_site_type_symbol
_atom_site_label
_atom_site_fract_x
_atom_site_fract_y
_atom_site_fract_z
Si Si1 0.536854 0.855388 0.815447
Si Si2 0.069415 0.985391 0.119680
Si Si3 0.145078 0.669555 0.148118
Si Si4 0.727842 0.978385 0.949951
Si Si5 0.699068 0.681274 0.902016
O O1 0.531701 0.779659 0.758825
O O2 0.665318 0.762255 0.846727
O O3 0.375540 0.865340 0.845363
O O4 0.596154 0.028777 0.810407
O O5 0.150073 0.853832 0.154623
O O6 0.190826 0.097085 0.092921
O O7 0.974778 0.903541 0.072434
O O8 0.962133 0.086438 0.157237
O O9 0.088156 0.631880 0.088616
O O10 0.664653 0.805200 0.947355
#
# Coordination Sequence:
#
# PCOD8305291 Si02
#       5
#     8   8   8   8   8
#     4  11  20  41  59  96 125 171 217 265 319 392
#     4  10  20  41  62  92 123 170 206 272 326 376
#     4   9  21  40  61  89 130 163 209 274 326 374
#     4   9  22  38  62  89 126 168 221 249 325 390
#     4  11  20  36  66  87 127 169 214 270 312 382
#
# _framework density 20.164134000000001
#
# number of rings (size 3 to 8) (size 9 to 14) (size 15 to 20)
#    1.200    0.800    2.000    1.800    0.000    0.000 
#   10.800    5.000    4.400    0.000    0.000    0.000 
#    0.000    0.000    0.000    0.000    0.000    0.000 
#
# Total GULP energy -495587.697103 kJ/mol
# GULP energy per Si atom -12389.692428 kJ/mol
# Density = 2.011824 g / cm^3
# Si number density = 20.164134 Si / 1000 Ang^3
#
#
#
# Elastic Constant Matrix: (Units=GPa)
#
#
# Indices 1 2 3 4 5 6 
#
# 1 91.8108 34.5757 5.8568 0.0000 0.0000 0.0000
# 2 34.5757 91.8108 5.8568 0.0000 0.0000 0.0000
# 3 5.8568 5.8568 62.0158 0.0000 0.0000 0.0000
# 4 0.0000 0.0000 0.0000 18.0638 0.0000 0.0000
# 5 0.0000 0.0000 0.0000 0.0000 18.0638 0.0000
# 6 0.0000 0.0000 0.0000 0.0000 0.0000 46.6325
#
#
#
# Elastic Compliance Matrix: (Units=1/GPa)
#
#
# Indices 1 2 3 4 5 6 
#
# 1 0.012727 -0.004745 -0.000754 0.000000 0.000000 0.000000
# 2 -0.004745 0.012727 -0.000754 0.000000 0.000000 0.000000
# 3 -0.000754 -0.000754 0.016267 0.000000 0.000000 0.000000
# 4 0.000000 0.000000 0.000000 0.055359 0.000000 0.000000
# 5 0.000000 0.000000 0.000000 0.000000 0.055359 0.000000
# 6 0.000000 0.000000 0.000000 0.000000 0.000000 0.021444
#
#
# Mechanical properties :
#
#
# Convention : Reuss Voigt Hill
#
# Bulk Modulus (GPa) = 34.22760 37.57955 35.90358
# Shear Modulus (GPa) = 25.49356 29.84190 27.66773
#
# Velocity S-wave (km/s) = 3.55956 3.85118 3.70824
# Velocity P-wave (km/s) = 5.82283 6.20103 6.01490
#
# Compressibility (1/GPa) = 0.02921618
#
# Stress axis : x y z
#
# Youngs Moduli (GPa) = 78.57348 78.57348 61.47296
#
# Poissons Ratio (x) = 0.37282 0.04634
# Poissons Ratio (y) = 0.37282 0.04634
# Poissons Ratio (z) = 0.05923 0.05923
#
# Static dielectric constant tensor:
#      x y z
#    x 3.692910 0.000000 0.000000 
#    y 0.000000 3.692910 0.000000 
#    z 0.000000 0.000000 3.193910 
# 
# 
# High freq. dielectric constant tensor:
#      x y z
#    x 1.790810 0.000000 0.000000 
#    y 0.000000 1.790810 0.000000 
#    z 0.000000 0.000000 1.743080 
# 
# From -- ./inp_files/4152.got.cif
#   From: 2010.03.12/outbox.cif.g09.slc.cpg/sg92_3_cif.got.tgz:4152.got - 2010.04.08 20:41:11.
