data_PCOD8305516
_publ_section_title
;
Structure prediction by ZEFSAII (Michael W. Deem and Ramdas Pophale) SiO2 
 PCOD8305516
Probable space group: P 42 2 2
;
_chemical_formula_sum "Si O2"
_cell_formula_units_Z 48
_cell_length_a 18.993229
_cell_length_b 18.993229
_cell_length_c 8.924013
_cell_angle_alpha 90.000000
_cell_angle_beta 90.000000
_cell_angle_gamma 90.000000
_cell_volume 3219.272971
_symmetry_space_group_name_H-M "P 42 2 2"
_symmetry_group_IT_number 93
_symmetry_cell_setting 'tetragonal'
loop_
_space_group_symop_operation_xyz
x,y,z
-y,x,1/2+z
-x,-y,z
y,-x,1/2+z
x,-y,-z
-x,y,-z
y,x,1/2-z
-y,-x,1/2-z
loop_
_atom_site_type_symbol
_atom_site_label
_atom_site_fract_x
_atom_site_fract_y
_atom_site_fract_z
Si Si1 0.912901 0.633678 0.166631
Si Si2 0.495730 0.916078 0.168675
Si Si3 0.986395 0.115355 0.673385
Si Si4 0.211905 0.885143 0.180728
Si Si5 0.642558 0.920993 0.667908
Si Si6 0.871007 0.227017 0.671620
O O1 0.884909 0.560008 0.233390
O O2 0.885308 0.694282 0.275675
O O3 0.996311 0.632148 0.159613
O O4 0.885476 0.644419 0.996869
O O5 0.422939 0.888552 0.240623
O O6 0.500000 0.000000 0.166857
O O7 0.500000 0.886416 0.000000
O O8 0.958065 0.041936 0.750000
O O9 0.932479 0.175354 0.723981
O O10 0.000000 0.099339 0.500000
O O11 0.059703 0.149853 0.728533
O O12 0.189357 0.810644 0.250000
O O13 0.285552 0.907679 0.247300
O O14 0.222862 0.871703 0.006362
O O15 0.798657 0.201344 0.750000
#
# Coordination Sequence:
#
# PCOD8305516 Si02
#       6
#     8   8   8   8   8   8
#     4  10  18  30  47  64  87 110 135 174 214 257
#     4   9  17  28  45  67  86 109 134 166 209 255
#     4   9  19  35  50  62  77 103 138 185 230 272
#     4  11  21  33  47  63  83 110 143 180 223 268
#     4  10  19  30  45  66  87 108 137 173 214 260
#     4  10  19  33  48  64  83 109 142 176 221 266
#
# _framework density 14.910199
#
# number of rings (size 3 to 8) (size 9 to 14) (size 15 to 20)
#    0.000    2.167    1.667    2.500    0.000    3.667 
#    0.000    2.500    0.000    0.000    0.000    0.000 
#    0.000    0.000    0.000    0.000    0.000    0.833 
#
# Total GULP energy -594723.405707 kJ/mol
# GULP energy per Si atom -12390.070952 kJ/mol
# Density = 1.487626 g / cm^3
# Si number density = 14.910199 Si / 1000 Ang^3
#
#
#
# Elastic Constant Matrix: (Units=GPa)
#
#
# Indices 1 2 3 4 5 6 
#
# 1 444.3289 -345.6753 41.9591 0.0000 0.0000 0.0000
# 2 -345.6753 444.2754 41.9629 0.0000 0.0000 0.0000
# 3 41.9591 41.9629 98.1786 0.0000 0.0000 0.0000
# 4 0.0000 0.0000 0.0000 20.6545 0.0000 0.0000
# 5 0.0000 0.0000 0.0000 0.0000 20.6534 0.0000
# 6 0.0000 0.0000 0.0000 0.0000 0.0000 8.8720
#
#
#
# Elastic Compliance Matrix: (Units=1/GPa)
#
#
# Indices 1 2 3 4 5 6 
#
# 1 0.008599 0.007334 -0.006810 0.000000 0.000000 0.000000
# 2 0.007334 0.008600 -0.006810 0.000000 0.000000 0.000000
# 3 -0.006810 -0.006810 0.016007 0.000000 0.000000 0.000000
# 4 0.000000 0.000000 0.000000 0.048415 0.000000 0.000000
# 5 0.000000 0.000000 0.000000 0.000000 0.048418 0.000000
# 6 0.000000 0.000000 0.000000 0.000000 0.000000 0.112715
#
#
# Mechanical properties :
#
#
# Convention : Reuss Voigt Hill
#
# Bulk Modulus (GPa) = 48.46303 51.47513 49.96908
# Shear Modulus (GPa) = 19.06903 93.27172 56.17038
#
# Velocity S-wave (km/s) = 3.58009 7.91779 6.14445
# Velocity P-wave (km/s) = 7.04721 10.87138 9.16106
#
# Compressibility (1/GPa) = 0.02063429
#
# Stress axis : x y z
#
# Youngs Moduli (GPa) = 116.28801 116.27251 62.47383
#
# Poissons Ratio (x) = -0.85275 0.42544
# Poissons Ratio (y) = -0.85286 0.42547
# Poissons Ratio (z) = 0.79190 0.79186
#
# Static dielectric constant tensor:
#      x y z
#    x 2.748710 0.000000 0.000000 
#    y 0.000000 2.748710 0.000000 
#    z 0.000000 0.000000 3.090100 
# 
# 
# High freq. dielectric constant tensor:
#      x y z
#    x 1.539280 0.000000 0.000000 
#    y 0.000000 1.539280 0.000000 
#    z 0.000000 0.000000 1.590870 
# 
# From -- ./inp_files/2071.got.cif
#   From: 2010.03.12/outbox.cif.g09.slc.cpg/sg93_2_cif.got.tgz:2071.got - 2010.04.08 20:44:19.
