data_PCOD8305671
_publ_section_title
;
Structure prediction by ZEFSAII (Michael W. Deem and Ramdas Pophale) SiO2 
 PCOD8305671
Probable space group: P 42 21 2
;
_chemical_formula_sum "Si O2"
_cell_formula_units_Z 32
_cell_length_a 9.094979
_cell_length_b 9.094979
_cell_length_c 17.576071
_cell_angle_alpha 90.000000
_cell_angle_beta 90.000000
_cell_angle_gamma 90.000000
_cell_volume 1453.868743
_symmetry_space_group_name_H-M "P 42 21 2"
_symmetry_group_IT_number 94
_symmetry_cell_setting 'tetragonal'
loop_
_space_group_symop_operation_xyz
x,y,z
1/2-y,1/2+x,1/2+z
-x,-y,z
1/2+y,1/2-x,1/2+z
1/2+x,1/2-y,1/2-z
1/2-x,1/2+y,1/2-z
y,x,-z
-y,-x,-z
loop_
_atom_site_type_symbol
_atom_site_label
_atom_site_fract_x
_atom_site_fract_y
_atom_site_fract_z
Si Si1 0.231964 0.180815 0.681239
Si Si2 0.100968 0.704327 0.406265
Si Si3 0.483985 0.712241 0.948071
Si Si4 0.161513 0.023487 0.175661
O O1 0.136626 0.260454 0.614245
O O2 0.364412 0.286277 0.704692
O O3 0.131612 0.151564 0.753362
O O4 0.306049 0.027693 0.655768
O O5 0.230104 0.589202 0.388220
O O6 0.037083 0.663504 0.490931
O O7 0.157104 0.872169 0.403526
O O8 0.416372 0.583629 0.000000
O O9 0.000000 0.000000 0.139609
#
# Coordination Sequence:
#
# PCOD8305671 Si02
#       4
#     8   8   8   8
#     4  11  21  40  66  89 121 166 213 257 311 374
#     4  10  20  40  66  90 122 165 208 255 312 376
#     4   9  18  39  69  90 112 161 219 259 302 370
#     4  12  25  39  60  95 131 162 206 262 316 370
#
# _framework density 22.010238999999999
#
# number of rings (size 3 to 8) (size 9 to 14) (size 15 to 20)
#    0.000    1.500    0.000   10.500    0.000    0.000 
#    0.000   28.750    0.000    0.000    0.000    0.000 
#    0.000    0.000    0.000    0.000    0.000    0.000 
#
# Total GULP energy -396549.508730 kJ/mol
# GULP energy per Si atom -12392.172148 kJ/mol
# Density = 2.196014 g / cm^3
# Si number density = 22.010239 Si / 1000 Ang^3
#
#
#
# Elastic Constant Matrix: (Units=GPa)
#
#
# Indices 1 2 3 4 5 6 
#
# 1 100.2510 69.1173 34.3928 0.0000 0.0000 0.0000
# 2 69.1173 100.2521 34.3931 0.0000 0.0000 0.0000
# 3 34.3928 34.3931 75.1497 0.0000 0.0000 0.0000
# 4 0.0000 0.0000 0.0000 26.5269 0.0000 0.0000
# 5 0.0000 0.0000 0.0000 0.0000 26.5269 0.0000
# 6 0.0000 0.0000 0.0000 0.0000 0.0000 28.7453
#
#
#
# Elastic Compliance Matrix: (Units=1/GPa)
#
#
# Indices 1 2 3 4 5 6 
#
# 1 0.019686 -0.012433 -0.003319 0.000000 0.000000 0.000000
# 2 -0.012433 0.019685 -0.003319 0.000000 0.000000 0.000000
# 3 -0.003319 -0.003319 0.016345 0.000000 0.000000 0.000000
# 4 0.000000 0.000000 0.000000 0.037698 0.000000 0.000000
# 5 0.000000 0.000000 0.000000 0.000000 0.037698 0.000000
# 6 0.000000 0.000000 0.000000 0.000000 0.000000 0.034788
#
#
# Mechanical properties :
#
#
# Convention : Reuss Voigt Hill
#
# Bulk Modulus (GPa) = 56.90537 61.27324 59.08931
# Shear Modulus (GPa) = 23.82087 25.54313 24.68200
#
# Velocity S-wave (km/s) = 3.29335 3.41032 3.35234
# Velocity P-wave (km/s) = 6.35387 6.58833 6.47216
#
# Compressibility (1/GPa) = 0.01757303
#
# Stress axis : x y z
#
# Youngs Moduli (GPa) = 50.79835 50.79887 61.18167
#
# Poissons Ratio (x) = 0.63160 0.20306
# Poissons Ratio (y) = 0.63159 0.20307
# Poissons Ratio (z) = 0.16860 0.16861
#
# Static dielectric constant tensor:
#      x y z
#    x 4.055650 0.000000 0.000000 
#    y 0.000000 4.055640 0.000000 
#    z 0.000000 0.000000 4.231010 
# 
# 
# High freq. dielectric constant tensor:
#      x y z
#    x 1.860230 0.000000 0.000000 
#    y 0.000000 1.860230 0.000000 
#    z 0.000000 0.000000 1.859520 
# 
# From -- ./inp_files/4401.got.cif
#   From: 2010.03.12/outbox.cif.g09.slc.cpg/sg94_3_cif.got.tgz:4401.got - 2010.04.08 20:48:32.
