data_PCOD8305910
_publ_section_title
;
Structure prediction by ZEFSAII (Michael W. Deem and Ramdas Pophale) SiO2 
 PCOD8305910
Probable space group: P 43 21 2
;
_chemical_formula_sum "Si O2"
_cell_formula_units_Z 56
_cell_length_a 10.728101
_cell_length_b 10.728101
_cell_length_c 22.505205
_cell_angle_alpha 90.000000
_cell_angle_beta 90.000000
_cell_angle_gamma 90.000000
_cell_volume 2590.172454
_symmetry_space_group_name_H-M "P 43 21 2"
_symmetry_group_IT_number 96
_symmetry_cell_setting 'tetragonal'
loop_
_space_group_symop_operation_xyz
x,y,z
1/2-y,1/2+x,3/4+z
-x,-y,1/2+z
1/2+y,1/2-x,1/4+z
1/2+x,1/2-y,1/4-z
1/2-x,1/2+y,3/4-z
y,x,-z
-y,-x,1/2-z
loop_
_atom_site_type_symbol
_atom_site_label
_atom_site_fract_x
_atom_site_fract_y
_atom_site_fract_z
Si Si1 0.881630 0.408937 0.027962
Si Si2 0.791036 0.927466 0.831105
Si Si3 0.982028 0.809750 0.469421
Si Si4 0.053544 0.381700 0.256933
Si Si5 0.727181 0.655301 0.837590
Si Si6 0.651625 0.557095 0.562447
Si Si7 0.880083 0.319313 0.155445
O O1 0.858029 0.405486 0.098097
O O2 0.973853 0.522699 0.014815
O O3 0.759250 0.429170 0.987161
O O4 0.943869 0.276655 0.014967
O O5 0.752275 0.795850 0.862218
O O6 0.940792 0.933780 0.831707
O O7 0.733613 0.046385 0.866008
O O8 0.934657 0.934657 0.500000
O O9 0.862686 0.733014 0.447048
O O10 0.078969 0.856380 0.419927
O O11 0.199430 0.363140 0.274129
O O12 0.980562 0.296784 0.305647
O O13 0.013671 0.342655 0.189337
O O14 0.604883 0.604883 0.500000
O O15 0.636238 0.671893 0.608707
#
# Coordination Sequence:
#
# PCOD8305910 Si02
#       7
#     8   8   8   8   8   8   8
#     4  10  22  38  65  96 125 173 222 270 336 402
#     4  10  23  44  63  97 138 179 226 278 344 416
#     4  10  22  42  61  96 129 163 223 282 334 398
#     4   9  20  40  62  91 124 170 220 261 334 405
#     4  10  23  43  66  89 144 179 221 283 331 424
#     4   9  19  40  61  93 127 162 220 281 333 395
#     4  10  20  39  70  93 126 172 220 286 335 391
#
# _framework density 21.620183000000001
#
# number of rings (size 3 to 8) (size 9 to 14) (size 15 to 20)
#    0.000    2.286    0.000    2.143    8.000    1.143 
#   20.571    0.000    0.000    0.000    0.000    0.000 
#    0.000    0.000    0.000    0.000    0.000    0.000 
#
# Total GULP energy -693892.377152 kJ/mol
# GULP energy per Si atom -12390.935306 kJ/mol
# Density = 2.157097 g / cm^3
# Si number density = 21.620183 Si / 1000 Ang^3
#
#
#
# Elastic Constant Matrix: (Units=GPa)
#
#
# Indices 1 2 3 4 5 6 
#
# 1 103.2095 26.2875 20.0999 0.0000 0.0000 0.0000
# 2 26.2875 103.2095 20.0999 0.0000 0.0000 0.0000
# 3 20.0999 20.0999 73.9736 0.0000 0.0000 0.0000
# 4 0.0000 0.0000 0.0000 19.8390 0.0000 0.0000
# 5 0.0000 0.0000 0.0000 0.0000 19.8390 0.0000
# 6 0.0000 0.0000 0.0000 0.0000 0.0000 22.7762
#
#
#
# Elastic Compliance Matrix: (Units=1/GPa)
#
#
# Indices 1 2 3 4 5 6 
#
# 1 0.010717 -0.002283 -0.002292 0.000000 0.000000 0.000000
# 2 -0.002283 0.010717 -0.002292 0.000000 0.000000 0.000000
# 3 -0.002292 -0.002292 0.014764 0.000000 0.000000 0.000000
# 4 0.000000 0.000000 0.000000 0.050406 0.000000 0.000000
# 5 0.000000 0.000000 0.000000 0.000000 0.050406 0.000000
# 6 0.000000 0.000000 0.000000 0.000000 0.000000 0.043905
#
#
# Mechanical properties :
#
#
# Convention : Reuss Voigt Hill
#
# Bulk Modulus (GPa) = 44.51452 45.92968 45.22210
# Shear Modulus (GPa) = 24.73589 26.75119 25.74354
#
# Velocity S-wave (km/s) = 3.38614 3.52138 3.45442
# Velocity P-wave (km/s) = 5.99349 6.15008 6.07229
#
# Compressibility (1/GPa) = 0.02246458
#
# Stress axis : x y z
#
# Youngs Moduli (GPa) = 93.31093 93.31093 67.73398
#
# Poissons Ratio (x) = 0.21306 0.15522
# Poissons Ratio (y) = 0.21306 0.15522
# Poissons Ratio (z) = 0.21383 0.21383
#
# Static dielectric constant tensor:
#      x y z
#    x 4.030100 0.000000 0.000000 
#    y 0.000000 4.030100 0.000000 
#    z 0.000000 0.000000 3.579020 
# 
# 
# High freq. dielectric constant tensor:
#      x y z
#    x 1.851460 0.000000 0.000000 
#    y 0.000000 1.851460 0.000000 
#    z 0.000000 0.000000 1.813190 
# 
# From -- ./inp_files/3941.got.cif
#   From: 2010.03.12/outbox.cif.g09.slc.cpg/sg96_2_cif.got.tgz:3941.got - 2010.04.08 20:56:49.
