data_PCOD8305075
_publ_section_title
;
Structure prediction by ZEFSAII (Michael W. Deem and Ramdas Pophale) SiO2 
 PCOD8305075
Probable space group: P 41 2 2
;
_chemical_formula_sum "Si O2"
_cell_formula_units_Z 64
_cell_length_a 11.706309
_cell_length_b 11.706309
_cell_length_c 22.918334
_cell_angle_alpha 90.000000
_cell_angle_beta 90.000000
_cell_angle_gamma 90.000000
_cell_volume 3140.675101
_symmetry_space_group_name_H-M "P 41 2 2"
_symmetry_group_IT_number 91
_symmetry_cell_setting 'tetragonal'
loop_
_space_group_symop_operation_xyz
x,y,z
-y,x,1/4+z
-x,-y,1/2+z
y,-x,3/4+z
x,-y,1/2-z
-x,y,-z
y,x,3/4-z
-y,-x,1/4-z
loop_
_atom_site_type_symbol
_atom_site_label
_atom_site_fract_x
_atom_site_fract_y
_atom_site_fract_z
Si Si1 0.589289 0.263432 0.081504
Si Si2 0.932437 0.613846 0.416764
Si Si3 0.243123 0.057475 0.108482
Si Si4 0.837247 0.017377 0.388027
Si Si5 0.865429 0.079332 0.508155
Si Si6 0.735225 0.343664 0.296460
Si Si7 0.704649 0.834196 0.824559
Si Si8 0.163526 0.547762 0.457707
O O1 0.650451 0.349550 0.125000
O O2 0.573562 0.140861 0.111915
O O3 0.466379 0.314015 0.065190
O O4 0.664948 0.248786 0.023422
O O5 0.865658 0.587354 0.476558
O O6 0.964196 0.747700 0.407949
O O7 0.052244 0.548595 0.416710
O O8 0.154092 0.144012 0.138042
O O9 0.332595 0.140221 0.076229
O O10 0.164326 0.985969 0.066134
O O11 0.302106 0.966824 0.152616
O O12 0.800361 0.010092 0.456199
O O13 0.955314 0.955314 0.375000
O O14 0.827712 0.211066 0.518710
O O15 0.000000 0.072452 0.500000
O O16 0.639331 0.253766 0.317148
O O17 0.746757 0.746757 0.875000
O O18 0.582237 0.792004 0.798919
#
# Coordination Sequence:
#
# PCOD8305075 Si02
#       8
#     8   8   8   8   8   8   8   8
#     4  11  23  44  64  87 124 166 208 258 318 375
#     4  11  24  38  61  95 127 166 199 261 318 376
#     4  11  21  39  57  93 126 165 208 254 317 383
#     4  12  22  33  57  92 135 165 199 250 314 385
#     4  11  21  34  58  89 125 170 205 246 310 386
#     4  11  24  41  64  91 122 162 212 259 314 381
#     4  10  23  43  64  89 126 167 215 268 317 373
#     4  11  24  41  64  95 121 162 220 263 320 373
#
# _framework density 20.377783000000001
#
# number of rings (size 3 to 8) (size 9 to 14) (size 15 to 20)
#    0.000    1.000    5.000    2.250    3.500    1.500 
#    0.000    0.000    0.000    0.000    0.000    0.000 
#    0.000    0.000    0.000    0.000    0.000    0.000 
#
# Total GULP energy -793058.670141 kJ/mol
# GULP energy per Si atom -12391.541721 kJ/mol
# Density = 2.033140 g / cm^3
# Si number density = 20.377783 Si / 1000 Ang^3
#
#
#
# Elastic Constant Matrix: (Units=GPa)
#
#
# Indices 1 2 3 4 5 6 
#
# 1 92.7192 35.4191 33.2330 0.0000 0.0000 0.0000
# 2 35.4191 92.7195 33.2332 0.0000 0.0000 0.0000
# 3 33.2330 33.2332 93.7374 0.0000 0.0000 0.0000
# 4 0.0000 0.0000 0.0000 21.6750 0.0000 0.0000
# 5 0.0000 0.0000 0.0000 0.0000 21.6749 0.0000
# 6 0.0000 0.0000 0.0000 0.0000 0.0000 18.1909
#
#
#
# Elastic Compliance Matrix: (Units=1/GPa)
#
#
# Indices 1 2 3 4 5 6 
#
# 1 0.013507 -0.003945 -0.003390 0.000000 0.000000 0.000000
# 2 -0.003945 0.013507 -0.003390 0.000000 0.000000 0.000000
# 3 -0.003390 -0.003390 0.013072 0.000000 0.000000 0.000000
# 4 0.000000 0.000000 0.000000 0.046136 0.000000 0.000000
# 5 0.000000 0.000000 0.000000 0.000000 0.046136 0.000000
# 6 0.000000 0.000000 0.000000 0.000000 0.000000 0.054972
#
#
# Mechanical properties :
#
#
# Convention : Reuss Voigt Hill
#
# Bulk Modulus (GPa) = 53.65907 53.66073 53.65990
# Shear Modulus (GPa) = 23.25646 24.12754 23.69200
#
# Velocity S-wave (km/s) = 3.38193 3.44468 3.41345
# Velocity P-wave (km/s) = 6.45285 6.49702 6.47497
#
# Compressibility (1/GPa) = 0.01863618
#
# Stress axis : x y z
#
# Youngs Moduli (GPa) = 74.03413 74.03423 76.49917
#
# Poissons Ratio (x) = 0.29204 0.25935
# Poissons Ratio (y) = 0.29204 0.25935
# Poissons Ratio (z) = 0.25099 0.25100
#
# Static dielectric constant tensor:
#      x y z
#    x 3.593210 0.000000 0.000000 
#    y 0.000000 3.593210 0.000000 
#    z 0.000000 0.000000 3.915010 
# 
# 
# High freq. dielectric constant tensor:
#      x y z
#    x 1.787670 0.000000 0.000000 
#    y 0.000000 1.787670 0.000000 
#    z 0.000000 0.000000 1.800410 
# 
# From -- ./inp_files/21866.got.cif
#   From: 2010.03.12/outbox.cif.g09.slc.cpg/sg91_11_cif.got.tgz:21866.got - 2010.04.08 20:27:58.
