data_PCOD8305323
_publ_section_title
;
Structure prediction by ZEFSAII (Michael W. Deem and Ramdas Pophale) SiO2 
 PCOD8305323
Probable space group: P 41 21 2
;
_chemical_formula_sum "Si O2"
_cell_formula_units_Z 40
_cell_length_a 8.355908
_cell_length_b 8.355908
_cell_length_c 25.715088
_cell_angle_alpha 90.000000
_cell_angle_beta 90.000000
_cell_angle_gamma 90.000000
_cell_volume 1795.458264
_symmetry_space_group_name_H-M "P 41 21 2"
_symmetry_group_IT_number 92
_symmetry_cell_setting 'tetragonal'
loop_
_space_group_symop_operation_xyz
x,y,z
1/2-y,1/2+x,1/4+z
-x,-y,1/2+z
1/2+y,1/2-x,3/4+z
1/2+x,1/2-y,3/4-z
1/2-x,1/2+y,1/4-z
y,x,-z
-y,-x,1/2-z
loop_
_atom_site_type_symbol
_atom_site_label
_atom_site_fract_x
_atom_site_fract_y
_atom_site_fract_z
Si Si1 0.274446 0.973338 0.267139
Si Si2 0.419047 0.548274 0.605752
Si Si3 0.920341 0.554767 0.666726
Si Si4 0.631272 0.256225 0.911663
Si Si5 0.257189 0.762166 0.813077
O O1 0.280215 0.098802 0.221133
O O2 0.186671 0.067659 0.312947
O O3 0.454063 0.916789 0.280012
O O4 0.186311 0.813690 0.250000
O O5 0.585722 0.454400 0.610942
O O6 0.280589 0.423730 0.585732
O O7 0.379548 0.638475 0.660349
O O8 0.773528 0.677462 0.658789
O O9 0.899368 0.422980 0.620951
O O10 0.082802 0.651238 0.666018
O O11 0.254817 0.745184 0.750000
#
# Coordination Sequence:
#
# PCOD8305323 Si02
#       5
#     8   8   8   8   8
#     4  10  21  40  64  91 128 169 213 272 333 394
#     4  10  21  41  66  97 132 173 220 269 328 397
#     4  11  23  40  65  91 125 169 213 272 332 401
#     4  10  22  40  62  92 127 165 218 269 329 404
#     4  11  24  43  66  97 136 178 225 276 336 402
#
# _framework density 22.278437
#
# number of rings (size 3 to 8) (size 9 to 14) (size 15 to 20)
#    0.000    1.600    0.000    6.600    0.000    6.400 
#    0.000    9.000    0.000    0.000    0.000    0.000 
#    0.000    0.000    0.000    0.000    0.000    0.000 
#
# Total GULP energy -495691.586869 kJ/mol
# GULP energy per Si atom -12392.289672 kJ/mol
# Density = 2.222773 g / cm^3
# Si number density = 22.278437 Si / 1000 Ang^3
#
#
#
# Elastic Constant Matrix: (Units=GPa)
#
#
# Indices 1 2 3 4 5 6 
#
# 1 97.0966 44.5314 52.7427 0.0000 0.0000 0.0000
# 2 44.5314 97.0976 52.7417 0.0000 0.0000 0.0000
# 3 52.7427 52.7417 111.2979 0.0000 0.0000 0.0000
# 4 0.0000 0.0000 0.0000 25.3497 0.0000 0.0000
# 5 0.0000 0.0000 0.0000 0.0000 25.3503 0.0000
# 6 0.0000 0.0000 0.0000 0.0000 0.0000 27.3756
#
#
#
# Elastic Compliance Matrix: (Units=1/GPa)
#
#
# Indices 1 2 3 4 5 6 
#
# 1 0.014968 -0.004056 -0.005171 0.000000 0.000000 0.000000
# 2 -0.004056 0.014968 -0.005171 0.000000 0.000000 0.000000
# 3 -0.005171 -0.005171 0.013886 0.000000 0.000000 0.000000
# 4 0.000000 0.000000 0.000000 0.039448 0.000000 0.000000
# 5 0.000000 0.000000 0.000000 0.000000 0.039447 0.000000
# 6 0.000000 0.000000 0.000000 0.000000 0.000000 0.036529
#
#
# Mechanical properties :
#
#
# Convention : Reuss Voigt Hill
#
# Bulk Modulus (GPa) = 66.55209 67.28040 66.91625
# Shear Modulus (GPa) = 25.89991 25.98018 25.94004
#
# Velocity S-wave (km/s) = 3.41332 3.41861 3.41597
# Velocity P-wave (km/s) = 6.74330 6.77111 6.75722
#
# Compressibility (1/GPa) = 0.01502582
#
# Stress axis : x y z
#
# Youngs Moduli (GPa) = 66.80841 66.81019 72.01572
#
# Poissons Ratio (x) = 0.27097 0.37241
# Poissons Ratio (y) = 0.27097 0.37239
# Poissons Ratio (z) = 0.34548 0.34547
#
# Static dielectric constant tensor:
#      x y z
#    x 4.255850 0.000000 0.000000 
#    y 0.000000 4.255850 0.000000 
#    z 0.000000 0.000000 4.530300 
# 
# 
# High freq. dielectric constant tensor:
#      x y z
#    x 1.883610 0.000000 0.000000 
#    y 0.000000 1.883610 0.000000 
#    z 0.000000 0.000000 1.870590 
# 
# From -- ./inp_files/3776.got.cif
#   From: 2010.03.12/outbox.cif.g09.slc.cpg/sg92_2_cif.got.tgz:3776.got - 2010.04.08 20:41:11.
