data_PCOD8305303
_publ_section_title
;
Structure prediction by ZEFSAII (Michael W. Deem and Ramdas Pophale) SiO2 
 PCOD8305303
Probable space group: P 41 21 2
;
_chemical_formula_sum "Si O2"
_cell_formula_units_Z 48
_cell_length_a 9.037056
_cell_length_b 9.037056
_cell_length_c 30.574786
_cell_angle_alpha 90.000000
_cell_angle_beta 90.000000
_cell_angle_gamma 90.000000
_cell_volume 2496.993277
_symmetry_space_group_name_H-M "P 41 21 2"
_symmetry_group_IT_number 92
_symmetry_cell_setting 'tetragonal'
loop_
_space_group_symop_operation_xyz
x,y,z
1/2-y,1/2+x,1/4+z
-x,-y,1/2+z
1/2+y,1/2-x,3/4+z
1/2+x,1/2-y,3/4-z
1/2-x,1/2+y,1/4-z
y,x,-z
-y,-x,1/2-z
loop_
_atom_site_type_symbol
_atom_site_label
_atom_site_fract_x
_atom_site_fract_y
_atom_site_fract_z
Si Si1 0.081168 0.921234 0.461357
Si Si2 0.427658 0.900929 0.459419
Si Si3 0.606196 0.407862 0.125948
Si Si4 0.428517 0.401963 0.951563
Si Si5 0.386763 0.083871 0.045671
Si Si6 0.414728 0.936691 0.625438
O O1 0.254173 0.897214 0.468678
O O2 0.999619 0.765389 0.461844
O O3 0.047131 0.001762 0.415919
O O4 0.023525 0.023525 0.500000
O O5 0.473049 0.740720 0.441143
O O6 0.510284 0.943443 0.503807
O O7 0.472742 0.021063 0.423150
O O8 0.530618 0.472358 0.082158
O O9 0.625688 0.233910 0.121054
O O10 0.767588 0.471978 0.132635
O O11 0.257196 0.353791 0.947756
O O12 0.463303 0.463303 0.000000
O O13 0.466953 0.017592 0.088376
#
# Coordination Sequence:
#
# PCOD8305303 Si02
#       6
#     8   8   8   8   8   8
#     4  11  22  37  58  84 114 148 187 232 279 331
#     4  10  21  36  56  84 113 144 188 234 278 330
#     4  10  22  38  57  83 116 148 185 233 282 333
#     4   9  19  37  57  81 110 146 193 233 270 332
#     4  10  21  38  60  82 110 151 194 230 274 336
#     4  10  22  38  57  84 116 149 186 232 283 334
#
# _framework density 19.223119000000001
#
# number of rings (size 3 to 8) (size 9 to 14) (size 15 to 20)
#    0.000    2.000    0.000    3.500    0.000    8.000 
#    0.000    3.333    0.000    0.000    0.000    0.000 
#    0.000    0.000    0.000    0.000    0.000    0.000 
#
# Total GULP energy -595413.437473 kJ/mol
# GULP energy per Si atom -12404.446614 kJ/mol
# Density = 1.917937 g / cm^3
# Si number density = 19.223119 Si / 1000 Ang^3
#
#
#
# Elastic Constant Matrix: (Units=GPa)
#
#
# Indices 1 2 3 4 5 6 
#
# 1 80.8588 45.4894 43.5618 0.0000 0.0000 0.0000
# 2 45.4894 80.8588 43.5618 0.0000 0.0000 0.0000
# 3 43.5618 43.5618 106.1512 0.0000 0.0000 0.0000
# 4 0.0000 0.0000 0.0000 28.0499 0.0000 0.0000
# 5 0.0000 0.0000 0.0000 0.0000 28.0499 0.0000
# 6 0.0000 0.0000 0.0000 0.0000 0.0000 37.0512
#
#
#
# Elastic Compliance Matrix: (Units=1/GPa)
#
#
# Indices 1 2 3 4 5 6 
#
# 1 0.019656 -0.008617 -0.004530 0.000000 0.000000 0.000000
# 2 -0.008617 0.019656 -0.004530 0.000000 0.000000 0.000000
# 3 -0.004530 -0.004530 0.013138 0.000000 0.000000 0.000000
# 4 0.000000 0.000000 0.000000 0.035651 0.000000 0.000000
# 5 0.000000 0.000000 0.000000 0.000000 0.035651 0.000000
# 6 0.000000 0.000000 0.000000 0.000000 0.000000 0.026990
#
#
# Mechanical properties :
#
#
# Convention : Reuss Voigt Hill
#
# Bulk Modulus (GPa) = 58.49485 59.23275 58.86380
# Shear Modulus (GPa) = 26.06974 27.64724 26.85849
#
# Velocity S-wave (km/s) = 3.68661 3.79651 3.74197
# Velocity P-wave (km/s) = 6.97259 7.07801 7.02549
#
# Compressibility (1/GPa) = 0.01709552
#
# Stress axis : x y z
#
# Youngs Moduli (GPa) = 50.87617 50.87617 76.11312
#
# Poissons Ratio (x) = 0.43842 0.34478
# Poissons Ratio (y) = 0.43842 0.34478
# Poissons Ratio (z) = 0.23046 0.23046
#
# Static dielectric constant tensor:
#      x y z
#    x 3.455510 0.000000 0.000000 
#    y 0.000000 3.455510 0.000000 
#    z 0.000000 0.000000 3.849930 
# 
# 
# High freq. dielectric constant tensor:
#      x y z
#    x 1.747430 0.000000 0.000000 
#    y 0.000000 1.747430 0.000000 
#    z 0.000000 0.000000 1.767450 
# 
# From -- ./inp_files/4460.got.cif
#   From: 2010.03.12/outbox.cif.g09.slc.cpg/sg92_3_cif.got.tgz:4460.got - 2010.04.08 20:41:11.
