data_PCOD8305862
_publ_section_title
;
Structure prediction by ZEFSAII (Michael W. Deem and Ramdas Pophale) SiO2 
 PCOD8305862
Probable space group: P 43 2 2
;
_chemical_formula_sum "Si O2"
_cell_formula_units_Z 52
_cell_length_a 18.317792
_cell_length_b 18.317792
_cell_length_c 7.856383
_cell_angle_alpha 90.000000
_cell_angle_beta 90.000000
_cell_angle_gamma 90.000000
_cell_volume 2636.142566
_symmetry_space_group_name_H-M "P 43 2 2"
_symmetry_group_IT_number 95
_symmetry_cell_setting 'tetragonal'
loop_
_space_group_symop_operation_xyz
x,y,z
-y,x,3/4+z
-x,-y,1/2+z
y,-x,1/4+z
x,-y,1/2-z
-x,y,-z
y,x,1/4-z
-y,-x,3/4-z
loop_
_atom_site_type_symbol
_atom_site_label
_atom_site_fract_x
_atom_site_fract_y
_atom_site_fract_z
Si Si1 0.773936 0.397658 0.517001
Si Si2 0.308396 0.000000 0.750000
Si Si3 0.131222 0.500000 0.250000
Si Si4 0.186028 0.712213 0.476118
Si Si5 0.710142 0.500000 0.250000
Si Si6 0.054143 0.369315 0.152289
Si Si7 0.633882 0.334607 0.696493
Si Si8 0.261282 0.145047 0.601246
O O1 0.820533 0.438639 0.658664
O O2 0.764434 0.455141 0.367935
O O3 0.695384 0.373504 0.585238
O O4 0.812656 0.325981 0.446640
O O5 0.256087 0.065049 0.684678
O O6 0.360079 0.980640 0.589808
O O7 0.078686 0.453635 0.124778
O O8 0.217924 0.782077 0.375000
O O9 0.126621 0.680116 0.348264
O O10 0.250490 0.654758 0.515564
O O11 0.142533 0.728121 0.648969
O O12 0.659170 0.556363 0.352662
O O13 0.000000 0.347456 0.000000
O O14 0.623862 0.376139 0.875000
O O15 0.184444 0.184444 0.625000
#
# Coordination Sequence:
#
# PCOD8305862 Si02
#       8
#     8   4   4   8   4   8   8   8
#     4  12  23  41  64  96 128 176 235 280 337 409
#     4  12  26  44  66 100 144 176 226 290 340 414
#     4  12  26  40  63  89 132 184 232 272 342 410
#     4  11  21  41  67  91 127 174 227 283 326 388
#     4  12  22  36  65  95 124 160 216 290 358 400
#     4  12  26  43  60  96 140 180 219 271 342 413
#     4  11  23  40  64  93 124 167 227 295 331 403
#     4  12  22  42  69 100 133 181 233 285 335 405
#
# _framework density 19.725791999999998
#
# number of rings (size 3 to 8) (size 9 to 14) (size 15 to 20)
#    0.000    0.308    6.154    5.077    1.077    0.000 
#    0.000    0.000    0.000   11.077    0.000    3.231 
#    0.000    0.000    0.000    0.000    0.000    0.000 
#
# Total GULP energy -644726.350883 kJ/mol
# GULP energy per Si atom -12398.583671 kJ/mol
# Density = 1.968090 g / cm^3
# Si number density = 19.725792 Si / 1000 Ang^3
#
#
#
# Elastic Constant Matrix: (Units=GPa)
#
#
# Indices 1 2 3 4 5 6 
#
# 1 116.2317 57.2819 44.2239 0.0000 0.0000 0.0000
# 2 57.2819 116.2297 44.2232 0.0000 0.0000 0.0000
# 3 44.2239 44.2232 124.5262 0.0000 0.0000 0.0000
# 4 0.0000 0.0000 0.0000 39.6218 0.0000 0.0000
# 5 0.0000 0.0000 0.0000 0.0000 39.6216 0.0000
# 6 0.0000 0.0000 0.0000 0.0000 0.0000 -11.4059
#
#
#
# Elastic Compliance Matrix: (Units=1/GPa)
#
#
# Indices 1 2 3 4 5 6 
#
# 1 0.012000 -0.004963 -0.002499 0.000000 0.000000 0.000000
# 2 -0.004963 0.012001 -0.002499 0.000000 0.000000 0.000000
# 3 -0.002499 -0.002499 0.009806 0.000000 0.000000 0.000000
# 4 0.000000 0.000000 0.000000 0.025239 0.000000 0.000000
# 5 0.000000 0.000000 0.000000 0.000000 0.025239 0.000000
# 6 0.000000 0.000000 0.000000 0.000000 0.000000 -0.087674
#
#
# Mechanical properties :
#
#
# Convention : Reuss Voigt Hill
#
# Bulk Modulus (GPa) = 72.02900 72.04952 72.03926
# Shear Modulus (GPa) = 236.28602 27.65141 131.96871
#
# Velocity S-wave (km/s) = 10.95652 3.74811 8.18821
# Velocity P-wave (km/s) = 14.02337 7.43881 11.22477
#
# Compressibility (1/GPa) = 0.01388330
#
# Stress axis : x y z
#
# Youngs Moduli (GPa) = 83.33024 83.32901 101.98344
#
# Poissons Ratio (x) = 0.41359 0.25487
# Poissons Ratio (y) = 0.41360 0.25487
# Poissons Ratio (z) = 0.20826 0.20825
#
# Static dielectric constant tensor:
#      x y z
#    x 3.570840 0.000000 0.000000 
#    y 0.000000 3.570830 0.000000 
#    z 0.000000 0.000000 3.906330 
# 
# 
# High freq. dielectric constant tensor:
#      x y z
#    x 1.754610 0.000000 0.000000 
#    y 0.000000 1.754610 0.000000 
#    z 0.000000 0.000000 1.796110 
# 
# From -- ./inp_files/2793.got.cif
#   From: 2010.03.12/outbox.cif.g09.slc.cpg/sg95_2_cif.got.tgz:2793.got - 2010.04.08 20:51:55.
