data_PCOD8305043
_publ_section_title
;
Structure prediction by ZEFSAII (Michael W. Deem and Ramdas Pophale) SiO2 
 PCOD8305043
Probable space group: P 41 2 2
;
_chemical_formula_sum "Si O2"
_cell_formula_units_Z 48
_cell_length_a 12.073911
_cell_length_b 12.073911
_cell_length_c 15.452519
_cell_angle_alpha 90.000000
_cell_angle_beta 90.000000
_cell_angle_gamma 90.000000
_cell_volume 2252.657818
_symmetry_space_group_name_H-M "P 41 2 2"
_symmetry_group_IT_number 91
_symmetry_cell_setting 'tetragonal'
loop_
_space_group_symop_operation_xyz
x,y,z
-y,x,1/4+z
-x,-y,1/2+z
y,-x,3/4+z
x,-y,1/2-z
-x,y,-z
y,x,3/4-z
-y,-x,1/4-z
loop_
_atom_site_type_symbol
_atom_site_label
_atom_site_fract_x
_atom_site_fract_y
_atom_site_fract_z
Si Si1 0.171368 0.575747 0.088568
Si Si2 0.500000 0.045919 0.500000
Si Si3 0.715125 0.715125 0.375000
Si Si4 0.769442 0.536229 0.092887
Si Si5 0.535273 0.376999 0.405963
Si Si6 0.115984 0.678178 0.773013
Si Si7 0.039459 0.208009 0.402085
O O1 0.113776 0.501325 0.160710
O O2 0.299566 0.535243 0.090175
O O3 0.138152 0.701918 0.109046
O O4 0.144531 0.554064 0.987145
O O5 0.615435 0.984684 0.476901
O O6 0.590546 0.730804 0.342159
O O7 0.736898 0.800763 0.454672
O O8 0.667897 0.624470 0.094736
O O9 0.833036 0.570485 0.178843
O O10 0.500000 0.339292 0.500000
O O11 0.500219 0.500219 0.375000
O O12 0.067315 0.767856 0.840914
O O13 0.089725 0.089725 0.375000
O O14 0.000000 0.202139 0.500000
#
# Coordination Sequence:
#
# PCOD8305043 Si02
#       7
#     8   4   4   8   8   8   8
#     4  11  23  39  67  98 136 176 232 279 343 412
#     4  10  22  42  64  94 132 182 224 292 340 402
#     4  12  24  44  66 102 148 194 222 272 334 432
#     4  12  23  39  67 100 147 191 221 263 334 426
#     4  12  23  35  56 100 144 183 218 264 323 416
#     4  11  24  44  69  97 140 179 236 280 351 427
#     4  11  25  49  76  98 127 175 236 309 368 405
#
# _framework density 21.308164000000001
#
# number of rings (size 3 to 8) (size 9 to 14) (size 15 to 20)
#    0.000    0.667    6.667    1.500    0.000    0.000 
#    7.500    0.000    0.000    0.000    0.000    0.000 
#    0.000    0.000    0.000    0.000    0.000    0.000 
#
# Total GULP energy -594627.608387 kJ/mol
# GULP energy per Si atom -12388.075175 kJ/mol
# Density = 2.125967 g / cm^3
# Si number density = 21.308164 Si / 1000 Ang^3
#
#
#
# Elastic Constant Matrix: (Units=GPa)
#
#
# Indices 1 2 3 4 5 6 
#
# 1 84.7291 42.2355 48.6115 0.0000 0.0000 0.0000
# 2 42.2355 84.7291 48.6115 0.0000 0.0000 0.0000
# 3 48.6115 48.6115 146.1944 0.0000 0.0000 0.0000
# 4 0.0000 0.0000 0.0000 36.0621 0.0000 0.0000
# 5 0.0000 0.0000 0.0000 0.0000 36.0621 0.0000
# 6 0.0000 0.0000 0.0000 0.0000 0.0000 29.7436
#
#
#
# Elastic Compliance Matrix: (Units=1/GPa)
#
#
# Indices 1 2 3 4 5 6 
#
# 1 0.017050 -0.006483 -0.003514 0.000000 0.000000 0.000000
# 2 -0.006483 0.017050 -0.003514 0.000000 0.000000 0.000000
# 3 -0.003514 -0.003514 0.009177 0.000000 0.000000 0.000000
# 4 0.000000 0.000000 0.000000 0.027730 0.000000 0.000000
# 5 0.000000 0.000000 0.000000 0.000000 0.027730 0.000000
# 6 0.000000 0.000000 0.000000 0.000000 0.000000 0.033621
#
#
# Mechanical properties :
#
#
# Convention : Reuss Voigt Hill
#
# Bulk Modulus (GPa) = 61.51579 66.06328 63.78953
# Shear Modulus (GPa) = 30.34050 32.11983 31.23016
#
# Velocity S-wave (km/s) = 3.77754 3.88673 3.83253
# Velocity P-wave (km/s) = 6.92522 7.15635 7.04173
#
# Compressibility (1/GPa) = 0.01625599
#
# Stress axis : x y z
#
# Youngs Moduli (GPa) = 58.65162 58.65162 108.97021
#
# Poissons Ratio (x) = 0.38024 0.38287
# Poissons Ratio (y) = 0.38024 0.38287
# Poissons Ratio (z) = 0.20608 0.20608
#
# Static dielectric constant tensor:
#      x y z
#    x 3.839280 0.000000 0.000000 
#    y 0.000000 3.839280 0.000000 
#    z 0.000000 0.000000 4.135100 
# 
# 
# High freq. dielectric constant tensor:
#      x y z
#    x 1.822360 0.000000 0.000000 
#    y 0.000000 1.822360 0.000000 
#    z 0.000000 0.000000 1.853810 
# 
# From -- ./inp_files/21141.got.cif
#   From: 2010.03.12/outbox.cif.g09.slc.cpg/sg91_11_cif.got.tgz:21141.got - 2010.04.08 20:27:58.
