data_PCOD8305819
_publ_section_title
;
Structure prediction by ZEFSAII (Michael W. Deem and Ramdas Pophale) SiO2 
 PCOD8305819
Probable space group: P 43 2 2
;
_chemical_formula_sum "Si O2"
_cell_formula_units_Z 36
_cell_length_a 7.712846
_cell_length_b 7.712846
_cell_length_c 25.681019
_cell_angle_alpha 90.000000
_cell_angle_beta 90.000000
_cell_angle_gamma 90.000000
_cell_volume 1527.712289
_symmetry_space_group_name_H-M "P 43 2 2"
_symmetry_group_IT_number 95
_symmetry_cell_setting 'tetragonal'
loop_
_space_group_symop_operation_xyz
x,y,z
-y,x,3/4+z
-x,-y,1/2+z
y,-x,1/4+z
x,-y,1/2-z
-x,y,-z
y,x,1/4-z
-y,-x,3/4-z
loop_
_atom_site_type_symbol
_atom_site_label
_atom_site_fract_x
_atom_site_fract_y
_atom_site_fract_z
Si Si1 0.337683 0.010141 0.847283
Si Si2 0.674187 0.799591 0.049896
Si Si3 0.157262 0.035853 0.459460
Si Si4 0.649728 0.842455 0.710209
Si Si5 0.514695 0.500000 0.250000
O O1 0.511998 0.117001 0.835291
O O2 0.165830 0.130062 0.839664
O O3 0.308826 0.851569 0.807999
O O4 0.355078 0.943785 0.906191
O O5 0.532412 0.645479 0.049088
O O6 0.678879 0.896019 0.993481
O O7 0.184387 0.842626 0.436800
O O8 0.000000 0.034438 0.500000
O O9 0.603511 0.664806 0.739168
O O10 0.646916 0.000000 0.750000
#
# Coordination Sequence:
#
# PCOD8305819 Si02
#       5
#     8   8   8   8   4
#     4  10  19  43  66  93 132 178 224 275 337 414
#     4  10  21  39  69  96 132 183 226 272 350 410
#     4   9  19  39  68  93 126 178 218 278 337 391
#     4  11  21  41  66  94 133 174 217 284 337 402
#     4  12  22  40  68  98 138 182 218 286 354 390
#
# _framework density 23.564644999999999
#
# number of rings (size 3 to 8) (size 9 to 14) (size 15 to 20)
#    0.000    1.778    4.444    0.667    0.000    0.889 
#   16.000    0.000    0.000   18.667    0.000    0.000 
#    0.000    0.000    0.000    0.000    0.000    0.000 
#
# Total GULP energy -446125.332024 kJ/mol
# GULP energy per Si atom -12392.370334 kJ/mol
# Density = 2.351101 g / cm^3
# Si number density = 23.564645 Si / 1000 Ang^3
#
#
#
# Elastic Constant Matrix: (Units=GPa)
#
#
# Indices 1 2 3 4 5 6 
#
# 1 120.8846 29.6148 21.0629 0.0000 0.0000 0.0000
# 2 29.6148 120.8846 21.0629 0.0000 0.0000 0.0000
# 3 21.0629 21.0629 65.4408 0.0000 0.0000 0.0000
# 4 0.0000 0.0000 0.0000 20.9511 0.0000 0.0000
# 5 0.0000 0.0000 0.0000 0.0000 20.9511 0.0000
# 6 0.0000 0.0000 0.0000 0.0000 0.0000 6.7553
#
#
#
# Elastic Compliance Matrix: (Units=1/GPa)
#
#
# Indices 1 2 3 4 5 6 
#
# 1 0.009129 -0.001827 -0.002350 0.000000 0.000000 0.000000
# 2 -0.001827 0.009129 -0.002350 0.000000 0.000000 0.000000
# 3 -0.002350 -0.002350 0.016794 0.000000 0.000000 0.000000
# 4 0.000000 0.000000 0.000000 0.047730 0.000000 0.000000
# 5 0.000000 0.000000 0.000000 0.000000 0.047730 0.000000
# 6 0.000000 0.000000 0.000000 0.000000 0.000000 0.148031
#
#
# Mechanical properties :
#
#
# Convention : Reuss Voigt Hill
#
# Bulk Modulus (GPa) = 45.46007 50.07683 47.76845
# Shear Modulus (GPa) = 16.72621 25.42948 21.07785
#
# Velocity S-wave (km/s) = 2.66710 3.28859 2.99401
# Velocity P-wave (km/s) = 5.36825 5.97634 5.68044
#
# Compressibility (1/GPa) = 0.02199733
#
# Stress axis : x y z
#
# Youngs Moduli (GPa) = 109.53528 109.53528 59.54519
#
# Poissons Ratio (x) = 0.20013 0.13995
# Poissons Ratio (y) = 0.20013 0.13995
# Poissons Ratio (z) = 0.25745 0.25745
#
# Static dielectric constant tensor:
#      x y z
#    x 4.485170 0.000000 0.000000 
#    y 0.000000 4.485170 0.000000 
#    z 0.000000 0.000000 3.713320 
# 
# 
# High freq. dielectric constant tensor:
#      x y z
#    x 1.940630 0.000000 0.000000 
#    y 0.000000 1.940630 0.000000 
#    z 0.000000 0.000000 1.893820 
# 
# From -- ./inp_files/7286.got.cif
#   From: 2010.03.12/outbox.cif.g09.slc.cpg/sg95_4_cif.got.tgz:7286.got - 2010.04.08 20:51:55.
