data_PCOD8305186
_publ_section_title
;
Structure prediction by ZEFSAII (Michael W. Deem and Ramdas Pophale) SiO2 
 PCOD8305186
Probable space group: P 41 2 2
;
_chemical_formula_sum "Si O2"
_cell_formula_units_Z 24
_cell_length_a 5.178531
_cell_length_b 5.178531
_cell_length_c 34.986608
_cell_angle_alpha 90.000000
_cell_angle_beta 90.000000
_cell_angle_gamma 90.000000
_cell_volume 938.242280
_symmetry_space_group_name_H-M "P 41 2 2"
_symmetry_group_IT_number 91
_symmetry_cell_setting 'tetragonal'
loop_
_space_group_symop_operation_xyz
x,y,z
-y,x,1/4+z
-x,-y,1/2+z
y,-x,3/4+z
x,-y,1/2-z
-x,y,-z
y,x,3/4-z
-y,-x,1/4-z
loop_
_atom_site_type_symbol
_atom_site_label
_atom_site_fract_x
_atom_site_fract_y
_atom_site_fract_z
Si Si1 0.060423 0.507961 0.706428
Si Si2 0.700470 0.332863 0.851815
Si Si3 0.306285 0.976210 0.824465
O O1 0.967914 0.500000 0.750000
O O2 0.139862 0.798588 0.694944
O O3 0.820204 0.455594 0.677750
O O4 0.280816 0.288374 0.700397
O O5 0.466042 0.466042 0.875000
O O6 0.598479 0.086772 0.827264
O O7 0.911387 0.226508 0.881750
#
# Coordination Sequence:
#
# PCOD8305186 Si02
#       3
#     8   8   8
#     4  12  29  51  77 122 172 214 277 351 429 500
#     4  12  25  47  84 119 155 222 281 345 406 509
#     4  12  25  50  79 115 160 222 274 339 412 501
#
# _framework density 25.579744999999999
#
# number of rings (size 3 to 8) (size 9 to 14) (size 15 to 20)
#    0.000    0.000    6.667    2.000    4.667    2.667 
#    6.000    0.000    0.000    0.000    0.000    0.000 
#    0.000    0.000    0.000    0.000    0.000    0.000 
#
# Total GULP energy -297330.214966 kJ/mol
# GULP energy per Si atom -12388.758957 kJ/mol
# Density = 2.552152 g / cm^3
# Si number density = 25.579745 Si / 1000 Ang^3
#
#
#
# Elastic Constant Matrix: (Units=GPa)
#
#
# Indices 1 2 3 4 5 6 
#
# 1 111.3184 32.8756 37.2794 0.0000 0.0000 0.0000
# 2 32.8756 111.3184 37.2794 0.0000 0.0000 0.0000
# 3 37.2794 37.2794 175.6133 0.0000 0.0000 0.0000
# 4 0.0000 0.0000 0.0000 32.7151 0.0000 0.0000
# 5 0.0000 0.0000 0.0000 0.0000 32.7151 0.0000
# 6 0.0000 0.0000 0.0000 0.0000 0.0000 30.3582
#
#
#
# Elastic Compliance Matrix: (Units=1/GPa)
#
#
# Indices 1 2 3 4 5 6 
#
# 1 0.010269 -0.002479 -0.001654 0.000000 0.000000 0.000000
# 2 -0.002479 0.010269 -0.001654 0.000000 0.000000 0.000000
# 3 -0.001654 -0.001654 0.006396 0.000000 0.000000 0.000000
# 4 0.000000 0.000000 0.000000 0.030567 0.000000 0.000000
# 5 0.000000 0.000000 0.000000 0.000000 0.030567 0.000000
# 6 0.000000 0.000000 0.000000 0.000000 0.000000 0.032940
#
#
# Mechanical properties :
#
#
# Convention : Reuss Voigt Hill
#
# Bulk Modulus (GPa) = 65.09580 68.12431 66.61006
# Shear Modulus (GPa) = 36.31025 38.54538 37.42782
#
# Velocity S-wave (km/s) = 3.77170 3.88606 3.82931
# Velocity P-wave (km/s) = 6.66866 6.84289 6.75634
#
# Compressibility (1/GPa) = 0.01536197
#
# Stress axis : x y z
#
# Youngs Moduli (GPa) = 97.37884 97.37884 156.33719
#
# Poissons Ratio (x) = 0.24140 0.25854
# Poissons Ratio (y) = 0.24140 0.25854
# Poissons Ratio (z) = 0.16104 0.16104
#
# Static dielectric constant tensor:
#      x y z
#    x 4.705510 0.000000 0.000000 
#    y 0.000000 4.705510 0.000000 
#    z 0.000000 0.000000 4.765280 
# 
# 
# High freq. dielectric constant tensor:
#      x y z
#    x 2.023180 0.000000 0.000000 
#    y 0.000000 2.023180 0.000000 
#    z 0.000000 0.000000 2.008030 
# 
# From -- ./inp_files/7580.got.cif
#   From: 2010.03.12/outbox.cif.g09.slc.cpg/sg91_4_cif.got.tgz:7580.got - 2010.04.08 20:27:58.
