data_PCOD8305136
_publ_section_title
;
Structure prediction by ZEFSAII (Michael W. Deem and Ramdas Pophale) SiO2 
 PCOD8305136
Probable space group: P 41 2 2
;
_chemical_formula_sum "Si O2"
_cell_formula_units_Z 32
_cell_length_a 12.639599
_cell_length_b 12.639599
_cell_length_c 10.384341
_cell_angle_alpha 90.000000
_cell_angle_beta 90.000000
_cell_angle_gamma 90.000000
_cell_volume 1658.996741
_symmetry_space_group_name_H-M "P 41 2 2"
_symmetry_group_IT_number 91
_symmetry_cell_setting 'tetragonal'
loop_
_space_group_symop_operation_xyz
x,y,z
-y,x,1/4+z
-x,-y,1/2+z
y,-x,3/4+z
x,-y,1/2-z
-x,y,-z
y,x,3/4-z
-y,-x,1/4-z
loop_
_atom_site_type_symbol
_atom_site_label
_atom_site_fract_x
_atom_site_fract_y
_atom_site_fract_z
Si Si1 0.578829 0.753754 0.388456
Si Si2 0.918000 0.256813 0.613283
Si Si3 0.517278 0.171972 0.637132
Si Si4 0.651010 0.010943 0.111588
O O1 0.500000 0.712799 0.500000
O O2 0.679218 0.679218 0.375000
O O3 0.522345 0.752173 0.249919
O O4 0.616541 0.871050 0.423850
O O5 0.842316 0.157685 0.625000
O O6 0.851542 0.361336 0.580789
O O7 0.000000 0.233931 0.500000
O O8 0.974903 0.269543 0.750778
O O9 0.500000 0.231887 0.500000
O O10 0.453760 0.061399 0.625045
O O11 0.710616 0.000000 0.250000
#
# Coordination Sequence:
#
# PCOD8305136 Si02
#       4
#     8   8   8   8
#     4  11  22  37  58  85 115 149 187 231 283 336
#     4  11  22  37  58  85 115 149 187 231 283 336
#     4   9  19  37  60  85 109 141 194 245 278 320
#     4   9  19  37  60  85 109 141 194 245 278 320
#
# _framework density 19.288765999999999
#
# number of rings (size 3 to 8) (size 9 to 14) (size 15 to 20)
#    0.000    2.000    0.000    6.000    0.000   12.000 
#    0.000    5.000    0.000    0.000    0.000    0.000 
#    0.000    0.000    0.000    0.000    0.000    0.000 
#
# Total GULP energy -396758.425951 kJ/mol
# GULP energy per Si atom -12398.700811 kJ/mol
# Density = 1.924486 g / cm^3
# Si number density = 19.288766 Si / 1000 Ang^3
#
#
#
# Elastic Constant Matrix: (Units=GPa)
#
#
# Indices 1 2 3 4 5 6 
#
# 1 28.3429 26.1484 41.3492 0.0000 0.0000 0.0000
# 2 26.1484 28.3619 41.3528 0.0000 0.0000 0.0000
# 3 41.3492 41.3528 174.9365 0.0000 0.0000 0.0000
# 4 0.0000 0.0000 0.0000 11.0172 0.0000 0.0000
# 5 0.0000 0.0000 0.0000 0.0000 11.0161 0.0000
# 6 0.0000 0.0000 0.0000 0.0000 0.0000 16.7800
#
#
#
# Elastic Compliance Matrix: (Units=1/GPa)
#
#
# Indices 1 2 3 4 5 6 
#
# 1 0.241275 -0.212552 -0.006785 0.000000 0.000000 0.000000
# 2 -0.212552 0.241051 -0.006741 0.000000 0.000000 0.000000
# 3 -0.006785 -0.006741 0.008914 0.000000 0.000000 0.000000
# 4 0.000000 0.000000 0.000000 0.090767 0.000000 0.000000
# 5 0.000000 0.000000 0.000000 0.000000 0.090776 0.000000
# 6 0.000000 0.000000 0.000000 0.000000 0.000000 0.059595
#
#
# Mechanical properties :
#
#
# Convention : Reuss Voigt Hill
#
# Bulk Modulus (GPa) = 25.58635 49.92690 37.75663
# Shear Modulus (GPa) = 4.17515 15.94873 10.06194
#
# Velocity S-wave (km/s) = 1.47284 2.87860 2.28644
# Velocity P-wave (km/s) = 4.02319 6.08182 5.15629
#
# Compressibility (1/GPa) = 0.03908334
#
# Stress axis : x y z
#
# Youngs Moduli (GPa) = 4.14465 4.14850 112.18853
#
# Poissons Ratio (x) = 0.88177 0.76116
# Poissons Ratio (y) = 0.88095 0.75629
# Poissons Ratio (z) = 0.02812 0.02797
#
# Static dielectric constant tensor:
#      x y z
#    x 3.238500 0.000000 0.000000 
#    y 0.000000 3.238500 0.000000 
#    z 0.000000 0.000000 4.533050 
# 
# 
# High freq. dielectric constant tensor:
#      x y z
#    x 1.724720 0.000000 0.000000 
#    y 0.000000 1.724720 0.000000 
#    z 0.000000 0.000000 1.784780 
# 
# From -- ./inp_files/3373.got.cif
#   From: 2010.03.12/outbox.cif.g09.slc.cpg/sg91_2_cif.got.tgz:3373.got - 2010.04.08 20:27:58.
