data_PCOD8305782
_publ_section_title
;
Structure prediction by ZEFSAII (Michael W. Deem and Ramdas Pophale) SiO2 
 PCOD8305782
Probable space group: P 42 21 2
;
_chemical_formula_sum "Si O2"
_cell_formula_units_Z 40
_cell_length_a 9.369597
_cell_length_b 9.369597
_cell_length_c 22.822581
_cell_angle_alpha 90.000000
_cell_angle_beta 90.000000
_cell_angle_gamma 90.000000
_cell_volume 2003.579504
_symmetry_space_group_name_H-M "P 42 21 2"
_symmetry_group_IT_number 94
_symmetry_cell_setting 'tetragonal'
loop_
_space_group_symop_operation_xyz
x,y,z
1/2-y,1/2+x,1/2+z
-x,-y,z
1/2+y,1/2-x,1/2+z
1/2+x,1/2-y,1/2-z
1/2-x,1/2+y,1/2-z
y,x,-z
-y,-x,-z
loop_
_atom_site_type_symbol
_atom_site_label
_atom_site_fract_x
_atom_site_fract_y
_atom_site_fract_z
Si Si1 0.500000 0.500000 0.000000
Si Si2 0.579482 0.650154 0.209509
Si Si3 0.351050 0.081581 0.799054
Si Si4 0.062305 0.745858 0.419339
Si Si5 0.000000 0.500000 0.987730
Si Si6 0.893930 0.744807 0.069586
Si Si7 0.500000 0.500000 0.500000
O O1 0.497276 0.626943 0.044808
O O2 0.500000 0.500000 0.207574
O O3 0.504908 0.739837 0.260045
O O4 0.751027 0.632836 0.219366
O O5 0.547946 0.732199 0.149508
O O6 0.291280 0.066368 0.864260
O O7 0.500000 0.000000 0.793322
O O8 0.227671 0.712662 0.435879
O O9 0.955657 0.621067 0.440839
O O10 0.075165 0.389017 0.029522
O O11 0.996734 0.867304 0.044514
#
# Coordination Sequence:
#
# PCOD8305782 Si02
#       7
#     2   8   8   8   4   8   2
#     4  12  18  42  66  94 130 164 206 276 328 378
#     4  11  25  47  69  99 131 178 227 279 339 401
#     4  11  25  47  71  96 134 176 227 282 337 400
#     4  11  24  42  67  97 135 166 220 275 324 398
#     4  12  20  44  64  96 134 168 212 266 336 386
#     4  11  24  44  65  97 137 170 213 277 327 397
#     4  12  22  46  62  98 138 172 218 260 336 398
#
# _framework density 19.964271
#
# number of rings (size 3 to 8) (size 9 to 14) (size 15 to 20)
#    0.000    0.800    6.000    1.200    2.800    0.800 
#   10.800    0.000    0.000    0.000    0.000    0.000 
#    0.000    0.000    0.000    0.000    0.000    0.000 
#
# Total GULP energy -495571.538300 kJ/mol
# GULP energy per Si atom -12389.288458 kJ/mol
# Density = 1.991883 g / cm^3
# Si number density = 19.964271 Si / 1000 Ang^3
#
#
#
# Elastic Constant Matrix: (Units=GPa)
#
#
# Indices 1 2 3 4 5 6 
#
# 1 105.6700 6.9959 56.7062 0.0000 0.0000 0.0000
# 2 6.9959 105.6700 56.7062 0.0000 0.0000 0.0000
# 3 56.7062 56.7062 139.9782 0.0000 0.0000 0.0000
# 4 0.0000 0.0000 0.0000 23.8743 0.0000 0.0000
# 5 0.0000 0.0000 0.0000 0.0000 23.8743 0.0000
# 6 0.0000 0.0000 0.0000 0.0000 0.0000 34.9080
#
#
#
# Elastic Compliance Matrix: (Units=1/GPa)
#
#
# Indices 1 2 3 4 5 6 
#
# 1 0.012561 0.002427 -0.006072 0.000000 0.000000 0.000000
# 2 0.002427 0.012561 -0.006072 0.000000 0.000000 0.000000
# 3 -0.006072 -0.006072 0.012063 0.000000 0.000000 0.000000
# 4 0.000000 0.000000 0.000000 0.041886 0.000000 0.000000
# 5 0.000000 0.000000 0.000000 0.000000 0.041886 0.000000
# 6 0.000000 0.000000 0.000000 0.000000 0.000000 0.028647
#
#
# Mechanical properties :
#
#
# Convention : Reuss Voigt Hill
#
# Bulk Modulus (GPa) = 56.33128 65.79277 61.06203
# Shear Modulus (GPa) = 28.57882 31.92530 30.25206
#
# Velocity S-wave (km/s) = 3.78762 4.00324 3.89692
# Velocity P-wave (km/s) = 6.88516 7.37528 7.13443
#
# Compressibility (1/GPa) = 0.01775213
#
# Stress axis : x y z
#
# Youngs Moduli (GPa) = 79.61152 79.61152 82.89629
#
# Poissons Ratio (x) = -0.19319 0.50331
# Poissons Ratio (y) = -0.19319 0.50331
# Poissons Ratio (z) = 0.48337 0.48337
#
# Static dielectric constant tensor:
#      x y z
#    x 3.773630 0.000000 0.000000 
#    y 0.000000 3.773630 0.000000 
#    z 0.000000 0.000000 3.984650 
# 
# 
# High freq. dielectric constant tensor:
#      x y z
#    x 1.783120 0.000000 0.000000 
#    y 0.000000 1.783120 0.000000 
#    z 0.000000 0.000000 1.805860 
# 
# From -- ./inp_files/5354.got.cif
#   From: 2010.03.12/outbox.cif.g09.slc.cpg/sg94_3_cif.got.tgz:5354.got - 2010.04.08 20:48:32.
