data_PCOD8305494
_publ_section_title
;
Structure prediction by ZEFSAII (Michael W. Deem and Ramdas Pophale) SiO2 
 PCOD8305494
Probable space group: P 41 21 2
;
_chemical_formula_sum "Si O2"
_cell_formula_units_Z 40
_cell_length_a 16.527017
_cell_length_b 16.527017
_cell_length_c 6.796824
_cell_angle_alpha 90.000000
_cell_angle_beta 90.000000
_cell_angle_gamma 90.000000
_cell_volume 1856.500078
_symmetry_space_group_name_H-M "P 41 21 2"
_symmetry_group_IT_number 92
_symmetry_cell_setting 'tetragonal'
loop_
_space_group_symop_operation_xyz
x,y,z
1/2-y,1/2+x,1/4+z
-x,-y,1/2+z
1/2+y,1/2-x,3/4+z
1/2+x,1/2-y,3/4-z
1/2-x,1/2+y,1/4-z
y,x,-z
-y,-x,1/2-z
loop_
_atom_site_type_symbol
_atom_site_label
_atom_site_fract_x
_atom_site_fract_y
_atom_site_fract_z
Si Si1 0.417521 0.747624 0.073031
Si Si2 0.523816 0.599554 0.180663
Si Si3 0.161473 0.680797 0.085091
Si Si4 0.286017 0.713984 0.750000
Si Si5 0.610040 0.019523 0.151890
Si Si6 0.647981 0.647981 0.500000
O O1 0.454643 0.664013 0.140911
O O2 0.367553 0.784156 0.256870
O O3 0.364444 0.721058 0.886369
O O4 0.487940 0.808454 0.004823
O O5 0.484116 0.515885 0.250000
O O6 0.582178 0.636994 0.337070
O O7 0.581554 0.581554 0.000000
O O8 0.130079 0.761038 0.186746
O O9 0.208728 0.710116 0.891360
O O10 0.083606 0.628419 0.021697
O O11 0.556894 0.062286 0.317972
#
# Coordination Sequence:
#
# PCOD8305494 Si02
#       6
#     8   8   8   4   8   4
#     4  12  28  47  79 109 152 199 252 306 373 458
#     4  12  28  48  73 111 149 195 246 311 376 440
#     4  12  27  47  75 111 142 201 251 306 371 450
#     4  12  24  52  73 109 146 196 252 302 368 446
#     4  12  27  47  73 110 153 192 245 309 378 445
#     4  12  28  46  79 105 148 192 252 308 364 448
#
# _framework density 21.545919000000001
#
# number of rings (size 3 to 8) (size 9 to 14) (size 15 to 20)
#    0.000    0.000    5.000    3.600   11.200    3.200 
#    0.000    0.000    0.000    0.000    0.000    0.000 
#    0.000    0.000    0.000    0.000    0.000    0.000 
#
# Total GULP energy -496124.206009 kJ/mol
# GULP energy per Si atom -12403.105150 kJ/mol
# Density = 2.149688 g / cm^3
# Si number density = 21.545919 Si / 1000 Ang^3
#
#
#
# Elastic Constant Matrix: (Units=GPa)
#
#
# Indices 1 2 3 4 5 6 
#
# 1 137.4141 4.7289 51.9454 0.0000 0.0000 0.0000
# 2 4.7289 137.4339 51.9510 0.0000 0.0000 0.0000
# 3 51.9454 51.9510 139.1388 0.0000 0.0000 0.0000
# 4 0.0000 0.0000 0.0000 12.8072 0.0000 0.0000
# 5 0.0000 0.0000 0.0000 0.0000 12.8096 0.0000
# 6 0.0000 0.0000 0.0000 0.0000 0.0000 46.5339
#
#
#
# Elastic Compliance Matrix: (Units=1/GPa)
#
#
# Indices 1 2 3 4 5 6 
#
# 1 0.008606 0.001069 -0.003612 0.000000 0.000000 0.000000
# 2 0.001069 0.008605 -0.003612 0.000000 0.000000 0.000000
# 3 -0.003612 -0.003612 0.009884 0.000000 0.000000 0.000000
# 4 0.000000 0.000000 0.000000 0.078081 0.000000 0.000000
# 5 0.000000 0.000000 0.000000 0.000000 0.078066 0.000000
# 6 0.000000 0.000000 0.000000 0.000000 0.000000 0.021490
#
#
# Mechanical properties :
#
#
# Convention : Reuss Voigt Hill
#
# Bulk Modulus (GPa) = 67.63502 70.13750 68.88626
# Shear Modulus (GPa) = 22.52557 34.78759 28.65658
#
# Velocity S-wave (km/s) = 3.23688 4.02254 3.65091
# Velocity P-wave (km/s) = 6.74011 7.36191 7.05786
#
# Compressibility (1/GPa) = 0.01478524
#
# Stress axis : x y z
#
# Youngs Moduli (GPa) = 116.19878 116.21407 101.17095
#
# Poissons Ratio (x) = -0.12427 0.36545
# Poissons Ratio (y) = -0.12425 0.36543
# Poissons Ratio (z) = 0.41973 0.41977
#
# Static dielectric constant tensor:
#      x y z
#    x 4.102370 0.000000 0.000000 
#    y 0.000000 4.102380 0.000000 
#    z 0.000000 0.000000 4.164780 
# 
# 
# High freq. dielectric constant tensor:
#      x y z
#    x 1.862220 0.000000 0.000000 
#    y 0.000000 1.862220 0.000000 
#    z 0.000000 0.000000 1.864330 
# 
# From -- ./inp_files/484.got.cif
#   From: 2010.03.12/outbox.cif.g09.slc.cpg/sg92_1_cif.got.tgz:484.got - 2010.04.08 20:41:11.
