data_PCOD8305388
_publ_section_title
;
Structure prediction by ZEFSAII (Michael W. Deem and Ramdas Pophale) SiO2 
 PCOD8305388
Probable space group: P 41 21 2
;
_chemical_formula_sum "Si O2"
_cell_formula_units_Z 40
_cell_length_a 10.949511
_cell_length_b 10.949511
_cell_length_c 15.488762
_cell_angle_alpha 90.000000
_cell_angle_beta 90.000000
_cell_angle_gamma 90.000000
_cell_volume 1856.975419
_symmetry_space_group_name_H-M "P 41 21 2"
_symmetry_group_IT_number 92
_symmetry_cell_setting 'tetragonal'
loop_
_space_group_symop_operation_xyz
x,y,z
1/2-y,1/2+x,1/4+z
-x,-y,1/2+z
1/2+y,1/2-x,3/4+z
1/2+x,1/2-y,3/4-z
1/2-x,1/2+y,1/4-z
y,x,-z
-y,-x,1/2-z
loop_
_atom_site_type_symbol
_atom_site_label
_atom_site_fract_x
_atom_site_fract_y
_atom_site_fract_z
Si Si1 0.180299 0.148075 0.733494
Si Si2 0.351884 0.504774 0.685296
Si Si3 0.947719 0.417956 0.036079
Si Si4 0.935056 0.820990 0.579940
Si Si5 0.090087 0.598106 0.930594
O O1 0.327437 0.157506 0.743433
O O2 0.129425 0.120861 0.829813
O O3 0.110856 0.265994 0.695236
O O4 0.147702 0.042933 0.665232
O O5 0.387182 0.612819 0.750000
O O6 0.442136 0.391648 0.694283
O O7 0.219475 0.468313 0.721988
O O8 0.903869 0.543124 0.082218
O O9 0.028806 0.321810 0.091310
O O10 0.037724 0.468090 0.962674
O O11 0.840504 0.840504 0.500000
#
# Coordination Sequence:
#
# PCOD8305388 Si02
#       5
#     8   8   8   8   8
#     4  11  23  42  68 101 132 179 233 281 354 413
#     4  10  22  43  67  96 130 176 231 291 343 412
#     4  11  23  42  64 101 135 178 232 285 340 422
#     4  11  24  43  65  94 146 179 224 289 354 419
#     4  11  23  40  68  93 133 173 229 285 341 409
#
# _framework density 21.540403999999999
#
# number of rings (size 3 to 8) (size 9 to 14) (size 15 to 20)
#    0.000    1.200    4.000    1.800    2.800    0.000 
#    0.000    0.000    0.000    0.000    0.000    0.000 
#    0.000    0.000    0.000    0.000    0.000    0.000 
#
# Total GULP energy -495537.166974 kJ/mol
# GULP energy per Si atom -12388.429174 kJ/mol
# Density = 2.149138 g / cm^3
# Si number density = 21.540404 Si / 1000 Ang^3
#
#
#
# Elastic Constant Matrix: (Units=GPa)
#
#
# Indices 1 2 3 4 5 6 
#
# 1 80.7068 22.5827 8.3423 0.0000 0.0000 0.0000
# 2 22.5827 80.7063 8.3427 0.0000 0.0000 0.0000
# 3 8.3423 8.3427 91.0675 0.0000 0.0000 0.0000
# 4 0.0000 0.0000 0.0000 31.7139 0.0000 0.0000
# 5 0.0000 0.0000 0.0000 0.0000 31.7140 0.0000
# 6 0.0000 0.0000 0.0000 0.0000 0.0000 37.0302
#
#
#
# Elastic Compliance Matrix: (Units=1/GPa)
#
#
# Indices 1 2 3 4 5 6 
#
# 1 0.013516 -0.003689 -0.000900 0.000000 0.000000 0.000000
# 2 -0.003689 0.013516 -0.000900 0.000000 0.000000 0.000000
# 3 -0.000900 -0.000900 0.011146 0.000000 0.000000 0.000000
# 4 0.000000 0.000000 0.000000 0.031532 0.000000 0.000000
# 5 0.000000 0.000000 0.000000 0.000000 0.031532 0.000000
# 6 0.000000 0.000000 0.000000 0.000000 0.000000 0.027005
#
#
# Mechanical properties :
#
#
# Convention : Reuss Voigt Hill
#
# Bulk Modulus (GPa) = 36.76629 36.77956 36.77292
# Shear Modulus (GPa) = 33.71751 34.30584 34.01167
#
# Velocity S-wave (km/s) = 3.96070 3.99510 3.97794
# Velocity P-wave (km/s) = 6.16618 6.19620 6.18121
#
# Compressibility (1/GPa) = 0.02719883
#
# Stress axis : x y z
#
# Youngs Moduli (GPa) = 73.98774 73.98720 89.71992
#
# Poissons Ratio (x) = 0.27293 0.08076
# Poissons Ratio (y) = 0.27293 0.08077
# Poissons Ratio (z) = 0.06660 0.06661
#
# Static dielectric constant tensor:
#      x y z
#    x 3.818650 0.000000 0.000000 
#    y 0.000000 3.818650 0.000000 
#    z 0.000000 0.000000 3.645910 
# 
# 
# High freq. dielectric constant tensor:
#      x y z
#    x 1.841730 0.000000 0.000000 
#    y 0.000000 1.841730 0.000000 
#    z 0.000000 0.000000 1.838040 
# 
# From -- ./inp_files/2600.got.cif
#   From: 2010.03.12/outbox.cif.g09.slc.cpg/sg92_2_cif.got.tgz:2600.got - 2010.04.08 20:41:11.
