data_PCOD8305218
_publ_section_title
;
Structure prediction by ZEFSAII (Michael W. Deem and Ramdas Pophale) SiO2 
 PCOD8305218
Probable space group: P 41 21 2
;
_chemical_formula_sum "Si O2"
_cell_formula_units_Z 44
_cell_length_a 8.596575
_cell_length_b 8.596575
_cell_length_c 27.681421
_cell_angle_alpha 90.000000
_cell_angle_beta 90.000000
_cell_angle_gamma 90.000000
_cell_volume 2045.687509
_symmetry_space_group_name_H-M "P 41 21 2"
_symmetry_group_IT_number 92
_symmetry_cell_setting 'tetragonal'
loop_
_space_group_symop_operation_xyz
x,y,z
1/2-y,1/2+x,1/4+z
-x,-y,1/2+z
1/2+y,1/2-x,3/4+z
1/2+x,1/2-y,3/4-z
1/2-x,1/2+y,1/4-z
y,x,-z
-y,-x,1/2-z
loop_
_atom_site_type_symbol
_atom_site_label
_atom_site_fract_x
_atom_site_fract_y
_atom_site_fract_z
Si Si1 0.847267 0.226266 0.503834
Si Si2 0.805629 0.396969 0.922566
Si Si3 0.008270 0.302932 0.409243
Si Si4 0.445956 0.765303 0.655070
Si Si5 0.366736 0.633265 0.250000
Si Si6 0.767975 0.363476 0.652223
O O1 0.676173 0.260715 0.526977
O O2 0.881051 0.308362 0.452634
O O3 0.983156 0.280394 0.541106
O O4 0.843400 0.046858 0.491152
O O5 0.857553 0.574932 0.924970
O O6 0.669964 0.378600 0.882812
O O7 0.951720 0.292648 0.904517
O O8 0.099936 0.141914 0.402379
O O9 0.915830 0.339695 0.359349
O O10 0.583471 0.767320 0.615992
O O11 0.271149 0.700676 0.205087
#
# Coordination Sequence:
#
# PCOD8305218 Si02
#       6
#     8   8   8   8   4   8
#     4  10  20  40  61  82 122 165 205 244 306 382
#     4   9  21  38  60  87 117 155 203 250 296 362
#     4  11  22  37  63  90 122 161 200 252 323 352
#     4  10  22  39  58  89 124 157 202 261 301 379
#     4  10  18  36  68  80 110 172 204 236 302 374
#     4   9  20  39  58  89 114 157 211 245 290 366
#
# _framework density 21.508662999999999
#
# number of rings (size 3 to 8) (size 9 to 14) (size 15 to 20)
#    0.000    2.182    1.818    0.000    2.545    1.455 
#   26.182    0.000    4.000    0.000    0.000    0.000 
#    0.000    0.000    0.000    0.000    0.000    0.000 
#
# Total GULP energy -545181.376047 kJ/mol
# GULP energy per Si atom -12390.485819 kJ/mol
# Density = 2.145971 g / cm^3
# Si number density = 21.508663 Si / 1000 Ang^3
#
#
#
# Elastic Constant Matrix: (Units=GPa)
#
#
# Indices 1 2 3 4 5 6 
#
# 1 47.6533 9.8500 21.0600 0.0000 0.0000 0.0000
# 2 9.8500 47.6541 21.0592 0.0000 0.0000 0.0000
# 3 21.0600 21.0592 70.0158 0.0000 0.0000 0.0000
# 4 0.0000 0.0000 0.0000 12.8052 0.0000 0.0000
# 5 0.0000 0.0000 0.0000 0.0000 12.8037 0.0000
# 6 0.0000 0.0000 0.0000 0.0000 0.0000 37.9762
#
#
#
# Elastic Compliance Matrix: (Units=1/GPa)
#
#
# Indices 1 2 3 4 5 6 
#
# 1 0.024379 -0.002074 -0.006709 0.000000 0.000000 0.000000
# 2 -0.002074 0.024378 -0.006708 0.000000 0.000000 0.000000
# 3 -0.006709 -0.006708 0.018318 0.000000 0.000000 0.000000
# 4 0.000000 0.000000 0.000000 0.078093 0.000000 0.000000
# 5 0.000000 0.000000 0.000000 0.000000 0.078102 0.000000
# 6 0.000000 0.000000 0.000000 0.000000 0.000000 0.026332
#
#
# Mechanical properties :
#
#
# Convention : Reuss Voigt Hill
#
# Bulk Modulus (GPa) = 27.70734 29.91796 28.81265
# Shear Modulus (GPa) = 17.08723 20.27396 18.68060
#
# Velocity S-wave (km/s) = 2.82163 3.07350 2.95026
# Velocity P-wave (km/s) = 4.85030 5.15123 5.00302
#
# Compressibility (1/GPa) = 0.03609152
#
# Stress axis : x y z
#
# Youngs Moduli (GPa) = 41.01954 41.02086 54.59050
#
# Poissons Ratio (x) = 0.08509 0.36624
# Poissons Ratio (y) = 0.08508 0.36622
# Poissons Ratio (z) = 0.27520 0.27519
#
# Static dielectric constant tensor:
#      x y z
#    x 4.032490 0.000000 0.000000 
#    y 0.000000 4.032570 0.000000 
#    z 0.000000 0.000000 5.369160 
# 
# 
# High freq. dielectric constant tensor:
#      x y z
#    x 1.834590 0.000000 0.000000 
#    y 0.000000 1.834590 0.000000 
#    z 0.000000 0.000000 1.840930 
# 
# From -- ./inp_files/4425.got.cif
#   From: 2010.03.12/outbox.cif.g09.slc.cpg/sg92_3_cif.got.tgz:4425.got - 2010.04.08 20:41:11.
