data_PCOD8305909
_publ_section_title
;
Structure prediction by ZEFSAII (Michael W. Deem and Ramdas Pophale) SiO2 
 PCOD8305909
Probable space group: P 43 21 2
;
_chemical_formula_sum "Si O2"
_cell_formula_units_Z 48
_cell_length_a 8.594687
_cell_length_b 8.594687
_cell_length_c 25.502787
_cell_angle_alpha 90.000000
_cell_angle_beta 90.000000
_cell_angle_gamma 90.000000
_cell_volume 1883.856310
_symmetry_space_group_name_H-M "P 43 21 2"
_symmetry_group_IT_number 96
_symmetry_cell_setting 'tetragonal'
loop_
_space_group_symop_operation_xyz
x,y,z
1/2-y,1/2+x,3/4+z
-x,-y,1/2+z
1/2+y,1/2-x,1/4+z
1/2+x,1/2-y,1/4-z
1/2-x,1/2+y,3/4-z
y,x,-z
-y,-x,1/2-z
loop_
_atom_site_type_symbol
_atom_site_label
_atom_site_fract_x
_atom_site_fract_y
_atom_site_fract_z
Si Si1 0.555946 0.127533 0.810610
Si Si2 0.679922 0.954963 0.713943
Si Si3 0.787244 0.946159 0.342777
Si Si4 0.083378 0.633216 0.077082
Si Si5 0.618473 0.615824 0.256953
Si Si6 0.779481 0.684657 0.556933
O O1 0.387323 0.049566 0.818984
O O2 0.515352 0.300859 0.791543
O O3 0.669923 0.033727 0.771406
O O4 0.653960 0.139430 0.863764
O O5 0.851120 0.911227 0.693308
O O6 0.591615 0.787196 0.716486
O O7 0.599219 0.080243 0.674650
O O8 0.786034 0.887377 0.403077
O O9 0.841994 0.122643 0.340582
O O10 0.161734 0.489815 0.046180
O O11 0.131445 0.790092 0.047610
O O12 0.560021 0.439980 0.250000
O O13 0.761799 0.761799 0.500000
#
# Coordination Sequence:
#
# PCOD8305909 Si02
#       6
#     8   8   8   8   8   8
#     4   9  20  39  61  88 128 163 202 258 318 383
#     4  10  20  39  64  91 124 164 212 265 319 380
#     4  10  21  37  63 100 133 166 215 271 328 391
#     4  10  22  41  63  87 125 167 206 260 320 379
#     4  10  22  40  60  87 122 161 205 257 313 376
#     4  11  21  38  64  93 132 171 211 269 332 389
#
# _framework density 25.479652000000002
#
# number of rings (size 3 to 8) (size 9 to 14) (size 15 to 20)
#    0.000    2.000    0.000    5.000    0.000    3.333 
#    0.000   16.667    0.000    0.000    0.000    0.000 
#    0.000    0.000    0.000    0.000    0.000    0.000 
#
# Total GULP energy -594826.433548 kJ/mol
# GULP energy per Si atom -12392.217366 kJ/mol
# Density = 2.542166 g / cm^3
# Si number density = 25.479652 Si / 1000 Ang^3
#
#
#
# Elastic Constant Matrix: (Units=GPa)
#
#
# Indices 1 2 3 4 5 6 
#
# 1 54.9559 18.2464 19.6303 0.0000 0.0000 0.0000
# 2 18.2464 54.9568 19.6307 0.0000 0.0000 0.0000
# 3 19.6303 19.6307 184.2976 0.0000 0.0000 0.0000
# 4 0.0000 0.0000 0.0000 30.4451 0.0000 0.0000
# 5 0.0000 0.0000 0.0000 0.0000 30.4453 0.0000
# 6 0.0000 0.0000 0.0000 0.0000 0.0000 36.8351
#
#
#
# Elastic Compliance Matrix: (Units=1/GPa)
#
#
# Indices 1 2 3 4 5 6 
#
# 1 0.020865 -0.006376 -0.001543 0.000000 0.000000 0.000000
# 2 -0.006376 0.020864 -0.001543 0.000000 0.000000 0.000000
# 3 -0.001543 -0.001543 0.005755 0.000000 0.000000 0.000000
# 4 0.000000 0.000000 0.000000 0.032846 0.000000 0.000000
# 5 0.000000 0.000000 0.000000 0.000000 0.032846 0.000000
# 6 0.000000 0.000000 0.000000 0.000000 0.000000 0.027148
#
#
# Mechanical properties :
#
#
# Convention : Reuss Voigt Hill
#
# Bulk Modulus (GPa) = 35.01575 45.46946 40.24260
# Shear Modulus (GPa) = 29.62642 35.32528 32.47585
#
# Velocity S-wave (km/s) = 3.41361 3.72749 3.57400
# Velocity P-wave (km/s) = 5.41382 6.03405 5.73233
#
# Compressibility (1/GPa) = 0.02855858
#
# Stress axis : x y z
#
# Youngs Moduli (GPa) = 47.92800 47.92868 173.76913
#
# Poissons Ratio (x) = 0.30560 0.26816
# Poissons Ratio (y) = 0.30559 0.26817
# Poissons Ratio (z) = 0.07396 0.07397
#
# Static dielectric constant tensor:
#      x y z
#    x 4.468620 0.000000 0.000000 
#    y 0.000000 4.468610 0.000000 
#    z 0.000000 0.000000 4.631430 
# 
# 
# High freq. dielectric constant tensor:
#      x y z
#    x 2.009640 0.000000 0.000000 
#    y 0.000000 2.009640 0.000000 
#    z 0.000000 0.000000 2.026390 
# 
# From -- ./inp_files/4487.got.cif
#   From: 2010.03.12/outbox.cif.g09.slc.cpg/sg96_3_cif.got.tgz:4487.got - 2010.04.08 20:56:49.
