data_PCOD8305872
_publ_section_title
;
Structure prediction by ZEFSAII (Michael W. Deem and Ramdas Pophale) SiO2 
 PCOD8305872
Probable space group: P 43 21 2
;
_chemical_formula_sum "Si O2"
_cell_formula_units_Z 64
_cell_length_a 15.650553
_cell_length_b 15.650553
_cell_length_c 17.819216
_cell_angle_alpha 90.000000
_cell_angle_beta 90.000000
_cell_angle_gamma 90.000000
_cell_volume 4364.635367
_symmetry_space_group_name_H-M "P 43 21 2"
_symmetry_group_IT_number 96
_symmetry_cell_setting 'tetragonal'
loop_
_space_group_symop_operation_xyz
x,y,z
1/2-y,1/2+x,3/4+z
-x,-y,1/2+z
1/2+y,1/2-x,1/4+z
1/2+x,1/2-y,1/4-z
1/2-x,1/2+y,3/4-z
y,x,-z
-y,-x,1/2-z
loop_
_atom_site_type_symbol
_atom_site_label
_atom_site_fract_x
_atom_site_fract_y
_atom_site_fract_z
Si Si1 0.128718 0.702744 0.359291
Si Si2 0.218858 0.708864 0.068947
Si Si3 0.539926 0.634051 0.936260
Si Si4 0.645532 0.887039 0.039233
Si Si5 0.153794 0.532186 0.416716
Si Si6 0.409484 0.501061 0.317687
Si Si7 0.097382 0.160524 0.703148
Si Si8 0.957410 0.277052 0.518184
O O1 0.195312 0.756437 0.408513
O O2 0.052336 0.766518 0.336747
O O3 0.176380 0.662200 0.286318
O O4 0.097325 0.619532 0.407997
O O5 0.180332 0.666701 0.142432
O O6 0.300696 0.659289 0.036064
O O7 0.144396 0.708783 0.005300
O O8 0.546185 0.576456 0.862312
O O9 0.610750 0.610750 0.000000
O O10 0.446828 0.618414 0.973670
O O11 0.687031 0.981982 0.048225
O O12 0.541176 0.892082 0.033704
O O13 0.245215 0.557935 0.449916
O O14 0.165843 0.487138 0.337418
O O15 0.470347 0.529654 0.250000
O O16 0.391444 0.577230 0.376801
O O17 0.322760 0.470147 0.280250
#
# Coordination Sequence:
#
# PCOD8305872 Si02
#       8
#     8   8   8   8   8   8   8   8
#     4  10  16  24  41  59  88 118 138 170 205 257
#     4  10  17  26  39  63  86 112 143 166 205 266
#     4  10  17  27  43  63  88 115 142 177 222 260
#     4  10  16  25  39  60  92 116 137 166 214 256
#     4   8  16  24  36  61  85 113 141 161 202 262
#     4  10  18  28  40  64  93 113 144 177 217 264
#     4   9  17  27  41  61  88 118 146 171 212 262
#     4   9  17  25  38  61  85 113 135 168 211 256
#
# _framework density 14.663309
#
# number of rings (size 3 to 8) (size 9 to 14) (size 15 to 20)
#    0.000    2.500    2.500    2.625    0.000    0.000 
#    0.000    0.000    0.000    0.000   13.000    0.000 
#    0.000    0.000    0.000    0.000    0.000    0.000 
#
# Total GULP energy -792858.878617 kJ/mol
# GULP energy per Si atom -12388.419978 kJ/mol
# Density = 1.462993 g / cm^3
# Si number density = 14.663309 Si / 1000 Ang^3
#
#
#
# Elastic Constant Matrix: (Units=GPa)
#
#
# Indices 1 2 3 4 5 6 
#
# 1 72.2093 19.0480 17.5920 0.0000 0.0000 0.0000
# 2 19.0480 72.2084 17.5922 0.0000 0.0000 0.0000
# 3 17.5920 17.5922 34.7074 0.0000 0.0000 0.0000
# 4 0.0000 0.0000 0.0000 17.5335 0.0000 0.0000
# 5 0.0000 0.0000 0.0000 0.0000 17.5334 0.0000
# 6 0.0000 0.0000 0.0000 0.0000 0.0000 15.2476
#
#
#
# Elastic Compliance Matrix: (Units=1/GPa)
#
#
# Indices 1 2 3 4 5 6 
#
# 1 0.016215 -0.002596 -0.006903 0.000000 0.000000 0.000000
# 2 -0.002596 0.016215 -0.006904 0.000000 0.000000 0.000000
# 3 -0.006903 -0.006904 0.035811 0.000000 0.000000 0.000000
# 4 0.000000 0.000000 0.000000 0.057034 0.000000 0.000000
# 5 0.000000 0.000000 0.000000 0.000000 0.057034 0.000000
# 6 0.000000 0.000000 0.000000 0.000000 0.000000 0.065584
#
#
# Mechanical properties :
#
#
# Convention : Reuss Voigt Hill
#
# Bulk Modulus (GPa) = 28.21961 31.95438 30.08700
# Shear Modulus (GPa) = 17.09347 18.38911 17.74129
#
# Velocity S-wave (km/s) = 3.41798 3.54516 3.48215
# Velocity P-wave (km/s) = 5.90454 6.21264 6.06055
#
# Compressibility (1/GPa) = 0.03543635
#
# Stress axis : x y z
#
# Youngs Moduli (GPa) = 61.67087 61.66978 27.92475
#
# Poissons Ratio (x) = 0.16007 0.19277
# Poissons Ratio (y) = 0.16007 0.19278
# Poissons Ratio (z) = 0.42573 0.42574
#
# Static dielectric constant tensor:
#      x y z
#    x 2.979280 0.000000 0.000000 
#    y 0.000000 2.979280 0.000000 
#    z 0.000000 0.000000 2.671450 
# 
# 
# High freq. dielectric constant tensor:
#      x y z
#    x 1.549120 0.000000 0.000000 
#    y 0.000000 1.549120 0.000000 
#    z 0.000000 0.000000 1.520880 
# 
# From -- ./inp_files/3222.got.cif
#   From: 2010.03.12/outbox.cif.g09.slc.cpg/sg96_2_cif.got.tgz:3222.got - 2010.04.08 20:56:49.
