data_PCOD8305173
_publ_section_title
;
Structure prediction by ZEFSAII (Michael W. Deem and Ramdas Pophale) SiO2 
 PCOD8305173
Probable space group: P 41 2 2
;
_chemical_formula_sum "Si O2"
_cell_formula_units_Z 28
_cell_length_a 8.260616
_cell_length_b 8.260616
_cell_length_c 17.832267
_cell_angle_alpha 90.000000
_cell_angle_beta 90.000000
_cell_angle_gamma 90.000000
_cell_volume 1216.834254
_symmetry_space_group_name_H-M "P 41 2 2"
_symmetry_group_IT_number 91
_symmetry_cell_setting 'tetragonal'
loop_
_space_group_symop_operation_xyz
x,y,z
-y,x,1/4+z
-x,-y,1/2+z
y,-x,3/4+z
x,-y,1/2-z
-x,y,-z
y,x,3/4-z
-y,-x,1/4-z
loop_
_atom_site_type_symbol
_atom_site_label
_atom_site_fract_x
_atom_site_fract_y
_atom_site_fract_z
Si Si1 0.209384 0.839543 0.847346
Si Si2 0.317423 0.663147 0.984853
Si Si3 0.329151 0.194577 0.805376
Si Si4 0.839086 0.160915 0.625000
O O1 0.330394 0.766226 0.908563
O O2 0.221508 0.750595 0.766410
O O3 0.031110 0.814481 0.880084
O O4 0.266998 0.022734 0.835078
O O5 0.194883 0.513850 0.972526
O O6 0.500000 0.602198 0.000000
O O7 0.247004 0.771224 0.051514
O O8 0.317572 0.317572 0.875000
#
# Coordination Sequence:
#
# PCOD8305173 Si02
#       4
#     8   8   8   4
#     4  11  26  47  76 105 147 202 251 303 370 452
#     4  12  29  46  76 111 155 194 248 315 385 442
#     4  11  26  48  72 106 151 195 249 306 370 445
#     4  12  26  50  76 110 148 202 254 312 366 466
#
# _framework density 23.010532000000001
#
# number of rings (size 3 to 8) (size 9 to 14) (size 15 to 20)
#    0.000    0.571    1.429    4.286   22.000    0.000 
#    0.000    0.000    0.000    0.000    0.000    0.000 
#    0.000    0.000    0.000    0.000    0.000    0.000 
#
# Total GULP energy -347204.338149 kJ/mol
# GULP energy per Si atom -12400.154934 kJ/mol
# Density = 2.295816 g / cm^3
# Si number density = 23.010532 Si / 1000 Ang^3
#
#
#
# Elastic Constant Matrix: (Units=GPa)
#
#
# Indices 1 2 3 4 5 6 
#
# 1 81.3803 60.3397 38.6031 0.0000 0.0000 0.0000
# 2 60.3397 81.3792 38.6027 0.0000 0.0000 0.0000
# 3 38.6031 38.6027 155.2007 0.0000 0.0000 0.0000
# 4 0.0000 0.0000 0.0000 30.6602 0.0000 0.0000
# 5 0.0000 0.0000 0.0000 0.0000 30.6601 0.0000
# 6 0.0000 0.0000 0.0000 0.0000 0.0000 33.2866
#
#
#
# Elastic Compliance Matrix: (Units=1/GPa)
#
#
# Indices 1 2 3 4 5 6 
#
# 1 0.027845 -0.019683 -0.002030 0.000000 0.000000 0.000000
# 2 -0.019683 0.027846 -0.002030 0.000000 0.000000 0.000000
# 3 -0.002030 -0.002030 0.007453 0.000000 0.000000 0.000000
# 4 0.000000 0.000000 0.000000 0.032616 0.000000 0.000000
# 5 0.000000 0.000000 0.000000 0.000000 0.032616 0.000000
# 6 0.000000 0.000000 0.000000 0.000000 0.000000 0.030042
#
#
# Mechanical properties :
#
#
# Convention : Reuss Voigt Hill
#
# Bulk Modulus (GPa) = 63.86966 65.89457 64.88212
# Shear Modulus (GPa) = 23.68285 30.94902 27.31594
#
# Velocity S-wave (km/s) = 3.21162 3.67139 3.44918
# Velocity P-wave (km/s) = 6.44745 6.83162 6.64232
#
# Compressibility (1/GPa) = 0.01565689
#
# Stress axis : x y z
#
# Youngs Moduli (GPa) = 35.91291 35.91242 134.17062
#
# Poissons Ratio (x) = 0.70687 0.27239
# Poissons Ratio (y) = 0.70688 0.27239
# Poissons Ratio (z) = 0.07291 0.07291
#
# Static dielectric constant tensor:
#      x y z
#    x 4.052790 0.000000 0.000000 
#    y 0.000000 4.052810 0.000000 
#    z 0.000000 0.000000 4.849930 
# 
# 
# High freq. dielectric constant tensor:
#      x y z
#    x 1.905280 0.000000 0.000000 
#    y 0.000000 1.905280 0.000000 
#    z 0.000000 0.000000 1.941390 
# 
# From -- ./inp_files/5867.got.cif
#   From: 2010.03.12/outbox.cif.g09.slc.cpg/sg91_3_cif.got.tgz:5867.got - 2010.04.08 20:27:58.
