data_PCOD8305998
_publ_section_title
;
Structure prediction by ZEFSAII (Michael W. Deem and Ramdas Pophale) SiO2 
 PCOD8305998
Probable space group: P 43 21 2
;
_chemical_formula_sum "Si O2"
_cell_formula_units_Z 40
_cell_length_a 13.934978
_cell_length_b 13.934978
_cell_length_c 8.985814
_cell_angle_alpha 90.000000
_cell_angle_beta 90.000000
_cell_angle_gamma 90.000000
_cell_volume 1744.897818
_symmetry_space_group_name_H-M "P 43 21 2"
_symmetry_group_IT_number 96
_symmetry_cell_setting 'tetragonal'
loop_
_space_group_symop_operation_xyz
x,y,z
1/2-y,1/2+x,3/4+z
-x,-y,1/2+z
1/2+y,1/2-x,1/4+z
1/2+x,1/2-y,1/4-z
1/2-x,1/2+y,3/4-z
y,x,-z
-y,-x,1/2-z
loop_
_atom_site_type_symbol
_atom_site_label
_atom_site_fract_x
_atom_site_fract_y
_atom_site_fract_z
Si Si1 0.835314 0.201708 0.088842
Si Si2 0.938176 0.596459 0.846693
Si Si3 0.232484 0.048851 0.873738
Si Si4 0.614609 0.268193 0.441806
Si Si5 0.730078 0.587475 0.912579
O O1 0.787530 0.212471 0.250000
O O2 0.803229 0.299868 0.001558
O O3 0.947643 0.182323 0.095691
O O4 0.791823 0.106943 0.011225
O O5 0.928483 0.511691 0.726810
O O6 0.968397 0.688486 0.751705
O O7 0.840063 0.618319 0.936273
O O8 0.152808 0.123517 0.820026
O O9 0.275579 0.081055 0.033020
O O10 0.525664 0.276487 0.554570
O O11 0.653977 0.653977 0.000000
#
# Coordination Sequence:
#
# PCOD8305998 Si02
#       5
#     8   8   8   8   8
#     4  12  24  49  75 104 153 199 245 308 376 454
#     4  12  29  46  72 113 145 195 254 310 385 454
#     4  11  23  46  74 104 144 197 243 298 378 451
#     4  11  24  46  75 106 149 197 243 307 376 444
#     4  12  27  47  74 112 147 194 251 310 376 446
#
# _framework density 22.92398
#
# number of rings (size 3 to 8) (size 9 to 14) (size 15 to 20)
#    0.000    0.400    6.000    2.400    8.400    0.800 
#    0.000    2.000    0.000    0.000    0.000    0.000 
#    0.000    0.000    0.000    0.000    0.000    0.000 
#
# Total GULP energy -495805.339517 kJ/mol
# GULP energy per Si atom -12395.133488 kJ/mol
# Density = 2.287180 g / cm^3
# Si number density = 22.923980 Si / 1000 Ang^3
#
#
#
# Elastic Constant Matrix: (Units=GPa)
#
#
# Indices 1 2 3 4 5 6 
#
# 1 104.5144 9.7907 38.4257 0.0000 0.0000 0.0000
# 2 9.7907 104.5144 38.4255 0.0000 0.0000 0.0000
# 3 38.4257 38.4255 92.8556 0.0000 0.0000 0.0000
# 4 0.0000 0.0000 0.0000 40.8295 0.0000 0.0000
# 5 0.0000 0.0000 0.0000 0.0000 40.8294 0.0000
# 6 0.0000 0.0000 0.0000 0.0000 0.0000 26.6109
#
#
#
# Elastic Compliance Matrix: (Units=1/GPa)
#
#
# Indices 1 2 3 4 5 6 
#
# 1 0.011339 0.000782 -0.005016 0.000000 0.000000 0.000000
# 2 0.000782 0.011339 -0.005016 0.000000 0.000000 0.000000
# 3 -0.005016 -0.005016 0.014921 0.000000 0.000000 0.000000
# 4 0.000000 0.000000 0.000000 0.024492 0.000000 0.000000
# 5 0.000000 0.000000 0.000000 0.000000 0.024492 0.000000
# 6 0.000000 0.000000 0.000000 0.000000 0.000000 0.037579
#
#
# Mechanical properties :
#
#
# Convention : Reuss Voigt Hill
#
# Bulk Modulus (GPa) = 52.35876 52.79647 52.57762
# Shear Modulus (GPa) = 33.55088 36.00346 34.77717
#
# Velocity S-wave (km/s) = 3.82982 3.96733 3.89918
# Velocity P-wave (km/s) = 6.51509 6.63832 6.57700
#
# Compressibility (1/GPa) = 0.01909900
#
# Stress axis : x y z
#
# Youngs Moduli (GPa) = 88.19160 88.19180 67.02071
#
# Poissons Ratio (x) = -0.06896 0.33617
# Poissons Ratio (y) = -0.06896 0.33617
# Poissons Ratio (z) = 0.44236 0.44236
#
# Static dielectric constant tensor:
#      x y z
#    x 4.267640 0.000000 0.000000 
#    y 0.000000 4.267620 0.000000 
#    z 0.000000 0.000000 4.383040 
# 
# 
# High freq. dielectric constant tensor:
#      x y z
#    x 1.909720 0.000000 0.000000 
#    y 0.000000 1.909720 0.000000 
#    z 0.000000 0.000000 1.910550 
# 
# From -- ./inp_files/1287.got.cif
#   From: 2010.03.12/outbox.cif.g09.slc.cpg/sg96_1_cif.got.tgz:1287.got - 2010.04.08 20:56:49.
