data_PCOD8305004
_publ_section_title
;
Structure prediction by ZEFSAII (Michael W. Deem and Ramdas Pophale) SiO2 
 PCOD8305004
Probable space group: P 41 2 2
;
_chemical_formula_sum "Si O2"
_cell_formula_units_Z 36
_cell_length_a 8.664551
_cell_length_b 8.664551
_cell_length_c 19.088897
_cell_angle_alpha 90.000000
_cell_angle_beta 90.000000
_cell_angle_gamma 90.000000
_cell_volume 1433.088329
_symmetry_space_group_name_H-M "P 41 2 2"
_symmetry_group_IT_number 91
_symmetry_cell_setting 'tetragonal'
loop_
_space_group_symop_operation_xyz
x,y,z
-y,x,1/4+z
-x,-y,1/2+z
y,-x,3/4+z
x,-y,1/2-z
-x,y,-z
y,x,3/4-z
-y,-x,1/4-z
loop_
_atom_site_type_symbol
_atom_site_label
_atom_site_fract_x
_atom_site_fract_y
_atom_site_fract_z
Si Si1 0.333693 0.721579 0.298952
Si Si2 0.736838 0.969364 0.469712
Si Si3 0.034264 0.566751 0.857053
Si Si4 0.761452 0.000000 0.250000
Si Si5 0.538568 0.757272 0.173743
O O1 0.154939 0.740802 0.280269
O O2 0.440068 0.665547 0.233196
O O3 0.362021 0.619816 0.369847
O O4 0.398458 0.888808 0.318399
O O5 0.691488 0.919477 0.548755
O O6 0.604485 0.913365 0.417032
O O7 0.895670 0.878968 0.452135
O O8 0.851464 0.576765 0.872617
O O9 0.659678 0.115024 0.296980
#
# Coordination Sequence:
#
# PCOD8305004 Si02
#       5
#     8   8   8   4   8
#     4  11  23  46  74 105 149 201 241 317 379 451
#     4  10  25  41  73 107 144 190 253 309 376 448
#     4  10  21  45  68  96 155 191 237 316 379 437
#     4  12  22  42  72 120 132 194 256 308 364 452
#     4  11  24  44  75 106 152 193 253 307 386 447
#
# _framework density 25.120571999999999
#
# number of rings (size 3 to 8) (size 9 to 14) (size 15 to 20)
#    0.000    1.333    4.444    0.000    3.111    4.444 
#    0.000    0.000   44.000    0.000    0.000    0.000 
#    0.000    0.000    0.000    0.000    0.000    0.000 
#
# Total GULP energy -446007.246447 kJ/mol
# GULP energy per Si atom -12389.090179 kJ/mol
# Density = 2.506340 g / cm^3
# Si number density = 25.120572 Si / 1000 Ang^3
#
#
#
# Elastic Constant Matrix: (Units=GPa)
#
#
# Indices 1 2 3 4 5 6 
#
# 1 84.6108 53.7017 31.0151 0.0000 0.0000 0.0000
# 2 53.7017 84.6108 31.0151 0.0000 0.0000 0.0000
# 3 31.0151 31.0151 90.2803 0.0000 0.0000 0.0000
# 4 0.0000 0.0000 0.0000 42.2188 0.0000 0.0000
# 5 0.0000 0.0000 0.0000 0.0000 42.2188 0.0000
# 6 0.0000 0.0000 0.0000 0.0000 0.0000 28.8233
#
#
#
# Elastic Compliance Matrix: (Units=1/GPa)
#
#
# Indices 1 2 3 4 5 6 
#
# 1 0.020450 -0.011903 -0.002936 0.000000 0.000000 0.000000
# 2 -0.011903 0.020450 -0.002936 0.000000 0.000000 0.000000
# 3 -0.002936 -0.002936 0.013094 0.000000 0.000000 0.000000
# 4 0.000000 0.000000 0.000000 0.023686 0.000000 0.000000
# 5 0.000000 0.000000 0.000000 0.000000 0.023686 0.000000
# 6 0.000000 0.000000 0.000000 0.000000 0.000000 0.034694
#
#
# Mechanical properties :
#
#
# Convention : Reuss Voigt Hill
#
# Bulk Modulus (GPa) = 54.22142 54.55175 54.38659
# Shear Modulus (GPa) = 28.12801 32.23686 30.18243
#
# Velocity S-wave (km/s) = 3.34985 3.58618 3.47003
# Velocity P-wave (km/s) = 6.04924 6.23785 6.14427
#
# Compressibility (1/GPa) = 0.01844289
#
# Stress axis : x y z
#
# Youngs Moduli (GPa) = 48.90001 48.90001 76.37065
#
# Poissons Ratio (x) = 0.58206 0.22424
# Poissons Ratio (y) = 0.58206 0.22424
# Poissons Ratio (z) = 0.14358 0.14358
#
# Static dielectric constant tensor:
#      x y z
#    x 4.476470 0.000000 0.000000 
#    y 0.000000 4.476470 0.000000 
#    z 0.000000 0.000000 4.683350 
# 
# 
# High freq. dielectric constant tensor:
#      x y z
#    x 1.991560 0.000000 0.000000 
#    y 0.000000 1.991560 0.000000 
#    z 0.000000 0.000000 2.015180 
# 
# From -- ./inp_files/6184.got.cif
#   From: 2010.03.12/outbox.cif.g09.slc.cpg/sg91_4_cif.got.tgz:6184.got - 2010.04.08 20:27:58.
