data_PCOD8305319
_publ_section_title
;
Structure prediction by ZEFSAII (Michael W. Deem and Ramdas Pophale) SiO2 
 PCOD8305319
Probable space group: P 41 21 2
;
_chemical_formula_sum "Si O2"
_cell_formula_units_Z 48
_cell_length_a 8.943054
_cell_length_b 8.943054
_cell_length_c 30.603684
_cell_angle_alpha 90.000000
_cell_angle_beta 90.000000
_cell_angle_gamma 90.000000
_cell_volume 2447.628014
_symmetry_space_group_name_H-M "P 41 21 2"
_symmetry_group_IT_number 92
_symmetry_cell_setting 'tetragonal'
loop_
_space_group_symop_operation_xyz
x,y,z
1/2-y,1/2+x,1/4+z
-x,-y,1/2+z
1/2+y,1/2-x,3/4+z
1/2+x,1/2-y,3/4-z
1/2-x,1/2+y,1/4-z
y,x,-z
-y,-x,1/2-z
loop_
_atom_site_type_symbol
_atom_site_label
_atom_site_fract_x
_atom_site_fract_y
_atom_site_fract_z
Si Si1 0.672436 0.327651 0.001299
Si Si2 0.674041 0.674041 0.500000
Si Si3 0.672141 0.666207 0.170020
Si Si4 0.172499 0.356489 0.165685
Si Si5 0.328639 0.328639 0.500000
Si Si6 0.332872 0.673691 0.329868
Si Si7 0.327027 0.141857 0.584637
O O1 0.499704 0.292320 0.992284
O O2 0.762259 0.282937 0.958169
O O3 0.697869 0.500075 0.013473
O O4 0.727605 0.228964 0.041234
O O5 0.726559 0.763191 0.542141
O O6 0.499356 0.675280 0.183815
O O7 0.704419 0.754661 0.125908
O O8 0.717759 0.497054 0.160928
O O9 0.205159 0.253930 0.124291
O O10 0.280689 0.496876 0.162608
O O11 0.999946 0.408292 0.167267
O O12 0.280787 0.230120 0.541103
#
# Coordination Sequence:
#
# PCOD8305319 Si02
#       7
#     8   4   8   8   4   8   8
#     4  10  21  39  61  84 115 155 195 237 288 345
#     4  11  22  39  62  86 118 159 196 239 294 348
#     4  11  23  38  59  87 117 150 192 240 288 344
#     4  10  22  40  60  85 118 154 195 240 291 348
#     4   9  20  39  60  82 112 151 194 235 282 342
#     4  11  23  39  60  89 120 153 197 244 291 348
#     4  10  22  39  59  84 115 152 190 235 288 343
#
# _framework density 19.610821000000001
#
# number of rings (size 3 to 8) (size 9 to 14) (size 15 to 20)
#    0.000    1.667    0.000    4.000    0.000    8.667 
#    0.000    0.000    0.000    0.000    0.000    0.000 
#    0.000    0.000    0.000    0.000    0.000    0.000 
#
# Total GULP energy -595502.924356 kJ/mol
# GULP energy per Si atom -12406.310924 kJ/mol
# Density = 1.956619 g / cm^3
# Si number density = 19.610821 Si / 1000 Ang^3
#
#
#
# Elastic Constant Matrix: (Units=GPa)
#
#
# Indices 1 2 3 4 5 6 
#
# 1 98.3236 50.0717 44.4339 0.0000 0.0000 0.0000
# 2 50.0717 98.3236 44.4339 0.0000 0.0000 0.0000
# 3 44.4339 44.4339 119.5624 0.0000 0.0000 0.0000
# 4 0.0000 0.0000 0.0000 35.3875 0.0000 0.0000
# 5 0.0000 0.0000 0.0000 0.0000 35.3875 0.0000
# 6 0.0000 0.0000 0.0000 0.0000 0.0000 36.9274
#
#
#
# Elastic Compliance Matrix: (Units=1/GPa)
#
#
# Indices 1 2 3 4 5 6 
#
# 1 0.014696 -0.006028 -0.003221 0.000000 0.000000 0.000000
# 2 -0.006028 0.014696 -0.003221 0.000000 0.000000 0.000000
# 3 -0.003221 -0.003221 0.010758 0.000000 0.000000 0.000000
# 4 0.000000 0.000000 0.000000 0.028259 0.000000 0.000000
# 5 0.000000 0.000000 0.000000 0.000000 0.028259 0.000000
# 6 0.000000 0.000000 0.000000 0.000000 0.000000 0.027080
#
#
# Mechanical properties :
#
#
# Convention : Reuss Voigt Hill
#
# Bulk Modulus (GPa) = 65.75204 66.00986 65.88095
# Shear Modulus (GPa) = 32.51834 33.35848 32.93841
#
# Velocity S-wave (km/s) = 4.07650 4.12882 4.10274
# Velocity P-wave (km/s) = 7.46715 7.51416 7.49069
#
# Compressibility (1/GPa) = 0.01520865
#
# Stress axis : x y z
#
# Youngs Moduli (GPa) = 68.04473 68.04473 92.95278
#
# Poissons Ratio (x) = 0.41020 0.29943
# Poissons Ratio (y) = 0.41020 0.29943
# Poissons Ratio (z) = 0.21919 0.21919
#
# Static dielectric constant tensor:
#      x y z
#    x 3.623930 0.000000 0.000000 
#    y 0.000000 3.623930 0.000000 
#    z 0.000000 0.000000 3.927470 
# 
# 
# High freq. dielectric constant tensor:
#      x y z
#    x 1.770720 0.000000 0.000000 
#    y 0.000000 1.770720 0.000000 
#    z 0.000000 0.000000 1.781090 
# 
# From -- ./inp_files/4544.got.cif
#   From: 2010.03.12/outbox.cif.g09.slc.cpg/sg92_3_cif.got.tgz:4544.got - 2010.04.08 20:41:11.
