data_PCOD8305642
_publ_section_title
;
Structure prediction by ZEFSAII (Michael W. Deem and Ramdas Pophale) SiO2 
 PCOD8305642
Probable space group: P 42 21 2
;
_chemical_formula_sum "Si O2"
_cell_formula_units_Z 44
_cell_length_a 8.959936
_cell_length_b 8.959936
_cell_length_c 27.535985
_cell_angle_alpha 90.000000
_cell_angle_beta 90.000000
_cell_angle_gamma 90.000000
_cell_volume 2210.601353
_symmetry_space_group_name_H-M "P 42 21 2"
_symmetry_group_IT_number 94
_symmetry_cell_setting 'tetragonal'
loop_
_space_group_symop_operation_xyz
x,y,z
1/2-y,1/2+x,1/2+z
-x,-y,z
1/2+y,1/2-x,1/2+z
1/2+x,1/2-y,1/2-z
1/2-x,1/2+y,1/2-z
y,x,-z
-y,-x,-z
loop_
_atom_site_type_symbol
_atom_site_label
_atom_site_fract_x
_atom_site_fract_y
_atom_site_fract_z
Si Si1 0.340171 0.504409 0.216551
Si Si2 0.829758 0.208544 0.194635
Si Si3 0.629261 0.175479 0.351469
Si Si4 0.236984 0.006048 0.008522
Si Si5 0.509178 0.321016 0.613332
Si Si6 0.500000 0.000000 0.436476
O O1 0.500000 0.500000 0.189779
O O2 0.285012 0.676425 0.220051
O O3 0.367528 0.425750 0.268598
O O4 0.225243 0.411079 0.186647
O O5 0.971694 0.300338 0.175337
O O6 0.762539 0.124030 0.147699
O O7 0.710191 0.330710 0.362831
O O8 0.621594 0.074529 0.400527
O O9 0.280286 0.994597 0.065204
O O10 0.103468 0.896533 0.000000
O O11 0.368375 0.949750 0.972858
O O12 0.176094 0.176094 0.000000
O O13 0.500000 0.500000 0.602257
#
# Coordination Sequence:
#
# PCOD8305642 Si02
#       6
#     8   8   8   8   8   4
#     4  12  24  39  60  93 127 160 203 255 312 373
#     4  11  22  41  65  89 121 164 209 255 310 379
#     4  11  22  41  65  87 124 171 211 250 311 382
#     4  11  20  37  64  90 117 153 210 265 307 366
#     4  10  19  38  65  89 113 157 214 262 302 370
#     4  12  22  40  66  92 124 168 214 262 318 382
#
# _framework density 19.904084999999998
#
# number of rings (size 3 to 8) (size 9 to 14) (size 15 to 20)
#    0.000    0.909    5.455    4.909    0.000    0.000 
#    3.273    1.818    0.000    0.000    0.000    0.000 
#    0.000    0.000    0.000    0.000    0.000    0.000 
#
# Total GULP energy -545152.766810 kJ/mol
# GULP energy per Si atom -12389.835609 kJ/mol
# Density = 1.985878 g / cm^3
# Si number density = 19.904085 Si / 1000 Ang^3
#
#
#
# Elastic Constant Matrix: (Units=GPa)
#
#
# Indices 1 2 3 4 5 6 
#
# 1 80.2286 48.8936 42.8982 0.0000 0.0000 0.0000
# 2 48.8936 80.2273 42.8980 0.0000 0.0000 0.0000
# 3 42.8982 42.8980 123.0492 0.0000 0.0000 0.0000
# 4 0.0000 0.0000 0.0000 18.0964 0.0000 0.0000
# 5 0.0000 0.0000 0.0000 0.0000 18.0959 0.0000
# 6 0.0000 0.0000 0.0000 0.0000 0.0000 14.3484
#
#
#
# Elastic Compliance Matrix: (Units=1/GPa)
#
#
# Indices 1 2 3 4 5 6 
#
# 1 0.020997 -0.010917 -0.003514 0.000000 0.000000 0.000000
# 2 -0.010917 0.020997 -0.003514 0.000000 0.000000 0.000000
# 3 -0.003514 -0.003514 0.010577 0.000000 0.000000 0.000000
# 4 0.000000 0.000000 0.000000 0.055260 0.000000 0.000000
# 5 0.000000 0.000000 0.000000 0.000000 0.055261 0.000000
# 6 0.000000 0.000000 0.000000 0.000000 0.000000 0.069694
#
#
# Mechanical properties :
#
#
# Convention : Reuss Voigt Hill
#
# Bulk Modulus (GPa) = 59.95166 61.43164 60.69165
# Shear Modulus (GPa) = 18.23251 20.02917 19.13084
#
# Velocity S-wave (km/s) = 3.02986 3.17564 3.10361
# Velocity P-wave (km/s) = 6.51351 6.66161 6.58798
#
# Compressibility (1/GPa) = 0.01668011
#
# Stress axis : x y z
#
# Youngs Moduli (GPa) = 47.62696 47.62612 94.54506
#
# Poissons Ratio (x) = 0.51994 0.33223
# Poissons Ratio (y) = 0.51995 0.33223
# Poissons Ratio (z) = 0.16736 0.16736
#
# Static dielectric constant tensor:
#      x y z
#    x 3.682490 0.000000 0.000000 
#    y 0.000000 3.682490 0.000000 
#    z 0.000000 0.000000 4.075500 
# 
# 
# High freq. dielectric constant tensor:
#      x y z
#    x 1.759290 0.000000 0.000000 
#    y 0.000000 1.759290 0.000000 
#    z 0.000000 0.000000 1.794740 
# 
# From -- ./inp_files/5496.got.cif
#   From: 2010.03.12/outbox.cif.g09.slc.cpg/sg94_3_cif.got.tgz:5496.got - 2010.04.08 20:48:32.
