data_PCOD8305116
_publ_section_title
;
Structure prediction by ZEFSAII (Michael W. Deem and Ramdas Pophale) SiO2 
 PCOD8305116
Probable space group: P 41 2 2
;
_chemical_formula_sum "Si O2"
_cell_formula_units_Z 56
_cell_length_a 11.488737
_cell_length_b 11.488737
_cell_length_c 20.251073
_cell_angle_alpha 90.000000
_cell_angle_beta 90.000000
_cell_angle_gamma 90.000000
_cell_volume 2672.960953
_symmetry_space_group_name_H-M "P 41 2 2"
_symmetry_group_IT_number 91
_symmetry_cell_setting 'tetragonal'
loop_
_space_group_symop_operation_xyz
x,y,z
-y,x,1/4+z
-x,-y,1/2+z
y,-x,3/4+z
x,-y,1/2-z
-x,y,-z
y,x,3/4-z
-y,-x,1/4-z
loop_
_atom_site_type_symbol
_atom_site_label
_atom_site_fract_x
_atom_site_fract_y
_atom_site_fract_z
Si Si1 0.776518 0.776518 0.375000
Si Si2 0.725182 0.448100 0.051730
Si Si3 0.859214 0.122993 0.912339
Si Si4 0.896813 0.615760 0.549410
Si Si5 0.822551 0.406277 0.343495
Si Si6 0.640277 0.500000 0.250000
Si Si7 0.563001 0.961073 0.060472
Si Si8 0.992084 0.174150 0.208298
O O1 0.645668 0.790196 0.349173
O O2 0.808704 0.859731 0.435015
O O3 0.765157 0.568784 0.084541
O O4 0.584279 0.435921 0.047902
O O5 0.775682 0.431594 0.978807
O O6 0.904428 0.246585 0.938724
O O7 0.721040 0.121840 0.900501
O O8 0.930020 0.097700 0.843612
O O9 0.885456 0.023224 0.968609
O O10 0.901023 0.548442 0.618905
O O11 0.000000 0.577957 0.500000
O O12 0.717146 0.408993 0.291467
O O13 0.913240 0.502214 0.317762
O O14 0.696386 0.958631 0.037175
O O15 0.500000 0.892997 0.000000
#
# Coordination Sequence:
#
# PCOD8305116 Si02
#       8
#     4   8   8   8   8   4   8   8
#     4  12  18  34  58  94 126 146 196 270 334 370
#     4  12  21  34  60  93 127 163 203 265 325 378
#     4  11  23  36  59  93 131 161 211 260 331 386
#     4  11  21  36  59  97 122 152 208 271 325 370
#     4  12  19  35  59  88 129 165 200 258 315 382
#     4  12  20  32  54  90 134 156 200 252 326 388
#     4  11  20  34  58  91 122 161 209 264 317 363
#     4  11  22  35  59  94 128 161 205 274 324 382
#
# _framework density 20.950548000000001
#
# number of rings (size 3 to 8) (size 9 to 14) (size 15 to 20)
#    0.000    0.571    9.286    0.857    0.000    0.000 
#    0.000    0.000    6.286    3.429    0.000    0.000 
#    0.000    0.000    0.000    0.000    0.000    0.000 
#
# Total GULP energy -693868.118504 kJ/mol
# GULP energy per Si atom -12390.502116 kJ/mol
# Density = 2.090286 g / cm^3
# Si number density = 20.950548 Si / 1000 Ang^3
#
#
#
# Elastic Constant Matrix: (Units=GPa)
#
#
# Indices 1 2 3 4 5 6 
#
# 1 52.7107 18.2711 47.0366 0.0000 0.0000 0.0000
# 2 18.2711 52.7107 47.0366 0.0000 0.0000 0.0000
# 3 47.0366 47.0366 169.6541 0.0000 0.0000 0.0000
# 4 0.0000 0.0000 0.0000 36.5816 0.0000 0.0000
# 5 0.0000 0.0000 0.0000 0.0000 36.5816 0.0000
# 6 0.0000 0.0000 0.0000 0.0000 0.0000 16.3545
#
#
#
# Elastic Compliance Matrix: (Units=1/GPa)
#
#
# Indices 1 2 3 4 5 6 
#
# 1 0.025654 -0.003382 -0.006175 0.000000 0.000000 0.000000
# 2 -0.003382 0.025654 -0.006175 0.000000 0.000000 0.000000
# 3 -0.006175 -0.006175 0.009318 0.000000 0.000000 0.000000
# 4 0.000000 0.000000 0.000000 0.027336 0.000000 0.000000
# 5 0.000000 0.000000 0.000000 0.000000 0.027336 0.000000
# 6 0.000000 0.000000 0.000000 0.000000 0.000000 0.061145
#
#
# Mechanical properties :
#
#
# Convention : Reuss Voigt Hill
#
# Bulk Modulus (GPa) = 34.29072 55.52932 44.91002
# Shear Modulus (GPa) = 22.97492 28.75231 25.86361
#
# Velocity S-wave (km/s) = 3.31513 3.70860 3.51737
# Velocity P-wave (km/s) = 5.57283 6.70080 6.16268
#
# Compressibility (1/GPa) = 0.02916241
#
# Stress axis : x y z
#
# Youngs Moduli (GPa) = 38.98020 38.98020 107.31585
#
# Poissons Ratio (x) = 0.13184 0.66266
# Poissons Ratio (y) = 0.13184 0.66266
# Poissons Ratio (z) = 0.24070 0.24070
#
# Static dielectric constant tensor:
#      x y z
#    x 3.675210 0.000000 0.000000 
#    y 0.000000 3.675210 0.000000 
#    z 0.000000 0.000000 4.237610 
# 
# 
# High freq. dielectric constant tensor:
#      x y z
#    x 1.788700 0.000000 0.000000 
#    y 0.000000 1.788700 0.000000 
#    z 0.000000 0.000000 1.835620 
# 
# From -- ./inp_files/17343.got.cif
#   From: 2010.03.12/outbox.cif.g09.slc.cpg/sg91_9_cif.got.tgz:17343.got - 2010.04.08 20:27:58.
