data_PCOD8305534
_publ_section_title
;
Structure prediction by ZEFSAII (Michael W. Deem and Ramdas Pophale) SiO2 
 PCOD8305534
Probable space group: P 42 2 2
;
_chemical_formula_sum "Si O2"
_cell_formula_units_Z 40
_cell_length_a 14.361002
_cell_length_b 14.361002
_cell_length_c 8.458628
_cell_angle_alpha 90.000000
_cell_angle_beta 90.000000
_cell_angle_gamma 90.000000
_cell_volume 1744.493723
_symmetry_space_group_name_H-M "P 42 2 2"
_symmetry_group_IT_number 93
_symmetry_cell_setting 'tetragonal'
loop_
_space_group_symop_operation_xyz
x,y,z
-y,x,1/2+z
-x,-y,z
y,-x,1/2+z
x,-y,-z
-x,y,-z
y,x,1/2-z
-y,-x,1/2-z
loop_
_atom_site_type_symbol
_atom_site_label
_atom_site_fract_x
_atom_site_fract_y
_atom_site_fract_z
Si Si1 0.398159 0.106944 0.952695
Si Si2 0.597294 0.401604 0.432157
Si Si3 0.140348 0.006702 0.189455
Si Si4 0.724558 0.870441 0.680406
Si Si5 0.744616 0.734341 0.432113
O O1 0.377850 0.126076 0.764610
O O2 0.500000 0.148993 0.000000
O O3 0.309069 0.152233 0.042811
O O4 0.396716 0.000000 0.000000
O O5 0.629221 0.500000 0.500000
O O6 0.500000 0.365225 0.500000
O O7 0.583453 0.416548 0.250000
O O8 0.675577 0.327090 0.465069
O O9 0.112011 0.112011 0.250000
O O10 0.232646 0.972383 0.281020
O O11 0.058872 0.941129 0.250000
O O12 0.151426 0.000000 0.000000
O O13 0.788089 0.788089 0.750000
O O14 0.726192 0.841475 0.494179
O O15 0.723437 0.723437 0.250000
#
# Coordination Sequence:
#
# PCOD8305534 Si02
#       5
#     8   8   8   8   8
#     4  10  21  41  66  88 120 171 222 267 323 389
#     4  11  21  36  61  98 139 176 219 271 330 399
#     4  10  19  35  58  88 122 157 202 256 324 391
#     4   9  20  39  58  84 120 156 205 267 322 383
#     4  11  23  41  64  94 129 173 219 271 335 398
#
# _framework density 22.929290000000002
#
# number of rings (size 3 to 8) (size 9 to 14) (size 15 to 20)
#    0.000    1.800    0.000    6.600    0.000    1.600 
#    0.000   31.000    0.000    2.400    0.000    0.000 
#    0.000    0.000    0.000    0.000    0.000    0.000 
#
# Total GULP energy -495530.419779 kJ/mol
# GULP energy per Si atom -12388.260494 kJ/mol
# Density = 2.287710 g / cm^3
# Si number density = 22.929290 Si / 1000 Ang^3
#
#
#
# Elastic Constant Matrix: (Units=GPa)
#
#
# Indices 1 2 3 4 5 6 
#
# 1 94.5067 32.8796 42.1117 0.0000 0.0000 0.0000
# 2 32.8796 94.5058 42.1132 0.0000 0.0000 0.0000
# 3 42.1117 42.1132 150.4526 0.0000 0.0000 0.0000
# 4 0.0000 0.0000 0.0000 -35.9912 0.0000 0.0000
# 5 0.0000 0.0000 0.0000 0.0000 -35.8521 0.0000
# 6 0.0000 0.0000 0.0000 0.0000 0.0000 38.6084
#
#
#
# Elastic Compliance Matrix: (Units=1/GPa)
#
#
# Indices 1 2 3 4 5 6 
#
# 1 0.012930 -0.003297 -0.002696 0.000000 0.000000 0.000000
# 2 -0.003297 0.012930 -0.002696 0.000000 0.000000 0.000000
# 3 -0.002696 -0.002696 0.008156 0.000000 0.000000 0.000000
# 4 0.000000 0.000000 0.000000 -0.027785 0.000000 0.000000
# 5 0.000000 0.000000 0.000000 0.000000 -0.027892 0.000000
# 6 0.000000 0.000000 0.000000 0.000000 0.000000 0.025901
#
#
# Mechanical properties :
#
#
# Convention : Reuss Voigt Hill
#
# Bulk Modulus (GPa) = 60.10828 63.74156 61.92492
# Shear Modulus (GPa) = 184.06415 8.17705 96.12060
#
# Velocity S-wave (km/s) = 8.96933 1.89049 6.48162
# Velocity P-wave (km/s) = 11.55581 5.71181 9.11487
#
# Compressibility (1/GPa) = 0.01663664
#
# Stress axis : x y z
#
# Youngs Moduli (GPa) = 77.34136 77.33979 122.60870
#
# Poissons Ratio (x) = 0.25498 0.33058
# Poissons Ratio (y) = 0.25499 0.33060
# Poissons Ratio (z) = 0.20853 0.20854
#
# Static dielectric constant tensor:
#      x y z
#    x 4.744330 0.000000 0.000000 
#    y 0.000000 4.743860 0.000000 
#    z 0.000000 0.000000 4.157950 
# 
# 
# High freq. dielectric constant tensor:
#      x y z
#    x 1.901070 0.000000 0.000000 
#    y 0.000000 1.901070 0.000000 
#    z 0.000000 0.000000 1.902620 
# 
# From -- ./inp_files/1824.got.cif
#   From: 2010.03.12/outbox.cif.g09.slc.cpg/sg93_1_cif.got.tgz:1824.got - 2010.04.08 20:44:19.
