data_PCOD8305336
_publ_section_title
;
Structure prediction by ZEFSAII (Michael W. Deem and Ramdas Pophale) SiO2 
 PCOD8305336
Probable space group: P 41 21 2
;
_chemical_formula_sum "Si O2"
_cell_formula_units_Z 40
_cell_length_a 8.466500
_cell_length_b 8.466500
_cell_length_c 24.752756
_cell_angle_alpha 90.000000
_cell_angle_beta 90.000000
_cell_angle_gamma 90.000000
_cell_volume 1774.317705
_symmetry_space_group_name_H-M "P 41 21 2"
_symmetry_group_IT_number 92
_symmetry_cell_setting 'tetragonal'
loop_
_space_group_symop_operation_xyz
x,y,z
1/2-y,1/2+x,1/4+z
-x,-y,1/2+z
1/2+y,1/2-x,3/4+z
1/2+x,1/2-y,3/4-z
1/2-x,1/2+y,1/4-z
y,x,-z
-y,-x,1/2-z
loop_
_atom_site_type_symbol
_atom_site_label
_atom_site_fract_x
_atom_site_fract_y
_atom_site_fract_z
Si Si1 0.414942 0.127625 0.310687
Si Si2 0.983855 0.792927 0.038489
Si Si3 0.236906 0.290088 0.940381
Si Si4 0.514665 0.407162 0.882298
Si Si5 0.688923 0.728751 0.097683
O O1 0.407996 0.176748 0.247274
O O2 0.590629 0.134507 0.337261
O O3 0.294418 0.245049 0.341440
O O4 0.356283 0.951766 0.315383
O O5 0.830521 0.691258 0.056018
O O6 0.938171 0.938171 0.000000
O O7 0.062381 0.869348 0.091017
O O8 0.425393 0.306681 0.928560
O O9 0.160231 0.175423 0.896684
O O10 0.217682 0.217682 0.000000
O O11 0.594063 0.557399 0.911448
#
# Coordination Sequence:
#
# PCOD8305336 Si02
#       5
#     8   8   8   8   8
#     4  11  23  44  72 108 137 187 236 300 355 438
#     4  10  21  41  70 101 132 180 239 280 353 425
#     4  12  29  46  69 109 146 189 242 302 377 420
#     4  12  25  49  69 102 148 188 237 300 355 432
#     4  11  21  43  76 101 140 189 241 287 354 431
#
# _framework density 22.543876999999998
#
# number of rings (size 3 to 8) (size 9 to 14) (size 15 to 20)
#    0.000    0.800    6.000    1.800    2.800    4.000 
#    3.600    0.000    0.000    0.000    0.000    0.000 
#    0.000    0.000    0.000    0.000    0.000    0.000 
#
# Total GULP energy -495794.848784 kJ/mol
# GULP energy per Si atom -12394.871220 kJ/mol
# Density = 2.249257 g / cm^3
# Si number density = 22.543877 Si / 1000 Ang^3
#
#
#
# Elastic Constant Matrix: (Units=GPa)
#
#
# Indices 1 2 3 4 5 6 
#
# 1 80.0613 37.4689 23.4449 0.0000 0.0000 0.0000
# 2 37.4689 80.0613 23.4449 0.0000 0.0000 0.0000
# 3 23.4449 23.4449 57.3964 0.0000 0.0000 0.0000
# 4 0.0000 0.0000 0.0000 37.4686 0.0000 0.0000
# 5 0.0000 0.0000 0.0000 0.0000 37.4686 0.0000
# 6 0.0000 0.0000 0.0000 0.0000 0.0000 49.1969
#
#
#
# Elastic Compliance Matrix: (Units=1/GPa)
#
#
# Indices 1 2 3 4 5 6 
#
# 1 0.016822 -0.006657 -0.004152 0.000000 0.000000 0.000000
# 2 -0.006657 0.016822 -0.004152 0.000000 0.000000 0.000000
# 3 -0.004152 -0.004152 0.020815 0.000000 0.000000 0.000000
# 4 0.000000 0.000000 0.000000 0.026689 0.000000 0.000000
# 5 0.000000 0.000000 0.000000 0.000000 0.026689 0.000000
# 6 0.000000 0.000000 0.000000 0.000000 0.000000 0.020326
#
#
# Mechanical properties :
#
#
# Convention : Reuss Voigt Hill
#
# Bulk Modulus (GPa) = 40.75608 42.91517 41.83563
# Shear Modulus (GPa) = 30.07278 33.70415 31.88846
#
# Velocity S-wave (km/s) = 3.65631 3.87078 3.76507
# Velocity P-wave (km/s) = 5.99522 6.24939 6.12362
#
# Compressibility (1/GPa) = 0.02453621
#
# Stress axis : x y z
#
# Youngs Moduli (GPa) = 59.44708 59.44708 48.04284
#
# Poissons Ratio (x) = 0.39572 0.19948
# Poissons Ratio (y) = 0.39572 0.19948
# Poissons Ratio (z) = 0.24683 0.24683
#
# Static dielectric constant tensor:
#      x y z
#    x 4.046520 0.000000 0.000000 
#    y 0.000000 4.046520 0.000000 
#    z 0.000000 0.000000 4.663890 
# 
# 
# High freq. dielectric constant tensor:
#      x y z
#    x 1.885300 0.000000 0.000000 
#    y 0.000000 1.885300 0.000000 
#    z 0.000000 0.000000 1.895670 
# 
# From -- ./inp_files/3752.got.cif
#   From: 2010.03.12/outbox.cif.g09.slc.cpg/sg92_2_cif.got.tgz:3752.got - 2010.04.08 20:41:11.
