data_PCOD8305720
_publ_section_title
;
Structure prediction by ZEFSAII (Michael W. Deem and Ramdas Pophale) SiO2 
 PCOD8305720
Probable space group: P 42 21 2
;
_chemical_formula_sum "Si O2"
_cell_formula_units_Z 24
_cell_length_a 6.823831
_cell_length_b 6.823831
_cell_length_c 24.693851
_cell_angle_alpha 90.000000
_cell_angle_beta 90.000000
_cell_angle_gamma 90.000000
_cell_volume 1149.861011
_symmetry_space_group_name_H-M "P 42 21 2"
_symmetry_group_IT_number 94
_symmetry_cell_setting 'tetragonal'
loop_
_space_group_symop_operation_xyz
x,y,z
1/2-y,1/2+x,1/2+z
-x,-y,z
1/2+y,1/2-x,1/2+z
1/2+x,1/2-y,1/2-z
1/2-x,1/2+y,1/2-z
y,x,-z
-y,-x,-z
loop_
_atom_site_type_symbol
_atom_site_label
_atom_site_fract_x
_atom_site_fract_y
_atom_site_fract_z
Si Si1 0.000000 0.000000 0.500000
Si Si2 0.500000 0.000000 0.249498
Si Si3 0.000000 0.000000 0.000000
Si Si4 0.151449 0.348293 0.929620
Si Si5 0.343981 0.659625 0.322874
O O1 0.980127 0.193232 0.462941
O O2 0.551243 0.177817 0.288107
O O3 0.318370 0.054043 0.212676
O O4 0.198273 0.017600 0.035349
O O5 0.254513 0.241815 0.878471
O O6 0.000000 0.500000 0.903729
O O7 0.500000 0.500000 0.341840
#
# Coordination Sequence:
#
# PCOD8305720 Si02
#       5
#     2   4   2   8   8
#     4  10  26  42  64 106 132 168 224 286 322 394
#     4  12  26  44  70 100 138 174 226 278 332 398
#     4  10  22  42  64  98 132 176 216 270 338 398
#     4  11  23  43  68  95 134 175 222 271 336 398
#     4  12  25  43  69 100 135 179 223 278 339 403
#
# _framework density 20.872085999999999
#
# number of rings (size 3 to 8) (size 9 to 14) (size 15 to 20)
#    0.000    0.667    6.667    1.000    0.000    5.333 
#   12.000    0.000    0.000    0.000    0.000    0.000 
#    0.000    0.000    0.000    0.000    0.000    0.000 
#
# Total GULP energy -297401.674623 kJ/mol
# GULP energy per Si atom -12391.736443 kJ/mol
# Density = 2.082458 g / cm^3
# Si number density = 20.872086 Si / 1000 Ang^3
#
#
#
# Elastic Constant Matrix: (Units=GPa)
#
#
# Indices 1 2 3 4 5 6 
#
# 1 90.4160 54.0063 40.4136 0.0000 0.0000 0.0000
# 2 54.0063 90.4160 40.4136 0.0000 0.0000 0.0000
# 3 40.4136 40.4136 130.1951 0.0000 0.0000 0.0000
# 4 0.0000 0.0000 0.0000 23.8305 0.0000 0.0000
# 5 0.0000 0.0000 0.0000 0.0000 23.8305 0.0000
# 6 0.0000 0.0000 0.0000 0.0000 0.0000 48.5794
#
#
#
# Elastic Compliance Matrix: (Units=1/GPa)
#
#
# Indices 1 2 3 4 5 6 
#
# 1 0.017923 -0.009543 -0.002601 0.000000 0.000000 0.000000
# 2 -0.009543 0.017923 -0.002601 0.000000 0.000000 0.000000
# 3 -0.002601 -0.002601 0.009296 0.000000 0.000000 0.000000
# 4 0.000000 0.000000 0.000000 0.041963 0.000000 0.000000
# 5 0.000000 0.000000 0.000000 0.000000 0.041963 0.000000
# 6 0.000000 0.000000 0.000000 0.000000 0.000000 0.020585
#
#
# Mechanical properties :
#
#
# Convention : Reuss Voigt Hill
#
# Bulk Modulus (GPa) = 63.89488 64.52156 64.20822
# Shear Modulus (GPa) = 27.12103 30.99430 29.05766
#
# Velocity S-wave (km/s) = 3.60862 3.85770 3.73524
# Velocity P-wave (km/s) = 6.93123 7.12899 7.03080
#
# Compressibility (1/GPa) = 0.01565071
#
# Stress axis : x y z
#
# Youngs Moduli (GPa) = 55.79562 55.79562 107.57721
#
# Poissons Ratio (x) = 0.53244 0.27983
# Poissons Ratio (y) = 0.53244 0.27983
# Poissons Ratio (z) = 0.14514 0.14514
#
# Static dielectric constant tensor:
#      x y z
#    x 3.783750 0.000000 0.000000 
#    y 0.000000 3.783750 0.000000 
#    z 0.000000 0.000000 3.907360 
# 
# 
# High freq. dielectric constant tensor:
#      x y z
#    x 1.820470 0.000000 0.000000 
#    y 0.000000 1.820470 0.000000 
#    z 0.000000 0.000000 1.836300 
# 
# From -- ./inp_files/5419.got.cif
#   From: 2010.03.12/outbox.cif.g09.slc.cpg/sg94_3_cif.got.tgz:5419.got - 2010.04.08 20:48:32.
