data_PCOD8305873
_publ_section_title
;
Structure prediction by ZEFSAII (Michael W. Deem and Ramdas Pophale) SiO2 
 PCOD8305873
Probable space group: P 43 21 2
;
_chemical_formula_sum "Si O2"
_cell_formula_units_Z 48
_cell_length_a 9.436480
_cell_length_b 9.436480
_cell_length_c 31.195732
_cell_angle_alpha 90.000000
_cell_angle_beta 90.000000
_cell_angle_gamma 90.000000
_cell_volume 2777.891176
_symmetry_space_group_name_H-M "P 43 21 2"
_symmetry_group_IT_number 96
_symmetry_cell_setting 'tetragonal'
loop_
_space_group_symop_operation_xyz
x,y,z
1/2-y,1/2+x,3/4+z
-x,-y,1/2+z
1/2+y,1/2-x,1/4+z
1/2+x,1/2-y,1/4-z
1/2-x,1/2+y,3/4-z
y,x,-z
-y,-x,1/2-z
loop_
_atom_site_type_symbol
_atom_site_label
_atom_site_fract_x
_atom_site_fract_y
_atom_site_fract_z
Si Si1 0.176601 0.304005 0.774337
Si Si2 0.425284 0.996103 0.460129
Si Si3 0.851863 0.803697 0.812016
Si Si4 0.246566 0.201745 0.406975
Si Si5 0.500354 0.687456 0.278667
Si Si6 0.096207 0.949343 0.202227
O O1 0.182132 0.270084 0.723855
O O2 0.334902 0.334802 0.791587
O O3 0.081220 0.442206 0.782121
O O4 0.102667 0.172849 0.800110
O O5 0.446328 0.833808 0.447140
O O6 0.334363 0.017038 0.503188
O O7 0.341678 0.068718 0.421026
O O8 0.768705 0.797671 0.856307
O O9 0.965211 0.931700 0.810015
O O10 0.332465 0.341655 0.420191
O O11 0.090737 0.198094 0.428063
O O12 0.444236 0.555765 0.250000
O O13 0.114816 0.885185 0.250000
#
# Coordination Sequence:
#
# PCOD8305873 Si02
#       6
#     8   8   8   8   8   8
#     4   9  18  33  48  65  92 126 154 184 232 288
#     4   9  18  31  49  70  95 125 158 191 235 284
#     4  10  18  29  50  75  92 117 161 202 229 271
#     4  10  17  29  50  74  93 117 157 203 234 267
#     4   9  17  31  49  68  92 123 156 192 234 278
#     4   9  17  31  50  68  93 126 156 186 231 284
#
# _framework density 17.279295999999999
#
# number of rings (size 3 to 8) (size 9 to 14) (size 15 to 20)
#    0.000    2.667    0.000    4.500    0.000    0.000 
#    0.000    5.833    0.000   10.000    0.000    0.000 
#    0.000    0.000    0.000    0.000    0.000    0.000 
#
# Total GULP energy -595071.344221 kJ/mol
# GULP energy per Si atom -12397.319671 kJ/mol
# Density = 1.723997 g / cm^3
# Si number density = 17.279296 Si / 1000 Ang^3
#
#
#
# Elastic Constant Matrix: (Units=GPa)
#
#
# Indices 1 2 3 4 5 6 
#
# 1 134.1098 56.3465 29.6865 0.0000 0.0000 0.0000
# 2 56.3465 134.1103 29.6865 0.0000 0.0000 0.0000
# 3 29.6865 29.6865 79.6141 0.0000 0.0000 0.0000
# 4 0.0000 0.0000 0.0000 14.5181 0.0000 0.0000
# 5 0.0000 0.0000 0.0000 0.0000 14.5180 0.0000
# 6 0.0000 0.0000 0.0000 0.0000 0.0000 12.8840
#
#
#
# Elastic Compliance Matrix: (Units=1/GPa)
#
#
# Indices 1 2 3 4 5 6 
#
# 1 0.009400 -0.003459 -0.002215 0.000000 0.000000 0.000000
# 2 -0.003459 0.009400 -0.002215 0.000000 0.000000 0.000000
# 3 -0.002215 -0.002215 0.014213 0.000000 0.000000 0.000000
# 4 0.000000 0.000000 0.000000 0.068879 0.000000 0.000000
# 5 0.000000 0.000000 0.000000 0.000000 0.068880 0.000000
# 6 0.000000 0.000000 0.000000 0.000000 0.000000 0.077616
#
#
# Mechanical properties :
#
#
# Convention : Reuss Voigt Hill
#
# Bulk Modulus (GPa) = 58.02599 64.36369 61.19484
# Shear Modulus (GPa) = 18.52452 23.85835 21.19144
#
# Velocity S-wave (km/s) = 3.27779 3.71987 3.50581
# Velocity P-wave (km/s) = 6.92671 7.46859 7.20275
#
# Compressibility (1/GPa) = 0.01723366
#
# Stress axis : x y z
#
# Youngs Moduli (GPa) = 106.37914 106.37952 70.35963
#
# Poissons Ratio (x) = 0.36799 0.15587
# Poissons Ratio (y) = 0.36798 0.15587
# Poissons Ratio (z) = 0.23567 0.23567
#
# Static dielectric constant tensor:
#      x y z
#    x 3.261660 0.000000 0.000000 
#    y 0.000000 3.261660 0.000000 
#    z 0.000000 0.000000 3.035050 
# 
# 
# High freq. dielectric constant tensor:
#      x y z
#    x 1.660910 0.000000 0.000000 
#    y 0.000000 1.660910 0.000000 
#    z 0.000000 0.000000 1.652530 
# 
# From -- ./inp_files/4437.got.cif
#   From: 2010.03.12/outbox.cif.g09.slc.cpg/sg96_3_cif.got.tgz:4437.got - 2010.04.08 20:56:49.
