data_PCOD8305308
_publ_section_title
;
Structure prediction by ZEFSAII (Michael W. Deem and Ramdas Pophale) SiO2 
 PCOD8305308
Probable space group: P 41 21 2
;
_chemical_formula_sum "Si O2"
_cell_formula_units_Z 44
_cell_length_a 14.312375
_cell_length_b 14.312375
_cell_length_c 10.321199
_cell_angle_alpha 90.000000
_cell_angle_beta 90.000000
_cell_angle_gamma 90.000000
_cell_volume 2114.236494
_symmetry_space_group_name_H-M "P 41 21 2"
_symmetry_group_IT_number 92
_symmetry_cell_setting 'tetragonal'
loop_
_space_group_symop_operation_xyz
x,y,z
1/2-y,1/2+x,1/4+z
-x,-y,1/2+z
1/2+y,1/2-x,3/4+z
1/2+x,1/2-y,3/4-z
1/2-x,1/2+y,1/4-z
y,x,-z
-y,-x,1/2-z
loop_
_atom_site_type_symbol
_atom_site_label
_atom_site_fract_x
_atom_site_fract_y
_atom_site_fract_z
Si Si1 0.004634 0.177852 0.843859
Si Si2 0.010297 0.010297 0.500000
Si Si3 0.313154 0.216419 0.615014
Si Si4 0.325448 0.223469 0.900568
Si Si5 0.477928 0.778397 0.146823
Si Si6 0.413722 0.652635 0.933080
O O1 0.911527 0.222943 0.781505
O O2 0.082081 0.168666 0.731374
O O3 0.983314 0.077505 0.905971
O O4 0.032121 0.251388 0.953746
O O5 0.102766 0.012527 0.589555
O O6 0.289776 0.289776 0.500000
O O7 0.303300 0.265836 0.756981
O O8 0.421160 0.178526 0.606891
O O9 0.240808 0.130111 0.606416
O O10 0.345253 0.112234 0.874483
O O11 0.238388 0.238388 0.000000
O O12 0.467577 0.684369 0.062052
#
# Coordination Sequence:
#
# PCOD8305308 Si02
#       6
#     8   4   8   8   8   8
#     4  11  22  36  63  95 123 161 206 263 320 369
#     4  12  22  32  58  98 128 152 200 262 320 376
#     4  10  22  38  60  90 125 167 207 253 318 370
#     4  10  21  39  61  92 127 167 212 257 309 376
#     4  10  21  37  62  86 121 172 206 248 308 382
#     4  11  21  38  57  93 129 154 205 262 314 373
#
# _framework density 20.811294
#
# number of rings (size 3 to 8) (size 9 to 14) (size 15 to 20)
#    0.000    1.455    2.727    3.818    5.091    0.000 
#    0.000    0.000    0.000   19.636    0.000    0.000 
#    0.000    0.000    0.000    0.000    0.000    0.000 
#
# Total GULP energy -545157.178801 kJ/mol
# GULP energy per Si atom -12389.935882 kJ/mol
# Density = 2.076393 g / cm^3
# Si number density = 20.811294 Si / 1000 Ang^3
#
#
#
# Elastic Constant Matrix: (Units=GPa)
#
#
# Indices 1 2 3 4 5 6 
#
# 1 102.9494 64.4837 21.3434 0.0000 0.0000 0.0000
# 2 64.4837 102.9494 21.3434 0.0000 0.0000 0.0000
# 3 21.3434 21.3434 78.5862 0.0000 0.0000 0.0000
# 4 0.0000 0.0000 0.0000 23.2993 0.0000 0.0000
# 5 0.0000 0.0000 0.0000 0.0000 23.2993 0.0000
# 6 0.0000 0.0000 0.0000 0.0000 0.0000 30.2666
#
#
#
# Elastic Compliance Matrix: (Units=1/GPa)
#
#
# Indices 1 2 3 4 5 6 
#
# 1 0.016207 -0.009790 -0.001743 0.000000 0.000000 0.000000
# 2 -0.009790 0.016207 -0.001743 0.000000 0.000000 0.000000
# 3 -0.001743 -0.001743 0.013672 0.000000 0.000000 0.000000
# 4 0.000000 0.000000 0.000000 0.042920 0.000000 0.000000
# 5 0.000000 0.000000 0.000000 0.000000 0.042920 0.000000
# 6 0.000000 0.000000 0.000000 0.000000 0.000000 0.033040
#
#
# Mechanical properties :
#
#
# Convention : Reuss Voigt Hill
#
# Bulk Modulus (GPa) = 51.19241 55.42514 53.30878
# Shear Modulus (GPa) = 25.24902 27.19401 26.22151
#
# Velocity S-wave (km/s) = 3.48693 3.61875 3.55345
# Velocity P-wave (km/s) = 6.39245 6.64458 6.51973
#
# Compressibility (1/GPa) = 0.01953415
#
# Stress axis : x y z
#
# Youngs Moduli (GPa) = 61.70173 61.70173 73.14476
#
# Poissons Ratio (x) = 0.60407 0.12747
# Poissons Ratio (y) = 0.60407 0.12747
# Poissons Ratio (z) = 0.10753 0.10753
#
# Static dielectric constant tensor:
#      x y z
#    x 3.720180 0.000000 0.000000 
#    y 0.000000 3.720180 0.000000 
#    z 0.000000 0.000000 3.967280 
# 
# 
# High freq. dielectric constant tensor:
#      x y z
#    x 1.795670 0.000000 0.000000 
#    y 0.000000 1.795670 0.000000 
#    z 0.000000 0.000000 1.825360 
# 
# From -- ./inp_files/2109.got.cif
#   From: 2010.03.12/outbox.cif.g09.slc.cpg/sg92_2_cif.got.tgz:2109.got - 2010.04.08 20:41:11.
