data_PCOD8305154
_publ_section_title
;
Structure prediction by ZEFSAII (Michael W. Deem and Ramdas Pophale) SiO2 
 PCOD8305154
Probable space group: P 41 2 2
;
_chemical_formula_sum "Si O2"
_cell_formula_units_Z 60
_cell_length_a 11.550711
_cell_length_b 11.550711
_cell_length_c 20.332119
_cell_angle_alpha 90.000000
_cell_angle_beta 90.000000
_cell_angle_gamma 90.000000
_cell_volume 2712.689452
_symmetry_space_group_name_H-M "P 41 2 2"
_symmetry_group_IT_number 91
_symmetry_cell_setting 'tetragonal'
loop_
_space_group_symop_operation_xyz
x,y,z
-y,x,1/4+z
-x,-y,1/2+z
y,-x,3/4+z
x,-y,1/2-z
-x,y,-z
y,x,3/4-z
-y,-x,1/4-z
loop_
_atom_site_type_symbol
_atom_site_label
_atom_site_fract_x
_atom_site_fract_y
_atom_site_fract_z
Si Si1 0.045333 0.776564 0.863837
Si Si2 0.788712 0.652720 0.041895
Si Si3 0.820971 0.351054 0.606024
Si Si4 0.407567 0.939333 0.556762
Si Si5 0.892303 0.573001 0.454606
Si Si6 0.196856 0.571324 0.311902
Si Si7 0.967258 0.967258 0.375000
Si Si8 0.166311 0.823858 0.725906
O O1 0.111478 0.685043 0.907677
O O2 0.109906 0.802055 0.796010
O O3 0.919395 0.718580 0.852575
O O4 0.045808 0.900835 0.899250
O O5 0.781877 0.512651 0.037750
O O6 0.671941 0.708995 0.070818
O O7 0.832685 0.687026 0.969685
O O8 0.694421 0.305580 0.625000
O O9 0.818355 0.488314 0.624045
O O10 0.500000 0.899916 0.500000
O O11 0.453082 0.933696 0.630559
O O12 0.296183 0.856106 0.561631
O O13 0.371633 0.072755 0.543453
O O14 0.850292 0.698208 0.478178
O O15 0.000000 0.533885 0.500000
O O16 0.242984 0.500000 0.250000
O O17 0.932890 0.889849 0.437938
#
# Coordination Sequence:
#
# PCOD8305154 Si02
#       8
#     8   8   8   8   8   8   4   8
#     4  12  26  42  71 110 144 194 235 303 380 450
#     4  12  27  44  73 104 139 194 253 296 361 444
#     4  12  25  46  69 107 150 182 240 312 370 437
#     4  11  23  45  73 101 143 190 246 297 364 450
#     4  12  25  47  70 102 149 193 237 308 375 440
#     4  11  23  44  72 101 139 190 237 300 372 432
#     4  12  24  42  68 102 154 180 236 302 376 452
#     4  12  26  44  69 109 148 193 244 295 377 449
#
# _framework density 22.118271
#
# number of rings (size 3 to 8) (size 9 to 14) (size 15 to 20)
#    0.000    0.267    3.333    7.200    5.600    1.067 
#    0.000    2.000    0.000    0.000    0.000    0.000 
#    0.000    0.000    0.000    0.000    0.000    0.000 
#
# Total GULP energy -743558.513101 kJ/mol
# GULP energy per Si atom -12392.641885 kJ/mol
# Density = 2.206793 g / cm^3
# Si number density = 22.118271 Si / 1000 Ang^3
#
#
#
# Elastic Constant Matrix: (Units=GPa)
#
#
# Indices 1 2 3 4 5 6 
#
# 1 114.7951 67.9020 21.4297 0.0000 0.0000 0.0000
# 2 67.9020 114.7938 21.4299 0.0000 0.0000 0.0000
# 3 21.4297 21.4299 125.2484 0.0000 0.0000 0.0000
# 4 0.0000 0.0000 0.0000 29.9830 0.0000 0.0000
# 5 0.0000 0.0000 0.0000 0.0000 29.9831 0.0000
# 6 0.0000 0.0000 0.0000 0.0000 0.0000 39.9392
#
#
#
# Elastic Compliance Matrix: (Units=1/GPa)
#
#
# Indices 1 2 3 4 5 6 
#
# 1 0.013514 -0.007811 -0.000976 0.000000 0.000000 0.000000
# 2 -0.007811 0.013514 -0.000976 0.000000 0.000000 0.000000
# 3 -0.000976 -0.000976 0.008318 0.000000 0.000000 0.000000
# 4 0.000000 0.000000 0.000000 0.033352 0.000000 0.000000
# 5 0.000000 0.000000 0.000000 0.000000 0.033352 0.000000
# 6 0.000000 0.000000 0.000000 0.000000 0.000000 0.025038
#
#
# Mechanical properties :
#
#
# Convention : Reuss Voigt Hill
#
# Bulk Modulus (GPa) = 63.21037 64.04005 63.62521
# Shear Modulus (GPa) = 32.91914 36.25277 34.58595
#
# Velocity S-wave (km/s) = 3.86206 4.05290 3.95863
# Velocity P-wave (km/s) = 6.96619 7.13566 7.05143
#
# Compressibility (1/GPa) = 0.01582019
#
# Stress axis : x y z
#
# Youngs Moduli (GPa) = 73.99826 73.99732 120.22106
#
# Poissons Ratio (x) = 0.57803 0.11729
# Poissons Ratio (y) = 0.57803 0.11730
# Poissons Ratio (z) = 0.07220 0.07220
#
# Static dielectric constant tensor:
#      x y z
#    x 4.125930 0.000000 0.000000 
#    y 0.000000 4.125930 0.000000 
#    z 0.000000 0.000000 4.228370 
# 
# 
# High freq. dielectric constant tensor:
#      x y z
#    x 1.866200 0.000000 0.000000 
#    y 0.000000 1.866200 0.000000 
#    z 0.000000 0.000000 1.886440 
# 
# From -- ./inp_files/21577.got.cif
#   From: 2010.03.12/outbox.cif.g09.slc.cpg/sg91_11_cif.got.tgz:21577.got - 2010.04.08 20:27:58.
