data_PCOD8305228
_publ_section_title
;
Structure prediction by ZEFSAII (Michael W. Deem and Ramdas Pophale) SiO2 
 PCOD8305228
Probable space group: P 41 21 2
;
_chemical_formula_sum "Si O2"
_cell_formula_units_Z 40
_cell_length_a 11.610532
_cell_length_b 11.610532
_cell_length_c 14.737210
_cell_angle_alpha 90.000000
_cell_angle_beta 90.000000
_cell_angle_gamma 90.000000
_cell_volume 1986.641538
_symmetry_space_group_name_H-M "P 41 21 2"
_symmetry_group_IT_number 92
_symmetry_cell_setting 'tetragonal'
loop_
_space_group_symop_operation_xyz
x,y,z
1/2-y,1/2+x,1/4+z
-x,-y,1/2+z
1/2+y,1/2-x,3/4+z
1/2+x,1/2-y,3/4-z
1/2-x,1/2+y,1/4-z
y,x,-z
-y,-x,1/2-z
loop_
_atom_site_type_symbol
_atom_site_label
_atom_site_fract_x
_atom_site_fract_y
_atom_site_fract_z
Si Si1 0.240202 0.983842 0.311497
Si Si2 0.402842 0.081588 0.182662
Si Si3 0.270371 0.557384 0.393900
Si Si4 0.263335 0.736666 0.250000
Si Si5 0.507819 0.507819 0.000000
Si Si6 0.884950 0.550708 0.746230
O O1 0.291392 0.956683 0.411632
O O2 0.281632 0.874091 0.251244
O O3 0.103983 0.004213 0.316022
O O4 0.303470 0.090375 0.260113
O O5 0.510350 0.008711 0.218274
O O6 0.348678 0.023201 0.092181
O O7 0.310926 0.671717 0.339349
O O8 0.379759 0.493471 0.437471
O O9 0.211101 0.467481 0.324140
O O10 0.185189 0.600708 0.473117
#
# Coordination Sequence:
#
# PCOD8305228 Si02
#       6
#     8   8   8   4   4   8
#     4  10  19  33  57  92 119 147 203 255 305 354
#     4   9  15  34  62  89 106 146 206 263 283 353
#     4  11  22  39  62  89 125 161 205 248 315 365
#     4  11  18  32  68  85 120 152 200 261 294 360
#     4  11  26  36  52  93 136 160 192 253 310 364
#     4   9  18  36  66  85 106 158 210 244 301 359
#
# _framework density 20.134481999999998
#
# number of rings (size 3 to 8) (size 9 to 14) (size 15 to 20)
#    0.000    2.000    6.000    1.200    0.000    0.000 
#    3.600    0.000    8.800    0.000    0.000    0.000 
#    0.000    0.000    0.000    0.000    0.000    0.000 
#
# Total GULP energy -495735.694513 kJ/mol
# GULP energy per Si atom -12393.392363 kJ/mol
# Density = 2.008866 g / cm^3
# Si number density = 20.134482 Si / 1000 Ang^3
#
#
#
# Elastic Constant Matrix: (Units=GPa)
#
#
# Indices 1 2 3 4 5 6 
#
# 1 107.7425 33.3599 44.8096 0.0000 0.0000 0.0000
# 2 33.3599 107.7427 44.8096 0.0000 0.0000 0.0000
# 3 44.8096 44.8096 71.0487 0.0000 0.0000 0.0000
# 4 0.0000 0.0000 0.0000 33.7314 0.0000 0.0000
# 5 0.0000 0.0000 0.0000 0.0000 33.7315 0.0000
# 6 0.0000 0.0000 0.0000 0.0000 0.0000 15.1999
#
#
#
# Elastic Compliance Matrix: (Units=1/GPa)
#
#
# Indices 1 2 3 4 5 6 
#
# 1 0.012634 -0.000810 -0.007457 0.000000 0.000000 0.000000
# 2 -0.000810 0.012633 -0.007457 0.000000 0.000000 0.000000
# 3 -0.007457 -0.007457 0.023481 0.000000 0.000000 0.000000
# 4 0.000000 0.000000 0.000000 0.029646 0.000000 0.000000
# 5 0.000000 0.000000 0.000000 0.000000 0.029646 0.000000
# 6 0.000000 0.000000 0.000000 0.000000 0.000000 0.065790
#
#
# Mechanical properties :
#
#
# Convention : Reuss Voigt Hill
#
# Bulk Modulus (GPa) = 57.80359 59.16579 58.48469
# Shear Modulus (GPa) = 23.69178 27.43621 25.56399
#
# Velocity S-wave (km/s) = 3.43399 3.69541 3.56710
# Velocity P-wave (km/s) = 6.67039 6.90342 6.78791
#
# Compressibility (1/GPa) = 0.01729996
#
# Stress axis : x y z
#
# Youngs Moduli (GPa) = 79.15446 79.15473 42.58851
#
# Poissons Ratio (x) = 0.06415 0.31757
# Poissons Ratio (y) = 0.06415 0.31757
# Poissons Ratio (z) = 0.59023 0.59023
#
# Static dielectric constant tensor:
#      x y z
#    x 3.633460 0.000000 0.000000 
#    y 0.000000 3.633440 0.000000 
#    z 0.000000 0.000000 3.796640 
# 
# 
# High freq. dielectric constant tensor:
#      x y z
#    x 1.773630 0.000000 0.000000 
#    y 0.000000 1.773630 0.000000 
#    z 0.000000 0.000000 1.765980 
# 
# From -- ./inp_files/2666.got.cif
#   From: 2010.03.12/outbox.cif.g09.slc.cpg/sg92_2_cif.got.tgz:2666.got - 2010.04.08 20:41:11.
