data_PCOD8305677
_publ_section_title
;
Structure prediction by ZEFSAII (Michael W. Deem and Ramdas Pophale) SiO2 
 PCOD8305677
Probable space group: P 42 21 2
;
_chemical_formula_sum "Si O2"
_cell_formula_units_Z 58
_cell_length_a 17.185035
_cell_length_b 17.185035
_cell_length_c 9.245709
_cell_angle_alpha 90.000000
_cell_angle_beta 90.000000
_cell_angle_gamma 90.000000
_cell_volume 2730.492967
_symmetry_space_group_name_H-M "P 42 21 2"
_symmetry_group_IT_number 94
_symmetry_cell_setting 'tetragonal'
loop_
_space_group_symop_operation_xyz
x,y,z
1/2-y,1/2+x,1/2+z
-x,-y,z
1/2+y,1/2-x,1/2+z
1/2+x,1/2-y,1/2-z
1/2-x,1/2+y,1/2-z
y,x,-z
-y,-x,-z
loop_
_atom_site_type_symbol
_atom_site_label
_atom_site_fract_x
_atom_site_fract_y
_atom_site_fract_z
Si Si1 0.190383 0.923192 0.565885
Si Si2 0.678811 0.151462 0.745453
Si Si3 0.559030 0.070628 0.528121
Si Si4 0.843486 0.976768 0.830620
Si Si5 0.705683 0.049829 0.997898
Si Si6 0.000000 0.000000 0.000000
Si Si7 0.191637 0.225097 0.158450
Si Si8 0.909174 0.309269 0.675266
O O1 0.112722 0.887279 0.500000
O O2 0.238259 0.864742 0.668712
O O3 0.241171 0.942432 0.425340
O O4 0.167294 0.997083 0.663804
O O5 0.610328 0.103624 0.662878
O O6 0.680853 0.127799 0.913480
O O7 0.675096 0.245218 0.750859
O O8 0.512957 0.141399 0.458971
O O9 0.614566 0.048707 0.393050
O O10 0.500000 0.000000 0.572702
O O11 0.824835 0.886009 0.830081
O O12 0.787869 0.021048 0.941482
O O13 0.928155 0.996977 0.889911
O O14 0.708519 0.058785 0.168147
O O15 0.180661 0.316169 0.194607
O O16 0.226244 0.226244 0.000000
#
# Coordination Sequence:
#
# PCOD8305677 Si02
#       8
#     8   8   8   8   8   2   8   8
#     4  10  20  43  71  99 134 177 227 292 351 424
#     4  10  22  42  72  99 138 189 234 279 345 428
#     4  11  25  42  64  99 149 193 225 276 353 432
#     4  11  26  45  74 100 140 183 247 299 371 427
#     4  11  26  40  69 109 142 178 237 296 348 428
#     4  12  28  44  74 100 132 192 242 328 364 424
#     4  12  19  46  76  96 134 191 236 286 357 427
#     4  11  23  41  74 102 140 192 225 286 360 426
#
# _framework density 21.241586000000002
#
# number of rings (size 3 to 8) (size 9 to 14) (size 15 to 20)
#    0.000    1.103    6.207    0.000    5.793    1.655 
#    0.000    0.345    6.069    0.000    0.000    0.000 
#    0.000    0.000    0.000    0.000    0.000    0.000 
#
# Total GULP energy -718706.591165 kJ/mol
# GULP energy per Si atom -12391.492951 kJ/mol
# Density = 2.119324 g / cm^3
# Si number density = 21.241586 Si / 1000 Ang^3
#
#
#
# Elastic Constant Matrix: (Units=GPa)
#
#
# Indices 1 2 3 4 5 6 
#
# 1 116.9203 50.0333 47.5378 0.0000 0.0000 0.0000
# 2 50.0333 116.9196 47.5382 0.0000 0.0000 0.0000
# 3 47.5378 47.5382 146.6905 0.0000 0.0000 0.0000
# 4 0.0000 0.0000 0.0000 19.8310 0.0000 0.0000
# 5 0.0000 0.0000 0.0000 0.0000 19.8305 0.0000
# 6 0.0000 0.0000 0.0000 0.0000 0.0000 28.1453
#
#
#
# Elastic Compliance Matrix: (Units=1/GPa)
#
#
# Indices 1 2 3 4 5 6 
#
# 1 0.011148 -0.003803 -0.002380 0.000000 0.000000 0.000000
# 2 -0.003803 0.011148 -0.002380 0.000000 0.000000 0.000000
# 3 -0.002380 -0.002380 0.008360 0.000000 0.000000 0.000000
# 4 0.000000 0.000000 0.000000 0.050426 0.000000 0.000000
# 5 0.000000 0.000000 0.000000 0.000000 0.050427 0.000000
# 6 0.000000 0.000000 0.000000 0.000000 0.000000 0.035530
#
#
# Mechanical properties :
#
#
# Convention : Reuss Voigt Hill
#
# Bulk Modulus (GPa) = 73.91578 74.52766 74.22172
# Shear Modulus (GPa) = 26.50047 29.25609 27.87828
#
# Velocity S-wave (km/s) = 3.53593 3.71523 3.62669
# Velocity P-wave (km/s) = 7.17939 7.31887 7.24946
#
# Compressibility (1/GPa) = 0.01352891
#
# Stress axis : x y z
#
# Youngs Moduli (GPa) = 89.70288 89.70204 119.61869
#
# Poissons Ratio (x) = 0.34111 0.28473
# Poissons Ratio (y) = 0.34111 0.28474
# Poissons Ratio (z) = 0.21352 0.21353
#
# Static dielectric constant tensor:
#      x y z
#    x 3.819220 0.000000 0.000000 
#    y 0.000000 3.819220 0.000000 
#    z 0.000000 0.000000 3.868420 
# 
# 
# High freq. dielectric constant tensor:
#      x y z
#    x 1.832380 0.000000 0.000000 
#    y 0.000000 1.832380 0.000000 
#    z 0.000000 0.000000 1.832370 
# 
# From -- ./inp_files/1728.got.cif
#   From: 2010.03.12/outbox.cif.g09.slc.cpg/sg94_1_cif.got.tgz:1728.got - 2010.04.08 20:48:32.
