data_PCOD8305155
_publ_section_title
;
Structure prediction by ZEFSAII (Michael W. Deem and Ramdas Pophale) SiO2 
 PCOD8305155
Probable space group: P 41 2 2
;
_chemical_formula_sum "Si O2"
_cell_formula_units_Z 40
_cell_length_a 9.310861
_cell_length_b 9.310861
_cell_length_c 20.716242
_cell_angle_alpha 90.000000
_cell_angle_beta 90.000000
_cell_angle_gamma 90.000000
_cell_volume 1795.935198
_symmetry_space_group_name_H-M "P 41 2 2"
_symmetry_group_IT_number 91
_symmetry_cell_setting 'tetragonal'
loop_
_space_group_symop_operation_xyz
x,y,z
-y,x,1/4+z
-x,-y,1/2+z
y,-x,3/4+z
x,-y,1/2-z
-x,y,-z
y,x,3/4-z
-y,-x,1/4-z
loop_
_atom_site_type_symbol
_atom_site_label
_atom_site_fract_x
_atom_site_fract_y
_atom_site_fract_z
Si Si1 0.403288 0.000000 0.750000
Si Si2 0.167526 0.334524 0.661668
Si Si3 0.341516 0.101749 0.499730
Si Si4 0.011090 0.221850 0.117209
Si Si5 0.408237 0.239732 0.228227
Si Si6 0.500000 0.606749 0.500000
O O1 0.312521 0.934843 0.689642
O O2 0.502671 0.132469 0.725600
O O3 0.208135 0.169095 0.660842
O O4 0.160270 0.397602 0.590373
O O5 0.288842 0.424058 0.699016
O O6 0.008320 0.336004 0.690862
O O7 0.500000 0.164903 0.500000
O O8 0.302695 0.012122 0.564278
O O9 0.249160 0.247166 0.491765
O O10 0.930064 0.069937 0.125000
O O11 0.496851 0.386431 0.218170
#
# Coordination Sequence:
#
# PCOD8305155 Si02
#       6
#     4   8   8   8   8   4
#     4  12  24  44  66 110 136 188 242 302 362 428
#     4  11  24  44  73 106 139 191 240 292 369 435
#     4  11  23  45  67  99 141 187 232 289 364 428
#     4  11  25  42  70 101 141 181 237 301 356 429
#     4  11  26  43  71 106 147 185 240 302 360 435
#     4  12  22  46  72 108 144 186 244 300 354 432
#
# _framework density 22.272516
#
# number of rings (size 3 to 8) (size 9 to 14) (size 15 to 20)
#    0.000    0.800    4.000    3.000    0.000    3.200 
#    0.000    3.000    0.000    0.000    0.000    0.000 
#    0.000    0.000    0.000    0.000    0.000    0.000 
#
# Total GULP energy -495776.192483 kJ/mol
# GULP energy per Si atom -12394.404812 kJ/mol
# Density = 2.222182 g / cm^3
# Si number density = 22.272516 Si / 1000 Ang^3
#
#
#
# Elastic Constant Matrix: (Units=GPa)
#
#
# Indices 1 2 3 4 5 6 
#
# 1 128.4173 47.9344 46.6494 0.0000 0.0000 0.0000
# 2 47.9344 128.4198 46.6498 0.0000 0.0000 0.0000
# 3 46.6494 46.6498 57.9785 0.0000 0.0000 0.0000
# 4 0.0000 0.0000 0.0000 -19.3606 0.0000 0.0000
# 5 0.0000 0.0000 0.0000 0.0000 -19.3201 0.0000
# 6 0.0000 0.0000 0.0000 0.0000 0.0000 47.8339
#
#
#
# Elastic Compliance Matrix: (Units=1/GPa)
#
#
# Indices 1 2 3 4 5 6 
#
# 1 0.011149 -0.001276 -0.007944 0.000000 0.000000 0.000000
# 2 -0.001276 0.011149 -0.007944 0.000000 0.000000 0.000000
# 3 -0.007944 -0.007944 0.030031 0.000000 0.000000 0.000000
# 4 0.000000 0.000000 0.000000 -0.051651 0.000000 0.000000
# 5 0.000000 0.000000 0.000000 0.000000 -0.051760 0.000000
# 6 0.000000 0.000000 0.000000 0.000000 0.000000 0.020906
#
#
# Mechanical properties :
#
#
# Convention : Reuss Voigt Hill
#
# Bulk Modulus (GPa) = 55.55031 66.36475 60.95753
# Shear Modulus (GPa) = 492.50505 13.40278 252.95392
#
# Velocity S-wave (km/s) = 14.88647 2.45575 10.66859
# Velocity P-wave (km/s) = 17.90171 6.15649 13.38606
#
# Compressibility (1/GPa) = 0.01800170
#
# Stress axis : x y z
#
# Youngs Moduli (GPa) = 89.69316 89.69498 33.29860
#
# Poissons Ratio (x) = 0.11443 0.26453
# Poissons Ratio (y) = 0.11443 0.26452
# Poissons Ratio (z) = 0.71253 0.71253
#
# Static dielectric constant tensor:
#      x y z
#    x 4.172000 0.000000 0.000000 
#    y 0.000000 4.171920 0.000000 
#    z 0.000000 0.000000 3.879600 
# 
# 
# High freq. dielectric constant tensor:
#      x y z
#    x 1.891900 0.000000 0.000000 
#    y 0.000000 1.891900 0.000000 
#    z 0.000000 0.000000 1.864690 
# 
# From -- ./inp_files/12765.got.cif
#   From: 2010.03.12/outbox.cif.g09.slc.cpg/sg91_7_cif.got.tgz:12765.got - 2010.04.08 20:27:58.
