data_PCOD8305118
_publ_section_title
;
Structure prediction by ZEFSAII (Michael W. Deem and Ramdas Pophale) SiO2 
 PCOD8305118
Probable space group: P 41 2 2
;
_chemical_formula_sum "Si O2"
_cell_formula_units_Z 48
_cell_length_a 14.038130
_cell_length_b 14.038130
_cell_length_c 13.135522
_cell_angle_alpha 90.000000
_cell_angle_beta 90.000000
_cell_angle_gamma 90.000000
_cell_volume 2588.605418
_symmetry_space_group_name_H-M "P 41 2 2"
_symmetry_group_IT_number 91
_symmetry_cell_setting 'tetragonal'
loop_
_space_group_symop_operation_xyz
x,y,z
-y,x,1/4+z
-x,-y,1/2+z
y,-x,3/4+z
x,-y,1/2-z
-x,y,-z
y,x,3/4-z
-y,-x,1/4-z
loop_
_atom_site_type_symbol
_atom_site_label
_atom_site_fract_x
_atom_site_fract_y
_atom_site_fract_z
Si Si1 0.068206 0.442938 0.149615
Si Si2 0.478749 0.330519 0.885658
Si Si3 0.892918 0.723423 0.985394
Si Si4 0.487130 0.127462 0.191687
Si Si5 0.354362 0.395376 0.260523
Si Si6 0.716512 0.165020 0.503619
O O1 0.099050 0.500000 0.250000
O O2 0.088432 0.330978 0.175930
O O3 0.960112 0.465466 0.118802
O O4 0.135266 0.473540 0.056432
O O5 0.372960 0.372960 0.875000
O O6 0.476912 0.218106 0.868816
O O7 0.555427 0.379608 0.812177
O O8 0.500000 0.355740 0.000000
O O9 0.870564 0.697763 0.868254
O O10 0.879618 0.627912 0.053874
O O11 0.828161 0.814213 0.019685
O O12 0.000000 0.759657 0.000000
O O13 0.312038 0.500000 0.250000
O O14 0.385975 0.385975 0.375000
O O15 0.270076 0.324311 0.233446
#
# Coordination Sequence:
#
# PCOD8305118 Si02
#       6
#     8   8   8   8   8   8
#     4  11  21  37  62  90 122 160 211 268 325 379
#     4  12  26  40  54  85 127 172 213 250 319 391
#     4  11  20  38  61  96 125 153 212 278 336 379
#     4  11  22  38  60  86 127 167 210 261 313 394
#     4  12  23  37  59  85 124 170 214 258 307 385
#     4  11  22  35  62  95 122 159 211 272 332 383
#
# _framework density 18.542802999999999
#
# number of rings (size 3 to 8) (size 9 to 14) (size 15 to 20)
#    0.000    0.667    6.667    3.000    4.667    0.000 
#    0.000    0.000    0.000    0.000   21.667    0.000 
#    0.000    0.000    0.000    0.000    0.000    0.000 
#
# Total GULP energy -594986.003936 kJ/mol
# GULP energy per Si atom -12395.541749 kJ/mol
# Density = 1.850060 g / cm^3
# Si number density = 18.542803 Si / 1000 Ang^3
#
#
#
# Elastic Constant Matrix: (Units=GPa)
#
#
# Indices 1 2 3 4 5 6 
#
# 1 104.4374 49.1685 31.5116 0.0000 0.0000 0.0000
# 2 49.1685 104.4374 31.5116 0.0000 0.0000 0.0000
# 3 31.5116 31.5116 80.8822 0.0000 0.0000 0.0000
# 4 0.0000 0.0000 0.0000 59.9171 0.0000 0.0000
# 5 0.0000 0.0000 0.0000 0.0000 59.9171 0.0000
# 6 0.0000 0.0000 0.0000 0.0000 0.0000 36.0103
#
#
#
# Elastic Compliance Matrix: (Units=1/GPa)
#
#
# Indices 1 2 3 4 5 6 
#
# 1 0.012921 -0.005172 -0.003019 0.000000 0.000000 0.000000
# 2 -0.005172 0.012921 -0.003019 0.000000 0.000000 0.000000
# 3 -0.003019 -0.003019 0.014716 0.000000 0.000000 0.000000
# 4 0.000000 0.000000 0.000000 0.016690 0.000000 0.000000
# 5 0.000000 0.000000 0.000000 0.000000 0.016690 0.000000
# 6 0.000000 0.000000 0.000000 0.000000 0.000000 0.027770
#
#
# Mechanical properties :
#
#
# Convention : Reuss Voigt Hill
#
# Bulk Modulus (GPa) = 55.13315 57.12672 56.12994
# Shear Modulus (GPa) = 38.41021 43.00657 40.70839
#
# Velocity S-wave (km/s) = 4.55624 4.82115 4.69057
# Velocity P-wave (km/s) = 7.58133 7.86551 7.72473
#
# Compressibility (1/GPa) = 0.01813791
#
# Stress axis : x y z
#
# Youngs Moduli (GPa) = 77.39286 77.39286 67.95328
#
# Poissons Ratio (x) = 0.40030 0.20515
# Poissons Ratio (y) = 0.40030 0.20515
# Poissons Ratio (z) = 0.23364 0.23364
#
# Static dielectric constant tensor:
#      x y z
#    x 3.477860 0.000000 0.000000 
#    y 0.000000 3.477860 0.000000 
#    z 0.000000 0.000000 3.574850 
# 
# 
# High freq. dielectric constant tensor:
#      x y z
#    x 1.711520 0.000000 0.000000 
#    y 0.000000 1.711520 0.000000 
#    z 0.000000 0.000000 1.721750 
# 
# From -- ./inp_files/3816.got.cif
#   From: 2010.03.12/outbox.cif.g09.slc.cpg/sg91_2_cif.got.tgz:3816.got - 2010.04.08 20:27:58.
