data_PCOD8305166
_publ_section_title
;
Structure prediction by ZEFSAII (Michael W. Deem and Ramdas Pophale) SiO2 
 PCOD8305166
Probable space group: P 41 2 2
;
_chemical_formula_sum "Si O2"
_cell_formula_units_Z 36
_cell_length_a 8.742354
_cell_length_b 8.742354
_cell_length_c 20.984174
_cell_angle_alpha 90.000000
_cell_angle_beta 90.000000
_cell_angle_gamma 90.000000
_cell_volume 1603.794261
_symmetry_space_group_name_H-M "P 41 2 2"
_symmetry_group_IT_number 91
_symmetry_cell_setting 'tetragonal'
loop_
_space_group_symop_operation_xyz
x,y,z
-y,x,1/4+z
-x,-y,1/2+z
y,-x,3/4+z
x,-y,1/2-z
-x,y,-z
y,x,3/4-z
-y,-x,1/4-z
loop_
_atom_site_type_symbol
_atom_site_label
_atom_site_fract_x
_atom_site_fract_y
_atom_site_fract_z
Si Si1 0.637240 0.055928 0.857643
Si Si2 0.327355 0.773635 0.230452
Si Si3 0.500000 0.469147 0.000000
Si Si4 0.638205 0.200208 0.073516
Si Si5 0.019402 0.174541 0.723428
O O1 0.634478 0.181725 0.802849
O O2 0.490097 0.081862 0.902380
O O3 0.621820 0.892842 0.823480
O O4 0.796930 0.066466 0.898879
O O5 0.421164 0.621826 0.215438
O O6 0.146599 0.750411 0.228362
O O7 0.567551 0.363829 0.055672
O O8 0.770781 0.229220 0.125000
O O9 0.721696 0.135103 0.012128
O O10 0.020546 0.000000 0.750000
#
# Coordination Sequence:
#
# PCOD8305166 Si02
#       5
#     8   8   4   8   8
#     4  11  24  50  70 109 145 189 246 296 366 443
#     4  11  27  45  77 103 148 192 240 301 368 443
#     4  12  26  50  68 114 142 198 240 306 372 434
#     4  12  27  46  74 108 149 193 246 305 371 438
#     4  12  27  47  73 109 145 194 246 302 367 433
#
# _framework density 22.446771999999999
#
# number of rings (size 3 to 8) (size 9 to 14) (size 15 to 20)
#    0.000    0.444    6.667    0.667    6.222    5.333 
#    0.000    0.000    0.000    0.000    0.000    0.000 
#    0.000    0.000    0.000    0.000    0.000    0.000 
#
# Total GULP energy -446316.250853 kJ/mol
# GULP energy per Si atom -12397.673635 kJ/mol
# Density = 2.239568 g / cm^3
# Si number density = 22.446772 Si / 1000 Ang^3
#
#
#
# Elastic Constant Matrix: (Units=GPa)
#
#
# Indices 1 2 3 4 5 6 
#
# 1 109.8561 79.6640 49.6777 0.0000 0.0000 0.0000
# 2 79.6640 109.8566 49.6779 0.0000 0.0000 0.0000
# 3 49.6777 49.6779 131.0134 0.0000 0.0000 0.0000
# 4 0.0000 0.0000 0.0000 24.6081 0.0000 0.0000
# 5 0.0000 0.0000 0.0000 0.0000 24.6078 0.0000
# 6 0.0000 0.0000 0.0000 0.0000 0.0000 41.5061
#
#
#
# Elastic Compliance Matrix: (Units=1/GPa)
#
#
# Indices 1 2 3 4 5 6 
#
# 1 0.019853 -0.013268 -0.002497 0.000000 0.000000 0.000000
# 2 -0.013268 0.019853 -0.002497 0.000000 0.000000 0.000000
# 3 -0.002497 -0.002497 0.009527 0.000000 0.000000 0.000000
# 4 0.000000 0.000000 0.000000 0.040637 0.000000 0.000000
# 5 0.000000 0.000000 0.000000 0.000000 0.040638 0.000000
# 6 0.000000 0.000000 0.000000 0.000000 0.000000 0.024093
#
#
# Mechanical properties :
#
#
# Convention : Reuss Voigt Hill
#
# Bulk Modulus (GPa) = 78.68319 78.75170 78.71744
# Shear Modulus (GPa) = 25.59365 29.59149 27.59257
#
# Velocity S-wave (km/s) = 3.38034 3.63477 3.50986
# Velocity P-wave (km/s) = 7.09682 7.26466 7.18123
#
# Compressibility (1/GPa) = 0.01270920
#
# Stress axis : x y z
#
# Youngs Moduli (GPa) = 50.36934 50.36954 104.96994
#
# Poissons Ratio (x) = 0.66829 0.26212
# Poissons Ratio (y) = 0.66829 0.26212
# Poissons Ratio (z) = 0.12578 0.12578
#
# Static dielectric constant tensor:
#      x y z
#    x 4.023340 0.000000 0.000000 
#    y 0.000000 4.023340 0.000000 
#    z 0.000000 0.000000 4.332310 
# 
# 
# High freq. dielectric constant tensor:
#      x y z
#    x 1.884240 0.000000 0.000000 
#    y 0.000000 1.884240 0.000000 
#    z 0.000000 0.000000 1.906050 
# 
# From -- ./inp_files/12284.got.cif
#   From: 2010.03.12/outbox.cif.g09.slc.cpg/sg91_7_cif.got.tgz:12284.got - 2010.04.08 20:27:58.
