data_PCOD8305754
_publ_section_title
;
Structure prediction by ZEFSAII (Michael W. Deem and Ramdas Pophale) SiO2 
 PCOD8305754
Probable space group: P 42 21 2
;
_chemical_formula_sum "Si O2"
_cell_formula_units_Z 28
_cell_length_a 15.939240
_cell_length_b 15.939240
_cell_length_c 5.029754
_cell_angle_alpha 90.000000
_cell_angle_beta 90.000000
_cell_angle_gamma 90.000000
_cell_volume 1277.856141
_symmetry_space_group_name_H-M "P 42 21 2"
_symmetry_group_IT_number 94
_symmetry_cell_setting 'tetragonal'
loop_
_space_group_symop_operation_xyz
x,y,z
1/2-y,1/2+x,1/2+z
-x,-y,z
1/2+y,1/2-x,1/2+z
1/2+x,1/2-y,1/2-z
1/2-x,1/2+y,1/2-z
y,x,-z
-y,-x,-z
loop_
_atom_site_type_symbol
_atom_site_label
_atom_site_fract_x
_atom_site_fract_y
_atom_site_fract_z
Si Si1 0.634952 0.365049 0.000000
Si Si2 0.197960 0.463401 0.319852
Si Si3 0.689369 0.924509 0.678165
Si Si4 0.537079 0.616812 0.739494
O O1 0.724357 0.372757 0.854197
O O2 0.562531 0.375443 0.780311
O O3 0.183253 0.538814 0.526277
O O4 0.135969 0.387866 0.379722
O O5 0.292198 0.426938 0.340746
O O6 0.183664 0.498197 0.024449
O O7 0.552970 0.552970 0.500000
O O8 0.582751 0.582751 0.000000
#
# Coordination Sequence:
#
# PCOD8305754 Si02
#       4
#     4   8   8   8
#     4  10  25  44  64 100 132 173 212 278 324 396
#     4  11  25  44  67 101 129 178 222 269 328 395
#     4  11  25  45  67  96 136 169 227 270 333 386
#     4  11  24  42  67  97 134 171 220 261 331 390
#
# _framework density 21.911698000000001
#
# number of rings (size 3 to 8) (size 9 to 14) (size 15 to 20)
#    0.000    1.143    0.000    5.571    2.000   17.143 
#    5.143    0.000    0.000    0.000    0.000    0.000 
#    0.000    0.000    0.000    0.000    0.000    0.000 
#
# Total GULP energy -347359.330720 kJ/mol
# GULP energy per Si atom -12405.690383 kJ/mol
# Density = 2.186183 g / cm^3
# Si number density = 21.911698 Si / 1000 Ang^3
#
#
#
# Elastic Constant Matrix: (Units=GPa)
#
#
# Indices 1 2 3 4 5 6 
#
# 1 110.0599 66.4780 17.1959 0.0000 0.0000 0.0000
# 2 66.4780 110.0601 17.1955 0.0000 0.0000 0.0000
# 3 17.1959 17.1955 96.0901 0.0000 0.0000 0.0000
# 4 0.0000 0.0000 0.0000 28.1774 0.0000 0.0000
# 5 0.0000 0.0000 0.0000 0.0000 28.1768 0.0000
# 6 0.0000 0.0000 0.0000 0.0000 0.0000 42.7140
#
#
#
# Elastic Compliance Matrix: (Units=1/GPa)
#
#
# Indices 1 2 3 4 5 6 
#
# 1 0.014407 -0.008538 -0.001050 0.000000 0.000000 0.000000
# 2 -0.008538 0.014407 -0.001050 0.000000 0.000000 0.000000
# 3 -0.001050 -0.001050 0.010783 0.000000 0.000000 0.000000
# 4 0.000000 0.000000 0.000000 0.035489 0.000000 0.000000
# 5 0.000000 0.000000 0.000000 0.000000 0.035490 0.000000
# 6 0.000000 0.000000 0.000000 0.000000 0.000000 0.023412
#
#
# Mechanical properties :
#
#
# Convention : Reuss Voigt Hill
#
# Bulk Modulus (GPa) = 54.58562 57.54985 56.06774
# Shear Modulus (GPa) = 30.98427 34.16970 32.57698
#
# Velocity S-wave (km/s) = 3.76447 3.95324 3.86001
# Velocity P-wave (km/s) = 6.62274 6.86724 6.74610
#
# Compressibility (1/GPa) = 0.01831984
#
# Stress axis : x y z
#
# Youngs Moduli (GPa) = 69.40966 69.40991 92.74017
#
# Poissons Ratio (x) = 0.59263 0.09741
# Poissons Ratio (y) = 0.59263 0.09740
# Poissons Ratio (z) = 0.07290 0.07290
#
# Static dielectric constant tensor:
#      x y z
#    x 4.056180 0.000000 0.000000 
#    y 0.000000 4.056190 0.000000 
#    z 0.000000 0.000000 9.524120 
# 
# 
# High freq. dielectric constant tensor:
#      x y z
#    x 1.866920 0.000000 0.000000 
#    y 0.000000 1.866920 0.000000 
#    z 0.000000 0.000000 1.872520 
# 
# From -- ./inp_files/233.got.cif
#   From: 2010.03.12/outbox.cif.g09.slc.cpg/sg94_1_cif.got.tgz:233.got - 2010.04.08 20:48:32.
