data_PCOD8305952
_publ_section_title
;
Structure prediction by ZEFSAII (Michael W. Deem and Ramdas Pophale) SiO2 
 PCOD8305952
Probable space group: P 43 21 2
;
_chemical_formula_sum "Si O2"
_cell_formula_units_Z 48
_cell_length_a 9.029891
_cell_length_b 9.029891
_cell_length_c 27.967801
_cell_angle_alpha 90.000000
_cell_angle_beta 90.000000
_cell_angle_gamma 90.000000
_cell_volume 2280.464609
_symmetry_space_group_name_H-M "P 43 21 2"
_symmetry_group_IT_number 96
_symmetry_cell_setting 'tetragonal'
loop_
_space_group_symop_operation_xyz
x,y,z
1/2-y,1/2+x,3/4+z
-x,-y,1/2+z
1/2+y,1/2-x,1/4+z
1/2+x,1/2-y,1/4-z
1/2-x,1/2+y,3/4-z
y,x,-z
-y,-x,1/2-z
loop_
_atom_site_type_symbol
_atom_site_label
_atom_site_fract_x
_atom_site_fract_y
_atom_site_fract_z
Si Si1 0.552700 0.063721 0.874511
Si Si2 0.599625 0.009745 0.470415
Si Si3 0.385382 0.390337 0.737384
Si Si4 0.904828 0.651818 0.713599
Si Si5 0.729999 0.651714 0.135031
Si Si6 0.986713 0.835779 0.289711
O O1 0.441705 0.052186 0.918911
O O2 0.633373 0.907433 0.864032
O O3 0.447457 0.120959 0.832699
O O4 0.674594 0.190506 0.883145
O O5 0.775216 0.032144 0.474572
O O6 0.520324 0.168161 0.479832
O O7 0.558660 0.892695 0.511713
O O8 0.546595 0.453406 0.750000
O O9 0.389841 0.215586 0.746077
O O10 0.337450 0.420730 0.682886
O O11 0.902705 0.824281 0.700508
O O12 0.656114 0.572048 0.089764
O O13 0.068109 0.931892 0.250000
#
# Coordination Sequence:
#
# PCOD8305952 Si02
#       6
#     8   8   8   8   8   8
#     4  11  24  42  69  94 128 170 216 262 320 379
#     4  10  22  44  64  91 129 167 211 266 315 376
#     4  11  25  42  64  96 130 166 214 265 321 380
#     4  11  23  43  64  95 128 165 213 263 321 378
#     4  11  24  43  67  95 125 172 215 261 318 382
#     4  10  24  42  66  93 129 168 214 263 317 386
#
# _framework density 21.048345000000001
#
# number of rings (size 3 to 8) (size 9 to 14) (size 15 to 20)
#    0.000    1.333    3.333    1.000    7.000    1.333 
#    0.000    0.000    0.000    0.000    0.000    0.000 
#    0.000    0.000    0.000    0.000    0.000    0.000 
#
# Total GULP energy -595327.165588 kJ/mol
# GULP energy per Si atom -12402.649283 kJ/mol
# Density = 2.100044 g / cm^3
# Si number density = 21.048345 Si / 1000 Ang^3
#
#
#
# Elastic Constant Matrix: (Units=GPa)
#
#
# Indices 1 2 3 4 5 6 
#
# 1 61.2317 27.8785 31.6278 0.0000 0.0000 0.0000
# 2 27.8785 61.2347 31.6280 0.0000 0.0000 0.0000
# 3 31.6278 31.6280 119.0096 0.0000 0.0000 0.0000
# 4 0.0000 0.0000 0.0000 32.9376 0.0000 0.0000
# 5 0.0000 0.0000 0.0000 0.0000 32.9372 0.0000
# 6 0.0000 0.0000 0.0000 0.0000 0.0000 34.6472
#
#
#
# Elastic Compliance Matrix: (Units=1/GPa)
#
#
# Indices 1 2 3 4 5 6 
#
# 1 0.021907 -0.008075 -0.003676 0.000000 0.000000 0.000000
# 2 -0.008075 0.021905 -0.003676 0.000000 0.000000 0.000000
# 3 -0.003676 -0.003676 0.010356 0.000000 0.000000 0.000000
# 4 0.000000 0.000000 0.000000 0.030360 0.000000 0.000000
# 5 0.000000 0.000000 0.000000 0.000000 0.030361 0.000000
# 6 0.000000 0.000000 0.000000 0.000000 0.000000 0.028862
#
#
# Mechanical properties :
#
#
# Convention : Reuss Voigt Hill
#
# Bulk Modulus (GPa) = 42.88967 47.08271 44.98619
# Shear Modulus (GPa) = 27.41582 30.12717 28.77149
#
# Velocity S-wave (km/s) = 3.61295 3.78740 3.70120
# Velocity P-wave (km/s) = 6.15025 6.44541 6.29956
#
# Compressibility (1/GPa) = 0.02331564
#
# Stress axis : x y z
#
# Youngs Moduli (GPa) = 45.64846 45.65094 96.55859
#
# Poissons Ratio (x) = 0.36862 0.35494
# Poissons Ratio (y) = 0.36860 0.35491
# Poissons Ratio (z) = 0.16780 0.16780
#
# Static dielectric constant tensor:
#      x y z
#    x 3.746510 0.000000 0.000000 
#    y 0.000000 3.746510 0.000000 
#    z 0.000000 0.000000 3.889320 
# 
# 
# High freq. dielectric constant tensor:
#      x y z
#    x 1.822050 0.000000 0.000000 
#    y 0.000000 1.822050 0.000000 
#    z 0.000000 0.000000 1.838420 
# 
# From -- ./inp_files/4455.got.cif
#   From: 2010.03.12/outbox.cif.g09.slc.cpg/sg96_3_cif.got.tgz:4455.got - 2010.04.08 20:56:49.
