data_PCOD8305742
_publ_section_title
;
Structure prediction by ZEFSAII (Michael W. Deem and Ramdas Pophale) SiO2 
 PCOD8305742
Probable space group: P 42 21 2
;
_chemical_formula_sum "Si O2"
_cell_formula_units_Z 48
_cell_length_a 8.875990
_cell_length_b 8.875990
_cell_length_c 26.622761
_cell_angle_alpha 90.000000
_cell_angle_beta 90.000000
_cell_angle_gamma 90.000000
_cell_volume 2097.426264
_symmetry_space_group_name_H-M "P 42 21 2"
_symmetry_group_IT_number 94
_symmetry_cell_setting 'tetragonal'
loop_
_space_group_symop_operation_xyz
x,y,z
1/2-y,1/2+x,1/2+z
-x,-y,z
1/2+y,1/2-x,1/2+z
1/2+x,1/2-y,1/2-z
1/2-x,1/2+y,1/2-z
y,x,-z
-y,-x,-z
loop_
_atom_site_type_symbol
_atom_site_label
_atom_site_fract_x
_atom_site_fract_y
_atom_site_fract_z
Si Si1 0.596599 0.146156 0.195570
Si Si2 0.126523 0.895642 0.267244
Si Si3 0.826019 0.511840 0.474970
Si Si4 0.212250 0.781817 0.899802
Si Si5 0.397703 0.708018 0.420269
Si Si6 0.978878 0.329800 0.644831
O O1 0.746598 0.168627 0.229978
O O2 0.470796 0.270992 0.204576
O O3 0.662541 0.142210 0.139389
O O4 0.500000 0.000000 0.207831
O O5 0.214437 0.992525 0.309301
O O6 0.000000 0.000000 0.239574
O O7 0.775148 0.678363 0.456782
O O8 0.725347 0.411786 0.436613
O O9 0.794579 0.469397 0.531845
O O10 0.000000 0.500000 0.462779
O O11 0.391958 0.789766 0.894916
O O12 0.143464 0.952410 0.892346
O O13 0.310365 0.821442 0.383734
O O14 0.000000 0.500000 0.665573
#
# Coordination Sequence:
#
# PCOD8305742 Si02
#       6
#     8   8   8   8   8   8
#     4  12  28  45  70 108 138 184 235 297 350 431
#     4  12  26  47  72  99 144 186 238 291 359 422
#     4  11  23  42  67 103 140 176 234 293 351 429
#     4  11  23  42  67  99 135 180 232 282 353 422
#     4  10  24  42  70  98 137 187 228 294 361 420
#     4  10  23  44  70  94 134 185 234 282 354 430
#
# _framework density 22.885190999999999
#
# number of rings (size 3 to 8) (size 9 to 14) (size 15 to 20)
#    0.000    1.000    1.667    4.500    9.333    2.667 
#    0.000    0.000    0.000    0.000    0.000    0.000 
#    0.000    0.000    0.000    0.000    0.000    0.000 
#
# Total GULP energy -594765.760380 kJ/mol
# GULP energy per Si atom -12390.953341 kJ/mol
# Density = 2.283310 g / cm^3
# Si number density = 22.885191 Si / 1000 Ang^3
#
#
#
# Elastic Constant Matrix: (Units=GPa)
#
#
# Indices 1 2 3 4 5 6 
#
# 1 98.6560 50.7635 20.8832 0.0000 0.0000 0.0000
# 2 50.7635 98.6560 20.8832 0.0000 0.0000 0.0000
# 3 20.8832 20.8832 72.9523 0.0000 0.0000 0.0000
# 4 0.0000 0.0000 0.0000 29.4150 0.0000 0.0000
# 5 0.0000 0.0000 0.0000 0.0000 29.4150 0.0000
# 6 0.0000 0.0000 0.0000 0.0000 0.0000 44.8809
#
#
#
# Elastic Compliance Matrix: (Units=1/GPa)
#
#
# Indices 1 2 3 4 5 6 
#
# 1 0.014077 -0.006803 -0.002082 0.000000 0.000000 0.000000
# 2 -0.006803 0.014077 -0.002082 0.000000 0.000000 0.000000
# 3 -0.002082 -0.002082 0.014900 0.000000 0.000000 0.000000
# 4 0.000000 0.000000 0.000000 0.033996 0.000000 0.000000
# 5 0.000000 0.000000 0.000000 0.000000 0.033996 0.000000
# 6 0.000000 0.000000 0.000000 0.000000 0.000000 0.022281
#
#
# Mechanical properties :
#
#
# Convention : Reuss Voigt Hill
#
# Bulk Modulus (GPa) = 47.34978 50.59152 48.97065
# Shear Modulus (GPa) = 30.80654 32.59115 31.69884
#
# Velocity S-wave (km/s) = 3.67295 3.77784 3.72576
# Velocity P-wave (km/s) = 6.22274 6.41748 6.32086
#
# Compressibility (1/GPa) = 0.02111942
#
# Stress axis : x y z
#
# Youngs Moduli (GPa) = 71.03596 71.03596 67.11492
#
# Poissons Ratio (x) = 0.48324 0.13976
# Poissons Ratio (y) = 0.48324 0.13976
# Poissons Ratio (z) = 0.14793 0.14793
#
# Static dielectric constant tensor:
#      x y z
#    x 4.362600 0.000000 0.000000 
#    y 0.000000 4.362600 0.000000 
#    z 0.000000 0.000000 4.065930 
# 
# 
# High freq. dielectric constant tensor:
#      x y z
#    x 1.914720 0.000000 0.000000 
#    y 0.000000 1.914720 0.000000 
#    z 0.000000 0.000000 1.895810 
# 
# From -- ./inp_files/5553.got.cif
#   From: 2010.03.12/outbox.cif.g09.slc.cpg/sg94_3_cif.got.tgz:5553.got - 2010.04.08 20:48:32.
