data_PCOD8305897
_publ_section_title
;
Structure prediction by ZEFSAII (Michael W. Deem and Ramdas Pophale) SiO2 
 PCOD8305897
Probable space group: P 43 21 2
;
_chemical_formula_sum "Si O2"
_cell_formula_units_Z 52
_cell_length_a 21.500077
_cell_length_b 21.500077
_cell_length_c 6.053003
_cell_angle_alpha 90.000000
_cell_angle_beta 90.000000
_cell_angle_gamma 90.000000
_cell_volume 2798.020678
_symmetry_space_group_name_H-M "P 43 21 2"
_symmetry_group_IT_number 96
_symmetry_cell_setting 'tetragonal'
loop_
_space_group_symop_operation_xyz
x,y,z
1/2-y,1/2+x,3/4+z
-x,-y,1/2+z
1/2+y,1/2-x,1/4+z
1/2+x,1/2-y,1/4-z
1/2-x,1/2+y,3/4-z
y,x,-z
-y,-x,1/2-z
loop_
_atom_site_type_symbol
_atom_site_label
_atom_site_fract_x
_atom_site_fract_y
_atom_site_fract_z
Si Si1 0.989143 0.209447 0.225247
Si Si2 0.106915 0.210254 0.473417
Si Si3 0.152195 0.320937 0.161109
Si Si4 0.934149 0.287110 0.608023
Si Si5 0.213079 0.786921 0.750000
Si Si6 0.889659 0.179113 0.918166
Si Si7 0.947721 0.713067 0.351936
O O1 0.046031 0.177813 0.360038
O O2 0.944105 0.246897 0.388453
O O3 0.017001 0.257403 0.054971
O O4 0.944434 0.160879 0.093201
O O5 0.159925 0.159925 0.500000
O O6 0.129620 0.267831 0.327474
O O7 0.088755 0.233800 0.716234
O O8 0.159222 0.384617 0.300248
O O9 0.215081 0.298482 0.047486
O O10 0.102580 0.333649 0.961882
O O11 0.908053 0.242609 0.797510
O O12 0.999796 0.318013 0.691312
O O13 0.175910 0.808800 0.534973
O O14 0.878588 0.121413 0.750000
#
# Coordination Sequence:
#
# PCOD8305897 Si02
#       7
#     8   8   8   8   4   8   8
#     4   9  19  37  49  75 117 148 194 222 281 348
#     4  10  21  35  54  82 121 152 184 228 292 350
#     4  11  21  31  52  82 120 146 189 238 290 351
#     4  10  20  34  53  75 118 150 190 232 290 346
#     4  12  22  30  52  90 120 148 178 232 304 346
#     4  11  19  31  50  80 117 148 188 239 290 338
#     4   9  21  35  52  75 118 151 184 230 282 348
#
# _framework density 18.584564
#
# number of rings (size 3 to 8) (size 9 to 14) (size 15 to 20)
#    0.000    1.846    3.077    0.923    4.308    1.846 
#    0.000    0.000    0.000    0.000    0.000    0.000 
#  480.000    0.000    0.000    0.000    0.000    0.000 
#
# Total GULP energy -644379.206452 kJ/mol
# GULP energy per Si atom -12391.907816 kJ/mol
# Density = 1.854226 g / cm^3
# Si number density = 18.584564 Si / 1000 Ang^3
#
#
#
# Elastic Constant Matrix: (Units=GPa)
#
#
# Indices 1 2 3 4 5 6 
#
# 1 104.1398 47.8175 44.6616 0.0000 0.0000 0.0000
# 2 47.8175 104.1390 44.6619 0.0000 0.0000 0.0000
# 3 44.6616 44.6619 102.4167 0.0000 0.0000 0.0000
# 4 0.0000 0.0000 0.0000 25.9143 0.0000 0.0000
# 5 0.0000 0.0000 0.0000 0.0000 25.9143 0.0000
# 6 0.0000 0.0000 0.0000 0.0000 0.0000 10.9012
#
#
#
# Elastic Compliance Matrix: (Units=1/GPa)
#
#
# Indices 1 2 3 4 5 6 
#
# 1 0.013302 -0.004453 -0.003859 0.000000 0.000000 0.000000
# 2 -0.004453 0.013302 -0.003859 0.000000 0.000000 0.000000
# 3 -0.003859 -0.003859 0.013130 0.000000 0.000000 0.000000
# 4 0.000000 0.000000 0.000000 0.038589 0.000000 0.000000
# 5 0.000000 0.000000 0.000000 0.000000 0.038589 0.000000
# 6 0.000000 0.000000 0.000000 0.000000 0.000000 0.091733
#
#
# Mechanical properties :
#
#
# Convention : Reuss Voigt Hill
#
# Bulk Modulus (GPa) = 64.96780 64.99749 64.98264
# Shear Modulus (GPa) = 20.99807 24.11624 22.55715
#
# Velocity S-wave (km/s) = 3.36499 3.60620 3.48768
# Velocity P-wave (km/s) = 7.08035 7.23805 7.15964
#
# Compressibility (1/GPa) = 0.01539224
#
# Stress axis : x y z
#
# Youngs Moduli (GPa) = 75.17633 75.17543 76.16360
#
# Poissons Ratio (x) = 0.33475 0.29391
# Poissons Ratio (y) = 0.33476 0.29392
# Poissons Ratio (z) = 0.29010 0.29010
#
# Static dielectric constant tensor:
#      x y z
#    x 3.558610 0.000000 0.000000 
#    y 0.000000 3.558610 0.000000 
#    z 0.000000 0.000000 3.937100 
# 
# 
# High freq. dielectric constant tensor:
#      x y z
#    x 1.696350 0.000000 0.000000 
#    y 0.000000 1.696350 0.000000 
#    z 0.000000 0.000000 1.753760 
# 
# From -- ./inp_files/685.got.cif
#   From: 2010.03.12/outbox.cif.g09.slc.cpg/sg96_1_cif.got.tgz:685.got - 2010.04.08 20:56:49.
