data_PCOD8305268
_publ_section_title
;
Structure prediction by ZEFSAII (Michael W. Deem and Ramdas Pophale) SiO2 
 PCOD8305268
Probable space group: P 41 21 2
;
_chemical_formula_sum "Si O2"
_cell_formula_units_Z 48
_cell_length_a 9.377288
_cell_length_b 9.377288
_cell_length_c 27.609190
_cell_angle_alpha 90.000000
_cell_angle_beta 90.000000
_cell_angle_gamma 90.000000
_cell_volume 2427.773544
_symmetry_space_group_name_H-M "P 41 21 2"
_symmetry_group_IT_number 92
_symmetry_cell_setting 'tetragonal'
loop_
_space_group_symop_operation_xyz
x,y,z
1/2-y,1/2+x,1/4+z
-x,-y,1/2+z
1/2+y,1/2-x,3/4+z
1/2+x,1/2-y,3/4-z
1/2-x,1/2+y,1/4-z
y,x,-z
-y,-x,1/2-z
loop_
_atom_site_type_symbol
_atom_site_label
_atom_site_fract_x
_atom_site_fract_y
_atom_site_fract_z
Si Si1 0.971637 0.861585 0.049475
Si Si2 0.045911 0.583812 0.805670
Si Si3 0.012556 0.277938 0.106166
Si Si4 0.555816 0.724814 0.855558
Si Si5 0.205436 0.087519 0.048053
Si Si6 0.952752 0.503217 0.947080
O O1 0.997829 0.696127 0.060892
O O2 0.881452 0.925069 0.094280
O O3 0.881853 0.881853 0.000000
O O4 0.125235 0.935744 0.043922
O O5 0.921367 0.479154 0.824083
O O6 0.046394 0.727436 0.838255
O O7 0.021093 0.618949 0.749488
O O8 0.145046 0.176573 0.093550
O O9 0.860644 0.201846 0.095307
O O10 0.022658 0.317850 0.162367
O O11 0.546099 0.860738 0.819767
O O12 0.371928 0.062274 0.055075
O O13 0.179175 0.179175 0.000000
#
# Coordination Sequence:
#
# PCOD8305268 Si02
#       6
#     8   8   8   8   8   8
#     4  10  20  37  61  87 120 166 203 241 312 376
#     4  11  20  34  61  91 120 152 207 253 295 357
#     4  10  23  40  59  90 122 161 202 251 305 367
#     4  10  22  38  58  89 126 159 201 251 308 364
#     4  10  21  41  63  86 124 165 197 244 309 376
#     4  11  22  36  63  93 116 159 206 253 301 362
#
# _framework density 19.7712
#
# number of rings (size 3 to 8) (size 9 to 14) (size 15 to 20)
#    0.000    1.667    3.333    2.000    0.000    2.667 
#    0.000    0.000    0.000    3.000    0.000    0.000 
#    0.000    0.000    0.000    0.000    0.000    0.000 
#
# Total GULP energy -595178.189690 kJ/mol
# GULP energy per Si atom -12399.545619 kJ/mol
# Density = 1.972620 g / cm^3
# Si number density = 19.771200 Si / 1000 Ang^3
#
#
#
# Elastic Constant Matrix: (Units=GPa)
#
#
# Indices 1 2 3 4 5 6 
#
# 1 108.4361 39.2770 36.7556 0.0000 0.0000 0.0000
# 2 39.2770 108.4361 36.7556 0.0000 0.0000 0.0000
# 3 36.7556 36.7556 135.2111 0.0000 0.0000 0.0000
# 4 0.0000 0.0000 0.0000 25.9916 0.0000 0.0000
# 5 0.0000 0.0000 0.0000 0.0000 25.9916 0.0000
# 6 0.0000 0.0000 0.0000 0.0000 0.0000 18.5349
#
#
#
# Elastic Compliance Matrix: (Units=1/GPa)
#
#
# Indices 1 2 3 4 5 6 
#
# 1 0.011144 -0.003315 -0.002128 0.000000 0.000000 0.000000
# 2 -0.003315 0.011144 -0.002128 0.000000 0.000000 0.000000
# 3 -0.002128 -0.002128 0.008553 0.000000 0.000000 0.000000
# 4 0.000000 0.000000 0.000000 0.038474 0.000000 0.000000
# 5 0.000000 0.000000 0.000000 0.000000 0.038474 0.000000
# 6 0.000000 0.000000 0.000000 0.000000 0.000000 0.053952
#
#
# Mechanical properties :
#
#
# Convention : Reuss Voigt Hill
#
# Bulk Modulus (GPa) = 63.70223 64.18439 63.94331
# Shear Modulus (GPa) = 27.45481 30.05664 28.75573
#
# Velocity S-wave (km/s) = 3.73047 3.90323 3.81783
# Velocity P-wave (km/s) = 7.13056 7.26964 7.20044
#
# Compressibility (1/GPa) = 0.01569804
#
# Stress axis : x y z
#
# Youngs Moduli (GPa) = 89.73259 89.73259 116.91932
#
# Poissons Ratio (x) = 0.29748 0.24883
# Poissons Ratio (y) = 0.29748 0.24883
# Poissons Ratio (z) = 0.19097 0.19097
#
# Static dielectric constant tensor:
#      x y z
#    x 3.548760 0.000000 0.000000 
#    y 0.000000 3.548760 0.000000 
#    z 0.000000 0.000000 3.811000 
# 
# 
# High freq. dielectric constant tensor:
#      x y z
#    x 1.761050 0.000000 0.000000 
#    y 0.000000 1.761050 0.000000 
#    z 0.000000 0.000000 1.777610 
# 
# From -- ./inp_files/4470.got.cif
#   From: 2010.03.12/outbox.cif.g09.slc.cpg/sg92_3_cif.got.tgz:4470.got - 2010.04.08 20:41:11.
