data_PCOD8305379
_publ_section_title
;
Structure prediction by ZEFSAII (Michael W. Deem and Ramdas Pophale) SiO2 
 PCOD8305379
Probable space group: P 41 21 2
;
_chemical_formula_sum "Si O2"
_cell_formula_units_Z 52
_cell_length_a 17.248596
_cell_length_b 17.248596
_cell_length_c 8.873951
_cell_angle_alpha 90.000000
_cell_angle_beta 90.000000
_cell_angle_gamma 90.000000
_cell_volume 2640.125225
_symmetry_space_group_name_H-M "P 41 21 2"
_symmetry_group_IT_number 92
_symmetry_cell_setting 'tetragonal'
loop_
_space_group_symop_operation_xyz
x,y,z
1/2-y,1/2+x,1/4+z
-x,-y,1/2+z
1/2+y,1/2-x,3/4+z
1/2+x,1/2-y,3/4-z
1/2-x,1/2+y,1/4-z
y,x,-z
-y,-x,1/2-z
loop_
_atom_site_type_symbol
_atom_site_label
_atom_site_fract_x
_atom_site_fract_y
_atom_site_fract_z
Si Si1 0.559753 0.937723 0.237689
Si Si2 0.531903 0.792194 0.671377
Si Si3 0.068345 0.350957 0.828160
Si Si4 0.630303 0.369698 0.250000
Si Si5 0.513226 0.640401 0.521757
Si Si6 0.702154 0.423172 0.747012
Si Si7 0.567022 0.235521 0.436303
O O1 0.510748 0.880627 0.343773
O O2 0.647446 0.904148 0.222783
O O3 0.556853 0.021951 0.320911
O O4 0.453355 0.821059 0.588026
O O5 0.589342 0.862911 0.677170
O O6 0.561800 0.714108 0.587379
O O7 0.512382 0.771571 0.843143
O O8 0.103285 0.282269 0.925000
O O9 0.559707 0.377020 0.130844
O O10 0.627957 0.287432 0.339108
O O11 0.565632 0.565632 0.500000
O O12 0.487824 0.659522 0.351734
O O13 0.654901 0.345100 0.750000
O O14 0.717547 0.455650 0.913977
#
# Coordination Sequence:
#
# PCOD8305379 Si02
#       7
#     8   8   8   4   8   8   8
#     4  12  23  37  63  99 131 171 213 266 319 396
#     4  10  23  37  60  91 133 165 208 262 319 387
#     4  11  21  39  61  95 132 171 211 258 323 391
#     4  10  22  42  62  94 126 168 218 270 340 376
#     4  10  23  41  67  93 121 163 219 279 323 385
#     4  11  22  41  66  91 122 171 218 262 322 391
#     4  11  23  39  61  93 129 165 221 259 320 396
#
# _framework density 19.696034999999998
#
# number of rings (size 3 to 8) (size 9 to 14) (size 15 to 20)
#    0.000    1.231    4.615    0.923    3.231    0.615 
#    0.000    2.308    0.000    0.000    2.000    0.000 
#    0.000    0.000    0.000    0.000    0.000    0.000 
#
# Total GULP energy -644498.201355 kJ/mol
# GULP energy per Si atom -12394.196180 kJ/mol
# Density = 1.965121 g / cm^3
# Si number density = 19.696035 Si / 1000 Ang^3
#
#
#
# Elastic Constant Matrix: (Units=GPa)
#
#
# Indices 1 2 3 4 5 6 
#
# 1 101.3335 65.4547 59.8871 0.0000 0.0000 0.0000
# 2 65.4547 101.3328 59.8873 0.0000 0.0000 0.0000
# 3 59.8871 59.8873 144.8522 0.0000 0.0000 0.0000
# 4 0.0000 0.0000 0.0000 293.8527 0.0000 0.0000
# 5 0.0000 0.0000 0.0000 0.0000 292.5705 0.0000
# 6 0.0000 0.0000 0.0000 0.0000 0.0000 8.1403
#
#
#
# Elastic Compliance Matrix: (Units=1/GPa)
#
#
# Indices 1 2 3 4 5 6 
#
# 1 0.018200 -0.009672 -0.003525 0.000000 0.000000 0.000000
# 2 -0.009672 0.018200 -0.003526 0.000000 0.000000 0.000000
# 3 -0.003525 -0.003526 0.009819 0.000000 0.000000 0.000000
# 4 0.000000 0.000000 0.000000 0.003403 0.000000 0.000000
# 5 0.000000 0.000000 0.000000 0.000000 0.003418 0.000000
# 6 0.000000 0.000000 0.000000 0.000000 0.000000 0.122846
#
#
# Mechanical properties :
#
#
# Convention : Reuss Voigt Hill
#
# Bulk Modulus (GPa) = 78.29980 79.77517 79.03749
# Shear Modulus (GPa) = 23.40948 129.73200 76.57074
#
# Velocity S-wave (km/s) = 3.45126 8.12466 6.24184
# Velocity P-wave (km/s) = 7.46471 11.34039 9.60017
#
# Compressibility (1/GPa) = 0.01277142
#
# Stress axis : x y z
#
# Youngs Moduli (GPa) = 54.94643 54.94578 101.84578
#
# Poissons Ratio (x) = 0.53145 0.35906
# Poissons Ratio (y) = 0.53145 0.35907
# Poissons Ratio (z) = 0.19371 0.19372
#
# Static dielectric constant tensor:
#      x y z
#    x 3.577600 0.000000 0.000000 
#    y 0.000000 3.577600 0.000000 
#    z 0.000000 0.000000 3.968220 
# 
# 
# High freq. dielectric constant tensor:
#      x y z
#    x 1.753920 0.000000 0.000000 
#    y 0.000000 1.753910 0.000000 
#    z 0.000000 0.000000 1.795090 
# 
# From -- ./inp_files/1577.got.cif
#   From: 2010.03.12/outbox.cif.g09.slc.cpg/sg92_1_cif.got.tgz:1577.got - 2010.04.08 20:41:11.
