data_PCOD8305258
_publ_section_title
;
Structure prediction by ZEFSAII (Michael W. Deem and Ramdas Pophale) SiO2 
 PCOD8305258
Probable space group: P 41 21 2
;
_chemical_formula_sum "Si O2"
_cell_formula_units_Z 64
_cell_length_a 11.761789
_cell_length_b 11.761789
_cell_length_c 24.112882
_cell_angle_alpha 90.000000
_cell_angle_beta 90.000000
_cell_angle_gamma 90.000000
_cell_volume 3335.768391
_symmetry_space_group_name_H-M "P 41 21 2"
_symmetry_group_IT_number 92
_symmetry_cell_setting 'tetragonal'
loop_
_space_group_symop_operation_xyz
x,y,z
1/2-y,1/2+x,1/4+z
-x,-y,1/2+z
1/2+y,1/2-x,3/4+z
1/2+x,1/2-y,3/4-z
1/2-x,1/2+y,1/4-z
y,x,-z
-y,-x,1/2-z
loop_
_atom_site_type_symbol
_atom_site_label
_atom_site_fract_x
_atom_site_fract_y
_atom_site_fract_z
Si Si1 0.334105 0.351368 0.326186
Si Si2 0.203806 0.143266 0.818286
Si Si3 0.465374 0.505513 0.129926
Si Si4 0.905324 0.719988 0.010831
Si Si5 0.319162 0.360517 0.791348
Si Si6 0.520226 0.371145 0.464604
Si Si7 0.165272 0.431948 0.606772
Si Si8 0.437073 0.141920 0.592852
O O1 0.439570 0.436681 0.333057
O O2 0.291372 0.366747 0.262619
O O3 0.379286 0.223842 0.338591
O O4 0.235578 0.374319 0.370221
O O5 0.103937 0.122311 0.862265
O O6 0.237388 0.274896 0.824568
O O7 0.155863 0.122587 0.756283
O O8 0.314648 0.064614 0.830830
O O9 0.398864 0.414369 0.165884
O O10 0.523456 0.447007 0.075757
O O11 0.887760 0.670090 0.072033
O O12 0.036712 0.754157 0.011349
O O13 0.832017 0.832017 0.000000
O O14 0.873199 0.626471 0.965398
O O15 0.407151 0.407151 0.500000
O O16 0.495486 0.260298 0.429288
O O17 0.067007 0.521623 0.624677
#
# Coordination Sequence:
#
# PCOD8305258 Si02
#       8
#     8   8   8   8   8   8   8   8
#     4  10  20  35  58  88 121 162 193 249 318 382
#     4  10  22  40  63  82 121 173 213 251 313 377
#     4   9  21  38  61  84 120 166 216 250 300 394
#     4  12  23  36  59  93 128 154 194 271 325 368
#     4  12  24  38  60  89 125 164 208 259 309 366
#     4   9  17  35  63  88 114 165 208 252 312 385
#     4  11  20  33  58  90 129 148 188 258 328 369
#     4  11  22  38  58  91 124 159 205 249 318 384
#
# _framework density 19.185984999999999
#
# number of rings (size 3 to 8) (size 9 to 14) (size 15 to 20)
#    0.000    1.500    3.750    3.000    1.750    2.000 
#    0.000    0.000    0.000    6.000    0.000    0.000 
#    0.000    0.000    0.000    0.000    0.000    0.000 
#
# Total GULP energy -793385.969494 kJ/mol
# GULP energy per Si atom -12396.655773 kJ/mol
# Density = 1.914232 g / cm^3
# Si number density = 19.185985 Si / 1000 Ang^3
#
#
#
# Elastic Constant Matrix: (Units=GPa)
#
#
# Indices 1 2 3 4 5 6 
#
# 1 86.7504 43.6054 37.6347 0.0000 0.0000 0.0000
# 2 43.6054 86.7504 37.6347 0.0000 0.0000 0.0000
# 3 37.6347 37.6347 107.0043 0.0000 0.0000 0.0000
# 4 0.0000 0.0000 0.0000 25.0765 0.0000 0.0000
# 5 0.0000 0.0000 0.0000 0.0000 25.0765 0.0000
# 6 0.0000 0.0000 0.0000 0.0000 0.0000 29.0259
#
#
#
# Elastic Compliance Matrix: (Units=1/GPa)
#
#
# Indices 1 2 3 4 5 6 
#
# 1 0.016402 -0.006776 -0.003386 0.000000 0.000000 0.000000
# 2 -0.006776 0.016402 -0.003386 0.000000 0.000000 0.000000
# 3 -0.003386 -0.003386 0.011727 0.000000 0.000000 0.000000
# 4 0.000000 0.000000 0.000000 0.039878 0.000000 0.000000
# 5 0.000000 0.000000 0.000000 0.000000 0.039878 0.000000
# 6 0.000000 0.000000 0.000000 0.000000 0.000000 0.034452
#
#
# Mechanical properties :
#
#
# Convention : Reuss Voigt Hill
#
# Bulk Modulus (GPa) = 57.34996 57.58386 57.46691
# Shear Modulus (GPa) = 26.08991 26.61115 26.35053
#
# Velocity S-wave (km/s) = 3.69160 3.72830 3.71000
# Velocity P-wave (km/s) = 6.93737 6.97225 6.95483
#
# Compressibility (1/GPa) = 0.01743680
#
# Stress axis : x y z
#
# Youngs Moduli (GPa) = 60.96840 60.96840 85.27344
#
# Poissons Ratio (x) = 0.41310 0.28871
# Poissons Ratio (y) = 0.41310 0.28871
# Poissons Ratio (z) = 0.20642 0.20642
#
# Static dielectric constant tensor:
#      x y z
#    x 3.411300 0.000000 0.000000 
#    y 0.000000 3.411300 0.000000 
#    z 0.000000 0.000000 3.810840 
# 
# 
# High freq. dielectric constant tensor:
#      x y z
#    x 1.727650 0.000000 0.000000 
#    y 0.000000 1.727650 0.000000 
#    z 0.000000 0.000000 1.760760 
# 
# From -- ./inp_files/3968.got.cif
#   From: 2010.03.12/outbox.cif.g09.slc.cpg/sg92_2_cif.got.tgz:3968.got - 2010.04.08 20:41:11.
