data_PCOD8305638
_publ_section_title
;
Structure prediction by ZEFSAII (Michael W. Deem and Ramdas Pophale) SiO2 
 PCOD8305638
Probable space group: P 42 21 2
;
_chemical_formula_sum "Si O2"
_cell_formula_units_Z 60
_cell_length_a 13.951559
_cell_length_b 13.951559
_cell_length_c 14.322628
_cell_angle_alpha 90.000000
_cell_angle_beta 90.000000
_cell_angle_gamma 90.000000
_cell_volume 2787.842229
_symmetry_space_group_name_H-M "P 42 21 2"
_symmetry_group_IT_number 94
_symmetry_cell_setting 'tetragonal'
loop_
_space_group_symop_operation_xyz
x,y,z
1/2-y,1/2+x,1/2+z
-x,-y,z
1/2+y,1/2-x,1/2+z
1/2+x,1/2-y,1/2-z
1/2-x,1/2+y,1/2-z
y,x,-z
-y,-x,-z
loop_
_atom_site_type_symbol
_atom_site_label
_atom_site_fract_x
_atom_site_fract_y
_atom_site_fract_z
Si Si1 0.103948 0.971835 0.697536
Si Si2 0.107127 0.892874 0.500000
Si Si3 0.746630 0.854931 0.928836
Si Si4 0.212712 0.165883 0.724511
Si Si5 0.230815 0.903414 0.214674
Si Si6 0.299463 0.447515 0.491093
Si Si7 0.298310 0.952645 0.406795
Si Si8 0.339743 0.785997 0.937658
O O1 0.089877 0.964132 0.586182
O O2 0.136845 0.873870 0.750800
O O3 0.183373 0.054840 0.710476
O O4 0.000000 0.000000 0.740160
O O5 0.212189 0.904867 0.461097
O O6 0.793027 0.814277 0.834113
O O7 0.632048 0.877653 0.917606
O O8 0.798824 0.951809 0.958198
O O9 0.769806 0.769806 0.000000
O O10 0.320163 0.192377 0.690425
O O11 0.148874 0.241824 0.666688
O O12 0.273018 0.969396 0.297342
O O13 0.225677 0.962062 0.118077
O O14 0.406739 0.406739 0.500000
O O15 0.231493 0.374255 0.548714
O O16 0.324983 0.052520 0.457730
O O17 0.304711 0.695290 0.000000
#
# Coordination Sequence:
#
# PCOD8305638 Si02
#       8
#     8   4   8   8   8   8   8   8
#     4  11  23  37  66 101 135 169 223 283 339 398
#     4  10  19  36  60  98 135 166 212 278 339 388
#     4  11  26  43  66  95 138 179 221 271 338 391
#     4  11  22  41  65  95 131 176 215 275 333 392
#     4  10  22  41  62  96 136 170 226 268 332 399
#     4  11  23  44  66  97 131 178 222 273 315 408
#     4  10  22  40  64  94 135 170 213 281 328 397
#     4  11  22  41  70  98 127 174 225 272 335 394
#
# _framework density 21.522022
#
# number of rings (size 3 to 8) (size 9 to 14) (size 15 to 20)
#    0.000    1.333    3.333    3.400    3.733    0.800 
#    0.000    0.000    0.000    1.600    0.000    0.000 
#    0.000    0.000    0.000    0.000    0.000    0.000 
#
# Total GULP energy -743309.231097 kJ/mol
# GULP energy per Si atom -12388.487185 kJ/mol
# Density = 2.147304 g / cm^3
# Si number density = 21.522022 Si / 1000 Ang^3
#
#
#
# Elastic Constant Matrix: (Units=GPa)
#
#
# Indices 1 2 3 4 5 6 
#
# 1 78.7157 25.1871 25.9687 0.0000 0.0000 0.0000
# 2 25.1871 78.7164 25.9681 0.0000 0.0000 0.0000
# 3 25.9687 25.9681 109.3081 0.0000 0.0000 0.0000
# 4 0.0000 0.0000 0.0000 26.2440 0.0000 0.0000
# 5 0.0000 0.0000 0.0000 0.0000 26.2443 0.0000
# 6 0.0000 0.0000 0.0000 0.0000 0.0000 23.7661
#
#
#
# Elastic Compliance Matrix: (Units=1/GPa)
#
#
# Indices 1 2 3 4 5 6 
#
# 1 0.014801 -0.003880 -0.002595 0.000000 0.000000 0.000000
# 2 -0.003880 0.014801 -0.002594 0.000000 0.000000 0.000000
# 3 -0.002595 -0.002594 0.010381 0.000000 0.000000 0.000000
# 4 0.000000 0.000000 0.000000 0.038104 0.000000 0.000000
# 5 0.000000 0.000000 0.000000 0.000000 0.038104 0.000000
# 6 0.000000 0.000000 0.000000 0.000000 0.000000 0.042077
#
#
# Mechanical properties :
#
#
# Convention : Reuss Voigt Hill
#
# Bulk Modulus (GPa) = 45.77604 46.77643 46.27624
# Shear Modulus (GPa) = 27.22000 27.89197 27.55598
#
# Velocity S-wave (km/s) = 3.56019 3.60387 3.58210
# Velocity P-wave (km/s) = 6.18187 6.25288 6.21748
#
# Compressibility (1/GPa) = 0.02184549
#
# Stress axis : x y z
#
# Youngs Moduli (GPa) = 67.56085 67.56179 96.32763
#
# Poissons Ratio (x) = 0.26215 0.24994
# Poissons Ratio (y) = 0.26214 0.24992
# Poissons Ratio (z) = 0.17530 0.17529
#
# Static dielectric constant tensor:
#      x y z
#    x 3.834410 0.000000 0.000000 
#    y 0.000000 3.834440 0.000000 
#    z 0.000000 0.000000 4.354600 
# 
# 
# High freq. dielectric constant tensor:
#      x y z
#    x 1.829630 0.000000 0.000000 
#    y 0.000000 1.829640 0.000000 
#    z 0.000000 0.000000 1.861450 
# 
# From -- ./inp_files/3609.got.cif
#   From: 2010.03.12/outbox.cif.g09.slc.cpg/sg94_2_cif.got.tgz:3609.got - 2010.04.08 20:48:32.
