data_PCOD8305084
_publ_section_title
;
Structure prediction by ZEFSAII (Michael W. Deem and Ramdas Pophale) SiO2 
 PCOD8305084
Probable space group: P 41 2 2
;
_chemical_formula_sum "Si O2"
_cell_formula_units_Z 40
_cell_length_a 8.949544
_cell_length_b 8.949544
_cell_length_c 21.093950
_cell_angle_alpha 90.000000
_cell_angle_beta 90.000000
_cell_angle_gamma 90.000000
_cell_volume 1689.505957
_symmetry_space_group_name_H-M "P 41 2 2"
_symmetry_group_IT_number 91
_symmetry_cell_setting 'tetragonal'
loop_
_space_group_symop_operation_xyz
x,y,z
-y,x,1/4+z
-x,-y,1/2+z
y,-x,3/4+z
x,-y,1/2-z
-x,y,-z
y,x,3/4-z
-y,-x,1/4-z
loop_
_atom_site_type_symbol
_atom_site_label
_atom_site_fract_x
_atom_site_fract_y
_atom_site_fract_z
Si Si1 0.113420 0.024153 0.945365
Si Si2 0.722108 0.755356 0.021781
Si Si3 0.427051 0.890039 0.086150
Si Si4 0.528895 0.156843 0.278279
Si Si5 0.347570 0.190029 0.020876
O O1 0.060227 0.060227 0.875000
O O2 0.137397 0.845089 0.948512
O O3 0.267941 0.110678 0.960565
O O4 0.000000 0.077325 0.000000
O O5 0.576494 0.811434 0.058863
O O6 0.708668 0.802454 0.947392
O O7 0.754616 0.576584 0.022751
O O8 0.426322 0.872387 0.161004
O O9 0.401243 0.065723 0.071433
O O10 0.677615 0.245843 0.298983
O O11 0.583980 0.000000 0.250000
O O12 0.500000 0.271346 0.000000
#
# Coordination Sequence:
#
# PCOD8305084 Si02
#       5
#     8   8   8   8   8
#     4  11  25  44  73 105 143 195 254 309 381 449
#     4  10  23  47  71 102 150 194 243 312 373 445
#     4  10  23  49  72 101 151 198 245 307 382 440
#     4  12  28  42  75 116 143 189 259 310 370 461
#     4  11  25  47  71 102 152 200 241 310 376 450
#
# _framework density 23.675560000000001
#
# number of rings (size 3 to 8) (size 9 to 14) (size 15 to 20)
#    0.000    1.200    4.000    1.800   11.200    4.800 
#    0.000    0.000    0.000    0.000    0.000    0.000 
#    0.000    0.000    0.000    0.000    0.000    0.000 
#
# Total GULP energy -495613.978033 kJ/mol
# GULP energy per Si atom -12390.349451 kJ/mol
# Density = 2.362167 g / cm^3
# Si number density = 23.675560 Si / 1000 Ang^3
#
#
#
# Elastic Constant Matrix: (Units=GPa)
#
#
# Indices 1 2 3 4 5 6 
#
# 1 132.1356 70.4571 35.6534 0.0000 0.0000 0.0000
# 2 70.4571 132.1356 35.6534 0.0000 0.0000 0.0000
# 3 35.6534 35.6534 112.0210 0.0000 0.0000 0.0000
# 4 0.0000 0.0000 0.0000 22.6031 0.0000 0.0000
# 5 0.0000 0.0000 0.0000 0.0000 22.6031 0.0000
# 6 0.0000 0.0000 0.0000 0.0000 0.0000 35.8548
#
#
#
# Elastic Compliance Matrix: (Units=1/GPa)
#
#
# Indices 1 2 3 4 5 6 
#
# 1 0.010886 -0.005327 -0.001769 0.000000 0.000000 0.000000
# 2 -0.005327 0.010886 -0.001769 0.000000 0.000000 0.000000
# 3 -0.001769 -0.001769 0.010053 0.000000 0.000000 0.000000
# 4 0.000000 0.000000 0.000000 0.044242 0.000000 0.000000
# 5 0.000000 0.000000 0.000000 0.000000 0.044242 0.000000
# 6 0.000000 0.000000 0.000000 0.000000 0.000000 0.027890
#
#
# Mechanical properties :
#
#
# Convention : Reuss Voigt Hill
#
# Bulk Modulus (GPa) = 70.95357 73.31334 72.13346
# Shear Modulus (GPa) = 29.30354 31.84740 30.57547
#
# Velocity S-wave (km/s) = 3.52193 3.67162 3.59755
# Velocity P-wave (km/s) = 6.82443 7.00053 6.91304
#
# Compressibility (1/GPa) = 0.01409372
#
# Stress axis : x y z
#
# Youngs Moduli (GPa) = 91.86185 91.86185 99.47199
#
# Poissons Ratio (x) = 0.48937 0.17599
# Poissons Ratio (y) = 0.48937 0.17599
# Poissons Ratio (z) = 0.16252 0.16252
#
# Static dielectric constant tensor:
#      x y z
#    x 4.316200 0.000000 0.000000 
#    y 0.000000 4.316200 0.000000 
#    z 0.000000 0.000000 4.177350 
# 
# 
# High freq. dielectric constant tensor:
#      x y z
#    x 1.942070 0.000000 0.000000 
#    y 0.000000 1.942070 0.000000 
#    z 0.000000 0.000000 1.918780 
# 
# From -- ./inp_files/21706.got.cif
#   From: 2010.03.12/outbox.cif.g09.slc.cpg/sg91_11_cif.got.tgz:21706.got - 2010.04.08 20:27:58.
