data_PCOD8305311
_publ_section_title
;
Structure prediction by ZEFSAII (Michael W. Deem and Ramdas Pophale) SiO2 
 PCOD8305311
Probable space group: P 41 21 2
;
_chemical_formula_sum "Si O2"
_cell_formula_units_Z 56
_cell_length_a 11.567146
_cell_length_b 11.567146
_cell_length_c 20.918571
_cell_angle_alpha 90.000000
_cell_angle_beta 90.000000
_cell_angle_gamma 90.000000
_cell_volume 2798.881090
_symmetry_space_group_name_H-M "P 41 21 2"
_symmetry_group_IT_number 92
_symmetry_cell_setting 'tetragonal'
loop_
_space_group_symop_operation_xyz
x,y,z
1/2-y,1/2+x,1/4+z
-x,-y,1/2+z
1/2+y,1/2-x,3/4+z
1/2+x,1/2-y,3/4-z
1/2-x,1/2+y,1/4-z
y,x,-z
-y,-x,1/2-z
loop_
_atom_site_type_symbol
_atom_site_label
_atom_site_fract_x
_atom_site_fract_y
_atom_site_fract_z
Si Si1 0.254630 0.382297 0.332647
Si Si2 0.231229 0.549101 0.437393
Si Si3 0.447904 0.259940 0.998135
Si Si4 0.670422 0.435159 0.628817
Si Si5 0.636316 0.985821 0.524936
Si Si6 0.566903 0.492822 0.182189
Si Si7 0.125394 0.159070 0.313552
O O1 0.247716 0.421885 0.406717
O O2 0.168374 0.467280 0.294892
O O3 0.378646 0.395219 0.300888
O O4 0.229124 0.247830 0.324502
O O5 0.303806 0.639945 0.393335
O O6 0.290084 0.543525 0.507400
O O7 0.095069 0.580549 0.437602
O O8 0.447404 0.124518 0.017264
O O9 0.533163 0.326261 0.046599
O O10 0.322451 0.322451 0.000000
O O11 0.498142 0.265092 0.927340
O O12 0.753969 0.432093 0.689161
O O13 0.558749 0.507619 0.649834
O O14 0.574077 0.425924 0.250000
O O15 0.655337 0.441780 0.130489
#
# Coordination Sequence:
#
# PCOD8305311 Si02
#       7
#     8   8   8   8   8   8   8
#     4  10  22  40  66  92 124 173 213 258 322 378
#     4   9  22  39  60  89 125 168 209 254 320 377
#     4  11  23  38  64  93 126 168 211 259 326 371
#     4  10  21  37  63  90 125 164 209 259 313 378
#     4  11  22  36  62  95 132 158 209 267 315 376
#     4  11  21  40  66  90 122 163 218 264 310 384
#     4  10  23  44  60  91 131 162 216 269 307 390
#
# _framework density 20.007994
#
# number of rings (size 3 to 8) (size 9 to 14) (size 15 to 20)
#    0.000    1.714    2.857    0.857    6.000    1.143 
#    5.143    0.000    0.000    0.000    0.000    0.000 
#    0.000    0.000    0.000    0.000    0.000    0.000 
#
# Total GULP energy -694232.056652 kJ/mol
# GULP energy per Si atom -12397.001012 kJ/mol
# Density = 1.996245 g / cm^3
# Si number density = 20.007994 Si / 1000 Ang^3
#
#
#
# Elastic Constant Matrix: (Units=GPa)
#
#
# Indices 1 2 3 4 5 6 
#
# 1 84.1681 15.7155 34.3130 0.0000 0.0000 0.0000
# 2 15.7155 84.1682 34.3130 0.0000 0.0000 0.0000
# 3 34.3130 34.3130 109.7374 0.0000 0.0000 0.0000
# 4 0.0000 0.0000 0.0000 28.8323 0.0000 0.0000
# 5 0.0000 0.0000 0.0000 0.0000 28.8322 0.0000
# 6 0.0000 0.0000 0.0000 0.0000 0.0000 22.8342
#
#
#
# Elastic Compliance Matrix: (Units=1/GPa)
#
#
# Indices 1 2 3 4 5 6 
#
# 1 0.013680 -0.000929 -0.003987 0.000000 0.000000 0.000000
# 2 -0.000929 0.013680 -0.003987 0.000000 0.000000 0.000000
# 3 -0.003987 -0.003987 0.011606 0.000000 0.000000 0.000000
# 4 0.000000 0.000000 0.000000 0.034683 0.000000 0.000000
# 5 0.000000 0.000000 0.000000 0.000000 0.034684 0.000000
# 6 0.000000 0.000000 0.000000 0.000000 0.000000 0.043794
#
#
# Mechanical properties :
#
#
# Convention : Reuss Voigt Hill
#
# Bulk Modulus (GPa) = 47.25920 49.63961 48.44940
# Shear Modulus (GPa) = 28.25093 29.01521 28.63307
#
# Velocity S-wave (km/s) = 3.76171 3.81226 3.78707
# Velocity P-wave (km/s) = 6.52217 6.65143 6.58712
#
# Compressibility (1/GPa) = 0.02115990
#
# Stress axis : x y z
#
# Youngs Moduli (GPa) = 73.10044 73.10056 86.16235
#
# Poissons Ratio (x) = 0.06790 0.34353
# Poissons Ratio (y) = 0.06790 0.34353
# Poissons Ratio (z) = 0.29145 0.29145
#
# Static dielectric constant tensor:
#      x y z
#    x 3.541240 0.000000 0.000000 
#    y 0.000000 3.541240 0.000000 
#    z 0.000000 0.000000 3.784570 
# 
# 
# High freq. dielectric constant tensor:
#      x y z
#    x 1.768730 0.000000 0.000000 
#    y 0.000000 1.768730 0.000000 
#    z 0.000000 0.000000 1.791610 
# 
# From -- ./inp_files/3567.got.cif
#   From: 2010.03.12/outbox.cif.g09.slc.cpg/sg92_2_cif.got.tgz:3567.got - 2010.04.08 20:41:11.
