data_PCOD8305234
_publ_section_title
;
Structure prediction by ZEFSAII (Michael W. Deem and Ramdas Pophale) SiO2 
 PCOD8305234
Probable space group: P 41 21 2
;
_chemical_formula_sum "Si O2"
_cell_formula_units_Z 56
_cell_length_a 10.879735
_cell_length_b 10.879735
_cell_length_c 26.040656
_cell_angle_alpha 90.000000
_cell_angle_beta 90.000000
_cell_angle_gamma 90.000000
_cell_volume 3082.396871
_symmetry_space_group_name_H-M "P 41 21 2"
_symmetry_group_IT_number 92
_symmetry_cell_setting 'tetragonal'
loop_
_space_group_symop_operation_xyz
x,y,z
1/2-y,1/2+x,1/4+z
-x,-y,1/2+z
1/2+y,1/2-x,3/4+z
1/2+x,1/2-y,3/4-z
1/2-x,1/2+y,1/4-z
y,x,-z
-y,-x,1/2-z
loop_
_atom_site_type_symbol
_atom_site_label
_atom_site_fract_x
_atom_site_fract_y
_atom_site_fract_z
Si Si1 0.658825 0.549544 0.301915
Si Si2 0.089123 0.530068 0.252854
Si Si3 0.071784 0.207985 0.927335
Si Si4 0.054829 0.566077 0.661286
Si Si5 0.115365 0.577431 0.088934
Si Si6 0.674255 0.498005 0.184164
Si Si7 0.471472 0.268978 0.664401
O O1 0.557898 0.657057 0.302263
O O2 0.778450 0.598570 0.330101
O O3 0.692144 0.512136 0.244564
O O4 0.602671 0.429586 0.330021
O O5 0.179962 0.608425 0.215613
O O6 0.167951 0.443569 0.291386
O O7 0.001321 0.443345 0.218396
O O8 0.001789 0.620926 0.286260
O O9 0.056263 0.257036 0.869202
O O10 0.175071 0.104055 0.929059
O O11 0.200170 0.545886 0.659204
O O12 0.023412 0.702456 0.640748
O O13 0.998332 0.464046 0.623875
O O14 0.634281 0.629386 0.161173
#
# Coordination Sequence:
#
# PCOD8305234 Si02
#       7
#     8   8   8   8   8   8   8
#     4  10  20  37  57  83 109 153 198 231 285 337
#     4  10  19  36  52  83 110 144 186 227 289 329
#     4  10  21  36  59  84 112 149 190 236 287 338
#     4  10  22  36  54  83 112 145 191 233 287 330
#     4  10  22  34  57  83 116 145 189 238 286 334
#     4  10  20  37  59  78 110 154 195 233 278 344
#     4  10  21  36  59  80 112 149 187 237 284 340
#
# _framework density 18.167681000000002
#
# number of rings (size 3 to 8) (size 9 to 14) (size 15 to 20)
#    0.000    2.000    2.857    0.429    8.000    0.000 
#    0.000    0.000    0.000    0.000    0.000   12.000 
#    0.000    0.000    0.000    0.000    0.000    0.000 
#
# Total GULP energy -694313.125121 kJ/mol
# GULP energy per Si atom -12398.448663 kJ/mol
# Density = 1.812633 g / cm^3
# Si number density = 18.167681 Si / 1000 Ang^3
#
#
#
# Elastic Constant Matrix: (Units=GPa)
#
#
# Indices 1 2 3 4 5 6 
#
# 1 88.9103 26.4999 29.0225 0.0000 0.0000 0.0000
# 2 26.4999 88.9103 29.0225 0.0000 0.0000 0.0000
# 3 29.0225 29.0225 77.6186 0.0000 0.0000 0.0000
# 4 0.0000 0.0000 0.0000 27.2312 0.0000 0.0000
# 5 0.0000 0.0000 0.0000 0.0000 27.2312 0.0000
# 6 0.0000 0.0000 0.0000 0.0000 0.0000 13.4203
#
#
#
# Elastic Compliance Matrix: (Units=1/GPa)
#
#
# Indices 1 2 3 4 5 6 
#
# 1 0.013347 -0.002676 -0.003990 0.000000 0.000000 0.000000
# 2 -0.002676 0.013347 -0.003990 0.000000 0.000000 0.000000
# 3 -0.003990 -0.003990 0.015868 0.000000 0.000000 0.000000
# 4 0.000000 0.000000 0.000000 0.036723 0.000000 0.000000
# 5 0.000000 0.000000 0.000000 0.000000 0.036723 0.000000
# 6 0.000000 0.000000 0.000000 0.000000 0.000000 0.074514
#
#
# Mechanical properties :
#
#
# Convention : Reuss Voigt Hill
#
# Bulk Modulus (GPa) = 47.05935 47.16991 47.11463
# Shear Modulus (GPa) = 22.83972 24.96950 23.90461
#
# Velocity S-wave (km/s) = 3.54949 3.71130 3.63130
# Velocity P-wave (km/s) = 6.53893 6.66221 6.60085
#
# Compressibility (1/GPa) = 0.02124976
#
# Stress axis : x y z
#
# Youngs Moduli (GPa) = 74.92155 74.92155 63.02189
#
# Poissons Ratio (x) = 0.20047 0.25147
# Poissons Ratio (y) = 0.20047 0.25147
# Poissons Ratio (z) = 0.29896 0.29896
#
# Static dielectric constant tensor:
#      x y z
#    x 3.324260 0.000000 0.000000 
#    y 0.000000 3.324260 0.000000 
#    z 0.000000 0.000000 3.434040 
# 
# 
# High freq. dielectric constant tensor:
#      x y z
#    x 1.697410 0.000000 0.000000 
#    y 0.000000 1.697410 0.000000 
#    z 0.000000 0.000000 1.703470 
# 
# From -- ./inp_files/3946.got.cif
#   From: 2010.03.12/outbox.cif.g09.slc.cpg/sg92_2_cif.got.tgz:3946.got - 2010.04.08 20:41:11.
