data_PCOD8305932
_publ_section_title
;
Structure prediction by ZEFSAII (Michael W. Deem and Ramdas Pophale) SiO2 
 PCOD8305932
Probable space group: P 43 21 2
;
_chemical_formula_sum "Si O2"
_cell_formula_units_Z 60
_cell_length_a 12.088400
_cell_length_b 12.088400
_cell_length_c 18.741483
_cell_angle_alpha 90.000000
_cell_angle_beta 90.000000
_cell_angle_gamma 90.000000
_cell_volume 2738.681939
_symmetry_space_group_name_H-M "P 43 21 2"
_symmetry_group_IT_number 96
_symmetry_cell_setting 'tetragonal'
loop_
_space_group_symop_operation_xyz
x,y,z
1/2-y,1/2+x,3/4+z
-x,-y,1/2+z
1/2+y,1/2-x,1/4+z
1/2+x,1/2-y,1/4-z
1/2-x,1/2+y,3/4-z
y,x,-z
-y,-x,1/2-z
loop_
_atom_site_type_symbol
_atom_site_label
_atom_site_fract_x
_atom_site_fract_y
_atom_site_fract_z
Si Si1 0.522305 0.297889 0.767743
Si Si2 0.642492 0.086760 0.785418
Si Si3 0.138995 0.418327 0.635372
Si Si4 0.832866 0.127667 0.887142
Si Si5 0.850813 0.850813 0.500000
Si Si6 0.356063 0.776312 0.886796
Si Si7 0.951250 0.933270 0.315277
Si Si8 0.163397 0.933197 0.921914
O O1 0.632685 0.367316 0.750000
O O2 0.556454 0.183710 0.807160
O O3 0.446451 0.274193 0.697680
O O4 0.447314 0.360851 0.824515
O O5 0.633717 0.089689 0.700310
O O6 0.764448 0.119440 0.813349
O O7 0.614318 0.969706 0.821139
O O8 0.243329 0.343164 0.660993
O O9 0.153277 0.547829 0.650554
O O10 0.955693 0.079181 0.876064
O O11 0.791387 0.803302 0.570596
O O12 0.982713 0.830002 0.510971
O O13 0.404699 0.691800 0.948156
O O14 0.270514 0.856688 0.924627
O O15 0.848314 0.002722 0.346776
O O16 0.003677 0.996324 0.250000
#
# Coordination Sequence:
#
# PCOD8305932 Si02
#       8
#     8   8   8   8   4   8   8   8
#     4  12  23  45  71 104 139 188 241 293 357 434
#     4  12  26  44  69 108 144 178 234 302 364 422
#     4  11  25  45  69 103 143 185 233 298 362 436
#     4  11  22  45  73  98 139 189 234 294 365 434
#     4  10  22  46  68  98 134 186 234 282 360 430
#     4  10  24  41  70  96 132 184 232 295 352 421
#     4  10  21  42  67 101 134 181 244 291 351 438
#     4  11  22  42  71  96 137 188 238 282 359 432
#
# _framework density 21.908349999999999
#
# number of rings (size 3 to 8) (size 9 to 14) (size 15 to 20)
#    0.000    1.067    3.333    4.400    4.667    2.133 
#    2.400    0.000    0.000    0.000    0.000    0.000 
#    0.000    0.000    0.000    0.000    0.000    0.000 
#
# Total GULP energy -743629.812451 kJ/mol
# GULP energy per Si atom -12393.830208 kJ/mol
# Density = 2.185849 g / cm^3
# Si number density = 21.908350 Si / 1000 Ang^3
#
#
#
# Elastic Constant Matrix: (Units=GPa)
#
#
# Indices 1 2 3 4 5 6 
#
# 1 114.8196 52.8910 36.8963 0.0000 0.0000 0.0000
# 2 52.8910 114.8204 36.8959 0.0000 0.0000 0.0000
# 3 36.8963 36.8959 78.1434 0.0000 0.0000 0.0000
# 4 0.0000 0.0000 0.0000 31.6146 0.0000 0.0000
# 5 0.0000 0.0000 0.0000 0.0000 31.6141 0.0000
# 6 0.0000 0.0000 0.0000 0.0000 0.0000 41.0091
#
#
#
# Elastic Compliance Matrix: (Units=1/GPa)
#
#
# Indices 1 2 3 4 5 6 
#
# 1 0.011837 -0.004311 -0.003554 0.000000 0.000000 0.000000
# 2 -0.004311 0.011837 -0.003553 0.000000 0.000000 0.000000
# 3 -0.003554 -0.003553 0.016153 0.000000 0.000000 0.000000
# 4 0.000000 0.000000 0.000000 0.031631 0.000000 0.000000
# 5 0.000000 0.000000 0.000000 0.000000 0.031631 0.000000
# 6 0.000000 0.000000 0.000000 0.000000 0.000000 0.024385
#
#
# Mechanical properties :
#
#
# Convention : Reuss Voigt Hill
#
# Bulk Modulus (GPa) = 58.85528 62.34997 60.60263
# Shear Modulus (GPa) = 32.05686 32.92089 32.48887
#
# Velocity S-wave (km/s) = 3.82936 3.88063 3.85508
# Velocity P-wave (km/s) = 6.81723 6.97139 6.89474
#
# Compressibility (1/GPa) = 0.01699083
#
# Stress axis : x y z
#
# Youngs Moduli (GPa) = 84.48135 84.48234 61.90923
#
# Poissons Ratio (x) = 0.36418 0.22000
# Poissons Ratio (y) = 0.36417 0.21999
# Poissons Ratio (z) = 0.30022 0.30021
#
# Static dielectric constant tensor:
#      x y z
#    x 4.069640 0.000000 0.000000 
#    y 0.000000 4.069640 0.000000 
#    z 0.000000 0.000000 3.726070 
# 
# 
# High freq. dielectric constant tensor:
#      x y z
#    x 1.861520 0.000000 0.000000 
#    y 0.000000 1.861520 0.000000 
#    z 0.000000 0.000000 1.853640 
# 
# From -- ./inp_files/3631.got.cif
#   From: 2010.03.12/outbox.cif.g09.slc.cpg/sg96_2_cif.got.tgz:3631.got - 2010.04.08 20:56:49.
