data_PCOD8305426
_publ_section_title
;
Structure prediction by ZEFSAII (Michael W. Deem and Ramdas Pophale) SiO2 
 PCOD8305426
Probable space group: P 41 21 2
;
_chemical_formula_sum "Si O2"
_cell_formula_units_Z 28
_cell_length_a 7.585678
_cell_length_b 7.585678
_cell_length_c 19.019345
_cell_angle_alpha 90.000000
_cell_angle_beta 90.000000
_cell_angle_gamma 90.000000
_cell_volume 1094.420864
_symmetry_space_group_name_H-M "P 41 21 2"
_symmetry_group_IT_number 92
_symmetry_cell_setting 'tetragonal'
loop_
_space_group_symop_operation_xyz
x,y,z
1/2-y,1/2+x,1/4+z
-x,-y,1/2+z
1/2+y,1/2-x,3/4+z
1/2+x,1/2-y,3/4-z
1/2-x,1/2+y,1/4-z
y,x,-z
-y,-x,1/2-z
loop_
_atom_site_type_symbol
_atom_site_label
_atom_site_fract_x
_atom_site_fract_y
_atom_site_fract_z
Si Si1 0.653969 0.500079 0.897449
Si Si2 0.349020 0.147075 0.232803
Si Si3 0.869885 0.520706 0.122348
Si Si4 0.542803 0.457198 0.750000
O O1 0.614498 0.346494 0.952778
O O2 0.517250 0.664893 0.903106
O O3 0.657791 0.412649 0.818987
O O4 0.838862 0.593093 0.912794
O O5 0.493531 0.032985 0.191379
O O6 0.335963 0.097053 0.315518
O O7 0.419115 0.344846 0.225488
#
# Coordination Sequence:
#
# PCOD8305426 Si02
#       4
#     8   8   8   4
#     4  11  25  47  77 106 157 200 252 331 385 469
#     4  11  25  48  76 110 157 203 261 326 389 471
#     4  11  26  46  76 115 153 201 268 317 395 477
#     4  10  24  50  64 112 152 190 264 310 384 480
#
# _framework density 25.584306999999999
#
# number of rings (size 3 to 8) (size 9 to 14) (size 15 to 20)
#    0.000    1.143    0.000    5.143   12.000    0.000 
#    5.143    5.714    0.000    0.000    0.000    0.000 
#    0.000    0.000    0.000    0.000    0.000    0.000 
#
# Total GULP energy -347028.167454 kJ/mol
# GULP energy per Si atom -12393.863123 kJ/mol
# Density = 2.552608 g / cm^3
# Si number density = 25.584307 Si / 1000 Ang^3
#
#
#
# Elastic Constant Matrix: (Units=GPa)
#
#
# Indices 1 2 3 4 5 6 
#
# 1 84.2713 7.9232 7.7024 0.0000 0.0000 0.0000
# 2 7.9232 84.2718 7.7021 0.0000 0.0000 0.0000
# 3 7.7024 7.7021 51.1490 0.0000 0.0000 0.0000
# 4 0.0000 0.0000 0.0000 40.1942 0.0000 0.0000
# 5 0.0000 0.0000 0.0000 0.0000 40.1940 0.0000
# 6 0.0000 0.0000 0.0000 0.0000 0.0000 37.3231
#
#
#
# Elastic Compliance Matrix: (Units=1/GPa)
#
#
# Indices 1 2 3 4 5 6 
#
# 1 0.012112 -0.000986 -0.001676 0.000000 0.000000 0.000000
# 2 -0.000986 0.012112 -0.001675 0.000000 0.000000 0.000000
# 3 -0.001676 -0.001675 0.020055 0.000000 0.000000 0.000000
# 4 0.000000 0.000000 0.000000 0.024879 0.000000 0.000000
# 5 0.000000 0.000000 0.000000 0.000000 0.024879 0.000000
# 6 0.000000 0.000000 0.000000 0.000000 0.000000 0.026793
#
#
# Mechanical properties :
#
#
# Convention : Reuss Voigt Hill
#
# Bulk Modulus (GPa) = 28.08479 29.59419 28.83949
# Shear Modulus (GPa) = 35.36731 36.63321 36.00026
#
# Velocity S-wave (km/s) = 3.72207 3.78810 3.75523
# Velocity P-wave (km/s) = 5.42890 5.54305 5.48627
#
# Compressibility (1/GPa) = 0.03560646
#
# Stress axis : x y z
#
# Youngs Moduli (GPa) = 82.56101 82.56165 49.86204
#
# Poissons Ratio (x) = 0.08138 0.08355
# Poissons Ratio (y) = 0.08138 0.08354
# Poissons Ratio (z) = 0.13833 0.13833
#
# Static dielectric constant tensor:
#      x y z
#    x 4.460050 0.000000 0.000000 
#    y 0.000000 4.460030 0.000000 
#    z 0.000000 0.000000 4.903630 
# 
# 
# High freq. dielectric constant tensor:
#      x y z
#    x 2.016240 0.000000 0.000000 
#    y 0.000000 2.016240 0.000000 
#    z 0.000000 0.000000 2.036330 
# 
# From -- ./inp_files/2894.got.cif
#   From: 2010.03.12/outbox.cif.g09.slc.cpg/sg92_2_cif.got.tgz:2894.got - 2010.04.08 20:41:11.
