data_PCOD8305577
_publ_section_title
;
Structure prediction by ZEFSAII (Michael W. Deem and Ramdas Pophale) SiO2 
 PCOD8305577
Probable space group: P 42 2 2
;
_chemical_formula_sum "Si O2"
_cell_formula_units_Z 38
_cell_length_a 9.641020
_cell_length_b 9.641020
_cell_length_c 20.331373
_cell_angle_alpha 90.000000
_cell_angle_beta 90.000000
_cell_angle_gamma 90.000000
_cell_volume 1889.786210
_symmetry_space_group_name_H-M "P 42 2 2"
_symmetry_group_IT_number 93
_symmetry_cell_setting 'tetragonal'
loop_
_space_group_symop_operation_xyz
x,y,z
-y,x,1/2+z
-x,-y,z
y,-x,1/2+z
x,-y,-z
-x,y,-z
y,x,1/2-z
-y,-x,1/2-z
loop_
_atom_site_type_symbol
_atom_site_label
_atom_site_fract_x
_atom_site_fract_y
_atom_site_fract_z
Si Si1 0.272403 0.837625 0.070981
Si Si2 0.236055 0.848030 0.923088
Si Si3 0.230070 0.520094 0.666592
Si Si4 0.016995 0.654971 0.102865
Si Si5 0.000000 0.500000 0.772544
Si Si6 0.500000 0.500000 0.250000
O O1 0.412116 0.810988 0.110559
O O2 0.167748 0.714378 0.087686
O O3 0.209828 0.988431 0.090926
O O4 0.309664 0.832660 0.993821
O O5 0.328702 0.781468 0.865823
O O6 0.092451 0.764291 0.925914
O O7 0.134088 0.504245 0.728930
O O8 0.378661 0.497283 0.697204
O O9 0.002071 0.638396 0.181845
O O10 0.000000 0.500000 0.070640
#
# Coordination Sequence:
#
# PCOD8305577 Si02
#       6
#     8   8   8   8   4   2
#     4  11  23  42  68  97 129 169 216 268 327 384
#     4  11  23  42  68  97 129 169 216 268 327 384
#     4  12  23  45  64  93 127 172 216 271 315 397
#     4  10  24  42  63  99 131 174 211 267 329 377
#     4  10  22  44  66  86 134 168 216 256 320 380
#     4  12  28  40  66  88 136 172 212 270 344 376
#
# _framework density 20.108093
#
# number of rings (size 3 to 8) (size 9 to 14) (size 15 to 20)
#    0.632    0.421    2.105    4.421    2.947    5.053 
#    0.000    1.053    4.632    0.000    0.000    0.000 
#    0.000    0.000    0.000    0.000    0.000    0.000 
#
# Total GULP energy -471110.865801 kJ/mol
# GULP energy per Si atom -12397.654363 kJ/mol
# Density = 2.006233 g / cm^3
# Si number density = 20.108093 Si / 1000 Ang^3
#
#
#
# Elastic Constant Matrix: (Units=GPa)
#
#
# Indices 1 2 3 4 5 6 
#
# 1 98.1061 9.8365 21.0541 0.0000 0.0000 0.0000
# 2 9.8365 98.1061 21.0541 0.0000 0.0000 0.0000
# 3 21.0541 21.0541 112.7666 0.0000 0.0000 0.0000
# 4 0.0000 0.0000 0.0000 90.3994 0.0000 0.0000
# 5 0.0000 0.0000 0.0000 0.0000 90.3994 0.0000
# 6 0.0000 0.0000 0.0000 0.0000 0.0000 41.2929
#
#
#
# Elastic Compliance Matrix: (Units=1/GPa)
#
#
# Indices 1 2 3 4 5 6 
#
# 1 0.010660 -0.000669 -0.001866 0.000000 0.000000 0.000000
# 2 -0.000669 0.010660 -0.001866 0.000000 0.000000 0.000000
# 3 -0.001866 -0.001866 0.009564 0.000000 0.000000 0.000000
# 4 0.000000 0.000000 0.000000 0.011062 0.000000 0.000000
# 5 0.000000 0.000000 0.000000 0.000000 0.011062 0.000000
# 6 0.000000 0.000000 0.000000 0.000000 0.000000 0.024217
#
#
# Mechanical properties :
#
#
# Convention : Reuss Voigt Hill
#
# Bulk Modulus (GPa) = 45.27720 45.87424 45.57572
# Shear Modulus (GPa) = 53.54014 61.55393 57.54703
#
# Velocity S-wave (km/s) = 5.16565 5.53877 5.35546
# Velocity P-wave (km/s) = 7.62525 7.98544 7.80742
#
# Compressibility (1/GPa) = 0.02208617
#
# Stress axis : x y z
#
# Youngs Moduli (GPa) = 93.80483 93.80483 104.55344
#
# Poissons Ratio (x) = 0.06271 0.19505
# Poissons Ratio (y) = 0.06271 0.19505
# Poissons Ratio (z) = 0.17500 0.17500
#
# Static dielectric constant tensor:
#      x y z
#    x 3.578740 0.000000 0.000000 
#    y 0.000000 3.578740 0.000000 
#    z 0.000000 0.000000 3.712870 
# 
# 
# High freq. dielectric constant tensor:
#      x y z
#    x 1.787730 0.000000 0.000000 
#    y 0.000000 1.787730 0.000000 
#    z 0.000000 0.000000 1.800310 
# 
# From -- ./inp_files/6777.got.cif
#   From: 2010.03.12/outbox.cif.g09.slc.cpg/sg93_4_cif.got.tgz:6777.got - 2010.04.08 20:44:19.
