data_PCOD8306130
_publ_section_title
;
Structure prediction by ZEFSAII (Michael W. Deem and Ramdas Pophale) SiO2 
 PCOD8306130
Probable space group: I 4 2 2 
;
_chemical_formula_sum "Si O2"
_cell_formula_units_Z 80
_cell_length_a 12.283675
_cell_length_b 12.283675
_cell_length_c 25.921732
_cell_angle_alpha 90.000000
_cell_angle_beta 90.000000
_cell_angle_gamma 90.000000
_cell_volume 3911.295705
_symmetry_space_group_name_H-M "I 4 2 2 "
_symmetry_group_IT_number 97
_symmetry_cell_setting 'tetragonal'
loop_
_space_group_symop_operation_xyz
x,y,z
-y,x,z
-x,-y,z
y,-x,z
x,-y,-z
-x,y,-z
y,x,-z
-y,-x,-z
1/2+x,1/2+y,1/2+z
1/2-y,1/2+x,1/2+z
1/2-x,1/2-y,1/2+z
1/2+y,1/2-x,1/2+z
1/2+x,1/2-y,1/2-z
1/2-x,1/2+y,1/2-z
1/2+y,1/2+x,1/2-z
1/2-y,1/2-x,1/2-z
loop_
_atom_site_type_symbol
_atom_site_label
_atom_site_fract_x
_atom_site_fract_y
_atom_site_fract_z
Si Si1 0.124523 0.502776 0.371493
Si Si2 0.499299 0.672193 0.560818
Si Si3 0.724692 0.911190 0.659122
Si Si4 0.820608 0.989067 0.556997
Si Si5 0.786139 0.363021 0.195880
O O1 0.204832 0.500661 0.419793
O O2 0.143414 0.394298 0.337093
O O3 0.155336 0.606431 0.337654
O O4 0.000000 0.500000 0.391051
O O5 0.392179 0.606985 0.580233
O O6 0.500000 0.677183 0.500000
O O7 0.733843 0.971736 0.602777
O O8 0.814435 0.820036 0.668314
O O9 0.735232 0.007214 0.701841
O O10 0.900020 0.886729 0.562927
O O11 0.764782 0.000000 0.500000
O O12 0.803770 0.303770 0.250000
#
# Coordination Sequence:
#
# PCOD8306130 Si02
#       5
#    16  16  16  16  16
#     4  10  23  40  59  89 128 164 203 257 324 385
#     4   9  18  37  63  86 116 163 212 260 307 363
#     4  11  22  42  67  92 132 168 211 272 316 393
#     4   9  17  34  61  96 128 165 212 268 326 377
#     4  11  26  42  66  93 123 170 217 261 329 379
#
# _framework density 20.453579999999999
#
# number of rings (size 3 to 8) (size 9 to 14) (size 15 to 20)
#    0.000    2.000    2.000    2.400    2.800    3.600 
#    7.200    2.000    0.000    0.000    0.000    0.000 
#    0.000    0.000    0.000    0.000    0.000    0.000 
#
# Total GULP energy -495769.467391 kJ/mol
# GULP energy per Si atom -12394.236685 kJ/mol
# Density = 2.040703 g / cm^3
# Si number density = 20.453580 Si / 1000 Ang^3
#
#
#
# Elastic Constant Matrix: (Units=GPa)
#
#
# Indices 1 2 3 4 5 6 
#
# 1 138.8062 12.3496 36.4512 0.0000 0.0000 0.0000
# 2 12.3496 138.8062 36.4512 0.0000 0.0000 0.0000
# 3 36.4512 36.4512 83.7196 0.0000 0.0000 0.0000
# 4 0.0000 0.0000 0.0000 30.4267 0.0000 0.0000
# 5 0.0000 0.0000 0.0000 0.0000 30.4267 0.0000
# 6 0.0000 0.0000 0.0000 0.0000 0.0000 29.4725
#
#
#
# Elastic Compliance Matrix: (Units=1/GPa)
#
#
# Indices 1 2 3 4 5 6 
#
# 1 0.008141 0.000233 -0.003646 0.000000 0.000000 0.000000
# 2 0.000233 0.008141 -0.003646 0.000000 0.000000 0.000000
# 3 -0.003646 -0.003646 0.015120 0.000000 0.000000 0.000000
# 4 0.000000 0.000000 0.000000 0.032866 0.000000 0.000000
# 5 0.000000 0.000000 0.000000 0.000000 0.032866 0.000000
# 6 0.000000 0.000000 0.000000 0.000000 0.000000 0.033930
#
#
# Mechanical properties :
#
#
# Convention : Reuss Voigt Hill
#
# Bulk Modulus (GPa) = 57.85817 59.09289 58.47553
# Shear Modulus (GPa) = 33.12517 36.47052 34.79785
#
# Velocity S-wave (km/s) = 4.02870 4.22724 4.12917
# Velocity P-wave (km/s) = 7.07033 7.26499 7.16832
#
# Compressibility (1/GPa) = 0.01728364
#
# Stress axis : x y z
#
# Youngs Moduli (GPa) = 122.83466 122.83466 66.13923
#
# Poissons Ratio (x) = -0.02864 0.24115
# Poissons Ratio (y) = -0.02864 0.24115
# Poissons Ratio (z) = 0.44787 0.44787
#
# Static dielectric constant tensor:
#      x y z
#    x 3.847840 0.000000 0.000000 
#    y 0.000000 3.847840 0.000000 
#    z 0.000000 0.000000 3.542070 
# 
# 
# High freq. dielectric constant tensor:
#      x y z
#    x 1.805610 0.000000 0.000000 
#    y 0.000000 1.805610 0.000000 
#    z 0.000000 0.000000 1.777060 
# 
# From -- ./inp_files/7977.got.cif
#   From: 2010.03.12/outbox.cif.g09.slc.cpg/sg97_4_cif.got.tgz:7977.got - 2010.04.08 20:59:42.
