data_PCOD8306793
_publ_section_title
;
Structure prediction by ZEFSAII (Michael W. Deem and Ramdas Pophale) SiO2 
 PCOD8306793
Probable space group: P 42 C M
;
_chemical_formula_sum "Si O2"
_cell_formula_units_Z 38
_cell_length_a 14.372399
_cell_length_b 14.372399
_cell_length_c 9.416141
_cell_angle_alpha 90.000000
_cell_angle_beta 90.000000
_cell_angle_gamma 90.000000
_cell_volume 1945.053198
_symmetry_space_group_name_H-M "P 42 C M"
_symmetry_group_IT_number 101
_symmetry_cell_setting 'tetragonal'
loop_
_space_group_symop_operation_xyz
x,y,z
-y,x,1/2+z
-x,-y,z
y,-x,1/2+z
-x,y,1/2+z
x,-y,1/2+z
-y,-x,z
y,x,z
loop_
_atom_site_type_symbol
_atom_site_label
_atom_site_fract_x
_atom_site_fract_y
_atom_site_fract_z
Si Si1 0.398279 0.247389 0.010250
Si Si2 0.961942 0.397973 0.449123
Si Si3 0.423185 0.277151 0.687783
Si Si4 0.091102 0.318744 0.662313
Si Si5 0.895330 0.895330 0.712309
Si Si6 0.000000 0.000000 0.462125
O O1 0.302240 0.302240 0.040820
O O2 0.379813 0.137650 0.022785
O O3 0.474800 0.277811 0.123028
O O4 0.437674 0.270683 0.855764
O O5 0.958069 0.382762 0.280958
O O6 0.000000 0.500000 0.482545
O O7 0.033334 0.324717 0.517245
O O8 0.373500 0.373500 0.645976
O O9 0.356884 0.194295 0.632399
O O10 0.088867 0.214277 0.717796
O O11 0.937003 0.937003 0.566312
O O12 0.937205 0.937205 0.857616
#
# Coordination Sequence:
#
# PCOD8306793 Si02
#       6
#     8   8   8   8   4   2
#     4  10  23  40  61  89 123 159 200 255 308 368
#     4  11  22  37  62  91 122 158 206 254 316 368
#     4  10  21  40  61  84 119 159 199 246 305 362
#     4  11  22  37  62  89 120 162 202 259 307 374
#     4  11  22  44  62  90 125 166 213 255 324 379
#     4  10  24  42  64  86 128 170 206 264 314 400
#
# _framework density 19.536740999999999
#
# number of rings (size 3 to 8) (size 9 to 14) (size 15 to 20)
#    0.000    1.474    3.158    1.895    4.421    1.263 
#    3.789    2.105    0.000    0.000    0.000    0.000 
#    0.000    0.000    0.000    0.000    0.000    0.000 
#
# Total GULP energy -471285.335805 kJ/mol
# GULP energy per Si atom -12402.245679 kJ/mol
# Density = 1.949227 g / cm^3
# Si number density = 19.536741 Si / 1000 Ang^3
#
#
#
# Elastic Constant Matrix: (Units=GPa)
#
#
# Indices 1 2 3 4 5 6 
#
# 1 97.6187 33.0186 23.8366 0.0000 0.0000 0.0000
# 2 33.0186 97.6187 23.8366 0.0000 0.0000 0.0000
# 3 23.8366 23.8366 53.8390 0.0000 0.0000 0.0000
# 4 0.0000 0.0000 0.0000 28.9885 0.0000 0.0000
# 5 0.0000 0.0000 0.0000 0.0000 28.9885 0.0000
# 6 0.0000 0.0000 0.0000 0.0000 0.0000 36.1085
#
#
#
# Elastic Compliance Matrix: (Units=1/GPa)
#
#
# Indices 1 2 3 4 5 6 
#
# 1 0.012305 -0.003175 -0.004042 0.000000 0.000000 0.000000
# 2 -0.003175 0.012305 -0.004042 0.000000 0.000000 0.000000
# 3 -0.004042 -0.004042 0.022153 0.000000 0.000000 0.000000
# 4 0.000000 0.000000 0.000000 0.034496 0.000000 0.000000
# 5 0.000000 0.000000 0.000000 0.000000 0.034496 0.000000
# 6 0.000000 0.000000 0.000000 0.000000 0.000000 0.027694
#
#
# Mechanical properties :
#
#
# Convention : Reuss Voigt Hill
#
# Bulk Modulus (GPa) = 41.24683 45.60666 43.42674
# Shear Modulus (GPa) = 28.72741 30.04277 29.38509
#
# Velocity S-wave (km/s) = 3.83878 3.92568 3.88247
# Velocity P-wave (km/s) = 6.38800 6.62893 6.50958
#
# Compressibility (1/GPa) = 0.02424429
#
# Stress axis : x y z
#
# Youngs Moduli (GPa) = 81.26874 81.26874 45.14042
#
# Poissons Ratio (x) = 0.25803 0.18246
# Poissons Ratio (y) = 0.25803 0.18246
# Poissons Ratio (z) = 0.32850 0.32850
#
# Static dielectric constant tensor:
#      x y z
#    x 3.593670 0.000000 0.000000 
#    y 0.000000 3.593670 0.000000 
#    z 0.000000 0.000000 3.461270 
# 
# 
# High freq. dielectric constant tensor:
#      x y z
#    x 1.765430 0.000000 0.000000 
#    y 0.000000 1.765430 0.000000 
#    z 0.000000 0.000000 1.759150 
# 
# From -- ./inp_files/540.got.cif
#   From: 2010.03.12/outbox.cif.g09.slc.cpg/sg101_1_cif.got.tgz:540.got - 2010.04.14 01:38:52.
