data_PCOD8306528
_publ_section_title
;
Structure prediction by ZEFSAII (Michael W. Deem and Ramdas Pophale) SiO2 
 PCOD8306528
Probable space group: P 4 M M
;
_chemical_formula_sum "Si O2"
_cell_formula_units_Z 64
_cell_length_a 13.503483
_cell_length_b 13.503483
_cell_length_c 20.794883
_cell_angle_alpha 90.000000
_cell_angle_beta 90.000000
_cell_angle_gamma 90.000000
_cell_volume 3791.823251
_symmetry_space_group_name_H-M "P 4 M M"
_symmetry_group_IT_number 99
_symmetry_cell_setting 'tetragonal'
loop_
_space_group_symop_operation_xyz
x,y,z
-y,x,z
-x,-y,z
y,-x,z
-x,y,z
x,-y,z
-y,-x,z
y,x,z
loop_
_atom_site_type_symbol
_atom_site_label
_atom_site_fract_x
_atom_site_fract_y
_atom_site_fract_z
Si Si1 0.725052 0.883836 0.455990
Si Si2 0.615573 0.776034 0.348273
Si Si3 0.386583 0.113483 0.218906
Si Si4 0.617526 0.111840 0.856727
Si Si5 0.383620 0.775111 0.981322
Si Si6 0.389073 0.881663 0.581188
Si Si7 0.382536 0.890007 0.718406
Si Si8 0.884334 0.723767 0.089381
O O1 0.828398 0.828398 0.443000
O O2 0.645678 0.857269 0.401219
O O3 0.682464 0.846702 0.524338
O O4 0.746269 0.000000 0.454957
O O5 0.500000 0.753020 0.354526
O O6 0.674004 0.674004 0.359760
O O7 0.643498 0.818544 0.278634
O O8 0.500000 0.131454 0.198639
O O9 0.318140 0.142883 0.159300
O O10 0.369731 0.000000 0.239282
O O11 0.500000 0.106404 0.861060
O O12 0.649205 0.159744 0.786814
O O13 0.659806 0.000000 0.864370
O O14 0.656763 0.180688 0.913955
O O15 0.500000 0.754035 0.980802
O O16 0.328734 0.671267 0.994018
O O17 0.358063 0.853291 0.037061
O O18 0.500000 0.841469 0.567294
O O19 0.347988 0.839673 0.650687
O O20 0.392015 0.000000 0.584894
O O21 0.500000 0.895551 0.714191
O O22 0.337898 0.000000 0.721667
O O23 0.825853 0.825853 0.077913
O O24 0.000000 0.746359 0.082496
#
# Coordination Sequence:
#
# PCOD8306528 Si02
#       8
#     8   8   8   8   8   8   8   8
#     4  10  20  32  46  65  89 118 154 194 234 276
#     4  10  20  33  50  72  97 124 154 188 226 269
#     4   9  17  30  50  74  97 123 156 190 221 255
#     4   8  13  23  41  63  86 112 142 179 224 271
#     4  10  20  32  46  65  89 118 154 194 234 276
#     4   8  13  23  41  63  86 112 142 179 224 271
#     4   7  10  18  35  60  86 110 137 173 220 268
#     4  10  20  33  50  72  97 124 154 188 226 269
#
# _framework density 16.878423000000002
#
# number of rings (size 3 to 8) (size 9 to 14) (size 15 to 20)
#    0.000    3.000    0.000    3.375    0.000    3.000 
#    0.000    0.625    0.000    0.000    0.000    3.500 
#    0.000    0.000    0.000   15.750    0.000    0.500 
#
# Total GULP energy -793020.841773 kJ/mol
# GULP energy per Si atom -12390.950653 kJ/mol
# Density = 1.684001 g / cm^3
# Si number density = 16.878423 Si / 1000 Ang^3
#
#
#
# Elastic Constant Matrix: (Units=GPa)
#
#
# Indices 1 2 3 4 5 6 
#
# 1 62.9080 28.7506 38.3615 0.0000 0.0000 0.0000
# 2 28.7506 62.9080 38.3615 0.0000 0.0000 0.0000
# 3 38.3615 38.3615 125.3659 0.0000 0.0000 0.0000
# 4 0.0000 0.0000 0.0000 13.0299 0.0000 0.0000
# 5 0.0000 0.0000 0.0000 0.0000 13.0299 0.0000
# 6 0.0000 0.0000 0.0000 0.0000 0.0000 13.6020
#
#
#
# Elastic Compliance Matrix: (Units=1/GPa)
#
#
# Indices 1 2 3 4 5 6 
#
# 1 0.021971 -0.007305 -0.004488 0.000000 0.000000 0.000000
# 2 -0.007305 0.021971 -0.004488 0.000000 0.000000 0.000000
# 3 -0.004488 -0.004488 0.010723 0.000000 0.000000 0.000000
# 4 0.000000 0.000000 0.000000 0.076747 0.000000 0.000000
# 5 0.000000 0.000000 0.000000 0.000000 0.076747 0.000000
# 6 0.000000 0.000000 0.000000 0.000000 0.000000 0.073518
#
#
# Mechanical properties :
#
#
# Convention : Reuss Voigt Hill
#
# Bulk Modulus (GPa) = 45.23899 51.34767 48.29333
# Shear Modulus (GPa) = 15.54691 17.64626 16.59659
#
# Velocity S-wave (km/s) = 3.03827 3.23692 3.13917
# Velocity P-wave (km/s) = 6.25853 6.66770 6.46635
#
# Compressibility (1/GPa) = 0.02210483
#
# Stress axis : x y z
#
# Youngs Moduli (GPa) = 45.51360 45.51360 93.25543
#
# Poissons Ratio (x) = 0.33247 0.41853
# Poissons Ratio (y) = 0.33247 0.41853
# Poissons Ratio (z) = 0.20426 0.20426
#
# Static dielectric constant tensor:
#      x y z
#    x 2.821930 0.000000 0.000000 
#    y 0.000000 2.821930 0.000000 
#    z 0.000000 0.000000 3.638570 
# 
# 
# High freq. dielectric constant tensor:
#      x y z
#    x 1.619410 0.000000 0.000000 
#    y 0.000000 1.619410 0.000000 
#    z 0.000000 0.000000 1.678130 
# 
# From -- ./inp_files/2102.got.cif
#   From: 2010.03.12/outbox.cif.g09.slc.cpg/sg99_cif.got.tgz:2102.got - 2010.04.08 21:11:30.
