data_PCOD8306178
_publ_section_title
;
Structure prediction by ZEFSAII (Michael W. Deem and Ramdas Pophale) SiO2 
 PCOD8306178
Probable space group: I 4 2 2 
;
_chemical_formula_sum "Si O2"
_cell_formula_units_Z 44
_cell_length_a 13.438151
_cell_length_b 13.438151
_cell_length_c 11.393937
_cell_angle_alpha 90.000000
_cell_angle_beta 90.000000
_cell_angle_gamma 90.000000
_cell_volume 2057.561606
_symmetry_space_group_name_H-M "I 4 2 2 "
_symmetry_group_IT_number 97
_symmetry_cell_setting 'tetragonal'
loop_
_space_group_symop_operation_xyz
x,y,z
-y,x,z
-x,-y,z
y,-x,z
x,-y,-z
-x,y,-z
y,x,-z
-y,-x,-z
1/2+x,1/2+y,1/2+z
1/2-y,1/2+x,1/2+z
1/2-x,1/2-y,1/2+z
1/2+y,1/2-x,1/2+z
1/2+x,1/2-y,1/2-z
1/2-x,1/2+y,1/2-z
1/2+y,1/2+x,1/2-z
1/2-y,1/2-x,1/2-z
loop_
_atom_site_type_symbol
_atom_site_label
_atom_site_fract_x
_atom_site_fract_y
_atom_site_fract_z
Si Si1 0.885352 0.885352 0.500000
Si Si2 0.500000 0.000000 0.750000
Si Si3 0.312766 0.662715 0.749572
Si Si4 0.717051 0.983107 0.137403
O O1 0.834072 0.846472 0.383558
O O2 0.000000 0.860424 0.500000
O O3 0.398022 0.998943 0.825367
O O4 0.199814 0.699814 0.750000
O O5 0.302221 0.552648 0.697001
O O6 0.374805 0.740923 0.670511
O O7 0.721401 0.000000 0.000000
#
# Coordination Sequence:
#
# PCOD8306178 Si02
#       4
#     8   4  16  16
#     4  11  24  46  72  98 138 181 244 296 336 415
#     4  12  26  48  72 106 144 186 232 284 350 428
#     4  12  26  45  71 103 140 188 231 285 354 414
#     4  12  27  47  71 106 144 182 233 291 351 416
#
# _framework density 21.384536000000001
#
# number of rings (size 3 to 8) (size 9 to 14) (size 15 to 20)
#    0.000    0.182    7.273    1.636    5.091    0.727 
#    6.545    1.818    0.000    0.000    0.000    0.000 
#    0.000    0.000    0.000    0.000    0.000    0.000 
#
# Total GULP energy -272661.572929 kJ/mol
# GULP energy per Si atom -12393.707860 kJ/mol
# Density = 2.133586 g / cm^3
# Si number density = 21.384536 Si / 1000 Ang^3
#
#
#
# Elastic Constant Matrix: (Units=GPa)
#
#
# Indices 1 2 3 4 5 6 
#
# 1 94.3467 26.6464 41.4058 0.0000 0.0000 0.0000
# 2 26.6464 94.3467 41.4058 0.0000 0.0000 0.0000
# 3 41.4058 41.4058 192.6284 0.0000 0.0000 0.0000
# 4 0.0000 0.0000 0.0000 -161.8688 0.0000 0.0000
# 5 0.0000 0.0000 0.0000 0.0000 -161.8688 0.0000
# 6 0.0000 0.0000 0.0000 0.0000 0.0000 47.3932
#
#
#
# Elastic Compliance Matrix: (Units=1/GPa)
#
#
# Indices 1 2 3 4 5 6 
#
# 1 0.012231 -0.002540 -0.002083 0.000000 0.000000 0.000000
# 2 -0.002540 0.012231 -0.002083 0.000000 0.000000 0.000000
# 3 -0.002083 -0.002083 0.006087 0.000000 0.000000 0.000000
# 4 0.000000 0.000000 0.000000 -0.006178 0.000000 0.000000
# 5 0.000000 0.000000 0.000000 0.000000 -0.006178 0.000000
# 6 0.000000 0.000000 0.000000 0.000000 0.000000 0.021100
#
#
# Mechanical properties :
#
#
# Convention : Reuss Voigt Hill
#
# Bulk Modulus (GPa) = 58.35663 66.69308 62.52485
# Shear Modulus (GPa) = 85.59110 -37.14465 24.22322
#
# Velocity S-wave (km/s) = 6.33338 -4.17224 3.36928
# Velocity P-wave (km/s) = 8.99058 2.83640 6.66617
#
# Compressibility (1/GPa) = 0.01713601
#
# Stress axis : x y z
#
# Youngs Moduli (GPa) = 81.76076 81.76076 164.28901
#
# Poissons Ratio (x) = 0.20769 0.34222
# Poissons Ratio (y) = 0.20769 0.34222
# Poissons Ratio (z) = 0.17031 0.17031
#
# Static dielectric constant tensor:
#      x y z
#    x 4.443920 0.000000 0.000000 
#    y 0.000000 4.443920 0.000000 
#    z 0.000000 0.000000 3.774780 
# 
# 
# High freq. dielectric constant tensor:
#      x y z
#    x 1.852820 0.000000 0.000000 
#    y 0.000000 1.852820 0.000000 
#    z 0.000000 0.000000 1.848070 
# 
# From -- ./inp_files/3102.got.cif
#   From: 2010.03.12/outbox.cif.g09.slc.cpg/sg97_2_cif.got.tgz:3102.got - 2010.04.08 20:59:42.
