data_PCOD8306926
_publ_section_title
;
Structure prediction by ZEFSAII (Michael W. Deem and Ramdas Pophale) SiO2 
 PCOD8306926
Probable space group: P 42 N M
;
_chemical_formula_sum "Si O2"
_cell_formula_units_Z 64
_cell_length_a 12.629279
_cell_length_b 12.629279
_cell_length_c 22.678304
_cell_angle_alpha 90.000000
_cell_angle_beta 90.000000
_cell_angle_gamma 90.000000
_cell_volume 3617.159735
_symmetry_space_group_name_H-M "P 42 N M"
_symmetry_group_IT_number 102
_symmetry_cell_setting 'tetragonal'
loop_
_space_group_symop_operation_xyz
x,y,z
1/2-y,1/2+x,1/2+z
-x,-y,z
1/2+y,1/2-x,1/2+z
1/2-x,1/2+y,1/2+z
1/2+x,1/2-y,1/2+z
-y,-x,z
y,x,z
loop_
_atom_site_type_symbol
_atom_site_label
_atom_site_fract_x
_atom_site_fract_y
_atom_site_fract_z
Si Si1 0.476472 0.877470 0.115770
Si Si2 0.122530 0.523528 0.449210
Si Si3 0.143697 0.683106 0.215416
Si Si4 0.860891 0.689199 0.064332
Si Si5 0.860890 0.689199 0.500648
Si Si6 0.643696 0.816894 0.849564
Si Si7 0.169357 0.000413 0.143868
Si Si8 0.830644 0.999588 0.421113
O O1 0.424421 0.844333 0.177726
O O2 0.591325 0.824171 0.106124
O O3 0.393759 0.851462 0.064596
O O4 0.500000 0.000000 0.113055
O O5 0.148539 0.606240 0.500384
O O6 0.175829 0.408675 0.458855
O O7 0.155666 0.575579 0.387254
O O8 0.000000 0.500000 0.451926
O O9 0.252320 0.747681 0.209257
O O10 0.122470 0.649279 0.282490
O O11 0.044192 0.755026 0.195189
O O12 0.757588 0.757588 0.055427
O O13 0.957773 0.757066 0.091181
O O14 0.757587 0.757587 0.509554
O O15 0.957772 0.757066 0.473799
O O16 0.752318 0.752318 0.855723
O O17 0.544191 0.744973 0.869792
O O18 0.093328 0.906673 0.119397
O O19 0.096878 0.096878 0.169092
O O20 0.906672 0.093329 0.445585
O O21 0.903124 0.903124 0.395889
#
# Coordination Sequence:
#
# PCOD8306926 Si02
#       8
#     8   8   8   8   8   8   8   8
#     4  12  20  36  54  81 111 140 176 223 276 322
#     4  12  20  36  54  81 111 140 176 223 276 322
#     4  10  21  36  56  80 107 147 191 226 267 322
#     4  11  21  34  55  81 110 144 178 220 276 333
#     4  11  21  34  55  81 110 144 178 220 276 333
#     4  10  21  36  56  80 107 147 191 226 267 322
#     4   9  18  33  53  81 115 146 180 224 273 326
#     4   9  18  33  53  81 115 146 180 224 273 326
#
# _framework density 17.693441
#
# number of rings (size 3 to 8) (size 9 to 14) (size 15 to 20)
#    0.000    1.500    5.000    0.750    0.000    4.000 
#    0.000    2.500    0.000    3.000    0.000    1.750 
#    0.000    0.000    0.000    0.000    0.000    0.000 
#
# Total GULP energy -793471.554032 kJ/mol
# GULP energy per Si atom -12397.993032 kJ/mol
# Density = 1.765317 g / cm^3
# Si number density = 17.693441 Si / 1000 Ang^3
#
#
#
# Elastic Constant Matrix: (Units=GPa)
#
#
# Indices 1 2 3 4 5 6 
#
# 1 74.1698 8.1738 38.4108 0.0000 0.0000 0.0002
# 2 8.1738 74.1698 38.4108 0.0000 0.0000 -0.0002
# 3 38.4108 38.4108 120.2149 0.0000 0.0000 0.0000
# 4 0.0000 0.0000 0.0000 19.1192 0.0000 0.0000
# 5 0.0000 0.0000 0.0000 0.0000 19.1192 0.0000
# 6 0.0002 -0.0002 0.0000 0.0000 0.0000 24.2080
#
#
#
# Elastic Compliance Matrix: (Units=1/GPa)
#
#
# Indices 1 2 3 4 5 6 
#
# 1 0.016227 0.001075 -0.005528 0.000000 0.000000 0.000000
# 2 0.001075 0.016227 -0.005528 0.000000 0.000000 0.000000
# 3 -0.005528 -0.005528 0.011851 0.000000 0.000000 0.000000
# 4 0.000000 0.000000 0.000000 0.052303 0.000000 0.000000
# 5 0.000000 0.000000 0.000000 0.000000 0.052303 0.000000
# 6 0.000000 0.000000 0.000000 0.000000 0.000000 0.041309
#
#
# Mechanical properties :
#
#
# Convention : Reuss Voigt Hill
#
# Bulk Modulus (GPa) = 41.08166 48.72724 44.90445
# Shear Modulus (GPa) = 22.90446 24.72658 23.81552
#
# Velocity S-wave (km/s) = 3.60184 3.74237 3.67278
# Velocity P-wave (km/s) = 6.36920 6.80245 6.58938
#
# Compressibility (1/GPa) = 0.02434176
#
# Stress axis : x y z
#
# Youngs Moduli (GPa) = 61.62546 61.62546 84.38004
#
# Poissons Ratio (x) = -0.06623 0.46647
# Poissons Ratio (y) = -0.06623 0.46647
# Poissons Ratio (z) = 0.34068 0.34068
#
# Static dielectric constant tensor:
#      x y z
#    x 4.002570 0.000000 0.000000 
#    y 0.000000 4.002570 0.000000 
#    z 0.000000 0.000000 3.186230 
# 
# 
# High freq. dielectric constant tensor:
#      x y z
#    x 1.687970 0.000000 0.000000 
#    y 0.000000 1.687970 0.000000 
#    z 0.000000 0.000000 1.663840 
# 
# From -- ./inp_files/3440.got.cif
#   From: 2010.03.12/outbox.cif.g09.slc.cpg/sg102_2_cif.got.tgz:3440.got - 2010.04.14 01:40:42.
