data_PCOD8306608
_publ_section_title
;
Structure prediction by ZEFSAII (Michael W. Deem and Ramdas Pophale) SiO2 
 PCOD8306608
Probable space group: P 4 M M
;
_chemical_formula_sum "Si O2"
_cell_formula_units_Z 33
_cell_length_a 12.189478
_cell_length_b 12.189478
_cell_length_c 11.800519
_cell_angle_alpha 90.000000
_cell_angle_beta 90.000000
_cell_angle_gamma 90.000000
_cell_volume 1753.360927
_symmetry_space_group_name_H-M "P 4 M M"
_symmetry_group_IT_number 99
_symmetry_cell_setting 'tetragonal'
loop_
_space_group_symop_operation_xyz
x,y,z
-y,x,z
-x,-y,z
y,-x,z
-x,y,z
x,-y,z
-y,-x,z
y,x,z
loop_
_atom_site_type_symbol
_atom_site_label
_atom_site_fract_x
_atom_site_fract_y
_atom_site_fract_z
Si Si1 0.000000 0.627988 0.679700
Si Si2 0.799578 0.375247 0.319946
Si Si3 0.000000 0.740551 0.442644
Si Si4 0.302506 0.126005 0.085395
Si Si5 0.804523 0.376238 0.845640
Si Si6 0.000000 0.000000 0.408486
O O1 0.893531 0.657753 0.752985
O O2 0.000000 0.500000 0.643933
O O3 0.000000 0.708012 0.573791
O O4 0.792373 0.500000 0.363693
O O5 0.683209 0.316792 0.343576
O O6 0.893185 0.310360 0.384948
O O7 0.824779 0.375881 0.185865
O O8 0.000000 0.869670 0.429136
O O9 0.184412 0.184412 0.080838
O O10 0.276525 0.000000 0.109860
O O11 0.367625 0.141265 0.969246
O O12 0.764670 0.500000 0.826780
O O13 0.699182 0.300819 0.832011
#
# Coordination Sequence:
#
# PCOD8306608 Si02
#       6
#     4   8   4   8   8   1
#     4  10  22  39  62  85 113 153 195 244 288 347
#     4  11  23  39  62  90 121 159 201 246 296 359
#     4  12  24  43  61  90 120 158 202 245 306 360
#     4  10  20  35  56  86 119 157 196 240 295 354
#     4  10  21  37  58  85 116 151 193 238 288 347
#     4  12  28  44  64  88 126 160 192 256 300 354
#
# _framework density 18.820995
#
# number of rings (size 3 to 8) (size 9 to 14) (size 15 to 20)
#    0.000    1.455    3.636    1.818    1.697    1.697 
#    0.000    0.000    0.000    4.364    0.000    3.394 
#    0.000    0.000    0.000    0.000    0.000    0.000 
#
# Total GULP energy -408850.709935 kJ/mol
# GULP energy per Si atom -12389.415453 kJ/mol
# Density = 1.877816 g / cm^3
# Si number density = 18.820995 Si / 1000 Ang^3
#
#
#
# Elastic Constant Matrix: (Units=GPa)
#
#
# Indices 1 2 3 4 5 6 
#
# 1 158.7585 55.7906 38.3438 0.0000 0.0000 0.0117
# 2 55.7906 158.7585 38.3438 0.0000 0.0000 -0.0117
# 3 38.3438 38.3438 95.5724 0.0000 0.0000 0.0000
# 4 0.0000 0.0000 0.0000 1.2134 0.0000 0.0000
# 5 0.0000 0.0000 0.0000 0.0000 1.2134 0.0000
# 6 0.0117 -0.0117 0.0000 0.0000 0.0000 -10.7712
#
#
#
# Elastic Compliance Matrix: (Units=1/GPa)
#
#
# Indices 1 2 3 4 5 6 
#
# 1 0.007576 -0.002135 -0.002183 0.000000 0.000000 0.000011
# 2 -0.002135 0.007576 -0.002183 0.000000 0.000000 -0.000011
# 3 -0.002183 -0.002183 0.012215 0.000000 0.000000 0.000000
# 4 0.000000 0.000000 0.000000 0.824148 0.000000 0.000000
# 5 0.000000 0.000000 0.000000 0.000000 0.824148 0.000000
# 6 0.000011 -0.000011 0.000000 0.000000 0.000000 -0.092841
#
#
# Mechanical properties :
#
#
# Convention : Reuss Voigt Hill
#
# Bulk Modulus (GPa) = 69.61229 75.33844 72.47536
# Shear Modulus (GPa) = 3.12380 17.03853 10.08117
#
# Velocity S-wave (km/s) = 1.28971 3.01207 2.31689
# Velocity P-wave (km/s) = 6.26774 7.22583 6.76377
#
# Compressibility (1/GPa) = 0.01436528
#
# Stress axis : x y z
#
# Youngs Moduli (GPa) = 131.98711 131.98711 81.86696
#
# Poissons Ratio (x) = 0.28183 0.17872
# Poissons Ratio (y) = 0.28183 0.17872
# Poissons Ratio (z) = 0.28813 0.28813
#
# Static dielectric constant tensor:
#      x y z
#    x 4.443570 0.000000 0.000000 
#    y 0.000000 4.443570 0.000000 
#    z 0.000000 0.000000 3.524110 
# 
# 
# High freq. dielectric constant tensor:
#      x y z
#    x 1.739660 0.000000 0.000000 
#    y 0.000000 1.739660 0.000000 
#    z 0.000000 0.000000 1.727280 
# 
# From -- ./inp_files/1254.got.cif
#   From: 2010.03.12/outbox.cif.g09.slc.cpg/sg99_cif.got.tgz:1254.got - 2010.04.08 21:11:30.
