data_PCOD8306836
_publ_section_title
;
Structure prediction by ZEFSAII (Michael W. Deem and Ramdas Pophale) SiO2 
 PCOD8306836
Probable space group: P 42 N M
;
_chemical_formula_sum "Si O2"
_cell_formula_units_Z 64
_cell_length_a 12.048761
_cell_length_b 12.048761
_cell_length_c 22.904298
_cell_angle_alpha 90.000000
_cell_angle_beta 90.000000
_cell_angle_gamma 90.000000
_cell_volume 3325.077445
_symmetry_space_group_name_H-M "P 42 N M"
_symmetry_group_IT_number 102
_symmetry_cell_setting 'tetragonal'
loop_
_space_group_symop_operation_xyz
x,y,z
1/2-y,1/2+x,1/2+z
-x,-y,z
1/2+y,1/2-x,1/2+z
1/2-x,1/2+y,1/2+z
1/2+x,1/2-y,1/2+z
-y,-x,z
y,x,z
loop_
_atom_site_type_symbol
_atom_site_label
_atom_site_fract_x
_atom_site_fract_y
_atom_site_fract_z
Si Si1 0.319085 0.499573 0.185870
Si Si2 0.002682 0.821159 0.326589
Si Si3 0.257367 0.921618 0.561896
Si Si4 0.870948 0.491328 0.596077
Si Si5 0.237442 0.059440 0.203460
Si Si6 0.426406 0.896984 0.883832
Si Si7 0.862182 0.680402 0.503806
Si Si8 0.123796 0.451907 0.260282
O O1 0.389964 0.610037 0.183850
O O2 0.393714 0.393714 0.204278
O O3 0.267773 0.483521 0.122181
O O4 0.220882 0.525830 0.232202
O O5 0.106404 0.893597 0.348844
O O6 0.018874 0.800066 0.257097
O O7 0.002453 0.705972 0.361834
O O8 0.887107 0.887107 0.337166
O O9 0.158353 0.841647 0.542020
O O10 0.369145 0.849882 0.569639
O O11 0.271723 0.013637 0.511623
O O12 0.787099 0.512444 0.650043
O O13 0.840071 0.579140 0.546994
O O14 0.000000 0.500000 0.616227
O O15 0.135843 0.135843 0.181321
O O16 0.334840 0.138668 0.227452
O O17 0.348673 0.860000 0.937130
O O18 0.351913 0.937467 0.829210
O O19 0.500000 0.000000 0.906195
O O20 0.774625 0.774625 0.518091
O O21 0.000000 0.500000 0.250618
#
# Coordination Sequence:
#
# PCOD8306836 Si02
#       8
#     8   8   8   8   8   8   8   8
#     4  10  20  34  55  86 120 149 182 230 288 345
#     4   9  19  35  57  87 117 143 179 235 294 343
#     4  10  20  36  58  86 117 149 189 235 288 345
#     4  10  20  34  56  79 115 153 195 232 272 332
#     4  10  18  31  54  82 113 151 188 222 277 345
#     4  10  21  40  60  80 110 150 194 235 281 339
#     4  11  24  39  57  85 114 149 194 240 286 332
#     4  10  20  34  57  85 114 146 188 231 280 338
#
# _framework density 19.247671
#
# number of rings (size 3 to 8) (size 9 to 14) (size 15 to 20)
#    0.000    2.000    1.250    3.000    1.750    3.750 
#    0.000    5.625    0.000    2.625    0.000    0.000 
#    0.000    0.000    0.000    0.000    0.000    0.000 
#
# Total GULP energy -793516.333827 kJ/mol
# GULP energy per Si atom -12398.692716 kJ/mol
# Density = 1.920386 g / cm^3
# Si number density = 19.247671 Si / 1000 Ang^3
#
#
#
# Elastic Constant Matrix: (Units=GPa)
#
#
# Indices 1 2 3 4 5 6 
#
# 1 82.6734 30.2206 29.5369 0.0000 0.0000 0.0002
# 2 30.2206 82.6734 29.5369 0.0000 0.0000 -0.0002
# 3 29.5369 29.5369 91.3087 0.0000 0.0000 0.0000
# 4 0.0000 0.0000 0.0000 22.5916 0.0000 0.0000
# 5 0.0000 0.0000 0.0000 0.0000 22.5916 0.0000
# 6 0.0002 -0.0002 0.0000 0.0000 0.0000 20.6165
#
#
#
# Elastic Compliance Matrix: (Units=1/GPa)
#
#
# Indices 1 2 3 4 5 6 
#
# 1 0.014864 -0.004201 -0.003449 0.000000 0.000000 0.000000
# 2 -0.004201 0.014864 -0.003449 0.000000 0.000000 0.000000
# 3 -0.003449 -0.003449 0.013183 0.000000 0.000000 0.000000
# 4 0.000000 0.000000 0.000000 0.044264 0.000000 0.000000
# 5 0.000000 0.000000 0.000000 0.000000 0.044264 0.000000
# 6 0.000000 0.000000 0.000000 0.000000 0.000000 0.048505
#
#
# Mechanical properties :
#
#
# Convention : Reuss Voigt Hill
#
# Bulk Modulus (GPa) = 48.28124 48.36046 48.32085
# Shear Modulus (GPa) = 23.91807 24.31736 24.11772
#
# Velocity S-wave (km/s) = 3.52894 3.55828 3.54364
# Velocity P-wave (km/s) = 6.46090 6.48550 6.47321
#
# Compressibility (1/GPa) = 0.02071198
#
# Stress axis : x y z
#
# Youngs Moduli (GPa) = 67.27777 67.27777 75.85302
#
# Poissons Ratio (x) = 0.28263 0.26163
# Poissons Ratio (y) = 0.28263 0.26163
# Poissons Ratio (z) = 0.23206 0.23206
#
# Static dielectric constant tensor:
#      x y z
#    x 3.484790 0.000000 0.000000 
#    y 0.000000 3.484790 0.000000 
#    z 0.000000 0.000000 3.485900 
# 
# 
# High freq. dielectric constant tensor:
#      x y z
#    x 1.737900 0.000000 0.000000 
#    y 0.000000 1.737900 0.000000 
#    z 0.000000 0.000000 1.745190 
# 
# From -- ./inp_files/3453.got.cif
#   From: 2010.03.12/outbox.cif.g09.slc.cpg/sg102_2_cif.got.tgz:3453.got - 2010.04.14 01:40:42.
