data_PCOD8306758
_publ_section_title
;
Structure prediction by ZEFSAII (Michael W. Deem and Ramdas Pophale) SiO2 
 PCOD8306758
Probable space group: P 42 C M
;
_chemical_formula_sum "Si O2"
_cell_formula_units_Z 64
_cell_length_a 13.855077
_cell_length_b 13.855077
_cell_length_c 20.266901
_cell_angle_alpha 90.000000
_cell_angle_beta 90.000000
_cell_angle_gamma 90.000000
_cell_volume 3890.498333
_symmetry_space_group_name_H-M "P 42 C M"
_symmetry_group_IT_number 101
_symmetry_cell_setting 'tetragonal'
loop_
_space_group_symop_operation_xyz
x,y,z
-y,x,1/2+z
-x,-y,z
y,-x,1/2+z
-x,y,1/2+z
x,-y,1/2+z
-y,-x,z
y,x,z
loop_
_atom_site_type_symbol
_atom_site_label
_atom_site_fract_x
_atom_site_fract_y
_atom_site_fract_z
Si Si1 0.112720 0.390754 0.028150
Si Si2 0.230208 0.387569 0.756764
Si Si3 0.609931 0.235896 0.906020
Si Si4 0.390753 0.887282 0.028149
Si Si5 0.113987 0.728967 0.655140
Si Si6 0.886014 0.271033 0.155140
Si Si7 0.612431 0.230208 0.756763
Si Si8 0.609930 0.235898 0.406020
O O1 0.145091 0.500001 0.045826
O O2 0.145302 0.320076 0.086482
O O3 0.000001 0.385595 0.017503
O O4 0.157626 0.354888 0.959220
O O5 0.330264 0.330264 0.743230
O O6 0.144142 0.344421 0.712948
O O7 0.247541 0.500000 0.739837
O O8 0.195471 0.373466 0.832261
O O9 0.665789 0.334212 0.917995
O O10 0.626536 0.195472 0.832261
O O11 0.500001 0.263602 0.917624
O O12 0.645112 0.157623 0.959219
O O13 0.320075 0.854700 0.086482
O O14 0.169184 0.830817 0.662081
O O15 0.144143 0.655579 0.712948
O O16 0.000000 0.748550 0.659462
O O17 0.830816 0.169185 0.162081
O O18 0.669736 0.330265 0.743229
O O19 0.665786 0.334215 0.417993
#
# Coordination Sequence:
#
# PCOD8306758 Si02
#       8
#     8   8   8   8   8   8   8   8
#     4   9  17  29  46  68  91 116 148 185 225 267
#     4   9  18  31  47  69  95 123 155 188 224 267
#     4   9  17  29  45  66  93 122 150 181 216 258
#     4   9  17  29  46  68  91 116 148 185 225 267
#     4  10  20  33  49  68  90 118 152 191 234 277
#     4  10  20  33  49  68  90 118 152 191 234 277
#     4   9  18  31  47  69  95 123 155 188 224 267
#     4   9  17  29  45  66  93 122 150 181 216 258
#
# _framework density 16.450336
#
# number of rings (size 3 to 8) (size 9 to 14) (size 15 to 20)
#    0.000    2.750    0.000    1.500    0.000    3.250 
#    0.000    5.000    0.000    0.000    0.000    3.500 
#    0.000    6.000    0.000    0.000    0.000    0.000 
#
# Total GULP energy -793472.246186 kJ/mol
# GULP energy per Si atom -12398.003847 kJ/mol
# Density = 1.641289 g / cm^3
# Si number density = 16.450336 Si / 1000 Ang^3
#
#
#
# Elastic Constant Matrix: (Units=GPa)
#
#
# Indices 1 2 3 4 5 6 
#
# 1 77.8908 44.6870 55.1643 0.0000 0.0000 0.0002
# 2 44.6870 77.8908 55.1643 0.0000 0.0000 -0.0002
# 3 55.1643 55.1643 114.5338 0.0000 0.0000 0.0000
# 4 0.0000 0.0000 0.0000 27.0489 0.0000 0.0000
# 5 0.0000 0.0000 0.0000 0.0000 27.0489 0.0000
# 6 0.0002 -0.0002 0.0000 0.0000 0.0000 20.0471
#
#
#
# Elastic Compliance Matrix: (Units=1/GPa)
#
#
# Indices 1 2 3 4 5 6 
#
# 1 0.022259 -0.007858 -0.006936 0.000000 0.000000 0.000000
# 2 -0.007858 0.022259 -0.006936 0.000000 0.000000 0.000000
# 3 -0.006936 -0.006936 0.015413 0.000000 0.000000 0.000000
# 4 0.000000 0.000000 0.000000 0.036970 0.000000 0.000000
# 5 0.000000 0.000000 0.000000 0.000000 0.036970 0.000000
# 6 0.000000 0.000000 0.000000 0.000000 0.000000 0.049883
#
#
# Mechanical properties :
#
#
# Convention : Reuss Voigt Hill
#
# Bulk Modulus (GPa) = 60.71615 64.48294 62.59954
# Shear Modulus (GPa) = 21.48650 22.51563 22.00107
#
# Velocity S-wave (km/s) = 3.61798 3.70361 3.66105
# Velocity P-wave (km/s) = 7.37848 7.58766 7.48380
#
# Compressibility (1/GPa) = 0.01647008
#
# Stress axis : x y z
#
# Youngs Moduli (GPa) = 44.92547 44.92547 64.88203
#
# Poissons Ratio (x) = 0.35302 0.45004
# Poissons Ratio (y) = 0.35302 0.45004
# Poissons Ratio (z) = 0.31161 0.31161
#
# Static dielectric constant tensor:
#      x y z
#    x 3.009710 0.000000 0.000000 
#    y 0.000000 3.009710 0.000000 
#    z 0.000000 0.000000 3.348200 
# 
# 
# High freq. dielectric constant tensor:
#      x y z
#    x 1.624420 0.000000 0.000000 
#    y 0.000000 1.624420 0.000000 
#    z 0.000000 0.000000 1.646510 
# 
# From -- ./inp_files/2288.got.cif
#   From: 2010.03.12/outbox.cif.g09.slc.cpg/sg101_2_cif.got.tgz:2288.got - 2010.04.14 01:38:52.
