data_PCOD8306803
_publ_section_title
;
Structure prediction by ZEFSAII (Michael W. Deem and Ramdas Pophale) SiO2 
 PCOD8306803
Probable space group: P 42 C M
;
_chemical_formula_sum "Si O2"
_cell_formula_units_Z 40
_cell_length_a 17.711840
_cell_length_b 17.711840
_cell_length_c 7.418216
_cell_angle_alpha 90.000000
_cell_angle_beta 90.000000
_cell_angle_gamma 90.000000
_cell_volume 2327.163172
_symmetry_space_group_name_H-M "P 42 C M"
_symmetry_group_IT_number 101
_symmetry_cell_setting 'tetragonal'
loop_
_space_group_symop_operation_xyz
x,y,z
-y,x,1/2+z
-x,-y,z
y,-x,1/2+z
-x,y,1/2+z
x,-y,1/2+z
-y,-x,z
y,x,z
loop_
_atom_site_type_symbol
_atom_site_label
_atom_site_fract_x
_atom_site_fract_y
_atom_site_fract_z
Si Si1 0.936585 0.413250 0.611950
Si Si2 0.198117 0.081287 0.880525
Si Si3 0.251821 0.920999 0.769722
Si Si4 0.897865 0.567476 0.710615
Si Si5 0.173854 0.289914 0.599944
O O1 0.937692 0.338719 0.731083
O O2 0.882751 0.476839 0.709013
O O3 0.905421 0.400596 0.411794
O O4 0.025249 0.431700 0.593886
O O5 0.114786 0.114786 0.829320
O O6 0.261048 0.121043 0.760234
O O7 0.206075 0.991745 0.854914
O O8 0.210925 0.104029 0.088100
O O9 0.252174 0.854488 0.915004
O O10 0.833716 0.618510 0.609661
O O11 0.260425 0.260425 0.626199
#
# Coordination Sequence:
#
# PCOD8306803 Si02
#       5
#     8   8   8   8   8
#     4  11  19  29  49  72  99 128 159 209 245 294
#     4  11  22  34  52  72  95 128 169 214 261 314
#     4  12  19  37  53  73  95 126 172 212 261 305
#     4  11  19  31  46  73 102 127 164 199 249 299
#     4  11  22  35  52  72  98 131 166 209 258 308
#
# _framework density 17.188307999999999
#
# number of rings (size 3 to 8) (size 9 to 14) (size 15 to 20)
#    0.000    0.800    6.000    5.400    0.000    0.000 
#    0.000    0.000    0.000    4.800    0.000    0.000 
#    0.000    0.000    0.000    0.000    0.000   65.000 
#
# Total GULP energy -495562.979612 kJ/mol
# GULP energy per Si atom -12389.074490 kJ/mol
# Density = 1.714919 g / cm^3
# Si number density = 17.188308 Si / 1000 Ang^3
#
#
#
# Elastic Constant Matrix: (Units=GPa)
#
#
# Indices 1 2 3 4 5 6 
#
# 1 81.9937 16.0776 6.0375 0.0000 0.0000 0.0000
# 2 16.0776 81.9937 6.0375 0.0000 0.0000 0.0000
# 3 6.0375 6.0375 86.8985 0.0000 0.0000 0.0000
# 4 0.0000 0.0000 0.0000 -19.5824 0.0000 0.0000
# 5 0.0000 0.0000 0.0000 0.0000 -19.5824 0.0000
# 6 0.0000 0.0000 0.0000 0.0000 0.0000 25.4426
#
#
#
# Elastic Compliance Matrix: (Units=1/GPa)
#
#
# Indices 1 2 3 4 5 6 
#
# 1 0.012728 -0.002443 -0.000715 0.000000 0.000000 0.000000
# 2 -0.002443 0.012728 -0.000715 0.000000 0.000000 0.000000
# 3 -0.000715 -0.000715 0.011607 0.000000 0.000000 0.000000
# 4 0.000000 0.000000 0.000000 -0.051066 0.000000 0.000000
# 5 0.000000 0.000000 0.000000 0.000000 -0.051066 0.000000
# 6 0.000000 0.000000 0.000000 0.000000 0.000000 0.039304
#
#
# Mechanical properties :
#
#
# Convention : Reuss Voigt Hill
#
# Bulk Modulus (GPa) = 34.10871 34.13236 34.12053
# Shear Modulus (GPa) = -606.14753 12.10444 -297.02155
#
# Velocity S-wave (km/s) = -18.79938 2.65660 -13.15977
# Velocity P-wave (km/s) = 21.24465 5.41397 14.52625
#
# Compressibility (1/GPa) = 0.02931803
#
# Stress axis : x y z
#
# Youngs Moduli (GPa) = 78.56867 78.56867 86.15508
#
# Poissons Ratio (x) = 0.19195 0.06156
# Poissons Ratio (y) = 0.19195 0.06156
# Poissons Ratio (z) = 0.05614 0.05614
#
# Static dielectric constant tensor:
#      x y z
#    x 4.090190 0.000000 0.000000 
#    y 0.000000 4.090190 0.000000 
#    z 0.000000 0.000000 3.400560 
# 
# 
# High freq. dielectric constant tensor:
#      x y z
#    x 1.628060 0.000000 0.000000 
#    y 0.000000 1.628060 0.000000 
#    z 0.000000 0.000000 1.689730 
# 
# From -- ./inp_files/651.got.cif
#   From: 2010.03.12/outbox.cif.g09.slc.cpg/sg101_1_cif.got.tgz:651.got - 2010.04.14 01:38:52.
