data_PCOD8306563
_publ_section_title
;
Structure prediction by ZEFSAII (Michael W. Deem and Ramdas Pophale) SiO2 
 PCOD8306563
Probable space group: P 4 M M
;
_chemical_formula_sum "Si O2"
_cell_formula_units_Z 56
_cell_length_a 13.971748
_cell_length_b 13.971748
_cell_length_c 17.842092
_cell_angle_alpha 90.000000
_cell_angle_beta 90.000000
_cell_angle_gamma 90.000000
_cell_volume 3482.950179
_symmetry_space_group_name_H-M "P 4 M M"
_symmetry_group_IT_number 99
_symmetry_cell_setting 'tetragonal'
loop_
_space_group_symop_operation_xyz
x,y,z
-y,x,z
-x,-y,z
y,-x,z
-x,y,z
x,-y,z
-y,-x,z
y,x,z
loop_
_atom_site_type_symbol
_atom_site_label
_atom_site_fract_x
_atom_site_fract_y
_atom_site_fract_z
Si Si1 0.729003 0.113996 0.399990
Si Si2 0.263055 0.109894 0.846016
Si Si3 0.887039 0.606368 0.542448
Si Si4 0.768211 0.611786 0.286344
Si Si5 0.238454 0.609057 0.116111
Si Si6 0.610794 0.110312 0.981721
Si Si7 0.733832 0.110480 0.677941
O O1 0.830645 0.169356 0.395077
O O2 0.676153 0.146343 0.476070
O O3 0.658466 0.145498 0.333115
O O4 0.747909 0.000000 0.395649
O O5 0.163134 0.163134 0.855484
O O6 0.305567 0.125644 0.762444
O O7 0.239801 0.000000 0.860779
O O8 0.337747 0.149642 0.907060
O O9 0.841165 0.500000 0.534115
O O10 0.853992 0.651137 0.621641
O O11 0.000000 0.596203 0.539742
O O12 0.753402 0.500000 0.307664
O O13 0.668443 0.668443 0.301405
O O14 0.801262 0.622799 0.200127
O O15 0.262093 0.500000 0.099012
O O16 0.337663 0.662338 0.104694
O O17 0.161807 0.649166 0.056586
O O18 0.500000 0.129974 0.968521
O O19 0.633489 0.000000 0.994492
O O20 0.830315 0.169686 0.663608
O O21 0.760476 0.000000 0.662672
#
# Coordination Sequence:
#
# PCOD8306563 Si02
#       7
#     8   8   8   8   8   8   8
#     4  10  20  33  49  69  93 121 153 188 226 269
#     4   9  17  28  42  60  83 112 144 179 218 259
#     4   9  17  29  45  64  86 113 143 175 213 255
#     4   9  18  31  47  69  94 120 152 187 225 271
#     4   9  17  29  45  65  89 115 143 178 219 263
#     4   9  17  28  42  61  84 111 144 180 219 263
#     4   9  17  28  42  62  87 114 145 179 216 261
#
# _framework density 16.078323000000001
#
# number of rings (size 3 to 8) (size 9 to 14) (size 15 to 20)
#    0.000    2.857    0.000    1.286    0.000    2.714 
#    0.000    7.143    0.000    2.571    0.000    0.000 
#    0.000    6.000    0.000   10.571    0.000    1.143 
#
# Total GULP energy -694179.535874 kJ/mol
# GULP energy per Si atom -12396.063141 kJ/mol
# Density = 1.604173 g / cm^3
# Si number density = 16.078323 Si / 1000 Ang^3
#
#
#
# Elastic Constant Matrix: (Units=GPa)
#
#
# Indices 1 2 3 4 5 6 
#
# 1 76.4495 41.8314 53.8924 0.0000 0.0000 -0.0002
# 2 41.8314 76.4495 53.8924 0.0000 0.0000 0.0002
# 3 53.8924 53.8924 120.7576 0.0000 0.0000 0.0000
# 4 0.0000 0.0000 0.0000 25.7496 0.0000 0.0000
# 5 0.0000 0.0000 0.0000 0.0000 25.7496 0.0000
# 6 -0.0002 0.0002 0.0000 0.0000 0.0000 17.7685
#
#
#
# Elastic Compliance Matrix: (Units=1/GPa)
#
#
# Indices 1 2 3 4 5 6 
#
# 1 0.021568 -0.007319 -0.006359 0.000000 0.000000 0.000000
# 2 -0.007319 0.021568 -0.006359 0.000000 0.000000 0.000000
# 3 -0.006359 -0.006359 0.013957 0.000000 0.000000 0.000000
# 4 0.000000 0.000000 0.000000 0.038836 0.000000 0.000000
# 5 0.000000 0.000000 0.000000 0.000000 0.038836 0.000000
# 6 0.000000 0.000000 0.000000 0.000000 0.000000 0.056279
#
#
# Mechanical properties :
#
#
# Convention : Reuss Voigt Hill
#
# Bulk Modulus (GPa) = 58.75852 63.65431 61.20642
# Shear Modulus (GPa) = 21.11565 22.12290 21.61928
#
# Velocity S-wave (km/s) = 3.62788 3.71340 3.67089
# Velocity P-wave (km/s) = 7.36024 7.61983 7.49116
#
# Compressibility (1/GPa) = 0.01701881
#
# Stress axis : x y z
#
# Youngs Moduli (GPa) = 46.36488 46.36488 71.64755
#
# Poissons Ratio (x) = 0.33933 0.45563
# Poissons Ratio (y) = 0.33933 0.45563
# Poissons Ratio (z) = 0.29485 0.29485
#
# Static dielectric constant tensor:
#      x y z
#    x 2.972140 0.000000 0.000000 
#    y 0.000000 2.972140 0.000000 
#    z 0.000000 0.000000 3.363340 
# 
# 
# High freq. dielectric constant tensor:
#      x y z
#    x 1.603530 0.000000 0.000000 
#    y 0.000000 1.603530 0.000000 
#    z 0.000000 0.000000 1.633630 
# 
# From -- ./inp_files/1768.got.cif
#   From: 2010.03.12/outbox.cif.g09.slc.cpg/sg99_cif.got.tgz:1768.got - 2010.04.08 21:11:30.
