data_PCOD8306989
_publ_section_title
;
Structure prediction by ZEFSAII (Michael W. Deem and Ramdas Pophale) SiO2 
 PCOD8306989
Probable space group: P 4 C C
;
_chemical_formula_sum "Si O2"
_cell_formula_units_Z 52
_cell_length_a 16.206872
_cell_length_b 16.206872
_cell_length_c 9.461886
_cell_angle_alpha 90.000000
_cell_angle_beta 90.000000
_cell_angle_gamma 90.000000
_cell_volume 2485.284524
_symmetry_space_group_name_H-M "P 4 C C"
_symmetry_group_IT_number 103
_symmetry_cell_setting 'tetragonal'
loop_
_space_group_symop_operation_xyz
x,y,z
-y,x,z
-x,-y,z
y,-x,z
-x,y,1/2+z
x,-y,1/2+z
-y,-x,1/2+z
y,x,1/2+z
loop_
_atom_site_type_symbol
_atom_site_label
_atom_site_fract_x
_atom_site_fract_y
_atom_site_fract_z
Si Si1 0.054759 0.672325 0.206100
Si Si2 0.884191 0.255201 0.725023
Si Si3 0.608162 0.134120 0.436284
Si Si4 0.587527 0.600352 0.714348
Si Si5 0.000000 0.500000 0.826390
Si Si6 0.354474 0.690417 0.471783
Si Si7 0.243480 0.821203 0.910503
O O1 0.023428 0.579143 0.233027
O O2 0.119622 0.695222 0.326321
O O3 0.983703 0.742531 0.213944
O O4 0.093894 0.672132 0.049555
O O5 0.859994 0.345883 0.784374
O O6 0.846135 0.186138 0.832148
O O7 0.849213 0.234028 0.571190
O O8 0.525351 0.078954 0.423426
O O9 0.587803 0.227349 0.485622
O O10 0.492375 0.614678 0.679075
O O11 0.646844 0.659232 0.622473
O O12 0.600019 0.622448 0.877266
O O13 0.267528 0.714255 0.405587
#
# Coordination Sequence:
#
# PCOD8306989 Si02
#       7
#     8   8   8   8   4   8   8
#     4  11  22  39  62  90 127 167 206 257 322 392
#     4  10  21  38  60  87 121 161 200 247 309 376
#     4  10  21  38  58  88 125 162 206 254 319 399
#     4  11  24  41  58  80 116 163 216 274 326 365
#     4  10  22  36  58  92 132 168 202 258 328 398
#     4  11  22  39  62  88 116 157 213 264 316 375
#     4  11  22  39  63  90 122 159 208 259 311 388
#
# _framework density 20.923158000000001
#
# number of rings (size 3 to 8) (size 9 to 14) (size 15 to 20)
#    0.000    1.385    0.000    7.846    0.000    6.154 
#    0.000    1.538    0.000    0.462    0.000    4.308 
#    0.000    0.000    0.000    0.000    0.000    0.000 
#
# Total GULP energy -644569.389503 kJ/mol
# GULP energy per Si atom -12395.565183 kJ/mol
# Density = 2.087554 g / cm^3
# Si number density = 20.923158 Si / 1000 Ang^3
#
#
#
# Elastic Constant Matrix: (Units=GPa)
#
#
# Indices 1 2 3 4 5 6 
#
# 1 94.5774 54.1516 43.2554 0.0000 0.0000 0.0000
# 2 54.1516 94.5774 43.2554 0.0000 0.0000 0.0000
# 3 43.2554 43.2554 127.8783 0.0000 0.0000 0.0000
# 4 0.0000 0.0000 0.0000 27.2935 0.0000 0.0000
# 5 0.0000 0.0000 0.0000 0.0000 27.2935 0.0000
# 6 0.0000 0.0000 0.0000 0.0000 0.0000 30.7136
#
#
#
# Elastic Compliance Matrix: (Units=1/GPa)
#
#
# Indices 1 2 3 4 5 6 
#
# 1 0.016554 -0.008183 -0.002831 0.000000 0.000000 0.000000
# 2 -0.008183 0.016554 -0.002831 0.000000 0.000000 0.000000
# 3 -0.002831 -0.002831 0.009735 0.000000 0.000000 0.000000
# 4 0.000000 0.000000 0.000000 0.036639 0.000000 0.000000
# 5 0.000000 0.000000 0.000000 0.000000 0.036639 0.000000
# 6 0.000000 0.000000 0.000000 0.000000 0.000000 0.032559
#
#
# Mechanical properties :
#
#
# Convention : Reuss Voigt Hill
#
# Bulk Modulus (GPa) = 66.00228 66.48421 66.24324
# Shear Modulus (GPa) = 27.56021 28.81816 28.18919
#
# Velocity S-wave (km/s) = 3.63328 3.71527 3.67450
# Velocity P-wave (km/s) = 7.01530 7.08863 7.05206
#
# Compressibility (1/GPa) = 0.01515099
#
# Stress axis : x y z
#
# Youngs Moduli (GPa) = 60.40980 60.40980 102.71799
#
# Poissons Ratio (x) = 0.49434 0.29083
# Poissons Ratio (y) = 0.49434 0.29083
# Poissons Ratio (z) = 0.17104 0.17104
#
# Static dielectric constant tensor:
#      x y z
#    x 3.831990 0.000000 0.000000 
#    y 0.000000 3.831990 0.000000 
#    z 0.000000 0.000000 3.832370 
# 
# 
# High freq. dielectric constant tensor:
#      x y z
#    x 1.806920 0.000000 0.000000 
#    y 0.000000 1.806920 0.000000 
#    z 0.000000 0.000000 1.834250 
# 
# From -- ./inp_files/307.got.cif
#   From: 2010.03.12/outbox.cif.g09.slc.cpg/sg103_cif.got.tgz:307.got - 2010.04.14 01:42:52.
