data_PCOD8306486
_publ_section_title
;
Structure prediction by ZEFSAII (Michael W. Deem and Ramdas Pophale) SiO2 
 PCOD8306486
Probable space group: P 4 M M
;
_chemical_formula_sum "Si O2"
_cell_formula_units_Z 64
_cell_length_a 13.724458
_cell_length_b 13.724458
_cell_length_c 20.593201
_cell_angle_alpha 90.000000
_cell_angle_beta 90.000000
_cell_angle_gamma 90.000000
_cell_volume 3878.950732
_symmetry_space_group_name_H-M "P 4 M M"
_symmetry_group_IT_number 99
_symmetry_cell_setting 'tetragonal'
loop_
_space_group_symop_operation_xyz
x,y,z
-y,x,z
-x,-y,z
y,-x,z
-x,y,z
x,-y,z
-y,-x,z
y,x,z
loop_
_atom_site_type_symbol
_atom_site_label
_atom_site_fract_x
_atom_site_fract_y
_atom_site_fract_z
Si Si1 0.115369 0.391187 0.607390
Si Si2 0.884741 0.727383 0.733173
Si Si3 0.766423 0.611211 0.236026
Si Si4 0.270921 0.884930 0.482842
Si Si5 0.886009 0.389195 0.357656
Si Si6 0.390960 0.115219 0.859224
Si Si7 0.885064 0.273792 0.985544
Si Si8 0.613436 0.772479 0.089706
O O1 0.160556 0.500000 0.609736
O O2 0.150252 0.330427 0.669564
O O3 0.150568 0.338105 0.542179
O O4 0.000000 0.399199 0.607886
O O5 0.831579 0.831579 0.735476
O O6 0.850641 0.662871 0.794100
O O7 0.000000 0.748169 0.733598
O O8 0.741064 0.500000 0.248257
O O9 0.665201 0.665201 0.245099
O O10 0.842276 0.649382 0.289797
O O11 0.809138 0.627671 0.163794
O O12 0.166255 0.833746 0.487800
O O13 0.323187 0.850080 0.417028
O O14 0.252519 0.000000 0.484865
O O15 0.854547 0.500000 0.372537
O O16 0.000000 0.380763 0.349494
O O17 0.500000 0.160654 0.861468
O O18 0.328930 0.150518 0.920820
O O19 0.399621 0.000000 0.860156
O O20 0.829165 0.170836 0.990503
O O21 0.000000 0.251994 0.985647
O O22 0.858690 0.343640 0.045666
O O23 0.500000 0.754052 0.073519
O O24 0.671562 0.671562 0.077017
#
# Coordination Sequence:
#
# PCOD8306486 Si02
#       8
#     8   8   8   8   8   8   8   8
#     4   9  17  30  47  65  86 113 146 186 228 264
#     4  10  19  30  45  67  96 127 157 188 223 268
#     4   9  17  29  45  66  92 119 148 184 226 275
#     4  10  19  30  45  65  90 119 148 179 217 264
#     4   9  17  29  45  65  88 115 149 189 229 264
#     4   9  17  30  48  68  90 118 152 191 232 268
#     4  10  20  33  49  70  96 125 157 193 233 280
#     4   9  18  31  47  69  95 123 156 193 235 282
#
# _framework density 16.499307999999999
#
# number of rings (size 3 to 8) (size 9 to 14) (size 15 to 20)
#    0.000    2.625    0.000    2.250    0.000    4.875 
#    0.000    2.500    0.000    4.500    0.000    0.000 
#    0.000   30.750    0.000    0.000    0.000    0.000 
#
# Total GULP energy -793499.069652 kJ/mol
# GULP energy per Si atom -12398.422963 kJ/mol
# Density = 1.646175 g / cm^3
# Si number density = 16.499308 Si / 1000 Ang^3
#
#
#
# Elastic Constant Matrix: (Units=GPa)
#
#
# Indices 1 2 3 4 5 6 
#
# 1 75.9539 43.3047 49.5840 0.0000 0.0000 0.0001
# 2 43.3047 75.9539 49.5840 0.0000 0.0000 -0.0001
# 3 49.5840 49.5840 137.3335 0.0000 0.0000 0.0000
# 4 0.0000 0.0000 0.0000 22.6934 0.0000 0.0000
# 5 0.0000 0.0000 0.0000 0.0000 22.6934 0.0000
# 6 0.0001 -0.0001 0.0000 0.0000 0.0000 17.5934
#
#
#
# Elastic Compliance Matrix: (Units=1/GPa)
#
#
# Indices 1 2 3 4 5 6 
#
# 1 0.021306 -0.009323 -0.004326 0.000000 0.000000 0.000000
# 2 -0.009323 0.021306 -0.004326 0.000000 0.000000 0.000000
# 3 -0.004326 -0.004326 0.010406 0.000000 0.000000 0.000000
# 4 0.000000 0.000000 0.000000 0.044066 0.000000 0.000000
# 5 0.000000 0.000000 0.000000 0.000000 0.044066 0.000000
# 6 0.000000 0.000000 0.000000 0.000000 0.000000 0.056839
#
#
# Mechanical properties :
#
#
# Convention : Reuss Voigt Hill
#
# Bulk Modulus (GPa) = 58.59748 63.79854 61.19801
# Shear Modulus (GPa) = 20.86573 22.38061 21.62317
#
# Velocity S-wave (km/s) = 3.56004 3.68701 3.62408
# Velocity P-wave (km/s) = 7.24505 7.54166 7.39484
#
# Compressibility (1/GPa) = 0.01706558
#
# Stress axis : x y z
#
# Youngs Moduli (GPa) = 46.93591 46.93591 96.10253
#
# Poissons Ratio (x) = 0.43758 0.41577
# Poissons Ratio (y) = 0.43758 0.41577
# Poissons Ratio (z) = 0.20306 0.20306
#
# Static dielectric constant tensor:
#      x y z
#    x 2.968180 0.000000 0.000000 
#    y 0.000000 2.968180 0.000000 
#    z 0.000000 0.000000 3.424030 
# 
# 
# High freq. dielectric constant tensor:
#      x y z
#    x 1.617760 0.000000 0.000000 
#    y 0.000000 1.617760 0.000000 
#    z 0.000000 0.000000 1.655380 
# 
# From -- ./inp_files/2042.got.cif
#   From: 2010.03.12/outbox.cif.g09.slc.cpg/sg99_cif.got.tgz:2042.got - 2010.04.08 21:11:30.
