data_PCOD8306484
_publ_section_title
;
Structure prediction by ZEFSAII (Michael W. Deem and Ramdas Pophale) SiO2 
 PCOD8306484
Probable space group: P 4 M M
;
_chemical_formula_sum "Si O2"
_cell_formula_units_Z 56
_cell_length_a 13.815334
_cell_length_b 13.815334
_cell_length_c 18.163582
_cell_angle_alpha 90.000000
_cell_angle_beta 90.000000
_cell_angle_gamma 90.000000
_cell_volume 3466.763989
_symmetry_space_group_name_H-M "P 4 M M"
_symmetry_group_IT_number 99
_symmetry_cell_setting 'tetragonal'
loop_
_space_group_symop_operation_xyz
x,y,z
-y,x,z
-x,-y,z
y,-x,z
-x,y,z
x,-y,z
-y,-x,z
y,x,z
loop_
_atom_site_type_symbol
_atom_site_label
_atom_site_fract_x
_atom_site_fract_y
_atom_site_fract_z
Si Si1 0.771237 0.387172 0.334590
Si Si2 0.888421 0.610188 0.753356
Si Si3 0.774058 0.386089 0.015046
Si Si4 0.231372 0.613479 0.609938
Si Si5 0.886671 0.271525 0.897786
Si Si6 0.892682 0.385127 0.472216
Si Si7 0.763571 0.609004 0.175382
O O1 0.746455 0.500000 0.347179
O O2 0.671702 0.328299 0.343299
O O3 0.847149 0.350027 0.395096
O O4 0.819681 0.369314 0.252752
O O5 0.865404 0.500000 0.777125
O O6 0.826485 0.641282 0.683213
O O7 0.860899 0.680398 0.819944
O O8 0.000000 0.620852 0.730917
O O9 0.754059 0.500000 0.000256
O O10 0.673845 0.326156 0.003542
O O11 0.818174 0.368364 0.098075
O O12 0.856235 0.347351 0.960626
O O13 0.251573 0.500000 0.604156
O O14 0.334763 0.665238 0.611105
O O15 0.170585 0.652527 0.540441
O O16 0.829010 0.170991 0.905698
O O17 0.000000 0.248856 0.905481
O O18 0.898895 0.500000 0.475158
O O19 0.000000 0.340155 0.478108
O O20 0.729502 0.500000 0.174818
O O21 0.663489 0.663489 0.176442
#
# Coordination Sequence:
#
# PCOD8306484 Si02
#       7
#     8   8   8   8   8   8   8
#     4   9  16  26  41  62  89 118 145 174 210 255
#     4   9  17  30  49  71  92 115 145 179 214 255
#     4   9  17  29  45  66  92 121 153 187 223 266
#     4  10  19  30  45  65  90 118 145 174 209 252
#     4  10  20  33  49  68  90 117 150 190 234 276
#     4   9  17  29  43  58  79 109 145 183 218 248
#     4   8  14  24  38  58  86 118 148 178 211 250
#
# _framework density 16.153393000000001
#
# number of rings (size 3 to 8) (size 9 to 14) (size 15 to 20)
#    0.000    2.857    0.000    1.714    0.000    3.286 
#    0.000    3.571    0.000    5.143    0.000    2.000 
#    0.000   12.571    0.000    0.000    0.000    0.000 
#
# Total GULP energy -693886.827773 kJ/mol
# GULP energy per Si atom -12390.836210 kJ/mol
# Density = 1.611663 g / cm^3
# Si number density = 16.153393 Si / 1000 Ang^3
#
#
#
# Elastic Constant Matrix: (Units=GPa)
#
#
# Indices 1 2 3 4 5 6 
#
# 1 70.1264 37.5088 53.2139 0.0000 0.0000 -0.0002
# 2 37.5088 70.1264 53.2139 0.0000 0.0000 0.0002
# 3 53.2139 53.2139 143.3679 0.0000 0.0000 0.0000
# 4 0.0000 0.0000 0.0000 21.2970 0.0000 0.0000
# 5 0.0000 0.0000 0.0000 0.0000 21.2970 0.0000
# 6 -0.0002 0.0002 0.0000 0.0000 0.0000 14.6441
#
#
#
# Elastic Compliance Matrix: (Units=1/GPa)
#
#
# Indices 1 2 3 4 5 6 
#
# 1 0.022668 -0.007991 -0.005448 0.000000 0.000000 0.000000
# 2 -0.007991 0.022668 -0.005448 0.000000 0.000000 0.000000
# 3 -0.005448 -0.005448 0.011019 0.000000 0.000000 0.000000
# 4 0.000000 0.000000 0.000000 0.046955 0.000000 0.000000
# 5 0.000000 0.000000 0.000000 0.000000 0.046955 0.000000
# 6 0.000000 0.000000 0.000000 0.000000 0.000000 0.068287
#
#
# Mechanical properties :
#
#
# Convention : Reuss Voigt Hill
#
# Bulk Modulus (GPa) = 53.81359 63.49932 58.65645
# Shear Modulus (GPa) = 19.04630 20.75988 19.90309
#
# Velocity S-wave (km/s) = 3.43751 3.58882 3.51398
# Velocity P-wave (km/s) = 7.01012 7.52119 7.27015
#
# Compressibility (1/GPa) = 0.01858267
#
# Stress axis : x y z
#
# Youngs Moduli (GPa) = 44.11535 44.11535 90.75093
#
# Poissons Ratio (x) = 0.35251 0.49439
# Poissons Ratio (y) = 0.35251 0.49439
# Poissons Ratio (z) = 0.24033 0.24033
#
# Static dielectric constant tensor:
#      x y z
#    x 2.849750 0.000000 0.000000 
#    y 0.000000 2.849750 0.000000 
#    z 0.000000 0.000000 3.521320 
# 
# 
# High freq. dielectric constant tensor:
#      x y z
#    x 1.595570 0.000000 0.000000 
#    y 0.000000 1.595570 0.000000 
#    z 0.000000 0.000000 1.647340 
# 
# From -- ./inp_files/2154.got.cif
#   From: 2010.03.12/outbox.cif.g09.slc.cpg/sg99_cif.got.tgz:2154.got - 2010.04.08 21:11:30.
