data_PCOD8306788
_publ_section_title
;
Structure prediction by ZEFSAII (Michael W. Deem and Ramdas Pophale) SiO2 
 PCOD8306788
Probable space group: P 42 C M
;
_chemical_formula_sum "Si O2"
_cell_formula_units_Z 56
_cell_length_a 15.361357
_cell_length_b 15.361357
_cell_length_c 10.680589
_cell_angle_alpha 90.000000
_cell_angle_beta 90.000000
_cell_angle_gamma 90.000000
_cell_volume 2520.312352
_symmetry_space_group_name_H-M "P 42 C M"
_symmetry_group_IT_number 101
_symmetry_cell_setting 'tetragonal'
loop_
_space_group_symop_operation_xyz
x,y,z
-y,x,1/2+z
-x,-y,z
y,-x,1/2+z
-x,y,1/2+z
x,-y,1/2+z
-y,-x,z
y,x,z
loop_
_atom_site_type_symbol
_atom_site_label
_atom_site_fract_x
_atom_site_fract_y
_atom_site_fract_z
Si Si1 0.512223 0.766992 0.873600
Si Si2 0.086292 0.651321 0.577288
Si Si3 0.807594 0.669931 0.721828
Si Si4 0.275069 0.422136 0.116689
Si Si5 0.398240 0.099289 0.499069
Si Si6 0.248060 0.892485 0.820772
Si Si7 0.073878 0.209257 0.869520
O O1 0.613668 0.782937 0.843369
O O2 0.464908 0.719966 0.755125
O O3 0.512803 0.703018 0.998355
O O4 0.468838 0.861934 0.902212
O O5 0.175494 0.597981 0.575876
O O6 0.076300 0.681968 0.719416
O O7 0.089970 0.737473 0.495394
O O8 0.004199 0.591084 0.531019
O O9 0.722576 0.722576 0.674579
O O10 0.842564 0.598294 0.624190
O O11 0.884056 0.737611 0.754396
O O12 0.337624 0.337624 0.118408
O O13 0.301907 0.121478 0.447475
O O14 0.193964 0.806037 0.784871
O O15 0.184949 0.974019 0.842868
O O16 0.116463 0.116463 0.888328
#
# Coordination Sequence:
#
# PCOD8306788 Si02
#       7
#     8   8   8   8   8   8   8
#     4  12  25  45  69 109 137 181 230 287 345 420
#     4  11  22  40  64  97 132 179 220 273 339 415
#     4  11  22  42  67  93 132 179 223 275 339 408
#     4  12  26  48  74 103 142 187 230 283 356 428
#     4  11  24  41  63 101 138 173 226 287 348 399
#     4  11  22  38  62  91 129 178 233 280 337 406
#     4  10  21  38  60  87 127 174 223 274 329 392
#
# _framework density 22.219467000000002
#
# number of rings (size 3 to 8) (size 9 to 14) (size 15 to 20)
#    0.000    0.857    5.714    2.143    0.000    1.429 
#    2.571    0.000    0.000    5.143    0.000    0.000 
#    0.000    0.000    0.000    0.000    0.000    0.000 
#
# Total GULP energy -693909.341387 kJ/mol
# GULP energy per Si atom -12391.238239 kJ/mol
# Density = 2.216889 g / cm^3
# Si number density = 22.219467 Si / 1000 Ang^3
#
#
#
# Elastic Constant Matrix: (Units=GPa)
#
#
# Indices 1 2 3 4 5 6 
#
# 1 79.2817 41.2544 26.0070 0.0000 0.0000 -0.0002
# 2 41.2544 79.2817 26.0070 0.0000 0.0000 0.0002
# 3 26.0070 26.0070 122.3734 0.0000 0.0000 0.0000
# 4 0.0000 0.0000 0.0000 25.0653 0.0000 0.0000
# 5 0.0000 0.0000 0.0000 0.0000 25.0653 0.0000
# 6 -0.0002 0.0002 0.0000 0.0000 0.0000 22.2384
#
#
#
# Elastic Compliance Matrix: (Units=1/GPa)
#
#
# Indices 1 2 3 4 5 6 
#
# 1 0.017715 -0.008581 -0.001941 0.000000 0.000000 0.000000
# 2 -0.008581 0.017715 -0.001941 0.000000 0.000000 0.000000
# 3 -0.001941 -0.001941 0.008997 0.000000 0.000000 0.000000
# 4 0.000000 0.000000 0.000000 0.039896 0.000000 0.000000
# 5 0.000000 0.000000 0.000000 0.000000 0.039896 0.000000
# 6 0.000000 0.000000 0.000000 0.000000 0.000000 0.044967
#
#
# Mechanical properties :
#
#
# Convention : Reuss Voigt Hill
#
# Bulk Modulus (GPa) = 51.28206 51.94153 51.61180
# Shear Modulus (GPa) = 24.92349 26.98504 25.95427
#
# Velocity S-wave (km/s) = 3.35281 3.48872 3.42144
# Velocity P-wave (km/s) = 6.17400 6.29726 6.23594
#
# Compressibility (1/GPa) = 0.01950000
#
# Stress axis : x y z
#
# Youngs Moduli (GPa) = 56.44801 56.44801 111.15073
#
# Poissons Ratio (x) = 0.48441 0.21576
# Poissons Ratio (y) = 0.48441 0.21576
# Poissons Ratio (z) = 0.10957 0.10957
#
# Static dielectric constant tensor:
#      x y z
#    x 3.815040 0.000000 0.000000 
#    y 0.000000 3.815040 0.000000 
#    z 0.000000 0.000000 4.304820 
# 
# 
# High freq. dielectric constant tensor:
#      x y z
#    x 1.856930 0.000000 0.000000 
#    y 0.000000 1.856930 0.000000 
#    z 0.000000 0.000000 1.897250 
# 
# From -- ./inp_files/1354.got.cif
#   From: 2010.03.12/outbox.cif.g09.slc.cpg/sg101_1_cif.got.tgz:1354.got - 2010.04.14 01:38:52.
