data_PCOD8306307
_publ_section_title
;
Structure prediction by ZEFSAII (Michael W. Deem and Ramdas Pophale) SiO2 
 PCOD8306307
Probable space group: I 41 2 2
;
_chemical_formula_sum "Si O2"
_cell_formula_units_Z 96
_cell_length_a 14.777209
_cell_length_b 14.777209
_cell_length_c 20.440630
_cell_angle_alpha 90.000000
_cell_angle_beta 90.000000
_cell_angle_gamma 90.000000
_cell_volume 4463.536686
_symmetry_space_group_name_H-M "I 41 2 2"
_symmetry_group_IT_number 98
_symmetry_cell_setting 'tetragonal'
loop_
_space_group_symop_operation_xyz
x,y,z
-y,1/2+x,1/4+z
-x,-y,z
y,1/2-x,1/4+z
x,1/2-y,1/4-z
-x,1/2+y,1/4-z
y,x,-z
-y,-x,-z
1/2+x,1/2+y,1/2+z
1/2-y,x,3/4+z
1/2-x,1/2-y,1/2+z
1/2+y,-x,3/4+z
1/2+x,-y,3/4-z
1/2-x,y,3/4-z
1/2+y,1/2+x,1/2-z
1/2-y,1/2-x,1/2-z
loop_
_atom_site_type_symbol
_atom_site_label
_atom_site_fract_x
_atom_site_fract_y
_atom_site_fract_z
Si Si1 0.000000 0.000000 0.672464
Si Si2 0.038922 0.374925 0.814088
Si Si3 0.436373 0.710933 0.502311
Si Si4 0.392324 0.849854 0.994463
Si Si5 0.856379 0.143622 0.500000
Si Si6 0.684175 0.623769 0.432431
Si Si7 0.983406 0.805173 0.869389
O O1 0.941212 0.074413 0.711339
O O2 0.064273 0.061914 0.626808
O O3 0.089612 0.410389 0.750000
O O4 0.070733 0.272789 0.829283
O O5 0.928876 0.376989 0.807281
O O6 0.384172 0.615829 0.500000
O O7 0.375351 0.791969 0.528573
O O8 0.521291 0.706011 0.550301
O O9 0.462240 0.740499 0.428820
O O10 0.379487 0.747154 0.023856
O O11 0.448747 0.855122 0.928222
O O12 0.684456 0.684456 0.500000
O O13 0.750000 0.661239 0.375000
O O14 0.584884 0.622782 0.400627
#
# Coordination Sequence:
#
# PCOD8306307 Si02
#       7
#     8  16  16  16   8  16  16
#     4  12  23  40  66 100 139 176 232 288 356 442
#     4  11  21  43  70  94 139 184 220 283 359 430
#     4  11  24  44  67  99 138 185 225 294 361 423
#     4  11  25  40  69 103 139 173 234 294 356 429
#     4  10  21  44  64 100 135 176 220 290 356 421
#     4  10  25  46  71  97 140 186 238 298 350 427
#     4  10  25  44  63 102 134 176 239 282 349 430
#
# _framework density 21.507608000000001
#
# number of rings (size 3 to 8) (size 9 to 14) (size 15 to 20)
#    0.000    1.333    4.167    0.000    4.667    4.333 
#    0.000    1.667    0.000    0.000    0.000    0.000 
#    0.000    0.000    0.000    0.000    0.000    0.000 
#
# Total GULP energy -594671.770127 kJ/mol
# GULP energy per Si atom -12388.995211 kJ/mol
# Density = 2.145866 g / cm^3
# Si number density = 21.507608 Si / 1000 Ang^3
#
#
#
# Elastic Constant Matrix: (Units=GPa)
#
#
# Indices 1 2 3 4 5 6 
#
# 1 82.1093 40.5207 50.3250 0.0000 0.0000 0.0000
# 2 40.5207 82.1126 50.3246 0.0000 0.0000 0.0000
# 3 50.3250 50.3246 131.1002 0.0000 0.0000 0.0000
# 4 0.0000 0.0000 0.0000 19.0100 0.0000 0.0000
# 5 0.0000 0.0000 0.0000 0.0000 19.0084 0.0000
# 6 0.0000 0.0000 0.0000 0.0000 0.0000 41.2555
#
#
#
# Elastic Compliance Matrix: (Units=1/GPa)
#
#
# Indices 1 2 3 4 5 6 
#
# 1 0.017975 -0.006069 -0.004570 0.000000 0.000000 0.000000
# 2 -0.006069 0.017974 -0.004570 0.000000 0.000000 0.000000
# 3 -0.004570 -0.004570 0.011136 0.000000 0.000000 0.000000
# 4 0.000000 0.000000 0.000000 0.052604 0.000000 0.000000
# 5 0.000000 0.000000 0.000000 0.000000 0.052608 0.000000
# 6 0.000000 0.000000 0.000000 0.000000 0.000000 0.024239
#
#
# Mechanical properties :
#
#
# Convention : Reuss Voigt Hill
#
# Bulk Modulus (GPa) = 59.99942 64.18476 62.09209
# Shear Modulus (GPa) = 23.52811 26.13157 24.82984
#
# Velocity S-wave (km/s) = 3.31107 3.48945 3.40143
# Velocity P-wave (km/s) = 6.52495 6.79284 6.66024
#
# Compressibility (1/GPa) = 0.01666683
#
# Stress axis : x y z
#
# Youngs Moduli (GPa) = 55.63202 55.63518 89.79624
#
# Poissons Ratio (x) = 0.33767 0.41039
# Poissons Ratio (y) = 0.33765 0.41035
# Poissons Ratio (z) = 0.25425 0.25424
#
# Static dielectric constant tensor:
#      x y z
#    x 3.902440 0.000000 0.000000 
#    y 0.000000 3.902420 0.000000 
#    z 0.000000 0.000000 3.972090 
# 
# 
# High freq. dielectric constant tensor:
#      x y z
#    x 1.842950 0.000000 0.000000 
#    y 0.000000 1.842950 0.000000 
#    z 0.000000 0.000000 1.848560 
# 
# From -- ./inp_files/8964.got.cif
#   From: 2010.03.12/outbox.cif.g09.slc.cpg/sg98_5_cif.got.tgz:8964.got - 2010.04.08 21:04:41.
