data_PCOD8306127
_publ_section_title
;
Structure prediction by ZEFSAII (Michael W. Deem and Ramdas Pophale) SiO2 
 PCOD8306127
Probable space group: I 4 2 2 
;
_chemical_formula_sum "Si O2"
_cell_formula_units_Z 80
_cell_length_a 11.542013
_cell_length_b 11.542013
_cell_length_c 29.635004
_cell_angle_alpha 90.000000
_cell_angle_beta 90.000000
_cell_angle_gamma 90.000000
_cell_volume 3947.917862
_symmetry_space_group_name_H-M "I 4 2 2 "
_symmetry_group_IT_number 97
_symmetry_cell_setting 'tetragonal'
loop_
_space_group_symop_operation_xyz
x,y,z
-y,x,z
-x,-y,z
y,-x,z
x,-y,-z
-x,y,-z
y,x,-z
-y,-x,-z
1/2+x,1/2+y,1/2+z
1/2-y,1/2+x,1/2+z
1/2-x,1/2-y,1/2+z
1/2+y,1/2-x,1/2+z
1/2+x,1/2-y,1/2-z
1/2-x,1/2+y,1/2-z
1/2+y,1/2+x,1/2-z
1/2-y,1/2-x,1/2-z
loop_
_atom_site_type_symbol
_atom_site_label
_atom_site_fract_x
_atom_site_fract_y
_atom_site_fract_z
Si Si1 0.221963 0.579125 0.142442
Si Si2 0.189777 0.993287 0.736762
Si Si3 0.385890 0.354504 0.552799
Si Si4 0.159619 0.298118 0.384411
Si Si5 0.137081 0.498081 0.317358
O O1 0.257713 0.506488 0.186873
O O2 0.324290 0.663483 0.128183
O O3 0.192890 0.479031 0.104892
O O4 0.110334 0.660915 0.151208
O O5 0.297476 0.990134 0.770346
O O6 0.110442 0.881359 0.744899
O O7 0.519538 0.340542 0.568536
O O8 0.358628 0.358628 0.500000
O O9 0.320680 0.243846 0.573393
O O10 0.186527 0.385974 0.343325
O O11 0.000000 0.500000 0.308068
#
# Coordination Sequence:
#
# PCOD8306127 Si02
#       5
#    16  16  16  16  16
#     4  11  22  38  56  79 117 159 203 256 312 361
#     4  11  22  38  56  77 112 160 215 257 309 361
#     4   9  19  39  68  98 126 153 188 247 317 379
#     4  11  22  38  60  85 119 159 204 245 307 379
#     4  10  23  37  55  84 115 153 205 263 312 361
#
# _framework density 20.263846999999998
#
# number of rings (size 3 to 8) (size 9 to 14) (size 15 to 20)
#    0.000    1.600    2.000    3.600    0.000    6.000 
#    0.000    3.000    0.000    2.400    0.000    1.400 
#    0.000    0.000    0.000    0.000    0.000    0.000 
#
# Total GULP energy -495729.102173 kJ/mol
# GULP energy per Si atom -12393.227554 kJ/mol
# Density = 2.021773 g / cm^3
# Si number density = 20.263847 Si / 1000 Ang^3
#
#
#
# Elastic Constant Matrix: (Units=GPa)
#
#
# Indices 1 2 3 4 5 6 
#
# 1 101.6879 30.8111 38.9417 0.0000 0.0000 0.0000
# 2 30.8111 101.6879 38.9417 0.0000 0.0000 0.0000
# 3 38.9417 38.9417 55.5894 0.0000 0.0000 0.0000
# 4 0.0000 0.0000 0.0000 32.4062 0.0000 0.0000
# 5 0.0000 0.0000 0.0000 0.0000 32.4062 0.0000
# 6 0.0000 0.0000 0.0000 0.0000 0.0000 34.8309
#
#
#
# Elastic Compliance Matrix: (Units=1/GPa)
#
#
# Indices 1 2 3 4 5 6 
#
# 1 0.013470 -0.000639 -0.008988 0.000000 0.000000 0.000000
# 2 -0.000639 0.013470 -0.008988 0.000000 0.000000 0.000000
# 3 -0.008988 -0.008988 0.030582 0.000000 0.000000 0.000000
# 4 0.000000 0.000000 0.000000 0.030858 0.000000 0.000000
# 5 0.000000 0.000000 0.000000 0.000000 0.030858 0.000000
# 6 0.000000 0.000000 0.000000 0.000000 0.000000 0.028710
#
#
# Mechanical properties :
#
#
# Convention : Reuss Voigt Hill
#
# Bulk Modulus (GPa) = 49.28426 52.92825 51.10625
# Shear Modulus (GPa) = 26.04954 29.94669 27.99812
#
# Velocity S-wave (km/s) = 3.58930 3.84844 3.72113
# Velocity P-wave (km/s) = 6.44605 6.77669 6.61344
#
# Compressibility (1/GPa) = 0.02029045
#
# Stress axis : x y z
#
# Youngs Moduli (GPa) = 74.24065 74.24065 32.69931
#
# Poissons Ratio (x) = 0.04746 0.29390
# Poissons Ratio (y) = 0.04746 0.29390
# Poissons Ratio (z) = 0.66728 0.66728
#
# Static dielectric constant tensor:
#      x y z
#    x 3.908640 0.000000 0.000000 
#    y 0.000000 3.908640 0.000000 
#    z 0.000000 0.000000 3.219920 
# 
# 
# High freq. dielectric constant tensor:
#      x y z
#    x 1.806090 0.000000 0.000000 
#    y 0.000000 1.806090 0.000000 
#    z 0.000000 0.000000 1.744350 
# 
# From -- ./inp_files/7937.got.cif
#   From: 2010.03.12/outbox.cif.g09.slc.cpg/sg97_4_cif.got.tgz:7937.got - 2010.04.08 20:59:42.
