data_PCOD8306028
_publ_section_title
;
Structure prediction by ZEFSAII (Michael W. Deem and Ramdas Pophale) SiO2 
 PCOD8306028
Probable space group: I 4 2 2 
;
_chemical_formula_sum "Si O2"
_cell_formula_units_Z 96
_cell_length_a 24.953627
_cell_length_b 24.953627
_cell_length_c 9.560651
_cell_angle_alpha 90.000000
_cell_angle_beta 90.000000
_cell_angle_gamma 90.000000
_cell_volume 5953.259631
_symmetry_space_group_name_H-M "I 4 2 2 "
_symmetry_group_IT_number 97
_symmetry_cell_setting 'tetragonal'
loop_
_space_group_symop_operation_xyz
x,y,z
-y,x,z
-x,-y,z
y,-x,z
x,-y,-z
-x,y,-z
y,x,-z
-y,-x,-z
1/2+x,1/2+y,1/2+z
1/2-y,1/2+x,1/2+z
1/2-x,1/2-y,1/2+z
1/2+y,1/2-x,1/2+z
1/2+x,1/2-y,1/2-z
1/2-x,1/2+y,1/2-z
1/2+y,1/2+x,1/2-z
1/2-y,1/2-x,1/2-z
loop_
_atom_site_type_symbol
_atom_site_label
_atom_site_fract_x
_atom_site_fract_y
_atom_site_fract_z
Si Si1 0.053773 0.141419 0.273309
Si Si2 0.245833 0.170387 0.913941
Si Si3 0.832258 0.757139 0.412927
Si Si4 0.278769 0.555878 0.538886
Si Si5 0.940509 0.211334 0.478344
Si Si6 0.645189 0.439589 0.287142
O O1 0.062495 0.155252 0.435880
O O2 0.101453 0.106229 0.216075
O O3 0.995499 0.114810 0.249123
O O4 0.052665 0.199238 0.196346
O O5 0.228349 0.169858 0.751346
O O6 0.301066 0.201743 0.940072
O O7 0.197527 0.197527 0.000000
O O8 0.256638 0.109985 0.971688
O O9 0.805255 0.805255 0.500000
O O10 0.893197 0.749209 0.467791
O O11 0.247175 0.500000 0.500000
O O12 0.331206 0.559759 0.441935
O O13 0.930045 0.195126 0.318082
O O14 0.000000 0.237638 0.500000
#
# Coordination Sequence:
#
# PCOD8306028 Si02
#       6
#    16  16  16  16  16  16
#     4  10  18  31  43  61  85 113 158 194 234 272
#     4  10  20  33  50  72  97 123 153 193 238 283
#     4  10  20  33  50  72  97 123 153 193 238 283
#     4  10  20  32  46  65  89 120 155 191 230 275
#     4  10  20  32  46  65  89 120 155 191 230 275
#     4  10  20  29  45  61  83 119 152 198 234 266
#
# _framework density 16.125620000000001
#
# number of rings (size 3 to 8) (size 9 to 14) (size 15 to 20)
#    0.000    2.000    1.667    3.000    2.333    0.333 
#    0.000    0.000    0.000    6.000    0.000    0.000 
#    0.000    0.667    0.000    3.667    0.000    0.000 
#
# Total GULP energy -594878.521553 kJ/mol
# GULP energy per Si atom -12393.302532 kJ/mol
# Density = 1.608892 g / cm^3
# Si number density = 16.125620 Si / 1000 Ang^3
#
#
#
# Elastic Constant Matrix: (Units=GPa)
#
#
# Indices 1 2 3 4 5 6 
#
# 1 91.1701 44.3150 20.1431 0.0000 0.0000 0.0000
# 2 44.3150 91.1701 20.1431 0.0000 0.0000 0.0000
# 3 20.1431 20.1431 58.0325 0.0000 0.0000 0.0000
# 4 0.0000 0.0000 0.0000 19.7817 0.0000 0.0000
# 5 0.0000 0.0000 0.0000 0.0000 19.7817 0.0000
# 6 0.0000 0.0000 0.0000 0.0000 0.0000 22.1791
#
#
#
# Elastic Compliance Matrix: (Units=1/GPa)
#
#
# Indices 1 2 3 4 5 6 
#
# 1 0.014786 -0.006556 -0.002857 0.000000 0.000000 0.000000
# 2 -0.006556 0.014786 -0.002857 0.000000 0.000000 0.000000
# 3 -0.002857 -0.002857 0.019215 0.000000 0.000000 0.000000
# 4 0.000000 0.000000 0.000000 0.050552 0.000000 0.000000
# 5 0.000000 0.000000 0.000000 0.000000 0.050552 0.000000
# 6 0.000000 0.000000 0.000000 0.000000 0.000000 0.045088
#
#
# Mechanical properties :
#
#
# Convention : Reuss Voigt Hill
#
# Bulk Modulus (GPa) = 41.23958 45.50833 43.37395
# Shear Modulus (GPa) = 21.96832 22.73328 22.35080
#
# Velocity S-wave (km/s) = 3.69497 3.75875 3.72700
# Velocity P-wave (km/s) = 6.62067 6.86440 6.74364
#
# Compressibility (1/GPa) = 0.02424855
#
# Stress axis : x y z
#
# Youngs Moduli (GPa) = 67.62990 67.62990 52.04301
#
# Poissons Ratio (x) = 0.44338 0.14867
# Poissons Ratio (y) = 0.44338 0.14867
# Poissons Ratio (z) = 0.19320 0.19320
#
# Static dielectric constant tensor:
#      x y z
#    x 2.996990 0.000000 0.000000 
#    y 0.000000 2.996990 0.000000 
#    z 0.000000 0.000000 3.247710 
# 
# 
# High freq. dielectric constant tensor:
#      x y z
#    x 1.588630 0.000000 0.000000 
#    y 0.000000 1.588630 0.000000 
#    z 0.000000 0.000000 1.646450 
# 
# From -- ./inp_files/2558.got.cif
#   From: 2010.03.12/outbox.cif.g09.slc.cpg/sg97_2_cif.got.tgz:2558.got - 2010.04.08 20:59:42.
