data_PCOD8306696
_publ_section_title
;
Structure prediction by ZEFSAII (Michael W. Deem and Ramdas Pophale) SiO2 
 PCOD8306696
Probable space group: P 42 C M
;
_chemical_formula_sum "Si O2"
_cell_formula_units_Z 48
_cell_length_a 21.039035
_cell_length_b 21.039035
_cell_length_c 5.240388
_cell_angle_alpha 90.000000
_cell_angle_beta 90.000000
_cell_angle_gamma 90.000000
_cell_volume 2319.610552
_symmetry_space_group_name_H-M "P 42 C M"
_symmetry_group_IT_number 101
_symmetry_cell_setting 'tetragonal'
loop_
_space_group_symop_operation_xyz
x,y,z
-y,x,1/2+z
-x,-y,z
y,-x,1/2+z
-x,y,1/2+z
x,-y,1/2+z
-y,-x,z
y,x,z
loop_
_atom_site_type_symbol
_atom_site_label
_atom_site_fract_x
_atom_site_fract_y
_atom_site_fract_z
Si Si1 0.429522 0.027755 0.300850
Si Si2 0.869357 0.033419 0.508318
Si Si3 0.236633 0.334883 0.375165
Si Si4 0.719678 0.966344 0.993917
Si Si5 0.278410 0.820590 0.375228
Si Si6 0.828692 0.539730 0.350190
O O1 0.428254 0.101657 0.374794
O O2 0.500000 0.000000 0.240388
O O3 0.395763 0.985211 0.524541
O O4 0.893255 0.106746 0.512933
O O5 0.794488 0.026767 0.512295
O O6 0.897694 0.001091 0.256029
O O7 0.309604 0.309604 0.412233
O O8 0.215529 0.318548 0.089342
O O9 0.228243 0.410536 0.401858
O O10 0.193165 0.302187 0.589558
O O11 0.691950 0.013955 0.773442
O O12 0.708069 0.893822 0.922597
O O13 0.204969 0.795032 0.394415
O O14 0.821613 0.486329 0.564560
#
# Coordination Sequence:
#
# PCOD8306696 Si02
#       6
#     8   8   8   8   8   8
#     4  10  16  30  48  73 112 149 193 235 270 341
#     4  10  20  31  44  64  84 114 149 195 262 330
#     4  10  23  40  59  86 116 148 197 247 282 335
#     4  10  20  34  53  72 101 125 172 236 275 336
#     4  10  20  39  60  75 104 152 192 231 293 349
#     4  12  21  35  60  85 116 158 195 234 294 353
#
# _framework density 20.693131000000001
#
# number of rings (size 3 to 8) (size 9 to 14) (size 15 to 20)
#    0.000    1.667    3.333    3.000    0.000    1.000 
#    0.000   10.000    0.000    0.000    0.000    0.000 
#    0.000    2.000    0.000    0.000    0.000    0.000 
#
# Total GULP energy -594950.016799 kJ/mol
# GULP energy per Si atom -12394.792017 kJ/mol
# Density = 2.064603 g / cm^3
# Si number density = 20.693131 Si / 1000 Ang^3
#
#
#
# Elastic Constant Matrix: (Units=GPa)
#
#
# Indices 1 2 3 4 5 6 
#
# 1 314.0198 -215.4965 29.0630 0.0000 0.0000 -0.0009
# 2 -215.4965 314.0198 29.0630 0.0000 0.0000 0.0009
# 3 29.0630 29.0630 138.6266 0.0000 0.0000 0.0000
# 4 0.0000 0.0000 0.0000 19.3296 0.0000 0.0000
# 5 0.0000 0.0000 0.0000 0.0000 19.3296 0.0000
# 6 -0.0009 0.0009 0.0000 0.0000 0.0000 23.8901
#
#
#
# Elastic Compliance Matrix: (Units=1/GPa)
#
#
# Indices 1 2 3 4 5 6 
#
# 1 0.006736 0.004847 -0.002428 0.000000 0.000000 0.000000
# 2 0.004847 0.006736 -0.002428 0.000000 0.000000 0.000000
# 3 -0.002428 -0.002428 0.008232 0.000000 0.000000 0.000000
# 4 0.000000 0.000000 0.000000 0.051734 0.000000 0.000000
# 5 0.000000 0.000000 0.000000 0.000000 0.051734 0.000000
# 6 0.000000 0.000000 0.000000 0.000000 0.000000 0.041858
#
#
# Mechanical properties :
#
#
# Convention : Reuss Voigt Hill
#
# Bulk Modulus (GPa) = 46.11756 50.21393 48.16574
# Shear Modulus (GPa) = 28.69011 74.11232 51.40121
#
# Velocity S-wave (km/s) = 3.72755 5.99105 4.98936
# Velocity P-wave (km/s) = 6.39226 8.49562 7.51786
#
# Compressibility (1/GPa) = 0.02168371
#
# Stress axis : x y z
#
# Youngs Moduli (GPa) = 148.46694 148.46694 121.48017
#
# Poissons Ratio (x) = -0.71962 0.29499
# Poissons Ratio (y) = -0.71962 0.29499
# Poissons Ratio (z) = 0.36052 0.36052
#
# Static dielectric constant tensor:
#      x y z
#    x 3.704480 0.000000 0.000000 
#    y 0.000000 3.704480 0.000000 
#    z 0.000000 0.000000 4.399490 
# 
# 
# High freq. dielectric constant tensor:
#      x y z
#    x 1.790630 0.000000 0.000000 
#    y 0.000000 1.790630 0.000000 
#    z 0.000000 0.000000 1.851270 
# 
# From -- ./inp_files/130.got.cif
#   From: 2010.03.12/outbox.cif.g09.slc.cpg/sg101_1_cif.got.tgz:130.got - 2010.04.14 01:38:52.
