data_PCOD8306446
_publ_section_title
;
Structure prediction by ZEFSAII (Michael W. Deem and Ramdas Pophale) SiO2 
 PCOD8306446
Probable space group: P 4 M M
;
_chemical_formula_sum "Si O2"
_cell_formula_units_Z 64
_cell_length_a 13.681449
_cell_length_b 13.681449
_cell_length_c 20.559399
_cell_angle_alpha 90.000000
_cell_angle_beta 90.000000
_cell_angle_gamma 90.000000
_cell_volume 3848.350385
_symmetry_space_group_name_H-M "P 4 M M"
_symmetry_group_IT_number 99
_symmetry_cell_setting 'tetragonal'
loop_
_space_group_symop_operation_xyz
x,y,z
-y,x,z
-x,-y,z
y,-x,z
-x,y,z
x,-y,z
-y,-x,z
y,x,z
loop_
_atom_site_type_symbol
_atom_site_label
_atom_site_fract_x
_atom_site_fract_y
_atom_site_fract_z
Si Si1 0.768414 0.614649 0.176680
Si Si2 0.108687 0.616730 0.055431
Si Si3 0.274212 0.884688 0.432447
Si Si4 0.607734 0.883434 0.913669
Si Si5 0.223152 0.384237 0.543938
Si Si6 0.889038 0.735591 0.797741
Si Si7 0.112965 0.389349 0.303034
Si Si8 0.726481 0.886310 0.651500
O O1 0.753258 0.500000 0.172693
O O2 0.662064 0.662064 0.180952
O O3 0.822061 0.655890 0.112480
O O4 0.829347 0.645988 0.239776
O O5 0.105508 0.500000 0.055139
O O6 0.000000 0.657642 0.068774
O O7 0.146484 0.652695 0.984205
O O8 0.170549 0.829452 0.440612
O O9 0.352702 0.844140 0.483557
O O10 0.317114 0.861753 0.361617
O O11 0.257518 0.000000 0.443738
O O12 0.500000 0.838247 0.906540
O O13 0.668413 0.839812 0.853180
O O14 0.602157 0.000000 0.909721
O O15 0.244081 0.500000 0.541394
O O16 0.326682 0.326682 0.542560
O O17 0.162149 0.358574 0.608680
O O18 0.841317 0.841317 0.799067
O O19 0.876758 0.689138 0.725941
O O20 0.000000 0.753908 0.815979
O O21 0.142377 0.500000 0.322785
O O22 0.000000 0.384546 0.284403
O O23 0.828784 0.828784 0.639858
O O24 0.743318 0.000000 0.632671
#
# Coordination Sequence:
#
# PCOD8306446 Si02
#       8
#     8   8   8   8   8   8   8   8
#     4  10  19  29  42  61  86 115 145 177 215 262
#     4   8  14  26  43  61  81 105 137 181 227 264
#     4  10  20  33  50  73 100 128 157 188 222 263
#     4   8  14  25  41  61  84 108 137 178 225 266
#     4  10  21  36  53  73  96 121 152 190 230 273
#     4   9  17  28  42  62  89 119 149 179 212 255
#     4   9  17  30  49  70  89 112 146 188 230 266
#     4   9  18  31  46  67  94 123 156 191 226 267
#
# _framework density 16.630503000000001
#
# number of rings (size 3 to 8) (size 9 to 14) (size 15 to 20)
#    0.000    2.875    0.000    2.250    0.000    4.625 
#    0.000    2.500    0.000    2.250    0.000    1.750 
#    0.000    2.500    0.000    0.750    0.000    0.125 
#
# Total GULP energy -793252.989257 kJ/mol
# GULP energy per Si atom -12394.577957 kJ/mol
# Density = 1.659265 g / cm^3
# Si number density = 16.630503 Si / 1000 Ang^3
#
#
#
# Elastic Constant Matrix: (Units=GPa)
#
#
# Indices 1 2 3 4 5 6 
#
# 1 79.7620 44.0984 51.4574 0.0000 0.0000 0.0000
# 2 44.0984 79.7620 51.4574 0.0000 0.0000 0.0000
# 3 51.4574 51.4574 127.1645 0.0000 0.0000 0.0000
# 4 0.0000 0.0000 0.0000 21.2436 0.0000 0.0000
# 5 0.0000 0.0000 0.0000 0.0000 21.2436 0.0000
# 6 0.0000 0.0000 0.0000 0.0000 0.0000 18.1817
#
#
#
# Elastic Compliance Matrix: (Units=1/GPa)
#
#
# Indices 1 2 3 4 5 6 
#
# 1 0.020101 -0.007938 -0.004922 0.000000 0.000000 0.000000
# 2 -0.007938 0.020101 -0.004922 0.000000 0.000000 0.000000
# 3 -0.004922 -0.004922 0.011847 0.000000 0.000000 0.000000
# 4 0.000000 0.000000 0.000000 0.047073 0.000000 0.000000
# 5 0.000000 0.000000 0.000000 0.000000 0.047073 0.000000
# 6 0.000000 0.000000 0.000000 0.000000 0.000000 0.055000
#
#
# Mechanical properties :
#
#
# Convention : Reuss Voigt Hill
#
# Bulk Modulus (GPa) = 60.65751 64.52389 62.59070
# Shear Modulus (GPa) = 20.63932 21.44544 21.04238
#
# Velocity S-wave (km/s) = 3.52668 3.59489 3.56095
# Velocity P-wave (km/s) = 7.28945 7.49091 7.39087
#
# Compressibility (1/GPa) = 0.01648600
#
# Stress axis : x y z
#
# Youngs Moduli (GPa) = 49.74763 49.74763 84.40883
#
# Poissons Ratio (x) = 0.39491 0.41545
# Poissons Ratio (y) = 0.39491 0.41545
# Poissons Ratio (z) = 0.24485 0.24485
#
# Static dielectric constant tensor:
#      x y z
#    x 2.943850 0.000000 0.000000 
#    y 0.000000 2.943850 0.000000 
#    z 0.000000 0.000000 3.477100 
# 
# 
# High freq. dielectric constant tensor:
#      x y z
#    x 1.617760 0.000000 0.000000 
#    y 0.000000 1.617760 0.000000 
#    z 0.000000 0.000000 1.662650 
# 
# From -- ./inp_files/2335.got.cif
#   From: 2010.03.12/outbox.cif.g09.slc.cpg/sg99_cif.got.tgz:2335.got - 2010.04.08 21:11:30.
