data_PCOD8306743
_publ_section_title
;
Structure prediction by ZEFSAII (Michael W. Deem and Ramdas Pophale) SiO2 
 PCOD8306743
Probable space group: P 42 C M
;
_chemical_formula_sum "Si O2"
_cell_formula_units_Z 48
_cell_length_a 11.009028
_cell_length_b 11.009028
_cell_length_c 18.836941
_cell_angle_alpha 90.000000
_cell_angle_beta 90.000000
_cell_angle_gamma 90.000000
_cell_volume 2283.012714
_symmetry_space_group_name_H-M "P 42 C M"
_symmetry_group_IT_number 101
_symmetry_cell_setting 'tetragonal'
loop_
_space_group_symop_operation_xyz
x,y,z
-y,x,1/2+z
-x,-y,z
y,-x,1/2+z
-x,y,1/2+z
x,-y,1/2+z
-y,-x,z
y,x,z
loop_
_atom_site_type_symbol
_atom_site_label
_atom_site_fract_x
_atom_site_fract_y
_atom_site_fract_z
Si Si1 0.397792 0.897793 0.828950
Si Si2 0.445148 0.253634 0.573889
Si Si3 0.945148 0.753634 0.925400
Si Si4 0.753634 0.945148 0.573889
Si Si5 0.746366 0.445148 0.425400
Si Si6 0.897792 0.602208 0.170339
O O1 0.449194 0.778868 0.869317
O O2 0.358917 0.858918 0.749644
O O3 0.500000 0.000000 0.825128
O O4 0.278868 0.949195 0.869317
O O5 0.362576 0.362576 0.605498
O O6 0.365451 0.134549 0.558304
O O7 0.500000 0.297627 0.499644
O O8 0.550805 0.221132 0.629972
O O9 0.862576 0.862576 0.893790
O O10 0.865451 0.634549 0.940985
O O11 1.000000 0.797627 0.999644
O O12 0.862576 0.862576 0.605498
O O13 0.721132 0.050805 0.629972
O O14 0.637424 0.362576 0.393790
O O15 0.000000 0.500000 0.174161
#
# Coordination Sequence:
#
# PCOD8306743 Si02
#       6
#     8   8   8   8   8   8
#     4   9  18  32  53  83 119 153 187 236 291 340
#     4  10  19  32  55  82 111 152 196 236 283 338
#     4  10  19  32  55  82 111 152 196 236 283 338
#     4  10  19  32  55  82 111 152 196 236 283 338
#     4  10  19  32  55  82 111 152 196 236 283 338
#     4   9  18  32  53  83 119 153 187 236 291 340
#
# _framework density 21.024851000000002
#
# number of rings (size 3 to 8) (size 9 to 14) (size 15 to 20)
#    0.000    2.333    3.333    0.000    0.000    2.000 
#    0.000    6.667    0.000    4.000    0.000    4.667 
#    0.000    0.000    0.000    0.000    0.000    0.000 
#
# Total GULP energy -595181.750923 kJ/mol
# GULP energy per Si atom -12399.619811 kJ/mol
# Density = 2.097700 g / cm^3
# Si number density = 21.024851 Si / 1000 Ang^3
#
#
#
# Elastic Constant Matrix: (Units=GPa)
#
#
# Indices 1 2 3 4 5 6 
#
# 1 77.0377 56.5809 52.9160 0.0000 0.0000 -0.0002
# 2 56.5809 77.0377 52.9160 0.0000 0.0000 0.0002
# 3 52.9160 52.9160 170.9651 0.0000 0.0000 0.0000
# 4 0.0000 0.0000 0.0000 6.2451 0.0000 0.0000
# 5 0.0000 0.0000 0.0000 0.0000 6.2451 0.0000
# 6 -0.0002 0.0002 0.0000 0.0000 0.0000 37.9635
#
#
#
# Elastic Compliance Matrix: (Units=1/GPa)
#
#
# Indices 1 2 3 4 5 6 
#
# 1 0.029399 -0.019485 -0.003069 0.000000 0.000000 0.000000
# 2 -0.019485 0.029399 -0.003069 0.000000 0.000000 0.000000
# 3 -0.003069 -0.003069 0.007749 0.000000 0.000000 0.000000
# 4 0.000000 0.000000 0.000000 0.160126 0.000000 0.000000
# 5 0.000000 0.000000 0.000000 0.000000 0.160126 0.000000
# 6 0.000000 0.000000 0.000000 0.000000 0.000000 0.026341
#
#
# Mechanical properties :
#
#
# Convention : Reuss Voigt Hill
#
# Bulk Modulus (GPa) = 65.34636 72.20737 68.77686
# Shear Modulus (GPa) = 10.64997 20.93257 15.79127
#
# Velocity S-wave (km/s) = 2.25309 3.15875 2.74355
# Velocity P-wave (km/s) = 6.15764 6.90811 6.54364
#
# Compressibility (1/GPa) = 0.01530307
#
# Stress axis : x y z
#
# Youngs Moduli (GPa) = 34.01464 34.01464 129.05314
#
# Poissons Ratio (x) = 0.66276 0.39602
# Poissons Ratio (y) = 0.66276 0.39602
# Poissons Ratio (z) = 0.10438 0.10438
#
# Static dielectric constant tensor:
#      x y z
#    x 3.641270 0.000000 0.000000 
#    y 0.000000 3.641270 0.000000 
#    z 0.000000 0.000000 3.791810 
# 
# 
# High freq. dielectric constant tensor:
#      x y z
#    x 1.810320 0.000000 0.000000 
#    y 0.000000 1.810320 0.000000 
#    z 0.000000 0.000000 1.805210 
# 
# From -- ./inp_files/2125.got.cif
#   From: 2010.03.12/outbox.cif.g09.slc.cpg/sg101_2_cif.got.tgz:2125.got - 2010.04.14 01:38:52.
