data_PCOD8306524
_publ_section_title
;
Structure prediction by ZEFSAII (Michael W. Deem and Ramdas Pophale) SiO2 
 PCOD8306524
Probable space group: P 4 M M
;
_chemical_formula_sum "Si O2"
_cell_formula_units_Z 64
_cell_length_a 13.943288
_cell_length_b 13.943288
_cell_length_c 20.439073
_cell_angle_alpha 90.000000
_cell_angle_beta 90.000000
_cell_angle_gamma 90.000000
_cell_volume 3973.668105
_symmetry_space_group_name_H-M "P 4 M M"
_symmetry_group_IT_number 99
_symmetry_cell_setting 'tetragonal'
loop_
_space_group_symop_operation_xyz
x,y,z
-y,x,z
-x,-y,z
y,-x,z
-x,y,z
x,-y,z
-y,-x,z
y,x,z
loop_
_atom_site_type_symbol
_atom_site_label
_atom_site_fract_x
_atom_site_fract_y
_atom_site_fract_z
Si Si1 0.234279 0.610554 0.390910
Si Si2 0.390730 0.235677 0.542705
Si Si3 0.884883 0.606845 0.892474
Si Si4 0.894887 0.386050 0.032224
Si Si5 0.889677 0.732900 0.630887
Si Si6 0.392777 0.114352 0.172622
Si Si7 0.886258 0.269421 0.295597
Si Si8 0.261000 0.109410 0.778323
O O1 0.247888 0.500000 0.369683
O O2 0.332967 0.667034 0.374732
O O3 0.208151 0.618980 0.466931
O O4 0.145369 0.658224 0.352913
O O5 0.500000 0.256499 0.562180
O O6 0.331278 0.331278 0.559789
O O7 0.352046 0.146025 0.584121
O O8 0.846251 0.500000 0.880227
O O9 0.844338 0.668666 0.832230
O O10 0.000000 0.607226 0.894032
O O11 0.845237 0.646442 0.963393
O O12 0.905224 0.500000 0.029153
O O13 0.842711 0.359324 0.101266
O O14 0.000000 0.338253 0.033992
O O15 0.829814 0.829814 0.617759
O O16 0.877170 0.695947 0.705521
O O17 0.000000 0.756334 0.615013
O O18 0.500000 0.151888 0.190472
O O19 0.317544 0.146478 0.227392
O O20 0.396247 0.000000 0.167485
O O21 0.832691 0.167310 0.302251
O O22 0.000000 0.251939 0.299984
O O23 0.158317 0.158317 0.783239
O O24 0.242118 0.000000 0.795307
#
# Coordination Sequence:
#
# PCOD8306524 Si02
#       8
#     8   8   8   8   8   8   8   8
#     4   9  18  32  50  72  95 117 141 171 211 260
#     4   9  18  32  49  70  95 119 142 170 207 256
#     4   8  13  22  37  57  80 104 131 167 211 255
#     4   7  10  18  34  56  79 101 127 163 209 257
#     4   9  18  31  45  62  85 113 148 189 228 265
#     4   8  13  23  41  62  80 100 131 173 219 262
#     4  10  20  32  45  62  86 117 153 190 224 259
#     4   9  17  28  41  58  81 110 143 177 213 253
#
# _framework density 16.106026
#
# number of rings (size 3 to 8) (size 9 to 14) (size 15 to 20)
#    0.000    3.375    0.000    1.875    0.000    2.625 
#    0.000    5.625    0.000    0.000    0.000    3.500 
#    0.000    5.250    0.000    0.000    0.000    8.500 
#
# Total GULP energy -792900.527879 kJ/mol
# GULP energy per Si atom -12389.070748 kJ/mol
# Density = 1.606937 g / cm^3
# Si number density = 16.106026 Si / 1000 Ang^3
#
#
#
# Elastic Constant Matrix: (Units=GPa)
#
#
# Indices 1 2 3 4 5 6 
#
# 1 74.9056 34.4576 48.6270 0.0000 0.0000 0.0001
# 2 34.4576 74.9056 48.6270 0.0000 0.0000 -0.0001
# 3 48.6270 48.6270 99.4261 0.0000 0.0000 0.0000
# 4 0.0000 0.0000 0.0000 19.8757 0.0000 0.0000
# 5 0.0000 0.0000 0.0000 0.0000 19.8757 0.0000
# 6 0.0001 -0.0001 0.0000 0.0000 0.0000 9.7256
#
#
#
# Elastic Compliance Matrix: (Units=1/GPa)
#
#
# Indices 1 2 3 4 5 6 
#
# 1 0.020452 -0.004271 -0.007914 0.000000 0.000000 0.000000
# 2 -0.004271 0.020452 -0.007914 0.000000 0.000000 0.000000
# 3 -0.007914 -0.007914 0.017799 0.000000 0.000000 0.000000
# 4 0.000000 0.000000 0.000000 0.050313 0.000000 0.000000
# 5 0.000000 0.000000 0.000000 0.000000 0.050313 0.000000
# 6 0.000000 0.000000 0.000000 0.000000 0.000000 0.102822
#
#
# Mechanical properties :
#
#
# Convention : Reuss Voigt Hill
#
# Bulk Modulus (GPa) = 54.03683 56.96229 55.49956
# Shear Modulus (GPa) = 16.20654 17.73042 16.96848
#
# Velocity S-wave (km/s) = 3.17557 3.32151 3.24936
# Velocity P-wave (km/s) = 6.86070 7.08193 6.97219
#
# Compressibility (1/GPa) = 0.01850590
#
# Stress axis : x y z
#
# Youngs Moduli (GPa) = 48.89409 48.89409 56.18329
#
# Poissons Ratio (x) = 0.20881 0.44464
# Poissons Ratio (y) = 0.20881 0.44464
# Poissons Ratio (z) = 0.38695 0.38695
#
# Static dielectric constant tensor:
#      x y z
#    x 2.809600 0.000000 0.000000 
#    y 0.000000 2.809600 0.000000 
#    z 0.000000 0.000000 3.498060 
# 
# 
# High freq. dielectric constant tensor:
#      x y z
#    x 1.587850 0.000000 0.000000 
#    y 0.000000 1.587850 0.000000 
#    z 0.000000 0.000000 1.639770 
# 
# From -- ./inp_files/2121.got.cif
#   From: 2010.03.12/outbox.cif.g09.slc.cpg/sg99_cif.got.tgz:2121.got - 2010.04.08 21:11:30.
