data_PCOD8306220
_publ_section_title
;
Structure prediction by ZEFSAII (Michael W. Deem and Ramdas Pophale) SiO2 
 PCOD8306220
Probable space group: I 41 2 2
;
_chemical_formula_sum "Si O2"
_cell_formula_units_Z 96
_cell_length_a 27.632562
_cell_length_b 27.632562
_cell_length_c 6.482086
_cell_angle_alpha 90.000000
_cell_angle_beta 90.000000
_cell_angle_gamma 90.000000
_cell_volume 4949.451751
_symmetry_space_group_name_H-M "I 41 2 2"
_symmetry_group_IT_number 98
_symmetry_cell_setting 'tetragonal'
loop_
_space_group_symop_operation_xyz
x,y,z
-y,1/2+x,1/4+z
-x,-y,z
y,1/2-x,1/4+z
x,1/2-y,1/4-z
-x,1/2+y,1/4-z
y,x,-z
-y,-x,-z
1/2+x,1/2+y,1/2+z
1/2-y,x,3/4+z
1/2-x,1/2-y,1/2+z
1/2+y,-x,3/4+z
1/2+x,-y,3/4-z
1/2-x,y,3/4-z
1/2+y,1/2+x,1/2-z
1/2-y,1/2-x,1/2-z
loop_
_atom_site_type_symbol
_atom_site_label
_atom_site_fract_x
_atom_site_fract_y
_atom_site_fract_z
Si Si1 0.199799 0.078085 0.285451
Si Si2 0.048082 0.623860 0.792071
Si Si3 0.250000 0.818085 0.875000
Si Si4 0.031545 0.704824 0.476755
Si Si5 0.442373 0.378876 0.875805
Si Si6 0.894302 0.176090 0.117517
Si Si7 0.373965 0.126036 0.750000
O O1 0.250000 0.099212 0.375000
O O2 0.167658 0.070990 0.488583
O O3 0.176001 0.118436 0.130837
O O4 0.208252 0.026034 0.170260
O O5 0.072179 0.572179 0.750000
O O6 0.039287 0.652776 0.581515
O O7 0.998841 0.615251 0.915181
O O8 0.080942 0.656349 0.932850
O O9 0.281684 0.781684 0.750000
O O10 0.211506 0.854854 0.774697
O O11 0.045349 0.750000 0.625000
O O12 0.066821 0.704874 0.277264
O O13 0.419009 0.376073 0.652280
O O14 0.426149 0.426149 0.000000
O O15 0.867502 0.132499 0.000000
#
# Coordination Sequence:
#
# PCOD8306220 Si02
#       7
#    16  16   8  16  16  16   8
#     4   9  19  34  57  89 121 151 194 232 285 340
#     4  11  21  35  57  80 111 150 187 245 297 352
#     4  10  24  42  54  74 104 142 192 252 306 376
#     4  10  20  36  56  80 110 144 186 249 296 351
#     4   9  20  36  56  83 120 156 194 235 285 342
#     4  11  21  37  54  78 101 137 196 242 307 367
#     4  10  18  36  58  83 126 156 188 238 282 334
#
# _framework density 19.396087999999999
#
# number of rings (size 3 to 8) (size 9 to 14) (size 15 to 20)
#    0.000    2.000    1.667    2.000    0.000    1.667 
#    6.000    5.000    0.000    1.000    0.000    0.000 
#   90.000    0.000    0.000    0.000    0.000    0.000 
#
# Total GULP energy -594663.967938 kJ/mol
# GULP energy per Si atom -12388.832665 kJ/mol
# Density = 1.935194 g / cm^3
# Si number density = 19.396088 Si / 1000 Ang^3
#
#
#
# Elastic Constant Matrix: (Units=GPa)
#
#
# Indices 1 2 3 4 5 6 
#
# 1 105.6981 71.9989 39.5918 0.0000 0.0000 0.0000
# 2 71.9989 105.7001 39.5911 0.0000 0.0000 0.0000
# 3 39.5918 39.5911 71.8331 0.0000 0.0000 0.0000
# 4 0.0000 0.0000 0.0000 24.4450 0.0000 0.0000
# 5 0.0000 0.0000 0.0000 0.0000 24.4451 0.0000
# 6 0.0000 0.0000 0.0000 0.0000 0.0000 36.3856
#
#
#
# Elastic Compliance Matrix: (Units=1/GPa)
#
#
# Indices 1 2 3 4 5 6 
#
# 1 0.018567 -0.011107 -0.004112 0.000000 0.000000 0.000000
# 2 -0.011107 0.018566 -0.004111 0.000000 0.000000 0.000000
# 3 -0.004112 -0.004111 0.018453 0.000000 0.000000 0.000000
# 4 0.000000 0.000000 0.000000 0.040908 0.000000 0.000000
# 5 0.000000 0.000000 0.000000 0.000000 0.040908 0.000000
# 6 0.000000 0.000000 0.000000 0.000000 0.000000 0.027483
#
#
# Mechanical properties :
#
#
# Convention : Reuss Voigt Hill
#
# Bulk Modulus (GPa) = 59.07809 65.06610 62.07209
# Shear Modulus (GPa) = 23.90199 25.85844 24.88022
#
# Velocity S-wave (km/s) = 3.51424 3.65523 3.58543
# Velocity P-wave (km/s) = 6.85502 7.17169 7.01514
#
# Compressibility (1/GPa) = 0.01692675
#
# Stress axis : x y z
#
# Youngs Moduli (GPa) = 53.85950 53.86130 54.19102
#
# Poissons Ratio (x) = 0.59823 0.22282
# Poissons Ratio (y) = 0.59821 0.22278
# Poissons Ratio (z) = 0.22146 0.22143
#
# Static dielectric constant tensor:
#      x y z
#    x 3.808810 0.000000 0.000000 
#    y 0.000000 3.808770 0.000000 
#    z 0.000000 0.000000 3.415270 
# 
# 
# High freq. dielectric constant tensor:
#      x y z
#    x 1.757820 0.000000 0.000000 
#    y 0.000000 1.757820 0.000000 
#    z 0.000000 0.000000 1.740600 
# 
# From -- ./inp_files/2008.got.cif
#   From: 2010.03.12/outbox.cif.g09.slc.cpg/sg98_2_cif.got.tgz:2008.got - 2010.04.08 21:04:41.
