data_PCOD8306031
_publ_section_title
;
Structure prediction by ZEFSAII (Michael W. Deem and Ramdas Pophale) SiO2 
 PCOD8306031
Probable space group: I 4 2 2 
;
_chemical_formula_sum "Si O2"
_cell_formula_units_Z 68
_cell_length_a 14.089522
_cell_length_b 14.089522
_cell_length_c 20.301589
_cell_angle_alpha 90.000000
_cell_angle_beta 90.000000
_cell_angle_gamma 90.000000
_cell_volume 4030.162433
_symmetry_space_group_name_H-M "I 4 2 2 "
_symmetry_group_IT_number 97
_symmetry_cell_setting 'tetragonal'
loop_
_space_group_symop_operation_xyz
x,y,z
-y,x,z
-x,-y,z
y,-x,z
x,-y,-z
-x,y,-z
y,x,-z
-y,-x,-z
1/2+x,1/2+y,1/2+z
1/2-y,1/2+x,1/2+z
1/2-x,1/2-y,1/2+z
1/2+y,1/2-x,1/2+z
1/2+x,1/2-y,1/2-z
1/2-x,1/2+y,1/2-z
1/2+y,1/2+x,1/2-z
1/2-y,1/2-x,1/2-z
loop_
_atom_site_type_symbol
_atom_site_label
_atom_site_fract_x
_atom_site_fract_y
_atom_site_fract_z
Si Si1 0.355525 0.000002 0.577075
Si Si2 0.656200 0.499999 0.423446
Si Si3 0.361675 0.000004 0.133252
Si Si4 0.000000 0.500000 0.750000
Si Si5 0.148172 0.000005 0.578493
O O1 0.407305 0.096269 0.598111
O O2 0.252084 0.000012 0.610422
O O3 0.345647 0.000000 0.500000
O O4 0.407290 0.903729 0.598118
O O5 0.593608 0.593606 0.408811
O O6 0.688731 0.500000 0.500000
O O7 0.747634 0.499997 0.374779
O O8 0.402180 0.999999 0.207908
O O9 0.093524 0.093530 0.603579
O O10 0.151849 0.000000 0.500000
#
# Coordination Sequence:
#
# PCOD8306031 Si02
#       5
#    16  16  16   4  16
#     4   9  16  25  42  68  92 118 155 197 247 298
#     4   9  18  32  51  77 105 129 155 194 249 304
#     4  10  18  32  49  67  95 127 161 203 242 281
#     4   8  20  36  50  68  92 128 172 210 240 280
#     4   8  14  24  37  58  92 126 151 181 227 288
#
# _framework density 16.872769999999999
#
# number of rings (size 3 to 8) (size 9 to 14) (size 15 to 20)
#    0.000    3.294    0.000    4.235    0.000    1.882 
#    0.000    5.882    0.000    2.824    0.000   13.176 
#    0.000    0.000    0.000    0.000    0.000    0.000 
#
# Total GULP energy -421273.403165 kJ/mol
# GULP energy per Si atom -12390.394211 kJ/mol
# Density = 1.683437 g / cm^3
# Si number density = 16.872770 Si / 1000 Ang^3
#
#
#
# Elastic Constant Matrix: (Units=GPa)
#
#
# Indices 1 2 3 4 5 6 
#
# 1 158.2326 63.1405 35.0969 0.0000 0.0000 0.0000
# 2 63.1405 158.2326 35.0969 0.0000 0.0000 0.0000
# 3 35.0969 35.0969 64.2602 0.0000 0.0000 0.0000
# 4 0.0000 0.0000 0.0000 -72.7958 0.0000 0.0000
# 5 0.0000 0.0000 0.0000 0.0000 -72.7957 0.0000
# 6 0.0000 0.0000 0.0000 0.0000 0.0000 -13.6243
#
#
#
# Elastic Compliance Matrix: (Units=1/GPa)
#
#
# Indices 1 2 3 4 5 6 
#
# 1 0.007990 -0.002526 -0.002984 0.000000 0.000000 0.000000
# 2 -0.002526 0.007990 -0.002984 0.000000 0.000000 0.000000
# 3 -0.002984 -0.002984 0.018821 0.000000 0.000000 0.000000
# 4 0.000000 0.000000 0.000000 -0.013737 0.000000 0.000000
# 5 0.000000 0.000000 0.000000 0.000000 -0.013737 0.000000
# 6 0.000000 0.000000 0.000000 0.000000 0.000000 -0.073398
#
#
# Mechanical properties :
#
#
# Convention : Reuss Voigt Hill
#
# Bulk Modulus (GPa) = 56.14112 71.93268 64.03690
# Shear Modulus (GPa) = -115.88694 -15.35044 -65.61869
#
# Velocity S-wave (km/s) = -8.29650 -3.01952 -6.24297
# Velocity P-wave (km/s) = 7.64398 5.52886 3.73244
#
# Compressibility (1/GPa) = 0.01781225
#
# Stress axis : x y z
#
# Youngs Moduli (GPa) = 125.15993 125.15993 53.13151
#
# Poissons Ratio (x) = 0.31620 0.15854
# Poissons Ratio (y) = 0.31620 0.15854
# Poissons Ratio (z) = 0.37347 0.37347
#
# Static dielectric constant tensor:
#      x y z
#    x 3.367000 0.000000 0.000000 
#    y 0.000000 3.367000 0.000000 
#    z 0.000000 0.000000 2.822870 
# 
# 
# High freq. dielectric constant tensor:
#      x y z
#    x 1.652820 0.000000 0.000000 
#    y 0.000000 1.652820 0.000000 
#    z 0.000000 0.000000 1.608520 
# 
# From -- ./inp_files/6387.got.cif
#   From: 2010.03.12/outbox.cif.g09.slc.cpg/sg97_4_cif.got.tgz:6387.got - 2010.04.08 20:59:42.
