data_PCOD8306565
_publ_section_title
;
Structure prediction by ZEFSAII (Michael W. Deem and Ramdas Pophale) SiO2 
 PCOD8306565
Probable space group: P 4 M M
;
_chemical_formula_sum "Si O2"
_cell_formula_units_Z 64
_cell_length_a 13.256637
_cell_length_b 13.256637
_cell_length_c 20.816747
_cell_angle_alpha 90.000000
_cell_angle_beta 90.000000
_cell_angle_gamma 90.000000
_cell_volume 3658.302322
_symmetry_space_group_name_H-M "P 4 M M"
_symmetry_group_IT_number 99
_symmetry_cell_setting 'tetragonal'
loop_
_space_group_symop_operation_xyz
x,y,z
-y,x,z
-x,-y,z
y,-x,z
-x,y,z
x,-y,z
-y,-x,z
y,x,z
loop_
_atom_site_type_symbol
_atom_site_label
_atom_site_fract_x
_atom_site_fract_y
_atom_site_fract_z
Si Si1 0.612313 0.119669 0.640650
Si Si2 0.617184 0.216967 0.395018
Si Si3 0.382902 0.783893 0.880743
Si Si4 0.881727 0.719608 0.511061
Si Si5 0.721346 0.883567 0.768344
Si Si6 0.774634 0.386167 0.019959
Si Si7 0.717984 0.883028 0.275624
Si Si8 0.618393 0.784341 0.159496
O O1 0.500000 0.166405 0.637904
O O2 0.674075 0.155286 0.578581
O O3 0.666938 0.159056 0.704729
O O4 0.605028 0.000000 0.642104
O O5 0.500000 0.245121 0.393792
O O6 0.678893 0.321107 0.399124
O O7 0.640133 0.146009 0.455838
O O8 0.644811 0.155166 0.331516
O O9 0.500000 0.755765 0.871632
O O10 0.317426 0.682575 0.869857
O O11 0.351891 0.868077 0.829184
O O12 0.362836 0.832470 0.952503
O O13 0.825253 0.825253 0.498824
O O14 0.000000 0.742397 0.510224
O O15 0.825930 0.825930 0.778927
O O16 0.748607 0.000000 0.761082
O O17 0.740315 0.500000 0.021024
O O18 0.669636 0.330365 0.018770
O O19 0.831483 0.361659 0.087458
O O20 0.823748 0.823748 0.277189
O O21 0.659821 0.867280 0.208596
O O22 0.743076 0.000000 0.284995
O O23 0.500000 0.763317 0.171587
O O24 0.679022 0.679022 0.169134
#
# Coordination Sequence:
#
# PCOD8306565 Si02
#       8
#     8   8   8   8   8   8   8   8
#     4   9  17  30  49  71  94 122 156 194 237 284
#     4  10  21  36  54  77 103 131 164 200 240 289
#     4   9  17  29  46  69  96 126 159 194 235 284
#     4  10  20  33  50  74 103 135 172 210 246 285
#     4  10  20  33  49  69  93 123 160 201 245 292
#     4   8  14  25  41  63  93 125 156 192 232 277
#     4  10  21  36  53  73  96 124 160 201 244 289
#     4   9  17  29  46  70  99 129 160 193 232 281
#
# _framework density 17.494454000000001
#
# number of rings (size 3 to 8) (size 9 to 14) (size 15 to 20)
#    0.000    2.625    0.000    1.875    0.000    3.875 
#    0.000    3.125    0.000    9.000    0.000    0.000 
#    0.000   14.000    0.000    0.000    0.000    0.000 
#
# Total GULP energy -793203.094126 kJ/mol
# GULP energy per Si atom -12393.798346 kJ/mol
# Density = 1.745464 g / cm^3
# Si number density = 17.494454 Si / 1000 Ang^3
#
#
#
# Elastic Constant Matrix: (Units=GPa)
#
#
# Indices 1 2 3 4 5 6 
#
# 1 85.6341 33.1584 39.0371 0.0000 0.0000 -0.0003
# 2 33.1584 85.6341 39.0371 0.0000 0.0000 0.0003
# 3 39.0371 39.0371 145.9873 0.0000 0.0000 0.0000
# 4 0.0000 0.0000 0.0000 23.8114 0.0000 0.0000
# 5 0.0000 0.0000 0.0000 0.0000 23.8114 0.0000
# 6 -0.0003 0.0003 0.0000 0.0000 0.0000 11.0714
#
#
#
# Elastic Compliance Matrix: (Units=1/GPa)
#
#
# Indices 1 2 3 4 5 6 
#
# 1 0.014635 -0.004422 -0.002731 0.000000 0.000000 0.000001
# 2 -0.004422 0.014635 -0.002731 0.000000 0.000000 -0.000001
# 3 -0.002731 -0.002731 0.008310 0.000000 0.000000 0.000000
# 4 0.000000 0.000000 0.000000 0.041997 0.000000 0.000000
# 5 0.000000 0.000000 0.000000 0.000000 0.041997 0.000000
# 6 0.000001 -0.000001 0.000000 0.000000 0.000000 0.090323
#
#
# Mechanical properties :
#
#
# Convention : Reuss Voigt Hill
#
# Bulk Modulus (GPa) = 56.14045 59.96897 58.05471
# Shear Modulus (GPa) = 21.04371 25.47369 23.25870
#
# Velocity S-wave (km/s) = 3.47202 3.82003 3.65017
# Velocity P-wave (km/s) = 6.94502 7.33554 7.14295
#
# Compressibility (1/GPa) = 0.01781247
#
# Stress axis : x y z
#
# Youngs Moduli (GPa) = 68.33093 68.33093 120.33087
#
# Poissons Ratio (x) = 0.30214 0.32862
# Poissons Ratio (y) = 0.30214 0.32862
# Poissons Ratio (z) = 0.18661 0.18661
#
# Static dielectric constant tensor:
#      x y z
#    x 3.012530 0.000000 0.000000 
#    y 0.000000 3.012530 0.000000 
#    z 0.000000 0.000000 3.790390 
# 
# 
# High freq. dielectric constant tensor:
#      x y z
#    x 1.655990 0.000000 0.000000 
#    y 0.000000 1.655990 0.000000 
#    z 0.000000 0.000000 1.704860 
# 
# From -- ./inp_files/2292.got.cif
#   From: 2010.03.12/outbox.cif.g09.slc.cpg/sg99_cif.got.tgz:2292.got - 2010.04.08 21:11:30.
