data_PCOD8306438
_publ_section_title
;
Structure prediction by ZEFSAII (Michael W. Deem and Ramdas Pophale) SiO2 
 PCOD8306438
Probable space group: P 4 M M
;
_chemical_formula_sum "Si O2"
_cell_formula_units_Z 64
_cell_length_a 14.243916
_cell_length_b 14.243916
_cell_length_c 20.144884
_cell_angle_alpha 90.000000
_cell_angle_beta 90.000000
_cell_angle_gamma 90.000000
_cell_volume 4087.178251
_symmetry_space_group_name_H-M "P 4 M M"
_symmetry_group_IT_number 99
_symmetry_cell_setting 'tetragonal'
loop_
_space_group_symop_operation_xyz
x,y,z
-y,x,z
-x,-y,z
y,-x,z
-x,y,z
x,-y,z
-y,-x,z
y,x,z
loop_
_atom_site_type_symbol
_atom_site_label
_atom_site_fract_x
_atom_site_fract_y
_atom_site_fract_z
Si Si1 0.608310 0.892827 0.039950
Si Si2 0.762675 0.608928 0.688025
Si Si3 0.896059 0.611493 0.427889
Si Si4 0.106499 0.742976 0.923327
Si Si5 0.109346 0.737706 0.771585
Si Si6 0.606919 0.755885 0.536671
Si Si7 0.104971 0.611199 0.280392
Si Si8 0.388907 0.236493 0.162877
O O1 0.500000 0.880182 0.023496
O O2 0.639160 0.825182 0.099308
O O3 0.631007 0.000000 0.060920
O O4 0.660398 0.862842 0.972687
O O5 0.745888 0.500000 0.707482
O O6 0.666345 0.666345 0.701947
O O7 0.848522 0.651557 0.729781
O O8 0.794038 0.618000 0.611396
O O9 0.899270 0.500000 0.433673
O O10 0.829529 0.653122 0.485245
O O11 0.860932 0.640975 0.354262
O O12 0.000000 0.652563 0.439809
O O13 0.165503 0.834498 0.940139
O O14 0.122073 0.708214 0.848193
O O15 0.000000 0.773207 0.935226
O O16 0.165675 0.834326 0.756228
O O17 0.000000 0.753195 0.753233
O O18 0.500000 0.736634 0.517924
O O19 0.656736 0.656736 0.528196
O O20 0.099558 0.500000 0.274414
O O21 0.179334 0.648621 0.226885
O O22 0.000000 0.651427 0.266520
O O23 0.500000 0.256830 0.166039
O O24 0.335845 0.335845 0.159691
#
# Coordination Sequence:
#
# PCOD8306438 Si02
#       8
#     8   8   8   8   8   8   8   8
#     4   9  17  29  45  64  84 107 139 178 214 245
#     4   9  18  31  45  63  87 115 149 187 224 262
#     4   8  14  25  41  60  81 105 134 169 208 246
#     4   9  17  29  45  65  89 114 138 167 206 254
#     4   9  18  31  46  66  91 117 145 177 215 262
#     4   9  17  28  42  61  86 115 144 173 207 249
#     4   8  14  26  43  60  78 102 134 173 212 244
#     4  10  19  29  42  60  83 112 142 171 206 248
#
# _framework density 15.658725
#
# number of rings (size 3 to 8) (size 9 to 14) (size 15 to 20)
#    0.000    3.125    0.000    1.500    0.000    3.875 
#    0.000    5.000    0.000    0.000    0.000    3.500 
#    0.000    5.500    0.000    5.500    0.000    1.500 
#
# Total GULP energy -793303.309886 kJ/mol
# GULP energy per Si atom -12395.364217 kJ/mol
# Density = 1.562308 g / cm^3
# Si number density = 15.658725 Si / 1000 Ang^3
#
#
#
# Elastic Constant Matrix: (Units=GPa)
#
#
# Indices 1 2 3 4 5 6 
#
# 1 79.3122 44.8733 56.0892 0.0000 0.0000 -0.0002
# 2 44.8733 79.3122 56.0892 0.0000 0.0000 0.0002
# 3 56.0892 56.0892 102.1984 0.0000 0.0000 0.0000
# 4 0.0000 0.0000 0.0000 23.6396 0.0000 0.0000
# 5 0.0000 0.0000 0.0000 0.0000 23.6396 0.0000
# 6 -0.0002 0.0002 0.0000 0.0000 0.0000 17.7980
#
#
#
# Elastic Compliance Matrix: (Units=1/GPa)
#
#
# Indices 1 2 3 4 5 6 
#
# 1 0.022503 -0.006534 -0.008765 0.000000 0.000000 0.000000
# 2 -0.006534 0.022503 -0.008765 0.000000 0.000000 0.000000
# 3 -0.008765 -0.008765 0.019405 0.000000 0.000000 0.000000
# 4 0.000000 0.000000 0.000000 0.042302 0.000000 0.000000
# 5 0.000000 0.000000 0.000000 0.000000 0.042302 0.000000
# 6 0.000000 0.000000 0.000000 0.000000 0.000000 0.056186
#
#
# Mechanical properties :
#
#
# Convention : Reuss Voigt Hill
#
# Bulk Modulus (GPa) = 61.40113 63.88069 62.64091
# Shear Modulus (GPa) = 19.32320 19.93348 19.62834
#
# Velocity S-wave (km/s) = 3.51667 3.57178 3.54433
# Velocity P-wave (km/s) = 7.46904 7.60883 7.53926
#
# Compressibility (1/GPa) = 0.01628634
#
# Stress axis : x y z
#
# Youngs Moduli (GPa) = 44.43798 44.43798 51.53225
#
# Poissons Ratio (x) = 0.29034 0.45166
# Poissons Ratio (y) = 0.29034 0.45166
# Poissons Ratio (z) = 0.38948 0.38948
#
# Static dielectric constant tensor:
#      x y z
#    x 2.884280 0.000000 0.000000 
#    y 0.000000 2.884280 0.000000 
#    z 0.000000 0.000000 3.218740 
# 
# 
# High freq. dielectric constant tensor:
#      x y z
#    x 1.582470 0.000000 0.000000 
#    y 0.000000 1.582470 0.000000 
#    z 0.000000 0.000000 1.611740 
# 
# From -- ./inp_files/2059.got.cif
#   From: 2010.03.12/outbox.cif.g09.slc.cpg/sg99_cif.got.tgz:2059.got - 2010.04.08 21:11:30.
