data_PCOD8306007
_publ_section_title
;
Structure prediction by ZEFSAII (Michael W. Deem and Ramdas Pophale) SiO2 
 PCOD8306007
Probable space group: P 43 21 2
;
_chemical_formula_sum "Si O2"
_cell_formula_units_Z 60
_cell_length_a 17.949682
_cell_length_b 17.949682
_cell_length_c 8.468641
_cell_angle_alpha 90.000000
_cell_angle_beta 90.000000
_cell_angle_gamma 90.000000
_cell_volume 2728.520623
_symmetry_space_group_name_H-M "P 43 21 2"
_symmetry_group_IT_number 96
_symmetry_cell_setting 'tetragonal'
loop_
_space_group_symop_operation_xyz
x,y,z
1/2-y,1/2+x,3/4+z
-x,-y,1/2+z
1/2+y,1/2-x,1/4+z
1/2+x,1/2-y,1/4-z
1/2-x,1/2+y,3/4-z
y,x,-z
-y,-x,1/2-z
loop_
_atom_site_type_symbol
_atom_site_label
_atom_site_fract_x
_atom_site_fract_y
_atom_site_fract_z
Si Si1 0.339136 0.110503 0.041810
Si Si2 0.647008 0.534163 0.467894
Si Si3 0.635710 0.209651 0.952665
Si Si4 0.695309 0.367645 0.030092
Si Si5 0.078032 0.078032 0.000000
Si Si6 0.976129 0.776102 0.004820
Si Si7 0.122421 0.760156 0.218373
Si Si8 0.550263 0.796854 0.725760
O O1 0.273348 0.152736 0.136573
O O2 0.416006 0.137394 0.118539
O O3 0.342148 0.128861 0.856066
O O4 0.328848 0.022375 0.062846
O O5 0.618293 0.618293 0.500000
O O6 0.582626 0.494185 0.362818
O O7 0.655822 0.494414 0.637288
O O8 0.726817 0.533214 0.385247
O O9 0.558867 0.206915 0.848689
O O10 0.708299 0.185455 0.856933
O O11 0.645799 0.294283 0.011052
O O12 0.652550 0.424811 0.144752
O O13 0.702151 0.406994 0.862970
O O14 0.049558 0.758080 0.106872
O O15 0.157228 0.842773 0.250000
O O16 0.106477 0.726760 0.388688
#
# Coordination Sequence:
#
# PCOD8306007 Si02
#       8
#     8   8   8   8   4   8   8   8
#     4  12  24  46  76 102 141 190 232 306 363 434
#     4  12  26  45  68 104 149 195 242 295 364 432
#     4  12  24  42  73 105 135 185 246 285 350 435
#     4  12  21  43  72 100 136 186 234 287 347 426
#     4  12  22  44  66 100 148 194 238 280 360 436
#     4  12  23  41  69 101 141 178 228 297 347 418
#     4  12  26  43  70 110 140 177 235 300 366 427
#     4  12  25  49  71 104 148 186 241 301 374 436
#
# _framework density 21.989937000000001
#
# number of rings (size 3 to 8) (size 9 to 14) (size 15 to 20)
#    0.000    0.000    6.667    4.400    0.000    2.133 
#    0.000    2.000    0.000    0.000    0.000    0.000 
#    0.000    0.000    0.000    0.000    0.000    0.000 
#
# Total GULP energy -743985.037787 kJ/mol
# GULP energy per Si atom -12399.750630 kJ/mol
# Density = 2.193989 g / cm^3
# Si number density = 21.989937 Si / 1000 Ang^3
#
#
#
# Elastic Constant Matrix: (Units=GPa)
#
#
# Indices 1 2 3 4 5 6 
#
# 1 78.9120 42.4749 35.8398 0.0000 0.0000 0.0000
# 2 42.4749 78.9105 35.8393 0.0000 0.0000 0.0000
# 3 35.8398 35.8393 138.0293 0.0000 0.0000 0.0000
# 4 0.0000 0.0000 0.0000 36.3926 0.0000 0.0000
# 5 0.0000 0.0000 0.0000 0.0000 36.3939 0.0000
# 6 0.0000 0.0000 0.0000 0.0000 0.0000 36.4123
#
#
#
# Elastic Compliance Matrix: (Units=1/GPa)
#
#
# Indices 1 2 3 4 5 6 
#
# 1 0.018587 -0.008858 -0.002526 0.000000 0.000000 0.000000
# 2 -0.008858 0.018588 -0.002526 0.000000 0.000000 0.000000
# 3 -0.002526 -0.002526 0.008557 0.000000 0.000000 0.000000
# 4 0.000000 0.000000 0.000000 0.027478 0.000000 0.000000
# 5 0.000000 0.000000 0.000000 0.000000 0.027477 0.000000
# 6 0.000000 0.000000 0.000000 0.000000 0.000000 0.027463
#
#
# Mechanical properties :
#
#
# Convention : Reuss Voigt Hill
#
# Bulk Modulus (GPa) = 55.83096 58.23997 57.03547
# Shear Modulus (GPa) = 30.87531 33.95294 32.41412
#
# Velocity S-wave (km/s) = 3.75115 3.93367 3.84349
# Velocity P-wave (km/s) = 6.64876 6.86833 6.75944
#
# Compressibility (1/GPa) = 0.01791121
#
# Stress axis : x y z
#
# Youngs Moduli (GPa) = 53.79981 53.79884 116.86588
#
# Poissons Ratio (x) = 0.47653 0.29525
# Poissons Ratio (y) = 0.47653 0.29525
# Poissons Ratio (z) = 0.13592 0.13592
#
# Static dielectric constant tensor:
#      x y z
#    x 3.802900 0.000000 0.000000 
#    y 0.000000 3.802910 0.000000 
#    z 0.000000 0.000000 4.439100 
# 
# 
# High freq. dielectric constant tensor:
#      x y z
#    x 1.850190 0.000000 0.000000 
#    y 0.000000 1.850190 0.000000 
#    z 0.000000 0.000000 1.897450 
# 
# From -- ./inp_files/1612.got.cif
#   From: 2010.03.12/outbox.cif.g09.slc.cpg/sg96_1_cif.got.tgz:1612.got - 2010.04.08 20:56:49.
