data_PCOD8306952
_publ_section_title
;
Structure prediction by ZEFSAII (Michael W. Deem and Ramdas Pophale) SiO2 
 PCOD8306952
Probable space group: P 42 N M
;
_chemical_formula_sum "Si O2"
_cell_formula_units_Z 48
_cell_length_a 17.864245
_cell_length_b 17.864245
_cell_length_c 9.716141
_cell_angle_alpha 90.000000
_cell_angle_beta 90.000000
_cell_angle_gamma 90.000000
_cell_volume 3100.724217
_symmetry_space_group_name_H-M "P 42 N M"
_symmetry_group_IT_number 102
_symmetry_cell_setting 'tetragonal'
loop_
_space_group_symop_operation_xyz
x,y,z
1/2-y,1/2+x,1/2+z
-x,-y,z
1/2+y,1/2-x,1/2+z
1/2-x,1/2+y,1/2+z
1/2+x,1/2-y,1/2+z
-y,-x,z
y,x,z
loop_
_atom_site_type_symbol
_atom_site_label
_atom_site_fract_x
_atom_site_fract_y
_atom_site_fract_z
Si Si1 0.578834 0.303838 0.100380
Si Si2 0.287975 0.411175 0.424217
Si Si3 0.682970 0.808602 0.610917
Si Si4 0.787975 0.088825 0.603353
Si Si5 0.317030 0.191398 0.916653
Si Si6 0.303838 0.578834 0.427190
O O1 0.625966 0.374035 0.038377
O O2 0.616331 0.224555 0.056584
O O3 0.493818 0.307376 0.046993
O O4 0.581041 0.309580 0.263785
O O5 0.360144 0.360144 0.453572
O O6 0.214992 0.382038 0.505462
O O7 0.266966 0.411815 0.263785
O O8 0.307376 0.493818 0.480577
O O9 0.744435 0.744435 0.618634
O O10 0.648596 0.820959 0.763785
O O11 0.860146 0.139855 0.573999
O O12 0.714993 0.117963 0.522108
O O13 0.255562 0.255562 0.908935
O O14 0.275446 0.116330 0.970985
O O15 0.374034 0.625967 0.489193
#
# Coordination Sequence:
#
# PCOD8306952 Si02
#       6
#     8   8   8   8   8   8
#     4   8  14  25  41  60  81 106 133 158 190 236
#     4   9  16  25  40  63  85 101 124 164 204 231
#     4   8  14  26  42  56  74 105 139 161 182 226
#     4   9  16  25  40  63  85 101 124 164 204 231
#     4   8  14  26  42  56  74 105 139 161 182 226
#     4   8  14  25  41  60  81 106 133 158 190 236
#
# _framework density 15.480254
#
# number of rings (size 3 to 8) (size 9 to 14) (size 15 to 20)
#    0.000    3.667    0.000    2.000    0.000    0.667 
#    0.000    5.000    0.000    4.000    0.000   11.667 
#    0.000    0.000    0.000    0.000    0.000    0.000 
#
# Total GULP energy -594802.597106 kJ/mol
# GULP energy per Si atom -12391.720773 kJ/mol
# Density = 1.544502 g / cm^3
# Si number density = 15.480254 Si / 1000 Ang^3
#
#
#
# Elastic Constant Matrix: (Units=GPa)
#
#
# Indices 1 2 3 4 5 6 
#
# 1 83.5863 71.8247 35.2737 0.0000 0.0000 -0.0002
# 2 71.8247 83.5863 35.2737 0.0000 0.0000 0.0002
# 3 35.2737 35.2737 41.2698 0.0000 0.0000 0.0000
# 4 0.0000 0.0000 0.0000 18.5735 0.0000 0.0000
# 5 0.0000 0.0000 0.0000 0.0000 18.5735 0.0000
# 6 -0.0002 0.0002 0.0000 0.0000 0.0000 17.1295
#
#
#
# Elastic Compliance Matrix: (Units=1/GPa)
#
#
# Indices 1 2 3 4 5 6 
#
# 1 0.047768 -0.037254 -0.008986 0.000000 0.000000 0.000001
# 2 -0.037254 0.047768 -0.008986 0.000000 0.000000 -0.000001
# 3 -0.008986 -0.008986 0.039592 0.000000 0.000000 0.000000
# 4 0.000000 0.000000 0.000000 0.053840 0.000000 0.000000
# 5 0.000000 0.000000 0.000000 0.000000 0.053840 0.000000
# 6 0.000001 -0.000001 0.000000 0.000000 0.000000 0.058379
#
#
# Mechanical properties :
#
#
# Convention : Reuss Voigt Hill
#
# Bulk Modulus (GPa) = 40.52741 54.79850 47.66296
# Shear Modulus (GPa) = 11.90858 15.26001 13.58429
#
# Velocity S-wave (km/s) = 2.77659 3.14311 2.96552
# Velocity P-wave (km/s) = 6.04286 6.97481 6.52549
#
# Compressibility (1/GPa) = 0.02467466
#
# Stress axis : x y z
#
# Youngs Moduli (GPa) = 20.93446 20.93446 25.25771
#
# Poissons Ratio (x) = 0.77990 0.22697
# Poissons Ratio (y) = 0.77990 0.22697
# Poissons Ratio (z) = 0.18812 0.18812
#
# Static dielectric constant tensor:
#      x y z
#    x 3.139320 0.000000 0.000000 
#    y 0.000000 3.139320 0.000000 
#    z 0.000000 0.000000 2.845570 
# 
# 
# High freq. dielectric constant tensor:
#      x y z
#    x 1.580770 0.000000 0.000000 
#    y 0.000000 1.580770 0.000000 
#    z 0.000000 0.000000 1.562130 
# 
# From -- ./inp_files/1031.got.cif
#   From: 2010.03.12/outbox.cif.g09.slc.cpg/sg102_1_cif.got.tgz:1031.got - 2010.04.14 01:40:42.
