data_PCOD8306283
_publ_section_title
;
Structure prediction by ZEFSAII (Michael W. Deem and Ramdas Pophale) SiO2 
 PCOD8306283
Probable space group: I 41 2 2
;
_chemical_formula_sum "Si O2"
_cell_formula_units_Z 64
_cell_length_a 14.889460
_cell_length_b 14.889460
_cell_length_c 14.251538
_cell_angle_alpha 90.000000
_cell_angle_beta 90.000000
_cell_angle_gamma 90.000000
_cell_volume 3159.509241
_symmetry_space_group_name_H-M "I 41 2 2"
_symmetry_group_IT_number 98
_symmetry_cell_setting 'tetragonal'
loop_
_space_group_symop_operation_xyz
x,y,z
-y,1/2+x,1/4+z
-x,-y,z
y,1/2-x,1/4+z
x,1/2-y,1/4-z
-x,1/2+y,1/4-z
y,x,-z
-y,-x,-z
1/2+x,1/2+y,1/2+z
1/2-y,x,3/4+z
1/2-x,1/2-y,1/2+z
1/2+y,-x,3/4+z
1/2+x,-y,3/4-z
1/2-x,y,3/4-z
1/2+y,1/2+x,1/2-z
1/2-y,1/2-x,1/2-z
loop_
_atom_site_type_symbol
_atom_site_label
_atom_site_fract_x
_atom_site_fract_y
_atom_site_fract_z
Si Si1 0.372913 0.491466 0.551476
Si Si2 0.160491 0.969155 0.254309
Si Si3 0.865094 0.994687 0.461854
Si Si4 0.736998 0.382644 0.268943
O O1 0.395632 0.395632 0.500000
O O2 0.436405 0.563596 0.500000
O O3 0.388312 0.485075 0.663969
O O4 0.272025 0.530377 0.539697
O O5 0.138408 0.864180 0.257563
O O6 0.124127 0.012699 0.349397
O O7 0.266492 0.985121 0.250781
O O8 0.898380 0.898380 0.500000
O O9 0.926212 0.073789 0.500000
O O10 0.750000 0.412284 0.375000
O O11 0.792270 0.292270 0.250000
#
# Coordination Sequence:
#
# PCOD8306283 Si02
#       4
#    16  16  16  16
#     4  10  21  37  54  88 128 159 196 246 312 361
#     4  11  21  39  62  85 121 162 200 262 296 364
#     4  10  23  39  59  91 122 161 205 249 311 364
#     4  11  20  34  56  92 124 157 201 249 302 359
#
# _framework density 20.256311
#
# number of rings (size 3 to 8) (size 9 to 14) (size 15 to 20)
#    0.000    1.500    5.000    2.250    3.500    4.000 
#    4.500    0.000    0.000    6.000    0.000    1.750 
#    0.000    0.000    0.000    0.000    0.000    0.000 
#
# Total GULP energy -396584.310961 kJ/mol
# GULP energy per Si atom -12393.259718 kJ/mol
# Density = 2.021021 g / cm^3
# Si number density = 20.256311 Si / 1000 Ang^3
#
#
#
# Elastic Constant Matrix: (Units=GPa)
#
#
# Indices 1 2 3 4 5 6 
#
# 1 80.1051 70.0767 44.8314 0.0000 0.0000 0.0000
# 2 70.0767 80.1035 44.8323 0.0000 0.0000 0.0000
# 3 44.8314 44.8323 180.5695 0.0000 0.0000 0.0000
# 4 0.0000 0.0000 0.0000 32.4415 0.0000 0.0000
# 5 0.0000 0.0000 0.0000 0.0000 32.4426 0.0000
# 6 0.0000 0.0000 0.0000 0.0000 0.0000 37.2511
#
#
#
# Elastic Compliance Matrix: (Units=1/GPa)
#
#
# Indices 1 2 3 4 5 6 
#
# 1 0.053770 -0.045954 -0.001940 0.000000 0.000000 0.000000
# 2 -0.045954 0.053772 -0.001941 0.000000 0.000000 0.000000
# 3 -0.001940 -0.001941 0.006502 0.000000 0.000000 0.000000
# 4 0.000000 0.000000 0.000000 0.030825 0.000000 0.000000
# 5 0.000000 0.000000 0.000000 0.000000 0.030824 0.000000
# 6 0.000000 0.000000 0.000000 0.000000 0.000000 0.026845
#
#
# Mechanical properties :
#
#
# Convention : Reuss Voigt Hill
#
# Bulk Modulus (GPa) = 69.57480 73.36210 71.46845
# Shear Modulus (GPa) = 16.28666 32.49622 24.39144
#
# Velocity S-wave (km/s) = 2.83862 4.00966 3.47384
# Velocity P-wave (km/s) = 6.72052 7.59816 7.17278
#
# Compressibility (1/GPa) = 0.01437302
#
# Stress axis : x y z
#
# Youngs Moduli (GPa) = 18.59758 18.59705 153.80323
#
# Poissons Ratio (x) = 0.85460 0.29845
# Poissons Ratio (y) = 0.85463 0.29859
# Poissons Ratio (z) = 0.03609 0.03610
#
# Static dielectric constant tensor:
#      x y z
#    x 3.782160 0.000000 0.000000 
#    y 0.000000 3.782170 0.000000 
#    z 0.000000 0.000000 4.059370 
# 
# 
# High freq. dielectric constant tensor:
#      x y z
#    x 1.768580 0.000000 0.000000 
#    y 0.000000 1.768580 0.000000 
#    z 0.000000 0.000000 1.818780 
# 
# From -- ./inp_files/6252.got.cif
#   From: 2010.03.12/outbox.cif.g09.slc.cpg/sg98_4_cif.got.tgz:6252.got - 2010.04.08 21:04:41.
