data_PCOD8306932
_publ_section_title
;
Structure prediction by ZEFSAII (Michael W. Deem and Ramdas Pophale) SiO2 
 PCOD8306932
Probable space group: P 42 N M
;
_chemical_formula_sum "Si O2"
_cell_formula_units_Z 56
_cell_length_a 15.344401
_cell_length_b 15.344401
_cell_length_c 11.063949
_cell_angle_alpha 90.000000
_cell_angle_beta 90.000000
_cell_angle_gamma 90.000000
_cell_volume 2605.013896
_symmetry_space_group_name_H-M "P 42 N M"
_symmetry_group_IT_number 102
_symmetry_cell_setting 'tetragonal'
loop_
_space_group_symop_operation_xyz
x,y,z
1/2-y,1/2+x,1/2+z
-x,-y,z
1/2+y,1/2-x,1/2+z
1/2-x,1/2+y,1/2+z
1/2+x,1/2-y,1/2+z
-y,-x,z
y,x,z
loop_
_atom_site_type_symbol
_atom_site_label
_atom_site_fract_x
_atom_site_fract_y
_atom_site_fract_z
Si Si1 0.394380 0.943020 0.379690
Si Si2 0.242651 0.378316 0.284522
Si Si3 0.685830 0.832893 0.684538
Si Si4 0.472472 0.166431 0.494711
Si Si5 0.750293 0.500684 0.067325
Si Si6 0.564258 0.192125 0.719991
Si Si7 0.498029 0.360202 0.844243
O O1 0.350530 0.856118 0.317211
O O2 0.492799 0.922853 0.429391
O O3 0.337050 0.981925 0.489045
O O4 0.394734 0.016523 0.273744
O O5 0.323795 0.323795 0.330845
O O6 0.231006 0.452686 0.384823
O O7 0.261697 0.418214 0.155159
O O8 0.161842 0.310609 0.270113
O O9 0.743401 0.743401 0.685136
O O10 0.611424 0.835457 0.580487
O O11 0.746830 0.913128 0.646569
O O12 0.557264 0.194541 0.574186
O O13 0.664781 0.495518 0.984682
O O14 0.508537 0.274866 0.763682
O O15 0.574046 0.425955 0.809590
O O16 0.404453 0.404453 0.816690
#
# Coordination Sequence:
#
# PCOD8306932 Si02
#       7
#     8   8   8   8   8   8   8
#     4  10  22  41  61  93 125 164 208 259 314 375
#     4  12  24  39  62  94 131 167 210 262 321 386
#     4  11  24  42  66  92 129 173 215 259 317 388
#     4  11  22  41  60  97 127 168 209 259 321 380
#     4  11  22  40  63  94 124 168 214 261 318 380
#     4  10  23  40  64  92 126 170 212 259 320 384
#     4  10  21  39  64  92 123 164 218 271 314 368
#
# _framework density 21.497007
#
# number of rings (size 3 to 8) (size 9 to 14) (size 15 to 20)
#    0.000    1.286    2.857    3.429    0.000    8.571 
#    0.000    0.000    0.000    0.000    0.000    0.000 
#    0.000    0.000    0.000    0.000    0.000    0.000 
#
# Total GULP energy -693898.629660 kJ/mol
# GULP energy per Si atom -12391.046958 kJ/mol
# Density = 2.144808 g / cm^3
# Si number density = 21.497007 Si / 1000 Ang^3
#
#
#
# Elastic Constant Matrix: (Units=GPa)
#
#
# Indices 1 2 3 4 5 6 
#
# 1 64.6529 13.6909 14.8326 0.0000 0.0000 0.0005
# 2 13.6909 64.6529 14.8326 0.0000 0.0000 -0.0005
# 3 14.8326 14.8326 97.6508 0.0000 0.0000 0.0000
# 4 0.0000 0.0000 0.0000 26.3409 0.0000 0.0000
# 5 0.0000 0.0000 0.0000 0.0000 26.3409 0.0000
# 6 0.0005 -0.0005 0.0000 0.0000 0.0000 35.1593
#
#
#
# Elastic Compliance Matrix: (Units=1/GPa)
#
#
# Indices 1 2 3 4 5 6 
#
# 1 0.016583 -0.003040 -0.002057 0.000000 0.000000 0.000000
# 2 -0.003040 0.016583 -0.002057 0.000000 0.000000 0.000000
# 3 -0.002057 -0.002057 0.010865 0.000000 0.000000 0.000000
# 4 0.000000 0.000000 0.000000 0.037964 0.000000 0.000000
# 5 0.000000 0.000000 0.000000 0.000000 0.037964 0.000000
# 6 0.000000 0.000000 0.000000 0.000000 0.000000 0.028442
#
#
# Mechanical properties :
#
#
# Convention : Reuss Voigt Hill
#
# Bulk Modulus (GPa) = 33.64355 34.85207 34.24781
# Shear Modulus (GPa) = 28.96597 29.80825 29.38711
#
# Velocity S-wave (km/s) = 3.67473 3.72778 3.70135
# Velocity P-wave (km/s) = 5.80424 5.89713 5.85087
#
# Compressibility (1/GPa) = 0.02972338
#
# Stress axis : x y z
#
# Youngs Moduli (GPa) = 60.30332 60.30332 92.03443
#
# Poissons Ratio (x) = 0.18330 0.18933
# Poissons Ratio (y) = 0.18330 0.18933
# Poissons Ratio (z) = 0.12405 0.12405
#
# Static dielectric constant tensor:
#      x y z
#    x 3.820790 0.000000 0.000000 
#    y 0.000000 3.820790 0.000000 
#    z 0.000000 0.000000 4.169500 
# 
# 
# High freq. dielectric constant tensor:
#      x y z
#    x 1.834690 0.000000 0.000000 
#    y 0.000000 1.834690 0.000000 
#    z 0.000000 0.000000 1.853800 
# 
# From -- ./inp_files/1826.got.cif
#   From: 2010.03.12/outbox.cif.g09.slc.cpg/sg102_1_cif.got.tgz:1826.got - 2010.04.14 01:40:42.
