data_PCOD8306888
_publ_section_title
;
Structure prediction by ZEFSAII (Michael W. Deem and Ramdas Pophale) SiO2 
 PCOD8306888
Probable space group: P 42 N M
;
_chemical_formula_sum "Si O2"
_cell_formula_units_Z 64
_cell_length_a 12.479258
_cell_length_b 12.479258
_cell_length_c 22.506326
_cell_angle_alpha 90.000000
_cell_angle_beta 90.000000
_cell_angle_gamma 90.000000
_cell_volume 3504.952465
_symmetry_space_group_name_H-M "P 42 N M"
_symmetry_group_IT_number 102
_symmetry_cell_setting 'tetragonal'
loop_
_space_group_symop_operation_xyz
x,y,z
1/2-y,1/2+x,1/2+z
-x,-y,z
1/2+y,1/2-x,1/2+z
1/2-x,1/2+y,1/2+z
1/2+x,1/2-y,1/2+z
-y,-x,z
y,x,z
loop_
_atom_site_type_symbol
_atom_site_label
_atom_site_fract_x
_atom_site_fract_y
_atom_site_fract_z
Si Si1 0.681860 0.862328 0.309020
Si Si2 0.952593 0.384815 0.698501
Si Si3 0.830379 0.007155 0.243783
Si Si4 0.431482 0.892046 0.934591
Si Si5 0.596692 0.767689 0.536320
Si Si6 0.822217 0.001163 0.495459
Si Si7 0.753907 0.415279 0.113153
Si Si8 0.577303 0.248174 0.625649
O O1 0.767934 0.767934 0.318437
O O2 0.600923 0.829553 0.256135
O O3 0.617538 0.887354 0.368177
O O4 0.735213 0.974725 0.288003
O O5 0.872985 0.396581 0.642822
O O6 0.000000 0.500000 0.716545
O O7 0.040123 0.302492 0.674075
O O8 0.872766 0.127235 0.257717
O O9 0.795573 0.003020 0.175165
O O10 0.924635 0.924635 0.255352
O O11 0.495858 0.783303 0.953231
O O12 0.500000 0.000000 0.940848
O O13 0.326723 0.908973 0.973899
O O14 0.654958 0.654958 0.526324
O O15 0.657375 0.840393 0.583764
O O16 0.477990 0.745995 0.561331
O O17 0.894549 0.894549 0.483883
O O18 0.783609 0.003256 0.564110
O O19 0.891628 0.108373 0.481782
O O20 0.651059 0.348942 0.133727
O O21 0.687741 0.312260 0.623272
#
# Coordination Sequence:
#
# PCOD8306888 Si02
#       8
#     8   8   8   8   8   8   8   8
#     4  10  21  37  55  78 106 148 197 241 282 332
#     4  11  20  34  56  82 116 147 186 231 284 339
#     4   8  15  29  50  79 111 136 167 220 283 337
#     4  11  23  38  57  79 113 151 196 235 284 341
#     4  10  20  35  56  81 110 148 183 221 274 338
#     4   9  19  36  60  88 114 142 183 241 299 345
#     4   9  19  34  54  83 116 149 182 222 280 345
#     4  10  20  32  53  84 114 145 181 225 280 342
#
# _framework density 18.259875000000001
#
# number of rings (size 3 to 8) (size 9 to 14) (size 15 to 20)
#    0.000    2.250    1.250    3.750    3.500    2.250 
#    0.000    1.250    0.000    3.000    0.000    0.000 
#    0.000    0.000    0.000    0.000    0.000    0.000 
#
# Total GULP energy -793371.433891 kJ/mol
# GULP energy per Si atom -12396.428655 kJ/mol
# Density = 1.821831 g / cm^3
# Si number density = 18.259875 Si / 1000 Ang^3
#
#
#
# Elastic Constant Matrix: (Units=GPa)
#
#
# Indices 1 2 3 4 5 6 
#
# 1 69.2203 22.0870 25.8341 0.0000 0.0000 0.0001
# 2 22.0870 69.2203 25.8341 0.0000 0.0000 -0.0001
# 3 25.8341 25.8341 89.3026 0.0000 0.0000 0.0000
# 4 0.0000 0.0000 0.0000 23.6404 0.0000 0.0000
# 5 0.0000 0.0000 0.0000 0.0000 23.6404 0.0000
# 6 0.0001 -0.0001 0.0000 0.0000 0.0000 25.0067
#
#
#
# Elastic Compliance Matrix: (Units=1/GPa)
#
#
# Indices 1 2 3 4 5 6 
#
# 1 0.017156 -0.004060 -0.003788 0.000000 0.000000 0.000000
# 2 -0.004060 0.017156 -0.003788 0.000000 0.000000 0.000000
# 3 -0.003788 -0.003788 0.013390 0.000000 0.000000 0.000000
# 4 0.000000 0.000000 0.000000 0.042300 0.000000 0.000000
# 5 0.000000 0.000000 0.000000 0.000000 0.042300 0.000000
# 6 0.000000 0.000000 0.000000 0.000000 0.000000 0.039989
#
#
# Mechanical properties :
#
#
# Convention : Reuss Voigt Hill
#
# Bulk Modulus (GPa) = 40.93728 41.69482 41.31605
# Shear Modulus (GPa) = 24.54482 24.72339 24.63410
#
# Velocity S-wave (km/s) = 3.67030 3.68363 3.67697
# Velocity P-wave (km/s) = 6.35841 6.40124 6.37986
#
# Compressibility (1/GPa) = 0.02442761
#
# Stress axis : x y z
#
# Youngs Moduli (GPa) = 58.28827 58.28827 74.68391
#
# Poissons Ratio (x) = 0.23667 0.28294
# Poissons Ratio (y) = 0.23667 0.28294
# Poissons Ratio (z) = 0.22082 0.22082
#
# Static dielectric constant tensor:
#      x y z
#    x 3.414590 0.000000 0.000000 
#    y 0.000000 3.414590 0.000000 
#    z 0.000000 0.000000 3.240370 
# 
# 
# High freq. dielectric constant tensor:
#      x y z
#    x 1.700020 0.000000 0.000000 
#    y 0.000000 1.700020 0.000000 
#    z 0.000000 0.000000 1.693840 
# 
# From -- ./inp_files/3448.got.cif
#   From: 2010.03.12/outbox.cif.g09.slc.cpg/sg102_2_cif.got.tgz:3448.got - 2010.04.14 01:40:42.
