data_PCOD8306720
_publ_section_title
;
Structure prediction by ZEFSAII (Michael W. Deem and Ramdas Pophale) SiO2 
 PCOD8306720
Probable space group: P 42 C M
;
_chemical_formula_sum "Si O2"
_cell_formula_units_Z 48
_cell_length_a 22.118094
_cell_length_b 22.118094
_cell_length_c 5.186231
_cell_angle_alpha 90.000000
_cell_angle_beta 90.000000
_cell_angle_gamma 90.000000
_cell_volume 2537.156494
_symmetry_space_group_name_H-M "P 42 C M"
_symmetry_group_IT_number 101
_symmetry_cell_setting 'tetragonal'
loop_
_space_group_symop_operation_xyz
x,y,z
-y,x,1/2+z
-x,-y,z
y,-x,1/2+z
-x,y,1/2+z
x,-y,1/2+z
-y,-x,z
y,x,z
loop_
_atom_site_type_symbol
_atom_site_label
_atom_site_fract_x
_atom_site_fract_y
_atom_site_fract_z
Si Si1 0.776305 0.568462 0.513870
Si Si2 0.040265 0.599413 0.466792
Si Si3 0.268777 0.963592 0.547352
Si Si4 0.565221 0.829262 0.013975
Si Si5 0.039966 0.139883 0.947587
Si Si6 0.460257 0.359810 0.507822
O O1 0.798079 0.499596 0.553895
O O2 0.799537 0.601395 0.774242
O O3 0.704562 0.572746 0.482093
O O4 0.810405 0.600781 0.274813
O O5 0.068760 0.667562 0.482445
O O6 0.098488 0.556284 0.485918
O O7 0.993589 0.586817 0.698311
O O8 0.206505 0.928481 0.478325
O O9 0.268045 0.021304 0.351725
O O10 0.090599 0.090599 0.993756
O O11 0.988218 0.132064 0.163994
O O12 0.488893 0.366646 0.789972
O O13 0.411098 0.411098 0.464662
#
# Coordination Sequence:
#
# PCOD8306720 Si02
#       6
#     8   8   8   8   8   8
#     4  10  19  37  53  77 107 148 190 201 262 325
#     4  10  19  32  50  81 107 132 181 230 273 313
#     4   8  16  30  46  63  92 124 159 202 252 307
#     4  10  18  33  58  72 106 150 178 219 256 321
#     4  10  19  30  45  66  92 124 156 194 248 306
#     4  12  23  40  62  87 117 145 180 233 275 333
#
# _framework density 18.918818000000002
#
# number of rings (size 3 to 8) (size 9 to 14) (size 15 to 20)
#    0.000    2.000    3.333    2.000    0.000    2.000 
#    0.000   10.000    0.000    2.000    0.000    0.000 
#    0.000    0.000    0.000    0.000    0.000    0.000 
#
# Total GULP energy -594646.206496 kJ/mol
# GULP energy per Si atom -12388.462635 kJ/mol
# Density = 1.887576 g / cm^3
# Si number density = 18.918818 Si / 1000 Ang^3
#
#
#
# Elastic Constant Matrix: (Units=GPa)
#
#
# Indices 1 2 3 4 5 6 
#
# 1 37.0112 19.7483 9.3825 0.0000 0.0000 0.0000
# 2 19.7483 37.0112 9.3825 0.0000 0.0000 0.0000
# 3 9.3825 9.3825 126.4413 0.0000 0.0000 0.0000
# 4 0.0000 0.0000 0.0000 23.0460 0.0000 0.0000
# 5 0.0000 0.0000 0.0000 0.0000 23.0460 0.0000
# 6 0.0000 0.0000 0.0000 0.0000 0.0000 25.7838
#
#
#
# Elastic Compliance Matrix: (Units=1/GPa)
#
#
# Indices 1 2 3 4 5 6 
#
# 1 0.037994 -0.019933 -0.001340 0.000000 0.000000 0.000000
# 2 -0.019933 0.037994 -0.001340 0.000000 0.000000 0.000000
# 3 -0.001340 -0.001340 0.008108 0.000000 0.000000 0.000000
# 4 0.000000 0.000000 0.000000 0.043391 0.000000 0.000000
# 5 0.000000 0.000000 0.000000 0.000000 0.043391 0.000000
# 6 0.000000 0.000000 0.000000 0.000000 0.000000 0.038784
#
#
# Mechanical properties :
#
#
# Convention : Reuss Voigt Hill
#
# Bulk Modulus (GPa) = 25.72720 30.83226 28.27973
# Shear Modulus (GPa) = 18.66736 25.17187 21.91961
#
# Velocity S-wave (km/s) = 3.14460 3.65159 3.40754
# Velocity P-wave (km/s) = 5.17812 5.84049 5.51925
#
# Compressibility (1/GPa) = 0.03886937
#
# Stress axis : x y z
#
# Youngs Moduli (GPa) = 26.31964 26.31964 123.33942
#
# Poissons Ratio (x) = 0.52463 0.16530
# Poissons Ratio (y) = 0.52463 0.16530
# Poissons Ratio (z) = 0.03527 0.03527
#
# Static dielectric constant tensor:
#      x y z
#    x 3.279630 0.000000 0.000000 
#    y 0.000000 3.279630 0.000000 
#    z 0.000000 0.000000 4.961610 
# 
# 
# High freq. dielectric constant tensor:
#      x y z
#    x 1.699380 0.000000 0.000000 
#    y 0.000000 1.699380 0.000000 
#    z 0.000000 0.000000 1.776720 
# 
# From -- ./inp_files/128.got.cif
#   From: 2010.03.12/outbox.cif.g09.slc.cpg/sg101_1_cif.got.tgz:128.got - 2010.04.14 01:38:52.
