data_PCOD8306516
_publ_section_title
;
Structure prediction by ZEFSAII (Michael W. Deem and Ramdas Pophale) SiO2 
 PCOD8306516
Probable space group: P 4 M M
;
_chemical_formula_sum "Si O2"
_cell_formula_units_Z 64
_cell_length_a 17.182239
_cell_length_b 17.182239
_cell_length_c 12.007067
_cell_angle_alpha 90.000000
_cell_angle_beta 90.000000
_cell_angle_gamma 90.000000
_cell_volume 3544.838430
_symmetry_space_group_name_H-M "P 4 M M"
_symmetry_group_IT_number 99
_symmetry_cell_setting 'tetragonal'
loop_
_space_group_symop_operation_xyz
x,y,z
-y,x,z
-x,-y,z
y,-x,z
-x,y,z
x,-y,z
-y,-x,z
y,x,z
loop_
_atom_site_type_symbol
_atom_site_label
_atom_site_fract_x
_atom_site_fract_y
_atom_site_fract_z
Si Si1 0.588751 0.088511 0.253800
Si Si2 0.832718 0.703742 0.650513
Si Si3 0.716035 0.158155 0.398832
Si Si4 0.777005 0.910036 0.852441
Si Si5 0.587609 0.713836 0.725272
Si Si6 0.587733 0.291169 0.987695
Si Si7 0.085633 0.199438 0.215659
Si Si8 0.679475 0.857024 0.058919
O O1 0.500000 0.113379 0.263145
O O2 0.635100 0.150633 0.330923
O O3 0.614597 0.091576 0.123618
O O4 0.602640 0.000000 0.295889
O O5 0.762592 0.762592 0.665638
O O6 0.867118 0.703147 0.526222
O O7 0.899525 0.731741 0.735482
O O8 0.795849 0.619224 0.676834
O O9 0.754888 0.245113 0.391469
O O10 0.774842 0.095064 0.344198
O O11 0.851358 0.851358 0.865770
O O12 0.805819 0.000000 0.860895
O O13 0.710708 0.893973 0.944670
O O14 0.500000 0.700334 0.680324
O O15 0.640089 0.640089 0.687690
O O16 0.587374 0.723474 0.857016
O O17 0.500000 0.287324 0.036117
O O18 0.623985 0.376016 0.014459
O O19 0.643908 0.227777 0.042114
O O20 0.108626 0.108626 0.204681
O O21 0.147275 0.247846 0.143053
O O22 0.000000 0.213082 0.169347
#
# Coordination Sequence:
#
# PCOD8306516 Si02
#       8
#     8   8   8   8   8   8   8   8
#     4  10  21  36  54  77 105 134 166 213 269 315
#     4   9  18  34  53  75 103 138 178 214 250 301
#     4   9  18  33  54  77 101 132 174 215 252 303
#     4  11  22  35  54  77 102 136 174 216 265 313
#     4   9  17  30  49  74 103 134 168 207 250 294
#     4  10  19  31  50  74 102 134 167 206 248 294
#     4  10  20  33  52  76 101 131 168 214 264 312
#     4  11  19  34  53  73 101 135 177 211 248 307
#
# _framework density 18.05442
#
# number of rings (size 3 to 8) (size 9 to 14) (size 15 to 20)
#    0.000    2.125    1.250    3.750    0.000    3.000 
#    0.000    1.250    0.000    2.625    0.000    3.500 
#    0.000    0.250    0.000    8.250    0.000    1.000 
#
# Total GULP energy -792846.316649 kJ/mol
# GULP energy per Si atom -12388.223698 kJ/mol
# Density = 1.801333 g / cm^3
# Si number density = 18.054420 Si / 1000 Ang^3
#
#
#
# Elastic Constant Matrix: (Units=GPa)
#
#
# Indices 1 2 3 4 5 6 
#
# 1 103.1522 63.6925 43.7586 0.0000 0.0000 -0.0001
# 2 63.6925 103.1522 43.7586 0.0000 0.0000 0.0001
# 3 43.7586 43.7586 103.2511 0.0000 0.0000 0.0000
# 4 0.0000 0.0000 0.0000 15.4993 0.0000 0.0000
# 5 0.0000 0.0000 0.0000 0.0000 15.4993 0.0000
# 6 -0.0001 0.0001 0.0000 0.0000 0.0000 24.5173
#
#
#
# Elastic Compliance Matrix: (Units=1/GPa)
#
#
# Indices 1 2 3 4 5 6 
#
# 1 0.016525 -0.008818 -0.003266 0.000000 0.000000 0.000000
# 2 -0.008818 0.016525 -0.003266 0.000000 0.000000 0.000000
# 3 -0.003266 -0.003266 0.012454 0.000000 0.000000 0.000000
# 4 0.000000 0.000000 0.000000 0.064519 0.000000 0.000000
# 5 0.000000 0.000000 0.000000 0.000000 0.064519 0.000000
# 6 0.000000 0.000000 0.000000 0.000000 0.000000 0.040788
#
#
# Mechanical properties :
#
#
# Convention : Reuss Voigt Hill
#
# Bulk Modulus (GPa) = 67.55635 67.99721 67.77678
# Shear Modulus (GPa) = 19.92327 21.65957 20.79142
#
# Velocity S-wave (km/s) = 3.32552 3.46740 3.39720
# Velocity P-wave (km/s) = 7.22806 7.33312 7.28078
#
# Compressibility (1/GPa) = 0.01480246
#
# Stress axis : x y z
#
# Youngs Moduli (GPa) = 60.51590 60.51590 80.29783
#
# Poissons Ratio (x) = 0.53361 0.26227
# Poissons Ratio (y) = 0.53361 0.26227
# Poissons Ratio (z) = 0.19766 0.19766
#
# Static dielectric constant tensor:
#      x y z
#    x 3.351520 0.000000 0.000000 
#    y 0.000000 3.351520 0.000000 
#    z 0.000000 0.000000 3.413320 
# 
# 
# High freq. dielectric constant tensor:
#      x y z
#    x 1.691040 0.000000 0.000000 
#    y 0.000000 1.691040 0.000000 
#    z 0.000000 0.000000 1.690560 
# 
# From -- ./inp_files/1608.got.cif
#   From: 2010.03.12/outbox.cif.g09.slc.cpg/sg99_cif.got.tgz:1608.got - 2010.04.08 21:11:30.
