data_PCOD8306243
_publ_section_title
;
Structure prediction by ZEFSAII (Michael W. Deem and Ramdas Pophale) SiO2 
 PCOD8306243
Probable space group: I 41 2 2
;
_chemical_formula_sum "Si O2"
_cell_formula_units_Z 96
_cell_length_a 22.318258
_cell_length_b 22.318258
_cell_length_c 11.998747
_cell_angle_alpha 90.000000
_cell_angle_beta 90.000000
_cell_angle_gamma 90.000000
_cell_volume 5976.631557
_symmetry_space_group_name_H-M "I 41 2 2"
_symmetry_group_IT_number 98
_symmetry_cell_setting 'tetragonal'
loop_
_space_group_symop_operation_xyz
x,y,z
-y,1/2+x,1/4+z
-x,-y,z
y,1/2-x,1/4+z
x,1/2-y,1/4-z
-x,1/2+y,1/4-z
y,x,-z
-y,-x,-z
1/2+x,1/2+y,1/2+z
1/2-y,x,3/4+z
1/2-x,1/2-y,1/2+z
1/2+y,-x,3/4+z
1/2+x,-y,3/4-z
1/2-x,y,3/4-z
1/2+y,1/2+x,1/2-z
1/2-y,1/2-x,1/2-z
loop_
_atom_site_type_symbol
_atom_site_label
_atom_site_fract_x
_atom_site_fract_y
_atom_site_fract_z
Si Si1 0.871120 0.036553 0.239865
Si Si2 0.553920 0.547313 0.874275
Si Si3 0.447228 0.653158 0.501498
Si Si4 0.141006 0.713253 0.518451
Si Si5 0.977173 0.372988 0.015114
Si Si6 0.274199 0.890356 0.045383
O O1 0.847655 0.016823 0.116082
O O2 0.821237 0.078883 0.296539
O O3 0.932949 0.071204 0.225635
O O4 0.885433 0.980018 0.319255
O O5 0.500000 0.500000 0.877303
O O6 0.536175 0.605484 0.800542
O O7 0.568450 0.568450 0.000000
O O8 0.399347 0.600654 0.500000
O O9 0.492102 0.646595 0.606819
O O10 0.409712 0.714416 0.519609
O O11 0.162598 0.750000 0.625000
O O12 0.131455 0.759612 0.419386
O O13 0.191778 0.664608 0.483808
O O14 0.947385 0.318416 0.947464
#
# Coordination Sequence:
#
# PCOD8306243 Si02
#       6
#    16  16  16  16  16  16
#     4   8  17  30  42  60  81 104 138 182 226 263
#     4   9  17  28  44  63  79 101 132 177 227 273
#     4   9  17  30  44  59  85 113 145 184 219 259
#     4  10  20  31  44  60  85 119 155 196 227 262
#     4   9  17  28  44  62  78 107 140 177 224 266
#     4  10  20  31  42  62  84 117 154 191 226 257
#
# _framework density 16.062560000000001
#
# number of rings (size 3 to 8) (size 9 to 14) (size 15 to 20)
#    0.000    2.833    0.000    2.000    2.333    2.000 
#    0.000    5.000    0.000    0.000    0.000    0.000 
#    0.000    0.000    0.000    0.000    0.000   40.000 
#
# Total GULP energy -594837.247591 kJ/mol
# GULP energy per Si atom -12392.442658 kJ/mol
# Density = 1.602600 g / cm^3
# Si number density = 16.062560 Si / 1000 Ang^3
#
#
#
# Elastic Constant Matrix: (Units=GPa)
#
#
# Indices 1 2 3 4 5 6 
#
# 1 37.0005 32.7546 35.8929 0.0000 0.0000 0.0000
# 2 32.7546 36.9985 35.8928 0.0000 0.0000 0.0000
# 3 35.8929 35.8928 111.7308 0.0000 0.0000 0.0000
# 4 0.0000 0.0000 0.0000 23.5851 0.0000 0.0000
# 5 0.0000 0.0000 0.0000 0.0000 23.5852 0.0000
# 6 0.0000 0.0000 0.0000 0.0000 0.0000 24.5151
#
#
#
# Elastic Compliance Matrix: (Units=1/GPa)
#
#
# Indices 1 2 3 4 5 6 
#
# 1 0.128492 -0.107080 -0.006878 0.000000 0.000000 0.000000
# 2 -0.107080 0.128502 -0.006881 0.000000 0.000000 0.000000
# 3 -0.006878 -0.006881 0.013370 0.000000 0.000000 0.000000
# 4 0.000000 0.000000 0.000000 0.042400 0.000000 0.000000
# 5 0.000000 0.000000 0.000000 0.000000 0.042400 0.000000
# 6 0.000000 0.000000 0.000000 0.000000 0.000000 0.040791
#
#
# Mechanical properties :
#
#
# Convention : Reuss Voigt Hill
#
# Bulk Modulus (GPa) = 34.86324 43.86781 39.36553
# Shear Modulus (GPa) = 7.72565 19.74972 13.73768
#
# Velocity S-wave (km/s) = 2.19549 3.51030 2.92766
# Velocity P-wave (km/s) = 5.30836 6.61812 5.99909
#
# Compressibility (1/GPa) = 0.02868351
#
# Stress axis : x y z
#
# Youngs Moduli (GPa) = 7.78260 7.78201 74.79252
#
# Poissons Ratio (x) = 0.83330 0.51445
# Poissons Ratio (y) = 0.83336 0.51468
# Poissons Ratio (z) = 0.05353 0.05355
#
# Static dielectric constant tensor:
#      x y z
#    x 2.856320 0.000000 0.000000 
#    y 0.000000 2.856320 0.000000 
#    z 0.000000 0.000000 3.455570 
# 
# 
# High freq. dielectric constant tensor:
#      x y z
#    x 1.574100 0.000000 0.000000 
#    y 0.000000 1.574100 0.000000 
#    z 0.000000 0.000000 1.635800 
# 
# From -- ./inp_files/5324.got.cif
#   From: 2010.03.12/outbox.cif.g09.slc.cpg/sg98_3_cif.got.tgz:5324.got - 2010.04.08 21:04:41.
