data_PCOD8306348
_publ_section_title
;
Structure prediction by ZEFSAII (Michael W. Deem and Ramdas Pophale) SiO2 
 PCOD8306348
Probable space group: I 41 2 2
;
_chemical_formula_sum "Si O2"
_cell_formula_units_Z 32
_cell_length_a 13.571002
_cell_length_b 13.571002
_cell_length_c 7.784471
_cell_angle_alpha 90.000000
_cell_angle_beta 90.000000
_cell_angle_gamma 90.000000
_cell_volume 1433.682335
_symmetry_space_group_name_H-M "I 41 2 2"
_symmetry_group_IT_number 98
_symmetry_cell_setting 'tetragonal'
loop_
_space_group_symop_operation_xyz
x,y,z
-y,1/2+x,1/4+z
-x,-y,z
y,1/2-x,1/4+z
x,1/2-y,1/4-z
-x,1/2+y,1/4-z
y,x,-z
-y,-x,-z
1/2+x,1/2+y,1/2+z
1/2-y,x,3/4+z
1/2-x,1/2-y,1/2+z
1/2+y,-x,3/4+z
1/2+x,-y,3/4-z
1/2-x,y,3/4-z
1/2+y,1/2+x,1/2-z
1/2-y,1/2-x,1/2-z
loop_
_atom_site_type_symbol
_atom_site_label
_atom_site_fract_x
_atom_site_fract_y
_atom_site_fract_z
Si Si1 0.373269 0.126732 0.750000
Si Si2 0.840128 0.947907 0.654679
Si Si3 0.159610 0.840391 0.500000
O O1 0.261734 0.109611 0.684774
O O2 0.441331 0.100364 0.585585
O O3 0.897854 0.897854 0.500000
O O4 0.829896 0.061966 0.613154
O O5 0.164117 0.750000 0.625000
#
# Coordination Sequence:
#
# PCOD8306348 Si02
#       3
#     8  16   8
#     4  10  24  40  79 112 144 189 250 304 392 452
#     4  11  24  46  74 116 149 191 245 324 383 464
#     4  12  29  50  72  99 158 210 262 316 386 469
#
# _framework density 22.320146000000001
#
# number of rings (size 3 to 8) (size 9 to 14) (size 15 to 20)
#    0.000    1.000    0.000    5.250   21.000    0.000 
#    0.000   15.000    0.000    0.000    0.000    0.000 
#    0.000    0.000    0.000    0.000    0.000    0.000 
#
# Total GULP energy -198345.133403 kJ/mol
# GULP energy per Si atom -12396.570838 kJ/mol
# Density = 2.226934 g / cm^3
# Si number density = 22.320146 Si / 1000 Ang^3
#
#
#
# Elastic Constant Matrix: (Units=GPa)
#
#
# Indices 1 2 3 4 5 6 
#
# 1 81.8933 151.1651 94.3104 0.0000 0.0000 0.0000
# 2 151.1651 81.9072 94.3090 0.0000 0.0000 0.0000
# 3 94.3104 94.3090 264.4316 0.0000 0.0000 0.0000
# 4 0.0000 0.0000 0.0000 37.2095 0.0000 0.0000
# 5 0.0000 0.0000 0.0000 0.0000 37.2090 0.0000
# 6 0.0000 0.0000 0.0000 0.0000 0.0000 6.3818
#
#
#
# Elastic Compliance Matrix: (Units=1/GPa)
#
#
# Indices 1 2 3 4 5 6 
#
# 1 -0.004204 0.010234 -0.002151 0.000000 0.000000 0.000000
# 2 0.010234 -0.004202 -0.002151 0.000000 0.000000 0.000000
# 3 -0.002151 -0.002151 0.005316 0.000000 0.000000 0.000000
# 4 0.000000 0.000000 0.000000 0.026875 0.000000 0.000000
# 5 0.000000 0.000000 0.000000 0.000000 0.026875 0.000000
# 6 0.000000 0.000000 0.000000 0.000000 0.000000 0.156697
#
#
# Mechanical properties :
#
#
# Convention : Reuss Voigt Hill
#
# Bulk Modulus (GPa) = 113.96510 123.08900 118.52705
# Shear Modulus (GPa) = 25.19935 22.05657 23.62796
#
# Velocity S-wave (km/s) = 3.36370 3.14696 3.25713
# Velocity P-wave (km/s) = 8.13978 8.27474 8.20754
#
# Compressibility (1/GPa) = 0.00877462
#
# Stress axis : x y z
#
# Youngs Moduli (GPa) = -237.89520 -237.96865 188.10698
#
# Poissons Ratio (x) = 2.43548 0.40460
# Poissons Ratio (y) = 2.43473 0.40470
# Poissons Ratio (z) = -0.51169 -0.51197
#
# Static dielectric constant tensor:
#      x y z
#    x 4.124300 0.000000 0.000000 
#    y 0.000000 4.124260 0.000000 
#    z 0.000000 0.000000 4.839550 
# 
# 
# High freq. dielectric constant tensor:
#      x y z
#    x 1.878520 0.000000 0.000000 
#    y 0.000000 1.878520 0.000000 
#    z 0.000000 0.000000 1.915470 
# 
# From -- ./inp_files/2397.got.cif
#   From: 2010.03.12/outbox.cif.g09.slc.cpg/sg98_2_cif.got.tgz:2397.got - 2010.04.08 21:04:41.
