data_PCOD8306826
_publ_section_title
;
Structure prediction by ZEFSAII (Michael W. Deem and Ramdas Pophale) SiO2 
 PCOD8306826
Probable space group: P 42 N M
;
_chemical_formula_sum "Si O2"
_cell_formula_units_Z 64
_cell_length_a 12.022295
_cell_length_b 12.022295
_cell_length_c 28.352230
_cell_angle_alpha 90.000000
_cell_angle_beta 90.000000
_cell_angle_gamma 90.000000
_cell_volume 4097.905924
_symmetry_space_group_name_H-M "P 42 N M"
_symmetry_group_IT_number 102
_symmetry_cell_setting 'tetragonal'
loop_
_space_group_symop_operation_xyz
x,y,z
1/2-y,1/2+x,1/2+z
-x,-y,z
1/2+y,1/2-x,1/2+z
1/2-x,1/2+y,1/2+z
1/2+x,1/2-y,1/2+z
-y,-x,z
y,x,z
loop_
_atom_site_type_symbol
_atom_site_label
_atom_site_fract_x
_atom_site_fract_y
_atom_site_fract_z
Si Si1 0.588719 0.235103 0.229530
Si Si2 0.993481 0.820475 0.470277
Si Si3 0.153898 0.664824 0.716162
Si Si4 0.123641 0.474160 0.790281
Si Si5 0.922369 0.263169 0.563153
Si Si6 0.316338 0.500763 0.864938
Si Si7 0.045559 0.375632 0.119257
Si Si8 0.863884 0.691629 0.623605
O O1 0.643289 0.356712 0.240131
O O2 0.454907 0.240389 0.226613
O O3 0.629227 0.150849 0.270238
O O4 0.632898 0.190872 0.179889
O O5 0.872411 0.872411 0.482022
O O6 0.025589 0.732078 0.510741
O O7 0.993676 0.767160 0.418233
O O8 0.080909 0.919092 0.470487
O O9 0.260718 0.739283 0.727213
O O10 0.155360 0.557444 0.748743
O O11 0.163089 0.620142 0.663000
O O12 0.210087 0.491173 0.832093
O O13 0.000000 0.500000 0.809599
O O14 0.845612 0.154389 0.570858
O O15 0.856984 0.378851 0.572240
O O16 0.017119 0.269587 0.603189
O O17 0.388193 0.611808 0.854232
O O18 0.393341 0.393341 0.857666
O O19 0.929412 0.313126 0.109588
O O20 0.000000 0.500000 0.129371
O O21 0.778371 0.778371 0.602108
#
# Coordination Sequence:
#
# PCOD8306826 Si02
#       8
#     8   8   8   8   8   8   8   8
#     4  10  19  31  46  63  88 121 154 189 227 268
#     4   8  15  28  45  69 100 122 141 186 244 282
#     4  11  19  30  46  64  89 118 152 193 231 266
#     4  10  19  32  47  66  92 127 154 187 227 274
#     4  10  18  28  48  72  92 118 151 188 231 277
#     4   9  17  31  51  72  93 118 153 196 236 274
#     4  10  17  31  43  60  90 122 150 182 221 271
#     4  10  19  30  45  62  88 125 155 186 225 268
#
# _framework density 15.617732
#
# number of rings (size 3 to 8) (size 9 to 14) (size 15 to 20)
#    0.000    2.250    3.750    2.625    0.000    1.000 
#    0.000    3.125    0.000    2.250    0.000    0.000 
#    0.000    0.000    0.000   18.125    0.000    5.125 
#
# Total GULP energy -792943.156106 kJ/mol
# GULP energy per Si atom -12389.736814 kJ/mol
# Density = 1.558219 g / cm^3
# Si number density = 15.617732 Si / 1000 Ang^3
#
#
#
# Elastic Constant Matrix: (Units=GPa)
#
#
# Indices 1 2 3 4 5 6 
#
# 1 63.6631 22.8851 26.2275 0.0000 0.0000 0.0000
# 2 22.8851 63.6631 26.2275 0.0000 0.0000 0.0000
# 3 26.2275 26.2275 88.3105 0.0000 0.0000 0.0000
# 4 0.0000 0.0000 0.0000 22.4958 0.0000 0.0000
# 5 0.0000 0.0000 0.0000 0.0000 22.4958 0.0000
# 6 0.0000 0.0000 0.0000 0.0000 0.0000 14.9560
#
#
#
# Elastic Compliance Matrix: (Units=1/GPa)
#
#
# Indices 1 2 3 4 5 6 
#
# 1 0.019307 -0.005216 -0.004185 0.000000 0.000000 0.000000
# 2 -0.005216 0.019307 -0.004185 0.000000 0.000000 0.000000
# 3 -0.004185 -0.004185 0.013809 0.000000 0.000000 0.000000
# 4 0.000000 0.000000 0.000000 0.044453 0.000000 0.000000
# 5 0.000000 0.000000 0.000000 0.000000 0.044453 0.000000
# 6 0.000000 0.000000 0.000000 0.000000 0.000000 0.066863
#
#
# Mechanical properties :
#
#
# Convention : Reuss Voigt Hill
#
# Bulk Modulus (GPa) = 39.60179 40.70186 40.15183
# Shear Modulus (GPa) = 20.51030 21.34262 20.92646
#
# Velocity S-wave (km/s) = 3.62784 3.70072 3.66446
# Velocity P-wave (km/s) = 6.55441 6.66170 6.60827
#
# Compressibility (1/GPa) = 0.02525138
#
# Stress axis : x y z
#
# Youngs Moduli (GPa) = 51.79520 51.79520 72.41463
#
# Poissons Ratio (x) = 0.27018 0.30304
# Poissons Ratio (y) = 0.27018 0.30304
# Poissons Ratio (z) = 0.21675 0.21675
#
# Static dielectric constant tensor:
#      x y z
#    x 3.186480 0.000000 0.000000 
#    y 0.000000 3.186480 0.000000 
#    z 0.000000 0.000000 3.019270 
# 
# 
# High freq. dielectric constant tensor:
#      x y z
#    x 1.588670 0.000000 0.000000 
#    y 0.000000 1.588670 0.000000 
#    z 0.000000 0.000000 1.587410 
# 
# From -- ./inp_files/3550.got.cif
#   From: 2010.03.12/outbox.cif.g09.slc.cpg/sg102_2_cif.got.tgz:3550.got - 2010.04.14 01:40:42.
