data_PCOD8306559
_publ_section_title
;
Structure prediction by ZEFSAII (Michael W. Deem and Ramdas Pophale) SiO2 
 PCOD8306559
Probable space group: P 4 M M
;
_chemical_formula_sum "Si O2"
_cell_formula_units_Z 56
_cell_length_a 13.622328
_cell_length_b 13.622328
_cell_length_c 17.701814
_cell_angle_alpha 90.000000
_cell_angle_beta 90.000000
_cell_angle_gamma 90.000000
_cell_volume 3284.887036
_symmetry_space_group_name_H-M "P 4 M M"
_symmetry_group_IT_number 99
_symmetry_cell_setting 'tetragonal'
loop_
_space_group_symop_operation_xyz
x,y,z
-y,x,z
-x,-y,z
y,-x,z
-x,y,z
x,-y,z
-y,-x,z
y,x,z
loop_
_atom_site_type_symbol
_atom_site_label
_atom_site_fract_x
_atom_site_fract_y
_atom_site_fract_z
Si Si1 0.271410 0.113027 0.951090
Si Si2 0.889110 0.384670 0.389186
Si Si3 0.614880 0.227239 0.243038
Si Si4 0.887735 0.731344 0.532542
Si Si5 0.776253 0.615003 0.828000
Si Si6 0.112293 0.271345 0.124906
Si Si7 0.114364 0.725770 0.702226
O O1 0.168654 0.168654 0.935184
O O2 0.357847 0.161778 0.902511
O O3 0.256257 0.000000 0.927626
O O4 0.303247 0.123267 0.037994
O O5 0.884869 0.500000 0.395435
O O6 0.821013 0.347909 0.321070
O O7 0.849593 0.344343 0.469244
O O8 0.000000 0.348823 0.372974
O O9 0.500000 0.248918 0.243304
O O10 0.669661 0.330340 0.231644
O O11 0.639293 0.153267 0.174784
O O12 0.833565 0.833565 0.522303
O O13 0.870279 0.687599 0.616374
O O14 0.000000 0.756844 0.519424
O O15 0.752438 0.500000 0.828244
O O16 0.673296 0.673296 0.826206
O O17 0.842146 0.641249 0.755353
O O18 0.172076 0.172076 0.142592
O O19 0.000000 0.250040 0.146105
O O20 0.171793 0.828208 0.716415
O O21 0.000000 0.744212 0.720488
#
# Coordination Sequence:
#
# PCOD8306559 Si02
#       7
#     8   8   8   8   8   8   8
#     4   9  18  32  50  74 102 129 157 188 224 270
#     4   9  17  29  46  68  91 116 150 191 234 280
#     4  10  20  33  49  68  91 121 157 198 242 284
#     4   9  17  29  45  66  94 125 154 185 221 265
#     4  10  21  36  52  70  93 121 156 198 240 282
#     4   9  18  32  50  73 100 128 157 189 226 271
#     4   9  18  31  47  70  98 127 159 192 228 273
#
# _framework density 17.047771000000001
#
# number of rings (size 3 to 8) (size 9 to 14) (size 15 to 20)
#    0.000    2.714    0.000    1.286    0.000    4.000 
#    0.000    5.714    0.000    2.571    0.000    6.000 
#    0.000    3.429    0.000    0.000    0.000    0.000 
#
# Total GULP energy -694341.878877 kJ/mol
# GULP energy per Si atom -12398.962123 kJ/mol
# Density = 1.700897 g / cm^3
# Si number density = 17.047771 Si / 1000 Ang^3
#
#
#
# Elastic Constant Matrix: (Units=GPa)
#
#
# Indices 1 2 3 4 5 6 
#
# 1 95.5110 42.6347 51.8073 0.0000 0.0000 0.0000
# 2 42.6347 95.5110 51.8073 0.0000 0.0000 0.0000
# 3 51.8073 51.8073 107.0950 0.0000 0.0000 0.0000
# 4 0.0000 0.0000 0.0000 25.9045 0.0000 0.0000
# 5 0.0000 0.0000 0.0000 0.0000 25.9045 0.0000
# 6 0.0000 0.0000 0.0000 0.0000 0.0000 15.8773
#
#
#
# Elastic Compliance Matrix: (Units=1/GPa)
#
#
# Indices 1 2 3 4 5 6 
#
# 1 0.015136 -0.003776 -0.005496 0.000000 0.000000 0.000000
# 2 -0.003776 0.015136 -0.005496 0.000000 0.000000 0.000000
# 3 -0.005496 -0.005496 0.014655 0.000000 0.000000 0.000000
# 4 0.000000 0.000000 0.000000 0.038603 0.000000 0.000000
# 5 0.000000 0.000000 0.000000 0.000000 0.038603 0.000000
# 6 0.000000 0.000000 0.000000 0.000000 0.000000 0.062983
#
#
# Mechanical properties :
#
#
# Convention : Reuss Voigt Hill
#
# Bulk Modulus (GPa) = 64.96416 65.62396 65.29406
# Shear Modulus (GPa) = 22.74972 23.66175 23.20573
#
# Velocity S-wave (km/s) = 3.65700 3.72959 3.69347
# Velocity P-wave (km/s) = 7.48474 7.55805 7.52149
#
# Compressibility (1/GPa) = 0.01539310
#
# Stress axis : x y z
#
# Youngs Moduli (GPa) = 66.06578 66.06578 68.23746
#
# Poissons Ratio (x) = 0.24944 0.37502
# Poissons Ratio (y) = 0.24944 0.37502
# Poissons Ratio (z) = 0.36308 0.36308
#
# Static dielectric constant tensor:
#      x y z
#    x 3.045760 0.000000 0.000000 
#    y 0.000000 3.045760 0.000000 
#    z 0.000000 0.000000 3.491200 
# 
# 
# High freq. dielectric constant tensor:
#      x y z
#    x 1.645740 0.000000 0.000000 
#    y 0.000000 1.645740 0.000000 
#    z 0.000000 0.000000 1.675140 
# 
# From -- ./inp_files/2129.got.cif
#   From: 2010.03.12/outbox.cif.g09.slc.cpg/sg99_cif.got.tgz:2129.got - 2010.04.08 21:11:30.
