data_PCOD8306356
_publ_section_title
;
Structure prediction by ZEFSAII (Michael W. Deem and Ramdas Pophale) SiO2 
 PCOD8306356
Probable space group: I 41 2 2
;
_chemical_formula_sum "Si O2"
_cell_formula_units_Z 64
_cell_length_a 10.571634
_cell_length_b 10.571634
_cell_length_c 24.916755
_cell_angle_alpha 90.000000
_cell_angle_beta 90.000000
_cell_angle_gamma 90.000000
_cell_volume 2784.682721
_symmetry_space_group_name_H-M "I 41 2 2"
_symmetry_group_IT_number 98
_symmetry_cell_setting 'tetragonal'
loop_
_space_group_symop_operation_xyz
x,y,z
-y,1/2+x,1/4+z
-x,-y,z
y,1/2-x,1/4+z
x,1/2-y,1/4-z
-x,1/2+y,1/4-z
y,x,-z
-y,-x,-z
1/2+x,1/2+y,1/2+z
1/2-y,x,3/4+z
1/2-x,1/2-y,1/2+z
1/2+y,-x,3/4+z
1/2+x,-y,3/4-z
1/2-x,y,3/4-z
1/2+y,1/2+x,1/2-z
1/2-y,1/2-x,1/2-z
loop_
_atom_site_type_symbol
_atom_site_label
_atom_site_fract_x
_atom_site_fract_y
_atom_site_fract_z
Si Si1 0.280795 0.032847 0.220286
Si Si2 0.675584 0.122773 0.014424
Si Si3 0.137414 0.445711 0.417413
Si Si4 0.605947 0.396367 0.876833
O O1 0.394251 0.105750 0.250000
O O2 0.203779 0.126898 0.180881
O O3 0.189629 0.963622 0.262740
O O4 0.329037 0.914963 0.184021
O O5 0.677343 0.006674 0.973718
O O6 0.790891 0.209110 0.000000
O O7 0.696531 0.080775 0.076223
O O8 0.250000 0.469518 0.375000
O O9 0.000000 0.500000 0.397426
O O10 0.500000 0.500000 0.871672
O O11 0.750000 0.447927 0.875000
#
# Coordination Sequence:
#
# PCOD8306356 Si02
#       4
#    16  16  16  16
#     4  11  25  45  70 103 147 183 239 309 382 452
#     4  11  24  43  69  98 139 184 245 293 370 450
#     4  10  25  46  71 100 144 194 247 311 377 455
#     4  12  25  42  72 108 143 193 245 310 380 454
#
# _framework density 22.982866999999999
#
# number of rings (size 3 to 8) (size 9 to 14) (size 15 to 20)
#    0.000    1.000    2.500    3.750    7.000    5.000 
#    0.000    0.000    0.000    0.000    0.000    0.000 
#    0.000    0.000    0.000    0.000    0.000    0.000 
#
# Total GULP energy -396617.440157 kJ/mol
# GULP energy per Si atom -12394.295005 kJ/mol
# Density = 2.293056 g / cm^3
# Si number density = 22.982867 Si / 1000 Ang^3
#
#
#
# Elastic Constant Matrix: (Units=GPa)
#
#
# Indices 1 2 3 4 5 6 
#
# 1 74.8333 76.5739 40.3490 0.0000 0.0000 0.0000
# 2 76.5739 74.8337 40.3492 -0.0001 0.0000 0.0000
# 3 40.3490 40.3492 133.3801 0.0000 0.0000 0.0000
# 4 0.0000 -0.0001 0.0000 -339.6431 0.0002 0.0000
# 5 0.0000 0.0000 0.0000 0.0002 -346.0271 0.0000
# 6 0.0000 0.0000 0.0000 0.0000 0.0000 18.0285
#
#
#
# Elastic Compliance Matrix: (Units=1/GPa)
#
#
# Indices 1 2 3 4 5 6 
#
# 1 -0.283364 0.291237 -0.002382 0.000000 0.000000 0.000000
# 2 0.291237 -0.283362 -0.002382 0.000000 0.000000 0.000000
# 3 -0.002382 -0.002382 0.008939 0.000000 0.000000 0.000000
# 4 0.000000 0.000000 0.000000 -0.002944 0.000000 0.000000
# 5 0.000000 0.000000 0.000000 0.000000 -0.002890 0.000000
# 6 0.000000 0.000000 0.000000 0.000000 0.000000 0.055468
#
#
# Mechanical properties :
#
#
# Convention : Reuss Voigt Hill
#
# Bulk Modulus (GPa) = 65.96780 66.39903 66.18341
# Shear Modulus (GPa) = -4.64664 -125.14333 -64.89498
#
# Velocity S-wave (km/s) = -1.42344 -7.38708 -5.31954
# Velocity P-wave (km/s) = 5.10527 6.61855 2.97837
#
# Compressibility (1/GPa) = 0.01515891
#
# Stress axis : x y z
#
# Youngs Moduli (GPa) = -3.52903 -3.52905 111.87458
#
# Poissons Ratio (x) = 1.02779 0.26651
# Poissons Ratio (y) = 1.02779 0.26647
# Poissons Ratio (z) = -0.00841 -0.00841
#
# Static dielectric constant tensor:
#      x y z
#    x 5.809560 0.000000 0.000000 
#    y 0.000000 5.837240 0.000000 
#    z 0.000000 0.000000 3.450790 
# 
# 
# High freq. dielectric constant tensor:
#      x y z
#    x 1.900860 0.000000 0.000000 
#    y 0.000000 1.900860 0.000000 
#    z 0.000000 0.000000 1.926620 
# 
# From -- ./inp_files/8554.got.cif
#   From: 2010.03.12/outbox.cif.g09.slc.cpg/sg98_5_cif.got.tgz:8554.got - 2010.04.08 21:04:41.
