data_PCOD8306088
_publ_section_title
;
Structure prediction by ZEFSAII (Michael W. Deem and Ramdas Pophale) SiO2 
 PCOD8306088
Probable space group: I 4 2 2 
;
_chemical_formula_sum "Si O2"
_cell_formula_units_Z 112
_cell_length_a 15.355248
_cell_length_b 15.355248
_cell_length_c 22.693029
_cell_angle_alpha 90.000000
_cell_angle_beta 90.000000
_cell_angle_gamma 90.000000
_cell_volume 5350.645006
_symmetry_space_group_name_H-M "I 4 2 2 "
_symmetry_group_IT_number 97
_symmetry_cell_setting 'tetragonal'
loop_
_space_group_symop_operation_xyz
x,y,z
-y,x,z
-x,-y,z
y,-x,z
x,-y,-z
-x,y,-z
y,x,-z
-y,-x,-z
1/2+x,1/2+y,1/2+z
1/2-y,1/2+x,1/2+z
1/2-x,1/2-y,1/2+z
1/2+y,1/2-x,1/2+z
1/2+x,1/2-y,1/2-z
1/2-x,1/2+y,1/2-z
1/2+y,1/2+x,1/2-z
1/2-y,1/2-x,1/2-z
loop_
_atom_site_type_symbol
_atom_site_label
_atom_site_fract_x
_atom_site_fract_y
_atom_site_fract_z
Si Si1 0.373268 0.441974 0.749980
Si Si2 0.679477 0.004321 0.569563
Si Si3 0.196034 0.234163 0.808938
Si Si4 0.233616 0.091983 0.005770
Si Si5 0.654443 0.079881 0.880669
Si Si6 0.037214 0.863370 0.386138
Si Si7 0.826966 0.617441 0.386810
O O1 0.458371 0.386220 0.734523
O O2 0.304969 0.398217 0.707036
O O3 0.345431 0.441554 0.817999
O O4 0.675379 0.914384 0.606911
O O5 0.664607 0.000000 0.500000
O O6 0.598634 0.058368 0.595582
O O7 0.773237 0.051385 0.579299
O O8 0.252381 0.247620 0.750000
O O9 0.159500 0.324506 0.835339
O O10 0.254378 0.173574 0.851928
O O11 0.276249 0.097742 0.068840
O O12 0.168066 0.168066 0.000000
O O13 0.304174 0.099066 0.954412
O O14 0.183775 0.000000 0.000000
O O15 0.658939 0.979028 0.857092
O O16 0.939679 0.895213 0.403102
#
# Coordination Sequence:
#
# PCOD8306088 Si02
#       7
#    16  16  16  16  16  16  16
#     4   9  19  39  66  90 123 168 211 257 320 388
#     4  12  25  40  68  97 132 179 221 269 338 406
#     4  12  25  41  67  97 128 170 215 275 325 387
#     4  10  20  39  66  93 128 166 210 269 330 388
#     4  11  24  44  65  93 131 172 220 270 326 397
#     4   9  21  40  64  95 133 173 219 279 333 392
#     4  11  25  43  66  95 129 171 223 273 325 401
#
# _framework density 20.932055999999999
#
# number of rings (size 3 to 8) (size 9 to 14) (size 15 to 20)
#    0.000    1.429    2.857    3.000    6.000    1.286 
#    2.571    0.714    0.000    0.000    0.000    0.000 
#    0.000    0.000    0.000    0.000    0.000    0.000 
#
# Total GULP energy -693783.089286 kJ/mol
# GULP energy per Si atom -12388.983737 kJ/mol
# Density = 2.088441 g / cm^3
# Si number density = 20.932056 Si / 1000 Ang^3
#
#
#
# Elastic Constant Matrix: (Units=GPa)
#
#
# Indices 1 2 3 4 5 6 
#
# 1 89.3137 23.7783 22.7864 0.0000 0.0000 0.0000
# 2 23.7783 89.3140 22.7867 0.0000 0.0000 0.0000
# 3 22.7864 22.7867 61.8297 0.0000 0.0000 0.0000
# 4 0.0000 0.0000 0.0000 20.8151 0.0000 0.0000
# 5 0.0000 0.0000 0.0000 0.0000 20.8147 0.0000
# 6 0.0000 0.0000 0.0000 0.0000 0.0000 38.8094
#
#
#
# Elastic Compliance Matrix: (Units=1/GPa)
#
#
# Indices 1 2 3 4 5 6 
#
# 1 0.012822 -0.002437 -0.003827 0.000000 0.000000 0.000000
# 2 -0.002437 0.012822 -0.003827 0.000000 0.000000 0.000000
# 3 -0.003827 -0.003827 0.018994 0.000000 0.000000 0.000000
# 4 0.000000 0.000000 0.000000 0.048042 0.000000 0.000000
# 5 0.000000 0.000000 0.000000 0.000000 0.048043 0.000000
# 6 0.000000 0.000000 0.000000 0.000000 0.000000 0.025767
#
#
# Mechanical properties :
#
#
# Convention : Reuss Voigt Hill
#
# Bulk Modulus (GPa) = 40.89137 42.12892 41.51014
# Shear Modulus (GPa) = 25.66417 27.49491 26.57954
#
# Velocity S-wave (km/s) = 3.50533 3.62820 3.56729
# Velocity P-wave (km/s) = 5.99673 6.14182 6.06971
#
# Compressibility (1/GPa) = 0.02445504
#
# Stress axis : x y z
#
# Youngs Moduli (GPa) = 77.99257 77.99259 52.64733
#
# Poissons Ratio (x) = 0.19008 0.20149
# Poissons Ratio (y) = 0.19008 0.20149
# Poissons Ratio (z) = 0.29848 0.29849
#
# Static dielectric constant tensor:
#      x y z
#    x 3.809840 0.000000 0.000000 
#    y 0.000000 3.809840 0.000000 
#    z 0.000000 0.000000 3.309640 
# 
# 
# High freq. dielectric constant tensor:
#      x y z
#    x 1.825320 0.000000 0.000000 
#    y 0.000000 1.825320 0.000000 
#    z 0.000000 0.000000 1.808610 
# 
# From -- ./inp_files/7261.got.cif
#   From: 2010.03.12/outbox.cif.g09.slc.cpg/sg97_4_cif.got.tgz:7261.got - 2010.04.08 20:59:42.
