data_PCOD8306933
_publ_section_title
;
Structure prediction by ZEFSAII (Michael W. Deem and Ramdas Pophale) SiO2 
 PCOD8306933
Probable space group: P 42 N M
;
_chemical_formula_sum "Si O2"
_cell_formula_units_Z 40
_cell_length_a 16.470737
_cell_length_b 16.470737
_cell_length_c 6.729366
_cell_angle_alpha 90.000000
_cell_angle_beta 90.000000
_cell_angle_gamma 90.000000
_cell_volume 1825.577249
_symmetry_space_group_name_H-M "P 42 N M"
_symmetry_group_IT_number 102
_symmetry_cell_setting 'tetragonal'
loop_
_space_group_symop_operation_xyz
x,y,z
1/2-y,1/2+x,1/2+z
-x,-y,z
1/2+y,1/2-x,1/2+z
1/2-x,1/2+y,1/2+z
1/2+x,1/2-y,1/2+z
-y,-x,z
y,x,z
loop_
_atom_site_type_symbol
_atom_site_label
_atom_site_fract_x
_atom_site_fract_y
_atom_site_fract_z
Si Si1 0.324205 0.196083 0.419860
Si Si2 0.618815 0.149614 0.311184
Si Si3 0.499953 0.634346 0.932527
Si Si4 0.276350 0.594395 0.638464
Si Si5 0.966791 0.303611 0.625531
O O1 0.278381 0.278381 0.359645
O O2 0.326380 0.190686 0.659602
O O3 0.275895 0.118504 0.333118
O O4 0.411941 0.199444 0.321396
O O5 0.580941 0.220097 0.449154
O O6 0.541046 0.133935 0.169692
O O7 0.653873 0.076026 0.437709
O O8 0.423273 0.576728 0.995283
O O9 0.582765 0.582765 0.926235
O O10 0.483394 0.670715 0.709787
O O11 0.508431 0.709918 0.083044
O O12 0.332936 0.667065 0.568964
#
# Coordination Sequence:
#
# PCOD8306933 Si02
#       5
#     8   8   8   8   8
#     4  10  21  40  68  99 132 177 227 277 331 406
#     4  11  24  42  68  93 133 179 231 289 343 397
#     4  10  21  41  70 104 145 181 217 279 349 418
#     4   9  19  38  65  96 130 174 220 262 329 410
#     4  11  25  43  68 100 134 181 236 284 343 409
#
# _framework density 21.910875999999998
#
# number of rings (size 3 to 8) (size 9 to 14) (size 15 to 20)
#    0.000    1.800    2.000    1.200    2.800    3.200 
#    0.000    4.000    0.000    2.400    0.000    0.000 
#    0.000    0.000    0.000    0.000    0.000    0.000 
#
# Total GULP energy -495629.943024 kJ/mol
# GULP energy per Si atom -12390.748576 kJ/mol
# Density = 2.186101 g / cm^3
# Si number density = 21.910876 Si / 1000 Ang^3
#
#
#
# Elastic Constant Matrix: (Units=GPa)
#
#
# Indices 1 2 3 4 5 6 
#
# 1 107.5389 51.4835 36.7952 0.0000 0.0000 0.0000
# 2 51.4835 107.5389 36.7952 0.0000 0.0000 0.0000
# 3 36.7952 36.7952 112.7182 0.0000 0.0000 0.0000
# 4 0.0000 0.0000 0.0000 29.5548 0.0000 0.0000
# 5 0.0000 0.0000 0.0000 0.0000 29.5548 0.0000
# 6 0.0000 0.0000 0.0000 0.0000 0.0000 27.9771
#
#
#
# Elastic Compliance Matrix: (Units=1/GPa)
#
#
# Indices 1 2 3 4 5 6 
#
# 1 0.012623 -0.005216 -0.002418 0.000000 0.000000 0.000000
# 2 -0.005216 0.012623 -0.002418 0.000000 0.000000 0.000000
# 3 -0.002418 -0.002418 0.010450 0.000000 0.000000 0.000000
# 4 0.000000 0.000000 0.000000 0.033835 0.000000 0.000000
# 5 0.000000 0.000000 0.000000 0.000000 0.033835 0.000000
# 6 0.000000 0.000000 0.000000 0.000000 0.000000 0.035743
#
#
# Mechanical properties :
#
#
# Convention : Reuss Voigt Hill
#
# Bulk Modulus (GPa) = 64.13126 64.21595 64.17360
# Shear Modulus (GPa) = 30.41113 30.93216 30.67164
#
# Velocity S-wave (km/s) = 3.72956 3.76137 3.74550
# Velocity P-wave (km/s) = 6.91945 6.94516 6.93232
#
# Compressibility (1/GPa) = 0.01559302
#
# Stress axis : x y z
#
# Youngs Moduli (GPa) = 79.21760 79.21760 95.69059
#
# Poissons Ratio (x) = 0.41320 0.23138
# Poissons Ratio (y) = 0.41320 0.23138
# Poissons Ratio (z) = 0.19155 0.19155
#
# Static dielectric constant tensor:
#      x y z
#    x 3.928980 0.000000 0.000000 
#    y 0.000000 3.928980 0.000000 
#    z 0.000000 0.000000 3.820470 
# 
# 
# High freq. dielectric constant tensor:
#      x y z
#    x 1.858210 0.000000 0.000000 
#    y 0.000000 1.858210 0.000000 
#    z 0.000000 0.000000 1.863820 
# 
# From -- ./inp_files/236.got.cif
#   From: 2010.03.12/outbox.cif.g09.slc.cpg/sg102_1_cif.got.tgz:236.got - 2010.04.14 01:40:42.
