data_PCOD8306901
_publ_section_title
;
Structure prediction by ZEFSAII (Michael W. Deem and Ramdas Pophale) SiO2 
 PCOD8306901
Probable space group: P 42 N M
;
_chemical_formula_sum "Si O2"
_cell_formula_units_Z 40
_cell_length_a 15.355033
_cell_length_b 15.355033
_cell_length_c 9.066219
_cell_angle_alpha 90.000000
_cell_angle_beta 90.000000
_cell_angle_gamma 90.000000
_cell_volume 2137.606266
_symmetry_space_group_name_H-M "P 42 N M"
_symmetry_group_IT_number 102
_symmetry_cell_setting 'tetragonal'
loop_
_space_group_symop_operation_xyz
x,y,z
1/2-y,1/2+x,1/2+z
-x,-y,z
1/2+y,1/2-x,1/2+z
1/2-x,1/2+y,1/2+z
1/2+x,1/2-y,1/2+z
-y,-x,z
y,x,z
loop_
_atom_site_type_symbol
_atom_site_label
_atom_site_fract_x
_atom_site_fract_y
_atom_site_fract_z
Si Si1 0.432086 0.432086 0.438920
Si Si2 0.830003 0.687798 0.939918
Si Si3 0.523631 0.758936 0.440018
Si Si4 0.932086 0.067915 0.289494
Si Si5 0.312201 0.169997 0.288499
Si Si6 0.741064 0.023631 0.288398
O O1 0.500000 0.500000 0.369961
O O2 0.457275 0.337444 0.380981
O O3 0.435697 0.435697 0.614207
O O4 0.757407 0.757407 0.883214
O O5 0.820983 0.593429 0.866285
O O6 0.925548 0.719582 0.892399
O O7 0.822761 0.677897 0.114208
O O8 0.593429 0.820983 0.362132
O O9 0.536433 0.767400 0.614208
O O10 0.837445 0.042725 0.347434
O O11 0.000000 0.000000 0.358455
O O12 0.242593 0.242593 0.345203
O O13 0.280417 0.074452 0.336017
#
# Coordination Sequence:
#
# PCOD8306901 Si02
#       6
#     4   8   8   4   8   8
#     4   9  16  30  55  83 105 132 183 236 270 314
#     4  10  21  37  56  81 114 146 181 230 283 327
#     4  10  20  35  57  82 108 145 187 227 274 330
#     4   9  16  30  55  83 105 132 183 236 270 314
#     4  10  21  37  56  81 114 146 181 230 283 327
#     4  10  20  35  57  82 108 145 187 227 274 330
#
# _framework density 18.712522
#
# number of rings (size 3 to 8) (size 9 to 14) (size 15 to 20)
#    0.000    2.200    2.000    1.200    0.000    7.200 
#    0.000    4.000    0.000    4.800    0.000    0.000 
#    0.000    0.000    0.000    0.000    0.000    0.000 
#
# Total GULP energy -496010.863621 kJ/mol
# GULP energy per Si atom -12400.271591 kJ/mol
# Density = 1.866993 g / cm^3
# Si number density = 18.712522 Si / 1000 Ang^3
#
#
#
# Elastic Constant Matrix: (Units=GPa)
#
#
# Indices 1 2 3 4 5 6 
#
# 1 134.9978 67.6404 29.7576 0.0000 0.0000 -0.0002
# 2 67.6404 134.9978 29.7576 0.0000 0.0000 0.0002
# 3 29.7576 29.7576 18.9644 0.0000 0.0000 0.0000
# 4 0.0000 0.0000 0.0000 29.5336 0.0000 0.0000
# 5 0.0000 0.0000 0.0000 0.0000 29.5336 0.0000
# 6 -0.0002 0.0002 0.0000 0.0000 0.0000 43.1440
#
#
#
# Elastic Compliance Matrix: (Units=1/GPa)
#
#
# Indices 1 2 3 4 5 6 
#
# 1 0.012000 -0.002846 -0.014363 0.000000 0.000000 0.000000
# 2 -0.002846 0.012000 -0.014363 0.000000 0.000000 0.000000
# 3 -0.014363 -0.014363 0.097804 0.000000 0.000000 0.000000
# 4 0.000000 0.000000 0.000000 0.033860 0.000000 0.000000
# 5 0.000000 0.000000 0.000000 0.000000 0.033860 0.000000
# 6 0.000000 0.000000 0.000000 0.000000 0.000000 0.023178
#
#
# Mechanical properties :
#
#
# Convention : Reuss Voigt Hill
#
# Bulk Modulus (GPa) = 17.04738 60.36346 38.70542
# Shear Modulus (GPa) = 16.92633 31.22920 24.07777
#
# Velocity S-wave (km/s) = 3.01083 4.08964 3.59098
# Velocity P-wave (km/s) = 4.60616 7.39111 6.15814
#
# Compressibility (1/GPa) = 0.05866005
#
# Stress axis : x y z
#
# Youngs Moduli (GPa) = 83.33538 83.33538 10.22453
#
# Poissons Ratio (x) = 0.23721 0.14685
# Poissons Ratio (y) = 0.23721 0.14685
# Poissons Ratio (z) = 1.19691 1.19691
#
# Static dielectric constant tensor:
#      x y z
#    x 3.601400 0.000000 0.000000 
#    y 0.000000 3.601400 0.000000 
#    z 0.000000 0.000000 3.045000 
# 
# 
# High freq. dielectric constant tensor:
#      x y z
#    x 1.739660 0.000000 0.000000 
#    y 0.000000 1.739660 0.000000 
#    z 0.000000 0.000000 1.691500 
# 
# From -- ./inp_files/951.got.cif
#   From: 2010.03.12/outbox.cif.g09.slc.cpg/sg102_1_cif.got.tgz:951.got - 2010.04.14 01:40:42.
