data_PCOD8306755
_publ_section_title
;
Structure prediction by ZEFSAII (Michael W. Deem and Ramdas Pophale) SiO2 
 PCOD8306755
Probable space group: P 42 C M
;
_chemical_formula_sum "Si O2"
_cell_formula_units_Z 48
_cell_length_a 17.532589
_cell_length_b 17.532589
_cell_length_c 9.348820
_cell_angle_alpha 90.000000
_cell_angle_beta 90.000000
_cell_angle_gamma 90.000000
_cell_volume 2873.749458
_symmetry_space_group_name_H-M "P 42 C M"
_symmetry_group_IT_number 101
_symmetry_cell_setting 'tetragonal'
loop_
_space_group_symop_operation_xyz
x,y,z
-y,x,1/2+z
-x,-y,z
y,-x,1/2+z
-x,y,1/2+z
x,-y,1/2+z
-y,-x,z
y,x,z
loop_
_atom_site_type_symbol
_atom_site_label
_atom_site_fract_x
_atom_site_fract_y
_atom_site_fract_z
Si Si1 0.824090 0.696003 0.544290
Si Si2 0.175911 0.696002 0.727054
Si Si3 0.925008 0.797334 0.721439
Si Si4 0.298164 0.578419 0.053851
Si Si5 0.074994 0.202668 0.049906
Si Si6 0.298165 0.421583 0.217511
O O1 0.760388 0.760388 0.537072
O O2 0.860184 0.686317 0.385672
O O3 0.889873 0.719551 0.655607
O O4 0.782809 0.617980 0.593781
O O5 0.239612 0.760389 0.734272
O O6 0.110129 0.719548 0.615734
O O7 0.217195 0.617979 0.677572
O O8 0.866548 0.866548 0.705417
O O9 0.000002 0.821384 0.635675
O O10 0.945637 0.781406 0.885673
O O11 0.367748 0.632253 0.102752
O O12 0.305553 0.500002 0.135684
O O13 0.302121 0.563176 0.885681
O O14 0.133455 0.133455 0.065927
O O15 0.367751 0.367751 0.168611
#
# Coordination Sequence:
#
# PCOD8306755 Si02
#       6
#     8   8   8   8   8   8
#     4   8  15  30  49  66  88 120 157 194 230 271
#     4   8  15  30  49  66  88 120 157 194 230 271
#     4  10  20  32  48  71  96 123 155 189 228 274
#     4   9  18  31  47  69  96 126 158 192 233 278
#     4  10  20  32  48  71  96 123 155 189 228 274
#     4   9  18  31  47  69  96 126 158 192 233 278
#
# _framework density 16.702918
#
# number of rings (size 3 to 8) (size 9 to 14) (size 15 to 20)
#    0.000    3.000    0.000    3.000    0.000    4.667 
#    0.000    6.667    0.000    1.000    0.000    7.000 
#    0.000    0.000    0.000    0.000    0.000    0.000 
#
# Total GULP energy -595020.531450 kJ/mol
# GULP energy per Si atom -12396.261072 kJ/mol
# Density = 1.666490 g / cm^3
# Si number density = 16.702918 Si / 1000 Ang^3
#
#
#
# Elastic Constant Matrix: (Units=GPa)
#
#
# Indices 1 2 3 4 5 6 
#
# 1 59.0095 57.1386 55.9805 0.0000 0.0000 -0.0002
# 2 57.1386 59.0095 55.9805 0.0000 0.0000 0.0002
# 3 55.9805 55.9805 111.1731 0.0000 0.0000 0.0000
# 4 0.0000 0.0000 0.0000 29.6019 0.0000 0.0000
# 5 0.0000 0.0000 0.0000 0.0000 29.6019 0.0000
# 6 -0.0002 0.0002 0.0000 0.0000 0.0000 14.2997
#
#
#
# Elastic Compliance Matrix: (Units=1/GPa)
#
#
# Indices 1 2 3 4 5 6 
#
# 1 0.275621 -0.258891 -0.008425 0.000000 0.000000 0.000007
# 2 -0.258891 0.275621 -0.008425 0.000000 0.000000 -0.000007
# 3 -0.008425 -0.008425 0.017479 0.000000 0.000000 0.000000
# 4 0.000000 0.000000 0.000000 0.033782 0.000000 0.000000
# 5 0.000000 0.000000 0.000000 0.000000 0.033782 0.000000
# 6 0.000007 -0.000007 0.000000 0.000000 0.000000 0.069932
#
#
# Mechanical properties :
#
#
# Convention : Reuss Voigt Hill
#
# Bulk Modulus (GPa) = 57.99755 63.04346 60.52051
# Shear Modulus (GPa) = 3.95744 18.70688 11.33216
#
# Velocity S-wave (km/s) = 1.54093 3.35024 2.60754
# Velocity P-wave (km/s) = 6.16152 7.26577 6.73631
#
# Compressibility (1/GPa) = 0.01724211
#
# Stress axis : x y z
#
# Youngs Moduli (GPa) = 3.62817 3.62817 57.21079
#
# Poissons Ratio (x) = 0.93930 0.48197
# Poissons Ratio (y) = 0.93930 0.48197
# Poissons Ratio (z) = 0.03057 0.03057
#
# Static dielectric constant tensor:
#      x y z
#    x 3.087860 0.000000 0.000000 
#    y 0.000000 3.087860 0.000000 
#    z 0.000000 0.000000 3.259130 
# 
# 
# High freq. dielectric constant tensor:
#      x y z
#    x 1.627090 0.000000 0.000000 
#    y 0.000000 1.627090 0.000000 
#    z 0.000000 0.000000 1.648540 
# 
# From -- ./inp_files/671.got.cif
#   From: 2010.03.12/outbox.cif.g09.slc.cpg/sg101_1_cif.got.tgz:671.got - 2010.04.14 01:38:52.
