data_PCOD8306320
_publ_section_title
;
Structure prediction by ZEFSAII (Michael W. Deem and Ramdas Pophale) SiO2 
 PCOD8306320
Probable space group: I 41 2 2
;
_chemical_formula_sum "Si O2"
_cell_formula_units_Z 60
_cell_length_a 16.358814
_cell_length_b 16.358814
_cell_length_c 10.681850
_cell_angle_alpha 90.000000
_cell_angle_beta 90.000000
_cell_angle_gamma 90.000000
_cell_volume 2858.578376
_symmetry_space_group_name_H-M "I 41 2 2"
_symmetry_group_IT_number 98
_symmetry_cell_setting 'tetragonal'
loop_
_space_group_symop_operation_xyz
x,y,z
-y,1/2+x,1/4+z
-x,-y,z
y,1/2-x,1/4+z
x,1/2-y,1/4-z
-x,1/2+y,1/4-z
y,x,-z
-y,-x,-z
1/2+x,1/2+y,1/2+z
1/2-y,x,3/4+z
1/2-x,1/2-y,1/2+z
1/2+y,-x,3/4+z
1/2+x,-y,3/4-z
1/2-x,y,3/4-z
1/2+y,1/2+x,1/2-z
1/2-y,1/2-x,1/2-z
loop_
_atom_site_type_symbol
_atom_site_label
_atom_site_fract_x
_atom_site_fract_y
_atom_site_fract_z
Si Si1 0.250000 0.680946 0.375000
Si Si2 0.600148 0.428608 0.301689
Si Si3 0.542791 0.697243 0.243850
Si Si4 0.000000 0.500000 0.250000
Si Si5 0.640694 0.567822 0.122151
O O1 0.264507 0.735494 0.500000
O O2 0.323760 0.621814 0.347135
O O3 0.527499 0.364333 0.285662
O O4 0.579139 0.495618 0.409348
O O5 0.614944 0.478853 0.174549
O O6 0.623239 0.643159 0.215782
O O7 0.566242 0.761906 0.351177
O O8 0.511952 0.750000 0.125000
O O9 0.585317 0.585317 0.000000
#
# Coordination Sequence:
#
# PCOD8306320 Si02
#       5
#     8  16  16   4  16
#     4  12  28  46  68 106 150 188 230 300 372 436
#     4  12  24  45  70  99 138 181 235 285 349 436
#     4  10  22  40  68  98 132 172 224 280 344 410
#     4  12  24  44  66  92 132 184 236 264 328 418
#     4  10  22  42  71  98 136 174 229 289 346 416
#
# _framework density 20.989455
#
# number of rings (size 3 to 8) (size 9 to 14) (size 15 to 20)
#    0.000    1.067    4.000    1.600    1.867    7.467 
#    0.000    0.000   41.067    0.000    0.000    0.000 
#    0.000    0.000    0.000    0.000    0.000    0.000 
#
# Total GULP energy -371829.683288 kJ/mol
# GULP energy per Si atom -12394.322776 kJ/mol
# Density = 2.094168 g / cm^3
# Si number density = 20.989455 Si / 1000 Ang^3
#
#
#
# Elastic Constant Matrix: (Units=GPa)
#
#
# Indices 1 2 3 4 5 6 
#
# 1 136.3190 98.2213 71.2341 0.0000 0.0000 0.0000
# 2 98.2213 136.3221 71.2343 0.0000 0.0000 0.0000
# 3 71.2341 71.2343 111.0168 0.0000 0.0000 0.0000
# 4 0.0000 0.0000 0.0000 44.4070 0.0000 0.0000
# 5 0.0000 0.0000 0.0000 0.0000 44.4067 0.0000
# 6 0.0000 0.0000 0.0000 0.0000 0.0000 25.4568
#
#
#
# Elastic Compliance Matrix: (Units=1/GPa)
#
#
# Indices 1 2 3 4 5 6 
#
# 1 0.016617 -0.009630 -0.004483 0.000000 0.000000 0.000000
# 2 -0.009630 0.016617 -0.004483 0.000000 0.000000 0.000000
# 3 -0.004483 -0.004483 0.014761 0.000000 0.000000 0.000000
# 4 0.000000 0.000000 0.000000 0.022519 0.000000 0.000000
# 5 0.000000 0.000000 0.000000 0.000000 0.022519 0.000000
# 6 0.000000 0.000000 0.000000 0.000000 0.000000 0.039282
#
#
# Mechanical properties :
#
#
# Convention : Reuss Voigt Hill
#
# Bulk Modulus (GPa) = 92.57508 96.11524 94.34516
# Shear Modulus (GPa) = 28.88358 32.38531 30.63445
#
# Velocity S-wave (km/s) = 3.71361 3.93228 3.82451
# Velocity P-wave (km/s) = 7.91133 8.15528 8.03423
#
# Compressibility (1/GPa) = 0.01080204
#
# Stress axis : x y z
#
# Youngs Moduli (GPa) = 60.17836 60.18020 67.74684
#
# Poissons Ratio (x) = 0.57955 0.30373
# Poissons Ratio (y) = 0.57953 0.30371
# Poissons Ratio (z) = 0.26979 0.26979
#
# Static dielectric constant tensor:
#      x y z
#    x 3.953220 0.000000 0.000000 
#    y 0.000000 3.953240 0.000000 
#    z 0.000000 0.000000 4.174820 
# 
# 
# High freq. dielectric constant tensor:
#      x y z
#    x 1.823980 0.000000 0.000000 
#    y 0.000000 1.823980 0.000000 
#    z 0.000000 0.000000 1.828050 
# 
# From -- ./inp_files/3061.got.cif
#   From: 2010.03.12/outbox.cif.g09.slc.cpg/sg98_2_cif.got.tgz:3061.got - 2010.04.08 21:04:41.
