data_PCOD8306507
_publ_section_title
;
Structure prediction by ZEFSAII (Michael W. Deem and Ramdas Pophale) SiO2 
 PCOD8306507
Probable space group: P 4 M M
;
_chemical_formula_sum "Si O2"
_cell_formula_units_Z 48
_cell_length_a 15.205008
_cell_length_b 15.205008
_cell_length_c 11.584513
_cell_angle_alpha 90.000000
_cell_angle_beta 90.000000
_cell_angle_gamma 90.000000
_cell_volume 2678.249837
_symmetry_space_group_name_H-M "P 4 M M"
_symmetry_group_IT_number 99
_symmetry_cell_setting 'tetragonal'
loop_
_space_group_symop_operation_xyz
x,y,z
-y,x,z
-x,-y,z
y,-x,z
-x,y,z
x,-y,z
-y,-x,z
y,x,z
loop_
_atom_site_type_symbol
_atom_site_label
_atom_site_fract_x
_atom_site_fract_y
_atom_site_fract_z
Si Si1 0.900599 0.684010 0.472730
Si Si2 0.898154 0.598212 0.895868
Si Si3 0.740925 0.402527 0.359830
Si Si4 0.102537 0.245918 0.724080
Si Si5 0.771101 0.092624 0.242171
Si Si6 0.148973 0.402368 0.146052
O O1 0.829461 0.610602 0.435814
O O2 0.875600 0.725467 0.594677
O O3 0.894920 0.762696 0.379674
O O4 0.000000 0.643640 0.476150
O O5 0.884076 0.500000 0.843076
O O6 0.870822 0.671317 0.803514
O O7 0.000000 0.609840 0.933300
O O8 0.836128 0.609614 0.008871
O O9 0.704833 0.500000 0.386015
O O10 0.667447 0.332554 0.396298
O O11 0.762060 0.392658 0.222570
O O12 0.161582 0.161582 0.758111
O O13 0.000000 0.220513 0.739615
O O14 0.828561 0.171440 0.188339
O O15 0.674403 0.084596 0.187482
O O16 0.819081 0.000000 0.215830
O O17 0.108121 0.500000 0.168468
#
# Coordination Sequence:
#
# PCOD8306507 Si02
#       6
#     8   8   8   8   8   8
#     4   9  18  33  51  71  96 125 162 207 248 283
#     4   9  18  32  49  70  95 122 158 206 253 293
#     4  10  20  33  51  75 103 133 162 196 239 291
#     4  10  20  33  50  72 100 134 167 200 240 287
#     4  10  19  30  46  67  94 127 158 193 235 281
#     4   9  17  31  51  71  91 118 155 200 248 290
#
# _framework density 17.922152000000001
#
# number of rings (size 3 to 8) (size 9 to 14) (size 15 to 20)
#    0.000    2.500    0.000    3.500    0.000    4.500 
#    0.000    6.667    0.000    3.000    0.000    2.333 
#    0.000    0.333    0.000    0.333    0.000    0.000 
#
# Total GULP energy -594680.033536 kJ/mol
# GULP energy per Si atom -12389.167365 kJ/mol
# Density = 1.788136 g / cm^3
# Si number density = 17.922152 Si / 1000 Ang^3
#
#
#
# Elastic Constant Matrix: (Units=GPa)
#
#
# Indices 1 2 3 4 5 6 
#
# 1 104.9048 69.2002 43.0339 0.0000 0.0000 -0.0003
# 2 69.2002 104.9048 43.0339 0.0000 0.0000 0.0003
# 3 43.0339 43.0339 78.9898 0.0000 0.0000 0.0000
# 4 0.0000 0.0000 0.0000 17.7483 0.0000 0.0000
# 5 0.0000 0.0000 0.0000 0.0000 17.7483 0.0000
# 6 -0.0003 0.0003 0.0000 0.0000 0.0000 15.8102
#
#
#
# Elastic Compliance Matrix: (Units=1/GPa)
#
#
# Indices 1 2 3 4 5 6 
#
# 1 0.017934 -0.010073 -0.004283 0.000000 0.000000 0.000000
# 2 -0.010073 0.017934 -0.004283 0.000000 0.000000 0.000000
# 3 -0.004283 -0.004283 0.017326 0.000000 0.000000 0.000000
# 4 0.000000 0.000000 0.000000 0.056343 0.000000 0.000000
# 5 0.000000 0.000000 0.000000 0.000000 0.056343 0.000000
# 6 0.000000 0.000000 0.000000 0.000000 0.000000 0.063250
#
#
# Mechanical properties :
#
#
# Convention : Reuss Voigt Hill
#
# Bulk Modulus (GPa) = 62.82433 66.59284 64.70859
# Shear Modulus (GPa) = 18.40167 19.16345 18.78256
#
# Velocity S-wave (km/s) = 3.20778 3.27350 3.24081
# Velocity P-wave (km/s) = 6.98927 7.17810 7.08432
#
# Compressibility (1/GPa) = 0.01591740
#
# Stress axis : x y z
#
# Youngs Moduli (GPa) = 55.75945 55.75945 57.71621
#
# Poissons Ratio (x) = 0.56169 0.24717
# Poissons Ratio (y) = 0.56169 0.24717
# Poissons Ratio (z) = 0.23879 0.23879
#
# Static dielectric constant tensor:
#      x y z
#    x 3.212090 0.000000 0.000000 
#    y 0.000000 3.212090 0.000000 
#    z 0.000000 0.000000 3.276210 
# 
# 
# High freq. dielectric constant tensor:
#      x y z
#    x 1.677690 0.000000 0.000000 
#    y 0.000000 1.677690 0.000000 
#    z 0.000000 0.000000 1.684300 
# 
# From -- ./inp_files/1394.got.cif
#   From: 2010.03.12/outbox.cif.g09.slc.cpg/sg99_cif.got.tgz:1394.got - 2010.04.08 21:11:30.
