data_PCOD8306237
_publ_section_title
;
Structure prediction by ZEFSAII (Michael W. Deem and Ramdas Pophale) SiO2 
 PCOD8306237
Probable space group: I 41 2 2
;
_chemical_formula_sum "Si O2"
_cell_formula_units_Z 72
_cell_length_a 12.637876
_cell_length_b 12.637876
_cell_length_c 23.736781
_cell_angle_alpha 90.000000
_cell_angle_beta 90.000000
_cell_angle_gamma 90.000000
_cell_volume 3791.141573
_symmetry_space_group_name_H-M "I 41 2 2"
_symmetry_group_IT_number 98
_symmetry_cell_setting 'tetragonal'
loop_
_space_group_symop_operation_xyz
x,y,z
-y,1/2+x,1/4+z
-x,-y,z
y,1/2-x,1/4+z
x,1/2-y,1/4-z
-x,1/2+y,1/4-z
y,x,-z
-y,-x,-z
1/2+x,1/2+y,1/2+z
1/2-y,x,3/4+z
1/2-x,1/2-y,1/2+z
1/2+y,-x,3/4+z
1/2+x,-y,3/4-z
1/2-x,y,3/4-z
1/2+y,1/2+x,1/2-z
1/2-y,1/2-x,1/2-z
loop_
_atom_site_type_symbol
_atom_site_label
_atom_site_fract_x
_atom_site_fract_y
_atom_site_fract_z
Si Si1 0.250000 0.553499 0.875000
Si Si2 0.937597 0.604864 0.539846
Si Si3 0.348676 0.205174 0.806679
Si Si4 0.603419 0.799271 0.926786
Si Si5 0.393124 0.945838 0.186715
O O1 0.294008 0.480669 0.824186
O O2 0.157653 0.629295 0.851260
O O3 0.814788 0.587283 0.554132
O O4 0.947606 0.621838 0.472272
O O5 0.000000 0.500000 0.556809
O O6 0.366700 0.133301 0.750000
O O7 0.391440 0.148390 0.863732
O O8 0.223285 0.231456 0.807215
O O9 0.533202 0.694912 0.927670
O O10 0.405827 0.905827 0.250000
O O11 0.500000 0.000000 0.164617
#
# Coordination Sequence:
#
# PCOD8306237 Si02
#       5
#     8  16  16  16  16
#     4  12  20  32  48  74 108 140 176 200 260 336
#     4  11  21  32  50  79 110 141 175 217 270 327
#     4   9  18  31  55  78 104 138 178 230 274 316
#     4  10  19  35  51  79 112 138 179 226 271 324
#     4  11  21  31  50  76 110 145 172 213 268 331
#
# _framework density 18.99164
#
# number of rings (size 3 to 8) (size 9 to 14) (size 15 to 20)
#    0.000    1.556    2.222    6.000    6.222    0.000 
#    0.000    0.000    0.000    6.000    0.000    0.000 
#    0.000    0.000    0.000    0.000    0.000    0.000 
#
# Total GULP energy -446124.007023 kJ/mol
# GULP energy per Si atom -12392.333528 kJ/mol
# Density = 1.894841 g / cm^3
# Si number density = 18.991640 Si / 1000 Ang^3
#
#
#
# Elastic Constant Matrix: (Units=GPa)
#
#
# Indices 1 2 3 4 5 6 
#
# 1 47.1401 15.3219 26.4911 0.0000 0.0000 0.0000
# 2 15.3219 47.1405 26.4912 0.0000 0.0000 0.0000
# 3 26.4911 26.4912 172.2975 0.0000 0.0000 0.0000
# 4 0.0000 0.0000 0.0000 17.2127 0.0000 0.0000
# 5 0.0000 0.0000 0.0000 0.0000 17.2121 0.0000
# 6 0.0000 0.0000 0.0000 0.0000 0.0000 19.3098
#
#
#
# Elastic Compliance Matrix: (Units=1/GPa)
#
#
# Indices 1 2 3 4 5 6 
#
# 1 0.024920 -0.006509 -0.002831 0.000000 0.000000 0.000000
# 2 -0.006509 0.024919 -0.002831 0.000000 0.000000 0.000000
# 3 -0.002831 -0.002831 0.006674 0.000000 0.000000 0.000000
# 4 0.000000 0.000000 0.000000 0.058097 0.000000 0.000000
# 5 0.000000 0.000000 0.000000 0.000000 0.058099 0.000000
# 6 0.000000 0.000000 0.000000 0.000000 0.000000 0.051787
#
#
# Mechanical properties :
#
#
# Convention : Reuss Voigt Hill
#
# Bulk Modulus (GPa) = 31.08187 44.79851 37.94019
# Shear Modulus (GPa) = 19.26332 23.96518 21.61425
#
# Velocity S-wave (km/s) = 3.18827 3.55615 3.37722
# Velocity P-wave (km/s) = 5.47312 6.36407 5.93533
#
# Compressibility (1/GPa) = 0.03217310
#
# Stress axis : x y z
#
# Youngs Moduli (GPa) = 40.12898 40.12924 149.82690
#
# Poissons Ratio (x) = 0.26119 0.42412
# Poissons Ratio (y) = 0.26119 0.42411
# Poissons Ratio (z) = 0.11359 0.11359
#
# Static dielectric constant tensor:
#      x y z
#    x 3.251340 0.000000 0.000000 
#    y 0.000000 3.251350 0.000000 
#    z 0.000000 0.000000 4.302180 
# 
# 
# High freq. dielectric constant tensor:
#      x y z
#    x 1.696310 0.000000 0.000000 
#    y 0.000000 1.696310 0.000000 
#    z 0.000000 0.000000 1.779110 
# 
# From -- ./inp_files/10801.got.cif
#   From: 2010.03.12/outbox.cif.g09.slc.cpg/sg98_6_cif.got.tgz:10801.got - 2010.04.08 21:04:41.
