data_PCOD8306064
_publ_section_title
;
Structure prediction by ZEFSAII (Michael W. Deem and Ramdas Pophale) SiO2 
 PCOD8306064
Probable space group: I 4 2 2 
;
_chemical_formula_sum "Si O2"
_cell_formula_units_Z 64
_cell_length_a 21.282851
_cell_length_b 21.282851
_cell_length_c 7.550567
_cell_angle_alpha 90.000000
_cell_angle_beta 90.000000
_cell_angle_gamma 90.000000
_cell_volume 3420.102916
_symmetry_space_group_name_H-M "I 4 2 2 "
_symmetry_group_IT_number 97
_symmetry_cell_setting 'tetragonal'
loop_
_space_group_symop_operation_xyz
x,y,z
-y,x,z
-x,-y,z
y,-x,z
x,-y,-z
-x,y,-z
y,x,-z
-y,-x,-z
1/2+x,1/2+y,1/2+z
1/2-y,1/2+x,1/2+z
1/2-x,1/2-y,1/2+z
1/2+y,1/2-x,1/2+z
1/2+x,1/2-y,1/2-z
1/2-x,1/2+y,1/2-z
1/2+y,1/2+x,1/2-z
1/2-y,1/2-x,1/2-z
loop_
_atom_site_type_symbol
_atom_site_label
_atom_site_fract_x
_atom_site_fract_y
_atom_site_fract_z
Si Si1 0.181339 0.000000 0.500000
Si Si2 0.496528 0.901581 0.297193
Si Si3 0.465721 0.230297 0.313997
Si Si4 0.726209 0.673142 0.683272
Si Si5 0.864176 0.135825 0.500000
O O1 0.218962 0.990580 0.679433
O O2 0.141230 0.938041 0.466852
O O3 0.500000 0.886491 0.500000
O O4 0.426307 0.926307 0.250000
O O5 0.515245 0.835080 0.212995
O O6 0.545311 0.954690 0.250000
O O7 0.500000 0.240900 0.500000
O O8 0.390771 0.234016 0.344806
O O9 0.693764 0.693764 0.500000
O O10 0.772719 0.727282 0.750000
O O11 0.672493 0.661687 0.828815
#
# Coordination Sequence:
#
# PCOD8306064 Si02
#       5
#     8  16  16  16   8
#     4  10  22  39  64  81 120 142 192 240 300 354
#     4  10  20  33  50  73 108 149 197 233 278 330
#     4  10  22  38  55  86 114 156 194 242 292 350
#     4  11  21  38  61  87 124 155 199 246 298 358
#     4  10  22  41  60  92 112 158 190 243 298 354
#
# _framework density 18.712888
#
# number of rings (size 3 to 8) (size 9 to 14) (size 15 to 20)
#    0.000    1.750    1.250    3.750    3.500    0.250 
#    4.500    1.250    0.000    0.000    0.000    3.500 
#    0.000    0.000    0.000    0.000    0.000    0.000 
#
# Total GULP energy -396587.049530 kJ/mol
# GULP energy per Si atom -12393.345298 kJ/mol
# Density = 1.867030 g / cm^3
# Si number density = 18.712888 Si / 1000 Ang^3
#
#
#
# Elastic Constant Matrix: (Units=GPa)
#
#
# Indices 1 2 3 4 5 6 
#
# 1 141.4181 80.3531 39.6638 0.0000 0.0000 0.0000
# 2 80.3531 141.4094 39.6616 0.0000 0.0000 0.0000
# 3 39.6638 39.6616 90.4150 0.0000 0.0000 0.0000
# 4 0.0000 0.0000 0.0000 27.9153 0.0000 0.0000
# 5 0.0000 0.0000 0.0000 0.0000 27.9146 0.0000
# 6 0.0000 0.0000 0.0000 0.0000 0.0000 27.4450
#
#
#
# Elastic Compliance Matrix: (Units=1/GPa)
#
#
# Indices 1 2 3 4 5 6 
#
# 1 0.010863 -0.005514 -0.002346 0.000000 0.000000 0.000000
# 2 -0.005514 0.010863 -0.002346 0.000000 0.000000 0.000000
# 3 -0.002346 -0.002346 0.013119 0.000000 0.000000 0.000000
# 4 0.000000 0.000000 0.000000 0.035823 0.000000 0.000000
# 5 0.000000 0.000000 0.000000 0.000000 0.035823 0.000000
# 6 0.000000 0.000000 0.000000 0.000000 0.000000 0.036436
#
#
# Mechanical properties :
#
#
# Convention : Reuss Voigt Hill
#
# Bulk Modulus (GPa) = 69.29728 76.95552 73.12640
# Shear Modulus (GPa) = 29.73524 30.89260 30.31392
#
# Velocity S-wave (km/s) = 3.99058 4.06750 4.02923
# Velocity P-wave (km/s) = 7.63840 7.95444 7.79802
#
# Compressibility (1/GPa) = 0.01443058
#
# Stress axis : x y z
#
# Youngs Moduli (GPa) = 92.05965 92.05456 76.22780
#
# Poissons Ratio (x) = 0.50762 0.17885
# Poissons Ratio (y) = 0.50765 0.17884
# Poissons Ratio (z) = 0.21600 0.21598
#
# Static dielectric constant tensor:
#      x y z
#    x 3.624820 0.000000 0.000000 
#    y 0.000000 3.624840 0.000000 
#    z 0.000000 0.000000 3.464310 
# 
# 
# High freq. dielectric constant tensor:
#      x y z
#    x 1.731150 0.000000 0.000000 
#    y 0.000000 1.731150 0.000000 
#    z 0.000000 0.000000 1.739070 
# 
# From -- ./inp_files/2144.got.cif
#   From: 2010.03.12/outbox.cif.g09.slc.cpg/sg97_2_cif.got.tgz:2144.got - 2010.04.08 20:59:42.
