data_PCOD8306060
_publ_section_title
;
Structure prediction by ZEFSAII (Michael W. Deem and Ramdas Pophale) SiO2 
 PCOD8306060
Probable space group: I 4 2 2 
;
_chemical_formula_sum "Si O2"
_cell_formula_units_Z 112
_cell_length_a 14.134847
_cell_length_b 14.134847
_cell_length_c 24.450918
_cell_angle_alpha 90.000000
_cell_angle_beta 90.000000
_cell_angle_gamma 90.000000
_cell_volume 4885.144259
_symmetry_space_group_name_H-M "I 4 2 2 "
_symmetry_group_IT_number 97
_symmetry_cell_setting 'tetragonal'
loop_
_space_group_symop_operation_xyz
x,y,z
-y,x,z
-x,-y,z
y,-x,z
x,-y,-z
-x,y,-z
y,x,-z
-y,-x,-z
1/2+x,1/2+y,1/2+z
1/2-y,1/2+x,1/2+z
1/2-x,1/2-y,1/2+z
1/2+y,1/2-x,1/2+z
1/2+x,1/2-y,1/2-z
1/2-x,1/2+y,1/2-z
1/2+y,1/2+x,1/2-z
1/2-y,1/2-x,1/2-z
loop_
_atom_site_type_symbol
_atom_site_label
_atom_site_fract_x
_atom_site_fract_y
_atom_site_fract_z
Si Si1 0.919755 0.131921 0.798782
Si Si2 0.130609 0.665595 0.416724
Si Si3 0.147403 0.969379 0.586341
Si Si4 0.897119 0.739653 0.011167
Si Si5 0.565883 0.283311 0.185085
Si Si6 0.102094 0.545830 0.195611
Si Si7 0.266113 0.809907 0.121880
O O1 0.900381 0.152445 0.735071
O O2 0.873597 0.217215 0.832052
O O3 0.031522 0.128629 0.812384
O O4 0.060968 0.750734 0.436154
O O5 0.146236 0.605383 0.471818
O O6 0.093901 0.610714 0.363577
O O7 0.237071 0.692447 0.402397
O O8 0.072206 0.889911 0.566864
O O9 0.160248 0.981984 0.652390
O O10 0.880961 0.701067 0.073272
O O11 0.819659 0.819659 0.000000
O O12 0.000000 0.785731 0.000000
O O13 0.530954 0.182448 0.206234
O O14 0.651337 0.258398 0.144179
O O15 0.112543 0.612543 0.250000
O O16 0.000000 0.500000 0.196068
#
# Coordination Sequence:
#
# PCOD8306060 Si02
#       7
#    16  16  16  16  16  16  16
#     4  11  27  43  66 104 143 183 236 294 355 432
#     4  10  23  45  68  99 137 183 236 289 358 418
#     4  10  19  39  71 102 137 179 226 280 342 426
#     4  10  25  46  75  99 131 182 237 304 354 416
#     4  11  23  41  67 101 139 185 220 281 353 430
#     4  10  25  39  65  99 140 181 228 282 345 435
#     4  11  25  42  71  97 137 180 231 290 355 415
#
# _framework density 22.926651
#
# number of rings (size 3 to 8) (size 9 to 14) (size 15 to 20)
#    0.000    1.571    1.429    1.286   14.000    1.286 
#    0.000    2.857    0.000    0.000    0.000    0.000 
#    0.000    0.000    0.000    0.000    0.000    0.000 
#
# Total GULP energy -693831.134721 kJ/mol
# GULP energy per Si atom -12389.841691 kJ/mol
# Density = 2.287447 g / cm^3
# Si number density = 22.926651 Si / 1000 Ang^3
#
#
#
# Elastic Constant Matrix: (Units=GPa)
#
#
# Indices 1 2 3 4 5 6 
#
# 1 66.9413 13.2442 22.2908 0.0000 0.0000 0.0000
# 2 13.2442 66.9413 22.2908 0.0000 0.0000 0.0000
# 3 22.2908 22.2908 110.6675 0.0000 0.0000 0.0000
# 4 0.0000 0.0000 0.0000 -12.8334 0.0000 0.0000
# 5 0.0000 0.0000 0.0000 0.0000 -12.8334 0.0000
# 6 0.0000 0.0000 0.0000 0.0000 0.0000 29.6840
#
#
#
# Elastic Compliance Matrix: (Units=1/GPa)
#
#
# Indices 1 2 3 4 5 6 
#
# 1 0.016333 -0.002290 -0.002829 0.000000 0.000000 0.000000
# 2 -0.002290 0.016333 -0.002829 0.000000 0.000000 0.000000
# 3 -0.002829 -0.002829 0.010176 0.000000 0.000000 0.000000
# 4 0.000000 0.000000 0.000000 -0.077921 0.000000 0.000000
# 5 0.000000 0.000000 0.000000 0.000000 -0.077921 0.000000
# 6 0.000000 0.000000 0.000000 0.000000 0.000000 0.033688
#
#
# Mechanical properties :
#
#
# Convention : Reuss Voigt Hill
#
# Bulk Modulus (GPa) = 37.10807 40.02241 38.56524
# Shear Modulus (GPa) = -91.85187 13.25170 -39.30008
#
# Velocity S-wave (km/s) = -6.33643 2.40678 -4.14474
# Velocity P-wave (km/s) = 6.10844 5.02176 2.45917
#
# Compressibility (1/GPa) = 0.02694831
#
# Stress axis : x y z
#
# Youngs Moduli (GPa) = 61.22424 61.22424 98.27423
#
# Poissons Ratio (x) = 0.14018 0.27799
# Poissons Ratio (y) = 0.14018 0.27799
# Poissons Ratio (z) = 0.17319 0.17319
#
# Static dielectric constant tensor:
#      x y z
#    x 4.097530 0.000000 0.000000 
#    y 0.000000 4.097530 0.000000 
#    z 0.000000 0.000000 4.740380 
# 
# 
# High freq. dielectric constant tensor:
#      x y z
#    x 1.901450 0.000000 0.000000 
#    y 0.000000 1.901450 0.000000 
#    z 0.000000 0.000000 1.911340 
# 
# From -- ./inp_files/7241.got.cif
#   From: 2010.03.12/outbox.cif.g09.slc.cpg/sg97_4_cif.got.tgz:7241.got - 2010.04.08 20:59:42.
