data_PCOD8306698
_publ_section_title
;
Structure prediction by ZEFSAII (Michael W. Deem and Ramdas Pophale) SiO2 
 PCOD8306698
Probable space group: P 42 C M
;
_chemical_formula_sum "Si O2"
_cell_formula_units_Z 56
_cell_length_a 18.969988
_cell_length_b 18.969988
_cell_length_c 9.965332
_cell_angle_alpha 90.000000
_cell_angle_beta 90.000000
_cell_angle_gamma 90.000000
_cell_volume 3586.128805
_symmetry_space_group_name_H-M "P 42 C M"
_symmetry_group_IT_number 101
_symmetry_cell_setting 'tetragonal'
loop_
_space_group_symop_operation_xyz
x,y,z
-y,x,1/2+z
-x,-y,z
y,-x,1/2+z
-x,y,1/2+z
x,-y,1/2+z
-y,-x,z
y,x,z
loop_
_atom_site_type_symbol
_atom_site_label
_atom_site_fract_x
_atom_site_fract_y
_atom_site_fract_z
Si Si1 0.749644 0.634921 0.310540
Si Si2 0.598995 0.716406 0.591862
Si Si3 0.634922 0.250357 0.373184
Si Si4 0.446322 0.334247 0.091863
Si Si5 0.937769 0.819728 0.091853
Si Si6 0.884124 0.000000 0.341852
Si Si7 0.706753 0.826664 0.091861
O O1 0.704598 0.704598 0.334568
O O2 0.766096 0.601721 0.458053
O O3 0.705904 0.578824 0.224771
O O4 0.819215 0.658201 0.226080
O O5 0.664426 0.664426 0.591863
O O6 0.601720 0.766095 0.725673
O O7 0.530524 0.665959 0.591860
O O8 0.704601 0.295400 0.349153
O O9 0.578826 0.294101 0.458951
O O10 0.658198 0.180787 0.457646
O O11 0.413704 0.413704 0.091869
O O12 0.876597 0.876597 0.091854
O O13 0.986871 0.831376 0.219765
O O14 0.903782 0.741968 0.091855
O O15 0.986869 0.831376 0.963938
O O16 0.932835 0.932835 0.375277
O O17 0.932834 0.067166 0.308425
O O18 0.764136 0.764136 0.091860
#
# Coordination Sequence:
#
# PCOD8306698 Si02
#       7
#     8   8   8   8   8   8   8
#     4   8  15  26  38  51  70  97 129 167 209 244
#     4  10  17  24  36  54  74 100 134 170 207 243
#     4   8  15  26  38  51  70  97 129 167 209 244
#     4   9  16  26  37  50  73 106 135 159 199 253
#     4   9  16  26  42  60  81 114 147 168 188 219
#     4   9  16  26  40  62  92 120 143 164 186 218
#     4   8  14  27  42  53  69 101 141 170 198 237
#
# _framework density 15.615726
#
# number of rings (size 3 to 8) (size 9 to 14) (size 15 to 20)
#    0.000    3.286    0.000    3.000    0.000    2.000 
#    0.000    1.429    0.000   12.000    0.000    0.000 
#    0.000    0.000    0.000   61.714    0.000   13.714 
#
# Total GULP energy -693759.655682 kJ/mol
# GULP energy per Si atom -12388.565280 kJ/mol
# Density = 1.558018 g / cm^3
# Si number density = 15.615726 Si / 1000 Ang^3
#
#
#
# Elastic Constant Matrix: (Units=GPa)
#
#
# Indices 1 2 3 4 5 6 
#
# 1 40.3766 30.7253 43.2769 0.0000 0.0000 -0.0001
# 2 30.7253 40.3766 43.2769 0.0000 0.0000 0.0001
# 3 43.2769 43.2769 163.8547 0.0000 0.0000 0.0000
# 4 0.0000 0.0000 0.0000 -0.7727 0.0000 0.0000
# 5 0.0000 0.0000 0.0000 0.0000 -0.7727 0.0000
# 6 -0.0001 0.0001 0.0000 0.0000 0.0000 19.5815
#
#
#
# Elastic Compliance Matrix: (Units=1/GPa)
#
#
# Indices 1 2 3 4 5 6 
#
# 1 0.062171 -0.041442 -0.005475 0.000000 0.000000 0.000001
# 2 -0.041442 0.062171 -0.005475 0.000000 0.000000 -0.000001
# 3 -0.005475 -0.005475 0.008995 0.000000 0.000000 0.000000
# 4 0.000000 0.000000 0.000000 -1.294118 0.000000 0.000000
# 5 0.000000 0.000000 0.000000 0.000000 -1.294118 0.000000
# 6 0.000001 -0.000001 0.000000 0.000000 0.000000 0.051069
#
#
# Mechanical properties :
#
#
# Convention : Reuss Voigt Hill
#
# Bulk Modulus (GPa) = 35.02205 53.24067 44.13136
# Shear Modulus (GPa) = -2.18386 12.09580 4.95597
#
# Velocity S-wave (km/s) = -1.18386 2.78617 1.78342
# Velocity P-wave (km/s) = 4.53954 6.67222 5.70640
#
# Compressibility (1/GPa) = 0.02855344
#
# Stress axis : x y z
#
# Youngs Moduli (GPa) = 16.08467 16.08467 111.17292
#
# Poissons Ratio (x) = 0.66658 0.60866
# Poissons Ratio (y) = 0.66658 0.60866
# Poissons Ratio (z) = 0.08806 0.08806
#
# Static dielectric constant tensor:
#      x y z
#    x 2.707170 0.000000 0.000000 
#    y 0.000000 2.707170 0.000000 
#    z 0.000000 0.000000 3.470680 
# 
# 
# High freq. dielectric constant tensor:
#      x y z
#    x 1.552950 0.000000 0.000000 
#    y 0.000000 1.552950 0.000000 
#    z 0.000000 0.000000 1.620480 
# 
# From -- ./inp_files/812.got.cif
#   From: 2010.03.12/outbox.cif.g09.slc.cpg/sg101_1_cif.got.tgz:812.got - 2010.04.14 01:38:52.
