data_PCOD8306392
_publ_section_title
;
Structure prediction by ZEFSAII (Michael W. Deem and Ramdas Pophale) SiO2 
 PCOD8306392
Probable space group: I 41 2 2
;
_chemical_formula_sum "Si O2"
_cell_formula_units_Z 48
_cell_length_a 21.483016
_cell_length_b 21.483016
_cell_length_c 4.878839
_cell_angle_alpha 90.000000
_cell_angle_beta 90.000000
_cell_angle_gamma 90.000000
_cell_volume 2251.681660
_symmetry_space_group_name_H-M "I 41 2 2"
_symmetry_group_IT_number 98
_symmetry_cell_setting 'tetragonal'
loop_
_space_group_symop_operation_xyz
x,y,z
-y,1/2+x,1/4+z
-x,-y,z
y,1/2-x,1/4+z
x,1/2-y,1/4-z
-x,1/2+y,1/4-z
y,x,-z
-y,-x,-z
1/2+x,1/2+y,1/2+z
1/2-y,x,3/4+z
1/2-x,1/2-y,1/2+z
1/2+y,-x,3/4+z
1/2+x,-y,3/4-z
1/2-x,y,3/4-z
1/2+y,1/2+x,1/2-z
1/2-y,1/2-x,1/2-z
loop_
_atom_site_type_symbol
_atom_site_label
_atom_site_fract_x
_atom_site_fract_y
_atom_site_fract_z
Si Si1 0.933607 0.566394 0.750000
Si Si2 0.928768 0.750000 0.125000
Si Si3 0.372928 0.372928 0.500000
Si Si4 0.508711 0.250000 0.125000
Si Si5 0.060736 0.881010 0.727475
O O1 0.888365 0.582932 0.502554
O O2 0.921275 0.497233 0.862475
O O3 0.885629 0.700214 0.285807
O O4 0.969813 0.779142 0.372065
O O5 0.546423 0.307574 0.262185
O O6 0.114842 0.885159 0.500000
O O7 0.086411 0.913590 0.000000
#
# Coordination Sequence:
#
# PCOD8306392 Si02
#       5
#     8   8   8   8  16
#     4  12  23  42  65 102 143 174 227 292 355 412
#     4  12  22  42  67  96 135 192 240 278 338 398
#     4  12  22  40  66  98 135 192 241 282 332 406
#     4  12  24  46  69  96 141 184 226 284 354 430
#     4  12  25  43  69 104 139 180 228 286 354 426
#
# _framework density 21.317402000000001
#
# number of rings (size 3 to 8) (size 9 to 14) (size 15 to 20)
#    0.000    0.000    6.667    4.500    0.000    1.333 
#    0.000    3.333    0.000    2.000    0.000    0.000 
#    0.000    0.000    0.000    0.000    0.000    0.000 
#
# Total GULP energy -297358.785708 kJ/mol
# GULP energy per Si atom -12389.949405 kJ/mol
# Density = 2.126888 g / cm^3
# Si number density = 21.317402 Si / 1000 Ang^3
#
#
#
# Elastic Constant Matrix: (Units=GPa)
#
#
# Indices 1 2 3 4 5 6 
#
# 1 107.8821 79.5726 50.5090 0.0000 0.0000 0.0000
# 2 79.5726 107.8827 50.5078 0.0000 0.0000 0.0000
# 3 50.5090 50.5078 156.8391 0.0000 0.0000 0.0000
# 4 0.0000 0.0000 0.0000 34.2572 0.0000 0.0000
# 5 0.0000 0.0000 0.0000 0.0000 34.2587 0.0000
# 6 0.0000 0.0000 0.0000 0.0000 0.0000 21.4499
#
#
#
# Elastic Compliance Matrix: (Units=1/GPa)
#
#
# Indices 1 2 3 4 5 6 
#
# 1 0.020889 -0.014434 -0.002079 0.000000 0.000000 0.000000
# 2 -0.014434 0.020889 -0.002079 0.000000 0.000000 0.000000
# 3 -0.002079 -0.002079 0.007715 0.000000 0.000000 0.000000
# 4 0.000000 0.000000 0.000000 0.029191 0.000000 0.000000
# 5 0.000000 0.000000 0.000000 0.000000 0.029190 0.000000
# 6 0.000000 0.000000 0.000000 0.000000 0.000000 0.046620
#
#
# Mechanical properties :
#
#
# Convention : Reuss Voigt Hill
#
# Bulk Modulus (GPa) = 81.23740 81.53140 81.38440
# Shear Modulus (GPa) = 25.53880 30.79414 28.16647
#
# Velocity S-wave (km/s) = 3.46501 3.80485 3.63890
# Velocity P-wave (km/s) = 7.36204 7.59157 7.47769
#
# Compressibility (1/GPa) = 0.01230960
#
# Stress axis : x y z
#
# Youngs Moduli (GPa) = 47.87138 47.87216 129.62085
#
# Poissons Ratio (x) = 0.69100 0.26947
# Poissons Ratio (y) = 0.69099 0.26942
# Poissons Ratio (z) = 0.09952 0.09950
#
# Static dielectric constant tensor:
#      x y z
#    x 3.756410 0.000000 0.000000 
#    y 0.000000 3.756430 0.000000 
#    z 0.000000 0.000000 4.039140 
# 
# 
# High freq. dielectric constant tensor:
#      x y z
#    x 1.823670 0.000000 0.000000 
#    y 0.000000 1.823670 0.000000 
#    z 0.000000 0.000000 1.861900 
# 
# From -- ./inp_files/942.got.cif
#   From: 2010.03.12/outbox.cif.g09.slc.cpg/sg98_1_cif.got.tgz:942.got - 2010.04.08 21:04:41.
