data_PCOD8306077
_publ_section_title
;
Structure prediction by ZEFSAII (Michael W. Deem and Ramdas Pophale) SiO2 
 PCOD8306077
Probable space group: I 4 2 2 
;
_chemical_formula_sum "Si O2"
_cell_formula_units_Z 80
_cell_length_a 25.058437
_cell_length_b 25.058437
_cell_length_c 6.497845
_cell_angle_alpha 90.000000
_cell_angle_beta 90.000000
_cell_angle_gamma 90.000000
_cell_volume 4080.161043
_symmetry_space_group_name_H-M "I 4 2 2 "
_symmetry_group_IT_number 97
_symmetry_cell_setting 'tetragonal'
loop_
_space_group_symop_operation_xyz
x,y,z
-y,x,z
-x,-y,z
y,-x,z
x,-y,-z
-x,y,-z
y,x,-z
-y,-x,-z
1/2+x,1/2+y,1/2+z
1/2-y,1/2+x,1/2+z
1/2-x,1/2-y,1/2+z
1/2+y,1/2-x,1/2+z
1/2+x,1/2-y,1/2-z
1/2-x,1/2+y,1/2-z
1/2+y,1/2+x,1/2-z
1/2-y,1/2-x,1/2-z
loop_
_atom_site_type_symbol
_atom_site_label
_atom_site_fract_x
_atom_site_fract_y
_atom_site_fract_z
Si Si1 0.129374 0.052732 0.892207
Si Si2 0.315665 0.902824 0.256286
Si Si3 0.068655 0.249180 0.652726
Si Si4 0.299398 0.000000 0.000000
Si Si5 0.219814 0.136609 0.991723
Si Si6 0.500000 0.344633 0.000000
O O1 0.117294 0.030285 0.663318
O O2 0.075873 0.075873 0.000000
O O3 0.175899 0.096217 0.900295
O O4 0.151605 0.000000 0.000000
O O5 0.369652 0.869652 0.250000
O O6 0.295576 0.922265 0.481840
O O7 0.269488 0.865820 0.161524
O O8 0.332050 0.952360 0.107920
O O9 0.123286 0.238572 0.776237
O O10 0.049085 0.192865 0.567409
O O11 0.023095 0.264469 0.814961
O O12 0.196234 0.196234 0.000000
#
# Coordination Sequence:
#
# PCOD8306077 Si02
#       6
#    16  16  16   8  16   8
#     4  11  23  38  59  89 118 157 214 274 322 393
#     4  11  23  39  61  97 128 168 217 266 330 390
#     4  11  19  37  66  88 117 164 214 262 314 384
#     4  10  20  36  64  92 123 158 215 276 310 386
#     4  10  22  39  57  87 121 165 214 269 319 390
#     4  12  18  36  66  85 116 163 208 264 330 376
#
# _framework density 19.607068000000002
#
# number of rings (size 3 to 8) (size 9 to 14) (size 15 to 20)
#    0.000    1.200    6.000    1.200    1.400    5.000 
#    3.600    0.000    0.000    1.200    0.000    9.800 
#    0.000    0.000    0.000    0.000    0.000    0.000 
#
# Total GULP energy -495556.368609 kJ/mol
# GULP energy per Si atom -12388.909215 kJ/mol
# Density = 1.956244 g / cm^3
# Si number density = 19.607068 Si / 1000 Ang^3
#
#
#
# Elastic Constant Matrix: (Units=GPa)
#
#
# Indices 1 2 3 4 5 6 
#
# 1 83.9920 47.8279 45.0527 0.0000 0.0000 0.0000
# 2 47.8279 83.9920 45.0527 0.0000 0.0000 0.0000
# 3 45.0527 45.0527 140.9220 0.0000 0.0000 0.0000
# 4 0.0000 0.0000 0.0000 24.8292 0.0000 0.0000
# 5 0.0000 0.0000 0.0000 0.0000 24.8292 0.0000
# 6 0.0000 0.0000 0.0000 0.0000 0.0000 24.5271
#
#
#
# Elastic Compliance Matrix: (Units=1/GPa)
#
#
# Indices 1 2 3 4 5 6 
#
# 1 0.018680 -0.008972 -0.003103 0.000000 0.000000 0.000000
# 2 -0.008972 0.018680 -0.003103 0.000000 0.000000 0.000000
# 3 -0.003103 -0.003103 0.009080 0.000000 0.000000 0.000000
# 4 0.000000 0.000000 0.000000 0.040275 0.000000 0.000000
# 5 0.000000 0.000000 0.000000 0.000000 0.040275 0.000000
# 6 0.000000 0.000000 0.000000 0.000000 0.000000 0.040771
#
#
# Mechanical properties :
#
#
# Convention : Reuss Voigt Hill
#
# Bulk Modulus (GPa) = 62.18305 64.97471 63.57888
# Shear Modulus (GPa) = 24.57246 26.23529 25.40388
#
# Velocity S-wave (km/s) = 3.54396 3.66191 3.60342
# Velocity P-wave (km/s) = 6.96632 7.14771 7.05760
#
# Compressibility (1/GPa) = 0.01608155
#
# Stress axis : x y z
#
# Youngs Moduli (GPa) = 53.53429 53.53429 110.12625
#
# Poissons Ratio (x) = 0.48032 0.34177
# Poissons Ratio (y) = 0.48032 0.34177
# Poissons Ratio (z) = 0.16614 0.16614
#
# Static dielectric constant tensor:
#      x y z
#    x 3.427430 0.000000 0.000000 
#    y 0.000000 3.427430 0.000000 
#    z 0.000000 0.000000 4.376570 
# 
# 
# High freq. dielectric constant tensor:
#      x y z
#    x 1.737190 0.000000 0.000000 
#    y 0.000000 1.737190 0.000000 
#    z 0.000000 0.000000 1.785540 
# 
# From -- ./inp_files/995.got.cif
#   From: 2010.03.12/outbox.cif.g09.slc.cpg/sg97_1_cif.got.tgz:995.got - 2010.04.08 20:59:42.
