data_PCOD8306872
_publ_section_title
;
Structure prediction by ZEFSAII (Michael W. Deem and Ramdas Pophale) SiO2 
 PCOD8306872
Probable space group: P 42 N M
;
_chemical_formula_sum "Si O2"
_cell_formula_units_Z 64
_cell_length_a 21.201768
_cell_length_b 21.201768
_cell_length_c 8.280950
_cell_angle_alpha 90.000000
_cell_angle_beta 90.000000
_cell_angle_gamma 90.000000
_cell_volume 3722.410960
_symmetry_space_group_name_H-M "P 42 N M"
_symmetry_group_IT_number 102
_symmetry_cell_setting 'tetragonal'
loop_
_space_group_symop_operation_xyz
x,y,z
1/2-y,1/2+x,1/2+z
-x,-y,z
1/2+y,1/2-x,1/2+z
1/2-x,1/2+y,1/2+z
1/2+x,1/2-y,1/2+z
-y,-x,z
y,x,z
loop_
_atom_site_type_symbol
_atom_site_label
_atom_site_fract_x
_atom_site_fract_y
_atom_site_fract_z
Si Si1 0.616867 0.715097 0.457460
Si Si2 0.873986 0.519865 0.355418
Si Si3 0.389322 0.053640 0.547870
Si Si4 0.793896 0.617650 0.159205
Si Si5 0.960373 0.305375 0.363326
Si Si6 0.843008 0.739496 0.980841
Si Si7 0.015921 0.256609 0.057061
Si Si8 0.671937 0.159812 0.170764
O O1 0.645246 0.645246 0.485743
O O2 0.631863 0.734320 0.272885
O O3 0.541200 0.713093 0.487630
O O4 0.655818 0.762105 0.575781
O O5 0.900848 0.469744 0.229949
O O6 0.929460 0.543402 0.471465
O O7 0.844846 0.580080 0.264458
O O8 0.824102 0.486179 0.471229
O O9 0.339161 0.112289 0.549051
O O10 0.361397 0.999815 0.437296
O O11 0.768066 0.575066 0.009071
O O12 0.826864 0.681595 0.098764
O O13 0.907320 0.338479 0.256446
O O14 0.004317 0.260903 0.250820
O O15 0.796722 0.796722 0.019419
O O16 0.832225 0.718226 0.794549
O O17 0.913464 0.767263 0.016001
#
# Coordination Sequence:
#
# PCOD8306872 Si02
#       8
#     8   8   8   8   8   8   8   8
#     4  10  19  34  54  79 105 133 177 218 262 317
#     4  10  19  33  53  69 100 140 181 219 253 307
#     4  11  18  34  50  69  98 144 181 215 255 293
#     4   9  18  32  52  76 101 137 172 216 261 299
#     4   9  19  31  51  71 100 141 174 209 252 306
#     4  11  21  33  53  79 109 136 170 219 267 319
#     4  10  19  33  53  75 101 140 168 211 270 314
#     4  10  19  34  51  74 103 138 176 216 264 300
#
# _framework density 17.193158
#
# number of rings (size 3 to 8) (size 9 to 14) (size 15 to 20)
#    0.000    2.000    5.000    1.500    0.000    0.000 
#    0.000    2.500    0.000    0.375    0.000    0.000 
#    0.000    0.000    0.000    0.000    0.000    0.000 
#
# Total GULP energy -793140.019138 kJ/mol
# GULP energy per Si atom -12392.812799 kJ/mol
# Density = 1.715403 g / cm^3
# Si number density = 17.193158 Si / 1000 Ang^3
#
#
#
# Elastic Constant Matrix: (Units=GPa)
#
#
# Indices 1 2 3 4 5 6 
#
# 1 64.5978 36.1019 24.7856 0.0000 0.0000 0.0000
# 2 36.1019 64.5978 24.7856 0.0000 0.0000 0.0000
# 3 24.7856 24.7856 87.8017 0.0000 0.0000 0.0000
# 4 0.0000 0.0000 0.0000 16.6092 0.0000 0.0000
# 5 0.0000 0.0000 0.0000 0.0000 16.6092 0.0000
# 6 0.0000 0.0000 0.0000 0.0000 0.0000 17.4299
#
#
#
# Elastic Compliance Matrix: (Units=1/GPa)
#
#
# Indices 1 2 3 4 5 6 
#
# 1 0.023313 -0.011780 -0.003256 0.000000 0.000000 0.000000
# 2 -0.011780 0.023313 -0.003256 0.000000 0.000000 0.000000
# 3 -0.003256 -0.003256 0.013227 0.000000 0.000000 0.000000
# 4 0.000000 0.000000 0.000000 0.060208 0.000000 0.000000
# 5 0.000000 0.000000 0.000000 0.000000 0.060208 0.000000
# 6 0.000000 0.000000 0.000000 0.000000 0.000000 0.057373
#
#
# Mechanical properties :
#
#
# Convention : Reuss Voigt Hill
#
# Bulk Modulus (GPa) = 42.97204 43.14930 43.06067
# Shear Modulus (GPa) = 17.73173 18.88461 18.30817
#
# Velocity S-wave (km/s) = 3.21491 3.31778 3.26675
# Velocity P-wave (km/s) = 6.23128 6.31095 6.27124
#
# Compressibility (1/GPa) = 0.02327094
#
# Stress axis : x y z
#
# Youngs Moduli (GPa) = 42.89459 42.89459 75.60051
#
# Poissons Ratio (x) = 0.50529 0.24613
# Poissons Ratio (y) = 0.50529 0.24613
# Poissons Ratio (z) = 0.13965 0.13965
#
# Static dielectric constant tensor:
#      x y z
#    x 2.985040 0.000000 0.000000 
#    y 0.000000 2.985040 0.000000 
#    z 0.000000 0.000000 3.621560 
# 
# 
# High freq. dielectric constant tensor:
#      x y z
#    x 1.631450 0.000000 0.000000 
#    y 0.000000 1.631450 0.000000 
#    z 0.000000 0.000000 1.685610 
# 
# From -- ./inp_files/1229.got.cif
#   From: 2010.03.12/outbox.cif.g09.slc.cpg/sg102_1_cif.got.tgz:1229.got - 2010.04.14 01:40:42.
