data_PCOD8306946
_publ_section_title
;
Structure prediction by ZEFSAII (Michael W. Deem and Ramdas Pophale) SiO2 
 PCOD8306946
Probable space group: P 42 N M
;
_chemical_formula_sum "Si O2"
_cell_formula_units_Z 40
_cell_length_a 11.936347
_cell_length_b 11.936347
_cell_length_c 12.198229
_cell_angle_alpha 90.000000
_cell_angle_beta 90.000000
_cell_angle_gamma 90.000000
_cell_volume 1737.959507
_symmetry_space_group_name_H-M "P 42 N M"
_symmetry_group_IT_number 102
_symmetry_cell_setting 'tetragonal'
loop_
_space_group_symop_operation_xyz
x,y,z
1/2-y,1/2+x,1/2+z
-x,-y,z
1/2+y,1/2-x,1/2+z
1/2-x,1/2+y,1/2+z
1/2+x,1/2-y,1/2+z
-y,-x,z
y,x,z
loop_
_atom_site_type_symbol
_atom_site_label
_atom_site_fract_x
_atom_site_fract_y
_atom_site_fract_z
Si Si1 0.930225 0.248180 0.245690
Si Si2 0.430222 0.748183 0.199406
Si Si3 0.091433 0.273296 0.055509
Si Si4 0.500001 0.184617 0.972548
Si Si5 0.408568 0.226704 0.389586
O O1 0.861412 0.138589 0.208080
O O2 0.954067 0.237502 0.374980
O O3 0.000001 0.221325 0.972547
O O4 0.046061 0.258228 0.179118
O O5 0.361408 0.638593 0.237017
O O6 0.454064 0.737503 0.070116
O O7 0.359703 0.859707 0.222547
O O8 0.546058 0.758231 0.265977
O O9 0.208156 0.208156 0.042999
O O10 0.107755 0.402803 0.024121
O O11 0.597198 0.107754 0.920975
O O12 0.291846 0.291846 0.402094
#
# Coordination Sequence:
#
# PCOD8306946 Si02
#       5
#     8   8   8   8   8
#     4  11  25  45  70 105 149 191 239 303 366 432
#     4  11  25  45  70 105 149 191 239 303 366 432
#     4  12  26  45  73 108 144 189 243 299 363 433
#     4  12  25  44  76 105 142 191 246 298 359 444
#     4  12  26  45  73 108 144 189 243 299 363 433
#
# _framework density 23.015495999999999
#
# number of rings (size 3 to 8) (size 9 to 14) (size 15 to 20)
#    0.000    0.400    4.000    4.200    0.000    9.200 
#    0.000    0.000    0.000    5.400    0.000    0.000 
#    0.000    0.000    0.000    0.000    0.000    0.000 
#
# Total GULP energy -496203.797441 kJ/mol
# GULP energy per Si atom -12405.094936 kJ/mol
# Density = 2.296311 g / cm^3
# Si number density = 23.015496 Si / 1000 Ang^3
#
#
#
# Elastic Constant Matrix: (Units=GPa)
#
#
# Indices 1 2 3 4 5 6 
#
# 1 106.4744 77.8928 37.5101 0.0000 0.0000 0.0009
# 2 77.8928 106.4744 37.5101 0.0000 0.0000 -0.0009
# 3 37.5101 37.5101 154.5748 0.0000 0.0000 0.0000
# 4 0.0000 0.0000 0.0000 38.4294 0.0000 0.0000
# 5 0.0000 0.0000 0.0000 0.0000 38.4294 0.0000
# 6 0.0009 -0.0009 0.0000 0.0000 0.0000 24.8557
#
#
#
# Elastic Compliance Matrix: (Units=1/GPa)
#
#
# Indices 1 2 3 4 5 6 
#
# 1 0.020503 -0.014485 -0.001460 0.000000 0.000000 -0.000001
# 2 -0.014485 0.020503 -0.001460 0.000000 0.000000 0.000001
# 3 -0.001460 -0.001460 0.007178 0.000000 0.000000 0.000000
# 4 0.000000 0.000000 0.000000 0.026022 0.000000 0.000000
# 5 0.000000 0.000000 0.000000 0.000000 0.026022 0.000000
# 6 -0.000001 0.000001 0.000000 0.000000 0.000000 0.040232
#
#
# Mechanical properties :
#
#
# Convention : Reuss Voigt Hill
#
# Bulk Modulus (GPa) = 74.77808 74.81662 74.79735
# Shear Modulus (GPa) = 27.81976 34.65026 31.23501
#
# Velocity S-wave (km/s) = 3.48047 3.88431 3.68792
# Velocity P-wave (km/s) = 6.97943 7.25912 7.12065
#
# Compressibility (1/GPa) = 0.01337290
#
# Stress axis : x y z
#
# Youngs Moduli (GPa) = 48.77360 48.77360 139.31173
#
# Poissons Ratio (x) = 0.70647 0.20345
# Poissons Ratio (y) = 0.70647 0.20345
# Poissons Ratio (z) = 0.07123 0.07123
#
# Static dielectric constant tensor:
#      x y z
#    x 3.957040 0.000000 0.000000 
#    y 0.000000 3.957040 0.000000 
#    z 0.000000 0.000000 4.467810 
# 
# 
# High freq. dielectric constant tensor:
#      x y z
#    x 1.899790 0.000000 0.000000 
#    y 0.000000 1.899790 0.000000 
#    z 0.000000 0.000000 1.927620 
# 
# From -- ./inp_files/2238.got.cif
#   From: 2010.03.12/outbox.cif.g09.slc.cpg/sg102_2_cif.got.tgz:2238.got - 2010.04.14 01:40:42.
