data_PCOD8306367
_publ_section_title
;
Structure prediction by ZEFSAII (Michael W. Deem and Ramdas Pophale) SiO2 
 PCOD8306367
Probable space group: I 41 2 2
;
_chemical_formula_sum "Si O2"
_cell_formula_units_Z 96
_cell_length_a 26.730671
_cell_length_b 26.730671
_cell_length_c 10.042788
_cell_angle_alpha 90.000000
_cell_angle_beta 90.000000
_cell_angle_gamma 90.000000
_cell_volume 7175.860978
_symmetry_space_group_name_H-M "I 41 2 2"
_symmetry_group_IT_number 98
_symmetry_cell_setting 'tetragonal'
loop_
_space_group_symop_operation_xyz
x,y,z
-y,1/2+x,1/4+z
-x,-y,z
y,1/2-x,1/4+z
x,1/2-y,1/4-z
-x,1/2+y,1/4-z
y,x,-z
-y,-x,-z
1/2+x,1/2+y,1/2+z
1/2-y,x,3/4+z
1/2-x,1/2-y,1/2+z
1/2+y,-x,3/4+z
1/2+x,-y,3/4-z
1/2-x,y,3/4-z
1/2+y,1/2+x,1/2-z
1/2-y,1/2-x,1/2-z
loop_
_atom_site_type_symbol
_atom_site_label
_atom_site_fract_x
_atom_site_fract_y
_atom_site_fract_z
Si Si1 0.558413 0.860738 0.097398
Si Si2 0.582267 0.498748 0.645838
Si Si3 0.080864 0.503886 0.402009
Si Si4 0.640150 0.552740 0.145702
Si Si5 0.141064 0.288405 0.511299
Si Si6 0.375433 0.221342 0.489409
O O1 0.534810 0.852200 0.243645
O O2 0.597826 0.905355 0.100636
O O3 0.512809 0.873042 0.996833
O O4 0.587151 0.811135 0.049951
O O5 0.540514 0.541151 0.652508
O O6 0.556336 0.446283 0.687153
O O7 0.604520 0.494186 0.496407
O O8 0.123717 0.493915 0.511748
O O9 0.692058 0.574252 0.200774
O O10 0.158318 0.250000 0.625000
O O11 0.183135 0.330043 0.496488
O O12 0.137488 0.261814 0.370856
O O13 0.385742 0.250000 0.625000
#
# Coordination Sequence:
#
# PCOD8306367 Si02
#       6
#    16  16  16  16  16  16
#     4   9  17  28  42  55  72  96 117 144 189 235
#     4   8  14  24  39  59  76  95 113 132 172 222
#     4   8  14  24  39  58  79  93 110 138 169 219
#     4   9  17  29  40  55  75  93 116 149 187 232
#     4  11  21  35  46  55  73  95 125 169 212 251
#     4  11  23  33  44  59  71  93 129 168 213 251
#
# _framework density 13.378185999999999
#
# number of rings (size 3 to 8) (size 9 to 14) (size 15 to 20)
#    0.000    2.667    1.667    2.000    2.333    2.667 
#    0.000    3.333    0.000    0.000    0.000    0.000 
#    0.000    0.000    0.000    0.000    0.000    0.000 
#
# Total GULP energy -595005.497371 kJ/mol
# GULP energy per Si atom -12395.947862 kJ/mol
# Density = 1.334774 g / cm^3
# Si number density = 13.378186 Si / 1000 Ang^3
#
#
#
# Elastic Constant Matrix: (Units=GPa)
#
#
# Indices 1 2 3 4 5 6 
#
# 1 34.1081 36.3364 41.3409 0.0000 0.0000 0.0000
# 2 36.3364 34.1081 41.3409 0.0000 0.0000 0.0000
# 3 41.3409 41.3409 128.2252 0.0000 0.0000 0.0000
# 4 0.0000 0.0000 0.0000 11.9794 0.0000 0.0000
# 5 0.0000 0.0000 0.0000 0.0000 11.9794 0.0000
# 6 0.0000 0.0000 0.0000 0.0000 0.0000 23.7768
#
#
#
# Elastic Compliance Matrix: (Units=1/GPa)
#
#
# Indices 1 2 3 4 5 6 
#
# 1 -0.212969 0.235806 -0.007363 0.000000 0.000000 0.000000
# 2 0.235806 -0.212969 -0.007363 0.000000 0.000000 0.000000
# 3 -0.007363 -0.007363 0.012547 0.000000 0.000000 0.000000
# 4 0.000000 0.000000 0.000000 0.083476 0.000000 0.000000
# 5 0.000000 0.000000 0.000000 0.000000 0.083476 0.000000
# 6 0.000000 0.000000 0.000000 0.000000 0.000000 0.042058
#
#
# Mechanical properties :
#
#
# Convention : Reuss Voigt Hill
#
# Bulk Modulus (GPa) = 34.75868 48.27528 41.51698
# Shear Modulus (GPa) = -7.84990 14.70867 3.42938
#
# Velocity S-wave (km/s) = -2.42496 3.31940 1.60280
# Velocity P-wave (km/s) = 4.26585 7.13124 5.87588
#
# Compressibility (1/GPa) = 0.02876979
#
# Stress axis : x y z
#
# Youngs Moduli (GPa) = -4.69553 -4.69553 79.70274
#
# Poissons Ratio (x) = 1.10724 0.58686
# Poissons Ratio (y) = 1.10724 0.58686
# Poissons Ratio (z) = -0.03457 -0.03457
#
# Static dielectric constant tensor:
#      x y z
#    x 2.574490 0.000000 0.000000 
#    y 0.000000 2.574490 0.000000 
#    z 0.000000 0.000000 2.949550 
# 
# 
# High freq. dielectric constant tensor:
#      x y z
#    x 1.470080 0.000000 0.000000 
#    y 0.000000 1.470080 0.000000 
#    z 0.000000 0.000000 1.530840 
# 
# From -- ./inp_files/3839.got.cif
#   From: 2010.03.12/outbox.cif.g09.slc.cpg/sg98_2_cif.got.tgz:3839.got - 2010.04.08 21:04:41.
