data_PCOD8306365
_publ_section_title
;
Structure prediction by ZEFSAII (Michael W. Deem and Ramdas Pophale) SiO2 
 PCOD8306365
Probable space group: I 41 2 2
;
_chemical_formula_sum "Si O2"
_cell_formula_units_Z 40
_cell_length_a 14.003882
_cell_length_b 14.003882
_cell_length_c 9.764951
_cell_angle_alpha 90.000000
_cell_angle_beta 90.000000
_cell_angle_gamma 90.000000
_cell_volume 1914.991954
_symmetry_space_group_name_H-M "I 41 2 2"
_symmetry_group_IT_number 98
_symmetry_cell_setting 'tetragonal'
loop_
_space_group_symop_operation_xyz
x,y,z
-y,1/2+x,1/4+z
-x,-y,z
y,1/2-x,1/4+z
x,1/2-y,1/4-z
-x,1/2+y,1/4-z
y,x,-z
-y,-x,-z
1/2+x,1/2+y,1/2+z
1/2-y,x,3/4+z
1/2-x,1/2-y,1/2+z
1/2+y,-x,3/4+z
1/2+x,-y,3/4-z
1/2-x,y,3/4-z
1/2+y,1/2+x,1/2-z
1/2-y,1/2-x,1/2-z
loop_
_atom_site_type_symbol
_atom_site_label
_atom_site_fract_x
_atom_site_fract_y
_atom_site_fract_z
Si Si1 0.322595 0.177406 0.750000
Si Si2 0.331417 0.537733 0.585690
Si Si3 0.859596 0.142566 0.647495
O O1 0.303434 0.250000 0.625000
O O2 0.427440 0.186761 0.811562
O O3 0.419234 0.580767 0.500000
O O4 0.231491 0.586398 0.544182
O O5 0.359414 0.553789 0.744757
O O6 0.823652 0.250000 0.625000
O O7 0.897164 0.102837 0.500000
#
# Coordination Sequence:
#
# PCOD8306365 Si02
#       3
#     8  16  16
#     4  12  29  46  60  80 117 176 226 262 302 364
#     4  11  20  37  64  94 123 151 194 249 311 373
#     4   9  18  33  63 102 126 144 178 244 321 372
#
# _framework density 20.887815
#
# number of rings (size 3 to 8) (size 9 to 14) (size 15 to 20)
#    0.000    1.600    0.000    7.800    0.000    4.800 
#    0.000    0.000    0.000   24.000    0.000    0.000 
#    0.000    0.000    0.000    0.000    0.000    0.000 
#
# Total GULP energy -247939.827859 kJ/mol
# GULP energy per Si atom -12396.991393 kJ/mol
# Density = 2.084027 g / cm^3
# Si number density = 20.887815 Si / 1000 Ang^3
#
#
#
# Elastic Constant Matrix: (Units=GPa)
#
#
# Indices 1 2 3 4 5 6 
#
# 1 119.8574 59.3280 69.9309 0.0000 0.0000 0.0000
# 2 59.3280 119.8555 69.9344 0.0000 0.0000 0.0000
# 3 69.9309 69.9344 177.3828 0.0000 0.0000 0.0000
# 4 0.0000 0.0000 0.0000 27.4572 0.0000 0.0000
# 5 0.0000 0.0000 0.0000 0.0000 27.4555 0.0000
# 6 0.0000 0.0000 0.0000 0.0000 0.0000 7.6708
#
#
#
# Elastic Compliance Matrix: (Units=1/GPa)
#
#
# Indices 1 2 3 4 5 6 
#
# 1 0.012291 -0.004230 -0.003178 0.000000 0.000000 0.000000
# 2 -0.004230 0.012292 -0.003179 0.000000 0.000000 0.000000
# 3 -0.003178 -0.003179 0.008144 0.000000 0.000000 0.000000
# 4 0.000000 0.000000 0.000000 0.036420 0.000000 0.000000
# 5 0.000000 0.000000 0.000000 0.000000 0.036423 0.000000
# 6 0.000000 0.000000 0.000000 0.000000 0.000000 0.130365
#
#
# Mechanical properties :
#
#
# Convention : Reuss Voigt Hill
#
# Bulk Modulus (GPa) = 86.55157 90.60915 88.58036
# Shear Modulus (GPa) = 19.16013 27.04351 23.10182
#
# Velocity S-wave (km/s) = 3.03196 3.60210 3.32926
# Velocity P-wave (km/s) = 7.33372 7.79572 7.56825
#
# Compressibility (1/GPa) = 0.01155381
#
# Stress axis : x y z
#
# Youngs Moduli (GPa) = 81.35947 81.35535 122.79578
#
# Poissons Ratio (x) = 0.34411 0.39025
# Poissons Ratio (y) = 0.34413 0.39032
# Poissons Ratio (z) = 0.25856 0.25860
#
# Static dielectric constant tensor:
#      x y z
#    x 3.604920 0.000000 0.000000 
#    y 0.000000 3.604940 0.000000 
#    z 0.000000 0.000000 4.796920 
# 
# 
# High freq. dielectric constant tensor:
#      x y z
#    x 1.801360 0.000000 0.000000 
#    y 0.000000 1.801360 0.000000 
#    z 0.000000 0.000000 1.841710 
# 
# From -- ./inp_files/2550.got.cif
#   From: 2010.03.12/outbox.cif.g09.slc.cpg/sg98_2_cif.got.tgz:2550.got - 2010.04.08 21:04:41.
