data_PCOD8306095
_publ_section_title
;
Structure prediction by ZEFSAII (Michael W. Deem and Ramdas Pophale) SiO2 
 PCOD8306095
Probable space group: I 4 2 2 
;
_chemical_formula_sum "Si O2"
_cell_formula_units_Z 56
_cell_length_a 11.596477
_cell_length_b 11.596477
_cell_length_c 19.921153
_cell_angle_alpha 90.000000
_cell_angle_beta 90.000000
_cell_angle_gamma 90.000000
_cell_volume 2678.962367
_symmetry_space_group_name_H-M "I 4 2 2 "
_symmetry_group_IT_number 97
_symmetry_cell_setting 'tetragonal'
loop_
_space_group_symop_operation_xyz
x,y,z
-y,x,z
-x,-y,z
y,-x,z
x,-y,-z
-x,y,-z
y,x,-z
-y,-x,-z
1/2+x,1/2+y,1/2+z
1/2-y,1/2+x,1/2+z
1/2-x,1/2-y,1/2+z
1/2+y,1/2-x,1/2+z
1/2+x,1/2-y,1/2-z
1/2-x,1/2+y,1/2-z
1/2+y,1/2+x,1/2-z
1/2-y,1/2-x,1/2-z
loop_
_atom_site_type_symbol
_atom_site_label
_atom_site_fract_x
_atom_site_fract_y
_atom_site_fract_z
Si Si1 0.644679 0.243491 0.865726
Si Si2 0.698073 0.801928 0.750000
Si Si3 0.578440 0.216712 0.065620
Si Si4 0.371140 0.014319 0.850969
O O1 0.688595 0.301005 0.797056
O O2 0.506208 0.249892 0.871563
O O3 0.697369 0.312116 0.930640
O O4 0.685757 0.109405 0.867517
O O5 0.704040 0.916747 0.795873
O O6 0.622978 0.086706 0.079043
O O7 0.500000 0.224757 0.000000
O O8 0.500000 0.000000 0.821459
#
# Coordination Sequence:
#
# PCOD8306095 Si02
#       4
#    16   8  16  16
#     4  10  22  35  61  90 123 167 205 259 320 370
#     4  10  21  34  59  86 126 164 212 264 311 372
#     4  10  21  40  62  92 125 164 209 264 322 382
#     4   9  20  36  60  87 118 167 213 254 304 375
#
# _framework density 20.903616
#
# number of rings (size 3 to 8) (size 9 to 14) (size 15 to 20)
#    0.000    2.286    0.000    1.286   12.000    5.714 
#    0.000    1.429    0.000   13.714    0.000    0.000 
#    0.000   91.429    0.000    0.000    0.000    0.000 
#
# Total GULP energy -346907.047080 kJ/mol
# GULP energy per Si atom -12389.537396 kJ/mol
# Density = 2.085604 g / cm^3
# Si number density = 20.903616 Si / 1000 Ang^3
#
#
#
# Elastic Constant Matrix: (Units=GPa)
#
#
# Indices 1 2 3 4 5 6 
#
# 1 101.5754 63.1323 36.0883 0.0000 0.0000 0.0000
# 2 63.1323 101.5749 36.0883 0.0000 0.0000 0.0000
# 3 36.0883 36.0883 91.3846 0.0000 0.0000 0.0000
# 4 0.0000 0.0000 0.0000 27.4964 0.0000 0.0000
# 5 0.0000 0.0000 0.0000 0.0000 27.4967 0.0000
# 6 0.0000 0.0000 0.0000 0.0000 0.0000 32.4857
#
#
#
# Elastic Compliance Matrix: (Units=1/GPa)
#
#
# Indices 1 2 3 4 5 6 
#
# 1 0.016677 -0.009335 -0.002899 0.000000 0.000000 0.000000
# 2 -0.009335 0.016677 -0.002899 0.000000 0.000000 0.000000
# 3 -0.002899 -0.002899 0.013233 0.000000 0.000000 0.000000
# 4 0.000000 0.000000 0.000000 0.036368 0.000000 0.000000
# 5 0.000000 0.000000 0.000000 0.000000 0.036368 0.000000
# 6 0.000000 0.000000 0.000000 0.000000 0.000000 0.030783
#
#
# Mechanical properties :
#
#
# Convention : Reuss Voigt Hill
#
# Bulk Modulus (GPa) = 61.27796 62.79474 62.03635
# Shear Modulus (GPa) = 26.90861 28.11085 27.50973
#
# Velocity S-wave (km/s) = 3.59175 3.67111 3.63164
# Velocity P-wave (km/s) = 6.82488 6.93359 6.87945
#
# Compressibility (1/GPa) = 0.01631908
#
# Stress axis : x y z
#
# Youngs Moduli (GPa) = 59.96211 59.96172 75.57029
#
# Poissons Ratio (x) = 0.55976 0.21910
# Poissons Ratio (y) = 0.55977 0.21911
# Poissons Ratio (z) = 0.17385 0.17385
#
# Static dielectric constant tensor:
#      x y z
#    x 3.883370 0.000000 0.000000 
#    y 0.000000 3.883380 0.000000 
#    z 0.000000 0.000000 3.776420 
# 
# 
# High freq. dielectric constant tensor:
#      x y z
#    x 1.807030 0.000000 0.000000 
#    y 0.000000 1.807030 0.000000 
#    z 0.000000 0.000000 1.816090 
# 
# From -- ./inp_files/6229.got.cif
#   From: 2010.03.12/outbox.cif.g09.slc.cpg/sg97_4_cif.got.tgz:6229.got - 2010.04.08 20:59:42.
