data_PCOD8306058
_publ_section_title
;
Structure prediction by ZEFSAII (Michael W. Deem and Ramdas Pophale) SiO2 
 PCOD8306058
Probable space group: I 4 2 2 
;
_chemical_formula_sum "Si O2"
_cell_formula_units_Z 64
_cell_length_a 13.051704
_cell_length_b 13.051704
_cell_length_c 17.430164
_cell_angle_alpha 90.000000
_cell_angle_beta 90.000000
_cell_angle_gamma 90.000000
_cell_volume 2969.175751
_symmetry_space_group_name_H-M "I 4 2 2 "
_symmetry_group_IT_number 97
_symmetry_cell_setting 'tetragonal'
loop_
_space_group_symop_operation_xyz
x,y,z
-y,x,z
-x,-y,z
y,-x,z
x,-y,-z
-x,y,-z
y,x,-z
-y,-x,-z
1/2+x,1/2+y,1/2+z
1/2-y,1/2+x,1/2+z
1/2-x,1/2-y,1/2+z
1/2+y,1/2-x,1/2+z
1/2+x,1/2-y,1/2-z
1/2-x,1/2+y,1/2-z
1/2+y,1/2+x,1/2-z
1/2-y,1/2-x,1/2-z
loop_
_atom_site_type_symbol
_atom_site_label
_atom_site_fract_x
_atom_site_fract_y
_atom_site_fract_z
Si Si1 0.613005 0.738407 0.793339
Si Si2 0.632201 0.593461 0.359383
Si Si3 0.444918 0.108440 0.164775
Si Si4 0.234964 0.284750 0.916892
O O1 0.671548 0.828453 0.750000
O O2 0.587204 0.650307 0.732182
O O3 0.519736 0.794403 0.836055
O O4 0.679665 0.679501 0.856600
O O5 0.523563 0.640486 0.385218
O O6 0.713400 0.664126 0.402836
O O7 0.396432 0.103568 0.250000
O O8 0.356945 0.135178 0.100799
O O9 0.500000 0.000000 0.143478
O O10 0.287778 0.287778 0.000000
#
# Coordination Sequence:
#
# PCOD8306058 Si02
#       4
#    16  16  16  16
#     4  10  19  38  64  90 119 159 219 284 325 378
#     4  10  21  38  63  88 116 164 218 266 326 393
#     4  11  21  40  70  97 124 171 234 288 327 387
#     4  11  25  39  57  92 138 173 208 265 343 410
#
# _framework density 21.554803
#
# number of rings (size 3 to 8) (size 9 to 14) (size 15 to 20)
#    0.000    1.500    2.500    5.250    3.500    2.000 
#    0.000    2.500    0.000    0.000    0.000    1.750 
#    0.000    0.000    0.000    0.000    0.000    0.000 
#
# Total GULP energy -396528.497948 kJ/mol
# GULP energy per Si atom -12391.515561 kJ/mol
# Density = 2.150574 g / cm^3
# Si number density = 21.554803 Si / 1000 Ang^3
#
#
#
# Elastic Constant Matrix: (Units=GPa)
#
#
# Indices 1 2 3 4 5 6 
#
# 1 44.8491 43.2446 14.1652 0.0000 0.0000 0.0000
# 2 43.2446 44.8477 14.1651 0.0000 0.0000 0.0000
# 3 14.1652 14.1651 78.6535 0.0000 0.0000 0.0000
# 4 0.0000 0.0000 0.0000 19.5976 0.0000 0.0000
# 5 0.0000 0.0000 0.0000 0.0000 19.5980 0.0000
# 6 0.0000 0.0000 0.0000 0.0000 0.0000 41.4493
#
#
#
# Elastic Compliance Matrix: (Units=1/GPa)
#
#
# Indices 1 2 3 4 5 6 
#
# 1 0.317787 -0.305743 -0.002169 0.000000 0.000000 0.000000
# 2 -0.305743 0.317798 -0.002171 0.000000 0.000000 0.000000
# 3 -0.002169 -0.002171 0.013496 0.000000 0.000000 0.000000
# 4 0.000000 0.000000 0.000000 0.051027 0.000000 0.000000
# 5 0.000000 0.000000 0.000000 0.000000 0.051026 0.000000
# 6 0.000000 0.000000 0.000000 0.000000 0.000000 0.024126
#
#
# Mechanical properties :
#
#
# Convention : Reuss Voigt Hill
#
# Bulk Modulus (GPa) = 34.58483 34.61113 34.59798
# Shear Modulus (GPa) = 3.55856 22.58066 13.06961
#
# Velocity S-wave (km/s) = 1.28628 3.24017 2.46508
# Velocity P-wave (km/s) = 4.27621 5.48547 4.91814
#
# Compressibility (1/GPa) = 0.02891441
#
# Stress axis : x y z
#
# Youngs Moduli (GPa) = 3.14676 3.14666 74.09806
#
# Poissons Ratio (x) = 0.96207 0.16074
# Poissons Ratio (y) = 0.96210 0.16086
# Poissons Ratio (z) = 0.00683 0.00683
#
# Static dielectric constant tensor:
#      x y z
#    x 3.873930 0.000000 0.000000 
#    y 0.000000 3.873930 0.000000 
#    z 0.000000 0.000000 3.634680 
# 
# 
# High freq. dielectric constant tensor:
#      x y z
#    x 1.845580 0.000000 0.000000 
#    y 0.000000 1.845580 0.000000 
#    z 0.000000 0.000000 1.812460 
# 
# From -- ./inp_files/4567.got.cif
#   From: 2010.03.12/outbox.cif.g09.slc.cpg/sg97_3_cif.got.tgz:4567.got - 2010.04.08 20:59:42.
