data_PCOD8306551
_publ_section_title
;
Structure prediction by ZEFSAII (Michael W. Deem and Ramdas Pophale) SiO2 
 PCOD8306551
Probable space group: P 4 M M
;
_chemical_formula_sum "Si O2"
_cell_formula_units_Z 64
_cell_length_a 13.944111
_cell_length_b 13.944111
_cell_length_c 20.785175
_cell_angle_alpha 90.000000
_cell_angle_beta 90.000000
_cell_angle_gamma 90.000000
_cell_volume 4041.432670
_symmetry_space_group_name_H-M "P 4 M M"
_symmetry_group_IT_number 99
_symmetry_cell_setting 'tetragonal'
loop_
_space_group_symop_operation_xyz
x,y,z
-y,x,z
-x,-y,z
y,-x,z
-x,y,z
x,-y,z
-y,-x,z
y,x,z
loop_
_atom_site_type_symbol
_atom_site_label
_atom_site_fract_x
_atom_site_fract_y
_atom_site_fract_z
Si Si1 0.386344 0.772888 0.163060
Si Si2 0.610169 0.111500 0.764570
Si Si3 0.889366 0.733343 0.503916
Si Si4 0.885932 0.728532 0.264775
Si Si5 0.608112 0.238854 0.022666
Si Si6 0.611867 0.232563 0.883894
Si Si7 0.113204 0.606508 0.387229
Si Si8 0.263330 0.889976 0.648068
O O1 0.500000 0.755650 0.177312
O O2 0.327000 0.673001 0.173130
O O3 0.343893 0.855881 0.208059
O O4 0.370482 0.815498 0.090149
O O5 0.500000 0.136239 0.753623
O O6 0.650312 0.161162 0.829025
O O7 0.662778 0.150474 0.700811
O O8 0.628085 0.000000 0.774492
O O9 0.830075 0.830075 0.491971
O O10 0.853670 0.650837 0.455383
O O11 0.874518 0.693485 0.576444
O O12 0.000000 0.760178 0.490801
O O13 0.829858 0.829858 0.259322
O O14 0.853271 0.676762 0.330459
O O15 0.000000 0.748428 0.261586
O O16 0.500000 0.272164 0.021822
O O17 0.661778 0.338223 0.022965
O O18 0.631233 0.183581 0.955016
O O19 0.500000 0.254303 0.873970
O O20 0.667373 0.332628 0.877643
O O21 0.159196 0.500000 0.379893
O O22 0.000000 0.596377 0.384894
O O23 0.162839 0.837162 0.655433
O O24 0.240477 0.000000 0.661259
#
# Coordination Sequence:
#
# PCOD8306551 Si02
#       8
#     8   8   8   8   8   8   8   8
#     4   9  17  29  45  66  92 120 150 183 218 260
#     4   9  17  28  41  57  78 106 140 175 211 252
#     4   9  17  28  42  62  87 113 141 173 209 251
#     4  10  20  33  49  68  90 117 149 185 225 268
#     4   8  14  24  38  58  84 112 141 173 209 250
#     4   9  16  26  41  60  83 110 137 169 210 254
#     4   9  17  29  45  64  86 112 140 169 203 245
#     4   9  17  28  42  60  82 108 138 173 212 253
#
# _framework density 15.835967999999999
#
# number of rings (size 3 to 8) (size 9 to 14) (size 15 to 20)
#    0.000    3.000    0.000    1.125    0.000    2.000 
#    0.000    6.875    0.000    4.500    0.000    0.000 
#    0.000    2.250    0.000   17.125    0.000    1.125 
#
# Total GULP energy -792869.155561 kJ/mol
# GULP energy per Si atom -12388.580556 kJ/mol
# Density = 1.579992 g / cm^3
# Si number density = 15.835968 Si / 1000 Ang^3
#
#
#
# Elastic Constant Matrix: (Units=GPa)
#
#
# Indices 1 2 3 4 5 6 
#
# 1 61.9641 32.0239 49.1273 0.0000 0.0000 0.0000
# 2 32.0239 61.9641 49.1273 0.0000 0.0000 0.0000
# 3 49.1273 49.1273 144.2076 0.0000 0.0000 0.0000
# 4 0.0000 0.0000 0.0000 24.2727 0.0000 0.0000
# 5 0.0000 0.0000 0.0000 0.0000 24.2727 0.0000
# 6 0.0000 0.0000 0.0000 0.0000 0.0000 15.1756
#
#
#
# Elastic Compliance Matrix: (Units=1/GPa)
#
#
# Indices 1 2 3 4 5 6 
#
# 1 0.024962 -0.008438 -0.005629 0.000000 0.000000 0.000000
# 2 -0.008438 0.024962 -0.005629 0.000000 0.000000 0.000000
# 3 -0.005629 -0.005629 0.010770 0.000000 0.000000 0.000000
# 4 0.000000 0.000000 0.000000 0.041199 0.000000 0.000000
# 5 0.000000 0.000000 0.000000 0.000000 0.041199 0.000000
# 6 0.000000 0.000000 0.000000 0.000000 0.000000 0.065895
#
#
# Mechanical properties :
#
#
# Convention : Reuss Voigt Hill
#
# Bulk Modulus (GPa) = 46.94503 58.74364 52.84433
# Shear Modulus (GPa) = 19.57097 21.93470 20.75283
#
# Velocity S-wave (km/s) = 3.51929 3.72576 3.62399
# Velocity P-wave (km/s) = 6.79873 7.46217 7.13816
#
# Compressibility (1/GPa) = 0.02130151
#
# Stress axis : x y z
#
# Youngs Moduli (GPa) = 40.06044 40.06044 92.85022
#
# Poissons Ratio (x) = 0.33801 0.52270
# Poissons Ratio (y) = 0.33801 0.52270
# Poissons Ratio (z) = 0.22552 0.22552
#
# Static dielectric constant tensor:
#      x y z
#    x 2.858380 0.000000 0.000000 
#    y 0.000000 2.858380 0.000000 
#    z 0.000000 0.000000 3.555500 
# 
# 
# High freq. dielectric constant tensor:
#      x y z
#    x 1.585260 0.000000 0.000000 
#    y 0.000000 1.585260 0.000000 
#    z 0.000000 0.000000 1.632940 
# 
# From -- ./inp_files/2088.got.cif
#   From: 2010.03.12/outbox.cif.g09.slc.cpg/sg99_cif.got.tgz:2088.got - 2010.04.08 21:11:30.
