data_PCOD8306347
_publ_section_title
;
Structure prediction by ZEFSAII (Michael W. Deem and Ramdas Pophale) SiO2 
 PCOD8306347
Probable space group: I 41 2 2
;
_chemical_formula_sum "Si O2"
_cell_formula_units_Z 76
_cell_length_a 10.868555
_cell_length_b 10.868555
_cell_length_c 31.274000
_cell_angle_alpha 90.000000
_cell_angle_beta 90.000000
_cell_angle_gamma 90.000000
_cell_volume 3694.256505
_symmetry_space_group_name_H-M "I 41 2 2"
_symmetry_group_IT_number 98
_symmetry_cell_setting 'tetragonal'
loop_
_space_group_symop_operation_xyz
x,y,z
-y,1/2+x,1/4+z
-x,-y,z
y,1/2-x,1/4+z
x,1/2-y,1/4-z
-x,1/2+y,1/4-z
y,x,-z
-y,-x,-z
1/2+x,1/2+y,1/2+z
1/2-y,x,3/4+z
1/2-x,1/2-y,1/2+z
1/2+y,-x,3/4+z
1/2+x,-y,3/4-z
1/2-x,y,3/4-z
1/2+y,1/2+x,1/2-z
1/2-y,1/2-x,1/2-z
loop_
_atom_site_type_symbol
_atom_site_label
_atom_site_fract_x
_atom_site_fract_y
_atom_site_fract_z
Si Si1 0.004933 0.769665 0.937687
Si Si2 0.121010 0.304524 0.522908
Si Si3 0.741696 0.358331 0.955757
Si Si4 0.500000 0.000000 0.750000
Si Si5 0.000000 0.000000 0.788755
Si Si6 0.873000 0.327182 0.396466
O O1 0.117144 0.681222 0.950237
O O2 0.019234 0.814263 0.888615
O O3 0.875905 0.697424 0.940566
O O4 0.000609 0.881864 0.970188
O O5 0.202105 0.202105 0.500000
O O6 0.006112 0.235936 0.544970
O O7 0.079211 0.405610 0.488652
O O8 0.657000 0.305806 0.917578
O O9 0.691908 0.308093 0.000000
O O10 0.094400 0.924099 0.817362
O O11 0.750000 0.380911 0.375000
#
# Coordination Sequence:
#
# PCOD8306347 Si02
#       6
#    16  16  16   4   8  16
#     4  11  22  41  67 104 135 174 229 291 354 408
#     4  12  25  41  72 101 134 184 234 282 340 426
#     4  11  20  44  67  91 133 188 231 268 342 419
#     4  12  22  36  76 104 136 176 232 284 364 438
#     4  12  23  46  66  99 140 168 225 296 342 409
#     4  10  24  40  70  99 133 183 225 287 358 406
#
# _framework density 20.572474
#
# number of rings (size 3 to 8) (size 9 to 14) (size 15 to 20)
#    0.000    0.842    6.316    0.632    2.947    2.105 
#    0.000   10.526    0.000    0.000    0.000    0.000 
#    0.000    0.000    0.000    0.000    0.000    0.000 
#
# Total GULP energy -471311.614048 kJ/mol
# GULP energy per Si atom -12402.937212 kJ/mol
# Density = 2.052565 g / cm^3
# Si number density = 20.572474 Si / 1000 Ang^3
#
#
#
# Elastic Constant Matrix: (Units=GPa)
#
#
# Indices 1 2 3 4 5 6 
#
# 1 93.3477 41.0427 34.5152 0.0000 0.0000 0.0000
# 2 41.0427 93.3499 34.5150 0.0000 0.0000 0.0000
# 3 34.5152 34.5150 97.2160 0.0000 0.0000 0.0000
# 4 0.0000 0.0000 0.0000 24.0659 0.0000 0.0000
# 5 0.0000 0.0000 0.0000 0.0000 24.0661 0.0000
# 6 0.0000 0.0000 0.0000 0.0000 0.0000 43.3417
#
#
#
# Elastic Compliance Matrix: (Units=1/GPa)
#
#
# Indices 1 2 3 4 5 6 
#
# 1 0.014110 -0.005009 -0.003231 0.000000 0.000000 0.000000
# 2 -0.005009 0.014109 -0.003231 0.000000 0.000000 0.000000
# 3 -0.003231 -0.003231 0.012581 0.000000 0.000000 0.000000
# 4 0.000000 0.000000 0.000000 0.041553 0.000000 0.000000
# 5 0.000000 0.000000 0.000000 0.000000 0.041552 0.000000
# 6 0.000000 0.000000 0.000000 0.000000 0.000000 0.023072
#
#
# Mechanical properties :
#
#
# Convention : Reuss Voigt Hill
#
# Bulk Modulus (GPa) = 55.99834 56.00658 56.00246
# Shear Modulus (GPa) = 28.42993 29.88412 29.15703
#
# Velocity S-wave (km/s) = 3.72148 3.81547 3.76877
# Velocity P-wave (km/s) = 6.76350 6.83327 6.79848
#
# Compressibility (1/GPa) = 0.01785767
#
# Stress axis : x y z
#
# Youngs Moduli (GPa) = 70.87369 70.87579 79.48727
#
# Poissons Ratio (x) = 0.35500 0.25683
# Poissons Ratio (y) = 0.35499 0.25682
# Poissons Ratio (z) = 0.22900 0.22899
#
# Static dielectric constant tensor:
#      x y z
#    x 3.873740 0.000000 0.000000 
#    y 0.000000 3.873740 0.000000 
#    z 0.000000 0.000000 3.946180 
# 
# 
# High freq. dielectric constant tensor:
#      x y z
#    x 1.805730 0.000000 0.000000 
#    y 0.000000 1.805730 0.000000 
#    z 0.000000 0.000000 1.809770 
# 
# From -- ./inp_files/11830.got.cif
#   From: 2010.03.12/outbox.cif.g09.slc.cpg/sg98_6_cif.got.tgz:11830.got - 2010.04.08 21:04:41.
