data_PCOD8306050
_publ_section_title
;
Structure prediction by ZEFSAII (Michael W. Deem and Ramdas Pophale) SiO2 
 PCOD8306050
Probable space group: I 4 2 2 
;
_chemical_formula_sum "Si O2"
_cell_formula_units_Z 56
_cell_length_a 13.907247
_cell_length_b 13.907247
_cell_length_c 13.094772
_cell_angle_alpha 90.000000
_cell_angle_beta 90.000000
_cell_angle_gamma 90.000000
_cell_volume 2532.679745
_symmetry_space_group_name_H-M "I 4 2 2 "
_symmetry_group_IT_number 97
_symmetry_cell_setting 'tetragonal'
loop_
_space_group_symop_operation_xyz
x,y,z
-y,x,z
-x,-y,z
y,-x,z
x,-y,-z
-x,y,-z
y,x,-z
-y,-x,-z
1/2+x,1/2+y,1/2+z
1/2-y,1/2+x,1/2+z
1/2-x,1/2-y,1/2+z
1/2+y,1/2-x,1/2+z
1/2+x,1/2-y,1/2-z
1/2-x,1/2+y,1/2-z
1/2+y,1/2+x,1/2-z
1/2-y,1/2-x,1/2-z
loop_
_atom_site_type_symbol
_atom_site_label
_atom_site_fract_x
_atom_site_fract_y
_atom_site_fract_z
Si Si1 0.905474 0.405474 0.250000
Si Si2 0.650366 0.060438 0.400060
Si Si3 0.734035 0.989042 0.885866
Si Si4 0.043618 0.850014 0.694422
O O1 0.899449 0.505103 0.191969
O O2 0.816010 0.414394 0.332834
O O3 0.599120 0.161645 0.403265
O O4 0.764028 0.072383 0.381158
O O5 0.629292 0.000000 0.500000
O O6 0.819095 0.950933 0.813162
O O7 0.777141 0.000000 0.000000
O O8 0.934736 0.882182 0.671071
#
# Coordination Sequence:
#
# PCOD8306050 Si02
#       4
#     8  16  16  16
#     4  10  19  34  58  90 134 162 190 247 318 381
#     4  11  21  38  65  97 125 161 211 261 321 380
#     4  11  21  38  65  97 125 161 211 261 321 380
#     4  10  24  46  63  84 129 180 218 260 315 376
#
# _framework density 22.110968
#
# number of rings (size 3 to 8) (size 9 to 14) (size 15 to 20)
#    0.000    1.429    2.857    5.143    0.000    2.286 
#   20.571    5.714    0.000    0.000    0.000    0.000 
#    0.000    0.000    0.000    0.000    0.000    0.000 
#
# Total GULP energy -346908.015615 kJ/mol
# GULP energy per Si atom -12389.571986 kJ/mol
# Density = 2.206064 g / cm^3
# Si number density = 22.110968 Si / 1000 Ang^3
#
#
#
# Elastic Constant Matrix: (Units=GPa)
#
#
# Indices 1 2 3 4 5 6 
#
# 1 61.9425 14.8461 -9.9933 0.0000 0.0000 0.0000
# 2 14.8461 61.9425 -9.9933 0.0000 0.0000 0.0000
# 3 -9.9933 -9.9933 60.4813 0.0000 0.0000 0.0000
# 4 0.0000 0.0000 0.0000 19.1776 0.0000 0.0000
# 5 0.0000 0.0000 0.0000 0.0000 19.1776 0.0000
# 6 0.0000 0.0000 0.0000 0.0000 0.0000 3.8599
#
#
#
# Elastic Compliance Matrix: (Units=1/GPa)
#
#
# Indices 1 2 3 4 5 6 
#
# 1 0.017421 -0.003813 0.002248 0.000000 0.000000 0.000000
# 2 -0.003813 0.017421 0.002248 0.000000 0.000000 0.000000
# 3 0.002248 0.002248 0.017277 0.000000 0.000000 0.000000
# 4 0.000000 0.000000 0.000000 0.052144 0.000000 0.000000
# 5 0.000000 0.000000 0.000000 0.000000 0.052144 0.000000
# 6 0.000000 0.000000 0.000000 0.000000 0.000000 0.259075
#
#
# Mechanical properties :
#
#
# Convention : Reuss Voigt Hill
#
# Bulk Modulus (GPa) = 18.69616 19.34277 19.01947
# Shear Modulus (GPa) = 11.57566 21.07682 16.32624
#
# Velocity S-wave (km/s) = 2.29055 3.09079 2.72026
# Velocity P-wave (km/s) = 3.93312 4.63728 4.29964
#
# Compressibility (1/GPa) = 0.05348691
#
# Stress axis : x y z
#
# Youngs Moduli (GPa) = 57.40354 57.40353 57.88021
#
# Poissons Ratio (x) = 0.21885 -0.13014
# Poissons Ratio (y) = 0.21885 -0.13014
# Poissons Ratio (z) = -0.12907 -0.12907
#
# Static dielectric constant tensor:
#      x y z
#    x 4.416030 0.000000 0.000000 
#    y 0.000000 4.416030 0.000000 
#    z 0.000000 0.000000 4.496880 
# 
# 
# High freq. dielectric constant tensor:
#      x y z
#    x 1.850980 0.000000 0.000000 
#    y 0.000000 1.850980 0.000000 
#    z 0.000000 0.000000 1.888920 
# 
# From -- ./inp_files/4444.got.cif
#   From: 2010.03.12/outbox.cif.g09.slc.cpg/sg97_3_cif.got.tgz:4444.got - 2010.04.08 20:59:42.
