data_PCOD8306460
_publ_section_title
;
Structure prediction by ZEFSAII (Michael W. Deem and Ramdas Pophale) SiO2 
 PCOD8306460
Probable space group: P 4 M M
;
_chemical_formula_sum "Si O2"
_cell_formula_units_Z 56
_cell_length_a 15.276017
_cell_length_b 15.276017
_cell_length_c 14.227056
_cell_angle_alpha 90.000000
_cell_angle_beta 90.000000
_cell_angle_gamma 90.000000
_cell_volume 3319.978773
_symmetry_space_group_name_H-M "P 4 M M"
_symmetry_group_IT_number 99
_symmetry_cell_setting 'tetragonal'
loop_
_space_group_symop_operation_xyz
x,y,z
-y,x,z
-x,-y,z
y,-x,z
-x,y,z
x,-y,z
-y,-x,z
y,x,z
loop_
_atom_site_type_symbol
_atom_site_label
_atom_site_fract_x
_atom_site_fract_y
_atom_site_fract_z
Si Si1 0.101692 0.598022 0.908550
Si Si2 0.767305 0.093273 0.610678
Si Si3 0.598142 0.850686 0.704110
Si Si4 0.263939 0.594673 0.536061
Si Si5 0.754948 0.898646 0.044000
Si Si6 0.240015 0.098921 0.257871
Si Si7 0.901298 0.658438 0.437876
O O1 0.117428 0.500000 0.949689
O O2 0.161205 0.612132 0.815722
O O3 0.000000 0.609443 0.880172
O O4 0.130091 0.670220 0.984417
O O5 0.829257 0.170744 0.648133
O O6 0.674822 0.087792 0.665088
O O7 0.747363 0.105225 0.499991
O O8 0.814711 0.000000 0.627855
O O9 0.500000 0.890336 0.686846
O O10 0.606598 0.759002 0.646871
O O11 0.308524 0.500000 0.520172
O O12 0.329858 0.670143 0.502514
O O13 0.173929 0.593969 0.475617
O O14 0.838335 0.838335 0.017136
O O15 0.726818 0.884252 0.151999
O O16 0.780794 0.000000 0.024830
O O17 0.157951 0.157951 0.283426
O O18 0.319361 0.118914 0.329244
O O19 0.207303 0.000000 0.270563
O O20 0.000000 0.618055 0.447291
#
# Coordination Sequence:
#
# PCOD8306460 Si02
#       7
#     8   8   8   8   8   8   8
#     4   9  17  30  47  66  88 114 147 189 233 273
#     4  10  19  29  42  62  89 120 151 181 215 260
#     4   9  17  30  49  68  84 107 143 187 232 270
#     4  10  20  33  49  70  96 124 153 185 222 269
#     4   9  18  30  45  67  93 123 156 187 223 268
#     4   9  16  27  43  63  90 123 157 192 228 267
#     4   9  17  30  48  67  89 118 151 191 235 268
#
# _framework density 16.867578000000002
#
# number of rings (size 3 to 8) (size 9 to 14) (size 15 to 20)
#    0.000    2.714    0.000    3.000    0.000    3.429 
#    0.000    6.429    0.000    5.143    0.000    2.000 
#    0.000    0.286    0.000    0.000    0.000    1.571 
#
# Total GULP energy -693790.578308 kJ/mol
# GULP energy per Si atom -12389.117470 kJ/mol
# Density = 1.682919 g / cm^3
# Si number density = 16.867578 Si / 1000 Ang^3
#
#
#
# Elastic Constant Matrix: (Units=GPa)
#
#
# Indices 1 2 3 4 5 6 
#
# 1 85.2771 48.2314 39.8275 0.0000 0.0000 0.0007
# 2 48.2314 85.2771 39.8275 0.0000 0.0000 -0.0007
# 3 39.8275 39.8275 89.2210 0.0000 0.0000 0.0000
# 4 0.0000 0.0000 0.0000 19.0080 0.0000 0.0000
# 5 0.0000 0.0000 0.0000 0.0000 19.0080 0.0000
# 6 0.0007 -0.0007 0.0000 0.0000 0.0000 11.5030
#
#
#
# Elastic Compliance Matrix: (Units=1/GPa)
#
#
# Indices 1 2 3 4 5 6 
#
# 1 0.018601 -0.008392 -0.004557 0.000000 0.000000 -0.000002
# 2 -0.008392 0.018601 -0.004557 0.000000 0.000000 0.000002
# 3 -0.004557 -0.004557 0.015277 0.000000 0.000000 0.000000
# 4 0.000000 0.000000 0.000000 0.052610 0.000000 0.000000
# 5 0.000000 0.000000 0.000000 0.000000 0.052610 0.000000
# 6 -0.000002 0.000002 0.000000 0.000000 0.000000 0.086934
#
#
# Mechanical properties :
#
#
# Convention : Reuss Voigt Hill
#
# Bulk Modulus (GPa) = 57.25418 57.28313 57.26866
# Shear Modulus (GPa) = 17.51507 18.69636 18.10571
#
# Velocity S-wave (km/s) = 3.22590 3.33291 3.27984
# Velocity P-wave (km/s) = 6.92042 6.98894 6.95476
#
# Compressibility (1/GPa) = 0.01746597
#
# Stress axis : x y z
#
# Youngs Moduli (GPa) = 53.75925 53.75925 65.45876
#
# Poissons Ratio (x) = 0.45116 0.29831
# Poissons Ratio (y) = 0.45116 0.29831
# Poissons Ratio (z) = 0.24500 0.24500
#
# Static dielectric constant tensor:
#      x y z
#    x 3.011710 0.000000 0.000000 
#    y 0.000000 3.011710 0.000000 
#    z 0.000000 0.000000 3.207540 
# 
# 
# High freq. dielectric constant tensor:
#      x y z
#    x 1.631920 0.000000 0.000000 
#    y 0.000000 1.631920 0.000000 
#    z 0.000000 0.000000 1.642760 
# 
# From -- ./inp_files/1806.got.cif
#   From: 2010.03.12/outbox.cif.g09.slc.cpg/sg99_cif.got.tgz:1806.got - 2010.04.08 21:11:30.
