data_PCOD8306265
_publ_section_title
;
Structure prediction by ZEFSAII (Michael W. Deem and Ramdas Pophale) SiO2 
 PCOD8306265
Probable space group: I 41 2 2
;
_chemical_formula_sum "Si O2"
_cell_formula_units_Z 128
_cell_length_a 18.664203
_cell_length_b 18.664203
_cell_length_c 18.929167
_cell_angle_alpha 90.000000
_cell_angle_beta 90.000000
_cell_angle_gamma 90.000000
_cell_volume 6594.022148
_symmetry_space_group_name_H-M "I 41 2 2"
_symmetry_group_IT_number 98
_symmetry_cell_setting 'tetragonal'
loop_
_space_group_symop_operation_xyz
x,y,z
-y,1/2+x,1/4+z
-x,-y,z
y,1/2-x,1/4+z
x,1/2-y,1/4-z
-x,1/2+y,1/4-z
y,x,-z
-y,-x,-z
1/2+x,1/2+y,1/2+z
1/2-y,x,3/4+z
1/2-x,1/2-y,1/2+z
1/2+y,-x,3/4+z
1/2+x,-y,3/4-z
1/2-x,y,3/4-z
1/2+y,1/2+x,1/2-z
1/2-y,1/2-x,1/2-z
loop_
_atom_site_type_symbol
_atom_site_label
_atom_site_fract_x
_atom_site_fract_y
_atom_site_fract_z
Si Si1 0.018990 0.575768 0.941737
Si Si2 0.299439 0.773296 0.938885
Si Si3 0.782690 0.970415 0.168015
Si Si4 0.493767 0.170499 0.650183
Si Si5 0.340483 0.579925 0.062093
Si Si6 0.892577 0.866172 0.221704
Si Si7 0.591686 0.111072 0.924436
Si Si8 0.213541 0.401791 0.230630
O O1 0.063648 0.618743 0.884162
O O2 0.000000 0.500000 0.906516
O O3 0.064659 0.559503 0.012006
O O4 0.947180 0.616462 0.964618
O O5 0.250000 0.794901 0.875000
O O6 0.350187 0.705999 0.921681
O O7 0.345348 0.842398 0.959981
O O8 0.244641 0.755360 0.000000
O O9 0.823146 0.918775 0.224590
O O10 0.767776 0.920480 0.100284
O O11 0.711858 0.009819 0.202525
O O12 0.837972 0.031145 0.142410
O O13 0.512116 0.250000 0.625000
O O14 0.430473 0.131441 0.605362
O O15 0.563824 0.121221 0.640626
O O16 0.472381 0.179802 0.731906
O O17 0.398242 0.601758 0.000000
O O18 0.870063 0.784794 0.233763
O O19 0.160316 0.339684 0.250000
#
# Coordination Sequence:
#
# PCOD8306265 Si02
#       8
#    16  16  16  16  16  16  16  16
#     4  11  20  37  65  88 115 157 201 249 316 366
#     4  10  20  37  57  83 121 162 204 247 297 355
#     4  11  21  38  60  89 123 161 213 255 306 375
#     4   9  19  33  51  84 125 164 206 247 290 360
#     4  10  23  41  63  91 119 154 201 265 317 373
#     4  10  20  37  60  87 122 157 205 248 302 372
#     4  10  21  34  55  87 122 166 207 249 296 358
#     4  11  21  36  61  89 122 169 204 252 310 365
#
# _framework density 19.411521
#
# number of rings (size 3 to 8) (size 9 to 14) (size 15 to 20)
#    0.000    1.750    3.750    1.125    0.000    0.750 
#    4.500    0.625    2.750    0.000    0.000    0.000 
#    0.000    0.000    0.000    0.000    0.000    0.000 
#
# Total GULP energy -793013.040886 kJ/mol
# GULP energy per Si atom -12390.828764 kJ/mol
# Density = 1.936734 g / cm^3
# Si number density = 19.411521 Si / 1000 Ang^3
#
#
#
# Elastic Constant Matrix: (Units=GPa)
#
#
# Indices 1 2 3 4 5 6 
#
# 1 78.6402 40.2748 23.4719 0.0000 0.0000 0.0000
# 2 40.2748 78.6371 23.4720 0.0000 0.0000 0.0000
# 3 23.4719 23.4720 63.9617 0.0000 0.0000 0.0000
# 4 0.0000 0.0000 0.0000 24.8920 0.0000 0.0000
# 5 0.0000 0.0000 0.0000 0.0000 24.8947 0.0000
# 6 0.0000 0.0000 0.0000 0.0000 0.0000 24.4273
#
#
#
# Elastic Compliance Matrix: (Units=1/GPa)
#
#
# Indices 1 2 3 4 5 6 
#
# 1 0.017950 -0.008116 -0.003609 0.000000 0.000000 0.000000
# 2 -0.008116 0.017951 -0.003609 0.000000 0.000000 0.000000
# 3 -0.003609 -0.003609 0.018283 0.000000 0.000000 0.000000
# 4 0.000000 0.000000 0.000000 0.040174 0.000000 0.000000
# 5 0.000000 0.000000 0.000000 0.000000 0.040169 0.000000
# 6 0.000000 0.000000 0.000000 0.000000 0.000000 0.040938
#
#
# Mechanical properties :
#
#
# Convention : Reuss Voigt Hill
#
# Bulk Modulus (GPa) = 42.52425 43.96406 43.24415
# Shear Modulus (GPa) = 23.36775 23.77747 23.57261
#
# Velocity S-wave (km/s) = 3.47336 3.50368 3.48855
# Velocity P-wave (km/s) = 6.16765 6.25022 6.20907
#
# Compressibility (1/GPa) = 0.02351600
#
# Stress axis : x y z
#
# Youngs Moduli (GPa) = 55.71100 55.70853 54.69561
#
# Poissons Ratio (x) = 0.45213 0.19738
# Poissons Ratio (y) = 0.45215 0.19740
# Poissons Ratio (z) = 0.20104 0.20105
#
# Static dielectric constant tensor:
#      x y z
#    x 3.663070 0.000000 0.000000 
#    y 0.000000 3.663050 0.000000 
#    z 0.000000 0.000000 3.235200 
# 
# 
# High freq. dielectric constant tensor:
#      x y z
#    x 1.758380 0.000000 0.000000 
#    y 0.000000 1.758380 0.000000 
#    z 0.000000 0.000000 1.726490 
# 
# From -- ./inp_files/7922.got.cif
#   From: 2010.03.12/outbox.cif.g09.slc.cpg/sg98_4_cif.got.tgz:7922.got - 2010.04.08 21:04:41.
