data_PCOD8306480
_publ_section_title
;
Structure prediction by ZEFSAII (Michael W. Deem and Ramdas Pophale) SiO2 
 PCOD8306480
Probable space group: P 4 M M
;
_chemical_formula_sum "Si O2"
_cell_formula_units_Z 64
_cell_length_a 13.941028
_cell_length_b 13.941028
_cell_length_c 20.008045
_cell_angle_alpha 90.000000
_cell_angle_beta 90.000000
_cell_angle_gamma 90.000000
_cell_volume 3888.608798
_symmetry_space_group_name_H-M "P 4 M M"
_symmetry_group_IT_number 99
_symmetry_cell_setting 'tetragonal'
loop_
_space_group_symop_operation_xyz
x,y,z
-y,x,z
-x,-y,z
y,-x,z
-x,y,z
x,-y,z
-y,-x,z
y,x,z
loop_
_atom_site_type_symbol
_atom_site_label
_atom_site_fract_x
_atom_site_fract_y
_atom_site_fract_z
Si Si1 0.389579 0.234692 0.254140
Si Si2 0.235659 0.609269 0.099094
Si Si3 0.233152 0.387540 0.610072
Si Si4 0.266879 0.110684 0.008848
Si Si5 0.890463 0.263003 0.857859
Si Si6 0.109711 0.388168 0.735350
Si Si7 0.110288 0.609287 0.481663
Si Si8 0.730293 0.887383 0.351416
O O1 0.500000 0.248275 0.276057
O O2 0.333887 0.333887 0.270366
O O3 0.381254 0.208158 0.176523
O O4 0.341597 0.146630 0.293322
O O5 0.256316 0.500000 0.079014
O O6 0.331384 0.668617 0.081706
O O7 0.146102 0.648273 0.056842
O O8 0.254006 0.500000 0.613810
O O9 0.334826 0.334826 0.608038
O O10 0.173696 0.351058 0.674095
O O11 0.173402 0.360015 0.544567
O O12 0.169329 0.169329 0.022988
O O13 0.244560 0.000000 0.024127
O O14 0.302820 0.126228 0.932739
O O15 0.834771 0.165230 0.845639
O O16 0.855049 0.341492 0.804623
O O17 0.000000 0.236112 0.845930
O O18 0.122897 0.500000 0.745583
O O19 0.000000 0.361553 0.718903
O O20 0.132466 0.500000 0.459564
O O21 0.135995 0.679689 0.421408
O O22 0.000000 0.619535 0.503204
O O23 0.831059 0.831059 0.347701
O O24 0.751051 0.000000 0.342347
#
# Coordination Sequence:
#
# PCOD8306480 Si02
#       8
#     8   8   8   8   8   8   8   8
#     4   9  18  32  50  72  96 121 150 185 227 274
#     4   9  18  32  49  70  95 121 150 186 227 272
#     4  10  19  30  45  64  88 118 148 179 216 259
#     4   9  18  31  46  66  92 121 154 190 227 269
#     4   9  17  29  45  65  89 116 145 179 220 266
#     4   9  17  29  45  65  87 111 143 183 223 261
#     4   9  17  30  49  71  91 112 143 184 228 271
#     4  10  20  33  49  69  94 124 157 192 227 265
#
# _framework density 16.458328999999999
#
# number of rings (size 3 to 8) (size 9 to 14) (size 15 to 20)
#    0.000    2.750    0.000    1.500    0.000    4.250 
#    0.000    5.000    0.000    0.000    0.000    5.250 
#    0.000   12.000    0.000    0.000    0.000    0.000 
#
# Total GULP energy -793608.964355 kJ/mol
# GULP energy per Si atom -12400.140068 kJ/mol
# Density = 1.642087 g / cm^3
# Si number density = 16.458329 Si / 1000 Ang^3
#
#
#
# Elastic Constant Matrix: (Units=GPa)
#
#
# Indices 1 2 3 4 5 6 
#
# 1 95.4636 54.0595 57.5792 0.0000 0.0000 0.0000
# 2 54.0595 95.4636 57.5792 0.0000 0.0000 0.0000
# 3 57.5792 57.5792 91.0652 0.0000 0.0000 0.0000
# 4 0.0000 0.0000 0.0000 26.7926 0.0000 0.0000
# 5 0.0000 0.0000 0.0000 0.0000 26.7926 0.0000
# 6 0.0000 0.0000 0.0000 0.0000 0.0000 22.3329
#
#
#
# Elastic Compliance Matrix: (Units=1/GPa)
#
#
# Indices 1 2 3 4 5 6 
#
# 1 0.018594 -0.005558 -0.008243 0.000000 0.000000 0.000000
# 2 -0.005558 0.018594 -0.008243 0.000000 0.000000 0.000000
# 3 -0.008243 -0.008243 0.021404 0.000000 0.000000 0.000000
# 4 0.000000 0.000000 0.000000 0.037324 0.000000 0.000000
# 5 0.000000 0.000000 0.000000 0.000000 0.037324 0.000000
# 6 0.000000 0.000000 0.000000 0.000000 0.000000 0.044777
#
#
# Mechanical properties :
#
#
# Convention : Reuss Voigt Hill
#
# Bulk Modulus (GPa) = 68.93477 68.93647 68.93562
# Shear Modulus (GPa) = 22.03236 22.70192 22.36714
#
# Velocity S-wave (km/s) = 3.66276 3.71800 3.69048
# Velocity P-wave (km/s) = 7.73713 7.77224 7.75470
#
# Compressibility (1/GPa) = 0.01450647
#
# Stress axis : x y z
#
# Youngs Moduli (GPa) = 53.78043 53.78043 46.71930
#
# Poissons Ratio (x) = 0.29891 0.38509
# Poissons Ratio (y) = 0.29891 0.38509
# Poissons Ratio (z) = 0.44329 0.44329
#
# Static dielectric constant tensor:
#      x y z
#    x 3.036870 0.000000 0.000000 
#    y 0.000000 3.036870 0.000000 
#    z 0.000000 0.000000 3.252610 
# 
# 
# High freq. dielectric constant tensor:
#      x y z
#    x 1.627290 0.000000 0.000000 
#    y 0.000000 1.627290 0.000000 
#    z 0.000000 0.000000 1.642520 
# 
# From -- ./inp_files/2075.got.cif
#   From: 2010.03.12/outbox.cif.g09.slc.cpg/sg99_cif.got.tgz:2075.got - 2010.04.08 21:11:30.
