data_PCOD8306830
_publ_section_title
;
Structure prediction by ZEFSAII (Michael W. Deem and Ramdas Pophale) SiO2 
 PCOD8306830
Probable space group: P 42 N M
;
_chemical_formula_sum "Si O2"
_cell_formula_units_Z 48
_cell_length_a 12.015026
_cell_length_b 12.015026
_cell_length_c 18.497767
_cell_angle_alpha 90.000000
_cell_angle_beta 90.000000
_cell_angle_gamma 90.000000
_cell_volume 2670.353363
_symmetry_space_group_name_H-M "P 42 N M"
_symmetry_group_IT_number 102
_symmetry_cell_setting 'tetragonal'
loop_
_space_group_symop_operation_xyz
x,y,z
1/2-y,1/2+x,1/2+z
-x,-y,z
1/2+y,1/2-x,1/2+z
1/2-x,1/2+y,1/2+z
1/2+x,1/2-y,1/2+z
-y,-x,z
y,x,z
loop_
_atom_site_type_symbol
_atom_site_label
_atom_site_fract_x
_atom_site_fract_y
_atom_site_fract_z
Si Si1 0.729677 0.914605 0.173330
Si Si2 0.160104 0.658518 0.916833
Si Si3 0.040968 0.627098 0.766452
Si Si4 0.466887 0.877465 0.527925
Si Si5 0.417706 0.240318 0.929899
Si Si6 0.369293 0.197150 0.766350
O O1 0.842265 0.842265 0.176993
O O2 0.621060 0.844567 0.198442
O O3 0.710184 0.961696 0.093400
O O4 0.731924 0.012912 0.232041
O O5 0.232178 0.767823 0.927693
O O6 0.104106 0.663100 0.838488
O O7 0.241125 0.552016 0.928823
O O8 0.061731 0.663488 0.974276
O O9 0.000000 0.500000 0.775772
O O10 0.923423 0.685509 0.748691
O O11 0.347865 0.875787 0.488963
O O12 0.500000 0.000000 0.557075
O O13 0.361570 0.361570 0.947433
O O14 0.376922 0.200536 0.852324
O O15 0.284656 0.284656 0.733154
#
# Coordination Sequence:
#
# PCOD8306830 Si02
#       6
#     8   8   8   8   8   8
#     4  11  22  35  58  87 114 142 181 234 284 329
#     4  11  20  33  55  82 113 147 185 229 277 329
#     4  10  17  35  56  80 106 143 190 230 268 320
#     4  10  20  37  56  81 109 153 195 224 268 327
#     4  10  19  34  57  81 111 148 187 230 274 327
#     4  10  20  34  56  81 109 151 186 221 277 332
#
# _framework density 17.975148999999998
#
# number of rings (size 3 to 8) (size 9 to 14) (size 15 to 20)
#    0.000    1.667    5.000    3.000    0.000    1.333 
#    0.000    1.667    0.000    5.500    0.000    0.000 
#    0.000    0.000    0.000    0.000    0.000    0.000 
#
# Total GULP energy -594787.845184 kJ/mol
# GULP energy per Si atom -12391.413441 kJ/mol
# Density = 1.793424 g / cm^3
# Si number density = 17.975149 Si / 1000 Ang^3
#
#
#
# Elastic Constant Matrix: (Units=GPa)
#
#
# Indices 1 2 3 4 5 6 
#
# 1 66.0995 33.5406 13.8199 0.0000 0.0000 0.0000
# 2 33.5406 66.0995 13.8199 0.0000 0.0000 0.0000
# 3 13.8199 13.8199 67.1907 0.0000 0.0000 0.0000
# 4 0.0000 0.0000 0.0000 4.7751 0.0000 0.0000
# 5 0.0000 0.0000 0.0000 0.0000 4.7751 0.0000
# 6 0.0000 0.0000 0.0000 0.0000 0.0000 26.7280
#
#
#
# Elastic Compliance Matrix: (Units=1/GPa)
#
#
# Indices 1 2 3 4 5 6 
#
# 1 0.020678 -0.010035 -0.002189 0.000000 0.000000 0.000000
# 2 -0.010035 0.020678 -0.002189 0.000000 0.000000 0.000000
# 3 -0.002189 -0.002189 0.015784 0.000000 0.000000 0.000000
# 4 0.000000 0.000000 0.000000 0.209418 0.000000 0.000000
# 5 0.000000 0.000000 0.000000 0.000000 0.209418 0.000000
# 6 0.000000 0.000000 0.000000 0.000000 0.000000 0.037414
#
#
# Mechanical properties :
#
#
# Convention : Reuss Voigt Hill
#
# Bulk Modulus (GPa) = 35.31859 35.75007 35.53433
# Shear Modulus (GPa) = 9.06364 16.46961 12.76663
#
# Velocity S-wave (km/s) = 2.24795 3.03024 2.66792
# Velocity P-wave (km/s) = 5.14091 5.67229 5.41312
#
# Compressibility (1/GPa) = 0.02831370
#
# Stress axis : x y z
#
# Youngs Moduli (GPa) = 48.35948 48.35948 63.35712
#
# Poissons Ratio (x) = 0.48529 0.13870
# Poissons Ratio (y) = 0.48529 0.13870
# Poissons Ratio (z) = 0.10587 0.10587
#
# Static dielectric constant tensor:
#      x y z
#    x 3.668830 0.000000 0.000000 
#    y 0.000000 3.668830 0.000000 
#    z 0.000000 0.000000 3.318320 
# 
# 
# High freq. dielectric constant tensor:
#      x y z
#    x 1.684540 0.000000 0.000000 
#    y 0.000000 1.684540 0.000000 
#    z 0.000000 0.000000 1.699040 
# 
# From -- ./inp_files/2714.got.cif
#   From: 2010.03.12/outbox.cif.g09.slc.cpg/sg102_2_cif.got.tgz:2714.got - 2010.04.14 01:40:42.
