data_PCOD8306510
_publ_section_title
;
Structure prediction by ZEFSAII (Michael W. Deem and Ramdas Pophale) SiO2 
 PCOD8306510
Probable space group: P 4 M M
;
_chemical_formula_sum "Si O2"
_cell_formula_units_Z 64
_cell_length_a 18.374289
_cell_length_b 18.374289
_cell_length_c 10.342097
_cell_angle_alpha 90.000000
_cell_angle_beta 90.000000
_cell_angle_gamma 90.000000
_cell_volume 3491.641869
_symmetry_space_group_name_H-M "P 4 M M"
_symmetry_group_IT_number 99
_symmetry_cell_setting 'tetragonal'
loop_
_space_group_symop_operation_xyz
x,y,z
-y,x,z
-x,-y,z
y,-x,z
-x,y,z
x,-y,z
-y,-x,z
y,x,z
loop_
_atom_site_type_symbol
_atom_site_label
_atom_site_fract_x
_atom_site_fract_y
_atom_site_fract_z
Si Si1 0.352516 0.152346 0.049120
Si Si2 0.196421 0.917476 0.058232
Si Si3 0.843103 0.416204 0.544704
Si Si4 0.645703 0.915740 0.778624
Si Si5 0.919848 0.806293 0.754814
Si Si6 0.301177 0.583044 0.670361
Si Si7 0.585056 0.919453 0.294542
Si Si8 0.415286 0.700660 0.971769
O O1 0.269687 0.129562 0.081671
O O2 0.403335 0.118608 0.158267
O O3 0.378588 0.123576 0.909795
O O4 0.368376 0.238784 0.049175
O O5 0.128657 0.871344 0.119070
O O6 0.201166 0.000000 0.117838
O O7 0.182493 0.925088 0.907339
O O8 0.829512 0.500000 0.517420
O O9 0.900355 0.409559 0.662512
O O10 0.765768 0.382707 0.588681
O O11 0.873654 0.379056 0.413459
O O12 0.725247 0.889754 0.728844
O O13 0.648818 0.000000 0.814108
O O14 0.864225 0.864225 0.691966
O O15 0.000000 0.818088 0.692996
O O16 0.317187 0.500000 0.633264
O O17 0.373028 0.626973 0.633431
O O18 0.280585 0.590161 0.820526
O O19 0.500000 0.926414 0.320898
O O20 0.620443 0.000000 0.293528
O O21 0.500000 0.698079 0.016587
O O22 0.377691 0.622310 0.999811
#
# Coordination Sequence:
#
# PCOD8306510 Si02
#       8
#     8   8   8   8   8   8   8   8
#     4  11  19  33  53  78 107 137 176 220 266 318
#     4   9  17  29  46  70 101 137 175 217 264 310
#     4  10  20  35  51  71 101 136 174 212 254 310
#     4  10  19  30  48  73 100 130 167 212 256 302
#     4   8  15  26  41  65  94 124 159 197 242 293
#     4   9  18  33  53  78 105 135 174 222 276 332
#     4  10  21  35  51  73 106 146 179 213 263 318
#     4  10  20  34  54  80 108 140 179 224 278 337
#
# _framework density 18.329484999999998
#
# number of rings (size 3 to 8) (size 9 to 14) (size 15 to 20)
#    0.000    2.375    1.250    3.000    0.000    2.750 
#    0.000    3.750    0.000    0.000    0.000    0.000 
#    0.000    3.000    0.000    3.625    0.000    4.875 
#
# Total GULP energy -793206.793805 kJ/mol
# GULP energy per Si atom -12393.856153 kJ/mol
# Density = 1.828777 g / cm^3
# Si number density = 18.329485 Si / 1000 Ang^3
#
#
#
# Elastic Constant Matrix: (Units=GPa)
#
#
# Indices 1 2 3 4 5 6 
#
# 1 91.5921 57.2680 26.6495 0.0000 0.0000 -0.0002
# 2 57.2680 91.5921 26.6495 0.0000 0.0000 0.0002
# 3 26.6495 26.6495 63.6929 0.0000 0.0000 0.0000
# 4 0.0000 0.0000 0.0000 14.3214 0.0000 0.0000
# 5 0.0000 0.0000 0.0000 0.0000 14.3214 0.0000
# 6 -0.0002 0.0002 0.0000 0.0000 0.0000 27.5817
#
#
#
# Elastic Compliance Matrix: (Units=1/GPa)
#
#
# Indices 1 2 3 4 5 6 
#
# 1 0.018518 -0.010616 -0.003306 0.000000 0.000000 0.000000
# 2 -0.010616 0.018518 -0.003306 0.000000 0.000000 0.000000
# 3 -0.003306 -0.003306 0.018467 0.000000 0.000000 0.000000
# 4 0.000000 0.000000 0.000000 0.069826 0.000000 0.000000
# 5 0.000000 0.000000 0.000000 0.000000 0.069826 0.000000
# 6 0.000000 0.000000 0.000000 0.000000 0.000000 0.036256
#
#
# Mechanical properties :
#
#
# Convention : Reuss Voigt Hill
#
# Bulk Modulus (GPa) = 47.51570 52.00123 49.75847
# Shear Modulus (GPa) = 18.32300 20.33225 19.32763
#
# Velocity S-wave (km/s) = 3.16515 3.33418 3.25076
# Velocity P-wave (km/s) = 6.27192 6.57679 6.42616
#
# Compressibility (1/GPa) = 0.02104567
#
# Stress axis : x y z
#
# Youngs Moduli (GPa) = 54.00233 54.00233 54.15117
#
# Poissons Ratio (x) = 0.57331 0.17902
# Poissons Ratio (y) = 0.57331 0.17902
# Poissons Ratio (z) = 0.17853 0.17853
#
# Static dielectric constant tensor:
#      x y z
#    x 3.524180 0.000000 0.000000 
#    y 0.000000 3.524180 0.000000 
#    z 0.000000 0.000000 3.050860 
# 
# 
# High freq. dielectric constant tensor:
#      x y z
#    x 1.709730 0.000000 0.000000 
#    y 0.000000 1.709730 0.000000 
#    z 0.000000 0.000000 1.664110 
# 
# From -- ./inp_files/1635.got.cif
#   From: 2010.03.12/outbox.cif.g09.slc.cpg/sg99_cif.got.tgz:1635.got - 2010.04.08 21:11:30.
