data_PCOD8306478
_publ_section_title
;
Structure prediction by ZEFSAII (Michael W. Deem and Ramdas Pophale) SiO2 
 PCOD8306478
Probable space group: P 4 M M
;
_chemical_formula_sum "Si O2"
_cell_formula_units_Z 56
_cell_length_a 14.080145
_cell_length_b 14.080145
_cell_length_c 17.619333
_cell_angle_alpha 90.000000
_cell_angle_beta 90.000000
_cell_angle_gamma 90.000000
_cell_volume 3493.041281
_symmetry_space_group_name_H-M "P 4 M M"
_symmetry_group_IT_number 99
_symmetry_cell_setting 'tetragonal'
loop_
_space_group_symop_operation_xyz
x,y,z
-y,x,z
-x,-y,z
y,-x,z
-x,y,z
x,-y,z
-y,-x,z
y,x,z
loop_
_atom_site_type_symbol
_atom_site_label
_atom_site_fract_x
_atom_site_fract_y
_atom_site_fract_z
Si Si1 0.889883 0.608306 0.688970
Si Si2 0.610129 0.764801 0.998004
Si Si3 0.605532 0.887772 0.406244
Si Si4 0.887640 0.733391 0.545948
Si Si5 0.760177 0.608067 0.825651
Si Si6 0.109602 0.735915 0.098704
Si Si7 0.108475 0.738073 0.272671
O O1 0.864180 0.500000 0.666705
O O2 0.857716 0.676096 0.620966
O O3 0.840444 0.640897 0.766805
O O4 0.000000 0.619240 0.705200
O O5 0.500000 0.746130 0.017293
O O6 0.667484 0.667484 0.014586
O O7 0.649265 0.850281 0.049294
O O8 0.624391 0.797856 0.911050
O O9 0.500000 0.842266 0.411340
O O10 0.670701 0.851737 0.475129
O O11 0.652138 0.857124 0.326272
O O12 0.596199 0.000000 0.411859
O O13 0.834037 0.834037 0.545003
O O14 0.000000 0.753776 0.542544
O O15 0.731352 0.500000 0.812452
O O16 0.665317 0.665317 0.809251
O O17 0.167152 0.832849 0.081652
O O18 0.121362 0.704891 0.186116
O O19 0.000000 0.754555 0.077750
O O20 0.168340 0.831661 0.291029
O O21 0.000000 0.765625 0.290570
#
# Coordination Sequence:
#
# PCOD8306478 Si02
#       7
#     8   8   8   8   8   8   8
#     4   9  17  29  45  65  88 114 145 179 214 254
#     4   9  18  31  46  66  91 118 150 188 230 276
#     4   9  17  29  44  62  85 112 142 176 212 249
#     4  10  19  30  45  64  87 115 145 178 216 258
#     4   9  17  29  45  65  89 115 143 178 220 266
#     4   9  18  31  46  66  92 121 153 188 225 267
#     4   9  17  29  45  66  92 119 146 177 214 258
#
# _framework density 16.031873999999998
#
# number of rings (size 3 to 8) (size 9 to 14) (size 15 to 20)
#    0.000    2.857    0.000    1.286    0.000    3.857 
#    0.000    5.714    0.000    2.571    0.000    0.000 
#    0.000   16.000    0.000    0.000    0.000    0.143 
#
# Total GULP energy -694325.353973 kJ/mol
# GULP energy per Si atom -12398.667035 kJ/mol
# Density = 1.599538 g / cm^3
# Si number density = 16.031874 Si / 1000 Ang^3
#
#
#
# Elastic Constant Matrix: (Units=GPa)
#
#
# Indices 1 2 3 4 5 6 
#
# 1 87.8999 48.7780 57.3011 0.0000 0.0000 0.0001
# 2 48.7780 87.8999 57.3011 0.0000 0.0000 -0.0001
# 3 57.3011 57.3011 102.0937 0.0000 0.0000 0.0000
# 4 0.0000 0.0000 0.0000 25.8019 0.0000 0.0000
# 5 0.0000 0.0000 0.0000 0.0000 25.8019 0.0000
# 6 0.0001 -0.0001 0.0000 0.0000 0.0000 20.6123
#
#
#
# Elastic Compliance Matrix: (Units=1/GPa)
#
#
# Indices 1 2 3 4 5 6 
#
# 1 0.019691 -0.005870 -0.007757 0.000000 0.000000 0.000000
# 2 -0.005870 0.019691 -0.007757 0.000000 0.000000 0.000000
# 3 -0.007757 -0.007757 0.018502 0.000000 0.000000 0.000000
# 4 0.000000 0.000000 0.000000 0.038757 0.000000 0.000000
# 5 0.000000 0.000000 0.000000 0.000000 0.038757 0.000000
# 6 0.000000 0.000000 0.000000 0.000000 0.000000 0.048515
#
#
# Mechanical properties :
#
#
# Convention : Reuss Voigt Hill
#
# Bulk Modulus (GPa) = 66.15671 67.18374 66.67023
# Shear Modulus (GPa) = 21.57787 22.07745 21.82766
#
# Velocity S-wave (km/s) = 3.67268 3.71495 3.69388
# Velocity P-wave (km/s) = 7.70325 7.77165 7.73752
#
# Compressibility (1/GPa) = 0.01511562
#
# Stress axis : x y z
#
# Youngs Moduli (GPa) = 50.78511 50.78511 54.04768
#
# Poissons Ratio (x) = 0.29812 0.41924
# Poissons Ratio (y) = 0.29812 0.41924
# Poissons Ratio (z) = 0.39393 0.39393
#
# Static dielectric constant tensor:
#      x y z
#    x 2.968530 0.000000 0.000000 
#    y 0.000000 2.968530 0.000000 
#    z 0.000000 0.000000 3.230140 
# 
# 
# High freq. dielectric constant tensor:
#      x y z
#    x 1.603380 0.000000 0.000000 
#    y 0.000000 1.603380 0.000000 
#    z 0.000000 0.000000 1.627720 
# 
# From -- ./inp_files/1772.got.cif
#   From: 2010.03.12/outbox.cif.g09.slc.cpg/sg99_cif.got.tgz:1772.got - 2010.04.08 21:11:30.
