data_PCOD8306714
_publ_section_title
;
Structure prediction by ZEFSAII (Michael W. Deem and Ramdas Pophale) SiO2 
 PCOD8306714
Probable space group: P 42 C M
;
_chemical_formula_sum "Si O2"
_cell_formula_units_Z 64
_cell_length_a 20.056509
_cell_length_b 20.056509
_cell_length_c 9.764870
_cell_angle_alpha 90.000000
_cell_angle_beta 90.000000
_cell_angle_gamma 90.000000
_cell_volume 3928.051303
_symmetry_space_group_name_H-M "P 42 C M"
_symmetry_group_IT_number 101
_symmetry_cell_setting 'tetragonal'
loop_
_space_group_symop_operation_xyz
x,y,z
-y,x,1/2+z
-x,-y,z
y,-x,1/2+z
-x,y,1/2+z
x,-y,1/2+z
-y,-x,z
y,x,z
loop_
_atom_site_type_symbol
_atom_site_label
_atom_site_fract_x
_atom_site_fract_y
_atom_site_fract_z
Si Si1 0.306513 0.799328 0.122120
Si Si2 0.998976 0.625292 0.554743
Si Si3 0.986653 0.715645 0.303564
Si Si4 0.559909 0.864244 0.986520
Si Si5 0.121823 0.775467 0.339476
Si Si6 0.839764 0.734615 0.332542
Si Si7 0.865296 0.560810 0.671249
Si Si8 0.797716 0.691991 0.046573
O O1 0.275878 0.724123 0.140199
O O2 0.261162 0.850587 0.205427
O O3 0.382213 0.807715 0.172998
O O4 0.307837 0.821552 0.965284
O O5 0.990503 0.650447 0.399625
O O6 0.935309 0.583542 0.604873
O O7 0.006440 0.690200 0.649070
O O8 0.066367 0.581925 0.557548
O O9 0.917063 0.752003 0.323750
O O10 0.042172 0.771474 0.336836
O O11 0.498906 0.837240 0.077798
O O12 0.617114 0.806857 0.990866
O O13 0.538461 0.876351 0.828804
O O14 0.147948 0.852053 0.341003
O O15 0.147146 0.738092 0.474764
O O16 0.806676 0.806676 0.336558
O O17 0.812724 0.690689 0.207326
O O18 0.723792 0.723792 0.016513
#
# Coordination Sequence:
#
# PCOD8306714 Si02
#       8
#     8   8   8   8   8   8   8   8
#     4  10  19  35  53  71  95 129 174 215 248 292
#     4  12  21  34  50  68  98 143 170 198 248 303
#     4  12  18  32  53  71 100 126 174 218 256 306
#     4  12  25  36  49  74 105 140 169 202 250 302
#     4  10  18  32  52  71  90 126 176 219 258 300
#     4  10  20  30  50  75  96 126 166 219 270 300
#     4  12  25  36  49  74 105 140 169 202 250 302
#     4  10  19  35  53  71  95 129 174 215 248 292
#
# _framework density 16.293066
#
# number of rings (size 3 to 8) (size 9 to 14) (size 15 to 20)
#    0.000    1.000    7.500    0.375    3.500    1.000 
#    0.000    0.000    0.000    0.375    0.000    0.000 
#    0.000    8.500    0.000    2.250    0.000    2.000 
#
# Total GULP energy -793414.819855 kJ/mol
# GULP energy per Si atom -12397.106560 kJ/mol
# Density = 1.625598 g / cm^3
# Si number density = 16.293066 Si / 1000 Ang^3
#
#
#
# Elastic Constant Matrix: (Units=GPa)
#
#
# Indices 1 2 3 4 5 6 
#
# 1 80.2426 32.4256 13.1130 0.0000 0.0000 0.0001
# 2 32.4256 80.2426 13.1130 0.0000 0.0000 -0.0001
# 3 13.1130 13.1130 91.0071 0.0000 0.0000 0.0000
# 4 0.0000 0.0000 0.0000 17.9414 0.0000 0.0000
# 5 0.0000 0.0000 0.0000 0.0000 17.9414 0.0000
# 6 0.0001 -0.0001 0.0000 0.0000 0.0000 19.8831
#
#
#
# Elastic Compliance Matrix: (Units=1/GPa)
#
#
# Indices 1 2 3 4 5 6 
#
# 1 0.015048 -0.005865 -0.001323 0.000000 0.000000 0.000000
# 2 -0.005865 0.015048 -0.001323 0.000000 0.000000 0.000000
# 3 -0.001323 -0.001323 0.011369 0.000000 0.000000 0.000000
# 4 0.000000 0.000000 0.000000 0.055737 0.000000 0.000000
# 5 0.000000 0.000000 0.000000 0.000000 0.055737 0.000000
# 6 0.000000 0.000000 0.000000 0.000000 0.000000 0.050294
#
#
# Mechanical properties :
#
#
# Convention : Reuss Voigt Hill
#
# Bulk Modulus (GPa) = 40.91022 40.97726 40.94374
# Shear Modulus (GPa) = 21.89101 24.00924 22.95012
#
# Velocity S-wave (km/s) = 3.66946 3.84290 3.75718
# Velocity P-wave (km/s) = 6.56634 6.70039 6.63370
#
# Compressibility (1/GPa) = 0.02444377
#
# Stress axis : x y z
#
# Youngs Moduli (GPa) = 66.45248 66.45248 87.95472
#
# Poissons Ratio (x) = 0.38972 0.11639
# Poissons Ratio (y) = 0.38972 0.11639
# Poissons Ratio (z) = 0.08793 0.08793
#
# Static dielectric constant tensor:
#      x y z
#    x 3.006740 0.000000 0.000000 
#    y 0.000000 3.006740 0.000000 
#    z 0.000000 0.000000 3.415180 
# 
# 
# High freq. dielectric constant tensor:
#      x y z
#    x 1.596280 0.000000 0.000000 
#    y 0.000000 1.596280 0.000000 
#    z 0.000000 0.000000 1.657370 
# 
# From -- ./inp_files/824.got.cif
#   From: 2010.03.12/outbox.cif.g09.slc.cpg/sg101_1_cif.got.tgz:824.got - 2010.04.14 01:38:52.
