data_PCOD8306747
_publ_section_title
;
Structure prediction by ZEFSAII (Michael W. Deem and Ramdas Pophale) SiO2 
 PCOD8306747
Probable space group: P 42 C M
;
_chemical_formula_sum "Si O2"
_cell_formula_units_Z 40
_cell_length_a 19.538919
_cell_length_b 19.538919
_cell_length_c 5.295679
_cell_angle_alpha 90.000000
_cell_angle_beta 90.000000
_cell_angle_gamma 90.000000
_cell_volume 2021.727960
_symmetry_space_group_name_H-M "P 42 C M"
_symmetry_group_IT_number 101
_symmetry_cell_setting 'tetragonal'
loop_
_space_group_symop_operation_xyz
x,y,z
-y,x,1/2+z
-x,-y,z
y,-x,1/2+z
-x,y,1/2+z
x,-y,1/2+z
-y,-x,z
y,x,z
loop_
_atom_site_type_symbol
_atom_site_label
_atom_site_fract_x
_atom_site_fract_y
_atom_site_fract_z
Si Si1 0.847330 0.732917 0.496950
Si Si2 0.520962 0.789592 0.993851
Si Si3 0.677082 0.208431 0.498444
Si Si4 0.641504 0.535737 0.493216
Si Si5 0.842148 0.956466 0.477023
O O1 0.791772 0.791772 0.488189
O O2 0.838433 0.687065 0.246368
O O3 0.921996 0.767347 0.497221
O O4 0.838499 0.689311 0.752292
O O5 0.500164 0.832707 0.743663
O O6 0.469372 0.723990 0.993058
O O7 0.599333 0.765383 0.994009
O O8 0.725162 0.274839 0.499779
O O9 0.611517 0.499997 0.743206
O O10 0.614947 0.614947 0.493223
O O11 0.901397 0.901397 0.513387
O O12 0.849848 0.011169 0.700142
#
# Coordination Sequence:
#
# PCOD8306747 Si02
#       5
#     8   8   8   8   8
#     4   9  19  35  55  78 105 143 189 236 275 302
#     4  10  21  33  48  71  98 126 168 218 279 344
#     4  10  19  34  54  73  99 138 186 238 288 333
#     4  10  21  34  45  59  85 124 165 204 250 312
#     4  11  22  36  56  86 127 167 198 224 251 297
#
# _framework density 19.785055
#
# number of rings (size 3 to 8) (size 9 to 14) (size 15 to 20)
#    0.000    2.000    0.000    3.600    0.000   12.000 
#    0.000    2.000    0.000    0.000    0.000    0.000 
#    0.000   56.000    0.000    0.000    0.000    0.000 
#
# Total GULP energy -495712.489619 kJ/mol
# GULP energy per Si atom -12392.812240 kJ/mol
# Density = 1.974002 g / cm^3
# Si number density = 19.785055 Si / 1000 Ang^3
#
#
#
# Elastic Constant Matrix: (Units=GPa)
#
#
# Indices 1 2 3 4 5 6 
#
# 1 52.6913 27.9976 26.9351 0.0000 0.0000 0.0000
# 2 27.9976 52.6913 26.9351 0.0000 0.0000 0.0000
# 3 26.9351 26.9351 196.1513 0.0000 0.0000 0.0000
# 4 0.0000 0.0000 0.0000 22.7282 0.0000 0.0000
# 5 0.0000 0.0000 0.0000 0.0000 22.7282 0.0000
# 6 0.0000 0.0000 0.0000 0.0000 0.0000 27.2052
#
#
#
# Elastic Compliance Matrix: (Units=1/GPa)
#
#
# Indices 1 2 3 4 5 6 
#
# 1 0.027070 -0.013426 -0.001874 0.000000 0.000000 0.000000
# 2 -0.013426 0.027070 -0.001874 0.000000 0.000000 0.000000
# 3 -0.001874 -0.001874 0.005613 0.000000 0.000000 0.000000
# 4 0.000000 0.000000 0.000000 0.043998 0.000000 0.000000
# 5 0.000000 0.000000 0.000000 0.000000 0.043998 0.000000
# 6 0.000000 0.000000 0.000000 0.000000 0.000000 0.036758
#
#
# Mechanical properties :
#
#
# Convention : Reuss Voigt Hill
#
# Bulk Modulus (GPa) = 39.35986 51.69662 45.52824
# Shear Modulus (GPa) = 21.99521 29.17671 25.58596
#
# Velocity S-wave (km/s) = 3.33785 3.84433 3.60000
# Velocity P-wave (km/s) = 5.89846 6.77429 6.35149
#
# Compressibility (1/GPa) = 0.02540659
#
# Stress axis : x y z
#
# Youngs Moduli (GPa) = 36.94114 36.94114 178.16862
#
# Poissons Ratio (x) = 0.49597 0.33381
# Poissons Ratio (y) = 0.49597 0.33381
# Poissons Ratio (z) = 0.06921 0.06921
#
# Static dielectric constant tensor:
#      x y z
#    x 3.297280 0.000000 0.000000 
#    y 0.000000 3.297280 0.000000 
#    z 0.000000 0.000000 5.046450 
# 
# 
# High freq. dielectric constant tensor:
#      x y z
#    x 1.731200 0.000000 0.000000 
#    y 0.000000 1.731200 0.000000 
#    z 0.000000 0.000000 1.815110 
# 
# From -- ./inp_files/86.got.cif
#   From: 2010.03.12/outbox.cif.g09.slc.cpg/sg101_1_cif.got.tgz:86.got - 2010.04.14 01:38:52.
