data_PCOD8306939
_publ_section_title
;
Structure prediction by ZEFSAII (Michael W. Deem and Ramdas Pophale) SiO2 
 PCOD8306939
Probable space group: P 42 N M
;
_chemical_formula_sum "Si O2"
_cell_formula_units_Z 56
_cell_length_a 15.168614
_cell_length_b 15.168614
_cell_length_c 11.040531
_cell_angle_alpha 90.000000
_cell_angle_beta 90.000000
_cell_angle_gamma 90.000000
_cell_volume 2540.281008
_symmetry_space_group_name_H-M "P 42 N M"
_symmetry_group_IT_number 102
_symmetry_cell_setting 'tetragonal'
loop_
_space_group_symop_operation_xyz
x,y,z
1/2-y,1/2+x,1/2+z
-x,-y,z
1/2+y,1/2-x,1/2+z
1/2-x,1/2+y,1/2+z
1/2+x,1/2-y,1/2+z
-y,-x,z
y,x,z
loop_
_atom_site_type_symbol
_atom_site_label
_atom_site_fract_x
_atom_site_fract_y
_atom_site_fract_z
Si Si1 0.723661 0.011769 0.254660
Si Si2 0.209812 0.644619 0.583581
Si Si3 0.823852 0.674105 0.614738
Si Si4 0.920782 0.448012 0.923503
Si Si5 0.218578 0.927219 0.668811
Si Si6 0.308665 0.044523 0.833966
Si Si7 0.495111 0.639699 0.949941
O O1 0.731417 0.914944 0.198817
O O2 0.637595 0.016369 0.343166
O O3 0.809583 0.029223 0.333421
O O4 0.727189 0.084334 0.148739
O O5 0.287898 0.712103 0.559298
O O6 0.119469 0.694861 0.613380
O O7 0.201767 0.583562 0.466529
O O8 0.754207 0.754207 0.583442
O O9 0.888761 0.647256 0.503305
O O10 0.878572 0.694475 0.735129
O O11 0.000000 0.500000 0.998471
O O12 0.978894 0.391988 0.828708
O O13 0.141960 0.858041 0.689822
O O14 0.230591 0.976600 0.796684
O O15 0.198620 0.003449 0.570547
O O16 0.395533 0.604468 0.932071
O O17 0.559929 0.559929 0.973310
#
# Coordination Sequence:
#
# PCOD8306939 Si02
#       7
#     8   8   8   8   8   8   8
#     4  12  23  43  69  98 139 179 231 284 355 423
#     4  11  24  42  65  98 137 183 226 282 354 426
#     4  12  28  45  70 103 143 184 233 288 355 423
#     4  12  27  43  71 105 140 181 233 296 352 415
#     4  10  23  43  68  96 133 178 226 280 344 414
#     4  12  24  43  68  98 138 179 227 280 351 413
#     4  10  22  41  66  96 130 176 234 287 337 409
#
# _framework density 22.044806000000001
#
# number of rings (size 3 to 8) (size 9 to 14) (size 15 to 20)
#    0.000    0.714    4.286    3.000    4.000    5.143 
#    0.000    0.000    0.000    1.714    0.000    0.000 
#    0.000    0.000    0.000    0.000    0.000    0.000 
#
# Total GULP energy -693910.607463 kJ/mol
# GULP energy per Si atom -12391.260848 kJ/mol
# Density = 2.199463 g / cm^3
# Si number density = 22.044806 Si / 1000 Ang^3
#
#
#
# Elastic Constant Matrix: (Units=GPa)
#
#
# Indices 1 2 3 4 5 6 
#
# 1 86.5322 34.2623 26.5852 0.0000 0.0000 0.0001
# 2 34.2623 86.5322 26.5852 0.0000 0.0000 -0.0001
# 3 26.5852 26.5852 44.4062 0.0000 0.0000 0.0000
# 4 0.0000 0.0000 0.0000 36.8141 0.0000 0.0000
# 5 0.0000 0.0000 0.0000 0.0000 36.8141 0.0000
# 6 0.0001 -0.0001 0.0000 0.0000 0.0000 35.6871
#
#
#
# Elastic Compliance Matrix: (Units=1/GPa)
#
#
# Indices 1 2 3 4 5 6 
#
# 1 0.015186 -0.003945 -0.006730 0.000000 0.000000 0.000000
# 2 -0.003945 0.015186 -0.006730 0.000000 0.000000 0.000000
# 3 -0.006730 -0.006730 0.030577 0.000000 0.000000 0.000000
# 4 0.000000 0.000000 0.000000 0.027163 0.000000 0.000000
# 5 0.000000 0.000000 0.000000 0.000000 0.027163 0.000000
# 6 0.000000 0.000000 0.000000 0.000000 0.000000 0.028021
#
#
# Mechanical properties :
#
#
# Convention : Reuss Voigt Hill
#
# Bulk Modulus (GPa) = 38.25536 43.59291 40.92414
# Shear Modulus (GPa) = 26.76368 30.53226 28.64797
#
# Velocity S-wave (km/s) = 3.48811 3.72561 3.60882
# Velocity P-wave (km/s) = 5.79773 6.19068 5.99742
#
# Compressibility (1/GPa) = 0.02614013
#
# Stress axis : x y z
#
# Youngs Moduli (GPa) = 65.84969 65.84969 32.70411
#
# Poissons Ratio (x) = 0.25980 0.22009
# Poissons Ratio (y) = 0.25980 0.22009
# Poissons Ratio (z) = 0.44314 0.44314
#
# Static dielectric constant tensor:
#      x y z
#    x 4.247350 0.000000 0.000000 
#    y 0.000000 4.247350 0.000000 
#    z 0.000000 0.000000 3.842450 
# 
# 
# High freq. dielectric constant tensor:
#      x y z
#    x 1.876140 0.000000 0.000000 
#    y 0.000000 1.876140 0.000000 
#    z 0.000000 0.000000 1.858550 
# 
# From -- ./inp_files/1830.got.cif
#   From: 2010.03.12/outbox.cif.g09.slc.cpg/sg102_1_cif.got.tgz:1830.got - 2010.04.14 01:40:42.
