data_PCOD8306549
_publ_section_title
;
Structure prediction by ZEFSAII (Michael W. Deem and Ramdas Pophale) SiO2 
 PCOD8306549
Probable space group: P 4 M M
;
_chemical_formula_sum "Si O2"
_cell_formula_units_Z 64
_cell_length_a 14.016137
_cell_length_b 14.016137
_cell_length_c 20.644213
_cell_angle_alpha 90.000000
_cell_angle_beta 90.000000
_cell_angle_gamma 90.000000
_cell_volume 4055.598922
_symmetry_space_group_name_H-M "P 4 M M"
_symmetry_group_IT_number 99
_symmetry_cell_setting 'tetragonal'
loop_
_space_group_symop_operation_xyz
x,y,z
-y,x,z
-x,-y,z
y,-x,z
-x,y,z
x,-y,z
-y,-x,z
y,x,z
loop_
_atom_site_type_symbol
_atom_site_label
_atom_site_fract_x
_atom_site_fract_y
_atom_site_fract_z
Si Si1 0.769670 0.613144 0.287620
Si Si2 0.266500 0.889201 0.532784
Si Si3 0.889063 0.266511 0.191997
Si Si4 0.107984 0.260779 0.672621
Si Si5 0.394731 0.886729 0.930326
Si Si6 0.111461 0.267334 0.812752
Si Si7 0.610966 0.108155 0.411988
Si Si8 0.261692 0.108659 0.043879
O O1 0.751020 0.500000 0.280529
O O2 0.668775 0.668775 0.283393
O O3 0.841641 0.647190 0.231562
O O4 0.820365 0.639943 0.354937
O O5 0.169114 0.830886 0.524551
O O6 0.315168 0.869369 0.604351
O O7 0.339857 0.856184 0.477845
O O8 0.240682 0.000000 0.524484
O O9 0.832886 0.167115 0.205387
O O10 0.879687 0.297957 0.117292
O O11 0.000000 0.252136 0.211583
O O12 0.161947 0.161947 0.672684
O O13 0.129736 0.315293 0.740857
O O14 0.000000 0.228515 0.672551
O O15 0.500000 0.841144 0.930327
O O16 0.340990 0.850016 0.866158
O O17 0.401515 0.000000 0.929592
O O18 0.342389 0.851424 0.995557
O O19 0.168585 0.168585 0.820007
O O20 0.000000 0.244450 0.823851
O O21 0.500000 0.112617 0.425952
O O22 0.641700 0.000000 0.393290
O O23 0.164428 0.164428 0.031790
O O24 0.237181 0.000000 0.027228
#
# Coordination Sequence:
#
# PCOD8306549 Si02
#       8
#     8   8   8   8   8   8   8   8
#     4  10  20  33  49  68  89 114 146 185 228 271
#     4   9  16  26  40  58  82 110 138 169 204 244
#     4   9  18  31  47  69  95 121 149 179 212 254
#     4   8  14  23  35  53  77 106 137 167 202 243
#     4   9  17  28  40  55  78 109 142 173 205 241
#     4   9  16  26  40  58  81 107 136 171 209 252
#     4   9  17  29  45  64  84 108 140 176 214 257
#     4   9  17  29  45  66  91 116 142 172 205 244
#
# _framework density 15.780654
#
# number of rings (size 3 to 8) (size 9 to 14) (size 15 to 20)
#    0.000    3.000    0.000    1.125    0.000    2.000 
#    0.000    5.625    0.000    6.000    0.000    1.750 
#    0.000    4.000    0.000    0.000    0.000   29.000 
#
# Total GULP energy -792941.117816 kJ/mol
# GULP energy per Si atom -12389.704966 kJ/mol
# Density = 1.574474 g / cm^3
# Si number density = 15.780654 Si / 1000 Ang^3
#
#
#
# Elastic Constant Matrix: (Units=GPa)
#
#
# Indices 1 2 3 4 5 6 
#
# 1 71.1899 36.3884 54.5074 0.0000 0.0000 0.0002
# 2 36.3884 71.1899 54.5074 0.0000 0.0000 -0.0002
# 3 54.5074 54.5074 132.9578 0.0000 0.0000 0.0000
# 4 0.0000 0.0000 0.0000 21.3868 0.0000 0.0000
# 5 0.0000 0.0000 0.0000 0.0000 21.3868 0.0000
# 6 0.0002 -0.0002 0.0000 0.0000 0.0000 13.1716
#
#
#
# Elastic Compliance Matrix: (Units=1/GPa)
#
#
# Indices 1 2 3 4 5 6 
#
# 1 0.022318 -0.006416 -0.006519 0.000000 0.000000 0.000000
# 2 -0.006416 0.022318 -0.006519 0.000000 0.000000 0.000000
# 3 -0.006519 -0.006519 0.012866 0.000000 0.000000 0.000000
# 4 0.000000 0.000000 0.000000 0.046758 0.000000 0.000000
# 5 0.000000 0.000000 0.000000 0.000000 0.046758 0.000000
# 6 0.000000 0.000000 0.000000 0.000000 0.000000 0.075921
#
#
# Mechanical properties :
#
#
# Convention : Reuss Voigt Hill
#
# Bulk Modulus (GPa) = 53.78248 62.90487 58.34367
# Shear Modulus (GPa) = 18.37927 19.85132 19.11529
#
# Velocity S-wave (km/s) = 3.41643 3.55061 3.48417
# Velocity P-wave (km/s) = 7.05109 7.53377 7.29642
#
# Compressibility (1/GPa) = 0.01859342
#
# Stress axis : x y z
#
# Youngs Moduli (GPa) = 44.80680 44.80680 77.72254
#
# Poissons Ratio (x) = 0.28750 0.50668
# Poissons Ratio (y) = 0.28750 0.50668
# Poissons Ratio (z) = 0.29210 0.29210
#
# Static dielectric constant tensor:
#      x y z
#    x 2.832890 0.000000 0.000000 
#    y 0.000000 2.832890 0.000000 
#    z 0.000000 0.000000 3.475450 
# 
# 
# High freq. dielectric constant tensor:
#      x y z
#    x 1.579490 0.000000 0.000000 
#    y 0.000000 1.579490 0.000000 
#    z 0.000000 0.000000 1.630830 
# 
# From -- ./inp_files/2060.got.cif
#   From: 2010.03.12/outbox.cif.g09.slc.cpg/sg99_cif.got.tgz:2060.got - 2010.04.08 21:11:30.
