data_PCOD8306488
_publ_section_title
;
Structure prediction by ZEFSAII (Michael W. Deem and Ramdas Pophale) SiO2 
 PCOD8306488
Probable space group: P 4 M M
;
_chemical_formula_sum "Si O2"
_cell_formula_units_Z 48
_cell_length_a 13.757322
_cell_length_b 13.757322
_cell_length_c 15.375817
_cell_angle_alpha 90.000000
_cell_angle_beta 90.000000
_cell_angle_gamma 90.000000
_cell_volume 2910.087224
_symmetry_space_group_name_H-M "P 4 M M"
_symmetry_group_IT_number 99
_symmetry_cell_setting 'tetragonal'
loop_
_space_group_symop_operation_xyz
x,y,z
-y,x,z
-x,-y,z
y,-x,z
-x,y,z
x,-y,z
-y,-x,z
y,x,z
loop_
_atom_site_type_symbol
_atom_site_label
_atom_site_fract_x
_atom_site_fract_y
_atom_site_fract_z
Si Si1 0.886310 0.610442 0.758790
Si Si2 0.729082 0.885182 0.591223
Si Si3 0.228141 0.386783 0.117402
Si Si4 0.726683 0.885222 0.255833
Si Si5 0.765838 0.610879 0.921217
Si Si6 0.391317 0.114979 0.424561
O O1 0.854805 0.500000 0.738027
O O2 0.851152 0.677487 0.679828
O O3 0.842303 0.648362 0.849670
O O4 0.000000 0.618244 0.770379
O O5 0.832902 0.832902 0.583675
O O6 0.660244 0.850348 0.512754
O O7 0.748524 0.000000 0.588063
O O8 0.246080 0.500000 0.139397
O O9 0.328916 0.328916 0.134524
O O10 0.141926 0.343502 0.175878
O O11 0.192005 0.372722 0.018079
O O12 0.829443 0.829443 0.249095
O O13 0.672275 0.850231 0.342973
O O14 0.748091 0.000000 0.254816
O O15 0.739916 0.500000 0.905009
O O16 0.665322 0.665322 0.908212
O O17 0.500000 0.160306 0.419765
O O18 0.399859 0.000000 0.423640
#
# Coordination Sequence:
#
# PCOD8306488 Si02
#       6
#     8   8   8   8   8   8
#     4   9  17  29  45  65  88 115 149 189 231 271
#     4  10  19  30  45  65  90 120 152 186 225 270
#     4   9  18  31  47  69  95 123 156 193 235 282
#     4  10  20  33  49  70  96 125 157 193 232 275
#     4   9  17  29  45  66  92 119 148 184 226 275
#     4   9  17  30  48  68  89 114 145 182 223 265
#
# _framework density 16.494349
#
# number of rings (size 3 to 8) (size 9 to 14) (size 15 to 20)
#    0.000    2.667    0.000    2.000    0.000    4.333 
#    0.000    3.333    0.000    3.000    0.000    0.000 
#    0.000   17.667    0.000    0.000    0.000    0.000 
#
# Total GULP energy -595111.273030 kJ/mol
# GULP energy per Si atom -12398.151521 kJ/mol
# Density = 1.645681 g / cm^3
# Si number density = 16.494349 Si / 1000 Ang^3
#
#
#
# Elastic Constant Matrix: (Units=GPa)
#
#
# Indices 1 2 3 4 5 6 
#
# 1 75.8452 42.1959 50.4574 0.0000 0.0000 0.0000
# 2 42.1959 75.8452 50.4574 0.0000 0.0000 0.0000
# 3 50.4574 50.4574 128.1348 0.0000 0.0000 0.0000
# 4 0.0000 0.0000 0.0000 25.0242 0.0000 0.0000
# 5 0.0000 0.0000 0.0000 0.0000 25.0242 0.0000
# 6 0.0000 0.0000 0.0000 0.0000 0.0000 20.1183
#
#
#
# Elastic Compliance Matrix: (Units=1/GPa)
#
#
# Indices 1 2 3 4 5 6 
#
# 1 0.021245 -0.008474 -0.005029 0.000000 0.000000 0.000000
# 2 -0.008474 0.021245 -0.005029 0.000000 0.000000 0.000000
# 3 -0.005029 -0.005029 0.011765 0.000000 0.000000 0.000000
# 4 0.000000 0.000000 0.000000 0.039961 0.000000 0.000000
# 5 0.000000 0.000000 0.000000 0.000000 0.039961 0.000000
# 6 0.000000 0.000000 0.000000 0.000000 0.000000 0.049706
#
#
# Mechanical properties :
#
#
# Convention : Reuss Voigt Hill
#
# Bulk Modulus (GPa) = 58.17027 62.89406 60.53217
# Shear Modulus (GPa) = 22.05786 23.14764 22.60275
#
# Velocity S-wave (km/s) = 3.66088 3.75022 3.70582
# Velocity P-wave (km/s) = 7.29470 7.54756 7.42221
#
# Compressibility (1/GPa) = 0.01719091
#
# Stress axis : x y z
#
# Youngs Moduli (GPa) = 47.07069 47.07069 84.99807
#
# Poissons Ratio (x) = 0.39886 0.42746
# Poissons Ratio (y) = 0.39886 0.42746
# Poissons Ratio (z) = 0.23672 0.23672
#
# Static dielectric constant tensor:
#      x y z
#    x 2.988440 0.000000 0.000000 
#    y 0.000000 2.988440 0.000000 
#    z 0.000000 0.000000 3.405310 
# 
# 
# High freq. dielectric constant tensor:
#      x y z
#    x 1.621200 0.000000 0.000000 
#    y 0.000000 1.621200 0.000000 
#    z 0.000000 0.000000 1.652740 
# 
# From -- ./inp_files/1400.got.cif
#   From: 2010.03.12/outbox.cif.g09.slc.cpg/sg99_cif.got.tgz:1400.got - 2010.04.08 21:11:30.
