data_PCOD8306708
_publ_section_title
;
Structure prediction by ZEFSAII (Michael W. Deem and Ramdas Pophale) SiO2 
 PCOD8306708
Probable space group: P 42 C M
;
_chemical_formula_sum "Si O2"
_cell_formula_units_Z 56
_cell_length_a 26.992352
_cell_length_b 26.992352
_cell_length_c 5.203427
_cell_angle_alpha 90.000000
_cell_angle_beta 90.000000
_cell_angle_gamma 90.000000
_cell_volume 3791.149614
_symmetry_space_group_name_H-M "P 42 C M"
_symmetry_group_IT_number 101
_symmetry_cell_setting 'tetragonal'
loop_
_space_group_symop_operation_xyz
x,y,z
-y,x,1/2+z
-x,-y,z
y,-x,1/2+z
-x,y,1/2+z
x,-y,1/2+z
-y,-x,z
y,x,z
loop_
_atom_site_type_symbol
_atom_site_label
_atom_site_fract_x
_atom_site_fract_y
_atom_site_fract_z
Si Si1 0.531916 0.385661 0.817190
Si Si2 0.188776 0.269960 0.853042
Si Si3 0.305694 0.611024 0.841820
Si Si4 0.349337 0.265545 0.843030
Si Si5 0.972493 0.216516 0.833662
Si Si6 0.144823 0.772318 0.862473
Si Si7 0.025787 0.899285 0.835583
O O1 0.510359 0.390434 0.531158
O O2 0.570534 0.429467 0.862482
O O3 0.557898 0.332295 0.845130
O O4 0.234417 0.234417 0.800707
O O5 0.164817 0.260598 0.129089
O O6 0.210403 0.325679 0.842803
O O7 0.150283 0.259089 0.624272
O O8 0.346504 0.653497 0.837156
O O9 0.271032 0.615717 0.591694
O O10 0.271448 0.616380 0.092668
O O11 0.306932 0.306932 0.848290
O O12 0.913585 0.222866 0.822073
O O13 0.981039 0.158694 0.837434
O O14 0.999248 0.239808 0.085774
O O15 0.174707 0.825294 0.873055
O O16 0.083415 0.916586 0.836072
O O17 0.999903 0.922210 0.085358
#
# Coordination Sequence:
#
# PCOD8306708 Si02
#       7
#     8   8   8   8   8   8   8
#     4  11  22  34  46  61  81 109 151 197 241 276
#     4   9  17  26  41  64  83  99 117 146 194 249
#     4   9  17  28  43  59  78 106 133 166 212 259
#     4   9  15  26  42  61  83 101 122 151 196 258
#     4  10  20  32  43  54  70  96 127 154 183 223
#     4  10  18  29  43  59  79  99 122 156 200 239
#     4  10  20  31  42  54  66  82 108 144 188 234
#
# _framework density 14.771243999999999
#
# number of rings (size 3 to 8) (size 9 to 14) (size 15 to 20)
#    0.000    2.286    0.000    3.857    0.000    7.429 
#    0.000    4.286    0.000    0.000    0.000    0.000 
#    0.000    0.000    0.000    0.000    0.000    0.000 
#
# Total GULP energy -694057.526137 kJ/mol
# GULP energy per Si atom -12393.884395 kJ/mol
# Density = 1.473762 g / cm^3
# Si number density = 14.771244 Si / 1000 Ang^3
#
#
#
# Elastic Constant Matrix: (Units=GPa)
#
#
# Indices 1 2 3 4 5 6 
#
# 1 33.3834 38.4808 21.0518 0.0000 0.0000 0.0015
# 2 38.4808 33.3834 21.0518 0.0000 0.0000 -0.0015
# 3 21.0518 21.0518 106.8865 0.0000 0.0000 0.0000
# 4 0.0000 0.0000 0.0000 26.7168 0.0000 0.0000
# 5 0.0000 0.0000 0.0000 0.0000 26.7168 0.0000
# 6 0.0015 -0.0015 0.0000 0.0000 0.0000 19.5606
#
#
#
# Elastic Compliance Matrix: (Units=1/GPa)
#
#
# Indices 1 2 3 4 5 6 
#
# 1 -0.090224 0.105954 -0.003098 0.000000 0.000000 0.000015
# 2 0.105954 -0.090224 -0.003098 0.000000 0.000000 -0.000015
# 3 -0.003098 -0.003098 0.010576 0.000000 0.000000 0.000000
# 4 0.000000 0.000000 0.000000 0.037430 0.000000 0.000000
# 5 0.000000 0.000000 0.000000 0.000000 0.037430 0.000000
# 6 0.000015 -0.000015 0.000000 0.000000 0.000000 0.051123
#
#
# Mechanical properties :
#
#
# Convention : Reuss Voigt Hill
#
# Bulk Modulus (GPa) = 33.73358 37.20245 35.46801
# Shear Modulus (GPa) = -21.41104 20.80343 -0.30380
#
# Velocity S-wave (km/s) = -3.81137 3.75690 -0.45400
# Velocity P-wave (km/s) = 1.87568 6.63773 4.87738
#
# Compressibility (1/GPa) = 0.02964405
#
# Stress axis : x y z
#
# Youngs Moduli (GPa) = -11.08351 -11.08351 94.55270
#
# Poissons Ratio (x) = 1.17435 0.29294
# Poissons Ratio (y) = 1.17435 0.29294
# Poissons Ratio (z) = -0.03434 -0.03434
#
# Static dielectric constant tensor:
#      x y z
#    x 2.647420 0.000000 0.000000 
#    y 0.000000 2.647420 0.000000 
#    z 0.000000 0.000000 3.279690 
# 
# 
# High freq. dielectric constant tensor:
#      x y z
#    x 1.526210 0.000000 0.000000 
#    y 0.000000 1.526210 0.000000 
#    z 0.000000 0.000000 1.594160 
# 
# From -- ./inp_files/183.got.cif
#   From: 2010.03.12/outbox.cif.g09.slc.cpg/sg101_1_cif.got.tgz:183.got - 2010.04.14 01:38:52.
