data_PCOD8306768
_publ_section_title
;
Structure prediction by ZEFSAII (Michael W. Deem and Ramdas Pophale) SiO2 
 PCOD8306768
Probable space group: P 42 C M
;
_chemical_formula_sum "Si O2"
_cell_formula_units_Z 48
_cell_length_a 11.049522
_cell_length_b 11.049522
_cell_length_c 18.925774
_cell_angle_alpha 90.000000
_cell_angle_beta 90.000000
_cell_angle_gamma 90.000000
_cell_volume 2310.684396
_symmetry_space_group_name_H-M "P 42 C M"
_symmetry_group_IT_number 101
_symmetry_cell_setting 'tetragonal'
loop_
_space_group_symop_operation_xyz
x,y,z
-y,x,1/2+z
-x,-y,z
y,-x,1/2+z
-x,y,1/2+z
x,-y,1/2+z
-y,-x,z
y,x,z
loop_
_atom_site_type_symbol
_atom_site_label
_atom_site_fract_x
_atom_site_fract_y
_atom_site_fract_z
Si Si1 0.754601 0.052127 0.498250
Si Si2 0.491950 0.305058 0.652852
Si Si3 0.101173 0.601173 0.899858
Si Si4 0.348841 0.848841 0.739945
Si Si5 0.745402 0.447871 0.498251
Si Si6 0.805058 0.991949 0.652852
O O1 0.882352 0.117649 0.478641
O O2 0.651721 0.151719 0.505660
O O3 0.760977 0.982340 0.572295
O O4 0.719058 0.952988 0.439370
O O5 0.594642 0.405359 0.658544
O O6 0.362840 0.362840 0.675363
O O7 0.523687 0.193459 0.705172
O O8 0.482340 0.260973 0.572296
O O9 0.142029 0.642030 0.823261
O O10 0.000000 0.500000 0.892943
O O11 0.219057 0.547011 0.939371
O O12 0.250000 0.750001 0.718775
O O13 0.306542 0.976313 0.705171
O O14 0.617651 0.382350 0.478643
O O15 0.905360 0.094641 0.658546
O O16 0.862840 0.862840 0.675363
#
# Coordination Sequence:
#
# PCOD8306768 Si02
#       6
#     8   8   8   8   8   8
#     4   9  17  34  57  77 106 147 187 232 282 329
#     4   9  17  32  56  81 105 143 190 230 278 334
#     4  10  22  36  52  82 112 147 184 224 279 342
#     4  10  20  36  54  76 112 147 178 228 285 334
#     4   9  17  34  57  77 106 147 187 232 282 329
#     4   9  17  32  56  81 105 143 190 230 278 334
#
# _framework density 20.773066
#
# number of rings (size 3 to 8) (size 9 to 14) (size 15 to 20)
#    0.000    2.667    1.667    0.000    0.000    2.667 
#    3.000    0.000    0.000    0.000    0.000    0.000 
#    0.000    0.000    0.000    0.000    0.000    0.000 
#
# Total GULP energy -594979.695192 kJ/mol
# GULP energy per Si atom -12395.410316 kJ/mol
# Density = 2.072579 g / cm^3
# Si number density = 20.773066 Si / 1000 Ang^3
#
#
#
# Elastic Constant Matrix: (Units=GPa)
#
#
# Indices 1 2 3 4 5 6 
#
# 1 65.9300 59.6152 64.4472 0.0000 0.0000 0.0000
# 2 59.6152 65.9300 64.4472 0.0000 0.0000 0.0000
# 3 64.4472 64.4472 141.7842 0.0000 0.0000 0.0000
# 4 0.0000 0.0000 0.0000 29.0264 0.0000 0.0000
# 5 0.0000 0.0000 0.0000 0.0000 29.0264 0.0000
# 6 0.0000 0.0000 0.0000 0.0000 0.0000 30.6282
#
#
#
# Elastic Compliance Matrix: (Units=1/GPa)
#
#
# Indices 1 2 3 4 5 6 
#
# 1 0.086647 -0.071712 -0.006789 0.000000 0.000000 0.000000
# 2 -0.071712 0.086647 -0.006789 0.000000 0.000000 0.000000
# 3 -0.006789 -0.006789 0.013224 0.000000 0.000000 0.000000
# 4 0.000000 0.000000 0.000000 0.034451 0.000000 0.000000
# 5 0.000000 0.000000 0.000000 0.000000 0.034451 0.000000
# 6 0.000000 0.000000 0.000000 0.000000 0.000000 0.032650
#
#
# Mechanical properties :
#
#
# Convention : Reuss Voigt Hill
#
# Bulk Modulus (GPa) = 62.73552 72.29592 67.51572
# Shear Modulus (GPa) = 10.77677 23.41184 17.09431
#
# Velocity S-wave (km/s) = 2.28016 3.36077 2.87175
# Velocity P-wave (km/s) = 6.09903 7.06668 6.60061
#
# Compressibility (1/GPa) = 0.01593993
#
# Stress axis : x y z
#
# Youngs Moduli (GPa) = 11.54114 11.54114 75.61774
#
# Poissons Ratio (x) = 0.82763 0.51334
# Poissons Ratio (y) = 0.82763 0.51334
# Poissons Ratio (z) = 0.07835 0.07835
#
# Static dielectric constant tensor:
#      x y z
#    x 3.915990 0.000000 0.000000 
#    y 0.000000 3.915990 0.000000 
#    z 0.000000 0.000000 3.605760 
# 
# 
# High freq. dielectric constant tensor:
#      x y z
#    x 1.804050 0.000000 0.000000 
#    y 0.000000 1.804050 0.000000 
#    z 0.000000 0.000000 1.799420 
# 
# From -- ./inp_files/2149.got.cif
#   From: 2010.03.12/outbox.cif.g09.slc.cpg/sg101_2_cif.got.tgz:2149.got - 2010.04.14 01:38:52.
