data_PCOD8306983
_publ_section_title
;
Structure prediction by ZEFSAII (Michael W. Deem and Ramdas Pophale) SiO2 
 PCOD8306983
Probable space group: P 4 C C
;
_chemical_formula_sum "Si O2"
_cell_formula_units_Z 60
_cell_length_a 13.822739
_cell_length_b 13.822739
_cell_length_c 14.606297
_cell_angle_alpha 90.000000
_cell_angle_beta 90.000000
_cell_angle_gamma 90.000000
_cell_volume 2790.797612
_symmetry_space_group_name_H-M "P 4 C C"
_symmetry_group_IT_number 103
_symmetry_cell_setting 'tetragonal'
loop_
_space_group_symop_operation_xyz
x,y,z
-y,x,z
-x,-y,z
y,-x,z
-x,y,1/2+z
x,-y,1/2+z
-y,-x,1/2+z
y,x,1/2+z
loop_
_atom_site_type_symbol
_atom_site_label
_atom_site_fract_x
_atom_site_fract_y
_atom_site_fract_z
Si Si1 0.000000 0.500000 0.119401
Si Si2 0.802098 0.572372 0.143724
Si Si3 0.196505 0.533425 0.432652
Si Si4 0.786716 0.207514 0.092688
Si Si5 0.905718 0.644287 0.484278
Si Si6 0.090526 0.731027 0.421515
Si Si7 0.912192 0.134115 0.253517
Si Si8 0.657167 0.496216 0.282903
O O1 0.910374 0.542342 0.177548
O O2 0.972767 0.407935 0.058252
O O3 0.779173 0.687155 0.150966
O O4 0.737962 0.502855 0.205768
O O5 0.784223 0.539291 0.040348
O O6 0.134396 0.436381 0.413827
O O7 0.142633 0.629512 0.397292
O O8 0.297960 0.516776 0.383161
O O9 0.816133 0.301989 0.034118
O O10 0.874116 0.186184 0.162148
O O11 0.772434 0.121326 0.020194
O O12 0.974249 0.717035 0.426604
O O13 0.120599 0.806784 0.343181
O O14 0.027783 0.132750 0.253891
O O15 0.597572 0.593322 0.269816
#
# Coordination Sequence:
#
# PCOD8306983 Si02
#       8
#     4   8   8   8   8   8   8   8
#     4  10  20  44  66 102 136 166 232 292 338 404
#     4  10  24  44  72 101 134 180 229 285 350 412
#     4  10  24  43  71  96 131 176 225 287 347 402
#     4  11  24  40  71  98 136 184 227 283 346 410
#     4  11  20  42  68 100 136 172 230 289 340 409
#     4  11  22  44  68 102 133 182 232 284 340 406
#     4  11  26  43  63 100 142 183 227 274 336 417
#     4  11  28  47  66 101 139 177 230 282 345 427
#
# _framework density 21.499231999999999
#
# number of rings (size 3 to 8) (size 9 to 14) (size 15 to 20)
#    0.000    1.333    4.000    1.600    9.333    1.067 
#    2.400    2.667    0.000    0.000    0.000    0.000 
#    0.000    0.000    0.000    0.000    0.000    0.000 
#
# Total GULP energy -743909.911725 kJ/mol
# GULP energy per Si atom -12398.498529 kJ/mol
# Density = 2.145030 g / cm^3
# Si number density = 21.499232 Si / 1000 Ang^3
#
#
#
# Elastic Constant Matrix: (Units=GPa)
#
#
# Indices 1 2 3 4 5 6 
#
# 1 118.4462 48.3448 36.8265 0.0000 0.0000 0.0000
# 2 48.3448 118.4462 36.8265 0.0000 0.0000 0.0000
# 3 36.8265 36.8265 71.8790 0.0000 0.0000 0.0000
# 4 0.0000 0.0000 0.0000 30.4001 0.0000 0.0000
# 5 0.0000 0.0000 0.0000 0.0000 30.4001 0.0000
# 6 0.0000 0.0000 0.0000 0.0000 0.0000 74.1089
#
#
#
# Elastic Compliance Matrix: (Units=1/GPa)
#
#
# Indices 1 2 3 4 5 6 
#
# 1 0.011007 -0.003258 -0.003970 0.000000 0.000000 0.000000
# 2 -0.003258 0.011007 -0.003970 0.000000 0.000000 0.000000
# 3 -0.003970 -0.003970 0.017980 0.000000 0.000000 0.000000
# 4 0.000000 0.000000 0.000000 0.032895 0.000000 0.000000
# 5 0.000000 0.000000 0.000000 0.000000 0.032895 0.000000
# 6 0.000000 0.000000 0.000000 0.000000 0.000000 0.013494
#
#
# Mechanical properties :
#
#
# Convention : Reuss Voigt Hill
#
# Bulk Modulus (GPa) = 56.82567 61.41858 59.12213
# Shear Modulus (GPa) = 33.88941 39.43340 36.66140
#
# Velocity S-wave (km/s) = 3.97458 4.28738 4.13394
# Velocity P-wave (km/s) = 6.89579 7.28962 7.09544
#
# Compressibility (1/GPa) = 0.01759768
#
# Stress axis : x y z
#
# Youngs Moduli (GPa) = 90.85272 90.85272 55.61687
#
# Poissons Ratio (x) = 0.29602 0.22079
# Poissons Ratio (y) = 0.29602 0.22079
# Poissons Ratio (z) = 0.36068 0.36068
#
# Static dielectric constant tensor:
#      x y z
#    x 4.251450 0.000000 0.000000 
#    y 0.000000 4.251450 0.000000 
#    z 0.000000 0.000000 3.607470 
# 
# 
# High freq. dielectric constant tensor:
#      x y z
#    x 1.853950 0.000000 0.000000 
#    y 0.000000 1.853950 0.000000 
#    z 0.000000 0.000000 1.826620 
# 
# From -- ./inp_files/932.got.cif
#   From: 2010.03.12/outbox.cif.g09.slc.cpg/sg103_cif.got.tgz:932.got - 2010.04.14 01:42:52.
