data_PCOD8306797
_publ_section_title
;
Structure prediction by ZEFSAII (Michael W. Deem and Ramdas Pophale) SiO2 
 PCOD8306797
Probable space group: P 42 C M
;
_chemical_formula_sum "Si O2"
_cell_formula_units_Z 24
_cell_length_a 10.366955
_cell_length_b 10.366955
_cell_length_c 10.437571
_cell_angle_alpha 90.000000
_cell_angle_beta 90.000000
_cell_angle_gamma 90.000000
_cell_volume 1121.764959
_symmetry_space_group_name_H-M "P 42 C M"
_symmetry_group_IT_number 101
_symmetry_cell_setting 'tetragonal'
loop_
_space_group_symop_operation_xyz
x,y,z
-y,x,1/2+z
-x,-y,z
y,-x,1/2+z
-x,y,1/2+z
x,-y,1/2+z
-y,-x,z
y,x,z
loop_
_atom_site_type_symbol
_atom_site_label
_atom_site_fract_x
_atom_site_fract_y
_atom_site_fract_z
Si Si1 0.701156 0.500000 0.197930
Si Si2 0.893534 0.313899 0.805955
Si Si3 0.313899 0.106466 0.589905
O O1 0.609600 0.390401 0.263538
O O2 0.609599 0.609599 0.132321
O O3 0.791667 0.568186 0.303217
O O4 0.791667 0.431815 0.092643
O O5 0.821377 0.178624 0.781098
O O6 0.000001 0.333720 0.697930
O O7 0.956699 0.314344 0.947930
O O8 0.178624 0.178624 0.614763
#
# Coordination Sequence:
#
# PCOD8306797 Si02
#       3
#     8   8   8
#     4   9  19  36  58  86 119 151 184 228 284 343
#     4  10  22  39  59  85 116 151 192 237 285 337
#     4  10  22  39  59  85 116 151 192 237 285 337
#
# _framework density 21.394855
#
# number of rings (size 3 to 8) (size 9 to 14) (size 15 to 20)
#    0.000    2.333    0.000    1.000    0.000    8.667 
#    0.000   16.667    0.000    0.000    0.000    0.000 
#    0.000    0.000    0.000    0.000    0.000    0.000 
#
# Total GULP energy -297348.744734 kJ/mol
# GULP energy per Si atom -12389.531031 kJ/mol
# Density = 2.134616 g / cm^3
# Si number density = 21.394855 Si / 1000 Ang^3
#
#
#
# Elastic Constant Matrix: (Units=GPa)
#
#
# Indices 1 2 3 4 5 6 
#
# 1 121.0383 53.6539 74.5291 0.0000 0.0000 0.0000
# 2 53.6539 121.0383 74.5291 0.0000 0.0000 0.0000
# 3 74.5291 74.5291 154.4188 0.0000 0.0000 0.0000
# 4 0.0000 0.0000 0.0000 22.2061 0.0000 0.0000
# 5 0.0000 0.0000 0.0000 0.0000 22.2061 0.0000
# 6 0.0000 0.0000 0.0000 0.0000 0.0000 30.2986
#
#
#
# Elastic Compliance Matrix: (Units=1/GPa)
#
#
# Indices 1 2 3 4 5 6 
#
# 1 0.012286 -0.002554 -0.004697 0.000000 0.000000 0.000000
# 2 -0.002554 0.012286 -0.004697 0.000000 0.000000 0.000000
# 3 -0.004697 -0.004697 0.011010 0.000000 0.000000 0.000000
# 4 0.000000 0.000000 0.000000 0.045033 0.000000 0.000000
# 5 0.000000 0.000000 0.000000 0.000000 0.045033 0.000000
# 6 0.000000 0.000000 0.000000 0.000000 0.000000 0.033005
#
#
# Mechanical properties :
#
#
# Convention : Reuss Voigt Hill
#
# Bulk Modulus (GPa) = 85.57410 89.10217 87.33814
# Shear Modulus (GPa) = 26.81756 27.86104 27.33930
#
# Velocity S-wave (km/s) = 3.54426 3.61256 3.57857
# Velocity P-wave (km/s) = 7.53879 7.69011 7.61483
#
# Compressibility (1/GPa) = 0.01168578
#
# Stress axis : x y z
#
# Youngs Moduli (GPa) = 81.39155 81.39155 90.82599
#
# Poissons Ratio (x) = 0.20787 0.42663
# Poissons Ratio (y) = 0.20787 0.42663
# Poissons Ratio (z) = 0.38232 0.38232
#
# Static dielectric constant tensor:
#      x y z
#    x 4.041750 0.000000 0.000000 
#    y 0.000000 4.041750 0.000000 
#    z 0.000000 0.000000 3.461260 
# 
# 
# High freq. dielectric constant tensor:
#      x y z
#    x 1.846570 0.000000 0.000000 
#    y 0.000000 1.846570 0.000000 
#    z 0.000000 0.000000 1.806460 
# 
# From -- ./inp_files/359.got.cif
#   From: 2010.03.12/outbox.cif.g09.slc.cpg/sg101_1_cif.got.tgz:359.got - 2010.04.14 01:38:52.
