data_PCOD8306081
_publ_section_title
;
Structure prediction by ZEFSAII (Michael W. Deem and Ramdas Pophale) SiO2 
 PCOD8306081
Probable space group: I 4 2 2 
;
_chemical_formula_sum "Si O2"
_cell_formula_units_Z 112
_cell_length_a 14.408246
_cell_length_b 14.408246
_cell_length_c 26.441494
_cell_angle_alpha 90.000000
_cell_angle_beta 90.000000
_cell_angle_gamma 90.000000
_cell_volume 5489.189447
_symmetry_space_group_name_H-M "I 4 2 2 "
_symmetry_group_IT_number 97
_symmetry_cell_setting 'tetragonal'
loop_
_space_group_symop_operation_xyz
x,y,z
-y,x,z
-x,-y,z
y,-x,z
x,-y,-z
-x,y,-z
y,x,-z
-y,-x,-z
1/2+x,1/2+y,1/2+z
1/2-y,1/2+x,1/2+z
1/2-x,1/2-y,1/2+z
1/2+y,1/2-x,1/2+z
1/2+x,1/2-y,1/2-z
1/2-x,1/2+y,1/2-z
1/2+y,1/2+x,1/2-z
1/2-y,1/2-x,1/2-z
loop_
_atom_site_type_symbol
_atom_site_label
_atom_site_fract_x
_atom_site_fract_y
_atom_site_fract_z
Si Si1 0.487034 0.766979 0.443796
Si Si2 0.900748 0.885847 0.722822
Si Si3 0.809429 0.194592 0.369755
Si Si4 0.016123 0.151120 0.151727
Si Si5 0.245161 0.347428 0.291518
Si Si6 0.598843 0.157924 0.938283
Si Si7 0.815103 0.609439 0.051787
O O1 0.500000 0.725919 0.500000
O O2 0.496403 0.679964 0.406471
O O3 0.560313 0.849194 0.435291
O O4 0.386322 0.809398 0.434794
O O5 0.880887 0.863585 0.664279
O O6 0.837229 0.820668 0.758493
O O7 0.008222 0.870548 0.734907
O O8 0.722507 0.232287 0.337815
O O9 0.864240 0.281046 0.392430
O O10 0.776604 0.127687 0.415223
O O11 0.047861 0.241645 0.184912
O O12 0.919700 0.101209 0.164766
O O13 0.160324 0.339677 0.250000
O O14 0.489120 0.140555 0.932514
O O15 0.615424 0.208723 0.992196
#
# Coordination Sequence:
#
# PCOD8306081 Si02
#       7
#    16  16  16  16  16  16  16
#     4  10  21  36  57  83 117 159 206 248 295 366
#     4  10  21  37  58  83 112 145 186 239 296 359
#     4  11  20  36  57  86 114 146 193 244 299 350
#     4  11  22  37  58  88 124 161 199 248 314 376
#     4  10  21  36  57  82 114 152 198 242 297 359
#     4  10  21  35  58  84 116 156 198 242 295 363
#     4  10  20  37  56  83 117 156 197 242 296 357
#
# _framework density 20.403741
#
# number of rings (size 3 to 8) (size 9 to 14) (size 15 to 20)
#    0.000    1.714    1.429    3.429    0.000    3.429 
#    0.000    0.714    0.000    0.000    0.000    9.000 
#    0.000    0.000    0.000    0.000    0.000    0.000 
#
# Total GULP energy -694045.112649 kJ/mol
# GULP energy per Si atom -12393.662726 kJ/mol
# Density = 2.035730 g / cm^3
# Si number density = 20.403741 Si / 1000 Ang^3
#
#
#
# Elastic Constant Matrix: (Units=GPa)
#
#
# Indices 1 2 3 4 5 6 
#
# 1 49.3678 5.2487 19.5542 0.0000 0.0000 0.0000
# 2 5.2487 49.3672 19.5540 0.0000 0.0000 0.0000
# 3 19.5542 19.5540 87.7082 0.0000 0.0000 0.0000
# 4 0.0000 0.0000 0.0000 38.8329 0.0000 0.0000
# 5 0.0000 0.0000 0.0000 0.0000 38.8330 0.0000
# 6 0.0000 0.0000 0.0000 0.0000 0.0000 30.0889
#
#
#
# Elastic Compliance Matrix: (Units=1/GPa)
#
#
# Indices 1 2 3 4 5 6 
#
# 1 0.022227 -0.000439 -0.004857 0.000000 0.000000 0.000000
# 2 -0.000439 0.022227 -0.004857 0.000000 0.000000 0.000000
# 3 -0.004857 -0.004857 0.013567 0.000000 0.000000 0.000000
# 4 0.000000 0.000000 0.000000 0.025751 0.000000 0.000000
# 5 0.000000 0.000000 0.000000 0.000000 0.025751 0.000000
# 6 0.000000 0.000000 0.000000 0.000000 0.000000 0.033235
#
#
# Mechanical properties :
#
#
# Convention : Reuss Voigt Hill
#
# Bulk Modulus (GPa) = 26.51604 30.57301 28.54452
# Shear Modulus (GPa) = 28.46766 31.02339 29.74553
#
# Velocity S-wave (km/s) = 3.73931 3.90356 3.82232
# Velocity P-wave (km/s) = 5.62736 5.94420 5.78795
#
# Compressibility (1/GPa) = 0.03771302
#
# Stress axis : x y z
#
# Youngs Moduli (GPa) = 44.99075 44.99019 73.70637
#
# Poissons Ratio (x) = 0.01976 0.35803
# Poissons Ratio (y) = 0.01976 0.35803
# Poissons Ratio (z) = 0.21854 0.21854
#
# Static dielectric constant tensor:
#      x y z
#    x 3.584150 0.000000 0.000000 
#    y 0.000000 3.584150 0.000000 
#    z 0.000000 0.000000 4.050030 
# 
# 
# High freq. dielectric constant tensor:
#      x y z
#    x 1.779720 0.000000 0.000000 
#    y 0.000000 1.779720 0.000000 
#    z 0.000000 0.000000 1.824230 
# 
# From -- ./inp_files/7268.got.cif
#   From: 2010.03.12/outbox.cif.g09.slc.cpg/sg97_4_cif.got.tgz:7268.got - 2010.04.08 20:59:42.
