data_PCOD8306089
_publ_section_title
;
Structure prediction by ZEFSAII (Michael W. Deem and Ramdas Pophale) SiO2 
 PCOD8306089
Probable space group: I 4 2 2 
;
_chemical_formula_sum "Si O2"
_cell_formula_units_Z 112
_cell_length_a 13.880620
_cell_length_b 13.880620
_cell_length_c 24.143777
_cell_angle_alpha 90.000000
_cell_angle_beta 90.000000
_cell_angle_gamma 90.000000
_cell_volume 4651.820424
_symmetry_space_group_name_H-M "I 4 2 2 "
_symmetry_group_IT_number 97
_symmetry_cell_setting 'tetragonal'
loop_
_space_group_symop_operation_xyz
x,y,z
-y,x,z
-x,-y,z
y,-x,z
x,-y,-z
-x,y,-z
y,x,-z
-y,-x,-z
1/2+x,1/2+y,1/2+z
1/2-y,1/2+x,1/2+z
1/2-x,1/2-y,1/2+z
1/2+y,1/2-x,1/2+z
1/2+x,1/2-y,1/2-z
1/2-x,1/2+y,1/2-z
1/2+y,1/2+x,1/2-z
1/2-y,1/2-x,1/2-z
loop_
_atom_site_type_symbol
_atom_site_label
_atom_site_fract_x
_atom_site_fract_y
_atom_site_fract_z
Si Si1 0.725296 0.893459 0.787993
Si Si2 0.808234 0.399458 0.531555
Si Si3 0.093912 0.445839 0.132791
Si Si4 0.860865 0.921938 0.361894
Si Si5 0.233882 0.100782 0.474073
Si Si6 0.930216 0.709205 0.715539
Si Si7 0.918966 0.138696 0.886903
O O1 0.701226 0.798775 0.750000
O O2 0.627955 0.927706 0.818116
O O3 0.810694 0.875358 0.831848
O O4 0.752607 0.984857 0.752046
O O5 0.826104 0.500000 0.500000
O O6 0.887756 0.371306 0.578599
O O7 0.820170 0.316965 0.485448
O O8 0.701883 0.393947 0.558898
O O9 0.163434 0.526932 0.158787
O O10 0.000000 0.500000 0.112356
O O11 0.785339 0.896482 0.409422
O O12 0.808336 0.880895 0.306262
O O13 0.962563 0.870275 0.364480
O O14 0.131898 0.131898 0.500000
O O15 0.266426 0.000000 0.500000
O O16 0.859130 0.640871 0.750000
O O17 0.034888 0.130813 0.887804
#
# Coordination Sequence:
#
# PCOD8306089 Si02
#       7
#    16  16  16  16  16  16  16
#     4   9  20  40  69 103 140 187 241 299 363 435
#     4  11  28  43  70 110 151 194 253 316 377 450
#     4  10  20  39  66  97 143 192 238 300 368 440
#     4  11  26  48  73 105 147 192 244 300 363 449
#     4  12  26  47  76 111 149 199 246 307 382 461
#     4  11  22  41  71 102 140 186 240 299 365 429
#     4  10  24  49  76 103 146 200 251 307 377 454
#
# _framework density 24.076597
#
# number of rings (size 3 to 8) (size 9 to 14) (size 15 to 20)
#    0.000    1.429    2.857    0.857    6.000    1.286 
#    0.000    5.000    0.000    0.000    0.000    0.000 
#    0.000    0.000    0.000    0.000    0.000    0.000 
#
# Total GULP energy -693952.502397 kJ/mol
# GULP energy per Si atom -12392.008971 kJ/mol
# Density = 2.402180 g / cm^3
# Si number density = 24.076597 Si / 1000 Ang^3
#
#
#
# Elastic Constant Matrix: (Units=GPa)
#
#
# Indices 1 2 3 4 5 6 
#
# 1 103.5266 50.3940 52.8616 0.0000 0.0000 0.0000
# 2 50.3940 103.5281 52.8618 0.0000 0.0000 0.0000
# 3 52.8616 52.8618 125.2873 0.0000 0.0000 0.0000
# 4 0.0000 0.0000 0.0000 33.1052 0.0000 0.0000
# 5 0.0000 0.0000 0.0000 0.0000 33.1044 0.0000
# 6 0.0000 0.0000 0.0000 0.0000 0.0000 18.5878
#
#
#
# Elastic Compliance Matrix: (Units=1/GPa)
#
#
# Indices 1 2 3 4 5 6 
#
# 1 0.013984 -0.004836 -0.003860 0.000000 0.000000 0.000000
# 2 -0.004836 0.013984 -0.003860 0.000000 0.000000 0.000000
# 3 -0.003860 -0.003860 0.011239 0.000000 0.000000 0.000000
# 4 0.000000 0.000000 0.000000 0.030207 0.000000 0.000000
# 5 0.000000 0.000000 0.000000 0.000000 0.030207 0.000000
# 6 0.000000 0.000000 0.000000 0.000000 0.000000 0.053799
#
#
# Mechanical properties :
#
#
# Convention : Reuss Voigt Hill
#
# Bulk Modulus (GPa) = 70.94397 71.61965 71.28181
# Shear Modulus (GPa) = 27.28806 28.70779 27.99792
#
# Velocity S-wave (km/s) = 3.37023 3.45679 3.41379
# Velocity P-wave (km/s) = 6.68390 6.76341 6.72377
#
# Compressibility (1/GPa) = 0.01409563
#
# Stress axis : x y z
#
# Youngs Moduli (GPa) = 71.50842 71.50957 88.97838
#
# Poissons Ratio (x) = 0.34584 0.34344
# Poissons Ratio (y) = 0.34584 0.34343
# Poissons Ratio (z) = 0.27601 0.27601
#
# Static dielectric constant tensor:
#      x y z
#    x 4.360630 0.000000 0.000000 
#    y 0.000000 4.360640 0.000000 
#    z 0.000000 0.000000 4.238110 
# 
# 
# High freq. dielectric constant tensor:
#      x y z
#    x 1.956280 0.000000 0.000000 
#    y 0.000000 1.956280 0.000000 
#    z 0.000000 0.000000 1.967390 
# 
# From -- ./inp_files/7277.got.cif
#   From: 2010.03.12/outbox.cif.g09.slc.cpg/sg97_4_cif.got.tgz:7277.got - 2010.04.08 20:59:42.
