data_PCOD8306954
_publ_section_title
;
Structure prediction by ZEFSAII (Michael W. Deem and Ramdas Pophale) SiO2 
 PCOD8306954
Probable space group: P 42 N M
;
_chemical_formula_sum "Si O2"
_cell_formula_units_Z 64
_cell_length_a 21.304427
_cell_length_b 21.304427
_cell_length_c 8.591601
_cell_angle_alpha 90.000000
_cell_angle_beta 90.000000
_cell_angle_gamma 90.000000
_cell_volume 3899.543918
_symmetry_space_group_name_H-M "P 42 N M"
_symmetry_group_IT_number 102
_symmetry_cell_setting 'tetragonal'
loop_
_space_group_symop_operation_xyz
x,y,z
1/2-y,1/2+x,1/2+z
-x,-y,z
1/2+y,1/2-x,1/2+z
1/2-x,1/2+y,1/2+z
1/2+x,1/2-y,1/2+z
-y,-x,z
y,x,z
loop_
_atom_site_type_symbol
_atom_site_label
_atom_site_fract_x
_atom_site_fract_y
_atom_site_fract_z
Si Si1 0.859995 0.326858 0.085040
Si Si2 0.353462 0.253458 0.877674
Si Si3 0.429155 0.805436 0.286480
Si Si4 0.321272 0.426790 0.129772
Si Si5 0.178728 0.073210 0.629772
Si Si6 0.826858 0.359995 0.585040
Si Si7 0.246542 0.146538 0.377674
Si Si8 0.429155 0.194564 0.286480
O O1 0.876324 0.275973 0.216187
O O2 0.852291 0.393264 0.170431
O O3 0.796262 0.316075 0.986168
O O4 0.917477 0.324930 0.964901
O O5 0.304668 0.304668 0.824895
O O6 0.411481 0.286843 0.966011
O O7 0.316075 0.203738 0.986168
O O8 0.412519 0.731250 0.262316
O O9 0.417477 0.824930 0.464901
O O10 0.500000 0.817453 0.241577
O O11 0.381899 0.381899 0.157619
O O12 0.342531 0.500000 0.130558
O O13 0.268750 0.412519 0.262316
O O14 0.118101 0.118101 0.657619
O O15 0.213157 0.088519 0.466011
O O16 0.775973 0.376324 0.716187
O O17 0.893264 0.352291 0.670431
O O18 0.195332 0.195332 0.324896
#
# Coordination Sequence:
#
# PCOD8306954 Si02
#       8
#     8   8   8   8   8   8   8   8
#     4   9  17  28  46  68  89 119 149 183 233 277
#     4   9  16  26  42  66  93 116 147 191 234 273
#     4   9  18  32  48  68  93 119 150 187 228 273
#     4   9  18  31  46  66  93 124 156 189 223 264
#     4   9  18  31  46  66  93 124 156 189 223 264
#     4   9  17  28  46  68  89 119 149 183 233 277
#     4   9  16  26  42  66  93 116 147 191 234 273
#     4   9  18  32  48  68  93 119 150 187 228 273
#
# _framework density 16.412175999999999
#
# number of rings (size 3 to 8) (size 9 to 14) (size 15 to 20)
#    0.000    3.000    0.000    0.750    0.000    8.250 
#    0.000    3.750    0.000    2.250    0.000    0.000 
#    0.000    4.000    0.000    0.000    0.000    0.000 
#
# Total GULP energy -792957.733330 kJ/mol
# GULP energy per Si atom -12389.964583 kJ/mol
# Density = 1.637482 g / cm^3
# Si number density = 16.412176 Si / 1000 Ang^3
#
#
#
# Elastic Constant Matrix: (Units=GPa)
#
#
# Indices 1 2 3 4 5 6 
#
# 1 72.5296 39.8908 38.6583 0.0000 0.0000 0.0000
# 2 39.8908 72.5296 38.6583 0.0000 0.0000 0.0000
# 3 38.6583 38.6583 111.7782 0.0000 0.0000 0.0000
# 4 0.0000 0.0000 0.0000 13.8385 0.0000 0.0000
# 5 0.0000 0.0000 0.0000 0.0000 13.8385 0.0000
# 6 0.0000 0.0000 0.0000 0.0000 0.0000 20.2626
#
#
#
# Elastic Compliance Matrix: (Units=1/GPa)
#
#
# Indices 1 2 3 4 5 6 
#
# 1 0.021155 -0.009484 -0.004036 0.000000 0.000000 0.000000
# 2 -0.009484 0.021155 -0.004036 0.000000 0.000000 0.000000
# 3 -0.004036 -0.004036 0.011738 0.000000 0.000000 0.000000
# 4 0.000000 0.000000 0.000000 0.072262 0.000000 0.000000
# 5 0.000000 0.000000 0.000000 0.000000 0.072262 0.000000
# 6 0.000000 0.000000 0.000000 0.000000 0.000000 0.049352
#
#
# Mechanical properties :
#
#
# Convention : Reuss Voigt Hill
#
# Bulk Modulus (GPa) = 52.81258 54.58358 53.69808
# Shear Modulus (GPa) = 17.28018 18.89660 18.08839
#
# Velocity S-wave (km/s) = 3.24834 3.39688 3.32344
# Velocity P-wave (km/s) = 6.80571 6.97963 6.89322
#
# Compressibility (1/GPa) = 0.01893488
#
# Stress axis : x y z
#
# Youngs Moduli (GPa) = 47.27058 47.27058 85.19122
#
# Poissons Ratio (x) = 0.44829 0.34387
# Poissons Ratio (y) = 0.44829 0.34387
# Poissons Ratio (z) = 0.19081 0.19081
#
# Static dielectric constant tensor:
#      x y z
#    x 2.984100 0.000000 0.000000 
#    y 0.000000 2.984100 0.000000 
#    z 0.000000 0.000000 3.176040 
# 
# 
# High freq. dielectric constant tensor:
#      x y z
#    x 1.615190 0.000000 0.000000 
#    y 0.000000 1.615190 0.000000 
#    z 0.000000 0.000000 1.634910 
# 
# From -- ./inp_files/1203.got.cif
#   From: 2010.03.12/outbox.cif.g09.slc.cpg/sg102_1_cif.got.tgz:1203.got - 2010.04.14 01:40:42.
