data_PCOD8306350
_publ_section_title
;
Structure prediction by ZEFSAII (Michael W. Deem and Ramdas Pophale) SiO2 
 PCOD8306350
Probable space group: I 41 2 2
;
_chemical_formula_sum "Si O2"
_cell_formula_units_Z 56
_cell_length_a 10.577350
_cell_length_b 10.577350
_cell_length_c 23.040522
_cell_angle_alpha 90.000000
_cell_angle_beta 90.000000
_cell_angle_gamma 90.000000
_cell_volume 2577.781274
_symmetry_space_group_name_H-M "I 41 2 2"
_symmetry_group_IT_number 98
_symmetry_cell_setting 'tetragonal'
loop_
_space_group_symop_operation_xyz
x,y,z
-y,1/2+x,1/4+z
-x,-y,z
y,1/2-x,1/4+z
x,1/2-y,1/4-z
-x,1/2+y,1/4-z
y,x,-z
-y,-x,-z
1/2+x,1/2+y,1/2+z
1/2-y,x,3/4+z
1/2-x,1/2-y,1/2+z
1/2+y,-x,3/4+z
1/2+x,-y,3/4-z
1/2-x,y,3/4-z
1/2+y,1/2+x,1/2-z
1/2-y,1/2-x,1/2-z
loop_
_atom_site_type_symbol
_atom_site_label
_atom_site_fract_x
_atom_site_fract_y
_atom_site_fract_z
Si Si1 0.639222 0.843243 0.504582
Si Si2 0.000000 0.500000 0.399466
Si Si3 0.536191 0.135200 0.089143
Si Si4 0.698817 0.422336 0.556005
O O1 0.778597 0.778597 0.500000
O O2 0.558135 0.746247 0.465994
O O3 0.573779 0.885980 0.565657
O O4 0.644460 0.979684 0.474933
O O5 0.069091 0.598430 0.357440
O O6 0.476692 0.250000 0.125000
O O7 0.685406 0.155205 0.083069
O O8 0.500000 0.000000 0.118425
O O9 0.646654 0.353347 0.500000
#
# Coordination Sequence:
#
# PCOD8306350 Si02
#       4
#    16   8  16  16
#     4  11  25  46  70 105 141 187 248 294 366 445
#     4  12  25  46  74 108 142 195 242 300 366 430
#     4  10  24  46  69 102 147 186 241 303 361 443
#     4  11  25  44  69 106 145 184 244 303 357 432
#
# _framework density 21.72411
#
# number of rings (size 3 to 8) (size 9 to 14) (size 15 to 20)
#    0.000    1.143    4.286    2.143   12.000    2.286 
#    0.000    0.000    0.000    0.000    0.000    0.000 
#    0.000    0.000    0.000    0.000    0.000    0.000 
#
# Total GULP energy -346866.403017 kJ/mol
# GULP energy per Si atom -12388.085822 kJ/mol
# Density = 2.167466 g / cm^3
# Si number density = 21.724110 Si / 1000 Ang^3
#
#
#
# Elastic Constant Matrix: (Units=GPa)
#
#
# Indices 1 2 3 4 5 6 
#
# 1 124.6575 53.5681 58.9471 0.0000 0.0000 0.0000
# 2 53.5681 124.6554 58.9489 0.0000 0.0000 0.0000
# 3 58.9471 58.9489 119.1140 0.0000 0.0000 0.0000
# 4 0.0000 0.0000 0.0000 11.9940 0.0000 0.0000
# 5 0.0000 0.0000 0.0000 0.0000 11.9968 0.0000
# 6 0.0000 0.0000 0.0000 0.0000 0.0000 34.9903
#
#
#
# Elastic Compliance Matrix: (Units=1/GPa)
#
#
# Indices 1 2 3 4 5 6 
#
# 1 0.011204 -0.002863 -0.004128 0.000000 0.000000 0.000000
# 2 -0.002863 0.011205 -0.004128 0.000000 0.000000 0.000000
# 3 -0.004128 -0.004128 0.012481 0.000000 0.000000 0.000000
# 4 0.000000 0.000000 0.000000 0.083375 0.000000 0.000000
# 5 0.000000 0.000000 0.000000 0.000000 0.083355 0.000000
# 6 0.000000 0.000000 0.000000 0.000000 0.000000 0.028579
#
#
# Mechanical properties :
#
#
# Convention : Reuss Voigt Hill
#
# Bulk Modulus (GPa) = 79.03943 79.03946 79.03944
# Shear Modulus (GPa) = 19.48139 24.92707 22.20423
#
# Velocity S-wave (km/s) = 2.99785 3.39106 3.20050
# Velocity P-wave (km/s) = 6.96025 7.19685 7.07954
#
# Compressibility (1/GPa) = 0.01265191
#
# Stress axis : x y z
#
# Youngs Moduli (GPa) = 89.25277 89.24908 80.11973
#
# Poissons Ratio (x) = 0.25549 0.33073
# Poissons Ratio (y) = 0.25550 0.33077
# Poissons Ratio (z) = 0.36843 0.36846
#
# Static dielectric constant tensor:
#      x y z
#    x 4.085410 0.000000 0.000000 
#    y 0.000000 4.085390 0.000000 
#    z 0.000000 0.000000 3.948500 
# 
# 
# High freq. dielectric constant tensor:
#      x y z
#    x 1.860250 0.000000 0.000000 
#    y 0.000000 1.860250 0.000000 
#    z 0.000000 0.000000 1.849370 
# 
# From -- ./inp_files/8416.got.cif
#   From: 2010.03.12/outbox.cif.g09.slc.cpg/sg98_5_cif.got.tgz:8416.got - 2010.04.08 21:04:41.
