data_PCOD8306096
_publ_section_title
;
Structure prediction by ZEFSAII (Michael W. Deem and Ramdas Pophale) SiO2 
 PCOD8306096
Probable space group: I 4 2 2 
;
_chemical_formula_sum "Si O2"
_cell_formula_units_Z 44
_cell_length_a 11.288637
_cell_length_b 11.288637
_cell_length_c 17.145280
_cell_angle_alpha 90.000000
_cell_angle_beta 90.000000
_cell_angle_gamma 90.000000
_cell_volume 2184.880044
_symmetry_space_group_name_H-M "I 4 2 2 "
_symmetry_group_IT_number 97
_symmetry_cell_setting 'tetragonal'
loop_
_space_group_symop_operation_xyz
x,y,z
-y,x,z
-x,-y,z
y,-x,z
x,-y,-z
-x,y,-z
y,x,-z
-y,-x,-z
1/2+x,1/2+y,1/2+z
1/2-y,1/2+x,1/2+z
1/2-x,1/2-y,1/2+z
1/2+y,1/2-x,1/2+z
1/2+x,1/2-y,1/2-z
1/2-x,1/2+y,1/2-z
1/2+y,1/2+x,1/2-z
1/2-y,1/2-x,1/2-z
loop_
_atom_site_type_symbol
_atom_site_label
_atom_site_fract_x
_atom_site_fract_y
_atom_site_fract_z
Si Si1 0.411361 0.796989 0.155479
Si Si2 0.910715 0.830902 0.192291
Si Si3 0.500000 0.694646 0.000000
Si Si4 0.000000 0.500000 0.250000
O O1 0.281386 0.857406 0.144637
O O2 0.396455 0.684693 0.213427
O O3 0.503160 0.883530 0.197730
O O4 0.481650 0.773624 0.076039
O O5 0.049300 0.842104 0.169283
O O6 0.382620 0.617381 0.000000
#
# Coordination Sequence:
#
# PCOD8306096 Si02
#       4
#    16  16   8   4
#     4  10  21  35  57  85 117 151 189 237 288 340
#     4   9  18  34  58  85 112 149 196 239 280 334
#     4  11  24  39  56  84 118 151 186 231 294 354
#     4   8  20  38  56  84 112 148 200 238 276 334
#
# _framework density 20.138404000000001
#
# number of rings (size 3 to 8) (size 9 to 14) (size 15 to 20)
#    0.000    2.727    0.000    2.182    0.000   21.091 
#    0.000    0.000    0.000    0.000    0.000    7.636 
#    0.000    0.000    0.000    0.000    0.000    0.000 
#
# Total GULP energy -272591.949994 kJ/mol
# GULP energy per Si atom -12390.543182 kJ/mol
# Density = 2.009257 g / cm^3
# Si number density = 20.138404 Si / 1000 Ang^3
#
#
#
# Elastic Constant Matrix: (Units=GPa)
#
#
# Indices 1 2 3 4 5 6 
#
# 1 109.6605 73.1226 47.1150 0.0000 0.0000 0.0000
# 2 73.1226 109.6605 47.1153 0.0000 0.0000 0.0000
# 3 47.1150 47.1153 136.6420 0.0000 0.0000 0.0000
# 4 0.0000 0.0000 0.0000 27.7929 0.0000 0.0000
# 5 0.0000 0.0000 0.0000 0.0000 27.7938 0.0000
# 6 0.0000 0.0000 0.0000 0.0000 0.0000 60.3454
#
#
#
# Elastic Compliance Matrix: (Units=1/GPa)
#
#
# Indices 1 2 3 4 5 6 
#
# 1 0.017011 -0.010358 -0.002294 0.000000 0.000000 0.000000
# 2 -0.010358 0.017011 -0.002294 0.000000 0.000000 0.000000
# 3 -0.002294 -0.002294 0.008901 0.000000 0.000000 0.000000
# 4 0.000000 0.000000 0.000000 0.035980 0.000000 0.000000
# 5 0.000000 0.000000 0.000000 0.000000 0.035979 0.000000
# 6 0.000000 0.000000 0.000000 0.000000 0.000000 0.016571
#
#
# Mechanical properties :
#
#
# Convention : Reuss Voigt Hill
#
# Bulk Modulus (GPa) = 76.74019 76.74098 76.74059
# Shear Modulus (GPa) = 30.17689 35.76044 32.96867
#
# Velocity S-wave (km/s) = 3.87521 4.21852 4.05050
# Velocity P-wave (km/s) = 7.62969 7.86876 7.75015
#
# Compressibility (1/GPa) = 0.01303098
#
# Stress axis : x y z
#
# Youngs Moduli (GPa) = 58.78464 58.78454 112.35267
#
# Poissons Ratio (x) = 0.60886 0.25776
# Poissons Ratio (y) = 0.60886 0.25777
# Poissons Ratio (z) = 0.13487 0.13487
#
# Static dielectric constant tensor:
#      x y z
#    x 3.745390 0.000000 0.000000 
#    y 0.000000 3.745390 0.000000 
#    z 0.000000 0.000000 4.028010 
# 
# 
# High freq. dielectric constant tensor:
#      x y z
#    x 1.795960 0.000000 0.000000 
#    y 0.000000 1.795960 0.000000 
#    z 0.000000 0.000000 1.746280 
# 
# From -- ./inp_files/5332.got.cif
#   From: 2010.03.12/outbox.cif.g09.slc.cpg/sg97_3_cif.got.tgz:5332.got - 2010.04.08 20:59:42.
