data_PCOD8306317
_publ_section_title
;
Structure prediction by ZEFSAII (Michael W. Deem and Ramdas Pophale) SiO2 
 PCOD8306317
Probable space group: I 41 2 2
;
_chemical_formula_sum "Si O2"
_cell_formula_units_Z 108
_cell_length_a 15.717282
_cell_length_b 15.717282
_cell_length_c 21.668808
_cell_angle_alpha 90.000000
_cell_angle_beta 90.000000
_cell_angle_gamma 90.000000
_cell_volume 5352.909638
_symmetry_space_group_name_H-M "I 41 2 2"
_symmetry_group_IT_number 98
_symmetry_cell_setting 'tetragonal'
loop_
_space_group_symop_operation_xyz
x,y,z
-y,1/2+x,1/4+z
-x,-y,z
y,1/2-x,1/4+z
x,1/2-y,1/4-z
-x,1/2+y,1/4-z
y,x,-z
-y,-x,-z
1/2+x,1/2+y,1/2+z
1/2-y,x,3/4+z
1/2-x,1/2-y,1/2+z
1/2+y,-x,3/4+z
1/2+x,-y,3/4-z
1/2-x,y,3/4-z
1/2+y,1/2+x,1/2-z
1/2-y,1/2-x,1/2-z
loop_
_atom_site_type_symbol
_atom_site_label
_atom_site_fract_x
_atom_site_fract_y
_atom_site_fract_z
Si Si1 0.688145 0.758993 0.318177
Si Si2 0.929063 0.150328 0.124356
Si Si3 0.155243 0.954280 0.228582
Si Si4 0.641691 0.141691 0.750000
Si Si5 0.364897 0.076813 0.959136
Si Si6 0.676338 0.995283 0.180112
Si Si7 0.500000 0.500000 0.000000
Si Si8 0.929354 0.315423 0.951490
O O1 0.750000 0.784780 0.375000
O O2 0.704585 0.795416 0.250000
O O3 0.691141 0.658065 0.307974
O O4 0.599118 0.797544 0.340564
O O5 0.905141 0.250000 0.125000
O O6 0.863141 0.099025 0.166701
O O7 0.024287 0.130228 0.145762
O O8 0.923121 0.118242 0.054432
O O9 0.126096 0.900386 0.287477
O O10 0.102091 0.041363 0.230997
O O11 0.256139 0.972929 0.231704
O O12 0.737170 0.128062 0.724739
O O13 0.319181 0.018485 0.010788
O O14 0.581934 0.999920 0.206421
O O15 0.687178 0.054631 0.120819
#
# Coordination Sequence:
#
# PCOD8306317 Si02
#       8
#    16  16  16   8  16  16   4  16
#     4  11  23  44  70  97 135 175 230 285 333 402
#     4  11  19  37  58  92 135 170 209 265 328 391
#     4  10  22  41  64  93 128 171 225 275 328 415
#     4  12  22  33  65  96 136 174 214 276 320 420
#     4  10  22  39  65  93 130 176 224 271 330 408
#     4  11  25  46  66  98 130 172 225 285 347 407
#     4  12  28  50  68  92 140 166 224 308 350 392
#     4  11  22  40  68  97 132 178 223 264 352 405
#
# _framework density 20.175941999999999
#
# number of rings (size 3 to 8) (size 9 to 14) (size 15 to 20)
#    0.000    1.185    5.185    3.111    2.074    0.593 
#    0.000    3.704    0.000    0.000    0.000    0.000 
#    0.000    0.000    0.000    0.000    0.000    0.000 
#
# Total GULP energy -669410.514238 kJ/mol
# GULP energy per Si atom -12396.491004 kJ/mol
# Density = 2.013002 g / cm^3
# Si number density = 20.175942 Si / 1000 Ang^3
#
#
#
# Elastic Constant Matrix: (Units=GPa)
#
#
# Indices 1 2 3 4 5 6 
#
# 1 96.1890 40.5971 27.5785 0.0000 0.0000 0.0000
# 2 40.5971 96.1866 27.5780 0.0000 0.0000 0.0000
# 3 27.5785 27.5780 91.7952 0.0000 0.0000 0.0000
# 4 0.0000 0.0000 0.0000 22.5435 0.0000 0.0000
# 5 0.0000 0.0000 0.0000 0.0000 22.5435 0.0000
# 6 0.0000 0.0000 0.0000 0.0000 0.0000 30.2513
#
#
#
# Elastic Compliance Matrix: (Units=1/GPa)
#
#
# Indices 1 2 3 4 5 6 
#
# 1 0.013153 -0.004835 -0.002499 0.000000 0.000000 0.000000
# 2 -0.004835 0.013154 -0.002499 0.000000 0.000000 0.000000
# 3 -0.002499 -0.002499 0.012395 0.000000 0.000000 0.000000
# 4 0.000000 0.000000 0.000000 0.044359 0.000000 0.000000
# 5 0.000000 0.000000 0.000000 0.000000 0.044359 0.000000
# 6 0.000000 0.000000 0.000000 0.000000 0.000000 0.033056
#
#
# Mechanical properties :
#
#
# Convention : Reuss Voigt Hill
#
# Bulk Modulus (GPa) = 52.53238 52.85308 52.69273
# Shear Modulus (GPa) = 26.81134 27.62881 27.22007
#
# Velocity S-wave (km/s) = 3.64933 3.70455 3.67704
# Velocity P-wave (km/s) = 6.62197 6.67467 6.64837
#
# Compressibility (1/GPa) = 0.01903588
#
# Stress axis : x y z
#
# Youngs Moduli (GPa) = 76.02598 76.02416 80.67465
#
# Poissons Ratio (x) = 0.36758 0.20162
# Poissons Ratio (y) = 0.36759 0.20162
# Poissons Ratio (z) = 0.19000 0.19000
#
# Static dielectric constant tensor:
#      x y z
#    x 3.754740 0.000000 0.000000 
#    y 0.000000 3.754740 0.000000 
#    z 0.000000 0.000000 3.552670 
# 
# 
# High freq. dielectric constant tensor:
#      x y z
#    x 1.792380 0.000000 0.000000 
#    y 0.000000 1.792380 0.000000 
#    z 0.000000 0.000000 1.783120 
# 
# From -- ./inp_files/10134.got.cif
#   From: 2010.03.12/outbox.cif.g09.slc.cpg/sg98_6_cif.got.tgz:10134.got - 2010.04.08 21:04:41.
