data_PCOD8306884
_publ_section_title
;
Structure prediction by ZEFSAII (Michael W. Deem and Ramdas Pophale) SiO2 
 PCOD8306884
Probable space group: P 42 N M
;
_chemical_formula_sum "Si O2"
_cell_formula_units_Z 64
_cell_length_a 12.156834
_cell_length_b 12.156834
_cell_length_c 23.181909
_cell_angle_alpha 90.000000
_cell_angle_beta 90.000000
_cell_angle_gamma 90.000000
_cell_volume 3426.022176
_symmetry_space_group_name_H-M "P 42 N M"
_symmetry_group_IT_number 102
_symmetry_cell_setting 'tetragonal'
loop_
_space_group_symop_operation_xyz
x,y,z
1/2-y,1/2+x,1/2+z
-x,-y,z
1/2+y,1/2-x,1/2+z
1/2-x,1/2+y,1/2+z
1/2+x,1/2-y,1/2+z
-y,-x,z
y,x,z
loop_
_atom_site_type_symbol
_atom_site_label
_atom_site_fract_x
_atom_site_fract_y
_atom_site_fract_z
Si Si1 0.314147 0.869274 0.729400
Si Si2 0.353240 0.830239 0.856616
Si Si3 0.873062 0.509047 0.647022
Si Si4 0.495508 0.326607 0.910218
Si Si5 0.208500 0.518609 0.026529
Si Si6 0.595516 0.778945 0.473132
Si Si7 0.105353 0.286636 0.040298
Si Si8 0.747948 0.926225 0.655077
O O1 0.238423 0.761578 0.721965
O O2 0.341144 0.893888 0.796418
O O3 0.434275 0.850552 0.702705
O O4 0.253613 0.972465 0.699915
O O5 0.271540 0.728461 0.859339
O O6 0.475581 0.779732 0.870054
O O7 0.322230 0.913993 0.907682
O O8 0.790202 0.463896 0.599188
O O9 0.852463 0.637148 0.661277
O O10 0.000000 0.500000 0.625588
O O11 0.575287 0.424714 0.892336
O O12 0.369455 0.369455 0.900937
O O13 0.517705 0.301601 0.977629
O O14 0.141016 0.407025 0.020740
O O15 0.261782 0.527393 0.090122
O O16 0.128884 0.622805 0.016814
O O17 0.680574 0.680574 0.479814
O O18 0.474575 0.737337 0.491104
O O19 0.210740 0.210740 0.049054
O O20 0.851380 0.851380 0.671589
#
# Coordination Sequence:
#
# PCOD8306884 Si02
#       8
#     8   8   8   8   8   8   8   8
#     4  10  20  37  60  84 110 146 192 234 277 334
#     4   8  17  35  58  80 107 150 193 229 276 335
#     4  10  19  36  55  76 109 147 186 223 274 335
#     4   9  17  30  52  83 115 146 186 237 287 333
#     4  11  19  34  54  81 115 149 182 226 285 342
#     4  10  20  37  60  82 108 148 194 229 268 332
#     4  12  22  33  53  83 116 147 181 229 283 335
#     4  11  22  36  57  83 113 149 188 232 282 335
#
# _framework density 18.680557
#
# number of rings (size 3 to 8) (size 9 to 14) (size 15 to 20)
#    0.000    1.875    3.750    3.000    0.000    1.000 
#    0.000    8.750    0.000    4.125    0.000    0.000 
#    0.000    0.000    0.000    0.000    0.000    0.000 
#
# Total GULP energy -793292.867170 kJ/mol
# GULP energy per Si atom -12395.201050 kJ/mol
# Density = 1.863804 g / cm^3
# Si number density = 18.680557 Si / 1000 Ang^3
#
#
#
# Elastic Constant Matrix: (Units=GPa)
#
#
# Indices 1 2 3 4 5 6 
#
# 1 67.7994 21.7428 33.2187 0.0000 0.0000 0.0003
# 2 21.7428 67.7994 33.2187 0.0000 0.0000 -0.0003
# 3 33.2187 33.2187 125.3805 0.0000 0.0000 0.0000
# 4 0.0000 0.0000 0.0000 23.4179 0.0000 0.0000
# 5 0.0000 0.0000 0.0000 0.0000 23.4179 0.0000
# 6 0.0003 -0.0003 0.0000 0.0000 0.0000 13.7747
#
#
#
# Elastic Compliance Matrix: (Units=1/GPa)
#
#
# Indices 1 2 3 4 5 6 
#
# 1 0.017806 -0.003906 -0.003683 0.000000 0.000000 -0.000001
# 2 -0.003906 0.017806 -0.003683 0.000000 0.000000 0.000001
# 3 -0.003683 -0.003683 0.009927 0.000000 0.000000 0.000000
# 4 0.000000 0.000000 0.000000 0.042702 0.000000 0.000000
# 5 0.000000 0.000000 0.000000 0.000000 0.042702 0.000000
# 6 -0.000001 0.000001 0.000000 0.000000 0.000000 0.072597
#
#
# Mechanical properties :
#
#
# Convention : Reuss Voigt Hill
#
# Bulk Modulus (GPa) = 43.48430 48.59329 46.03880
# Shear Modulus (GPa) = 21.39032 23.64204 22.51618
#
# Velocity S-wave (km/s) = 3.38754 3.56138 3.47555
# Velocity P-wave (km/s) = 6.21522 6.55595 6.38786
#
# Compressibility (1/GPa) = 0.02299680
#
# Stress axis : x y z
#
# Youngs Moduli (GPa) = 56.15942 56.15942 100.73329
#
# Poissons Ratio (x) = 0.21936 0.37098
# Poissons Ratio (y) = 0.21936 0.37098
# Poissons Ratio (z) = 0.20683 0.20683
#
# Static dielectric constant tensor:
#      x y z
#    x 3.410530 0.000000 0.000000 
#    y 0.000000 3.410530 0.000000 
#    z 0.000000 0.000000 3.529950 
# 
# 
# High freq. dielectric constant tensor:
#      x y z
#    x 1.711980 0.000000 0.000000 
#    y 0.000000 1.711980 0.000000 
#    z 0.000000 0.000000 1.720030 
# 
# From -- ./inp_files/3419.got.cif
#   From: 2010.03.12/outbox.cif.g09.slc.cpg/sg102_2_cif.got.tgz:3419.got - 2010.04.14 01:40:42.
