data_PCOD8306287
_publ_section_title
;
Structure prediction by ZEFSAII (Michael W. Deem and Ramdas Pophale) SiO2 
 PCOD8306287
Probable space group: I 41 2 2
;
_chemical_formula_sum "Si O2"
_cell_formula_units_Z 48
_cell_length_a 21.548805
_cell_length_b 21.548805
_cell_length_c 4.924627
_cell_angle_alpha 90.000000
_cell_angle_beta 90.000000
_cell_angle_gamma 90.000000
_cell_volume 2286.755457
_symmetry_space_group_name_H-M "I 41 2 2"
_symmetry_group_IT_number 98
_symmetry_cell_setting 'tetragonal'
loop_
_space_group_symop_operation_xyz
x,y,z
-y,1/2+x,1/4+z
-x,-y,z
y,1/2-x,1/4+z
x,1/2-y,1/4-z
-x,1/2+y,1/4-z
y,x,-z
-y,-x,-z
1/2+x,1/2+y,1/2+z
1/2-y,x,3/4+z
1/2-x,1/2-y,1/2+z
1/2+y,-x,3/4+z
1/2+x,-y,3/4-z
1/2-x,y,3/4-z
1/2+y,1/2+x,1/2-z
1/2-y,1/2-x,1/2-z
loop_
_atom_site_type_symbol
_atom_site_label
_atom_site_fract_x
_atom_site_fract_y
_atom_site_fract_z
Si Si1 0.417090 0.178003 0.637998
Si Si2 0.682538 0.317463 0.500000
Si Si3 0.622757 0.377244 0.000000
Si Si4 0.995902 0.677802 0.639715
O O1 0.399665 0.250000 0.625000
O O2 0.357192 0.142809 0.750000
O O3 0.437212 0.162046 0.331909
O O4 0.475330 0.160678 0.834702
O O5 0.672390 0.250000 0.625000
O O6 0.637164 0.333100 0.255328
O O7 0.549855 0.364175 0.974592
O O8 0.015603 0.750000 0.625000
#
# Coordination Sequence:
#
# PCOD8306287 Si02
#       4
#    16   8   8  16
#     4  10  21  40  63  88 119 152 191 245 307 366
#     4  12  23  36  54  82 117 151 200 265 311 338
#     4  12  23  38  59  84 116 165 208 239 292 362
#     4  10  21  38  59  85 119 159 201 245 295 354
#
# _framework density 20.990438999999999
#
# number of rings (size 3 to 8) (size 9 to 14) (size 15 to 20)
#    0.000    1.333    0.000    7.000    0.000    2.667 
#    0.000   10.000    0.000    0.000    0.000    0.000 
#    0.000    0.000    0.000    0.000    0.000    0.000 
#
# Total GULP energy -297371.535928 kJ/mol
# GULP energy per Si atom -12390.480664 kJ/mol
# Density = 2.094266 g / cm^3
# Si number density = 20.990439 Si / 1000 Ang^3
#
#
#
# Elastic Constant Matrix: (Units=GPa)
#
#
# Indices 1 2 3 4 5 6 
#
# 1 92.9696 57.8396 30.6434 0.0000 0.0000 0.0000
# 2 57.8396 92.9641 30.6464 0.0000 0.0000 0.0000
# 3 30.6434 30.6464 117.6580 0.0000 0.0000 0.0000
# 4 0.0000 0.0000 0.0000 38.3720 0.0000 0.0000
# 5 0.0000 0.0000 0.0000 0.0000 38.3727 0.0000
# 6 0.0000 0.0000 0.0000 0.0000 0.0000 32.6178
#
#
#
# Elastic Compliance Matrix: (Units=1/GPa)
#
#
# Indices 1 2 3 4 5 6 
#
# 1 0.017941 -0.010526 -0.001931 0.000000 0.000000 0.000000
# 2 -0.010526 0.017943 -0.001932 0.000000 0.000000 0.000000
# 3 -0.001931 -0.001932 0.009505 0.000000 0.000000 0.000000
# 4 0.000000 0.000000 0.000000 0.026061 0.000000 0.000000
# 5 0.000000 0.000000 0.000000 0.000000 0.026060 0.000000
# 6 0.000000 0.000000 0.000000 0.000000 0.000000 0.030658
#
#
# Mechanical properties :
#
#
# Convention : Reuss Voigt Hill
#
# Bulk Modulus (GPa) = 60.20033 60.20562 60.20298
# Shear Modulus (GPa) = 30.77235 34.16997 32.47116
#
# Velocity S-wave (km/s) = 3.83301 4.03908 3.93740
# Velocity P-wave (km/s) = 6.95208 7.10612 7.02952
#
# Compressibility (1/GPa) = 0.01661120
#
# Stress axis : x y z
#
# Youngs Moduli (GPa) = 55.73759 55.73293 105.20347
#
# Poissons Ratio (x) = 0.58664 0.20315
# Poissons Ratio (y) = 0.58669 0.20327
# Poissons Ratio (z) = 0.10763 0.10768
#
# Static dielectric constant tensor:
#      x y z
#    x 3.528260 0.000000 0.000000 
#    y 0.000000 3.528260 0.000000 
#    z 0.000000 0.000000 4.147090 
# 
# 
# High freq. dielectric constant tensor:
#      x y z
#    x 1.806060 0.000000 0.000000 
#    y 0.000000 1.806060 0.000000 
#    z 0.000000 0.000000 1.848500 
# 
# From -- ./inp_files/881.got.cif
#   From: 2010.03.12/outbox.cif.g09.slc.cpg/sg98_1_cif.got.tgz:881.got - 2010.04.08 21:04:41.
