data_PCOD8306667
_publ_section_title
;
Structure prediction by ZEFSAII (Michael W. Deem and Ramdas Pophale) SiO2 
 PCOD8306667
Probable space group: P 4 B M
;
_chemical_formula_sum "Si O2"
_cell_formula_units_Z 56
_cell_length_a 14.488564
_cell_length_b 14.488564
_cell_length_c 12.981913
_cell_angle_alpha 90.000000
_cell_angle_beta 90.000000
_cell_angle_gamma 90.000000
_cell_volume 2725.143532
_symmetry_space_group_name_H-M "P 4 B M"
_symmetry_group_IT_number 100
_symmetry_cell_setting 'tetragonal'
loop_
_space_group_symop_operation_xyz
x,y,z
-y,x,z
-x,-y,z
y,-x,z
1/2-x,1/2+y,z
1/2+x,1/2-y,z
1/2-y,1/2-x,z
1/2+y,1/2+x,z
loop_
_atom_site_type_symbol
_atom_site_label
_atom_site_fract_x
_atom_site_fract_y
_atom_site_fract_z
Si Si1 0.121683 0.228076 0.414250
Si Si2 0.234667 0.585604 0.337839
Si Si3 0.377414 0.727527 0.814913
Si Si4 0.188777 0.837405 0.045933
Si Si5 0.258508 0.025836 0.112367
Si Si6 0.623929 0.585953 0.612773
Si Si7 0.856371 0.496079 0.910767
O O1 0.175172 0.324829 0.401482
O O2 0.171651 0.148563 0.343870
O O3 0.131755 0.193955 0.531952
O O4 0.013033 0.245597 0.392046
O O5 0.147823 0.647823 0.382370
O O6 0.204639 0.559141 0.222106
O O7 0.301072 0.801072 0.778648
O O8 0.387449 0.650636 0.728733
O O9 0.478320 0.774828 0.831997
O O10 0.351401 0.682429 0.923638
O O11 0.243969 0.743969 0.072606
O O12 0.084842 0.833093 0.087491
O O13 0.237718 0.917867 0.110035
O O14 0.328469 0.048398 0.019535
O O15 0.523086 0.626485 0.594326
O O16 0.923042 0.423042 0.853951
O O17 0.908022 0.591979 0.937352
#
# Coordination Sequence:
#
# PCOD8306667 Si02
#       7
#     8   8   8   8   8   8   8
#     4  11  24  45  68  91 126 161 205 267 319 375
#     4  11  24  41  66  96 123 166 214 257 316 372
#     4   9  20  37  57  86 121 155 199 249 302 361
#     4  10  22  38  57  88 126 166 203 242 297 361
#     4  11  21  37  59  86 125 163 203 247 295 357
#     4  11  23  41  65  90 116 157 208 254 311 380
#     4   9  18  34  56  83 120 165 204 241 294 360
#
# _framework density 20.549377
#
# number of rings (size 3 to 8) (size 9 to 14) (size 15 to 20)
#    0.000    1.714    1.429    3.857    4.000    3.143 
#    0.000    2.857    0.000    1.714    0.000    0.000 
#    0.000    0.000    0.000    0.000    0.000    0.000 
#
# Total GULP energy -693893.326643 kJ/mol
# GULP energy per Si atom -12390.952261 kJ/mol
# Density = 2.050261 g / cm^3
# Si number density = 20.549377 Si / 1000 Ang^3
#
#
#
# Elastic Constant Matrix: (Units=GPa)
#
#
# Indices 1 2 3 4 5 6 
#
# 1 81.9099 39.0634 20.6769 0.0000 0.0000 0.0000
# 2 39.0634 81.9099 20.6769 0.0000 0.0000 0.0000
# 3 20.6769 20.6769 72.4373 0.0000 0.0000 0.0000
# 4 0.0000 0.0000 0.0000 26.8021 0.0000 0.0000
# 5 0.0000 0.0000 0.0000 0.0000 26.8021 0.0000
# 6 0.0000 0.0000 0.0000 0.0000 0.0000 23.5514
#
#
#
# Elastic Compliance Matrix: (Units=1/GPa)
#
#
# Indices 1 2 3 4 5 6 
#
# 1 0.016250 -0.007089 -0.002615 0.000000 0.000000 0.000000
# 2 -0.007089 0.016250 -0.002615 0.000000 0.000000 0.000000
# 3 -0.002615 -0.002615 0.015298 0.000000 0.000000 0.000000
# 4 0.000000 0.000000 0.000000 0.037311 0.000000 0.000000
# 5 0.000000 0.000000 0.000000 0.000000 0.037311 0.000000
# 6 0.000000 0.000000 0.000000 0.000000 0.000000 0.042460
#
#
# Mechanical properties :
#
#
# Convention : Reuss Voigt Hill
#
# Bulk Modulus (GPa) = 43.17950 44.12126 43.65038
# Shear Modulus (GPa) = 25.35035 25.82044 25.58539
#
# Velocity S-wave (km/s) = 3.51612 3.54857 3.53238
# Velocity P-wave (km/s) = 6.12718 6.18929 6.15831
#
# Compressibility (1/GPa) = 0.02315914
#
# Stress axis : x y z
#
# Youngs Moduli (GPa) = 61.53994 61.53994 65.36905
#
# Poissons Ratio (x) = 0.43629 0.17092
# Poissons Ratio (y) = 0.43629 0.17092
# Poissons Ratio (z) = 0.16091 0.16091
#
# Static dielectric constant tensor:
#      x y z
#    x 3.829560 0.000000 0.000000 
#    y 0.000000 3.829560 0.000000 
#    z 0.000000 0.000000 3.535570 
# 
# 
# High freq. dielectric constant tensor:
#      x y z
#    x 1.806740 0.000000 0.000000 
#    y 0.000000 1.806740 0.000000 
#    z 0.000000 0.000000 1.789290 
# 
# From -- ./inp_files/1313.got.cif
#   From: 2010.03.12/outbox.cif.g09.slc.cpg/sg100_cif.got.tgz:1313.got - 2010.04.14 01:37:57.
