data_PCOD8306342
_publ_section_title
;
Structure prediction by ZEFSAII (Michael W. Deem and Ramdas Pophale) SiO2 
 PCOD8306342
Probable space group: I 41 2 2
;
_chemical_formula_sum "Si O2"
_cell_formula_units_Z 72
_cell_length_a 21.219865
_cell_length_b 21.219865
_cell_length_c 7.725016
_cell_angle_alpha 90.000000
_cell_angle_beta 90.000000
_cell_angle_gamma 90.000000
_cell_volume 3478.440835
_symmetry_space_group_name_H-M "I 41 2 2"
_symmetry_group_IT_number 98
_symmetry_cell_setting 'tetragonal'
loop_
_space_group_symop_operation_xyz
x,y,z
-y,1/2+x,1/4+z
-x,-y,z
y,1/2-x,1/4+z
x,1/2-y,1/4-z
-x,1/2+y,1/4-z
y,x,-z
-y,-x,-z
1/2+x,1/2+y,1/2+z
1/2-y,x,3/4+z
1/2-x,1/2-y,1/2+z
1/2+y,-x,3/4+z
1/2+x,-y,3/4-z
1/2-x,y,3/4-z
1/2+y,1/2+x,1/2-z
1/2-y,1/2-x,1/2-z
loop_
_atom_site_type_symbol
_atom_site_label
_atom_site_fract_x
_atom_site_fract_y
_atom_site_fract_z
Si Si1 0.691676 0.308325 0.000000
Si Si2 0.619288 0.880713 0.250000
Si Si3 0.422861 0.922861 0.750000
Si Si4 0.053293 0.123072 0.860636
Si Si5 0.692156 0.422541 0.250543
Si Si6 0.958112 0.765369 0.435666
O O1 0.750000 0.303519 0.875000
O O2 0.625623 0.304299 0.905052
O O3 0.605111 0.926417 0.414148
O O4 0.692668 0.893523 0.197969
O O5 0.489336 0.914433 0.846411
O O6 0.413148 0.872180 0.601314
O O7 0.050435 0.197581 0.901546
O O8 0.104879 0.104879 0.000000
O O9 0.750000 0.408777 0.375000
O O10 0.693595 0.492650 0.172920
O O11 0.985702 0.750000 0.625000
#
# Coordination Sequence:
#
# PCOD8306342 Si02
#       6
#     8   8   8  16  16  16
#     4  12  26  41  62  92 132 178 238 296 341 410
#     4  10  24  42  75  96 134 182 230 288 354 423
#     4  12  25  41  64 105 138 174 241 280 347 437
#     4  11  24  45  70 102 141 181 228 289 357 426
#     4  12  24  42  68  93 132 188 230 285 353 416
#     4  10  23  45  68  96 133 178 227 283 352 422
#
# _framework density 20.698929
#
# number of rings (size 3 to 8) (size 9 to 14) (size 15 to 20)
#    0.000    0.889    2.222    4.333    6.222    0.000 
#    0.000    6.667   22.000    0.000    0.000    0.000 
#    0.000    0.000    0.000    0.000    0.000    0.000 
#
# Total GULP energy -446342.328115 kJ/mol
# GULP energy per Si atom -12398.398003 kJ/mol
# Density = 2.065182 g / cm^3
# Si number density = 20.698929 Si / 1000 Ang^3
#
#
#
# Elastic Constant Matrix: (Units=GPa)
#
#
# Indices 1 2 3 4 5 6 
#
# 1 131.0491 77.4127 57.3569 0.0000 0.0000 0.0000
# 2 77.4127 131.0474 57.3562 0.0000 0.0000 0.0000
# 3 57.3569 57.3562 112.1319 0.0000 0.0000 0.0000
# 4 0.0000 0.0000 0.0000 23.2529 0.0000 0.0000
# 5 0.0000 0.0000 0.0000 0.0000 23.4184 0.0000
# 6 0.0000 0.0000 0.0000 0.0000 0.0000 20.0928
#
#
#
# Elastic Compliance Matrix: (Units=1/GPa)
#
#
# Indices 1 2 3 4 5 6 
#
# 1 0.012660 -0.005984 -0.003415 0.000000 0.000000 0.000000
# 2 -0.005984 0.012660 -0.003415 0.000000 0.000000 0.000000
# 3 -0.003415 -0.003415 0.012412 0.000000 0.000000 0.000000
# 4 0.000000 0.000000 0.000000 0.043005 0.000000 0.000000
# 5 0.000000 0.000000 0.000000 0.000000 0.042702 0.000000
# 6 0.000000 0.000000 0.000000 0.000000 0.000000 0.049769
#
#
# Mechanical properties :
#
#
# Convention : Reuss Voigt Hill
#
# Bulk Modulus (GPa) = 82.61532 84.27556 83.44544
# Shear Modulus (GPa) = 24.64621 25.49299 25.06960
#
# Velocity S-wave (km/s) = 3.45440 3.51324 3.48394
# Velocity P-wave (km/s) = 7.47730 7.56706 7.52231
#
# Compressibility (1/GPa) = 0.01210429
#
# Stress axis : x y z
#
# Youngs Moduli (GPa) = 78.98741 78.98669 80.56935
#
# Poissons Ratio (x) = 0.47266 0.27515
# Poissons Ratio (y) = 0.47266 0.27514
# Poissons Ratio (z) = 0.26974 0.26974
#
# Static dielectric constant tensor:
#      x y z
#    x 4.151550 0.000000 0.000000 
#    y 0.000000 4.149340 0.000000 
#    z 0.000000 0.000000 3.992460 
# 
# 
# High freq. dielectric constant tensor:
#      x y z
#    x 1.811640 0.000000 0.000000 
#    y 0.000000 1.811640 0.000000 
#    z 0.000000 0.000000 1.832530 
# 
# From -- ./inp_files/3482.got.cif
#   From: 2010.03.12/outbox.cif.g09.slc.cpg/sg98_2_cif.got.tgz:3482.got - 2010.04.08 21:04:41.
