data_PCOD8306008
_publ_section_title
;
Structure prediction by ZEFSAII (Michael W. Deem and Ramdas Pophale) SiO2 
 PCOD8306008
Probable space group: P 43 21 2
;
_chemical_formula_sum "Si O2"
_cell_formula_units_Z 40
_cell_length_a 14.180816
_cell_length_b 14.180816
_cell_length_c 8.119473
_cell_angle_alpha 90.000000
_cell_angle_beta 90.000000
_cell_angle_gamma 90.000000
_cell_volume 1632.789827
_symmetry_space_group_name_H-M "P 43 21 2"
_symmetry_group_IT_number 96
_symmetry_cell_setting 'tetragonal'
loop_
_space_group_symop_operation_xyz
x,y,z
1/2-y,1/2+x,3/4+z
-x,-y,1/2+z
1/2+y,1/2-x,1/4+z
1/2+x,1/2-y,1/4-z
1/2-x,1/2+y,3/4-z
y,x,-z
-y,-x,1/2-z
loop_
_atom_site_type_symbol
_atom_site_label
_atom_site_fract_x
_atom_site_fract_y
_atom_site_fract_z
Si Si1 0.394982 0.487277 0.854964
Si Si2 0.817447 0.695594 0.391642
Si Si3 0.714811 0.025445 0.550761
Si Si4 0.699687 0.361903 0.582984
Si Si5 0.587303 0.917855 0.087358
O O1 0.487953 0.512048 0.750000
O O2 0.324474 0.443200 0.717984
O O3 0.413030 0.413030 0.000000
O O4 0.352798 0.579997 0.941936
O O5 0.726882 0.726882 0.500000
O O6 0.830274 0.584598 0.350390
O O7 0.805627 0.752304 0.221210
O O8 0.914172 0.715145 0.489200
O O9 0.668994 0.050970 0.724618
O O10 0.637913 0.362088 0.750000
O O11 0.806175 0.399189 0.605996
O O12 0.517871 0.920722 0.244122
#
# Coordination Sequence:
#
# PCOD8306008 Si02
#       5
#     8   8   8   8   8
#     4  12  27  51  80 111 150 203 258 326 392 466
#     4  12  25  49  77 111 157 203 255 323 388 467
#     4  12  23  47  77 109 154 199 253 317 387 461
#     4  12  24  50  74 107 154 197 255 325 383 460
#     4  12  29  46  75 114 152 207 259 322 393 477
#
# _framework density 24.497945999999999
#
# number of rings (size 3 to 8) (size 9 to 14) (size 15 to 20)
#    0.000    0.000    8.000    1.200    2.800    3.200 
#    3.600    0.000    0.000    0.000    0.000    0.000 
#    0.000    0.000    0.000    0.000    0.000    0.000 
#
# Total GULP energy -495617.993295 kJ/mol
# GULP energy per Si atom -12390.449832 kJ/mol
# Density = 2.444219 g / cm^3
# Si number density = 24.497946 Si / 1000 Ang^3
#
#
#
# Elastic Constant Matrix: (Units=GPa)
#
#
# Indices 1 2 3 4 5 6 
#
# 1 89.3942 64.9876 34.6365 0.0000 0.0000 0.0000
# 2 64.9876 89.3932 34.6346 0.0000 0.0000 0.0000
# 3 34.6365 34.6346 83.5093 0.0000 0.0000 0.0000
# 4 0.0000 0.0000 0.0000 53.0615 0.0000 0.0000
# 5 0.0000 0.0000 0.0000 0.0000 53.0612 0.0000
# 6 0.0000 0.0000 0.0000 0.0000 0.0000 32.7262
#
#
#
# Elastic Compliance Matrix: (Units=1/GPa)
#
#
# Indices 1 2 3 4 5 6 
#
# 1 0.024466 -0.016507 -0.003301 0.000000 0.000000 0.000000
# 2 -0.016507 0.024466 -0.003300 0.000000 0.000000 0.000000
# 3 -0.003301 -0.003300 0.014713 0.000000 0.000000 0.000000
# 4 0.000000 0.000000 0.000000 0.018846 0.000000 0.000000
# 5 0.000000 0.000000 0.000000 0.000000 0.018846 0.000000
# 6 0.000000 0.000000 0.000000 0.000000 0.000000 0.030557
#
#
# Mechanical properties :
#
#
# Convention : Reuss Voigt Hill
#
# Bulk Modulus (GPa) = 57.38360 58.97934 58.18147
# Shear Modulus (GPa) = 27.18569 36.30563 31.74566
#
# Velocity S-wave (km/s) = 3.33485 3.85383 3.60370
# Velocity P-wave (km/s) = 6.18894 6.62799 6.41222
#
# Compressibility (1/GPa) = 0.01742658
#
# Stress axis : x y z
#
# Youngs Moduli (GPa) = 40.87298 40.87332 67.96833
#
# Poissons Ratio (x) = 0.67471 0.22439
# Poissons Ratio (y) = 0.67471 0.22432
# Poissons Ratio (z) = 0.13494 0.13489
#
# Static dielectric constant tensor:
#      x y z
#    x 4.597090 0.000000 0.000000 
#    y 0.000000 4.597090 0.000000 
#    z 0.000000 0.000000 4.388300 
# 
# 
# High freq. dielectric constant tensor:
#      x y z
#    x 1.977670 0.000000 0.000000 
#    y 0.000000 1.977670 0.000000 
#    z 0.000000 0.000000 1.978250 
# 
# From -- ./inp_files/1290.got.cif
#   From: 2010.03.12/outbox.cif.g09.slc.cpg/sg96_1_cif.got.tgz:1290.got - 2010.04.08 20:56:49.
