data_PCOD8306014
_publ_section_title
;
Structure prediction by ZEFSAII (Michael W. Deem and Ramdas Pophale) SiO2 
 PCOD8306014
Probable space group: I 4 2 2 
;
_chemical_formula_sum "Si O2"
_cell_formula_units_Z 72
_cell_length_a 14.925243
_cell_length_b 14.925243
_cell_length_c 18.503482
_cell_angle_alpha 90.000000
_cell_angle_beta 90.000000
_cell_angle_gamma 90.000000
_cell_volume 4121.888915
_symmetry_space_group_name_H-M "I 4 2 2 "
_symmetry_group_IT_number 97
_symmetry_cell_setting 'tetragonal'
loop_
_space_group_symop_operation_xyz
x,y,z
-y,x,z
-x,-y,z
y,-x,z
x,-y,-z
-x,y,-z
y,x,-z
-y,-x,-z
1/2+x,1/2+y,1/2+z
1/2-y,1/2+x,1/2+z
1/2-x,1/2-y,1/2+z
1/2+y,1/2-x,1/2+z
1/2+x,1/2-y,1/2-z
1/2-x,1/2+y,1/2-z
1/2+y,1/2+x,1/2-z
1/2-y,1/2-x,1/2-z
loop_
_atom_site_type_symbol
_atom_site_label
_atom_site_fract_x
_atom_site_fract_y
_atom_site_fract_z
Si Si1 0.500000 0.140705 0.500000
Si Si2 0.000000 0.783395 0.500000
Si Si3 0.000000 0.500000 0.379098
Si Si4 0.589774 0.827594 0.818100
Si Si5 0.811190 0.326091 0.969923
Si Si6 0.143130 0.016916 0.655347
O O1 0.586597 0.201208 0.486109
O O2 0.476486 0.083386 0.429330
O O3 0.084495 0.718002 0.486876
O O4 0.018008 0.845673 0.568658
O O5 0.975443 0.587349 0.331488
O O6 0.652715 0.847286 0.750000
O O7 0.655373 0.802420 0.884474
O O8 0.528785 0.738946 0.804406
O O9 0.755209 0.244792 0.000000
O O10 0.077513 0.098671 0.677829
#
# Coordination Sequence:
#
# PCOD8306014 Si02
#       6
#     8   8   8  16  16  16
#     4   9  16  30  50  73  96 124 166 215 262 301
#     4  10  16  26  50  80 106 128 154 196 260 328
#     4   9  17  30  52  74  97 129 166 214 263 307
#     4  10  20  34  49  73 106 138 176 216 258 312
#     4  10  19  31  50  74 101 131 169 214 254 303
#     4  10  19  31  49  74 106 138 166 202 254 318
#
# _framework density 17.46772
#
# number of rings (size 3 to 8) (size 9 to 14) (size 15 to 20)
#    0.000    2.222    0.000    7.667    0.000    0.889 
#    0.000    6.667    0.000    0.333    0.000    0.000 
#    0.000    0.000    0.000    0.000    0.000    0.000 
#
# Total GULP energy -446194.817960 kJ/mol
# GULP energy per Si atom -12394.300499 kJ/mol
# Density = 1.742796 g / cm^3
# Si number density = 17.467720 Si / 1000 Ang^3
#
#
#
# Elastic Constant Matrix: (Units=GPa)
#
#
# Indices 1 2 3 4 5 6 
#
# 1 123.4169 64.8116 39.1889 0.0000 0.0000 0.0000
# 2 64.8116 123.4203 39.1887 0.0000 0.0000 0.0000
# 3 39.1889 39.1887 61.5425 0.0000 0.0000 0.0000
# 4 0.0000 0.0000 0.0000 21.7076 0.0000 0.0000
# 5 0.0000 0.0000 0.0000 0.0000 21.7075 0.0000
# 6 0.0000 0.0000 0.0000 0.0000 0.0000 19.6924
#
#
#
# Elastic Compliance Matrix: (Units=1/GPa)
#
#
# Indices 1 2 3 4 5 6 
#
# 1 0.012146 -0.004917 -0.004604 0.000000 0.000000 0.000000
# 2 -0.004917 0.012146 -0.004603 0.000000 0.000000 0.000000
# 3 -0.004604 -0.004603 0.022112 0.000000 0.000000 0.000000
# 4 0.000000 0.000000 0.000000 0.046067 0.000000 0.000000
# 5 0.000000 0.000000 0.000000 0.000000 0.046067 0.000000
# 6 0.000000 0.000000 0.000000 0.000000 0.000000 0.050781
#
#
# Mechanical properties :
#
#
# Convention : Reuss Voigt Hill
#
# Bulk Modulus (GPa) = 55.07657 66.08424 60.58040
# Shear Modulus (GPa) = 22.35948 23.63421 22.99684
#
# Velocity S-wave (km/s) = 3.58165 3.68234 3.63234
# Velocity P-wave (km/s) = 6.97877 7.48290 7.23523
#
# Compressibility (1/GPa) = 0.01815654
#
# Stress axis : x y z
#
# Youngs Moduli (GPa) = 82.32897 82.33197 45.22460
#
# Poissons Ratio (x) = 0.40480 0.20820
# Poissons Ratio (y) = 0.40478 0.20819
# Poissons Ratio (z) = 0.37902 0.37901
#
# Static dielectric constant tensor:
#      x y z
#    x 4.242800 0.000000 0.000000 
#    y 0.000000 4.241850 0.000000 
#    z 0.000000 0.000000 3.027120 
# 
# 
# High freq. dielectric constant tensor:
#      x y z
#    x 1.667800 0.000000 0.000000 
#    y 0.000000 1.667800 0.000000 
#    z 0.000000 0.000000 1.643350 
# 
# From -- ./inp_files/5640.got.cif
#   From: 2010.03.12/outbox.cif.g09.slc.cpg/sg97_3_cif.got.tgz:5640.got - 2010.04.08 20:59:42.
