data_PCOD8306391
_publ_section_title
;
Structure prediction by ZEFSAII (Michael W. Deem and Ramdas Pophale) SiO2 
 PCOD8306391
Probable space group: I 41 2 2
;
_chemical_formula_sum "Si O2"
_cell_formula_units_Z 60
_cell_length_a 11.118299
_cell_length_b 11.118299
_cell_length_c 21.037376
_cell_angle_alpha 90.000000
_cell_angle_beta 90.000000
_cell_angle_gamma 90.000000
_cell_volume 2600.568319
_symmetry_space_group_name_H-M "I 41 2 2"
_symmetry_group_IT_number 98
_symmetry_cell_setting 'tetragonal'
loop_
_space_group_symop_operation_xyz
x,y,z
-y,1/2+x,1/4+z
-x,-y,z
y,1/2-x,1/4+z
x,1/2-y,1/4-z
-x,1/2+y,1/4-z
y,x,-z
-y,-x,-z
1/2+x,1/2+y,1/2+z
1/2-y,x,3/4+z
1/2-x,1/2-y,1/2+z
1/2+y,-x,3/4+z
1/2+x,-y,3/4-z
1/2-x,y,3/4-z
1/2+y,1/2+x,1/2-z
1/2-y,1/2-x,1/2-z
loop_
_atom_site_type_symbol
_atom_site_label
_atom_site_fract_x
_atom_site_fract_y
_atom_site_fract_z
Si Si1 0.832306 0.254215 0.819934
Si Si2 0.215951 0.250000 0.125000
Si Si3 0.000000 0.500000 0.250000
Si Si4 0.021415 0.357650 0.901978
Si Si5 0.762927 0.499747 0.461283
O O1 0.750000 0.315649 0.875000
O O2 0.800108 0.300108 0.750000
O O3 0.965200 0.296792 0.838963
O O4 0.820440 0.110339 0.827547
O O5 0.311508 0.342994 0.152972
O O6 0.127469 0.196838 0.180570
O O7 0.998718 0.381998 0.205915
O O8 0.000000 0.500000 0.899776
O O9 0.970097 0.306020 0.967643
#
# Coordination Sequence:
#
# PCOD8306391 Si02
#       5
#    16   8   4  16  16
#     4  12  25  46  78 112 148 203 252 316 391 464
#     4  12  28  48  78 114 150 208 254 326 400 452
#     4  12  20  48  72 120 152 176 260 332 370 456
#     4  12  30  51  73 109 160 204 259 315 384 483
#     4  12  25  45  81 115 154 190 260 327 393 456
#
# _framework density 23.07188
#
# number of rings (size 3 to 8) (size 9 to 14) (size 15 to 20)
#    0.000    0.000    8.000    0.000    5.600    0.533 
#    4.800    0.000    0.000    0.000    0.000    0.000 
#    0.000    0.000    0.000    0.000    0.000    0.000 
#
# Total GULP energy -371770.953607 kJ/mol
# GULP energy per Si atom -12392.365120 kJ/mol
# Density = 2.301937 g / cm^3
# Si number density = 23.071880 Si / 1000 Ang^3
#
#
#
# Elastic Constant Matrix: (Units=GPa)
#
#
# Indices 1 2 3 4 5 6 
#
# 1 118.9602 61.7957 47.1985 0.0000 0.0000 0.0000
# 2 61.7957 118.9602 47.1985 0.0000 0.0000 0.0000
# 3 47.1985 47.1985 158.4768 0.0000 0.0000 0.0000
# 4 0.0000 0.0000 0.0000 28.2639 0.0000 0.0000
# 5 0.0000 0.0000 0.0000 0.0000 28.2639 0.0000
# 6 0.0000 0.0000 0.0000 0.0000 0.0000 40.8801
#
#
#
# Elastic Compliance Matrix: (Units=1/GPa)
#
#
# Indices 1 2 3 4 5 6 
#
# 1 0.012022 -0.005471 -0.001951 0.000000 0.000000 0.000000
# 2 -0.005471 0.012022 -0.001951 0.000000 0.000000 0.000000
# 3 -0.001951 -0.001951 0.007472 0.000000 0.000000 0.000000
# 4 0.000000 0.000000 0.000000 0.035381 0.000000 0.000000
# 5 0.000000 0.000000 0.000000 0.000000 0.035381 0.000000
# 6 0.000000 0.000000 0.000000 0.000000 0.000000 0.024462
#
#
# Mechanical properties :
#
#
# Convention : Reuss Voigt Hill
#
# Bulk Modulus (GPa) = 78.30692 78.75363 78.53027
# Shear Modulus (GPa) = 33.39035 35.49520 34.44277
#
# Velocity S-wave (km/s) = 3.80838 3.92658 3.86793
# Velocity P-wave (km/s) = 7.30427 7.40037 7.35248
#
# Compressibility (1/GPa) = 0.01277026
#
# Stress axis : x y z
#
# Youngs Moduli (GPa) = 83.17852 83.17852 133.82815
#
# Poissons Ratio (x) = 0.45507 0.26112
# Poissons Ratio (y) = 0.45507 0.26112
# Poissons Ratio (z) = 0.16229 0.16229
#
# Static dielectric constant tensor:
#      x y z
#    x 4.127920 0.000000 0.000000 
#    y 0.000000 4.127920 0.000000 
#    z 0.000000 0.000000 5.118400 
# 
# 
# High freq. dielectric constant tensor:
#      x y z
#    x 1.906240 0.000000 0.000000 
#    y 0.000000 1.906240 0.000000 
#    z 0.000000 0.000000 1.925030 
# 
# From -- ./inp_files/8577.got.cif
#   From: 2010.03.12/outbox.cif.g09.slc.cpg/sg98_5_cif.got.tgz:8577.got - 2010.04.08 21:04:41.
