data_PCOD8306211
_publ_section_title
;
Structure prediction by ZEFSAII (Michael W. Deem and Ramdas Pophale) SiO2 
 PCOD8306211
Probable space group: I 41 2 2
;
_chemical_formula_sum "Si O2"
_cell_formula_units_Z 96
_cell_length_a 25.446154
_cell_length_b 25.446154
_cell_length_c 9.737954
_cell_angle_alpha 90.000000
_cell_angle_beta 90.000000
_cell_angle_gamma 90.000000
_cell_volume 6305.390979
_symmetry_space_group_name_H-M "I 41 2 2"
_symmetry_group_IT_number 98
_symmetry_cell_setting 'tetragonal'
loop_
_space_group_symop_operation_xyz
x,y,z
-y,1/2+x,1/4+z
-x,-y,z
y,1/2-x,1/4+z
x,1/2-y,1/4-z
-x,1/2+y,1/4-z
y,x,-z
-y,-x,-z
1/2+x,1/2+y,1/2+z
1/2-y,x,3/4+z
1/2-x,1/2-y,1/2+z
1/2+y,-x,3/4+z
1/2+x,-y,3/4-z
1/2-x,y,3/4-z
1/2+y,1/2+x,1/2-z
1/2-y,1/2-x,1/2-z
loop_
_atom_site_type_symbol
_atom_site_label
_atom_site_fract_x
_atom_site_fract_y
_atom_site_fract_z
Si Si1 0.180928 0.309182 0.100992
Si Si2 0.548132 0.039715 0.406094
Si Si3 0.113791 0.030550 0.163655
Si Si4 0.483786 0.108012 0.601875
Si Si5 0.067534 0.209290 0.241335
Si Si6 0.414119 0.277420 0.264930
O O1 0.204764 0.250000 0.125000
O O2 0.166572 0.333429 0.250000
O O3 0.221085 0.350217 0.031238
O O4 0.128455 0.307582 0.012455
O O5 0.560345 0.060345 0.250000
O O6 0.532889 0.084491 0.517465
O O7 0.500000 0.000000 0.396454
O O8 0.600131 0.012479 0.469523
O O9 0.066208 0.070754 0.154599
O O10 0.164972 0.061638 0.214555
O O11 0.120103 0.003443 0.012759
O O12 0.471029 0.160734 0.520071
O O13 0.057358 0.237993 0.382811
O O14 0.053501 0.250000 0.125000
O O15 0.428824 0.250000 0.125000
#
# Coordination Sequence:
#
# PCOD8306211 Si02
#       6
#    16  16  16  16  16  16
#     4  11  20  36  50  59  84 120 166 209 251 290
#     4   9  19  32  48  76  96 114 145 194 254 295
#     4  10  19  34  52  69  93 121 157 202 242 305
#     4  10  18  32  56  68  90 123 160 196 240 303
#     4  11  20  35  53  66  89 127 163 199 253 293
#     4  12  25  36  48  72  93 122 166 214 261 296
#
# _framework density 15.225068
#
# number of rings (size 3 to 8) (size 9 to 14) (size 15 to 20)
#    0.000    1.500    6.667    0.500    2.333    3.333 
#    0.000    0.000    0.000    0.000    0.000    0.000 
#    0.000    0.000    0.000    0.000    0.000    5.000 
#
# Total GULP energy -594800.257643 kJ/mol
# GULP energy per Si atom -12391.672034 kJ/mol
# Density = 1.519041 g / cm^3
# Si number density = 15.225068 Si / 1000 Ang^3
#
#
#
# Elastic Constant Matrix: (Units=GPa)
#
#
# Indices 1 2 3 4 5 6 
#
# 1 52.4702 31.9662 35.4917 0.0000 0.0000 0.0000
# 2 31.9662 52.4701 35.4916 0.0000 0.0000 0.0000
# 3 35.4917 35.4916 124.2576 0.0000 0.0000 0.0000
# 4 0.0000 0.0000 0.0000 21.1070 0.0000 0.0000
# 5 0.0000 0.0000 0.0000 0.0000 21.1072 0.0000
# 6 0.0000 0.0000 0.0000 0.0000 0.0000 24.2337
#
#
#
# Elastic Compliance Matrix: (Units=1/GPa)
#
#
# Indices 1 2 3 4 5 6 
#
# 1 0.032178 -0.016593 -0.004452 0.000000 0.000000 0.000000
# 2 -0.016593 0.032178 -0.004452 0.000000 0.000000 0.000000
# 3 -0.004452 -0.004452 0.010591 0.000000 0.000000 0.000000
# 4 0.000000 0.000000 0.000000 0.047378 0.000000 0.000000
# 5 0.000000 0.000000 0.000000 0.000000 0.047377 0.000000
# 6 0.000000 0.000000 0.000000 0.000000 0.000000 0.041265
#
#
# Mechanical properties :
#
#
# Convention : Reuss Voigt Hill
#
# Bulk Modulus (GPa) = 41.74436 48.34410 45.04423
# Shear Modulus (GPa) = 18.52232 21.70614 20.11423
#
# Velocity S-wave (km/s) = 3.49172 3.77992 3.63867
# Velocity P-wave (km/s) = 6.61315 7.13248 6.87772
#
# Compressibility (1/GPa) = 0.02395533
#
# Stress axis : x y z
#
# Youngs Moduli (GPa) = 31.07683 31.07678 94.42071
#
# Poissons Ratio (x) = 0.51565 0.42034
# Poissons Ratio (y) = 0.51565 0.42034
# Poissons Ratio (z) = 0.13835 0.13835
#
# Static dielectric constant tensor:
#      x y z
#    x 2.790770 0.000000 0.000000 
#    y 0.000000 2.790770 0.000000 
#    z 0.000000 0.000000 3.185620 
# 
# 
# High freq. dielectric constant tensor:
#      x y z
#    x 1.548730 0.000000 0.000000 
#    y 0.000000 1.548730 0.000000 
#    z 0.000000 0.000000 1.601930 
# 
# From -- ./inp_files/3836.got.cif
#   From: 2010.03.12/outbox.cif.g09.slc.cpg/sg98_2_cif.got.tgz:3836.got - 2010.04.08 21:04:41.
