data_PCOD8306108
_publ_section_title
;
Structure prediction by ZEFSAII (Michael W. Deem and Ramdas Pophale) SiO2 
 PCOD8306108
Probable space group: I 4 2 2 
;
_chemical_formula_sum "Si O2"
_cell_formula_units_Z 88
_cell_length_a 14.216912
_cell_length_b 14.216912
_cell_length_c 21.803821
_cell_angle_alpha 90.000000
_cell_angle_beta 90.000000
_cell_angle_gamma 90.000000
_cell_volume 4407.001095
_symmetry_space_group_name_H-M "I 4 2 2 "
_symmetry_group_IT_number 97
_symmetry_cell_setting 'tetragonal'
loop_
_space_group_symop_operation_xyz
x,y,z
-y,x,z
-x,-y,z
y,-x,z
x,-y,-z
-x,y,-z
y,x,-z
-y,-x,-z
1/2+x,1/2+y,1/2+z
1/2-y,1/2+x,1/2+z
1/2-x,1/2-y,1/2+z
1/2+y,1/2-x,1/2+z
1/2+x,1/2-y,1/2-z
1/2-x,1/2+y,1/2-z
1/2+y,1/2+x,1/2-z
1/2-y,1/2-x,1/2-z
loop_
_atom_site_type_symbol
_atom_site_label
_atom_site_fract_x
_atom_site_fract_y
_atom_site_fract_z
Si Si1 0.097855 0.880172 0.237804
Si Si2 0.988461 0.236298 0.432827
Si Si3 0.945629 0.412144 0.064541
Si Si4 0.862328 0.769300 0.885228
Si Si5 0.390767 0.390767 0.500000
Si Si6 0.177719 0.165491 0.635923
O O1 0.118196 0.830422 0.174114
O O2 0.157508 0.832089 0.291562
O O3 0.986959 0.869818 0.243354
O O4 0.943889 0.338728 0.444451
O O5 0.922057 0.162657 0.398057
O O6 0.000000 0.191769 0.500000
O O7 0.082119 0.242831 0.390865
O O8 0.941041 0.313690 0.103042
O O9 0.000000 0.500000 0.098292
O O10 0.000000 0.393648 0.000000
O O11 0.850031 0.841728 0.940415
O O12 0.761203 0.726594 0.879641
O O13 0.500000 0.368423 0.500000
#
# Coordination Sequence:
#
# PCOD8306108 Si02
#       6
#    16  16  16  16   8  16
#     4  11  23  45  67  89 127 179 223 279 345 398
#     4  11  22  38  65  96 129 166 210 266 337 396
#     4  10  21  40  64  96 138 176 212 267 341 412
#     4  11  25  38  67  98 132 172 227 277 338 413
#     4  11  24  42  64 102 136 169 222 286 346 413
#     4  11  24  41  63  94 130 169 222 276 329 407
#
# _framework density 19.968226999999999
#
# number of rings (size 3 to 8) (size 9 to 14) (size 15 to 20)
#    0.000    1.182    3.636    2.727    5.091    4.727 
#    0.000    0.909    0.000    4.364    0.000    0.000 
#    0.000    0.000    0.000    0.000    0.000    0.000 
#
# Total GULP energy -545229.261604 kJ/mol
# GULP energy per Si atom -12391.574127 kJ/mol
# Density = 1.992278 g / cm^3
# Si number density = 19.968227 Si / 1000 Ang^3
#
#
#
# Elastic Constant Matrix: (Units=GPa)
#
#
# Indices 1 2 3 4 5 6 
#
# 1 -126.1508 256.5504 53.7235 0.0000 0.0000 0.0000
# 2 256.5504 -126.1508 53.7235 0.0000 0.0000 0.0000
# 3 53.7235 53.7235 168.1019 0.0000 0.0000 0.0000
# 4 0.0000 0.0000 0.0000 41.9719 0.0000 0.0000
# 5 0.0000 0.0000 0.0000 0.0000 41.9719 0.0000
# 6 0.0000 0.0000 0.0000 0.0000 0.0000 52.5420
#
#
#
# Elastic Compliance Matrix: (Units=1/GPa)
#
#
# Indices 1 2 3 4 5 6 
#
# 1 0.003899 0.006512 -0.003327 0.000000 0.000000 0.000000
# 2 0.006512 0.003899 -0.003327 0.000000 0.000000 0.000000
# 3 -0.003327 -0.003327 0.008075 0.000000 0.000000 0.000000
# 4 0.000000 0.000000 0.000000 0.023825 0.000000 0.000000
# 5 0.000000 0.000000 0.000000 0.000000 0.023825 0.000000
# 6 0.000000 0.000000 0.000000 0.000000 0.000000 0.019032
#
#
# Mechanical properties :
#
#
# Convention : Reuss Voigt Hill
#
# Bulk Modulus (GPa) = 64.15329 71.53277 67.84303
# Shear Modulus (GPa) = 56.79476 -2.58266 27.10605
#
# Velocity S-wave (km/s) = 5.33894 -1.13850 3.68837
# Velocity P-wave (km/s) = 8.37873 5.84575 7.22413
#
# Compressibility (1/GPa) = 0.01558767
#
# Stress axis : x y z
#
# Youngs Moduli (GPa) = 256.50623 256.50622 123.83465
#
# Poissons Ratio (x) = -1.67025 0.41199
# Poissons Ratio (y) = -1.67025 0.41199
# Poissons Ratio (z) = 0.85338 0.85338
#
# Static dielectric constant tensor:
#      x y z
#    x 4.212040 0.000000 0.000000 
#    y 0.000000 4.212040 0.000000 
#    z 0.000000 0.000000 3.604600 
# 
# 
# High freq. dielectric constant tensor:
#      x y z
#    x 1.788250 0.000000 0.000000 
#    y 0.000000 1.788250 0.000000 
#    z 0.000000 0.000000 1.776230 
# 
# From -- ./inp_files/6549.got.cif
#   From: 2010.03.12/outbox.cif.g09.slc.cpg/sg97_4_cif.got.tgz:6549.got - 2010.04.08 20:59:42.
