data_PCOD8306496
_publ_section_title
;
Structure prediction by ZEFSAII (Michael W. Deem and Ramdas Pophale) SiO2 
 PCOD8306496
Probable space group: P 4 M M
;
_chemical_formula_sum "Si O2"
_cell_formula_units_Z 64
_cell_length_a 13.794154
_cell_length_b 13.794154
_cell_length_c 20.416060
_cell_angle_alpha 90.000000
_cell_angle_beta 90.000000
_cell_angle_gamma 90.000000
_cell_volume 3884.741041
_symmetry_space_group_name_H-M "P 4 M M"
_symmetry_group_IT_number 99
_symmetry_cell_setting 'tetragonal'
loop_
_space_group_symop_operation_xyz
x,y,z
-y,x,z
-x,-y,z
y,-x,z
-x,y,z
x,-y,z
-y,-x,z
y,x,z
loop_
_atom_site_type_symbol
_atom_site_label
_atom_site_fract_x
_atom_site_fract_y
_atom_site_fract_z
Si Si1 0.728628 0.886656 0.392420
Si Si2 0.610585 0.111472 0.263715
Si Si3 0.892799 0.385165 0.761372
Si Si4 0.769924 0.386303 0.135344
Si Si5 0.229534 0.614558 0.885661
Si Si6 0.385161 0.891715 0.011427
Si Si7 0.230184 0.387990 0.493275
Si Si8 0.233403 0.389296 0.642223
O O1 0.829703 0.829703 0.398707
O O2 0.679762 0.860560 0.323455
O O3 0.654452 0.855970 0.449369
O O4 0.750930 0.000000 0.399268
O O5 0.500000 0.132073 0.285056
O O6 0.640611 0.175799 0.202138
O O7 0.623496 0.000000 0.243108
O O8 0.901071 0.500000 0.764126
O O9 0.826141 0.349494 0.820881
O O10 0.848606 0.350997 0.691937
O O11 0.000000 0.339156 0.767952
O O12 0.748565 0.500000 0.129337
O O13 0.666985 0.333016 0.133514
O O14 0.835986 0.348189 0.075761
O O15 0.249231 0.500000 0.885978
O O16 0.333381 0.666620 0.888878
O O17 0.165186 0.648494 0.947008
O O18 0.500000 0.899356 0.013084
O O19 0.340261 0.000000 0.010370
O O20 0.249346 0.500000 0.475591
O O21 0.330219 0.330219 0.480186
O O22 0.195237 0.375966 0.568255
O O23 0.259602 0.500000 0.657643
O O24 0.332101 0.332101 0.654221
#
# Coordination Sequence:
#
# PCOD8306496 Si02
#       8
#     8   8   8   8   8   8   8   8
#     4  10  20  33  49  69  93 121 155 196 240 286
#     4   9  17  30  49  71  92 116 149 190 234 275
#     4   9  17  29  44  62  86 117 152 190 227 257
#     4  10  19  30  45  66  94 125 153 182 216 259
#     4  10  19  30  45  66  93 122 150 181 219 269
#     4   9  17  30  47  65  86 114 149 188 225 257
#     4   9  18  31  47  69  96 125 157 191 228 274
#     4   9  17  29  45  67  95 123 150 181 218 266
#
# _framework density 16.474713999999999
#
# number of rings (size 3 to 8) (size 9 to 14) (size 15 to 20)
#    0.000    2.625    0.000    2.250    0.000    4.875 
#    0.000    2.500    0.000    4.500    0.000    1.750 
#    0.000   28.500    0.000    0.000    0.000    0.000 
#
# Total GULP energy -793591.191099 kJ/mol
# GULP energy per Si atom -12399.862361 kJ/mol
# Density = 1.643722 g / cm^3
# Si number density = 16.474714 Si / 1000 Ang^3
#
#
#
# Elastic Constant Matrix: (Units=GPa)
#
#
# Indices 1 2 3 4 5 6 
#
# 1 85.9889 48.9514 55.1399 0.0000 0.0000 -0.0001
# 2 48.9514 85.9889 55.1399 0.0000 0.0000 0.0001
# 3 55.1399 55.1399 120.7697 0.0000 0.0000 0.0000
# 4 0.0000 0.0000 0.0000 22.9066 0.0000 0.0000
# 5 0.0000 0.0000 0.0000 0.0000 22.9066 0.0000
# 6 -0.0001 0.0001 0.0000 0.0000 0.0000 15.2867
#
#
#
# Elastic Compliance Matrix: (Units=1/GPa)
#
#
# Indices 1 2 3 4 5 6 
#
# 1 0.019411 -0.007589 -0.005397 0.000000 0.000000 0.000000
# 2 -0.007589 0.019411 -0.005397 0.000000 0.000000 0.000000
# 3 -0.005397 -0.005397 0.013209 0.000000 0.000000 0.000000
# 4 0.000000 0.000000 0.000000 0.043656 0.000000 0.000000
# 5 0.000000 0.000000 0.000000 0.000000 0.043656 0.000000
# 6 0.000000 0.000000 0.000000 0.000000 0.000000 0.065416
#
#
# Mechanical properties :
#
#
# Convention : Reuss Voigt Hill
#
# Bulk Modulus (GPa) = 65.51997 67.91220 66.71609
# Shear Modulus (GPa) = 20.27468 21.12106 20.69787
#
# Velocity S-wave (km/s) = 3.51187 3.58443 3.54834
# Velocity P-wave (km/s) = 7.50338 7.64476 7.57440
#
# Compressibility (1/GPa) = 0.01526252
#
# Stress axis : x y z
#
# Youngs Moduli (GPa) = 51.51799 51.51799 75.70672
#
# Poissons Ratio (x) = 0.39097 0.40862
# Poissons Ratio (y) = 0.39097 0.40862
# Poissons Ratio (z) = 0.27807 0.27807
#
# Static dielectric constant tensor:
#      x y z
#    x 2.964120 0.000000 0.000000 
#    y 0.000000 2.964120 0.000000 
#    z 0.000000 0.000000 3.327460 
# 
# 
# High freq. dielectric constant tensor:
#      x y z
#    x 1.615640 0.000000 0.000000 
#    y 0.000000 1.615640 0.000000 
#    z 0.000000 0.000000 1.652680 
# 
# From -- ./inp_files/2049.got.cif
#   From: 2010.03.12/outbox.cif.g09.slc.cpg/sg99_cif.got.tgz:2049.got - 2010.04.08 21:11:30.
