data_PCOD8306759
_publ_section_title
;
Structure prediction by ZEFSAII (Michael W. Deem and Ramdas Pophale) SiO2 
 PCOD8306759
Probable space group: P 42 C M
;
_chemical_formula_sum "Si O2"
_cell_formula_units_Z 64
_cell_length_a 14.326146
_cell_length_b 14.326146
_cell_length_c 16.553936
_cell_angle_alpha 90.000000
_cell_angle_beta 90.000000
_cell_angle_gamma 90.000000
_cell_volume 3397.504319
_symmetry_space_group_name_H-M "P 42 C M"
_symmetry_group_IT_number 101
_symmetry_cell_setting 'tetragonal'
loop_
_space_group_symop_operation_xyz
x,y,z
-y,x,1/2+z
-x,-y,z
y,-x,1/2+z
-x,y,1/2+z
x,-y,1/2+z
-y,-x,z
y,x,z
loop_
_atom_site_type_symbol
_atom_site_label
_atom_site_fract_x
_atom_site_fract_y
_atom_site_fract_z
Si Si1 0.273390 0.868671 0.912230
Si Si2 0.101986 0.476048 0.410010
Si Si3 0.335229 0.809918 0.598824
Si Si4 0.101985 0.476048 0.600849
Si Si5 0.196352 0.046644 0.842484
Si Si6 0.953359 0.196350 0.668374
Si Si7 0.131330 0.726609 0.098628
Si Si8 0.335230 0.809916 0.412035
O O1 0.213602 0.786399 0.869477
O O2 0.376189 0.869776 0.871288
O O3 0.215641 0.964995 0.906306
O O4 0.284936 0.845160 0.005429
O O5 0.093552 0.464172 0.505429
O O6 0.178669 0.555673 0.387803
O O7 0.000000 0.500000 0.374390
O O8 0.296862 0.703139 0.609058
O O9 0.444326 0.821332 0.623056
O O10 0.276167 0.876116 0.657349
O O11 0.321722 0.842106 0.505429
O O12 0.130224 0.376189 0.639570
O O13 0.000000 0.500000 0.636469
O O14 0.094792 0.094792 0.855608
O O15 0.276168 0.123886 0.853508
O O16 0.203877 0.000001 0.755429
O O17 0.905210 0.094791 0.655252
O O18 0.035007 0.215639 0.604552
O O19 0.213604 0.786397 0.141381
O O20 0.296864 0.703137 0.401802
#
# Coordination Sequence:
#
# PCOD8306759 Si02
#       8
#     8   8   8   8   8   8   8   8
#     4  10  20  33  50  71  95 127 164 197 232 281
#     4   9  15  28  50  73  96 121 154 201 244 272
#     4   9  17  31  53  75  93 121 163 202 234 279
#     4   9  15  28  50  73  96 121 154 201 244 272
#     4  11  22  34  47  66  97 132 161 193 238 283
#     4  11  22  34  47  66  97 132 161 193 238 283
#     4  10  20  33  50  71  95 127 164 197 232 281
#     4   9  17  31  53  75  93 121 163 202 234 279
#
# _framework density 18.837356
#
# number of rings (size 3 to 8) (size 9 to 14) (size 15 to 20)
#    0.000    2.250    2.500    1.500    0.000    3.250 
#    0.000    3.750    0.000    0.750    0.000    5.250 
#    0.000    0.000    0.000    6.250    0.000    8.000 
#
# Total GULP energy -792931.411839 kJ/mol
# GULP energy per Si atom -12389.553310 kJ/mol
# Density = 1.879448 g / cm^3
# Si number density = 18.837356 Si / 1000 Ang^3
#
#
#
# Elastic Constant Matrix: (Units=GPa)
#
#
# Indices 1 2 3 4 5 6 
#
# 1 143.5157 96.8952 17.9123 0.0000 0.0000 0.0006
# 2 96.8952 143.5157 17.9123 0.0000 0.0000 -0.0006
# 3 17.9123 17.9123 14.3657 0.0000 0.0000 0.0000
# 4 0.0000 0.0000 0.0000 13.0269 0.0000 0.0000
# 5 0.0000 0.0000 0.0000 0.0000 13.0269 0.0000
# 6 0.0006 -0.0006 0.0000 0.0000 0.0000 30.5039
#
#
#
# Elastic Compliance Matrix: (Units=1/GPa)
#
#
# Indices 1 2 3 4 5 6 
#
# 1 0.013279 -0.008171 -0.006370 0.000000 0.000000 0.000000
# 2 -0.008171 0.013279 -0.006370 0.000000 0.000000 0.000000
# 3 -0.006370 -0.006370 0.085496 0.000000 0.000000 0.000000
# 4 0.000000 0.000000 0.000000 0.076764 0.000000 0.000000
# 5 0.000000 0.000000 0.000000 0.000000 0.076764 0.000000
# 6 0.000000 0.000000 0.000000 0.000000 0.000000 0.032783
#
#
# Mechanical properties :
#
#
# Convention : Reuss Voigt Hill
#
# Bulk Modulus (GPa) = 14.23830 62.98185 38.61008
# Shear Modulus (GPa) = 13.75148 22.55670 18.15409
#
# Velocity S-wave (km/s) = 2.70480 3.46417 3.10777
# Velocity P-wave (km/s) = 4.16288 7.03617 5.78089
#
# Compressibility (1/GPa) = 0.07023308
#
# Stress axis : x y z
#
# Youngs Moduli (GPa) = 75.30525 75.30525 11.69651
#
# Poissons Ratio (x) = 0.61528 0.07451
# Poissons Ratio (y) = 0.61528 0.07451
# Poissons Ratio (z) = 0.47970 0.47970
#
# Static dielectric constant tensor:
#      x y z
#    x 3.782040 0.000000 0.000000 
#    y 0.000000 3.782040 0.000000 
#    z 0.000000 0.000000 3.118790 
# 
# 
# High freq. dielectric constant tensor:
#      x y z
#    x 1.723230 0.000000 0.000000 
#    y 0.000000 1.723230 0.000000 
#    z 0.000000 0.000000 1.697910 
# 
# From -- ./inp_files/2273.got.cif
#   From: 2010.03.12/outbox.cif.g09.slc.cpg/sg101_2_cif.got.tgz:2273.got - 2010.04.14 01:38:52.
