data_PCOD8306986
_publ_section_title
;
Structure prediction by ZEFSAII (Michael W. Deem and Ramdas Pophale) SiO2 
 PCOD8306986
Probable space group: P 4 C C
;
_chemical_formula_sum "Si O2"
_cell_formula_units_Z 48
_cell_length_a 20.449149
_cell_length_b 20.449149
_cell_length_c 5.361235
_cell_angle_alpha 90.000000
_cell_angle_beta 90.000000
_cell_angle_gamma 90.000000
_cell_volume 2241.895281
_symmetry_space_group_name_H-M "P 4 C C"
_symmetry_group_IT_number 103
_symmetry_cell_setting 'tetragonal'
loop_
_space_group_symop_operation_xyz
x,y,z
-y,x,z
-x,-y,z
y,-x,z
-x,y,1/2+z
x,-y,1/2+z
-y,-x,1/2+z
y,x,1/2+z
loop_
_atom_site_type_symbol
_atom_site_label
_atom_site_fract_x
_atom_site_fract_y
_atom_site_fract_z
Si Si1 0.018749 0.777464 0.329790
Si Si2 0.364455 0.033910 0.829786
Si Si3 0.481251 0.277463 0.329798
Si Si4 0.168710 0.775951 0.329799
Si Si5 0.724049 0.668709 0.829797
Si Si6 0.466090 0.135545 0.829798
O O1 0.093478 0.754959 0.329796
O O2 0.999999 0.818394 0.579789
O O3 0.969948 0.714502 0.329784
O O4 0.390793 0.109207 0.829786
O O5 0.392203 1.000000 0.579786
O O6 0.500000 0.318394 0.579798
O O7 0.406522 0.254958 0.329799
O O8 0.530052 0.214501 0.329798
O O9 0.182680 0.817319 0.579800
O O10 0.209309 0.709308 0.329797
O O11 0.682680 0.682680 0.579796
O O12 0.500003 0.107796 0.579803
#
# Coordination Sequence:
#
# PCOD8306986 Si02
#       6
#     8   8   8   8   8   8
#     4  10  21  35  55  82 113 146 189 237 292 346
#     4  10  21  34  47  68 103 148 191 227 266 318
#     4  10  21  35  55  82 113 146 189 237 292 346
#     4  10  21  38  59  82 113 157 207 255 298 344
#     4  10  21  38  59  82 113 157 207 255 298 344
#     4  10  21  34  47  68 103 148 191 227 266 318
#
# _framework density 21.410457000000001
#
# number of rings (size 3 to 8) (size 9 to 14) (size 15 to 20)
#    0.000    2.000    0.000    3.000    0.000   12.667 
#    0.000    3.333    0.000    0.000    0.000    0.000 
#    0.000   46.667    0.000    0.000    0.000    0.000 
#
# Total GULP energy -594666.924984 kJ/mol
# GULP energy per Si atom -12388.894271 kJ/mol
# Density = 2.136173 g / cm^3
# Si number density = 21.410457 Si / 1000 Ang^3
#
#
#
# Elastic Constant Matrix: (Units=GPa)
#
#
# Indices 1 2 3 4 5 6 
#
# 1 59.4933 7.2994 29.0494 0.0000 0.0000 0.0000
# 2 7.2994 59.4933 29.0494 0.0000 0.0000 0.0000
# 3 29.0494 29.0494 258.1242 0.0000 0.0000 0.0000
# 4 0.0000 0.0000 0.0000 17.5811 0.0000 0.0000
# 5 0.0000 0.0000 0.0000 0.0000 17.5811 0.0000
# 6 0.0000 0.0000 0.0000 0.0000 0.0000 23.4880
#
#
#
# Elastic Compliance Matrix: (Units=1/GPa)
#
#
# Indices 1 2 3 4 5 6 
#
# 1 0.017878 -0.001281 -0.001868 0.000000 0.000000 0.000000
# 2 -0.001281 0.017878 -0.001868 0.000000 0.000000 0.000000
# 3 -0.001868 -0.001868 0.004294 0.000000 0.000000 0.000000
# 4 0.000000 0.000000 0.000000 0.056879 0.000000 0.000000
# 5 0.000000 0.000000 0.000000 0.000000 0.056879 0.000000
# 6 0.000000 0.000000 0.000000 0.000000 0.000000 0.042575
#
#
# Mechanical properties :
#
#
# Convention : Reuss Voigt Hill
#
# Bulk Modulus (GPa) = 33.31541 56.43415 44.87478
# Shear Modulus (GPa) = 23.10292 32.51089 27.80691
#
# Velocity S-wave (km/s) = 3.28845 3.90097 3.60773
# Velocity P-wave (km/s) = 5.47838 6.83414 6.19347
#
# Compressibility (1/GPa) = 0.03001614
#
# Stress axis : x y z
#
# Youngs Moduli (GPa) = 55.93521 55.93521 232.85599
#
# Poissons Ratio (x) = 0.07168 0.43492
# Poissons Ratio (y) = 0.07168 0.43492
# Poissons Ratio (z) = 0.10447 0.10447
#
# Static dielectric constant tensor:
#      x y z
#    x 3.342450 0.000000 0.000000 
#    y 0.000000 3.342450 0.000000 
#    z 0.000000 0.000000 5.801790 
# 
# 
# High freq. dielectric constant tensor:
#      x y z
#    x 1.788330 0.000000 0.000000 
#    y 0.000000 1.788330 0.000000 
#    z 0.000000 0.000000 1.897680 
# 
# From -- ./inp_files/34.got.cif
#   From: 2010.03.12/outbox.cif.g09.slc.cpg/sg103_cif.got.tgz:34.got - 2010.04.14 01:42:52.
