data_PCOD8306574
_publ_section_title
;
Structure prediction by ZEFSAII (Michael W. Deem and Ramdas Pophale) SiO2 
 PCOD8306574
Probable space group: P 4 M M
;
_chemical_formula_sum "Si O2"
_cell_formula_units_Z 64
_cell_length_a 13.405049
_cell_length_b 13.405049
_cell_length_c 20.603646
_cell_angle_alpha 90.000000
_cell_angle_beta 90.000000
_cell_angle_gamma 90.000000
_cell_volume 3702.379146
_symmetry_space_group_name_H-M "P 4 M M"
_symmetry_group_IT_number 99
_symmetry_cell_setting 'tetragonal'
loop_
_space_group_symop_operation_xyz
x,y,z
-y,x,z
-x,-y,z
y,-x,z
-x,y,z
x,-y,z
-y,-x,z
y,x,z
loop_
_atom_site_type_symbol
_atom_site_label
_atom_site_fract_x
_atom_site_fract_y
_atom_site_fract_z
Si Si1 0.116734 0.718420 0.391560
Si Si2 0.111671 0.382865 0.147377
Si Si3 0.777443 0.616048 0.767014
Si Si4 0.111293 0.618096 0.638691
Si Si5 0.778931 0.382186 0.508338
Si Si6 0.272776 0.885534 0.021808
Si Si7 0.617876 0.777459 0.275953
Si Si8 0.278457 0.115536 0.877045
O O1 0.178052 0.821949 0.392452
O O2 0.143782 0.650052 0.452991
O O3 0.141377 0.653774 0.327972
O O4 0.000000 0.744535 0.392654
O O5 0.108609 0.500000 0.143559
O O6 0.154631 0.345531 0.078271
O O7 0.183000 0.348529 0.205512
O O8 0.000000 0.341254 0.160057
O O9 0.751948 0.500000 0.761892
O O10 0.673185 0.673185 0.774952
O O11 0.833607 0.656491 0.703143
O O12 0.848490 0.635000 0.828711
O O13 0.102896 0.500000 0.640483
O O14 0.173828 0.652127 0.576355
O O15 0.000000 0.664677 0.635768
O O16 0.758880 0.500000 0.504860
O O17 0.673110 0.326891 0.498846
O O18 0.167027 0.832974 0.028037
O O19 0.249442 0.000000 0.032719
O O20 0.319421 0.866395 0.950332
O O21 0.500000 0.760710 0.281849
O O22 0.671629 0.671629 0.288737
O O23 0.177070 0.177070 0.863969
O O24 0.253616 0.000000 0.864883
#
# Coordination Sequence:
#
# PCOD8306574 Si02
#       8
#     8   8   8   8   8   8   8   8
#     4  10  21  36  54  76 100 127 161 200 243 292
#     4   9  17  29  46  68  92 120 156 196 237 281
#     4  10  20  33  49  70  96 126 161 200 242 290
#     4   9  17  30  49  71  94 123 159 198 239 280
#     4  10  20  33  50  74 103 135 171 207 243 285
#     4   9  17  29  45  66  93 122 152 189 232 280
#     4  10  20  33  50  72  97 127 162 199 240 285
#     4   9  18  31  47  69  95 124 159 197 239 287
#
# _framework density 17.286180999999999
#
# number of rings (size 3 to 8) (size 9 to 14) (size 15 to 20)
#    0.000    2.500    0.000    2.250    0.000    4.000 
#    0.000    2.500    0.000    4.500    0.000    1.750 
#    0.000   12.000    0.000    0.000    0.000    0.000 
#
# Total GULP energy -793519.326464 kJ/mol
# GULP energy per Si atom -12398.739476 kJ/mol
# Density = 1.724684 g / cm^3
# Si number density = 17.286181 Si / 1000 Ang^3
#
#
#
# Elastic Constant Matrix: (Units=GPa)
#
#
# Indices 1 2 3 4 5 6 
#
# 1 82.2412 38.1378 44.4507 0.0000 0.0000 -0.0001
# 2 38.1378 82.2412 44.4507 0.0000 0.0000 0.0001
# 3 44.4507 44.4507 137.3477 0.0000 0.0000 0.0000
# 4 0.0000 0.0000 0.0000 25.7218 0.0000 0.0000
# 5 0.0000 0.0000 0.0000 0.0000 25.7218 0.0000
# 6 -0.0001 0.0001 0.0000 0.0000 0.0000 16.2786
#
#
#
# Elastic Compliance Matrix: (Units=1/GPa)
#
#
# Indices 1 2 3 4 5 6 
#
# 1 0.016795 -0.005879 -0.003533 0.000000 0.000000 0.000000
# 2 -0.005879 0.016795 -0.003533 0.000000 0.000000 0.000000
# 3 -0.003533 -0.003533 0.009568 0.000000 0.000000 0.000000
# 4 0.000000 0.000000 0.000000 0.038877 0.000000 0.000000
# 5 0.000000 0.000000 0.000000 0.000000 0.038877 0.000000
# 6 0.000000 0.000000 0.000000 0.000000 0.000000 0.061430
#
#
# Mechanical properties :
#
#
# Convention : Reuss Voigt Hill
#
# Bulk Modulus (GPa) = 57.90931 61.76760 59.83845
# Shear Modulus (GPa) = 23.36576 25.19719 24.28147
#
# Velocity S-wave (km/s) = 3.68054 3.82206 3.75197
# Velocity P-wave (km/s) = 7.18574 7.43555 7.31171
#
# Compressibility (1/GPa) = 0.01726838
#
# Stress axis : x y z
#
# Youngs Moduli (GPa) = 59.54130 59.54130 104.52042
#
# Poissons Ratio (x) = 0.35004 0.36926
# Poissons Ratio (y) = 0.35004 0.36926
# Poissons Ratio (z) = 0.21035 0.21035
#
# Static dielectric constant tensor:
#      x y z
#    x 3.073770 0.000000 0.000000 
#    y 0.000000 3.073770 0.000000 
#    z 0.000000 0.000000 3.574290 
# 
# 
# High freq. dielectric constant tensor:
#      x y z
#    x 1.654790 0.000000 0.000000 
#    y 0.000000 1.654790 0.000000 
#    z 0.000000 0.000000 1.689010 
# 
# From -- ./inp_files/2285.got.cif
#   From: 2010.03.12/outbox.cif.g09.slc.cpg/sg99_cif.got.tgz:2285.got - 2010.04.08 21:11:30.
