data_PCOD8306294
_publ_section_title
;
Structure prediction by ZEFSAII (Michael W. Deem and Ramdas Pophale) SiO2 
 PCOD8306294
Probable space group: I 41 2 2
;
_chemical_formula_sum "Si O2"
_cell_formula_units_Z 64
_cell_length_a 24.650729
_cell_length_b 24.650729
_cell_length_c 4.933179
_cell_angle_alpha 90.000000
_cell_angle_beta 90.000000
_cell_angle_gamma 90.000000
_cell_volume 2997.687857
_symmetry_space_group_name_H-M "I 41 2 2"
_symmetry_group_IT_number 98
_symmetry_cell_setting 'tetragonal'
loop_
_space_group_symop_operation_xyz
x,y,z
-y,1/2+x,1/4+z
-x,-y,z
y,1/2-x,1/4+z
x,1/2-y,1/4-z
-x,1/2+y,1/4-z
y,x,-z
-y,-x,-z
1/2+x,1/2+y,1/2+z
1/2-y,x,3/4+z
1/2-x,1/2-y,1/2+z
1/2+y,-x,3/4+z
1/2+x,-y,3/4-z
1/2-x,y,3/4-z
1/2+y,1/2+x,1/2-z
1/2-y,1/2-x,1/2-z
loop_
_atom_site_type_symbol
_atom_site_label
_atom_site_fract_x
_atom_site_fract_y
_atom_site_fract_z
Si Si1 0.100044 0.690817 0.225344
Si Si2 0.214080 0.130795 0.114567
Si Si3 0.062576 0.385464 0.500221
Si Si4 0.447221 0.857398 0.223336
O O1 0.153390 0.653390 0.250000
O O2 0.072626 0.690100 0.520317
O O3 0.119048 0.750000 0.125000
O O4 0.052539 0.669159 0.021874
O O5 0.250000 0.146854 0.375000
O O6 0.174393 0.080882 0.169818
O O7 0.183825 0.183825 0.000000
O O8 0.250000 0.106814 0.875000
O O9 0.100237 0.399764 0.750000
O O10 0.001764 0.384526 0.611644
O O11 0.072050 0.427951 0.250000
O O12 0.406344 0.906344 0.250000
#
# Coordination Sequence:
#
# PCOD8306294 Si02
#       4
#    16  16  16  16
#     4  10  21  39  61  90 126 162 203 250 297 354
#     4  11  23  40  59  84 117 154 198 249 302 358
#     4  11  23  41  62  88 121 154 197 250 299 357
#     4  10  22  40  62  90 123 158 201 249 299 357
#
# _framework density 21.349786999999999
#
# number of rings (size 3 to 8) (size 9 to 14) (size 15 to 20)
#    0.000    1.500    0.000    6.000    0.000    4.500 
#    0.000    6.250    0.000    0.000    0.000    0.000 
#    0.000    0.000    0.000    0.000    0.000    0.000 
#
# Total GULP energy -396597.422220 kJ/mol
# GULP energy per Si atom -12393.669444 kJ/mol
# Density = 2.130119 g / cm^3
# Si number density = 21.349787 Si / 1000 Ang^3
#
#
#
# Elastic Constant Matrix: (Units=GPa)
#
#
# Indices 1 2 3 4 5 6 
#
# 1 78.7822 51.3704 50.1911 0.0000 0.0000 0.0000
# 2 51.3704 78.7815 50.1864 0.0000 0.0000 0.0000
# 3 50.1911 50.1864 149.6676 0.0000 0.0000 0.0000
# 4 0.0000 0.0000 0.0000 40.6476 0.0000 0.0000
# 5 0.0000 0.0000 0.0000 0.0000 40.6479 0.0000
# 6 0.0000 0.0000 0.0000 0.0000 0.0000 -6.3075
#
#
#
# Elastic Compliance Matrix: (Units=1/GPa)
#
#
# Indices 1 2 3 4 5 6 
#
# 1 0.023423 -0.013059 -0.003476 0.000000 0.000000 0.000000
# 2 -0.013059 0.023422 -0.003475 0.000000 0.000000 0.000000
# 3 -0.003476 -0.003475 0.009012 0.000000 0.000000 0.000000
# 4 0.000000 0.000000 0.000000 0.024602 0.000000 0.000000
# 5 0.000000 0.000000 0.000000 0.000000 0.024602 0.000000
# 6 0.000000 0.000000 0.000000 0.000000 0.000000 -0.158541
#
#
# Mechanical properties :
#
#
# Convention : Reuss Voigt Hill
#
# Bulk Modulus (GPa) = 63.13820 67.85857 65.49838
# Shear Modulus (GPa) = -611.01943 25.36315 -292.82814
#
# Velocity S-wave (km/s) = -16.93564 3.45045 -11.72413
# Velocity P-wave (km/s) = 18.78254 6.90850 12.35023
#
# Compressibility (1/GPa) = 0.01583827
#
# Stress axis : x y z
#
# Youngs Moduli (GPa) = 42.69345 42.69515 110.96054
#
# Poissons Ratio (x) = 0.55755 0.38570
# Poissons Ratio (y) = 0.55753 0.38553
# Poissons Ratio (z) = 0.14840 0.14835
#
# Static dielectric constant tensor:
#      x y z
#    x 3.624720 0.000000 0.000000 
#    y 0.000000 3.624770 0.000000 
#    z 0.000000 0.000000 4.592760 
# 
# 
# High freq. dielectric constant tensor:
#      x y z
#    x 1.826770 0.000000 0.000000 
#    y 0.000000 1.826770 0.000000 
#    z 0.000000 0.000000 1.870080 
# 
# From -- ./inp_files/1369.got.cif
#   From: 2010.03.12/outbox.cif.g09.slc.cpg/sg98_1_cif.got.tgz:1369.got - 2010.04.08 21:04:41.
