data_PCOD8306790
_publ_section_title
;
Structure prediction by ZEFSAII (Michael W. Deem and Ramdas Pophale) SiO2 
 PCOD8306790
Probable space group: P 42 C M
;
_chemical_formula_sum "Si O2"
_cell_formula_units_Z 64
_cell_length_a 11.249794
_cell_length_b 11.249794
_cell_length_c 23.964901
_cell_angle_alpha 90.000000
_cell_angle_beta 90.000000
_cell_angle_gamma 90.000000
_cell_volume 3032.946707
_symmetry_space_group_name_H-M "P 42 C M"
_symmetry_group_IT_number 101
_symmetry_cell_setting 'tetragonal'
loop_
_space_group_symop_operation_xyz
x,y,z
-y,x,1/2+z
-x,-y,z
y,-x,1/2+z
-x,y,1/2+z
x,-y,1/2+z
-y,-x,z
y,x,z
loop_
_atom_site_type_symbol
_atom_site_label
_atom_site_fract_x
_atom_site_fract_y
_atom_site_fract_z
Si Si1 0.742008 0.073625 0.919500
Si Si2 0.242007 0.426374 0.157662
Si Si3 0.458133 0.729583 0.922397
Si Si4 0.650260 0.841520 0.726757
Si Si5 0.695269 0.012255 0.038078
Si Si6 0.770419 0.958134 0.154765
Si Si7 0.341520 0.150260 0.850406
Si Si8 0.487744 0.804732 0.539085
O O1 0.861348 0.138653 0.895476
O O2 0.636183 0.166158 0.922501
O O3 0.690101 0.969645 0.882151
O O4 0.772223 0.029044 0.981960
O O5 0.361347 0.361347 0.181686
O O6 0.190099 0.530355 0.195012
O O7 0.136183 0.333841 0.154661
O O8 0.272222 0.470956 0.095203
O O9 0.395543 0.604458 0.904960
O O10 0.562398 0.764687 0.880055
O O11 0.507420 0.717839 0.985592
O O12 0.718358 0.718358 0.731849
O O13 0.613818 0.886182 0.788581
O O14 0.735314 0.937601 0.697107
O O15 0.608529 0.122811 0.047719
O O16 0.782162 0.007420 0.091571
O O17 0.622813 0.891470 0.029443
O O18 0.895544 0.895544 0.172202
O O19 0.218359 0.218359 0.845313
#
# Coordination Sequence:
#
# PCOD8306790 Si02
#       8
#     8   8   8   8   8   8   8   8
#     4  10  21  38  63  93 121 156 204 257 313 372
#     4  10  21  38  63  93 121 156 204 257 313 372
#     4  10  21  38  63  93 121 156 204 257 313 372
#     4  11  25  43  61  83 121 169 209 256 311 364
#     4   9  16  32  58  89 124 160 191 242 315 378
#     4  10  21  38  63  93 121 156 204 257 313 372
#     4  11  25  43  61  83 121 169 209 256 311 364
#     4   9  16  32  58  89 124 160 191 242 315 378
#
# _framework density 21.101590999999999
#
# number of rings (size 3 to 8) (size 9 to 14) (size 15 to 20)
#    0.000    2.000    2.500    0.750    0.000    6.000 
#    0.000    5.000    0.000    0.000    0.000    0.000 
#    0.000    0.000    0.000    0.000    0.000    0.000 
#
# Total GULP energy -793257.834696 kJ/mol
# GULP energy per Si atom -12394.653667 kJ/mol
# Density = 2.105356 g / cm^3
# Si number density = 21.101591 Si / 1000 Ang^3
#
#
#
# Elastic Constant Matrix: (Units=GPa)
#
#
# Indices 1 2 3 4 5 6 
#
# 1 63.8157 47.9313 43.7246 0.0000 0.0000 0.0004
# 2 47.9313 63.8157 43.7246 0.0000 0.0000 -0.0004
# 3 43.7246 43.7246 144.8418 0.0000 0.0000 0.0000
# 4 0.0000 0.0000 0.0000 -1.9848 0.0000 0.0000
# 5 0.0000 0.0000 0.0000 0.0000 -1.9848 0.0000
# 6 0.0004 -0.0004 0.0000 0.0000 0.0000 29.7786
#
#
#
# Elastic Compliance Matrix: (Units=1/GPa)
#
#
# Indices 1 2 3 4 5 6 
#
# 1 0.037336 -0.025619 -0.003537 0.000000 0.000000 -0.000001
# 2 -0.025619 0.037336 -0.003537 0.000000 0.000000 0.000001
# 3 -0.003537 -0.003537 0.009040 0.000000 0.000000 0.000000
# 4 0.000000 0.000000 0.000000 -0.503817 0.000000 0.000000
# 5 0.000000 0.000000 0.000000 0.000000 -0.503817 0.000000
# 6 -0.000001 0.000001 0.000000 0.000000 0.000000 0.033581
#
#
# Mechanical properties :
#
#
# Convention : Reuss Voigt Hill
#
# Bulk Modulus (GPa) = 54.57040 60.35934 57.46487
# Shear Modulus (GPa) = -6.10614 14.30131 4.09758
#
# Velocity S-wave (km/s) = -1.70293 2.60616 1.39501
# Velocity P-wave (km/s) = 4.69578 6.14185 5.46684
#
# Compressibility (1/GPa) = 0.01832495
#
# Stress axis : x y z
#
# Youngs Moduli (GPa) = 26.78404 26.78404 110.62452
#
# Poissons Ratio (x) = 0.68618 0.39128
# Poissons Ratio (y) = 0.68618 0.39128
# Poissons Ratio (z) = 0.09474 0.09474
#
# Static dielectric constant tensor:
#      x y z
#    x 3.818250 0.000000 0.000000 
#    y 0.000000 3.818250 0.000000 
#    z 0.000000 0.000000 4.065100 
# 
# 
# High freq. dielectric constant tensor:
#      x y z
#    x 1.821460 0.000000 0.000000 
#    y 0.000000 1.821460 0.000000 
#    z 0.000000 0.000000 1.824000 
# 
# From -- ./inp_files/2787.got.cif
#   From: 2010.03.12/outbox.cif.g09.slc.cpg/sg101_2_cif.got.tgz:2787.got - 2010.04.14 01:38:52.
