data_PCOD8306885
_publ_section_title
;
Structure prediction by ZEFSAII (Michael W. Deem and Ramdas Pophale) SiO2 
 PCOD8306885
Probable space group: P 42 N M
;
_chemical_formula_sum "Si O2"
_cell_formula_units_Z 56
_cell_length_a 16.248709
_cell_length_b 16.248709
_cell_length_c 10.907187
_cell_angle_alpha 90.000000
_cell_angle_beta 90.000000
_cell_angle_gamma 90.000000
_cell_volume 2879.721447
_symmetry_space_group_name_H-M "P 42 N M"
_symmetry_group_IT_number 102
_symmetry_cell_setting 'tetragonal'
loop_
_space_group_symop_operation_xyz
x,y,z
1/2-y,1/2+x,1/2+z
-x,-y,z
1/2+y,1/2-x,1/2+z
1/2-x,1/2+y,1/2+z
1/2+x,1/2-y,1/2+z
-y,-x,z
y,x,z
loop_
_atom_site_type_symbol
_atom_site_label
_atom_site_fract_x
_atom_site_fract_y
_atom_site_fract_z
Si Si1 0.613935 0.886066 0.458050
Si Si2 0.941260 0.317190 0.515317
Si Si3 0.178337 0.308118 0.694223
Si Si4 0.197734 0.930902 0.311301
Si Si5 0.817190 0.441261 0.400783
Si Si6 0.069098 0.197733 0.104797
Si Si7 0.678339 0.808119 0.221876
O O1 0.639105 0.828678 0.570732
O O2 0.521043 0.874870 0.410416
O O3 0.671323 0.860899 0.345366
O O4 0.625129 0.978958 0.505685
O O5 0.963185 0.232610 0.442044
O O6 0.865334 0.365335 0.458050
O O7 0.910893 0.296775 0.654520
O O8 0.217841 0.217841 0.668561
O O9 0.240449 0.358893 0.776558
O O10 0.089105 0.296775 0.761579
O O11 0.106282 0.893719 0.328837
O O12 0.194547 0.000001 0.208050
O O13 0.732610 0.463186 0.474055
O O14 0.106280 0.106280 0.087260
O O15 0.141108 0.259550 0.139540
O O16 0.717842 0.717842 0.247542
#
# Coordination Sequence:
#
# PCOD8306885 Si02
#       7
#     8   8   8   8   8   8   8
#     4  12  20  34  56  84 116 150 192 248 290 356
#     4  10  21  35  54  82 115 151 188 235 303 360
#     4  10  21  36  55  79 112 154 194 235 289 357
#     4  10  19  36  56  77 107 143 193 244 289 348
#     4  10  21  35  54  82 115 151 188 235 303 360
#     4  10  19  36  56  77 107 143 193 244 289 348
#     4  10  21  36  55  79 112 154 194 235 289 357
#
# _framework density 19.446325999999999
#
# number of rings (size 3 to 8) (size 9 to 14) (size 15 to 20)
#    0.000    1.714    2.857    2.571    0.000    3.714 
#    0.000    2.857    0.000    0.000    0.000    0.000 
#    0.000    4.571    0.000    0.000    0.000    0.000 
#
# Total GULP energy -693861.409129 kJ/mol
# GULP energy per Si atom -12390.382306 kJ/mol
# Density = 1.940207 g / cm^3
# Si number density = 19.446326 Si / 1000 Ang^3
#
#
#
# Elastic Constant Matrix: (Units=GPa)
#
#
# Indices 1 2 3 4 5 6 
#
# 1 69.6517 53.1758 20.5212 0.0000 0.0000 0.0001
# 2 53.1758 69.6517 20.5212 0.0000 0.0000 -0.0001
# 3 20.5212 20.5212 70.5756 0.0000 0.0000 0.0000
# 4 0.0000 0.0000 0.0000 25.1688 0.0000 0.0000
# 5 0.0000 0.0000 0.0000 0.0000 25.1688 0.0000
# 6 0.0001 -0.0001 0.0000 0.0000 0.0000 32.1866
#
#
#
# Elastic Compliance Matrix: (Units=1/GPa)
#
#
# Indices 1 2 3 4 5 6 
#
# 1 0.034856 -0.025839 -0.002622 0.000000 0.000000 0.000000
# 2 -0.025839 0.034856 -0.002622 0.000000 0.000000 0.000000
# 3 -0.002622 -0.002622 0.015694 0.000000 0.000000 0.000000
# 4 0.000000 0.000000 0.000000 0.039732 0.000000 0.000000
# 5 0.000000 0.000000 0.000000 0.000000 0.039732 0.000000
# 6 0.000000 0.000000 0.000000 0.000000 0.000000 0.031069
#
#
# Mechanical properties :
#
#
# Convention : Reuss Voigt Hill
#
# Bulk Modulus (GPa) = 43.02717 44.25724 43.64220
# Shear Modulus (GPa) = 18.80753 24.21555 21.51154
#
# Velocity S-wave (km/s) = 3.11328 3.53264 3.32957
# Velocity P-wave (km/s) = 5.92431 6.28072 6.10512
#
# Compressibility (1/GPa) = 0.02324113
#
# Stress axis : x y z
#
# Youngs Moduli (GPa) = 28.68933 28.68933 63.71850
#
# Poissons Ratio (x) = 0.74129 0.16707
# Poissons Ratio (y) = 0.74129 0.16707
# Poissons Ratio (z) = 0.07522 0.07522
#
# Static dielectric constant tensor:
#      x y z
#    x 3.480080 0.000000 0.000000 
#    y 0.000000 3.480080 0.000000 
#    z 0.000000 0.000000 3.656500 
# 
# 
# High freq. dielectric constant tensor:
#      x y z
#    x 1.741690 0.000000 0.000000 
#    y 0.000000 1.741690 0.000000 
#    z 0.000000 0.000000 1.758810 
# 
# From -- ./inp_files/1814.got.cif
#   From: 2010.03.12/outbox.cif.g09.slc.cpg/sg102_1_cif.got.tgz:1814.got - 2010.04.14 01:40:42.
