data_PCOD8306807
_publ_section_title
;
Structure prediction by ZEFSAII (Michael W. Deem and Ramdas Pophale) SiO2 
 PCOD8306807
Probable space group: P 42 C M
;
_chemical_formula_sum "Si O2"
_cell_formula_units_Z 48
_cell_length_a 11.584992
_cell_length_b 11.584992
_cell_length_c 17.725990
_cell_angle_alpha 90.000000
_cell_angle_beta 90.000000
_cell_angle_gamma 90.000000
_cell_volume 2379.041273
_symmetry_space_group_name_H-M "P 42 C M"
_symmetry_group_IT_number 101
_symmetry_cell_setting 'tetragonal'
loop_
_space_group_symop_operation_xyz
x,y,z
-y,x,1/2+z
-x,-y,z
y,-x,1/2+z
-x,y,1/2+z
x,-y,1/2+z
-y,-x,z
y,x,z
loop_
_atom_site_type_symbol
_atom_site_label
_atom_site_fract_x
_atom_site_fract_y
_atom_site_fract_z
Si Si1 0.103753 0.575600 0.252430
Si Si2 0.646587 0.165560 0.412202
Si Si3 0.682807 0.497558 0.667924
Si Si4 0.815468 0.996844 0.477874
Si Si5 0.750273 0.562400 0.511045
Si Si6 0.098644 0.719289 0.113153
O O1 0.162336 0.640834 0.321792
O O2 0.197383 0.494938 0.211796
O O3 0.049204 0.658953 0.187943
O O4 0.000000 0.500000 0.285556
O O5 0.733851 0.266150 0.437358
O O6 0.520713 0.196905 0.446442
O O7 0.697147 0.039385 0.437372
O O8 0.608670 0.391331 0.698742
O O9 0.618996 0.618996 0.684343
O O10 0.698184 0.483654 0.577913
O O11 0.868167 0.868167 0.454991
O O12 0.793350 0.997833 0.568843
O O13 0.912529 0.087472 0.457042
O O14 0.650316 0.650316 0.479166
O O15 0.855595 0.633247 0.547798
O O16 0.203909 0.796092 0.143435
#
# Coordination Sequence:
#
# PCOD8306807 Si02
#       6
#     8   8   8   8   8   8
#     4  11  24  37  53  85 118 156 188 229 284 349
#     4  11  23  37  57  82 117 155 189 233 287 347
#     4   9  18  37  62  85 115 153 194 239 286 343
#     4   9  20  38  60  84 107 144 197 245 287 333
#     4   9  19  34  59  91 116 146 189 237 290 346
#     4   9  19  38  61  80 110 147 187 239 287 335
#
# _framework density 20.176196000000001
#
# number of rings (size 3 to 8) (size 9 to 14) (size 15 to 20)
#    0.000    2.333    0.000    3.000    7.000    1.667 
#    0.000    1.667    0.000    4.000    0.000    0.000 
#    0.000    0.000    0.000    0.000    0.000    0.000 
#
# Total GULP energy -594649.742664 kJ/mol
# GULP energy per Si atom -12388.536306 kJ/mol
# Density = 2.013027 g / cm^3
# Si number density = 20.176196 Si / 1000 Ang^3
#
#
#
# Elastic Constant Matrix: (Units=GPa)
#
#
# Indices 1 2 3 4 5 6 
#
# 1 71.5950 28.5002 30.9039 0.0000 0.0000 0.0000
# 2 28.5002 71.5950 30.9039 0.0000 0.0000 0.0000
# 3 30.9039 30.9039 98.8569 0.0000 0.0000 0.0000
# 4 0.0000 0.0000 0.0000 22.2727 0.0000 0.0000
# 5 0.0000 0.0000 0.0000 0.0000 22.2727 0.0000
# 6 0.0000 0.0000 0.0000 0.0000 0.0000 25.0692
#
#
#
# Elastic Compliance Matrix: (Units=1/GPa)
#
#
# Indices 1 2 3 4 5 6 
#
# 1 0.017792 -0.005412 -0.003870 0.000000 0.000000 0.000000
# 2 -0.005412 0.017792 -0.003870 0.000000 0.000000 0.000000
# 3 -0.003870 -0.003870 0.012535 0.000000 0.000000 0.000000
# 4 0.000000 0.000000 0.000000 0.044898 0.000000 0.000000
# 5 0.000000 0.000000 0.000000 0.000000 0.044898 0.000000
# 6 0.000000 0.000000 0.000000 0.000000 0.000000 0.039890
#
#
# Mechanical properties :
#
#
# Convention : Reuss Voigt Hill
#
# Bulk Modulus (GPa) = 45.83985 46.96254 46.40119
# Shear Modulus (GPa) = 23.65375 24.03885 23.84630
#
# Velocity S-wave (km/s) = 3.42769 3.45548 3.44161
# Velocity P-wave (km/s) = 6.19955 6.26476 6.23224
#
# Compressibility (1/GPa) = 0.02181508
#
# Stress axis : x y z
#
# Youngs Moduli (GPa) = 56.20348 56.20348 79.77402
#
# Poissons Ratio (x) = 0.30418 0.30874
# Poissons Ratio (y) = 0.30418 0.30874
# Poissons Ratio (z) = 0.21752 0.21752
#
# Static dielectric constant tensor:
#      x y z
#    x 3.729410 0.000000 0.000000 
#    y 0.000000 3.729410 0.000000 
#    z 0.000000 0.000000 3.376810 
# 
# 
# High freq. dielectric constant tensor:
#      x y z
#    x 1.784460 0.000000 0.000000 
#    y 0.000000 1.784460 0.000000 
#    z 0.000000 0.000000 1.764630 
# 
# From -- ./inp_files/2138.got.cif
#   From: 2010.03.12/outbox.cif.g09.slc.cpg/sg101_2_cif.got.tgz:2138.got - 2010.04.14 01:38:52.
