data_PCOD8306491
_publ_section_title
;
Structure prediction by ZEFSAII (Michael W. Deem and Ramdas Pophale) SiO2 
 PCOD8306491
Probable space group: P 4 M M
;
_chemical_formula_sum "Si O2"
_cell_formula_units_Z 48
_cell_length_a 13.847835
_cell_length_b 13.847835
_cell_length_c 15.207823
_cell_angle_alpha 90.000000
_cell_angle_beta 90.000000
_cell_angle_gamma 90.000000
_cell_volume 2916.290678
_symmetry_space_group_name_H-M "P 4 M M"
_symmetry_group_IT_number 99
_symmetry_cell_setting 'tetragonal'
loop_
_space_group_symop_operation_xyz
x,y,z
-y,x,z
-x,-y,z
y,-x,z
-x,y,z
x,-y,z
-y,-x,z
y,x,z
loop_
_atom_site_type_symbol
_atom_site_label
_atom_site_fract_x
_atom_site_fract_y
_atom_site_fract_z
Si Si1 0.893157 0.614517 0.426210
Si Si2 0.768261 0.386796 0.589910
Si Si3 0.611733 0.231119 0.066870
Si Si4 0.609971 0.888857 0.760825
Si Si5 0.389843 0.234543 0.267162
Si Si6 0.113130 0.729164 0.932956
O O1 0.900471 0.500000 0.431228
O O2 0.829334 0.652346 0.507190
O O3 0.847797 0.647822 0.333366
O O4 0.000000 0.660246 0.432764
O O5 0.747746 0.500000 0.582710
O O6 0.665373 0.334628 0.591429
O O7 0.826046 0.359627 0.677548
O O8 0.500000 0.248963 0.042381
O O9 0.668884 0.331117 0.049161
O O10 0.623285 0.197110 0.167723
O O11 0.655458 0.145019 0.009118
O O12 0.500000 0.866903 0.789734
O O13 0.679960 0.861637 0.840440
O O14 0.621292 0.000000 0.733340
O O15 0.500000 0.261063 0.287875
O O16 0.332364 0.332364 0.284103
O O17 0.169904 0.830097 0.940432
O O18 0.000000 0.750784 0.943108
#
# Coordination Sequence:
#
# PCOD8306491 Si02
#       6
#     8   8   8   8   8   8
#     4   9  17  29  44  62  85 114 149 188 225 257
#     4  10  19  30  45  65  91 121 150 182 220 266
#     4   9  18  31  47  69  96 125 157 191 228 274
#     4   9  17  30  49  71  92 116 148 185 226 272
#     4   9  17  29  45  67  95 123 150 181 218 265
#     4  10  20  33  49  69  93 121 155 196 239 282
#
# _framework density 16.459264999999998
#
# number of rings (size 3 to 8) (size 9 to 14) (size 15 to 20)
#    0.000    2.667    0.000    2.000    0.000    4.333 
#    0.000    3.333    0.000    3.000    0.000    2.333 
#    0.000   14.667    0.000    0.000    0.000    0.167 
#
# Total GULP energy -595199.259664 kJ/mol
# GULP energy per Si atom -12399.984576 kJ/mol
# Density = 1.642180 g / cm^3
# Si number density = 16.459265 Si / 1000 Ang^3
#
#
#
# Elastic Constant Matrix: (Units=GPa)
#
#
# Indices 1 2 3 4 5 6 
#
# 1 90.0475 50.7153 58.1950 0.0000 0.0000 0.0002
# 2 50.7153 90.0475 58.1950 0.0000 0.0000 -0.0002
# 3 58.1950 58.1950 112.9888 0.0000 0.0000 0.0000
# 4 0.0000 0.0000 0.0000 24.7803 0.0000 0.0000
# 5 0.0000 0.0000 0.0000 0.0000 24.7803 0.0000
# 6 0.0002 -0.0002 0.0000 0.0000 0.0000 17.7350
#
#
#
# Elastic Compliance Matrix: (Units=1/GPa)
#
#
# Indices 1 2 3 4 5 6 
#
# 1 0.018899 -0.006525 -0.006373 0.000000 0.000000 0.000000
# 2 -0.006525 0.018899 -0.006373 0.000000 0.000000 0.000000
# 3 -0.006373 -0.006373 0.015415 0.000000 0.000000 0.000000
# 4 0.000000 0.000000 0.000000 0.040355 0.000000 0.000000
# 5 0.000000 0.000000 0.000000 0.000000 0.040355 0.000000
# 6 0.000000 0.000000 0.000000 0.000000 0.000000 0.056386
#
#
# Mechanical properties :
#
#
# Convention : Reuss Voigt Hill
#
# Bulk Modulus (GPa) = 68.16421 69.69939 68.93180
# Shear Modulus (GPa) = 21.39111 21.85769 21.62440
#
# Velocity S-wave (km/s) = 3.60896 3.64811 3.62859
# Velocity P-wave (km/s) = 7.67267 7.75780 7.71535
#
# Compressibility (1/GPa) = 0.01467045
#
# Stress axis : x y z
#
# Youngs Moduli (GPa) = 52.91249 52.91249 64.87008
#
# Poissons Ratio (x) = 0.34527 0.41343
# Poissons Ratio (y) = 0.34527 0.41343
# Poissons Ratio (z) = 0.33722 0.33722
#
# Static dielectric constant tensor:
#      x y z
#    x 2.985540 0.000000 0.000000 
#    y 0.000000 2.985540 0.000000 
#    z 0.000000 0.000000 3.284780 
# 
# 
# High freq. dielectric constant tensor:
#      x y z
#    x 1.618650 0.000000 0.000000 
#    y 0.000000 1.618650 0.000000 
#    z 0.000000 0.000000 1.649350 
# 
# From -- ./inp_files/1407.got.cif
#   From: 2010.03.12/outbox.cif.g09.slc.cpg/sg99_cif.got.tgz:1407.got - 2010.04.08 21:11:30.
