data_PCOD8306246
_publ_section_title
;
Structure prediction by ZEFSAII (Michael W. Deem and Ramdas Pophale) SiO2 
 PCOD8306246
Probable space group: I 41 2 2
;
_chemical_formula_sum "Si O2"
_cell_formula_units_Z 112
_cell_length_a 15.495607
_cell_length_b 15.495607
_cell_length_c 27.117998
_cell_angle_alpha 90.000000
_cell_angle_beta 90.000000
_cell_angle_gamma 90.000000
_cell_volume 6511.406533
_symmetry_space_group_name_H-M "I 41 2 2"
_symmetry_group_IT_number 98
_symmetry_cell_setting 'tetragonal'
loop_
_space_group_symop_operation_xyz
x,y,z
-y,1/2+x,1/4+z
-x,-y,z
y,1/2-x,1/4+z
x,1/2-y,1/4-z
-x,1/2+y,1/4-z
y,x,-z
-y,-x,-z
1/2+x,1/2+y,1/2+z
1/2-y,x,3/4+z
1/2-x,1/2-y,1/2+z
1/2+y,-x,3/4+z
1/2+x,-y,3/4-z
1/2-x,y,3/4-z
1/2+y,1/2+x,1/2-z
1/2-y,1/2-x,1/2-z
loop_
_atom_site_type_symbol
_atom_site_label
_atom_site_fract_x
_atom_site_fract_y
_atom_site_fract_z
Si Si1 0.000000 0.500000 0.439299
Si Si2 0.075477 0.167824 0.158013
Si Si3 0.003866 0.355655 0.519154
Si Si4 0.347124 0.243086 0.864935
Si Si5 0.000000 0.000000 0.652862
Si Si6 0.801127 0.663160 0.509275
Si Si7 0.081458 0.392749 0.826474
Si Si8 0.969842 0.168290 0.511677
O O1 0.908437 0.503120 0.409820
O O2 0.007712 0.587508 0.470718
O O3 0.043346 0.250000 0.125000
O O4 0.155948 0.109954 0.136249
O O5 0.097678 0.205375 0.213098
O O6 0.100448 0.317836 0.523127
O O7 0.979882 0.414855 0.565510
O O8 0.945283 0.269091 0.519178
O O9 0.250000 0.212005 0.875000
O O10 0.377396 0.257397 0.808573
O O11 0.352586 0.326728 0.899135
O O12 0.916306 0.987015 0.618900
O O13 0.754866 0.754866 0.500000
O O14 0.128123 0.480986 0.809063
O O15 0.034211 0.341514 0.783768
O O16 0.881886 0.118115 0.500000
#
# Coordination Sequence:
#
# PCOD8306246 Si02
#       8
#     8  16  16  16   8  16  16  16
#     4   9  20  38  54  82 100 140 192 224 273 336
#     4  10  20  33  55  82 110 140 171 226 280 331
#     4  10  22  34  54  72 108 148 178 222 265 321
#     4  11  20  29  53  81 109 138 168 215 272 329
#     4  11  20  35  48  77 104 141 180 215 267 316
#     4  11  18  31  48  82 112 130 168 208 280 337
#     4  11  20  34  49  77 114 141 171 208 262 320
#     4  11  22  35  50  73 109 149 178 213 254 315
#
# _framework density 17.200585
#
# number of rings (size 3 to 8) (size 9 to 14) (size 15 to 20)
#    0.000    1.429    5.714    3.000    2.000    0.000 
#    0.000    0.000    0.000    5.143    0.000    0.000 
#    0.000    0.000    0.000    0.000    0.000    0.000 
#
# Total GULP energy -693833.843131 kJ/mol
# GULP energy per Si atom -12389.890056 kJ/mol
# Density = 1.716144 g / cm^3
# Si number density = 17.200585 Si / 1000 Ang^3
#
#
#
# Elastic Constant Matrix: (Units=GPa)
#
#
# Indices 1 2 3 4 5 6 
#
# 1 88.4225 43.9294 33.2064 0.0000 0.0000 0.0000
# 2 43.9294 88.4228 33.2062 0.0000 0.0000 0.0000
# 3 33.2064 33.2062 103.0686 0.0000 0.0000 0.0000
# 4 0.0000 0.0000 0.0000 21.7634 0.0000 0.0000
# 5 0.0000 0.0000 0.0000 0.0000 21.7633 0.0000
# 6 0.0000 0.0000 0.0000 0.0000 0.0000 29.2456
#
#
#
# Elastic Compliance Matrix: (Units=1/GPa)
#
#
# Indices 1 2 3 4 5 6 
#
# 1 0.015744 -0.006731 -0.002904 0.000000 0.000000 0.000000
# 2 -0.006731 0.015744 -0.002904 0.000000 0.000000 0.000000
# 3 -0.002904 -0.002904 0.011573 0.000000 0.000000 0.000000
# 4 0.000000 0.000000 0.000000 0.045949 0.000000 0.000000
# 5 0.000000 0.000000 0.000000 0.000000 0.045949 0.000000
# 6 0.000000 0.000000 0.000000 0.000000 0.000000 0.034193
#
#
# Mechanical properties :
#
#
# Convention : Reuss Voigt Hill
#
# Bulk Modulus (GPa) = 55.60540 55.62202 55.61371
# Shear Modulus (GPa) = 24.97206 25.85928 25.41567
#
# Velocity S-wave (km/s) = 3.81440 3.88157 3.84813
# Velocity P-wave (km/s) = 7.19704 7.24543 7.22127
#
# Compressibility (1/GPa) = 0.01798387
#
# Stress axis : x y z
#
# Youngs Moduli (GPa) = 63.51621 63.51654 86.40612
#
# Poissons Ratio (x) = 0.42755 0.25090
# Poissons Ratio (y) = 0.42755 0.25089
# Poissons Ratio (z) = 0.18443 0.18443
#
# Static dielectric constant tensor:
#      x y z
#    x 3.152020 0.000000 0.000000 
#    y 0.000000 3.152030 0.000000 
#    z 0.000000 0.000000 3.530340 
# 
# 
# High freq. dielectric constant tensor:
#      x y z
#    x 1.639430 0.000000 0.000000 
#    y 0.000000 1.639430 0.000000 
#    z 0.000000 0.000000 1.679160 
# 
# From -- ./inp_files/11008.got.cif
#   From: 2010.03.12/outbox.cif.g09.slc.cpg/sg98_6_cif.got.tgz:11008.got - 2010.04.08 21:04:41.
