data_PCOD8306603
_publ_section_title
;
Structure prediction by ZEFSAII (Michael W. Deem and Ramdas Pophale) SiO2 
 PCOD8306603
Probable space group: P 4 M M
;
_chemical_formula_sum "Si O2"
_cell_formula_units_Z 64
_cell_length_a 13.265458
_cell_length_b 13.265458
_cell_length_c 20.814087
_cell_angle_alpha 90.000000
_cell_angle_beta 90.000000
_cell_angle_gamma 90.000000
_cell_volume 3662.704343
_symmetry_space_group_name_H-M "P 4 M M"
_symmetry_group_IT_number 99
_symmetry_cell_setting 'tetragonal'
loop_
_space_group_symop_operation_xyz
x,y,z
-y,x,z
-x,-y,z
y,-x,z
-x,y,z
x,-y,z
-y,-x,z
y,x,z
loop_
_atom_site_type_symbol
_atom_site_label
_atom_site_fract_x
_atom_site_fract_y
_atom_site_fract_z
Si Si1 0.117985 0.283793 0.628270
Si Si2 0.384014 0.217715 0.023267
Si Si3 0.882014 0.283794 0.907191
Si Si4 0.719978 0.882057 0.396849
Si Si5 0.384014 0.782285 0.512194
Si Si6 0.119542 0.387654 0.267730
Si Si7 0.117943 0.719979 0.138612
Si Si8 0.113545 0.725660 0.767730
O O1 0.178765 0.178765 0.619276
O O2 0.158748 0.365935 0.578620
O O3 0.136813 0.331813 0.700233
O O4 0.000000 0.261910 0.615882
O O5 0.500000 0.248740 0.027935
O O6 0.319959 0.319959 0.027271
O O7 0.356466 0.142717 0.081181
O O8 0.365936 0.158749 0.956840
O O9 0.821235 0.178766 0.916184
O O10 0.863187 0.331813 0.835228
O O11 0.000000 0.261912 0.919578
O O12 0.825742 0.825742 0.407695
O O13 0.643533 0.857283 0.454280
O O14 0.670745 0.843145 0.330763
O O15 0.743501 0.000000 0.395370
O O16 0.500000 0.751259 0.507527
O O17 0.319959 0.680042 0.508190
O O18 0.166338 0.500000 0.267730
O O19 0.156855 0.329255 0.204698
O O20 0.000000 0.395029 0.267730
O O21 0.174258 0.825743 0.127766
O O22 0.000000 0.743501 0.140092
O O23 0.169917 0.830084 0.767730
O O24 0.000000 0.760925 0.767731
#
# Coordination Sequence:
#
# PCOD8306603 Si02
#       8
#     8   8   8   8   8   8   8   8
#     4   9  17  29  46  70  99 130 162 194 231 278
#     4  10  21  36  53  72  93 120 157 201 248 295
#     4   9  17  29  46  70  99 130 162 194 231 278
#     4  10  20  33  50  74 103 134 167 200 237 286
#     4  10  21  36  53  72  93 120 157 201 248 295
#     4   9  17  30  49  71  95 127 167 207 242 273
#     4  10  20  33  50  74 103 134 167 200 237 286
#     4   8  14  25  41  63  94 128 160 194 229 270
#
# _framework density 17.473427000000001
#
# number of rings (size 3 to 8) (size 9 to 14) (size 15 to 20)
#    0.000    2.625    0.000    1.875    0.000    3.875 
#    0.000    3.125    0.000    9.000    0.000    0.000 
#    0.000   14.000    0.000    0.000    0.000    0.000 
#
# Total GULP energy -793211.620042 kJ/mol
# GULP energy per Si atom -12393.931563 kJ/mol
# Density = 1.743366 g / cm^3
# Si number density = 17.473427 Si / 1000 Ang^3
#
#
#
# Elastic Constant Matrix: (Units=GPa)
#
#
# Indices 1 2 3 4 5 6 
#
# 1 88.2030 31.5317 40.3583 0.0000 0.0000 0.0000
# 2 31.5317 88.2030 40.3583 0.0000 0.0000 0.0000
# 3 40.3583 40.3583 149.4529 0.0000 0.0000 0.0000
# 4 0.0000 0.0000 0.0000 17.6339 0.0000 0.0000
# 5 0.0000 0.0000 0.0000 0.0000 17.6339 0.0000
# 6 0.0000 0.0000 0.0000 0.0000 0.0000 9.4667
#
#
#
# Elastic Compliance Matrix: (Units=1/GPa)
#
#
# Indices 1 2 3 4 5 6 
#
# 1 0.013928 -0.003718 -0.002757 0.000000 0.000000 0.000000
# 2 -0.003718 0.013928 -0.002757 0.000000 0.000000 0.000000
# 3 -0.002757 -0.002757 0.008180 0.000000 0.000000 0.000000
# 4 0.000000 0.000000 0.000000 0.056709 0.000000 0.000000
# 5 0.000000 0.000000 0.000000 0.000000 0.056709 0.000000
# 6 0.000000 0.000000 0.000000 0.000000 0.000000 0.105633
#
#
# Mechanical properties :
#
#
# Convention : Reuss Voigt Hill
#
# Bulk Modulus (GPa) = 56.90783 61.15059 59.02921
# Shear Modulus (GPa) = 17.89489 23.18760 20.54124
#
# Velocity S-wave (km/s) = 3.20366 3.64678 3.43238
# Velocity P-wave (km/s) = 6.80614 7.26666 7.04016
#
# Compressibility (1/GPa) = 0.01757227
#
# Stress axis : x y z
#
# Youngs Moduli (GPa) = 71.79744 71.79744 122.24625
#
# Poissons Ratio (x) = 0.26691 0.33706
# Poissons Ratio (y) = 0.26691 0.33706
# Poissons Ratio (z) = 0.19796 0.19796
#
# Static dielectric constant tensor:
#      x y z
#    x 2.992720 0.000000 0.000000 
#    y 0.000000 2.992720 0.000000 
#    z 0.000000 0.000000 3.793430 
# 
# 
# High freq. dielectric constant tensor:
#      x y z
#    x 1.653540 0.000000 0.000000 
#    y 0.000000 1.653540 0.000000 
#    z 0.000000 0.000000 1.704690 
# 
# From -- ./inp_files/2274.got.cif
#   From: 2010.03.12/outbox.cif.g09.slc.cpg/sg99_cif.got.tgz:2274.got - 2010.04.08 21:11:30.
