data_PCOD8306369
_publ_section_title
;
Structure prediction by ZEFSAII (Michael W. Deem and Ramdas Pophale) SiO2 
 PCOD8306369
Probable space group: I 41 2 2
;
_chemical_formula_sum "Si O2"
_cell_formula_units_Z 72
_cell_length_a 18.033201
_cell_length_b 18.033201
_cell_length_c 12.886387
_cell_angle_alpha 90.000000
_cell_angle_beta 90.000000
_cell_angle_gamma 90.000000
_cell_volume 4190.605866
_symmetry_space_group_name_H-M "I 41 2 2"
_symmetry_group_IT_number 98
_symmetry_cell_setting 'tetragonal'
loop_
_space_group_symop_operation_xyz
x,y,z
-y,1/2+x,1/4+z
-x,-y,z
y,1/2-x,1/4+z
x,1/2-y,1/4-z
-x,1/2+y,1/4-z
y,x,-z
-y,-x,-z
1/2+x,1/2+y,1/2+z
1/2-y,x,3/4+z
1/2-x,1/2-y,1/2+z
1/2+y,-x,3/4+z
1/2+x,-y,3/4-z
1/2-x,y,3/4-z
1/2+y,1/2+x,1/2-z
1/2-y,1/2-x,1/2-z
loop_
_atom_site_type_symbol
_atom_site_label
_atom_site_fract_x
_atom_site_fract_y
_atom_site_fract_z
Si Si1 0.720290 0.892433 0.199186
Si Si2 0.630557 0.664707 0.616018
Si Si3 0.008044 0.750000 0.625000
Si Si4 0.091431 0.953302 0.384525
Si Si5 0.455196 0.391699 0.796816
O O1 0.659883 0.840118 0.250000
O O2 0.788952 0.841367 0.168090
O O3 0.748567 0.956645 0.274233
O O4 0.685524 0.931377 0.098699
O O5 0.605464 0.750000 0.625000
O O6 0.633225 0.633225 0.500000
O O7 0.571376 0.612950 0.677577
O O8 0.062693 0.678827 0.622546
O O9 0.063225 0.936776 0.500000
O O10 0.044462 0.903145 0.303378
O O11 0.081261 0.040384 0.360135
#
# Coordination Sequence:
#
# PCOD8306369 Si02
#       5
#    16  16   8  16  16
#     4  12  20  33  52  87 126 157 188 229 289 362
#     4  12  24  35  52  82 124 166 204 233 280 360
#     4  12  22  34  62  92 112 154 192 238 314 350
#     4  11  21  36  59  89 116 145 193 251 297 346
#     4  11  21  36  54  79 121 156 191 243 292 333
#
# _framework density 17.181287000000001
#
# number of rings (size 3 to 8) (size 9 to 14) (size 15 to 20)
#    0.000    0.444    8.889    2.000    1.556    0.000 
#    0.000    2.222    0.000    0.000    2.889    0.000 
#    0.000    0.000    0.000    0.000    0.000    0.000 
#
# Total GULP energy -446391.206220 kJ/mol
# GULP energy per Si atom -12399.755728 kJ/mol
# Density = 1.714218 g / cm^3
# Si number density = 17.181287 Si / 1000 Ang^3
#
#
#
# Elastic Constant Matrix: (Units=GPa)
#
#
# Indices 1 2 3 4 5 6 
#
# 1 95.9734 39.9053 42.8557 0.0000 0.0000 0.0000
# 2 39.9053 95.9722 42.8558 0.0000 0.0000 0.0000
# 3 42.8557 42.8558 125.6893 0.0000 0.0000 0.0000
# 4 0.0000 0.0000 0.0000 28.6640 0.0000 0.0000
# 5 0.0000 0.0000 0.0000 0.0000 28.6636 0.0000
# 6 0.0000 0.0000 0.0000 0.0000 0.0000 26.9463
#
#
#
# Elastic Compliance Matrix: (Units=1/GPa)
#
#
# Indices 1 2 3 4 5 6 
#
# 1 0.013606 -0.004230 -0.003197 0.000000 0.000000 0.000000
# 2 -0.004230 0.013606 -0.003197 0.000000 0.000000 0.000000
# 3 -0.003197 -0.003197 0.010136 0.000000 0.000000 0.000000
# 4 0.000000 0.000000 0.000000 0.034887 0.000000 0.000000
# 5 0.000000 0.000000 0.000000 0.000000 0.034887 0.000000
# 6 0.000000 0.000000 0.000000 0.000000 0.000000 0.037111
#
#
# Mechanical properties :
#
#
# Convention : Reuss Voigt Hill
#
# Bulk Modulus (GPa) = 62.10890 63.20761 62.65825
# Shear Modulus (GPa) = 29.26585 29.65597 29.46091
#
# Velocity S-wave (km/s) = 4.13165 4.15910 4.14540
# Velocity P-wave (km/s) = 7.68039 7.74162 7.71106
#
# Compressibility (1/GPa) = 0.01610075
#
# Stress axis : x y z
#
# Youngs Moduli (GPa) = 73.49803 73.49686 98.65600
#
# Poissons Ratio (x) = 0.31087 0.31539
# Poissons Ratio (y) = 0.31088 0.31540
# Poissons Ratio (z) = 0.23497 0.23497
#
# Static dielectric constant tensor:
#      x y z
#    x 3.300460 0.000000 0.000000 
#    y 0.000000 3.300450 0.000000 
#    z 0.000000 0.000000 3.246880 
# 
# 
# High freq. dielectric constant tensor:
#      x y z
#    x 1.646510 0.000000 0.000000 
#    y 0.000000 1.646510 0.000000 
#    z 0.000000 0.000000 1.663250 
# 
# From -- ./inp_files/4980.got.cif
#   From: 2010.03.12/outbox.cif.g09.slc.cpg/sg98_3_cif.got.tgz:4980.got - 2010.04.08 21:04:41.
