data_PCOD8306223
_publ_section_title
;
Structure prediction by ZEFSAII (Michael W. Deem and Ramdas Pophale) SiO2 
 PCOD8306223
Probable space group: I 41 2 2
;
_chemical_formula_sum "Si O2"
_cell_formula_units_Z 64
_cell_length_a 31.701661
_cell_length_b 31.701661
_cell_length_c 5.164578
_cell_angle_alpha 90.000000
_cell_angle_beta 90.000000
_cell_angle_gamma 90.000000
_cell_volume 5190.376669
_symmetry_space_group_name_H-M "I 41 2 2"
_symmetry_group_IT_number 98
_symmetry_cell_setting 'tetragonal'
loop_
_space_group_symop_operation_xyz
x,y,z
-y,1/2+x,1/4+z
-x,-y,z
y,1/2-x,1/4+z
x,1/2-y,1/4-z
-x,1/2+y,1/4-z
y,x,-z
-y,-x,-z
1/2+x,1/2+y,1/2+z
1/2-y,x,3/4+z
1/2-x,1/2-y,1/2+z
1/2+y,-x,3/4+z
1/2+x,-y,3/4-z
1/2-x,y,3/4-z
1/2+y,1/2+x,1/2-z
1/2-y,1/2-x,1/2-z
loop_
_atom_site_type_symbol
_atom_site_label
_atom_site_fract_x
_atom_site_fract_y
_atom_site_fract_z
Si Si1 0.430777 0.498092 0.498146
Si Si2 0.634833 0.294753 0.518791
Si Si3 0.032638 0.896214 0.505557
Si Si4 0.900254 0.170497 0.511137
O O1 0.451952 0.451952 0.500000
O O2 0.466757 0.533244 0.500000
O O3 0.400042 0.504562 0.253018
O O4 0.402625 0.501545 0.754033
O O5 0.651944 0.250000 0.625000
O O6 0.675316 0.324685 0.500000
O O7 0.610576 0.296262 0.242017
O O8 0.600254 0.307716 0.731898
O O9 0.068822 0.931179 0.500000
O O10 0.053609 0.850161 0.541492
O O11 0.865640 0.134361 0.500000
#
# Coordination Sequence:
#
# PCOD8306223 Si02
#       4
#    16  16  16  16
#     4   9  15  21  30  46  67  87 105 123 141 159
#     4  10  19  31  43  55  67  79  96 124 162 206
#     4   9  15  23  34  47  63  84 105 123 141 165
#     4   9  17  28  41  53  65  81 102 123 147 184
#
# _framework density 12.330512000000001
#
# number of rings (size 3 to 8) (size 9 to 14) (size 15 to 20)
#    0.000    2.750    0.000    3.000    0.000    9.000 
#    0.000    3.750    0.000    0.000    0.000    0.000 
#    0.000    0.000    0.000    0.000    0.000    0.000 
#
# Total GULP energy -396514.886668 kJ/mol
# GULP energy per Si atom -12391.090208 kJ/mol
# Density = 1.230245 g / cm^3
# Si number density = 12.330512 Si / 1000 Ang^3
#
#
#
# Elastic Constant Matrix: (Units=GPa)
#
#
# Indices 1 2 3 4 5 6 
#
# 1 34.6936 33.7436 29.7138 0.0000 0.0000 0.0000
# 2 33.7436 34.6956 29.7129 0.0000 0.0000 0.0000
# 3 29.7138 29.7129 112.9870 0.0000 0.0000 0.0000
# 4 0.0000 0.0000 0.0000 16.9536 0.0000 0.0000
# 5 0.0000 0.0000 0.0000 0.0000 16.9526 0.0000
# 6 0.0000 0.0000 0.0000 0.0000 0.0000 12.6160
#
#
#
# Elastic Compliance Matrix: (Units=1/GPa)
#
#
# Indices 1 2 3 4 5 6 
#
# 1 0.535258 -0.516298 -0.004990 0.000000 0.000000 0.000000
# 2 -0.516298 0.535209 -0.004969 0.000000 0.000000 0.000000
# 3 -0.004990 -0.004969 0.011470 0.000000 0.000000 0.000000
# 4 0.000000 0.000000 0.000000 0.058985 0.000000 0.000000
# 5 0.000000 0.000000 0.000000 0.000000 0.058988 0.000000
# 6 0.000000 0.000000 0.000000 0.000000 0.000000 0.079264
#
#
# Mechanical properties :
#
#
# Convention : Reuss Voigt Hill
#
# Bulk Modulus (GPa) = 33.98786 40.96857 37.47821
# Shear Modulus (GPa) = 2.13539 15.25152 8.69345
#
# Velocity S-wave (km/s) = 1.31740 3.52076 2.65813
# Velocity P-wave (km/s) = 5.47156 7.05870 6.31519
#
# Compressibility (1/GPa) = 0.02942227
#
# Stress axis : x y z
#
# Youngs Moduli (GPa) = 1.86826 1.86843 87.18614
#
# Poissons Ratio (x) = 0.96467 0.43508
# Poissons Ratio (y) = 0.96458 0.43324
# Poissons Ratio (z) = 0.00932 0.00928
#
# Static dielectric constant tensor:
#      x y z
#    x 2.326990 0.000000 0.000000 
#    y 0.000000 2.326990 0.000000 
#    z 0.000000 0.000000 2.852550 
# 
# 
# High freq. dielectric constant tensor:
#      x y z
#    x 1.422610 0.000000 0.000000 
#    y 0.000000 1.422610 0.000000 
#    z 0.000000 0.000000 1.495200 
# 
# From -- ./inp_files/1527.got.cif
#   From: 2010.03.12/outbox.cif.g09.slc.cpg/sg98_1_cif.got.tgz:1527.got - 2010.04.08 21:04:41.
