data_PCOD8306047
_publ_section_title
;
Structure prediction by ZEFSAII (Michael W. Deem and Ramdas Pophale) SiO2 
 PCOD8306047
Probable space group: I 4 2 2 
;
_chemical_formula_sum "Si O2"
_cell_formula_units_Z 36
_cell_length_a 13.189563
_cell_length_b 13.189563
_cell_length_c 9.623039
_cell_angle_alpha 90.000000
_cell_angle_beta 90.000000
_cell_angle_gamma 90.000000
_cell_volume 1674.067862
_symmetry_space_group_name_H-M "I 4 2 2 "
_symmetry_group_IT_number 97
_symmetry_cell_setting 'tetragonal'
loop_
_space_group_symop_operation_xyz
x,y,z
-y,x,z
-x,-y,z
y,-x,z
x,-y,-z
-x,y,-z
y,x,-z
-y,-x,-z
1/2+x,1/2+y,1/2+z
1/2-y,1/2+x,1/2+z
1/2-x,1/2-y,1/2+z
1/2+y,1/2-x,1/2+z
1/2+x,1/2-y,1/2-z
1/2-x,1/2+y,1/2-z
1/2+y,1/2+x,1/2-z
1/2-y,1/2-x,1/2-z
loop_
_atom_site_type_symbol
_atom_site_label
_atom_site_fract_x
_atom_site_fract_y
_atom_site_fract_z
Si Si1 0.500000 0.000000 0.250000
Si Si2 0.901461 0.239476 0.420863
Si Si3 0.792381 0.439373 0.374764
O O1 0.501112 0.897216 0.340759
O O2 0.860249 0.139752 0.500000
O O3 0.816262 0.325897 0.425060
O O4 0.932950 0.218662 0.259774
O O5 0.000000 0.280007 0.500000
O O6 0.737293 0.500000 0.500000
#
# Coordination Sequence:
#
# PCOD8306047 Si02
#       3
#     4  16  16
#     4   8  14  28  52  86 118 136 168 224 294 350
#     4  10  22  37  54  80 115 153 188 230 282 340
#     4  10  19  33  59  87 111 142 184 240 297 345
#
# _framework density 21.504507
#
# number of rings (size 3 to 8) (size 9 to 14) (size 15 to 20)
#    0.000    2.667    0.000    6.000    0.000    7.556 
#    0.000    0.000    0.000    0.000    0.000    3.111 
#    0.000    0.000    0.000    0.000    0.000    0.000 
#
# Total GULP energy -223054.224223 kJ/mol
# GULP energy per Si atom -12391.901346 kJ/mol
# Density = 2.145556 g / cm^3
# Si number density = 21.504507 Si / 1000 Ang^3
#
#
#
# Elastic Constant Matrix: (Units=GPa)
#
#
# Indices 1 2 3 4 5 6 
#
# 1 42.0652 23.2369 54.4796 0.0000 0.0000 0.0000
# 2 23.2369 42.0695 54.4813 0.0000 0.0000 0.0000
# 3 54.4796 54.4813 214.4533 0.0000 0.0000 0.0000
# 4 0.0000 0.0000 0.0000 37.0488 0.0000 0.0000
# 5 0.0000 0.0000 0.0000 0.0000 37.0491 0.0000
# 6 0.0000 0.0000 0.0000 0.0000 0.0000 12.2373
#
#
#
# Elastic Compliance Matrix: (Units=1/GPa)
#
#
# Indices 1 2 3 4 5 6 
#
# 1 0.039845 -0.013263 -0.006753 0.000000 0.000000 0.000000
# 2 -0.013263 0.039840 -0.006752 0.000000 0.000000 0.000000
# 3 -0.006753 -0.006752 0.008094 0.000000 0.000000 0.000000
# 4 0.000000 0.000000 0.000000 0.026991 0.000000 0.000000
# 5 0.000000 0.000000 0.000000 0.000000 0.026991 0.000000
# 6 0.000000 0.000000 0.000000 0.000000 0.000000 0.081718
#
#
# Mechanical properties :
#
#
# Convention : Reuss Voigt Hill
#
# Bulk Modulus (GPa) = 29.20299 62.55372 45.87835
# Shear Modulus (GPa) = 17.33533 28.35970 22.84752
#
# Velocity S-wave (km/s) = 2.84231 3.63544 3.26306
# Velocity P-wave (km/s) = 4.93772 6.83913 5.96468
#
# Compressibility (1/GPa) = 0.03424307
#
# Stress axis : x y z
#
# Youngs Moduli (GPa) = 25.09744 25.10045 123.55201
#
# Poissons Ratio (x) = 0.33291 0.83430
# Poissons Ratio (y) = 0.33287 0.83421
# Poissons Ratio (z) = 0.16947 0.16948
#
# Static dielectric constant tensor:
#      x y z
#    x 3.412200 0.000000 0.000000 
#    y 0.000000 3.412200 0.000000 
#    z 0.000000 0.000000 4.224560 
# 
# 
# High freq. dielectric constant tensor:
#      x y z
#    x 1.801430 0.000000 0.000000 
#    y 0.000000 1.801430 0.000000 
#    z 0.000000 0.000000 1.867600 
# 
# From -- ./inp_files/1334.got.cif
#   From: 2010.03.12/outbox.cif.g09.slc.cpg/sg97_1_cif.got.tgz:1334.got - 2010.04.08 20:59:42.
