data_PCOD8306490
_publ_section_title
;
Structure prediction by ZEFSAII (Michael W. Deem and Ramdas Pophale) SiO2 
 PCOD8306490
Probable space group: P 4 M M
;
_chemical_formula_sum "Si O2"
_cell_formula_units_Z 64
_cell_length_a 13.748160
_cell_length_b 13.748160
_cell_length_c 20.489416
_cell_angle_alpha 90.000000
_cell_angle_beta 90.000000
_cell_angle_gamma 90.000000
_cell_volume 3872.743517
_symmetry_space_group_name_H-M "P 4 M M"
_symmetry_group_IT_number 99
_symmetry_cell_setting 'tetragonal'
loop_
_space_group_symop_operation_xyz
x,y,z
-y,x,z
-x,-y,z
y,-x,z
-x,y,z
x,-y,z
-y,-x,z
y,x,z
loop_
_atom_site_type_symbol
_atom_site_label
_atom_site_fract_x
_atom_site_fract_y
_atom_site_fract_z
Si Si1 0.269274 0.888188 0.970780
Si Si2 0.614392 0.773429 0.616795
Si Si3 0.388069 0.110332 0.487385
Si Si4 0.111598 0.731534 0.117033
Si Si5 0.886025 0.730867 0.359990
Si Si6 0.273557 0.115356 0.724445
Si Si7 0.392393 0.115526 0.237472
Si Si8 0.607560 0.885012 0.850376
O O1 0.169636 0.830365 0.960931
O O2 0.349610 0.849843 0.919797
O O3 0.243038 0.000000 0.956698
O O4 0.311357 0.874016 0.044001
O O5 0.500000 0.754170 0.627549
O O6 0.671700 0.671700 0.624925
O O7 0.636491 0.817017 0.545844
O O8 0.651461 0.853020 0.668367
O O9 0.500000 0.117575 0.466654
O O10 0.326295 0.142597 0.425199
O O11 0.362536 0.000000 0.508821
O O12 0.168074 0.831927 0.125900
O O13 0.150710 0.653227 0.168926
O O14 0.000000 0.757292 0.131030
O O15 0.835317 0.835317 0.360819
O O16 0.846354 0.670363 0.298233
O O17 0.000000 0.749987 0.354813
O O18 0.170474 0.170474 0.716575
O O19 0.321487 0.148507 0.792573
O O20 0.254538 0.000000 0.720388
O O21 0.500000 0.160962 0.242384
O O22 0.398574 0.000000 0.239919
O O23 0.500000 0.838522 0.841779
O O24 0.597943 0.000000 0.849041
#
# Coordination Sequence:
#
# PCOD8306490 Si02
#       8
#     8   8   8   8   8   8   8   8
#     4   9  17  28  42  62  89 120 152 185 222 266
#     4  10  20  33  50  72  97 126 161 200 240 281
#     4   9  17  30  49  71  93 119 153 192 233 275
#     4   9  17  28  42  62  89 119 149 181 218 265
#     4  10  19  30  45  65  91 121 150 181 217 261
#     4  10  20  33  50  72  97 125 157 192 232 281
#     4   9  17  29  44  61  82 110 145 184 224 262
#     4   9  17  29  45  64  87 117 152 188 226 267
#
# _framework density 16.525752000000001
#
# number of rings (size 3 to 8) (size 9 to 14) (size 15 to 20)
#    0.000    2.625    0.000    2.250    0.000    3.875 
#    0.000    3.750    0.000    4.500    0.000    1.750 
#    0.000   13.250    0.000   11.000    0.000    1.000 
#
# Total GULP energy -793505.218981 kJ/mol
# GULP energy per Si atom -12398.519047 kJ/mol
# Density = 1.648814 g / cm^3
# Si number density = 16.525752 Si / 1000 Ang^3
#
#
#
# Elastic Constant Matrix: (Units=GPa)
#
#
# Indices 1 2 3 4 5 6 
#
# 1 80.2597 43.8792 49.8035 0.0000 0.0000 0.0005
# 2 43.8792 80.2597 49.8035 0.0000 0.0000 -0.0005
# 3 49.8035 49.8035 120.9630 0.0000 0.0000 0.0000
# 4 0.0000 0.0000 0.0000 23.9385 0.0000 0.0000
# 5 0.0000 0.0000 0.0000 0.0000 23.9385 0.0000
# 6 0.0005 -0.0005 0.0000 0.0000 0.0000 13.7457
#
#
#
# Elastic Compliance Matrix: (Units=1/GPa)
#
#
# Indices 1 2 3 4 5 6 
#
# 1 0.019758 -0.007729 -0.004953 0.000000 0.000000 -0.000001
# 2 -0.007729 0.019758 -0.004953 0.000000 0.000000 0.000001
# 3 -0.004953 -0.004953 0.012345 0.000000 0.000000 0.000000
# 4 0.000000 0.000000 0.000000 0.041774 0.000000 0.000000
# 5 0.000000 0.000000 0.000000 0.000000 0.041774 0.000000
# 6 -0.000001 0.000001 0.000000 0.000000 0.000000 0.072750
#
#
# Mechanical properties :
#
#
# Convention : Reuss Voigt Hill
#
# Bulk Modulus (GPa) = 60.26601 63.16165 61.71383
# Shear Modulus (GPa) = 20.08355 21.52430 20.80392
#
# Velocity S-wave (km/s) = 3.48988 3.61289 3.55192
# Velocity P-wave (km/s) = 7.26541 7.46372 7.36523
#
# Compressibility (1/GPa) = 0.01659310
#
# Stress axis : x y z
#
# Youngs Moduli (GPa) = 50.61124 50.61124 81.00148
#
# Poissons Ratio (x) = 0.39117 0.40119
# Poissons Ratio (y) = 0.39117 0.40119
# Poissons Ratio (z) = 0.25067 0.25067
#
# Static dielectric constant tensor:
#      x y z
#    x 2.967740 0.000000 0.000000 
#    y 0.000000 2.967740 0.000000 
#    z 0.000000 0.000000 3.362790 
# 
# 
# High freq. dielectric constant tensor:
#      x y z
#    x 1.616400 0.000000 0.000000 
#    y 0.000000 1.616400 0.000000 
#    z 0.000000 0.000000 1.656100 
# 
# From -- ./inp_files/2087.got.cif
#   From: 2010.03.12/outbox.cif.g09.slc.cpg/sg99_cif.got.tgz:2087.got - 2010.04.08 21:11:30.
