data_PCOD8306015
_publ_section_title
;
Structure prediction by ZEFSAII (Michael W. Deem and Ramdas Pophale) SiO2 
 PCOD8306015
Probable space group: I 4 2 2 
;
_chemical_formula_sum "Si O2"
_cell_formula_units_Z 88
_cell_length_a 15.726236
_cell_length_b 15.726236
_cell_length_c 20.629878
_cell_angle_alpha 90.000000
_cell_angle_beta 90.000000
_cell_angle_gamma 90.000000
_cell_volume 5102.067936
_symmetry_space_group_name_H-M "I 4 2 2 "
_symmetry_group_IT_number 97
_symmetry_cell_setting 'tetragonal'
loop_
_space_group_symop_operation_xyz
x,y,z
-y,x,z
-x,-y,z
y,-x,z
x,-y,-z
-x,y,-z
y,x,-z
-y,-x,-z
1/2+x,1/2+y,1/2+z
1/2-y,1/2+x,1/2+z
1/2-x,1/2-y,1/2+z
1/2+y,1/2-x,1/2+z
1/2+x,1/2-y,1/2-z
1/2-x,1/2+y,1/2-z
1/2+y,1/2+x,1/2-z
1/2-y,1/2-x,1/2-z
loop_
_atom_site_type_symbol
_atom_site_label
_atom_site_fract_x
_atom_site_fract_y
_atom_site_fract_z
Si Si1 0.220430 0.072088 0.876577
Si Si2 0.639393 0.502674 0.107408
Si Si3 0.000000 0.279238 0.500000
Si Si4 0.820959 0.902811 0.056546
Si Si5 0.517851 0.638348 0.745358
Si Si6 0.092675 0.347891 0.019044
O O1 0.162013 0.156380 0.884611
O O2 0.218655 0.038128 0.802148
O O3 0.314824 0.090196 0.905404
O O4 0.176705 0.999502 0.920674
O O5 0.581661 0.584749 0.092961
O O6 0.721804 0.495342 0.063571
O O7 0.671450 0.512898 0.181199
O O8 0.081498 0.337313 0.491192
O O9 0.890037 0.890037 0.000000
O O10 0.728219 0.880003 0.028483
O O11 0.428450 0.593102 0.731382
O O12 0.000000 0.384265 0.000000
#
# Coordination Sequence:
#
# PCOD8306015 Si02
#       6
#    16  16   8  16  16  16
#     4  10  16  28  47  75 111 143 161 197 251 310
#     4   9  20  35  54  82 108 125 167 224 270 322
#     4  12  21  37  60  68  88 140 188 227 281 310
#     4   9  17  27  42  74 111 138 164 197 238 306
#     4   9  16  29  49  78 112 147 167 187 249 333
#     4   9  21  35  49  73 101 133 179 229 259 301
#
# _framework density 17.247907000000001
#
# number of rings (size 3 to 8) (size 9 to 14) (size 15 to 20)
#    0.000    2.545    1.818    3.545    0.000    5.455 
#    0.000    5.455    0.000    4.364    0.000    5.091 
#    0.000    0.000    0.000    0.000    0.000    0.000 
#
# Total GULP energy -545104.709573 kJ/mol
# GULP energy per Si atom -12388.743399 kJ/mol
# Density = 1.720865 g / cm^3
# Si number density = 17.247907 Si / 1000 Ang^3
#
#
#
# Elastic Constant Matrix: (Units=GPa)
#
#
# Indices 1 2 3 4 5 6 
#
# 1 85.6693 61.3285 57.6197 0.0000 0.0000 0.0000
# 2 61.3285 85.6693 57.6197 0.0000 0.0000 0.0000
# 3 57.6197 57.6197 125.5705 0.0000 0.0000 0.0000
# 4 0.0000 0.0000 0.0000 51.3179 0.0000 0.0000
# 5 0.0000 0.0000 0.0000 0.0000 51.3179 0.0000
# 6 0.0000 0.0000 0.0000 0.0000 0.0000 20.8331
#
#
#
# Elastic Compliance Matrix: (Units=1/GPa)
#
#
# Indices 1 2 3 4 5 6 
#
# 1 0.025854 -0.015229 -0.004875 0.000000 0.000000 0.000000
# 2 -0.015229 0.025854 -0.004875 0.000000 0.000000 0.000000
# 3 -0.004875 -0.004875 0.012438 0.000000 0.000000 0.000000
# 4 0.000000 0.000000 0.000000 0.019486 0.000000 0.000000
# 5 0.000000 0.000000 0.000000 0.000000 0.019486 0.000000
# 6 0.000000 0.000000 0.000000 0.000000 0.000000 0.048000
#
#
# Mechanical properties :
#
#
# Convention : Reuss Voigt Hill
#
# Bulk Modulus (GPa) = 70.49104 72.22721 71.35913
# Shear Modulus (GPa) = 24.29451 32.71653 28.50552
#
# Velocity S-wave (km/s) = 3.75713 4.36000 4.06975
# Velocity P-wave (km/s) = 7.73172 8.20445 7.97159
#
# Compressibility (1/GPa) = 0.01418620
#
# Stress axis : x y z
#
# Youngs Moduli (GPa) = 38.67866 38.67866 80.39930
#
# Poissons Ratio (x) = 0.58904 0.39198
# Poissons Ratio (y) = 0.58904 0.39198
# Poissons Ratio (z) = 0.18857 0.18857
#
# Static dielectric constant tensor:
#      x y z
#    x 3.023560 0.000000 0.000000 
#    y 0.000000 3.023560 0.000000 
#    z 0.000000 0.000000 3.348720 
# 
# 
# High freq. dielectric constant tensor:
#      x y z
#    x 1.643920 0.000000 0.000000 
#    y 0.000000 1.643920 0.000000 
#    z 0.000000 0.000000 1.663520 
# 
# From -- ./inp_files/6522.got.cif
#   From: 2010.03.12/outbox.cif.g09.slc.cpg/sg97_4_cif.got.tgz:6522.got - 2010.04.08 20:59:42.
