data_PCOD8306301
_publ_section_title
;
Structure prediction by ZEFSAII (Michael W. Deem and Ramdas Pophale) SiO2 
 PCOD8306301
Probable space group: I 41 2 2
;
_chemical_formula_sum "Si O2"
_cell_formula_units_Z 116
_cell_length_a 17.836468
_cell_length_b 17.836468
_cell_length_c 18.882836
_cell_angle_alpha 90.000000
_cell_angle_beta 90.000000
_cell_angle_gamma 90.000000
_cell_volume 6007.377717
_symmetry_space_group_name_H-M "I 41 2 2"
_symmetry_group_IT_number 98
_symmetry_cell_setting 'tetragonal'
loop_
_space_group_symop_operation_xyz
x,y,z
-y,1/2+x,1/4+z
-x,-y,z
y,1/2-x,1/4+z
x,1/2-y,1/4-z
-x,1/2+y,1/4-z
y,x,-z
-y,-x,-z
1/2+x,1/2+y,1/2+z
1/2-y,x,3/4+z
1/2-x,1/2-y,1/2+z
1/2+y,-x,3/4+z
1/2+x,-y,3/4-z
1/2-x,y,3/4-z
1/2+y,1/2+x,1/2-z
1/2-y,1/2-x,1/2-z
loop_
_atom_site_type_symbol
_atom_site_label
_atom_site_fract_x
_atom_site_fract_y
_atom_site_fract_z
Si Si1 0.305219 0.007548 0.939244
Si Si2 0.818581 0.870832 0.323263
Si Si3 0.218198 0.390655 0.205832
Si Si4 0.121185 0.987095 0.387789
Si Si5 0.128621 0.770791 0.551146
Si Si6 0.000000 0.500000 0.750000
Si Si7 0.085801 0.886547 0.752163
Si Si8 0.365842 0.427941 0.681211
O O1 0.250000 0.987494 0.875000
O O2 0.371616 0.064685 0.920518
O O3 0.251221 0.042796 0.997688
O O4 0.344233 0.931927 0.966726
O O5 0.750000 0.882141 0.375000
O O6 0.843537 0.785221 0.329260
O O7 0.808223 0.893942 0.240377
O O8 0.877126 0.931283 0.351951
O O9 0.164903 0.335098 0.250000
O O10 0.174591 0.432151 0.143679
O O11 0.196707 0.950488 0.419363
O O12 0.085431 0.932165 0.327985
O O13 0.073180 0.999107 0.455296
O O14 0.173664 0.750000 0.625000
O O15 0.172303 0.827698 0.500000
O O16 0.110014 0.700076 0.502016
O O17 0.011488 0.894529 0.800606
#
# Coordination Sequence:
#
# PCOD8306301 Si02
#       8
#    16  16  16  16  16   4  16  16
#     4  11  23  42  66  91 125 162 218 277 315 384
#     4  10  23  36  60  93 132 166 213 259 307 396
#     4  11  24  40  63  93 126 173 214 259 334 387
#     4  10  22  40  57  97 132 169 208 265 315 388
#     4  10  21  41  65  91 134 169 211 268 332 382
#     4  12  24  32  64  92 136 164 222 248 306 394
#     4  10  23  41  67  89 125 171 216 264 332 385
#     4  10  22  41  64  88 129 173 209 258 330 381
#
# _framework density 19.30959
#
# number of rings (size 3 to 8) (size 9 to 14) (size 15 to 20)
#    0.000    1.655    2.069    2.483    9.655    4.966 
#    0.000    0.690    0.000    0.000    0.000    0.000 
#    0.000    0.000    0.000    0.000    0.000    0.000 
#
# Total GULP energy -718667.276482 kJ/mol
# GULP energy per Si atom -12390.815112 kJ/mol
# Density = 1.926564 g / cm^3
# Si number density = 19.309590 Si / 1000 Ang^3
#
#
#
# Elastic Constant Matrix: (Units=GPa)
#
#
# Indices 1 2 3 4 5 6 
#
# 1 108.1419 55.6174 67.5477 0.0000 0.0000 0.0000
# 2 55.6174 108.1408 67.5472 0.0000 0.0000 0.0000
# 3 67.5477 67.5472 123.1585 0.0000 0.0000 0.0000
# 4 0.0000 0.0000 0.0000 34.2392 0.0000 0.0000
# 5 0.0000 0.0000 0.0000 0.0000 34.2390 0.0000
# 6 0.0000 0.0000 0.0000 0.0000 0.0000 27.0188
#
#
#
# Elastic Compliance Matrix: (Units=1/GPa)
#
#
# Indices 1 2 3 4 5 6 
#
# 1 0.015096 -0.003943 -0.006117 0.000000 0.000000 0.000000
# 2 -0.003943 0.015096 -0.006117 0.000000 0.000000 0.000000
# 3 -0.006117 -0.006117 0.014829 0.000000 0.000000 0.000000
# 4 0.000000 0.000000 0.000000 0.029206 0.000000 0.000000
# 5 0.000000 0.000000 0.000000 0.000000 0.029206 0.000000
# 6 0.000000 0.000000 0.000000 0.000000 0.000000 0.037011
#
#
# Mechanical properties :
#
#
# Convention : Reuss Voigt Hill
#
# Bulk Modulus (GPa) = 78.94265 80.09621 79.51943
# Shear Modulus (GPa) = 28.24527 29.01466 28.62997
#
# Velocity S-wave (km/s) = 3.82875 3.88055 3.85474
# Velocity P-wave (km/s) = 7.77928 7.85164 7.81554
#
# Compressibility (1/GPa) = 0.01266742
#
# Stress axis : x y z
#
# Youngs Moduli (GPa) = 66.24381 66.24330 67.43431
#
# Poissons Ratio (x) = 0.26121 0.41248
# Poissons Ratio (y) = 0.26121 0.41248
# Poissons Ratio (z) = 0.40520 0.40520
#
# Static dielectric constant tensor:
#      x y z
#    x 3.535640 0.000000 0.000000 
#    y 0.000000 3.535630 0.000000 
#    z 0.000000 0.000000 3.743570 
# 
# 
# High freq. dielectric constant tensor:
#      x y z
#    x 1.745610 0.000000 0.000000 
#    y 0.000000 1.745610 0.000000 
#    z 0.000000 0.000000 1.763420 
# 
# From -- ./inp_files/7838.got.cif
#   From: 2010.03.12/outbox.cif.g09.slc.cpg/sg98_4_cif.got.tgz:7838.got - 2010.04.08 21:04:41.
