data_PCOD8306801
_publ_section_title
;
Structure prediction by ZEFSAII (Michael W. Deem and Ramdas Pophale) SiO2 
 PCOD8306801
Probable space group: P 42 C M
;
_chemical_formula_sum "Si O2"
_cell_formula_units_Z 48
_cell_length_a 10.185758
_cell_length_b 10.185758
_cell_length_c 22.593936
_cell_angle_alpha 90.000000
_cell_angle_beta 90.000000
_cell_angle_gamma 90.000000
_cell_volume 2344.113314
_symmetry_space_group_name_H-M "P 42 C M"
_symmetry_group_IT_number 101
_symmetry_cell_setting 'tetragonal'
loop_
_space_group_symop_operation_xyz
x,y,z
-y,x,1/2+z
-x,-y,z
y,-x,1/2+z
-x,y,1/2+z
x,-y,1/2+z
-y,-x,z
y,x,z
loop_
_atom_site_type_symbol
_atom_site_label
_atom_site_fract_x
_atom_site_fract_y
_atom_site_fract_z
Si Si1 0.353075 0.146817 0.314250
Si Si2 0.859846 0.640048 0.631431
Si Si3 0.289776 0.505965 0.541497
Si Si4 0.604527 0.895550 0.444012
Si Si5 0.138683 0.638579 0.267426
Si Si6 0.210246 0.005973 0.041560
O O1 0.249947 0.249947 0.285143
O O2 0.335413 0.164368 0.384658
O O3 0.501441 0.185708 0.295697
O O4 0.314264 0.998469 0.295639
O O5 0.749936 0.749936 0.625811
O O6 0.809031 0.509357 0.597327
O O7 0.891416 0.608373 0.698834
O O8 0.990577 0.690963 0.597391
O O9 0.344934 0.655066 0.538226
O O10 0.409947 0.409947 0.551044
O O11 0.216830 0.468386 0.481121
O O12 0.716770 0.968542 0.481175
O O13 0.500000 0.000000 0.421500
O O14 0.250076 0.749924 0.276837
O O15 0.090097 0.909904 0.051049
O O16 0.155068 0.155068 0.038340
#
# Coordination Sequence:
#
# PCOD8306801 Si02
#       6
#     8   8   8   8   8   8
#     4  11  24  43  63  88 122 163 212 260 306 359
#     4   8  16  34  59  84 118 154 189 242 302 355
#     4   9  18  34  59  88 114 148 194 240 295 363
#     4  11  21  38  56  78 121 161 191 244 305 356
#     4  10  22  42  65  90 122 163 210 257 306 362
#     4   9  18  34  59  88 114 148 194 240 295 363
#
# _framework density 20.476828000000001
#
# number of rings (size 3 to 8) (size 9 to 14) (size 15 to 20)
#    0.000    2.333    1.667    2.500    0.000    4.000 
#   12.000    3.333    0.000    0.000    0.000    0.000 
#    0.000    0.000    0.000    0.000    0.000    0.000 
#
# Total GULP energy -594885.073859 kJ/mol
# GULP energy per Si atom -12393.439039 kJ/mol
# Density = 2.043022 g / cm^3
# Si number density = 20.476828 Si / 1000 Ang^3
#
#
#
# Elastic Constant Matrix: (Units=GPa)
#
#
# Indices 1 2 3 4 5 6 
#
# 1 110.5819 77.9049 43.9950 0.0000 0.0000 0.0001
# 2 77.9049 110.5819 43.9950 0.0000 0.0000 -0.0001
# 3 43.9950 43.9950 152.4059 0.0000 0.0000 0.0000
# 4 0.0000 0.0000 0.0000 22.0971 0.0000 0.0000
# 5 0.0000 0.0000 0.0000 0.0000 22.0971 0.0000
# 6 0.0001 -0.0001 0.0000 0.0000 0.0000 55.4329
#
#
#
# Elastic Compliance Matrix: (Units=1/GPa)
#
#
# Indices 1 2 3 4 5 6 
#
# 1 0.018367 -0.012235 -0.001770 0.000000 0.000000 0.000000
# 2 -0.012235 0.018367 -0.001770 0.000000 0.000000 0.000000
# 3 -0.001770 -0.001770 0.007583 0.000000 0.000000 0.000000
# 4 0.000000 0.000000 0.000000 0.045255 0.000000 0.000000
# 5 0.000000 0.000000 0.000000 0.000000 0.045255 0.000000
# 6 0.000000 0.000000 0.000000 0.000000 0.000000 0.018040
#
#
# Mechanical properties :
#
#
# Convention : Reuss Voigt Hill
#
# Bulk Modulus (GPa) = 78.32943 78.37329 78.35136
# Shear Modulus (GPa) = 26.50079 33.77040 30.13560
#
# Velocity S-wave (km/s) = 3.60138 4.06544 3.84043
# Velocity P-wave (km/s) = 7.45849 7.77138 7.61654
#
# Compressibility (1/GPa) = 0.01276659
#
# Stress axis : x y z
#
# Youngs Moduli (GPa) = 54.44511 54.44511 131.86803
#
# Poissons Ratio (x) = 0.66616 0.23341
# Poissons Ratio (y) = 0.66616 0.23341
# Poissons Ratio (z) = 0.09637 0.09637
#
# Static dielectric constant tensor:
#      x y z
#    x 3.726140 0.000000 0.000000 
#    y 0.000000 3.726140 0.000000 
#    z 0.000000 0.000000 3.734040 
# 
# 
# High freq. dielectric constant tensor:
#      x y z
#    x 1.802650 0.000000 0.000000 
#    y 0.000000 1.802650 0.000000 
#    z 0.000000 0.000000 1.797210 
# 
# From -- ./inp_files/2453.got.cif
#   From: 2010.03.12/outbox.cif.g09.slc.cpg/sg101_2_cif.got.tgz:2453.got - 2010.04.14 01:38:52.
