data_PCOD8306558
_publ_section_title
;
Structure prediction by ZEFSAII (Michael W. Deem and Ramdas Pophale) SiO2 
 PCOD8306558
Probable space group: P 4 M M
;
_chemical_formula_sum "Si O2"
_cell_formula_units_Z 56
_cell_length_a 13.441651
_cell_length_b 13.441651
_cell_length_c 18.128726
_cell_angle_alpha 90.000000
_cell_angle_beta 90.000000
_cell_angle_gamma 90.000000
_cell_volume 3275.461623
_symmetry_space_group_name_H-M "P 4 M M"
_symmetry_group_IT_number 99
_symmetry_cell_setting 'tetragonal'
loop_
_space_group_symop_operation_xyz
x,y,z
-y,x,z
-x,-y,z
y,-x,z
-x,y,z
x,-y,z
-y,-x,z
y,x,z
loop_
_atom_site_type_symbol
_atom_site_label
_atom_site_fract_x
_atom_site_fract_y
_atom_site_fract_z
Si Si1 0.719300 0.116890 0.621310
Si Si2 0.883313 0.276873 0.362391
Si Si3 0.729351 0.112140 0.781634
Si Si4 0.615557 0.779450 0.491726
Si Si5 0.280081 0.115607 0.941644
Si Si6 0.224658 0.384822 0.065732
Si Si7 0.614083 0.885259 0.213176
O O1 0.823096 0.176905 0.610177
O O2 0.673161 0.136108 0.704167
O O3 0.637083 0.157659 0.565395
O O4 0.739685 0.000000 0.606851
O O5 0.827826 0.172175 0.374691
O O6 0.847966 0.356799 0.422306
O O7 0.855162 0.318851 0.282343
O O8 0.000000 0.257712 0.371315
O O9 0.832827 0.167174 0.782789
O O10 0.672410 0.135084 0.859086
O O11 0.763540 0.000000 0.780498
O O12 0.500000 0.751769 0.488553
O O13 0.676698 0.676698 0.490611
O O14 0.179785 0.179785 0.954038
O O15 0.252978 0.000000 0.952833
O O16 0.363313 0.146922 0.000283
O O17 0.251139 0.500000 0.066062
O O18 0.326664 0.326664 0.052061
O O19 0.177683 0.350449 0.143068
O O20 0.500000 0.862245 0.233439
O O21 0.628247 0.000000 0.192459
#
# Coordination Sequence:
#
# PCOD8306558 Si02
#       7
#     8   8   8   8   8   8   8
#     4   9  17  29  46  70  99 129 159 189 224 270
#     4  10  20  33  50  73 101 132 163 192 223 264
#     4   8  14  25  41  63  93 125 155 188 225 268
#     4  10  21  36  53  72  93 119 154 197 243 287
#     4   9  17  29  46  69  96 125 156 190 230 277
#     4  10  20  33  49  68  91 121 157 198 242 284
#     4   9  17  30  50  74  96 120 153 192 233 277
#
# _framework density 17.096827000000001
#
# number of rings (size 3 to 8) (size 9 to 14) (size 15 to 20)
#    0.000    2.714    0.000    1.714    0.000    3.429 
#    0.000    3.571    0.000    5.143    0.000    4.000 
#    0.000    5.714    0.000    0.000    0.000    0.000 
#
# Total GULP energy -693985.518923 kJ/mol
# GULP energy per Si atom -12392.598552 kJ/mol
# Density = 1.705791 g / cm^3
# Si number density = 17.096827 Si / 1000 Ang^3
#
#
#
# Elastic Constant Matrix: (Units=GPa)
#
#
# Indices 1 2 3 4 5 6 
#
# 1 82.7311 33.8548 50.7563 0.0000 0.0000 0.0004
# 2 33.8548 82.7311 50.7563 0.0000 0.0000 -0.0004
# 3 50.7563 50.7563 137.8073 0.0000 0.0000 0.0000
# 4 0.0000 0.0000 0.0000 21.3948 0.0000 0.0000
# 5 0.0000 0.0000 0.0000 0.0000 21.3948 0.0000
# 6 0.0004 -0.0004 0.0000 0.0000 0.0000 13.4533
#
#
#
# Elastic Compliance Matrix: (Units=1/GPa)
#
#
# Indices 1 2 3 4 5 6 
#
# 1 0.016543 -0.003917 -0.004651 0.000000 0.000000 -0.000001
# 2 -0.003917 0.016543 -0.004651 0.000000 0.000000 0.000001
# 3 -0.004651 -0.004651 0.010682 0.000000 0.000000 0.000000
# 4 0.000000 0.000000 0.000000 0.046740 0.000000 0.000000
# 5 0.000000 0.000000 0.000000 0.000000 0.046740 0.000000
# 6 -0.000001 0.000001 0.000000 0.000000 0.000000 0.074331
#
#
# Mechanical properties :
#
#
# Convention : Reuss Voigt Hill
#
# Bulk Modulus (GPa) = 57.69242 63.77827 60.73534
# Shear Modulus (GPa) = 20.50912 22.44204 21.47558
#
# Velocity S-wave (km/s) = 3.46726 3.62697 3.54802
# Velocity P-wave (km/s) = 7.06024 7.41114 7.23782
#
# Compressibility (1/GPa) = 0.01733330
#
# Stress axis : x y z
#
# Youngs Moduli (GPa) = 60.44763 60.44763 93.61319
#
# Poissons Ratio (x) = 0.23675 0.43536
# Poissons Ratio (y) = 0.23675 0.43536
# Poissons Ratio (z) = 0.28112 0.28112
#
# Static dielectric constant tensor:
#      x y z
#    x 2.958370 0.000000 0.000000 
#    y 0.000000 2.958370 0.000000 
#    z 0.000000 0.000000 3.684630 
# 
# 
# High freq. dielectric constant tensor:
#      x y z
#    x 1.641180 0.000000 0.000000 
#    y 0.000000 1.641180 0.000000 
#    z 0.000000 0.000000 1.686360 
# 
# From -- ./inp_files/2136.got.cif
#   From: 2010.03.12/outbox.cif.g09.slc.cpg/sg99_cif.got.tgz:2136.got - 2010.04.08 21:11:30.
