data_PCOD8306147
_publ_section_title
;
Structure prediction by ZEFSAII (Michael W. Deem and Ramdas Pophale) SiO2 
 PCOD8306147
Probable space group: I 4 2 2 
;
_chemical_formula_sum "Si O2"
_cell_formula_units_Z 56
_cell_length_a 11.974834
_cell_length_b 11.974834
_cell_length_c 19.299512
_cell_angle_alpha 90.000000
_cell_angle_beta 90.000000
_cell_angle_gamma 90.000000
_cell_volume 2767.485354
_symmetry_space_group_name_H-M "I 4 2 2 "
_symmetry_group_IT_number 97
_symmetry_cell_setting 'tetragonal'
loop_
_space_group_symop_operation_xyz
x,y,z
-y,x,z
-x,-y,z
y,-x,z
x,-y,-z
-x,y,-z
y,x,-z
-y,-x,-z
1/2+x,1/2+y,1/2+z
1/2-y,1/2+x,1/2+z
1/2-x,1/2-y,1/2+z
1/2+y,1/2-x,1/2+z
1/2+x,1/2-y,1/2-z
1/2-x,1/2+y,1/2-z
1/2+y,1/2+x,1/2-z
1/2-y,1/2-x,1/2-z
loop_
_atom_site_type_symbol
_atom_site_label
_atom_site_fract_x
_atom_site_fract_y
_atom_site_fract_z
Si Si1 0.810567 0.617885 0.820653
Si Si2 0.629496 0.370505 0.000000
Si Si3 0.265703 0.867289 0.364941
Si Si4 0.132419 0.499689 0.577486
O O1 0.884245 0.615756 0.750000
O O2 0.762565 0.495605 0.840210
O O3 0.708595 0.704618 0.807353
O O4 0.889260 0.667813 0.881304
O O5 0.657704 0.500000 0.000000
O O6 0.669267 0.308199 0.068404
O O7 0.391711 0.828085 0.379918
O O8 0.184548 0.500000 0.500000
O O9 0.000000 0.500000 0.571507
#
# Coordination Sequence:
#
# PCOD8306147 Si02
#       4
#    16   8  16  16
#     4  11  25  39  61  92 123 171 213 262 329 392
#     4  11  20  34  60 100 132 155 204 274 345 388
#     4  11  22  39  64  90 129 164 208 271 325 394
#     4   9  20  37  60  89 120 159 205 253 312 387
#
# _framework density 20.234976
#
# number of rings (size 3 to 8) (size 9 to 14) (size 15 to 20)
#    0.000    1.571    2.857    1.714    8.000    4.571 
#    0.000    0.000    0.000    0.857    0.000    2.000 
#    0.000    0.000    0.000    0.000    0.000    0.000 
#
# Total GULP energy -346961.178877 kJ/mol
# GULP energy per Si atom -12391.470674 kJ/mol
# Density = 2.018892 g / cm^3
# Si number density = 20.234976 Si / 1000 Ang^3
#
#
#
# Elastic Constant Matrix: (Units=GPa)
#
#
# Indices 1 2 3 4 5 6 
#
# 1 107.9980 48.5354 33.1956 0.0000 0.0000 0.0000
# 2 48.5354 107.9989 33.1956 0.0000 0.0000 0.0000
# 3 33.1956 33.1956 110.4575 0.0000 0.0000 0.0000
# 4 0.0000 0.0000 0.0000 24.5130 0.0000 0.0000
# 5 0.0000 0.0000 0.0000 0.0000 24.5119 0.0000
# 6 0.0000 0.0000 0.0000 0.0000 0.0000 14.6349
#
#
#
# Elastic Compliance Matrix: (Units=1/GPa)
#
#
# Indices 1 2 3 4 5 6 
#
# 1 0.012069 -0.004748 -0.002200 0.000000 0.000000 0.000000
# 2 -0.004748 0.012069 -0.002200 0.000000 0.000000 0.000000
# 3 -0.002200 -0.002200 0.010376 0.000000 0.000000 0.000000
# 4 0.000000 0.000000 0.000000 0.040795 0.000000 0.000000
# 5 0.000000 0.000000 0.000000 0.000000 0.040796 0.000000
# 6 0.000000 0.000000 0.000000 0.000000 0.000000 0.068330
#
#
# Mechanical properties :
#
#
# Convention : Reuss Voigt Hill
#
# Bulk Modulus (GPa) = 61.66127 61.81196 61.73661
# Shear Modulus (GPa) = 24.02247 26.83382 25.42814
#
# Velocity S-wave (km/s) = 3.44928 3.64553 3.54876
# Velocity P-wave (km/s) = 6.81191 6.95221 6.88242
#
# Compressibility (1/GPa) = 0.01621764
#
# Stress axis : x y z
#
# Youngs Moduli (GPa) = 82.85378 82.85452 96.37814
#
# Poissons Ratio (x) = 0.39337 0.21207
# Poissons Ratio (y) = 0.39337 0.21206
# Poissons Ratio (z) = 0.18231 0.18231
#
# Static dielectric constant tensor:
#      x y z
#    x 3.656630 0.000000 0.000000 
#    y 0.000000 3.656610 0.000000 
#    z 0.000000 0.000000 3.858800 
# 
# 
# High freq. dielectric constant tensor:
#      x y z
#    x 1.775980 0.000000 0.000000 
#    y 0.000000 1.775980 0.000000 
#    z 0.000000 0.000000 1.796540 
# 
# From -- ./inp_files/6244.got.cif
#   From: 2010.03.12/outbox.cif.g09.slc.cpg/sg97_4_cif.got.tgz:6244.got - 2010.04.08 20:59:42.
