data_PCOD8306067
_publ_section_title
;
Structure prediction by ZEFSAII (Michael W. Deem and Ramdas Pophale) SiO2 
 PCOD8306067
Probable space group: I 4 2 2 
;
_chemical_formula_sum "Si O2"
_cell_formula_units_Z 116
_cell_length_a 26.912743
_cell_length_b 26.912743
_cell_length_c 8.957651
_cell_angle_alpha 90.000000
_cell_angle_beta 90.000000
_cell_angle_gamma 90.000000
_cell_volume 6487.988422
_symmetry_space_group_name_H-M "I 4 2 2 "
_symmetry_group_IT_number 97
_symmetry_cell_setting 'tetragonal'
loop_
_space_group_symop_operation_xyz
x,y,z
-y,x,z
-x,-y,z
y,-x,z
x,-y,-z
-x,y,-z
y,x,-z
-y,-x,-z
1/2+x,1/2+y,1/2+z
1/2-y,1/2+x,1/2+z
1/2-x,1/2-y,1/2+z
1/2+y,1/2-x,1/2+z
1/2+x,1/2-y,1/2-z
1/2-x,1/2+y,1/2-z
1/2+y,1/2+x,1/2-z
1/2-y,1/2-x,1/2-z
loop_
_atom_site_type_symbol
_atom_site_label
_atom_site_fract_x
_atom_site_fract_y
_atom_site_fract_z
Si Si1 0.500000 0.000000 0.250000
Si Si2 0.666298 0.904838 0.177483
Si Si3 0.595163 0.166298 0.322517
Si Si4 0.110302 0.500000 0.334156
Si Si5 0.943300 0.862940 0.172788
Si Si6 0.238052 0.942058 0.326503
Si Si7 0.862940 0.056700 0.827212
Si Si8 0.238052 0.942058 0.673497
O O1 0.500000 0.050459 0.345292
O O2 0.645378 0.854623 0.250000
O O3 0.722551 0.910992 0.231163
O O4 0.632519 0.950524 0.242570
O O5 0.664048 0.900416 0.000000
O O6 0.645378 0.145378 0.250000
O O7 0.549477 0.132518 0.257431
O O8 0.589008 0.222551 0.268836
O O9 0.132101 0.500000 0.500000
O O10 0.926121 0.816416 0.271969
O O11 0.909866 0.909866 0.217330
O O12 1.000000 0.877760 0.208439
O O13 0.936834 0.848348 1.000000
O O14 0.243761 0.929180 0.500000
O O15 0.247031 1.000000 0.294168
O O16 0.816416 0.073878 0.728030
#
# Coordination Sequence:
#
# PCOD8306067 Si02
#       8
#     4  16  16  16  16  16  16  16
#     4  12  18  36  44  66 100 140 178 208 274 336
#     4  11  21  35  51  73 100 134 178 226 277 324
#     4  11  21  35  51  73 100 134 178 226 277 324
#     4  10  21  31  45  66  95 133 171 215 266 321
#     4   9  18  33  55  84 116 149 180 213 255 307
#     4  10  20  34  53  77 104 140 183 227 269 315
#     4   9  18  33  55  84 116 149 180 213 255 307
#     4  10  20  34  53  77 104 140 183 227 269 315
#
# _framework density 17.879193000000001
#
# number of rings (size 3 to 8) (size 9 to 14) (size 15 to 20)
#    0.000    1.931    2.759    1.862    0.000    1.931 
#    0.000    1.379    0.000    0.828    0.000    3.862 
#    0.000    0.000    0.000    0.000    0.000    0.000 
#
# Total GULP energy -719235.131838 kJ/mol
# GULP energy per Si atom -12400.605721 kJ/mol
# Density = 1.783850 g / cm^3
# Si number density = 17.879193 Si / 1000 Ang^3
#
#
#
# Elastic Constant Matrix: (Units=GPa)
#
#
# Indices 1 2 3 4 5 6 
#
# 1 103.4953 63.5290 42.4779 0.0000 0.0000 0.0000
# 2 63.5290 103.4967 42.4781 0.0000 0.0000 0.0000
# 3 42.4779 42.4781 84.1674 0.0000 0.0000 0.0000
# 4 0.0000 0.0000 0.0000 25.7828 0.0000 0.0000
# 5 0.0000 0.0000 0.0000 0.0000 25.7826 0.0000
# 6 0.0000 0.0000 0.0000 0.0000 0.0000 26.9816
#
#
#
# Elastic Compliance Matrix: (Units=1/GPa)
#
#
# Indices 1 2 3 4 5 6 
#
# 1 0.016538 -0.008483 -0.004065 0.000000 0.000000 0.000000
# 2 -0.008483 0.016538 -0.004065 0.000000 0.000000 0.000000
# 3 -0.004065 -0.004065 0.015984 0.000000 0.000000 0.000000
# 4 0.000000 0.000000 0.000000 0.038785 0.000000 0.000000
# 5 0.000000 0.000000 0.000000 0.000000 0.038786 0.000000
# 6 0.000000 0.000000 0.000000 0.000000 0.000000 0.037062
#
#
# Mechanical properties :
#
#
# Convention : Reuss Voigt Hill
#
# Bulk Modulus (GPa) = 63.15767 65.34770 64.25269
# Shear Modulus (GPa) = 24.72830 25.22105 24.97468
#
# Velocity S-wave (km/s) = 3.72301 3.75992 3.74151
# Velocity P-wave (km/s) = 7.34046 7.44837 7.39462
#
# Compressibility (1/GPa) = 0.01583339
#
# Stress axis : x y z
#
# Youngs Moduli (GPa) = 60.46738 60.46829 62.56138
#
# Poissons Ratio (x) = 0.51295 0.25432
# Poissons Ratio (y) = 0.51294 0.25432
# Poissons Ratio (z) = 0.24581 0.24581
#
# Static dielectric constant tensor:
#      x y z
#    x 3.203180 0.000000 0.000000 
#    y 0.000000 3.203180 0.000000 
#    z 0.000000 0.000000 3.194660 
# 
# 
# High freq. dielectric constant tensor:
#      x y z
#    x 1.678920 0.000000 0.000000 
#    y 0.000000 1.678920 0.000000 
#    z 0.000000 0.000000 1.688840 
# 
# From -- ./inp_files/2648.got.cif
#   From: 2010.03.12/outbox.cif.g09.slc.cpg/sg97_2_cif.got.tgz:2648.got - 2010.04.08 20:59:42.
