data_PCOD8306869
_publ_section_title
;
Structure prediction by ZEFSAII (Michael W. Deem and Ramdas Pophale) SiO2 
 PCOD8306869
Probable space group: P 42 N M
;
_chemical_formula_sum "Si O2"
_cell_formula_units_Z 64
_cell_length_a 11.595110
_cell_length_b 11.595110
_cell_length_c 23.546346
_cell_angle_alpha 90.000000
_cell_angle_beta 90.000000
_cell_angle_gamma 90.000000
_cell_volume 3165.725595
_symmetry_space_group_name_H-M "P 42 N M"
_symmetry_group_IT_number 102
_symmetry_cell_setting 'tetragonal'
loop_
_space_group_symop_operation_xyz
x,y,z
1/2-y,1/2+x,1/2+z
-x,-y,z
1/2+y,1/2-x,1/2+z
1/2-x,1/2+y,1/2+z
1/2+x,1/2-y,1/2+z
-y,-x,z
y,x,z
loop_
_atom_site_type_symbol
_atom_site_label
_atom_site_fract_x
_atom_site_fract_y
_atom_site_fract_z
Si Si1 0.752714 0.935083 0.927050
Si Si2 0.251061 0.069845 0.054941
Si Si3 0.942526 0.242469 0.425766
Si Si4 0.632534 0.027581 0.153906
Si Si5 0.407176 0.096188 0.361868
Si Si6 0.556833 0.261704 0.170208
Si Si7 0.169674 0.352885 0.238472
Si Si8 0.762354 0.055390 0.553385
O O1 0.876308 0.876308 0.908960
O O2 0.658026 0.835849 0.922506
O O3 0.716659 0.047387 0.889999
O O4 0.759998 0.980259 0.991708
O O5 0.131336 0.131336 0.072318
O O6 0.353837 0.160705 0.060046
O O7 0.284093 0.968862 0.098827
O O8 0.882438 0.117563 0.409964
O O9 0.995770 0.238592 0.489487
O O10 0.049248 0.282357 0.384955
O O11 0.636667 0.151282 0.185125
O O12 0.500000 0.000000 0.137052
O O13 0.682152 0.933569 0.197131
O O14 0.406123 0.115886 0.294975
O O15 0.500000 0.000000 0.377741
O O16 0.621233 0.378767 0.187249
O O17 0.440370 0.256686 0.206741
O O18 0.540415 0.251762 0.102017
O O19 0.238738 0.238738 0.255052
O O20 0.884294 0.115706 0.564352
#
# Coordination Sequence:
#
# PCOD8306869 Si02
#       8
#     8   8   8   8   8   8   8   8
#     4   8  16  27  46  81 114 143 187 239 291 339
#     4   9  15  27  51  81 110 143 183 232 281 331
#     4   8  16  30  51  81 115 147 184 235 295 354
#     4  10  19  32  55  80 108 138 185 236 284 332
#     4  10  19  33  56  80 112 148 193 245 295 341
#     4  11  23  36  54  84 117 148 186 236 294 348
#     4  11  23  40  58  80 109 150 195 237 285 345
#     4   9  16  29  51  83 118 149 181 224 284 351
#
# _framework density 20.216535
#
# number of rings (size 3 to 8) (size 9 to 14) (size 15 to 20)
#    0.000    2.500    2.500    3.375    1.750    2.000 
#    0.000    3.750    0.000    3.375    0.000    1.750 
#    0.000    0.000    0.000    0.000    0.000    0.000 
#
# Total GULP energy -793003.936246 kJ/mol
# GULP energy per Si atom -12390.686504 kJ/mol
# Density = 2.017052 g / cm^3
# Si number density = 20.216535 Si / 1000 Ang^3
#
#
#
# Elastic Constant Matrix: (Units=GPa)
#
#
# Indices 1 2 3 4 5 6 
#
# 1 44.0562 35.1802 25.7098 0.0000 0.0000 0.0001
# 2 35.1802 44.0562 25.7098 0.0000 0.0000 -0.0001
# 3 25.7098 25.7098 99.5534 0.0000 0.0000 0.0000
# 4 0.0000 0.0000 0.0000 10.8196 0.0000 0.0000
# 5 0.0000 0.0000 0.0000 0.0000 10.8196 0.0000
# 6 0.0001 -0.0001 0.0000 0.0000 0.0000 27.5741
#
#
#
# Elastic Compliance Matrix: (Units=1/GPa)
#
#
# Indices 1 2 3 4 5 6 
#
# 1 0.063912 -0.048751 -0.003915 0.000000 0.000000 -0.000001
# 2 -0.048751 0.063912 -0.003915 0.000000 0.000000 0.000001
# 3 -0.003915 -0.003915 0.012067 0.000000 0.000000 0.000000
# 4 0.000000 0.000000 0.000000 0.092425 0.000000 0.000000
# 5 0.000000 0.000000 0.000000 0.000000 0.092425 0.000000
# 6 -0.000001 0.000001 0.000000 0.000000 0.000000 0.036266
#
#
# Mechanical properties :
#
#
# Convention : Reuss Voigt Hill
#
# Bulk Modulus (GPa) = 37.41374 40.09614 38.75494
# Shear Modulus (GPa) = 10.35024 16.58040 13.46532
#
# Velocity S-wave (km/s) = 2.26513 2.86692 2.58360
# Velocity P-wave (km/s) = 5.03863 5.55296 5.30203
#
# Compressibility (1/GPa) = 0.02672815
#
# Stress axis : x y z
#
# Youngs Moduli (GPa) = 15.64641 15.64641 82.86928
#
# Poissons Ratio (x) = 0.76278 0.32447
# Poissons Ratio (y) = 0.76278 0.32447
# Poissons Ratio (z) = 0.06126 0.06126
#
# Static dielectric constant tensor:
#      x y z
#    x 3.609440 0.000000 0.000000 
#    y 0.000000 3.609440 0.000000 
#    z 0.000000 0.000000 3.654970 
# 
# 
# High freq. dielectric constant tensor:
#      x y z
#    x 1.763200 0.000000 0.000000 
#    y 0.000000 1.763200 0.000000 
#    z 0.000000 0.000000 1.782020 
# 
# From -- ./inp_files/3431.got.cif
#   From: 2010.03.12/outbox.cif.g09.slc.cpg/sg102_2_cif.got.tgz:3431.got - 2010.04.14 01:40:42.
