data_PCOD8306860
_publ_section_title
;
Structure prediction by ZEFSAII (Michael W. Deem and Ramdas Pophale) SiO2 
 PCOD8306860
Probable space group: P 42 N M
;
_chemical_formula_sum "Si O2"
_cell_formula_units_Z 56
_cell_length_a 12.258642
_cell_length_b 12.258642
_cell_length_c 19.720783
_cell_angle_alpha 90.000000
_cell_angle_beta 90.000000
_cell_angle_gamma 90.000000
_cell_volume 2963.526933
_symmetry_space_group_name_H-M "P 42 N M"
_symmetry_group_IT_number 102
_symmetry_cell_setting 'tetragonal'
loop_
_space_group_symop_operation_xyz
x,y,z
1/2-y,1/2+x,1/2+z
-x,-y,z
1/2+y,1/2-x,1/2+z
1/2-x,1/2+y,1/2+z
1/2+x,1/2-y,1/2+z
-y,-x,z
y,x,z
loop_
_atom_site_type_symbol
_atom_site_label
_atom_site_fract_x
_atom_site_fract_y
_atom_site_fract_z
Si Si1 0.128468 0.695660 0.402370
Si Si2 0.870765 0.502188 0.654544
Si Si3 0.103169 0.278239 0.450873
Si Si4 0.371532 0.804341 0.254030
Si Si5 0.000000 0.170155 0.578202
Si Si6 0.370765 0.002188 0.001856
Si Si7 0.396831 0.221760 0.205530
O O1 0.192726 0.807275 0.418101
O O2 0.153537 0.653541 0.328200
O O3 0.166130 0.608607 0.459756
O O4 0.998404 0.715780 0.399763
O O5 0.833870 0.608608 0.696642
O O6 0.820278 0.499999 0.578200
O O7 0.834489 0.393499 0.695879
O O8 0.000000 0.500000 0.650176
O O9 0.188648 0.188648 0.423882
O O10 0.165511 0.393498 0.460522
O O11 0.052661 0.247927 0.523305
O O12 0.307274 0.692727 0.238300
O O13 0.501596 0.784222 0.256639
O O14 0.906526 0.093475 0.544971
O O15 0.947341 0.247928 0.633098
O O16 0.093475 0.093475 0.611433
O O17 0.500000 0.000000 0.006224
O O18 0.311351 0.311351 0.232520
#
# Coordination Sequence:
#
# PCOD8306860 Si02
#       7
#     8   8   8   8   8   8   8
#     4  10  21  37  55  74 101 141 183 221 270 332
#     4   9  18  32  51  77 108 139 169 205 256 321
#     4  10  19  31  52  81 107 132 169 218 265 308
#     4  10  21  37  55  74 101 141 183 221 270 332
#     4   9  16  26  45  78 114 138 159 201 266 326
#     4   9  18  32  51  77 108 139 169 205 256 321
#     4  10  19  31  52  81 107 132 169 218 265 308
#
# _framework density 18.896402999999999
#
# number of rings (size 3 to 8) (size 9 to 14) (size 15 to 20)
#    0.000    2.429    0.000    4.286    0.000   10.286 
#    0.000    2.857    0.000    2.571    0.000    2.000 
#    0.000    0.000    0.000    0.000    0.000    0.000 
#
# Total GULP energy -694145.346325 kJ/mol
# GULP energy per Si atom -12395.452613 kJ/mol
# Density = 1.885339 g / cm^3
# Si number density = 18.896403 Si / 1000 Ang^3
#
#
#
# Elastic Constant Matrix: (Units=GPa)
#
#
# Indices 1 2 3 4 5 6 
#
# 1 89.8313 44.4338 25.4857 0.0000 0.0000 0.0001
# 2 44.4338 89.8313 25.4857 0.0000 0.0000 -0.0001
# 3 25.4857 25.4857 80.0763 0.0000 0.0000 0.0000
# 4 0.0000 0.0000 0.0000 20.7680 0.0000 0.0000
# 5 0.0000 0.0000 0.0000 0.0000 20.7680 0.0000
# 6 0.0001 -0.0001 0.0000 0.0000 0.0000 17.9405
#
#
#
# Elastic Compliance Matrix: (Units=1/GPa)
#
#
# Indices 1 2 3 4 5 6 
#
# 1 0.015250 -0.006778 -0.002696 0.000000 0.000000 0.000000
# 2 -0.006778 0.015250 -0.002696 0.000000 0.000000 0.000000
# 3 -0.002696 -0.002696 0.014204 0.000000 0.000000 0.000000
# 4 0.000000 0.000000 0.000000 0.048151 0.000000 0.000000
# 5 0.000000 0.000000 0.000000 0.000000 0.048151 0.000000
# 6 0.000000 0.000000 0.000000 0.000000 0.000000 0.055740
#
#
# Mechanical properties :
#
#
# Convention : Reuss Voigt Hill
#
# Bulk Modulus (GPa) = 49.10984 50.06104 49.58544
# Shear Modulus (GPa) = 21.94199 22.85090 22.39644
#
# Velocity S-wave (km/s) = 3.41130 3.48123 3.44644
# Velocity P-wave (km/s) = 6.44681 6.53517 6.49114
#
# Compressibility (1/GPa) = 0.02036252
#
# Stress axis : x y z
#
# Youngs Moduli (GPa) = 65.57556 65.57556 70.40116
#
# Poissons Ratio (x) = 0.44448 0.18982
# Poissons Ratio (y) = 0.44448 0.18982
# Poissons Ratio (z) = 0.17681 0.17681
#
# Static dielectric constant tensor:
#      x y z
#    x 3.686330 0.000000 0.000000 
#    y 0.000000 3.686330 0.000000 
#    z 0.000000 0.000000 3.344760 
# 
# 
# High freq. dielectric constant tensor:
#      x y z
#    x 1.723100 0.000000 0.000000 
#    y 0.000000 1.723100 0.000000 
#    z 0.000000 0.000000 1.722800 
# 
# From -- ./inp_files/3122.got.cif
#   From: 2010.03.12/outbox.cif.g09.slc.cpg/sg102_2_cif.got.tgz:3122.got - 2010.04.14 01:40:42.
