data_PCOD8306062
_publ_section_title
;
Structure prediction by ZEFSAII (Michael W. Deem and Ramdas Pophale) SiO2 
 PCOD8306062
Probable space group: I 4 2 2 
;
_chemical_formula_sum "Si O2"
_cell_formula_units_Z 72
_cell_length_a 19.623118
_cell_length_b 19.623118
_cell_length_c 10.711724
_cell_angle_alpha 90.000000
_cell_angle_beta 90.000000
_cell_angle_gamma 90.000000
_cell_volume 4124.728855
_symmetry_space_group_name_H-M "I 4 2 2 "
_symmetry_group_IT_number 97
_symmetry_cell_setting 'tetragonal'
loop_
_space_group_symop_operation_xyz
x,y,z
-y,x,z
-x,-y,z
y,-x,z
x,-y,-z
-x,y,-z
y,x,-z
-y,-x,-z
1/2+x,1/2+y,1/2+z
1/2-y,1/2+x,1/2+z
1/2-x,1/2-y,1/2+z
1/2+y,1/2-x,1/2+z
1/2+x,1/2-y,1/2-z
1/2-x,1/2+y,1/2-z
1/2+y,1/2+x,1/2-z
1/2-y,1/2-x,1/2-z
loop_
_atom_site_type_symbol
_atom_site_label
_atom_site_fract_x
_atom_site_fract_y
_atom_site_fract_z
Si Si1 0.452745 0.598726 0.661059
Si Si2 0.161218 0.932893 0.580332
Si Si3 0.162181 0.722281 0.367205
Si Si4 0.653989 0.653989 0.500000
Si Si5 0.306246 0.211123 0.618499
O O1 0.409978 0.531090 0.622319
O O2 0.451794 0.610268 0.808658
O O3 0.414207 0.658373 0.585342
O O4 0.126525 0.873476 0.500000
O O5 0.232808 0.906382 0.638518
O O6 0.176243 0.000000 0.500000
O O7 0.169731 0.669731 0.250000
O O8 0.162080 0.680780 0.499256
O O9 0.226002 0.773557 0.367431
O O10 0.653706 0.718224 0.594203
O O11 0.326252 0.173749 0.750000
#
# Coordination Sequence:
#
# PCOD8306062 Si02
#       5
#    16  16  16   8  16
#     4  11  22  33  43  59  95 143 188 220 247 283
#     4  12  21  32  49  69  99 137 184 230 260 305
#     4   9  17  31  48  68  90 116 165 220 276 314
#     4  10  20  31  48  64  84 122 175 224 278 316
#     4   9  16  28  49  65  82 105 154 223 276 321
#
# _framework density 17.455693
#
# number of rings (size 3 to 8) (size 9 to 14) (size 15 to 20)
#    0.000    2.000    4.444    4.667    0.000    1.111 
#    0.000    0.000    0.000    0.000    0.000    0.000 
#    0.000    0.000    0.000    0.000    0.000  451.111 
#
# Total GULP energy -446068.417103 kJ/mol
# GULP energy per Si atom -12390.789364 kJ/mol
# Density = 1.741596 g / cm^3
# Si number density = 17.455693 Si / 1000 Ang^3
#
#
#
# Elastic Constant Matrix: (Units=GPa)
#
#
# Indices 1 2 3 4 5 6 
#
# 1 55.3498 48.5968 30.0869 0.0000 0.0000 0.0000
# 2 48.5968 55.3502 30.0869 0.0000 0.0000 0.0000
# 3 30.0869 30.0869 136.8979 0.0000 0.0000 0.0000
# 4 0.0000 0.0000 0.0000 25.3118 0.0000 0.0000
# 5 0.0000 0.0000 0.0000 0.0000 25.3115 0.0000
# 6 0.0000 0.0000 0.0000 0.0000 0.0000 25.8951
#
#
#
# Elastic Compliance Matrix: (Units=1/GPa)
#
#
# Indices 1 2 3 4 5 6 
#
# 1 0.079551 -0.068528 -0.002423 0.000000 0.000000 0.000000
# 2 -0.068528 0.079550 -0.002422 0.000000 0.000000 0.000000
# 3 -0.002423 -0.002422 0.008370 0.000000 0.000000 0.000000
# 4 0.000000 0.000000 0.000000 0.039507 0.000000 0.000000
# 5 0.000000 0.000000 0.000000 0.000000 0.039508 0.000000
# 6 0.000000 0.000000 0.000000 0.000000 0.000000 0.038617
#
#
# Mechanical properties :
#
#
# Convention : Reuss Voigt Hill
#
# Bulk Modulus (GPa) = 48.25133 51.68210 49.96671
# Shear Modulus (GPa) = 11.39586 24.55885 17.97736
#
# Velocity S-wave (km/s) = 2.55786 3.75497 3.21266
# Velocity P-wave (km/s) = 6.03537 6.96215 6.51526
#
# Compressibility (1/GPa) = 0.02072482
#
# Stress axis : x y z
#
# Youngs Moduli (GPa) = 12.57062 12.57073 119.48089
#
# Poissons Ratio (x) = 0.86144 0.28945
# Poissons Ratio (y) = 0.86143 0.28944
# Poissons Ratio (z) = 0.03045 0.03045
#
# Static dielectric constant tensor:
#      x y z
#    x 2.889300 0.000000 0.000000 
#    y 0.000000 2.889300 0.000000 
#    z 0.000000 0.000000 4.343920 
# 
# 
# High freq. dielectric constant tensor:
#      x y z
#    x 1.622800 0.000000 0.000000 
#    y 0.000000 1.622800 0.000000 
#    z 0.000000 0.000000 1.716480 
# 
# From -- ./inp_files/3606.got.cif
#   From: 2010.03.12/outbox.cif.g09.slc.cpg/sg97_2_cif.got.tgz:3606.got - 2010.04.08 20:59:42.
