data_PCOD8306523
_publ_section_title
;
Structure prediction by ZEFSAII (Michael W. Deem and Ramdas Pophale) SiO2 
 PCOD8306523
Probable space group: P 4 M M
;
_chemical_formula_sum "Si O2"
_cell_formula_units_Z 56
_cell_length_a 21.659648
_cell_length_b 21.659648
_cell_length_c 6.974611
_cell_angle_alpha 90.000000
_cell_angle_beta 90.000000
_cell_angle_gamma 90.000000
_cell_volume 3272.071456
_symmetry_space_group_name_H-M "P 4 M M"
_symmetry_group_IT_number 99
_symmetry_cell_setting 'tetragonal'
loop_
_space_group_symop_operation_xyz
x,y,z
-y,x,z
-x,-y,z
y,-x,z
-x,y,z
x,-y,z
-y,-x,z
y,x,z
loop_
_atom_site_type_symbol
_atom_site_label
_atom_site_fract_x
_atom_site_fract_y
_atom_site_fract_z
Si Si1 0.322908 0.072128 0.875000
Si Si2 0.167387 0.267231 0.614916
Si Si3 0.635312 0.731841 0.735647
Si Si4 0.131437 0.652046 0.274372
Si Si5 0.332464 0.431417 0.402290
Si Si6 0.430653 0.072315 0.592587
Si Si7 0.431502 0.233862 0.100175
O O1 0.268565 0.109214 0.762085
O O2 0.389095 0.089159 0.777840
O O3 0.307715 0.000000 0.852545
O O4 0.325719 0.088751 0.098933
O O5 0.199352 0.199352 0.608069
O O6 0.214332 0.316933 0.696408
O O7 0.146601 0.287184 0.400818
O O8 0.672108 0.672108 0.816617
O O9 0.601559 0.716339 0.539395
O O10 0.583543 0.755696 0.878939
O O11 0.097982 0.600151 0.400210
O O12 0.193328 0.621953 0.193870
O O13 0.346097 0.500000 0.477725
O O14 0.397535 0.397535 0.392327
O O15 0.301341 0.431621 0.194554
O O16 0.500000 0.099883 0.620056
O O17 0.435051 0.000000 0.565611
O O18 0.500000 0.203630 0.118142
#
# Coordination Sequence:
#
# PCOD8306523 Si02
#       7
#     8   8   8   8   8   8   8
#     4  10  21  37  55  77 108 145 180 216 264 311
#     4  10  21  36  56  80 106 138 177 218 259 309
#     4  10  19  34  52  71  96 126 164 214 264 310
#     4  11  20  33  49  76 102 140 175 223 264 310
#     4  10  21  36  52  71  95 123 162 215 277 338
#     4   9  19  34  49  68  99 139 184 226 261 306
#     4  11  21  31  47  73  99 129 168 216 268 319
#
# _framework density 17.114540000000002
#
# number of rings (size 3 to 8) (size 9 to 14) (size 15 to 20)
#    0.000    1.857    2.857    1.714    0.000    3.000 
#    0.000    1.429    0.000    0.000    0.000    2.000 
#    0.000    0.286    0.000    0.571    0.000    0.000 
#
# Total GULP energy -694326.338142 kJ/mol
# GULP energy per Si atom -12398.684610 kJ/mol
# Density = 1.707559 g / cm^3
# Si number density = 17.114540 Si / 1000 Ang^3
#
#
#
# Elastic Constant Matrix: (Units=GPa)
#
#
# Indices 1 2 3 4 5 6 
#
# 1 69.2482 38.5168 33.1447 0.0000 0.0000 0.0000
# 2 38.5168 69.2482 33.1447 0.0000 0.0000 0.0000
# 3 33.1447 33.1447 98.7243 0.0000 0.0000 0.0000
# 4 0.0000 0.0000 0.0000 23.8079 0.0000 0.0000
# 5 0.0000 0.0000 0.0000 0.0000 23.8079 0.0000
# 6 0.0000 0.0000 0.0000 0.0000 0.0000 25.3201
#
#
#
# Elastic Compliance Matrix: (Units=1/GPa)
#
#
# Indices 1 2 3 4 5 6 
#
# 1 0.022117 -0.010423 -0.003926 0.000000 0.000000 0.000000
# 2 -0.010423 0.022117 -0.003926 0.000000 0.000000 0.000000
# 3 -0.003926 -0.003926 0.012766 0.000000 0.000000 0.000000
# 4 0.000000 0.000000 0.000000 0.042003 0.000000 0.000000
# 5 0.000000 0.000000 0.000000 0.000000 0.042003 0.000000
# 6 0.000000 0.000000 0.000000 0.000000 0.000000 0.039494
#
#
# Mechanical properties :
#
#
# Convention : Reuss Voigt Hill
#
# Bulk Modulus (GPa) = 48.90022 49.64811 49.27417
# Shear Modulus (GPa) = 22.33467 23.41481 22.87474
#
# Velocity S-wave (km/s) = 3.61641 3.70283 3.65988
# Velocity P-wave (km/s) = 6.78766 6.88139 6.83468
#
# Compressibility (1/GPa) = 0.02044980
#
# Stress axis : x y z
#
# Youngs Moduli (GPa) = 45.21343 45.21343 78.33594
#
# Poissons Ratio (x) = 0.47125 0.30756
# Poissons Ratio (y) = 0.47125 0.30756
# Poissons Ratio (z) = 0.17752 0.17752
#
# Static dielectric constant tensor:
#      x y z
#    x 3.207100 0.000000 0.000000 
#    y 0.000000 3.207100 0.000000 
#    z 0.000000 0.000000 3.284040 
# 
# 
# High freq. dielectric constant tensor:
#      x y z
#    x 1.642100 0.000000 0.000000 
#    y 0.000000 1.642100 0.000000 
#    z 0.000000 0.000000 1.670270 
# 
# From -- ./inp_files/475.got.cif
#   From: 2010.03.12/outbox.cif.g09.slc.cpg/sg99_cif.got.tgz:475.got - 2010.04.08 21:11:30.
