data_PCOD8306848
_publ_section_title
;
Structure prediction by ZEFSAII (Michael W. Deem and Ramdas Pophale) SiO2 
 PCOD8306848
Probable space group: P 42 N M
;
_chemical_formula_sum "Si O2"
_cell_formula_units_Z 40
_cell_length_a 22.516842
_cell_length_b 22.516842
_cell_length_c 5.208132
_cell_angle_alpha 90.000000
_cell_angle_beta 90.000000
_cell_angle_gamma 90.000000
_cell_volume 2640.565493
_symmetry_space_group_name_H-M "P 42 N M"
_symmetry_group_IT_number 102
_symmetry_cell_setting 'tetragonal'
loop_
_space_group_symop_operation_xyz
x,y,z
1/2-y,1/2+x,1/2+z
-x,-y,z
1/2+y,1/2-x,1/2+z
1/2-x,1/2+y,1/2+z
1/2+x,1/2-y,1/2+z
-y,-x,z
y,x,z
loop_
_atom_site_type_symbol
_atom_site_label
_atom_site_fract_x
_atom_site_fract_y
_atom_site_fract_z
Si Si1 0.216643 0.415545 0.057540
Si Si2 0.603313 0.155137 0.526540
Si Si3 0.304473 0.050333 0.533593
Si Si4 0.755635 0.338666 0.212491
Si Si5 0.754693 0.150169 0.058407
O O1 0.146009 0.401788 0.055408
O O2 0.247532 0.391887 0.313865
O O3 0.224504 0.486115 0.048616
O O4 0.250625 0.388781 0.814545
O O5 0.559755 0.160544 0.768069
O O6 0.646700 0.213267 0.488751
O O7 0.562401 0.149583 0.270068
O O8 0.250866 0.099278 0.554707
O O9 0.691599 0.308402 0.255394
O O10 0.799740 0.296176 0.052401
O O11 0.819153 0.180848 0.050231
#
# Coordination Sequence:
#
# PCOD8306848 Si02
#       5
#     8   8   8   8   8
#     4  11  18  32  49  68 100 126 159 197 233 284
#     4   9  18  31  42  69  88 130 154 189 236 274
#     4  10  19  30  48  69  93 129 159 191 240 277
#     4   8  17  30  47  70  94 119 153 193 242 289
#     4  10  19  31  50  73  95 124 156 193 246 290
#
# _framework density 15.148270999999999
#
# number of rings (size 3 to 8) (size 9 to 14) (size 15 to 20)
#    1.200    1.200    2.000    1.800    0.000    1.600 
#    0.000    0.000    0.000    3.600    0.000    0.000 
#    0.000    4.800    0.000    0.000    0.000    0.000 
#
# Total GULP energy -495572.897239 kJ/mol
# GULP energy per Si atom -12389.322431 kJ/mol
# Density = 1.511379 g / cm^3
# Si number density = 15.148271 Si / 1000 Ang^3
#
#
#
# Elastic Constant Matrix: (Units=GPa)
#
#
# Indices 1 2 3 4 5 6 
#
# 1 65.8044 45.2895 27.2478 0.0000 0.0000 -0.0003
# 2 45.2895 65.8044 27.2478 0.0000 0.0000 0.0003
# 3 27.2478 27.2478 118.6792 0.0000 0.0000 0.0000
# 4 0.0000 0.0000 0.0000 16.0365 0.0000 0.0000
# 5 0.0000 0.0000 0.0000 0.0000 16.0365 0.0000
# 6 -0.0003 0.0003 0.0000 0.0000 0.0000 13.6814
#
#
#
# Elastic Compliance Matrix: (Units=1/GPa)
#
#
# Indices 1 2 3 4 5 6 
#
# 1 0.029445 -0.019301 -0.002329 0.000000 0.000000 0.000001
# 2 -0.019301 0.029445 -0.002329 0.000000 0.000000 -0.000001
# 3 -0.002329 -0.002329 0.009495 0.000000 0.000000 0.000000
# 4 0.000000 0.000000 0.000000 0.062358 0.000000 0.000000
# 5 0.000000 0.000000 0.000000 0.000000 0.062358 0.000000
# 6 0.000001 -0.000001 0.000000 0.000000 0.000000 0.073092
#
#
# Mechanical properties :
#
#
# Convention : Reuss Voigt Hill
#
# Bulk Modulus (GPa) = 48.85823 49.98423 49.42123
# Shear Modulus (GPa) = 15.57962 19.18438 17.38200
#
# Velocity S-wave (km/s) = 3.21046 3.56257 3.39109
# Velocity P-wave (km/s) = 6.78720 7.07042 6.93026
#
# Compressibility (1/GPa) = 0.02046738
#
# Stress axis : x y z
#
# Youngs Moduli (GPa) = 33.96217 33.96217 105.31323
#
# Poissons Ratio (x) = 0.65549 0.24527
# Poissons Ratio (y) = 0.65549 0.24527
# Poissons Ratio (z) = 0.07910 0.07910
#
# Static dielectric constant tensor:
#      x y z
#    x 2.687720 0.000000 0.000000 
#    y 0.000000 2.687720 0.000000 
#    z 0.000000 0.000000 2.974160 
# 
# 
# High freq. dielectric constant tensor:
#      x y z
#    x 1.547690 0.000000 0.000000 
#    y 0.000000 1.547690 0.000000 
#    z 0.000000 0.000000 1.598620 
# 
# From -- ./inp_files/281.got.cif
#   From: 2010.03.12/outbox.cif.g09.slc.cpg/sg102_1_cif.got.tgz:281.got - 2010.04.14 01:40:42.
