data_PCOD8306363
_publ_section_title
;
Structure prediction by ZEFSAII (Michael W. Deem and Ramdas Pophale) SiO2 
 PCOD8306363
Probable space group: I 41 2 2
;
_chemical_formula_sum "Si O2"
_cell_formula_units_Z 84
_cell_length_a 20.955134
_cell_length_b 20.955134
_cell_length_c 10.875739
_cell_angle_alpha 90.000000
_cell_angle_beta 90.000000
_cell_angle_gamma 90.000000
_cell_volume 4775.728853
_symmetry_space_group_name_H-M "I 41 2 2"
_symmetry_group_IT_number 98
_symmetry_cell_setting 'tetragonal'
loop_
_space_group_symop_operation_xyz
x,y,z
-y,1/2+x,1/4+z
-x,-y,z
y,1/2-x,1/4+z
x,1/2-y,1/4-z
-x,1/2+y,1/4-z
y,x,-z
-y,-x,-z
1/2+x,1/2+y,1/2+z
1/2-y,x,3/4+z
1/2-x,1/2-y,1/2+z
1/2+y,-x,3/4+z
1/2+x,-y,3/4-z
1/2-x,y,3/4-z
1/2+y,1/2+x,1/2-z
1/2-y,1/2-x,1/2-z
loop_
_atom_site_type_symbol
_atom_site_label
_atom_site_fract_x
_atom_site_fract_y
_atom_site_fract_z
Si Si1 0.000000 0.500000 0.250000
Si Si2 0.079022 0.631654 0.542725
Si Si3 0.750000 0.038698 0.875000
Si Si4 0.501383 0.383881 0.684038
Si Si5 0.170621 0.670621 0.750000
Si Si6 0.783218 0.129113 0.084815
Si Si7 0.564416 0.958685 0.384089
O O1 0.936055 0.496898 0.327955
O O2 0.113235 0.564282 0.519109
O O3 0.111353 0.667927 0.656837
O O4 0.084943 0.671766 0.418099
O O5 0.004472 0.623198 0.578813
O O6 0.755641 0.082502 0.754087
O O7 0.686493 0.994919 0.874567
O O8 0.440454 0.399773 0.770243
O O9 0.169382 0.735877 0.828138
O O10 0.823419 0.176582 0.000000
O O11 0.572187 0.927814 0.250000
O O12 0.500000 0.000000 0.392928
#
# Coordination Sequence:
#
# PCOD8306363 Si02
#       7
#     4  16   8  16   8  16  16
#     4  12  20  36  60  84 108 152 198 230 308 372
#     4  11  20  38  55  77 102 141 197 244 299 343
#     4  12  24  38  54  76 120 150 188 250 300 340
#     4  11  20  35  55  81 107 146 182 243 297 357
#     4  12  24  40  54  74 108 156 205 253 296 322
#     4  12  24  41  51  72 107 159 209 249 281 336
#     4   9  18  32  57  79 100 127 180 238 297 355
#
# _framework density 17.588939
#
# number of rings (size 3 to 8) (size 9 to 14) (size 15 to 20)
#    0.000    0.952    6.667    4.000    0.000    0.000 
#   15.429    0.000    0.000    0.000    0.000    0.000 
#    0.000    0.000    9.714    0.000    0.000    0.000 
#
# Total GULP energy -520727.988823 kJ/mol
# GULP energy per Si atom -12398.285448 kJ/mol
# Density = 1.754891 g / cm^3
# Si number density = 17.588939 Si / 1000 Ang^3
#
#
#
# Elastic Constant Matrix: (Units=GPa)
#
#
# Indices 1 2 3 4 5 6 
#
# 1 86.1776 46.4210 54.2941 0.0000 0.0000 0.0000
# 2 46.4210 86.1778 54.2943 0.0000 0.0000 0.0000
# 3 54.2941 54.2943 134.8613 0.0000 0.0000 0.0000
# 4 0.0000 0.0000 0.0000 53.1881 0.0000 0.0000
# 5 0.0000 0.0000 0.0000 0.0000 53.1765 0.0000
# 6 0.0000 0.0000 0.0000 0.0000 0.0000 17.1368
#
#
#
# Elastic Compliance Matrix: (Units=1/GPa)
#
#
# Indices 1 2 3 4 5 6 
#
# 1 0.018202 -0.006951 -0.004530 0.000000 0.000000 0.000000
# 2 -0.006951 0.018202 -0.004530 0.000000 0.000000 0.000000
# 3 -0.004530 -0.004530 0.011062 0.000000 0.000000 0.000000
# 4 0.000000 0.000000 0.000000 0.018801 0.000000 0.000000
# 5 0.000000 0.000000 0.000000 0.000000 0.018805 0.000000
# 6 0.000000 0.000000 0.000000 0.000000 0.000000 0.058354
#
#
# Mechanical properties :
#
#
# Convention : Reuss Voigt Hill
#
# Bulk Modulus (GPa) = 64.74247 68.58172 66.66209
# Shear Modulus (GPa) = 27.68619 34.84743 31.26681
#
# Velocity S-wave (km/s) = 3.97176 4.45591 4.22078
# Velocity P-wave (km/s) = 7.61063 8.09627 7.85720
#
# Compressibility (1/GPa) = 0.01544581
#
# Stress axis : x y z
#
# Youngs Moduli (GPa) = 54.93914 54.93918 90.39840
#
# Poissons Ratio (x) = 0.38189 0.40946
# Poissons Ratio (y) = 0.38188 0.40946
# Poissons Ratio (z) = 0.24885 0.24885
#
# Static dielectric constant tensor:
#      x y z
#    x 3.196120 0.000000 0.000000 
#    y 0.000000 3.196120 0.000000 
#    z 0.000000 0.000000 3.782790 
# 
# 
# High freq. dielectric constant tensor:
#      x y z
#    x 1.645300 0.000000 0.000000 
#    y 0.000000 1.645300 0.000000 
#    z 0.000000 0.000000 1.711110 
# 
# From -- ./inp_files/5255.got.cif
#   From: 2010.03.12/outbox.cif.g09.slc.cpg/sg98_3_cif.got.tgz:5255.got - 2010.04.08 21:04:41.
