data_PCOD8306022
_publ_section_title
;
Structure prediction by ZEFSAII (Michael W. Deem and Ramdas Pophale) SiO2 
 PCOD8306022
Probable space group: I 4 2 2 
;
_chemical_formula_sum "Si O2"
_cell_formula_units_Z 80
_cell_length_a 18.282145
_cell_length_b 18.282145
_cell_length_c 14.037277
_cell_angle_alpha 90.000000
_cell_angle_beta 90.000000
_cell_angle_gamma 90.000000
_cell_volume 4691.774907
_symmetry_space_group_name_H-M "I 4 2 2 "
_symmetry_group_IT_number 97
_symmetry_cell_setting 'tetragonal'
loop_
_space_group_symop_operation_xyz
x,y,z
-y,x,z
-x,-y,z
y,-x,z
x,-y,-z
-x,y,-z
y,x,-z
-y,-x,-z
1/2+x,1/2+y,1/2+z
1/2-y,1/2+x,1/2+z
1/2-x,1/2-y,1/2+z
1/2+y,1/2-x,1/2+z
1/2+x,1/2-y,1/2-z
1/2-x,1/2+y,1/2-z
1/2+y,1/2+x,1/2-z
1/2-y,1/2-x,1/2-z
loop_
_atom_site_type_symbol
_atom_site_label
_atom_site_fract_x
_atom_site_fract_y
_atom_site_fract_z
Si Si1 0.701930 0.918019 0.496483
Si Si2 0.867385 0.740055 0.297283
Si Si3 0.485665 0.820090 0.732510
Si Si4 0.435511 0.056315 0.393928
Si Si5 0.854444 0.244296 0.301043
O O1 0.717277 0.876927 0.593944
O O2 0.613209 0.926181 0.487204
O O3 0.734836 0.869080 0.411468
O O4 0.737227 0.000000 0.500000
O O5 0.801127 0.698874 0.250000
O O6 0.839430 0.824742 0.294988
O O7 0.937150 0.721150 0.232990
O O8 0.471978 0.866810 0.637592
O O9 0.478109 0.878639 0.818271
O O10 0.429903 0.752555 0.743476
O O11 0.500000 0.000000 0.416415
O O12 0.801387 0.301387 0.250000
#
# Coordination Sequence:
#
# PCOD8306022 Si02
#       5
#    16  16  16  16  16
#     4  11  20  34  51  78 107 141 178 211 265 322
#     4  11  22  34  52  77 105 139 190 222 260 320
#     4  10  17  34  50  73 103 136 175 218 263 312
#     4  10  18  30  51  73 108 141 168 206 266 329
#     4  10  19  36  55  72 102 149 180 220 267 315
#
# _framework density 17.051116
#
# number of rings (size 3 to 8) (size 9 to 14) (size 15 to 20)
#    0.000    1.600    8.000    3.000    0.000    0.400 
#    0.000    0.000    0.000    0.600    0.000    1.400 
#    0.000    0.000    0.000    0.000   14.400    0.000 
#
# Total GULP energy -495551.133912 kJ/mol
# GULP energy per Si atom -12388.778348 kJ/mol
# Density = 1.701231 g / cm^3
# Si number density = 17.051116 Si / 1000 Ang^3
#
#
#
# Elastic Constant Matrix: (Units=GPa)
#
#
# Indices 1 2 3 4 5 6 
#
# 1 84.3441 63.2732 17.8663 0.0000 0.0000 0.0000
# 2 63.2732 84.3459 17.8693 0.0000 0.0000 0.0000
# 3 17.8663 17.8693 56.3041 0.0000 0.0000 0.0000
# 4 0.0000 0.0000 0.0000 7.4805 0.0000 0.0000
# 5 0.0000 0.0000 0.0000 0.0000 7.4833 0.0000
# 6 0.0000 0.0000 0.0000 0.0000 0.0000 46.2612
#
#
#
# Elastic Compliance Matrix: (Units=1/GPa)
#
#
# Indices 1 2 3 4 5 6 
#
# 1 0.027397 -0.020059 -0.002327 0.000000 0.000000 0.000000
# 2 -0.020059 0.027397 -0.002330 0.000000 0.000000 0.000000
# 3 -0.002327 -0.002330 0.019239 0.000000 0.000000 0.000000
# 4 0.000000 0.000000 0.000000 0.133681 0.000000 0.000000
# 5 0.000000 0.000000 0.000000 0.000000 0.133630 0.000000
# 6 0.000000 0.000000 0.000000 0.000000 0.000000 0.021616
#
#
# Mechanical properties :
#
#
# Convention : Reuss Voigt Hill
#
# Bulk Modulus (GPa) = 40.65049 47.00129 43.82589
# Shear Modulus (GPa) = 11.88794 20.64404 16.26599
#
# Velocity S-wave (km/s) = 2.64331 3.48331 3.09197
# Velocity P-wave (km/s) = 5.76266 6.61836 6.20528
#
# Compressibility (1/GPa) = 0.02459995
#
# Stress axis : x y z
#
# Youngs Moduli (GPa) = 36.49992 36.49988 51.97867
#
# Poissons Ratio (x) = 0.73216 0.12097
# Poissons Ratio (y) = 0.73217 0.12111
# Poissons Ratio (z) = 0.08495 0.08504
#
# Static dielectric constant tensor:
#      x y z
#    x 3.445640 0.000000 0.000000 
#    y 0.000000 3.445590 0.000000 
#    z 0.000000 0.000000 3.290860 
# 
# 
# High freq. dielectric constant tensor:
#      x y z
#    x 1.642330 0.000000 0.000000 
#    y 0.000000 1.642330 0.000000 
#    z 0.000000 0.000000 1.659630 
# 
# From -- ./inp_files/4742.got.cif
#   From: 2010.03.12/outbox.cif.g09.slc.cpg/sg97_3_cif.got.tgz:4742.got - 2010.04.08 20:59:42.
