data_PCOD8306753
_publ_section_title
;
Structure prediction by ZEFSAII (Michael W. Deem and Ramdas Pophale) SiO2 
 PCOD8306753
Probable space group: P 42 C M
;
_chemical_formula_sum "Si O2"
_cell_formula_units_Z 64
_cell_length_a 12.065346
_cell_length_b 12.065346
_cell_length_c 23.086535
_cell_angle_alpha 90.000000
_cell_angle_beta 90.000000
_cell_angle_gamma 90.000000
_cell_volume 3360.766327
_symmetry_space_group_name_H-M "P 42 C M"
_symmetry_group_IT_number 101
_symmetry_cell_setting 'tetragonal'
loop_
_space_group_symop_operation_xyz
x,y,z
-y,x,1/2+z
-x,-y,z
y,-x,1/2+z
-x,y,1/2+z
x,-y,1/2+z
-y,-x,z
y,x,z
loop_
_atom_site_type_symbol
_atom_site_label
_atom_site_fract_x
_atom_site_fract_y
_atom_site_fract_z
Si Si1 0.210810 0.603425 0.790650
Si Si2 0.405225 0.220936 0.717696
Si Si3 0.990994 0.711647 0.229005
Si Si4 0.134834 0.683452 0.025581
Si Si5 0.389620 0.930839 0.900577
Si Si6 0.824160 0.000313 0.343396
Si Si7 0.512146 0.872647 0.109461
Si Si8 0.069459 0.249404 0.099566
O O1 0.301150 0.698851 0.790383
O O2 0.262558 0.488228 0.768116
O O3 0.112427 0.633421 0.745743
O O4 0.167774 0.584720 0.855794
O O5 0.307760 0.307760 0.709443
O O6 0.473160 0.213024 0.658012
O O7 0.357421 0.102721 0.735508
O O8 0.996383 0.813600 0.273751
O O9 0.978708 0.759567 0.164502
O O10 0.244270 0.755731 0.036184
O O11 0.148724 0.562483 0.053327
O O12 0.030838 0.747609 0.053871
O O13 0.118542 0.663521 0.958049
O O14 0.296308 0.009748 0.872248
O O15 0.500000 0.000000 0.914141
O O16 0.888493 0.888493 0.363085
O O17 0.892419 0.107582 0.362877
O O18 0.640665 0.854048 0.093262
O O19 0.500000 0.000000 0.132068
O O20 0.142877 0.142877 0.084637
#
# Coordination Sequence:
#
# PCOD8306753 Si02
#       8
#     8   8   8   8   8   8   8   8
#     4  11  22  38  61  88 119 156 199 248 299 354
#     4  12  22  34  57  88 122 157 195 249 300 346
#     4  11  19  35  56  83 119 160 202 239 289 360
#     4  11  23  40  61  88 119 155 200 247 295 351
#     4  11  22  40  64  86 115 157 205 246 290 352
#     4  10  21  36  56  85 121 156 192 242 306 367
#     4  10  19  37  58  82 117 159 202 238 280 347
#     4  11  22  36  59  89 121 156 195 245 300 352
#
# _framework density 19.043277
#
# number of rings (size 3 to 8) (size 9 to 14) (size 15 to 20)
#    0.000    1.125    3.750    6.750    0.000    1.500 
#    0.000    0.000    0.000    1.875    0.000    0.000 
#    0.000    0.000    0.000    0.000    0.000    0.000 
#
# Total GULP energy -793662.630436 kJ/mol
# GULP energy per Si atom -12400.978601 kJ/mol
# Density = 1.899993 g / cm^3
# Si number density = 19.043277 Si / 1000 Ang^3
#
#
#
# Elastic Constant Matrix: (Units=GPa)
#
#
# Indices 1 2 3 4 5 6 
#
# 1 77.5488 35.0694 24.8025 0.0000 0.0000 0.0019
# 2 35.0694 77.5488 24.8025 0.0000 0.0000 -0.0019
# 3 24.8025 24.8025 110.7738 0.0000 0.0000 0.0000
# 4 0.0000 0.0000 0.0000 18.1465 0.0000 0.0000
# 5 0.0000 0.0000 0.0000 0.0000 18.1465 0.0000
# 6 0.0019 -0.0019 0.0000 0.0000 0.0000 1.2527
#
#
#
# Elastic Compliance Matrix: (Units=1/GPa)
#
#
# Indices 1 2 3 4 5 6 
#
# 1 0.016696 -0.006845 -0.002206 0.000000 0.000000 -0.000036
# 2 -0.006845 0.016696 -0.002206 0.000000 0.000000 0.000036
# 3 -0.002206 -0.002206 0.010015 0.000000 0.000000 0.000000
# 4 0.000000 0.000000 0.000000 0.055107 0.000000 0.000000
# 5 0.000000 0.000000 0.000000 0.000000 0.055107 0.000000
# 6 -0.000036 0.000036 0.000000 0.000000 0.000000 0.798268
#
#
# Mechanical properties :
#
#
# Convention : Reuss Voigt Hill
#
# Bulk Modulus (GPa) = 47.85931 48.35782 48.10857
# Shear Modulus (GPa) = 5.09494 19.58894 12.34194
#
# Velocity S-wave (km/s) = 1.63746 3.21074 2.54854
# Velocity P-wave (km/s) = 5.36297 6.26051 5.82904
#
# Compressibility (1/GPa) = 0.02089457
#
# Stress axis : x y z
#
# Youngs Moduli (GPa) = 59.89478 59.89478 99.84895
#
# Poissons Ratio (x) = 0.40997 0.22024
# Poissons Ratio (y) = 0.40997 0.22024
# Poissons Ratio (z) = 0.13211 0.13211
#
# Static dielectric constant tensor:
#      x y z
#    x 3.470340 0.000000 0.000000 
#    y 0.000000 3.470340 0.000000 
#    z 0.000000 0.000000 3.498230 
# 
# 
# High freq. dielectric constant tensor:
#      x y z
#    x 1.732660 0.000000 0.000000 
#    y 0.000000 1.732660 0.000000 
#    z 0.000000 0.000000 1.741520 
# 
# From -- ./inp_files/2806.got.cif
#   From: 2010.03.12/outbox.cif.g09.slc.cpg/sg101_2_cif.got.tgz:2806.got - 2010.04.14 01:38:52.
