data_PCOD8306607
_publ_section_title
;
Structure prediction by ZEFSAII (Michael W. Deem and Ramdas Pophale) SiO2 
 PCOD8306607
Probable space group: P 4 M M
;
_chemical_formula_sum "Si O2"
_cell_formula_units_Z 36
_cell_length_a 15.919610
_cell_length_b 15.919610
_cell_length_c 7.517636
_cell_angle_alpha 90.000000
_cell_angle_beta 90.000000
_cell_angle_gamma 90.000000
_cell_volume 1905.224431
_symmetry_space_group_name_H-M "P 4 M M"
_symmetry_group_IT_number 99
_symmetry_cell_setting 'tetragonal'
loop_
_space_group_symop_operation_xyz
x,y,z
-y,x,z
-x,-y,z
y,-x,z
-x,y,z
x,-y,z
-y,-x,z
y,x,z
loop_
_atom_site_type_symbol
_atom_site_label
_atom_site_fract_x
_atom_site_fract_y
_atom_site_fract_z
Si Si1 0.743081 0.500000 0.216100
Si Si2 0.770359 0.904807 0.550289
Si Si3 0.500000 0.636171 0.542801
Si Si4 0.904315 0.346288 0.879236
Si Si5 0.321342 0.183981 0.235804
Si Si6 0.500000 0.782650 0.824252
O O1 0.657995 0.500000 0.332207
O O2 0.797230 0.418895 0.266835
O O3 0.725376 0.500000 0.003594
O O4 0.860078 0.860078 0.550843
O O5 0.730359 0.897228 0.744037
O O6 0.708005 0.862706 0.411153
O O7 0.786305 0.000000 0.493440
O O8 0.416954 0.583047 0.587820
O O9 0.500000 0.721015 0.656603
O O10 0.841898 0.419234 0.816748
O O11 0.000000 0.380578 0.888268
O O12 0.877598 0.309310 0.069195
O O13 0.270074 0.270074 0.203251
#
# Coordination Sequence:
#
# PCOD8306607 Si02
#       6
#     4   8   4   8   8   4
#     4  10  21  36  56  81 108 142 184 227 269 317
#     4  10  21  36  55  79 107 141 180 223 273 330
#     4  11  24  39  55  78 110 147 187 230 271 316
#     4  10  20  35  56  82 111 141 176 222 273 326
#     4  10  20  35  56  81 110 145 183 224 273 327
#     4  10  22  37  57  83 110 143 180 222 274 329
#
# _framework density 18.895412
#
# number of rings (size 3 to 8) (size 9 to 14) (size 15 to 20)
#    0.000    1.889    0.000    3.667    0.000    7.333 
#    0.000    3.889    0.000    1.333    0.000    3.111 
#    0.000    0.000    0.000    0.000    0.000    0.000 
#
# Total GULP energy -446499.935361 kJ/mol
# GULP energy per Si atom -12402.775982 kJ/mol
# Density = 1.885240 g / cm^3
# Si number density = 18.895412 Si / 1000 Ang^3
#
#
#
# Elastic Constant Matrix: (Units=GPa)
#
#
# Indices 1 2 3 4 5 6 
#
# 1 115.0193 54.7297 40.7638 0.0000 0.0000 -0.0005
# 2 54.7297 115.0193 40.7638 0.0000 0.0000 0.0005
# 3 40.7638 40.7638 82.9626 0.0000 0.0000 0.0000
# 4 0.0000 0.0000 0.0000 27.0122 0.0000 0.0000
# 5 0.0000 0.0000 0.0000 0.0000 27.0122 0.0000
# 6 -0.0005 0.0005 0.0000 0.0000 0.0000 17.8902
#
#
#
# Elastic Compliance Matrix: (Units=1/GPa)
#
#
# Indices 1 2 3 4 5 6 
#
# 1 0.012149 -0.004438 -0.003789 0.000000 0.000000 0.000000
# 2 -0.004438 0.012149 -0.003789 0.000000 0.000000 0.000000
# 3 -0.003789 -0.003789 0.015777 0.000000 0.000000 0.000000
# 4 0.000000 0.000000 0.000000 0.037020 0.000000 0.000000
# 5 0.000000 0.000000 0.000000 0.000000 0.037020 0.000000
# 6 0.000000 0.000000 0.000000 0.000000 0.000000 0.055897
#
#
# Mechanical properties :
#
#
# Convention : Reuss Voigt Hill
#
# Bulk Modulus (GPa) = 62.33058 65.05730 63.69394
# Shear Modulus (GPa) = 25.07655 26.16586 25.62120
#
# Velocity S-wave (km/s) = 3.64692 3.72529 3.68632
# Velocity P-wave (km/s) = 7.12686 7.28071 7.20419
#
# Compressibility (1/GPa) = 0.01604349
#
# Stress axis : x y z
#
# Youngs Moduli (GPa) = 82.31379 82.31379 63.38445
#
# Poissons Ratio (x) = 0.36531 0.24014
# Poissons Ratio (y) = 0.36531 0.24014
# Poissons Ratio (z) = 0.31186 0.31186
#
# Static dielectric constant tensor:
#      x y z
#    x 3.464980 0.000000 0.000000 
#    y 0.000000 3.464980 0.000000 
#    z 0.000000 0.000000 3.568810 
# 
# 
# High freq. dielectric constant tensor:
#      x y z
#    x 1.735250 0.000000 0.000000 
#    y 0.000000 1.735250 0.000000 
#    z 0.000000 0.000000 1.746820 
# 
# From -- ./inp_files/777.got.cif
#   From: 2010.03.12/outbox.cif.g09.slc.cpg/sg99_cif.got.tgz:777.got - 2010.04.08 21:11:30.
