data_PCOD8306343
_publ_section_title
;
Structure prediction by ZEFSAII (Michael W. Deem and Ramdas Pophale) SiO2 
 PCOD8306343
Probable space group: I 41 2 2
;
_chemical_formula_sum "Si O2"
_cell_formula_units_Z 44
_cell_length_a 10.489111
_cell_length_b 10.489111
_cell_length_c 17.913364
_cell_angle_alpha 90.000000
_cell_angle_beta 90.000000
_cell_angle_gamma 90.000000
_cell_volume 1970.854274
_symmetry_space_group_name_H-M "I 41 2 2"
_symmetry_group_IT_number 98
_symmetry_cell_setting 'tetragonal'
loop_
_space_group_symop_operation_xyz
x,y,z
-y,1/2+x,1/4+z
-x,-y,z
y,1/2-x,1/4+z
x,1/2-y,1/4-z
-x,1/2+y,1/4-z
y,x,-z
-y,-x,-z
1/2+x,1/2+y,1/2+z
1/2-y,x,3/4+z
1/2-x,1/2-y,1/2+z
1/2+y,-x,3/4+z
1/2+x,-y,3/4-z
1/2-x,y,3/4-z
1/2+y,1/2+x,1/2-z
1/2-y,1/2-x,1/2-z
loop_
_atom_site_type_symbol
_atom_site_label
_atom_site_fract_x
_atom_site_fract_y
_atom_site_fract_z
Si Si1 0.518572 0.766419 0.860091
Si Si2 0.500000 0.500000 0.500000
Si Si3 0.250000 0.865185 0.375000
Si Si4 0.946000 0.863000 0.735248
O O1 0.496139 0.878290 0.802277
O O2 0.378411 0.717141 0.884472
O O3 0.594903 0.804225 0.935297
O O4 0.614655 0.668030 0.822104
O O5 0.231868 0.951638 0.301685
O O6 0.000000 0.000000 0.756068
#
# Coordination Sequence:
#
# PCOD8306343 Si02
#       4
#    16   4   8  16
#     4  11  25  44  71 106 146 185 247 292 370 440
#     4  12  28  40  72 112 144 198 228 308 376 436
#     4  10  24  44  76  98 140 196 232 310 354 436
#     4  10  23  45  69 106 136 186 244 287 357 428
#
# _framework density 22.325344000000001
#
# number of rings (size 3 to 8) (size 9 to 14) (size 15 to 20)
#    0.000    1.455    1.818    1.091   10.182    5.818 
#    0.000    5.455    0.000    0.000    0.000    0.000 
#    0.000    0.000    0.000    0.000    0.000    0.000 
#
# Total GULP energy -272748.393086 kJ/mol
# GULP energy per Si atom -12397.654231 kJ/mol
# Density = 2.227453 g / cm^3
# Si number density = 22.325344 Si / 1000 Ang^3
#
#
#
# Elastic Constant Matrix: (Units=GPa)
#
#
# Indices 1 2 3 4 5 6 
#
# 1 -323.3346 501.3431 73.3504 -0.0002 0.0001 0.0000
# 2 501.3431 -323.3345 73.3505 0.0003 -0.0001 0.0000
# 3 73.3504 73.3505 202.6821 0.0000 0.0000 0.0000
# 4 -0.0002 0.0003 0.0000 -116.8100 0.0000 0.0000
# 5 0.0001 -0.0001 0.0000 0.0000 -116.8100 0.0000
# 6 0.0000 0.0000 0.0000 0.0000 0.0000 24.0306
#
#
#
# Elastic Compliance Matrix: (Units=1/GPa)
#
#
# Indices 1 2 3 4 5 6 
#
# 1 0.003396 0.004609 -0.002897 0.000000 0.000000 0.000000
# 2 0.004609 0.003396 -0.002897 0.000000 0.000000 0.000000
# 3 -0.002897 -0.002897 0.007031 0.000000 0.000000 0.000000
# 4 0.000000 0.000000 0.000000 -0.008561 0.000000 0.000000
# 5 0.000000 0.000000 0.000000 0.000000 -0.008561 0.000000
# 6 0.000000 0.000000 0.000000 0.000000 0.000000 0.041614
#
#
# Mechanical properties :
#
#
# Convention : Reuss Voigt Hill
#
# Bulk Modulus (GPa) = 87.31413 94.67787 90.99600
# Shear Modulus (GPa) = 112.35115 -114.71992 -1.18439
#
# Velocity S-wave (km/s) = 7.10167 -7.17615 -0.72915
# Velocity P-wave (km/s) = 10.31696 5.11492 6.33551
#
# Compressibility (1/GPa) = 0.01145290
#
# Stress axis : x y z
#
# Youngs Moduli (GPa) = 294.43460 294.43457 142.23238
#
# Poissons Ratio (x) = -1.35703 0.41206
# Poissons Ratio (y) = -1.35703 0.41206
# Poissons Ratio (z) = 0.85301 0.85301
#
# Static dielectric constant tensor:
#      x y z
#    x 3.747310 0.000000 0.000000 
#    y 0.000000 3.747310 0.000000 
#    z 0.000000 0.000000 4.224800 
# 
# 
# High freq. dielectric constant tensor:
#      x y z
#    x 1.881240 0.000000 0.000000 
#    y 0.000000 1.881240 0.000000 
#    z 0.000000 0.000000 1.901360 
# 
# From -- ./inp_files/7110.got.cif
#   From: 2010.03.12/outbox.cif.g09.slc.cpg/sg98_4_cif.got.tgz:7110.got - 2010.04.08 21:04:41.
