data_PCOD8306817
_publ_section_title
;
Structure prediction by ZEFSAII (Michael W. Deem and Ramdas Pophale) SiO2 
 PCOD8306817
Probable space group: P 42 N M
;
_chemical_formula_sum "Si O2"
_cell_formula_units_Z 64
_cell_length_a 20.045461
_cell_length_b 20.045461
_cell_length_c 10.704003
_cell_angle_alpha 90.000000
_cell_angle_beta 90.000000
_cell_angle_gamma 90.000000
_cell_volume 4301.087909
_symmetry_space_group_name_H-M "P 42 N M"
_symmetry_group_IT_number 102
_symmetry_cell_setting 'tetragonal'
loop_
_space_group_symop_operation_xyz
x,y,z
1/2-y,1/2+x,1/2+z
-x,-y,z
1/2+y,1/2-x,1/2+z
1/2-x,1/2+y,1/2+z
1/2+x,1/2-y,1/2+z
-y,-x,z
y,x,z
loop_
_atom_site_type_symbol
_atom_site_label
_atom_site_fract_x
_atom_site_fract_y
_atom_site_fract_z
Si Si1 0.643971 0.250488 0.040560
Si Si2 0.983616 0.384250 0.540685
Si Si3 0.711222 0.046226 0.943251
Si Si4 0.115750 0.516380 0.637853
Si Si5 0.250479 0.356020 0.637977
Si Si6 0.142565 0.600667 0.867915
Si Si7 0.642559 0.100672 0.310622
Si Si8 0.288774 0.046217 0.735285
O O1 0.678870 0.321131 0.010658
O O2 0.697256 0.197265 0.089269
O O3 0.586342 0.262203 0.145354
O O4 0.611522 0.218604 0.916376
O O5 0.954658 0.454658 0.589271
O O6 0.929174 0.350534 0.448564
O O7 0.051639 0.397150 0.463740
O O8 0.996781 0.334965 0.655057
O O9 0.668159 0.100441 0.866783
O O10 0.748475 0.000005 0.839269
O O11 0.762196 0.086351 0.033182
O O12 0.665031 0.996789 0.023477
O O13 0.149471 0.570818 0.729974
O O14 0.102845 0.448357 0.714798
O O15 0.321121 0.321121 0.667881
O O16 0.218596 0.388471 0.762160
O O17 0.600434 0.168164 0.311752
#
# Coordination Sequence:
#
# PCOD8306817 Si02
#       8
#     8   8   8   8   8   8   8   8
#     4   8  15  28  44  55  70 101 145 177 196 234
#     4  10  17  26  35  51  81 113 136 170 193 240
#     4  10  17  26  38  58  80 107 133 171 209 240
#     4  10  17  26  35  51  81 113 136 170 193 240
#     4   8  15  28  44  55  70 101 145 177 196 234
#     4   9  18  27  36  54  76 109 147 165 200 234
#     4   9  18  27  36  54  76 109 147 165 200 234
#     4  10  17  26  38  58  80 107 133 171 209 240
#
# _framework density 14.879956
#
# number of rings (size 3 to 8) (size 9 to 14) (size 15 to 20)
#    0.000    2.750    2.500    2.250    0.000    2.000 
#    0.000    0.000    0.000    2.250    0.000    0.000 
#    0.000    0.500    0.000    5.250    0.000    0.000 
#
# Total GULP energy -793065.700351 kJ/mol
# GULP energy per Si atom -12391.651568 kJ/mol
# Density = 1.484609 g / cm^3
# Si number density = 14.879956 Si / 1000 Ang^3
#
#
#
# Elastic Constant Matrix: (Units=GPa)
#
#
# Indices 1 2 3 4 5 6 
#
# 1 48.5994 33.7492 19.2065 0.0000 0.0000 0.0000
# 2 33.7492 48.5994 19.2065 0.0000 0.0000 0.0000
# 3 19.2065 19.2065 52.0965 0.0000 0.0000 0.0000
# 4 0.0000 0.0000 0.0000 13.9198 0.0000 0.0000
# 5 0.0000 0.0000 0.0000 0.0000 13.9198 0.0000
# 6 0.0000 0.0000 0.0000 0.0000 0.0000 32.8129
#
#
#
# Elastic Compliance Matrix: (Units=1/GPa)
#
#
# Indices 1 2 3 4 5 6 
#
# 1 0.041002 -0.026337 -0.005407 0.000000 0.000000 0.000000
# 2 -0.026337 0.041002 -0.005407 0.000000 0.000000 0.000000
# 3 -0.005407 -0.005407 0.023182 0.000000 0.000000 0.000000
# 4 0.000000 0.000000 0.000000 0.071840 0.000000 0.000000
# 5 0.000000 0.000000 0.000000 0.000000 0.071840 0.000000
# 6 0.000000 0.000000 0.000000 0.000000 0.000000 0.030476
#
#
# Mechanical properties :
#
#
# Convention : Reuss Voigt Hill
#
# Bulk Modulus (GPa) = 32.37730 32.62442 32.50086
# Shear Modulus (GPa) = 13.73858 17.27270 15.50564
#
# Velocity S-wave (km/s) = 3.04187 3.41075 3.23158
# Velocity P-wave (km/s) = 5.84325 6.12239 5.98445
#
# Compressibility (1/GPa) = 0.03088583
#
# Stress axis : x y z
#
# Youngs Moduli (GPa) = 24.38886 24.38886 43.13722
#
# Poissons Ratio (x) = 0.64232 0.23323
# Poissons Ratio (y) = 0.64232 0.23323
# Poissons Ratio (z) = 0.13187 0.13187
#
# Static dielectric constant tensor:
#      x y z
#    x 2.712390 0.000000 0.000000 
#    y 0.000000 2.712390 0.000000 
#    z 0.000000 0.000000 2.999630 
# 
# 
# High freq. dielectric constant tensor:
#      x y z
#    x 1.527350 0.000000 0.000000 
#    y 0.000000 1.527350 0.000000 
#    z 0.000000 0.000000 1.577320 
# 
# From -- ./inp_files/1957.got.cif
#   From: 2010.03.12/outbox.cif.g09.slc.cpg/sg102_1_cif.got.tgz:1957.got - 2010.04.14 01:40:42.
