data_PCOD8306843
_publ_section_title
;
Structure prediction by ZEFSAII (Michael W. Deem and Ramdas Pophale) SiO2 
 PCOD8306843
Probable space group: P 42 N M
;
_chemical_formula_sum "Si O2"
_cell_formula_units_Z 48
_cell_length_a 11.321833
_cell_length_b 11.321833
_cell_length_c 18.798803
_cell_angle_alpha 90.000000
_cell_angle_beta 90.000000
_cell_angle_gamma 90.000000
_cell_volume 2409.703930
_symmetry_space_group_name_H-M "P 42 N M"
_symmetry_group_IT_number 102
_symmetry_cell_setting 'tetragonal'
loop_
_space_group_symop_operation_xyz
x,y,z
1/2-y,1/2+x,1/2+z
-x,-y,z
1/2+y,1/2-x,1/2+z
1/2-x,1/2+y,1/2+z
1/2+x,1/2-y,1/2+z
-y,-x,z
y,x,z
loop_
_atom_site_type_symbol
_atom_site_label
_atom_site_fract_x
_atom_site_fract_y
_atom_site_fract_z
Si Si1 0.528846 0.866649 0.793510
Si Si2 0.454240 0.271541 0.430568
Si Si3 0.727995 0.455922 0.272525
Si Si4 0.261008 0.072112 0.427426
Si Si5 0.848617 0.341749 0.678150
Si Si6 0.161573 0.353183 0.018190
O O1 0.667707 0.859164 0.778966
O O2 0.490701 0.768435 0.850611
O O3 0.463449 0.839276 0.720242
O O4 0.500000 0.000000 0.821674
O O5 0.394724 0.394724 0.459741
O O6 0.489837 0.295380 0.349646
O O7 0.354663 0.174588 0.431084
O O8 0.563626 0.224459 0.476963
O O9 0.610958 0.389043 0.246145
O O10 0.756738 0.554333 0.213943
O O11 0.129436 0.129436 0.438792
O O12 0.301728 0.977571 0.485144
O O13 0.722676 0.277325 0.679814
O O14 0.882239 0.379521 0.598185
O O15 0.281357 0.281357 0.020236
#
# Coordination Sequence:
#
# PCOD8306843 Si02
#       6
#     8   8   8   8   8   8
#     4  10  18  35  60  86 115 155 199 245 296 355
#     4  11  22  38  63  92 121 159 209 261 308 365
#     4  11  22  36  60  93 122 153 199 253 308 363
#     4  11  21  36  61  88 121 162 207 249 300 373
#     4  10  22  40  61  85 118 161 201 246 303 365
#     4  11  24  41  60  89 126 162 205 255 315 374
#
# _framework density 19.919459
#
# number of rings (size 3 to 8) (size 9 to 14) (size 15 to 20)
#    0.000    1.333    5.000    2.000    0.000    7.333 
#    0.000    4.167    0.000    2.500    0.000    0.000 
#    0.000    0.000    0.000    0.000    0.000    0.000 
#
# Total GULP energy -594962.909235 kJ/mol
# GULP energy per Si atom -12395.060609 kJ/mol
# Density = 1.987412 g / cm^3
# Si number density = 19.919459 Si / 1000 Ang^3
#
#
#
# Elastic Constant Matrix: (Units=GPa)
#
#
# Indices 1 2 3 4 5 6 
#
# 1 64.6426 37.0746 24.9551 0.0000 0.0000 0.0000
# 2 37.0746 64.6426 24.9551 0.0000 0.0000 0.0000
# 3 24.9551 24.9551 120.7588 0.0000 0.0000 0.0000
# 4 0.0000 0.0000 0.0000 -162.4053 0.0000 0.0000
# 5 0.0000 0.0000 0.0000 0.0000 -162.4053 0.0000
# 6 0.0000 0.0000 0.0000 0.0000 0.0000 36.7873
#
#
#
# Elastic Compliance Matrix: (Units=1/GPa)
#
#
# Indices 1 2 3 4 5 6 
#
# 1 0.023607 -0.012667 -0.002261 0.000000 0.000000 0.000000
# 2 -0.012667 0.023607 -0.002261 0.000000 0.000000 0.000000
# 3 -0.002261 -0.002261 0.009215 0.000000 0.000000 0.000000
# 4 0.000000 0.000000 0.000000 -0.006157 0.000000 0.000000
# 5 0.000000 0.000000 0.000000 0.000000 -0.006157 0.000000
# 6 0.000000 0.000000 0.000000 0.000000 0.000000 0.027183
#
#
# Mechanical properties :
#
#
# Convention : Reuss Voigt Hill
#
# Bulk Modulus (GPa) = 45.34545 47.11264 46.22904
# Shear Modulus (GPa) = 44.23754 -46.73405 -1.24826
#
# Velocity S-wave (km/s) = 4.71767 -4.84896 -0.79247
# Velocity P-wave (km/s) = 7.24493 2.76532 4.73508
#
# Compressibility (1/GPa) = 0.02205293
#
# Stress axis : x y z
#
# Youngs Moduli (GPa) = 42.35993 42.35993 108.51392
#
# Poissons Ratio (x) = 0.53656 0.24534
# Poissons Ratio (y) = 0.53656 0.24534
# Poissons Ratio (z) = 0.09577 0.09577
#
# Static dielectric constant tensor:
#      x y z
#    x 3.929390 0.000000 0.000000 
#    y 0.000000 3.929390 0.000000 
#    z 0.000000 0.000000 3.853550 
# 
# 
# High freq. dielectric constant tensor:
#      x y z
#    x 1.778550 0.000000 0.000000 
#    y 0.000000 1.778550 0.000000 
#    z 0.000000 0.000000 1.768060 
# 
# From -- ./inp_files/2726.got.cif
#   From: 2010.03.12/outbox.cif.g09.slc.cpg/sg102_2_cif.got.tgz:2726.got - 2010.04.14 01:40:42.
