data_PCOD8306042
_publ_section_title
;
Structure prediction by ZEFSAII (Michael W. Deem and Ramdas Pophale) SiO2 
 PCOD8306042
Probable space group: I 4 2 2 
;
_chemical_formula_sum "Si O2"
_cell_formula_units_Z 112
_cell_length_a 17.363497
_cell_length_b 17.363497
_cell_length_c 20.325815
_cell_angle_alpha 90.000000
_cell_angle_beta 90.000000
_cell_angle_gamma 90.000000
_cell_volume 6128.050861
_symmetry_space_group_name_H-M "I 4 2 2 "
_symmetry_group_IT_number 97
_symmetry_cell_setting 'tetragonal'
loop_
_space_group_symop_operation_xyz
x,y,z
-y,x,z
-x,-y,z
y,-x,z
x,-y,-z
-x,y,-z
y,x,-z
-y,-x,-z
1/2+x,1/2+y,1/2+z
1/2-y,1/2+x,1/2+z
1/2-x,1/2-y,1/2+z
1/2+y,1/2-x,1/2+z
1/2+x,1/2-y,1/2-z
1/2-x,1/2+y,1/2-z
1/2+y,1/2+x,1/2-z
1/2-y,1/2-x,1/2-z
loop_
_atom_site_type_symbol
_atom_site_label
_atom_site_fract_x
_atom_site_fract_y
_atom_site_fract_z
Si Si1 0.188973 0.590316 0.801896
Si Si2 0.694825 0.553992 0.564025
Si Si3 0.813554 0.183003 0.247858
Si Si4 0.183529 0.312785 0.574091
Si Si5 0.184995 0.307351 0.427683
Si Si6 0.910335 0.309096 0.298421
Si Si7 0.819984 0.900717 0.888398
O O1 0.133714 0.633714 0.750000
O O2 0.278711 0.610956 0.788028
O O3 0.173714 0.617178 0.876518
O O4 0.175126 0.500468 0.794561
O O5 0.699575 0.500000 0.500000
O O6 0.768443 0.608079 0.575646
O O7 0.685968 0.492367 0.624730
O O8 0.618931 0.607653 0.564343
O O9 0.750792 0.250792 0.250000
O O10 0.891297 0.220486 0.277370
O O11 0.829484 0.152847 0.175128
O O12 0.149343 0.299115 0.500754
O O13 0.233665 0.237217 0.593203
O O14 0.115375 0.321906 0.626291
O O15 0.242895 0.379497 0.428852
O O16 0.869386 0.369386 0.250000
#
# Coordination Sequence:
#
# PCOD8306042 Si02
#       7
#    16  16  16  16  16  16  16
#     4  11  22  37  64  89 116 155 192 242 293 353
#     4  11  21  34  54  81 114 158 192 236 289 343
#     4  10  19  37  59  83 109 147 200 241 280 336
#     4  10  21  36  59  86 114 147 195 247 286 344
#     4  10  18  37  60  84 110 146 197 238 285 346
#     4  11  23  39  60  90 118 150 195 248 296 344
#     4  11  21  33  53  80 114 153 197 235 281 344
#
# _framework density 18.276610999999999
#
# number of rings (size 3 to 8) (size 9 to 14) (size 15 to 20)
#    0.000    1.429    5.714    3.000    4.000    1.143 
#    0.000    0.714    0.000    0.429    0.000    0.000 
#    0.000    2.286    0.000    0.000    0.000    0.000 
#
# Total GULP energy -693859.429212 kJ/mol
# GULP energy per Si atom -12390.346950 kJ/mol
# Density = 1.823501 g / cm^3
# Si number density = 18.276611 Si / 1000 Ang^3
#
#
#
# Elastic Constant Matrix: (Units=GPa)
#
#
# Indices 1 2 3 4 5 6 
#
# 1 176.2321 -36.0624 47.5307 0.0001 0.0000 0.0000
# 2 -36.0624 176.2320 47.5305 -0.0001 0.0000 0.0000
# 3 47.5307 47.5305 128.5493 0.0000 0.0000 0.0000
# 4 0.0001 -0.0001 0.0000 22.5955 0.0000 0.0000
# 5 0.0000 0.0000 0.0000 0.0000 22.5955 0.0000
# 6 0.0000 0.0000 0.0000 0.0000 0.0000 11.5705
#
#
#
# Elastic Compliance Matrix: (Units=1/GPa)
#
#
# Indices 1 2 3 4 5 6 
#
# 1 0.007116 0.002406 -0.003521 0.000000 0.000000 0.000000
# 2 0.002406 0.007116 -0.003521 0.000000 0.000000 0.000000
# 3 -0.003521 -0.003521 0.010383 0.000000 0.000000 0.000000
# 4 0.000000 0.000000 0.000000 0.044257 0.000000 0.000000
# 5 0.000000 0.000000 0.000000 0.000000 0.044257 0.000000
# 6 0.000000 0.000000 0.000000 0.000000 0.000000 0.086427
#
#
# Mechanical properties :
#
#
# Convention : Reuss Voigt Hill
#
# Bulk Modulus (GPa) = 65.17337 66.55678 65.86507
# Shear Modulus (GPa) = 23.37096 39.48661 31.42879
#
# Velocity S-wave (km/s) = 3.57982 4.65316 4.15133
# Velocity P-wave (km/s) = 7.26799 8.08484 7.68727
#
# Compressibility (1/GPa) = 0.01534369
#
# Stress axis : x y z
#
# Youngs Moduli (GPa) = 140.52513 140.52514 96.31472
#
# Poissons Ratio (x) = -0.33807 0.33909
# Poissons Ratio (y) = -0.33807 0.33909
# Poissons Ratio (z) = 0.49474 0.49474
#
# Static dielectric constant tensor:
#      x y z
#    x 3.385880 0.000000 0.000000 
#    y 0.000000 3.385880 0.000000 
#    z 0.000000 0.000000 3.862590 
# 
# 
# High freq. dielectric constant tensor:
#      x y z
#    x 1.685840 0.000000 0.000000 
#    y 0.000000 1.685840 0.000000 
#    z 0.000000 0.000000 1.724370 
# 
# From -- ./inp_files/6776.got.cif
#   From: 2010.03.12/outbox.cif.g09.slc.cpg/sg97_4_cif.got.tgz:6776.got - 2010.04.08 20:59:42.
