data_PCOD8306854
_publ_section_title
;
Structure prediction by ZEFSAII (Michael W. Deem and Ramdas Pophale) SiO2 
 PCOD8306854
Probable space group: P 42 N M
;
_chemical_formula_sum "Si O2"
_cell_formula_units_Z 56
_cell_length_a 13.373353
_cell_length_b 13.373353
_cell_length_c 16.605421
_cell_angle_alpha 90.000000
_cell_angle_beta 90.000000
_cell_angle_gamma 90.000000
_cell_volume 2969.822597
_symmetry_space_group_name_H-M "P 42 N M"
_symmetry_group_IT_number 102
_symmetry_cell_setting 'tetragonal'
loop_
_space_group_symop_operation_xyz
x,y,z
1/2-y,1/2+x,1/2+z
-x,-y,z
1/2+y,1/2-x,1/2+z
1/2-x,1/2+y,1/2+z
1/2+x,1/2-y,1/2+z
-y,-x,z
y,x,z
loop_
_atom_site_type_symbol
_atom_site_label
_atom_site_fract_x
_atom_site_fract_y
_atom_site_fract_z
Si Si1 0.498149 0.213435 0.410570
Si Si2 0.225848 0.382910 0.680619
Si Si3 0.417738 0.738548 0.095798
Si Si4 0.881066 0.711935 0.425804
Si Si5 0.894599 0.544161 0.829473
Si Si6 0.835211 0.998937 0.747993
Si Si7 0.502099 0.338694 0.561564
O O1 0.388501 0.181665 0.440457
O O2 0.576525 0.121404 0.401405
O O3 0.487726 0.265396 0.324405
O O4 0.539358 0.286630 0.479330
O O5 0.322736 0.322736 0.712438
O O6 0.166752 0.318812 0.615612
O O7 0.154067 0.400238 0.755132
O O8 0.260287 0.483412 0.634141
O O9 0.372396 0.627605 0.092752
O O10 0.501758 0.733090 0.166163
O O11 0.450275 0.765095 0.004629
O O12 0.805165 0.805165 0.405861
O O13 0.960591 0.686746 0.355748
O O14 0.000000 0.500000 0.798949
O O15 0.893413 0.893413 0.756275
O O16 0.909452 0.090549 0.743184
O O17 0.589781 0.410220 0.592107
O O18 0.400952 0.400952 0.543235
#
# Coordination Sequence:
#
# PCOD8306854 Si02
#       7
#     8   8   8   8   8   8   8
#     4  11  19  33  53  81 115 146 182 229 287 339
#     4  10  19  37  59  78 108 152 189 220 274 336
#     4   9  17  33  56  76 101 145 186 219 270 335
#     4  10  20  37  58  77 106 151 193 229 276 336
#     4  10  23  38  54  86 113 146 190 233 276 333
#     4  10  19  30  52  85 113 139 178 233 286 330
#     4  10  20  33  54  85 116 147 188 234 279 332
#
# _framework density 18.856345000000001
#
# number of rings (size 3 to 8) (size 9 to 14) (size 15 to 20)
#    0.000    2.000    2.857    1.714    0.000    2.286 
#    2.571    0.714    0.000    4.286    0.000    0.000 
#    0.000    0.000    0.000    0.000    0.000    0.000 
#
# Total GULP energy -693948.389936 kJ/mol
# GULP energy per Si atom -12391.935535 kJ/mol
# Density = 1.881343 g / cm^3
# Si number density = 18.856345 Si / 1000 Ang^3
#
#
#
# Elastic Constant Matrix: (Units=GPa)
#
#
# Indices 1 2 3 4 5 6 
#
# 1 66.3449 24.2999 30.2830 0.0000 0.0000 -0.0001
# 2 24.2999 66.3449 30.2830 0.0000 0.0000 0.0001
# 3 30.2830 30.2830 83.8141 0.0000 0.0000 0.0000
# 4 0.0000 0.0000 0.0000 27.9489 0.0000 0.0000
# 5 0.0000 0.0000 0.0000 0.0000 27.9489 0.0000
# 6 -0.0001 0.0001 0.0000 0.0000 0.0000 28.5474
#
#
#
# Elastic Compliance Matrix: (Units=1/GPa)
#
#
# Indices 1 2 3 4 5 6 
#
# 1 0.019164 -0.004621 -0.005255 0.000000 0.000000 0.000000
# 2 -0.004621 0.019164 -0.005255 0.000000 0.000000 0.000000
# 3 -0.005255 -0.005255 0.015728 0.000000 0.000000 0.000000
# 4 0.000000 0.000000 0.000000 0.035780 0.000000 0.000000
# 5 0.000000 0.000000 0.000000 0.000000 0.035780 0.000000
# 6 0.000000 0.000000 0.000000 0.000000 0.000000 0.035029
#
#
# Mechanical properties :
#
#
# Convention : Reuss Voigt Hill
#
# Bulk Modulus (GPa) = 42.02384 42.91508 42.46946
# Shear Modulus (GPa) = 25.14644 25.66489 25.40566
#
# Velocity S-wave (km/s) = 3.65578 3.69328 3.67458
# Velocity P-wave (km/s) = 6.33675 6.40277 6.36984
#
# Compressibility (1/GPa) = 0.02379602
#
# Stress axis : x y z
#
# Youngs Moduli (GPa) = 52.18243 52.18243 63.57988
#
# Poissons Ratio (x) = 0.24111 0.33408
# Poissons Ratio (y) = 0.24111 0.33408
# Poissons Ratio (z) = 0.27420 0.27420
#
# Static dielectric constant tensor:
#      x y z
#    x 3.433380 0.000000 0.000000 
#    y 0.000000 3.433380 0.000000 
#    z 0.000000 0.000000 3.397100 
# 
# 
# High freq. dielectric constant tensor:
#      x y z
#    x 1.719760 0.000000 0.000000 
#    y 0.000000 1.719760 0.000000 
#    z 0.000000 0.000000 1.731730 
# 
# From -- ./inp_files/2386.got.cif
#   From: 2010.03.12/outbox.cif.g09.slc.cpg/sg102_2_cif.got.tgz:2386.got - 2010.04.14 01:40:42.
