data_PCOD8306217
_publ_section_title
;
Structure prediction by ZEFSAII (Michael W. Deem and Ramdas Pophale) SiO2 
 PCOD8306217
Probable space group: I 41 2 2
;
_chemical_formula_sum "Si O2"
_cell_formula_units_Z 48
_cell_length_a 10.554204
_cell_length_b 10.554204
_cell_length_c 17.165610
_cell_angle_alpha 90.000000
_cell_angle_beta 90.000000
_cell_angle_gamma 90.000000
_cell_volume 1912.098276
_symmetry_space_group_name_H-M "I 41 2 2"
_symmetry_group_IT_number 98
_symmetry_cell_setting 'tetragonal'
loop_
_space_group_symop_operation_xyz
x,y,z
-y,1/2+x,1/4+z
-x,-y,z
y,1/2-x,1/4+z
x,1/2-y,1/4-z
-x,1/2+y,1/4-z
y,x,-z
-y,-x,-z
1/2+x,1/2+y,1/2+z
1/2-y,x,3/4+z
1/2-x,1/2-y,1/2+z
1/2+y,-x,3/4+z
1/2+x,-y,3/4-z
1/2-x,y,3/4-z
1/2+y,1/2+x,1/2-z
1/2-y,1/2-x,1/2-z
loop_
_atom_site_type_symbol
_atom_site_label
_atom_site_fract_x
_atom_site_fract_y
_atom_site_fract_z
Si Si1 0.114595 0.594449 0.584149
Si Si2 0.780634 0.985301 0.518289
Si Si3 0.729304 0.920793 0.962348
O O1 0.194330 0.589442 0.664454
O O2 0.201785 0.544122 0.513572
O O3 0.000000 0.500000 0.596127
O O4 0.061456 0.734175 0.559317
O O5 0.909274 0.909274 0.500000
O O6 0.672148 0.890268 0.544739
O O7 0.750000 0.969561 0.875000
O O8 0.848249 0.848249 0.000000
#
# Coordination Sequence:
#
# PCOD8306217 Si02
#       3
#    16  16  16
#     4  10  22  40  71 107 139 189 241 292 361 425
#     4  10  22  41  73 105 142 185 240 299 358 427
#     4  10  18  35  69 108 145 191 235 283 357 433
#
# _framework density 25.103311999999999
#
# number of rings (size 3 to 8) (size 9 to 14) (size 15 to 20)
#    0.000    2.000    3.333    0.000    0.000    0.667 
#    0.000    1.667   29.333    0.000    0.000    0.000 
#    0.000    0.000    0.000    0.000    0.000    0.000 
#
# Total GULP energy -297511.440974 kJ/mol
# GULP energy per Si atom -12396.310041 kJ/mol
# Density = 2.504618 g / cm^3
# Si number density = 25.103312 Si / 1000 Ang^3
#
#
#
# Elastic Constant Matrix: (Units=GPa)
#
#
# Indices 1 2 3 4 5 6 
#
# 1 61.8468 75.4550 53.9751 0.0000 0.0000 0.0000
# 2 75.4550 61.8468 53.9751 0.0000 0.0000 0.0000
# 3 53.9751 53.9751 238.0600 0.0000 0.0000 0.0000
# 4 0.0000 0.0000 0.0000 19.8755 0.0000 0.0000
# 5 0.0000 0.0000 0.0000 0.0000 19.8755 0.0000
# 6 0.0000 0.0000 0.0000 0.0000 0.0000 36.9822
#
#
#
# Elastic Compliance Matrix: (Units=1/GPa)
#
#
# Indices 1 2 3 4 5 6 
#
# 1 -0.032311 0.041174 -0.002010 0.000000 0.000000 0.000000
# 2 0.041174 -0.032311 -0.002010 0.000000 0.000000 0.000000
# 3 -0.002010 -0.002010 0.005112 0.000000 0.000000 0.000000
# 4 0.000000 0.000000 0.000000 0.050313 0.000000 0.000000
# 5 0.000000 0.000000 0.000000 0.000000 0.050313 0.000000
# 6 0.000000 0.000000 0.000000 0.000000 0.000000 0.027040
#
#
# Mechanical properties :
#
#
# Convention : Reuss Voigt Hill
#
# Bulk Modulus (GPa) = 67.56729 80.95157 74.25943
# Shear Modulus (GPa) = -4098.25971 27.23654 -2035.51159
#
# Velocity S-wave (km/s) = -40.44875 3.29747 -28.50639
# Velocity P-wave (km/s) = 46.41653 6.84216 32.46290
#
# Compressibility (1/GPa) = 0.01480006
#
# Stress axis : x y z
#
# Youngs Moduli (GPa) = -30.94936 -30.94936 195.62335
#
# Poissons Ratio (x) = 1.27431 0.39311
# Poissons Ratio (y) = 1.27431 0.39311
# Poissons Ratio (z) = -0.06219 -0.06219
#
# Static dielectric constant tensor:
#      x y z
#    x 4.554760 0.000000 0.000000 
#    y 0.000000 4.554760 0.000000 
#    z 0.000000 0.000000 4.820660 
# 
# 
# High freq. dielectric constant tensor:
#      x y z
#    x 1.992800 0.000000 0.000000 
#    y 0.000000 1.992800 0.000000 
#    z 0.000000 0.000000 2.029580 
# 
# From -- ./inp_files/7193.got.cif
#   From: 2010.03.12/outbox.cif.g09.slc.cpg/sg98_4_cif.got.tgz:7193.got - 2010.04.08 21:04:41.
