data_PCOD8306554
_publ_section_title
;
Structure prediction by ZEFSAII (Michael W. Deem and Ramdas Pophale) SiO2 
 PCOD8306554
Probable space group: P 4 M M
;
_chemical_formula_sum "Si O2"
_cell_formula_units_Z 56
_cell_length_a 13.747391
_cell_length_b 13.747391
_cell_length_c 18.060611
_cell_angle_alpha 90.000000
_cell_angle_beta 90.000000
_cell_angle_gamma 90.000000
_cell_volume 3413.288586
_symmetry_space_group_name_H-M "P 4 M M"
_symmetry_group_IT_number 99
_symmetry_cell_setting 'tetragonal'
loop_
_space_group_symop_operation_xyz
x,y,z
-y,x,z
-x,-y,z
y,-x,z
-x,y,z
x,-y,z
-y,-x,z
y,x,z
loop_
_atom_site_type_symbol
_atom_site_label
_atom_site_fract_x
_atom_site_fract_y
_atom_site_fract_z
Si Si1 0.886952 0.273764 0.145000
Si Si2 0.275631 0.885424 0.823045
Si Si3 0.735688 0.890506 0.984248
Si Si4 0.768040 0.611517 0.425028
Si Si5 0.772743 0.385378 0.702772
Si Si6 0.892442 0.615133 0.560833
Si Si7 0.388536 0.769852 0.257524
O O1 0.824346 0.175655 0.157336
O O2 0.867879 0.319800 0.062050
O O3 0.856312 0.355449 0.203703
O O4 0.000000 0.248055 0.156984
O O5 0.175224 0.824777 0.811035
O O6 0.359029 0.846729 0.768712
O O7 0.255599 0.000000 0.808450
O O8 0.319463 0.867347 0.906678
O O9 0.836890 0.836890 0.984998
O O10 0.769443 0.000000 0.983735
O O11 0.742257 0.500000 0.441433
O O12 0.668462 0.668462 0.438165
O O13 0.849626 0.649788 0.481925
O O14 0.807212 0.626569 0.341631
O O15 0.751087 0.500000 0.703962
O O16 0.670589 0.329412 0.711978
O O17 0.822729 0.349841 0.626789
O O18 0.901146 0.500000 0.563335
O O19 0.000000 0.661464 0.569865
O O20 0.500000 0.743567 0.241828
O O21 0.327654 0.672347 0.241645
#
# Coordination Sequence:
#
# PCOD8306554 Si02
#       7
#     8   8   8   8   8   8   8
#     4   9  17  29  45  66  92 120 150 185 226 273
#     4   9  17  29  46  69  95 122 152 184 221 268
#     4   8  14  25  41  62  89 118 147 182 223 267
#     4   9  17  29  45  66  91 117 147 183 223 268
#     4  10  20  33  49  68  90 118 153 193 235 275
#     4   9  17  29  45  65  89 116 144 174 211 258
#     4   9  18  31  46  65  89 118 153 193 234 273
#
# _framework density 16.406464
#
# number of rings (size 3 to 8) (size 9 to 14) (size 15 to 20)
#    0.000    3.000    0.000    0.857    0.000    2.571 
#    0.000    6.429    0.000    5.143    0.000    0.000 
#    0.000    8.286    0.000    0.571    0.000    0.286 
#
# Total GULP energy -693847.971825 kJ/mol
# GULP energy per Si atom -12390.142354 kJ/mol
# Density = 1.636912 g / cm^3
# Si number density = 16.406464 Si / 1000 Ang^3
#
#
#
# Elastic Constant Matrix: (Units=GPa)
#
#
# Indices 1 2 3 4 5 6 
#
# 1 76.0043 30.8028 49.6869 0.0000 0.0000 0.0000
# 2 30.8028 76.0043 49.6869 0.0000 0.0000 0.0000
# 3 49.6869 49.6869 129.0642 0.0000 0.0000 0.0000
# 4 0.0000 0.0000 0.0000 24.5200 0.0000 0.0000
# 5 0.0000 0.0000 0.0000 0.0000 24.5200 0.0000
# 6 0.0000 0.0000 0.0000 0.0000 0.0000 12.0772
#
#
#
# Elastic Compliance Matrix: (Units=1/GPa)
#
#
# Indices 1 2 3 4 5 6 
#
# 1 0.018355 -0.003768 -0.005616 0.000000 0.000000 0.000000
# 2 -0.003768 0.018355 -0.005616 0.000000 0.000000 0.000000
# 3 -0.005616 -0.005616 0.012072 0.000000 0.000000 0.000000
# 4 0.000000 0.000000 0.000000 0.040783 0.000000 0.000000
# 5 0.000000 0.000000 0.000000 0.000000 0.040783 0.000000
# 6 0.000000 0.000000 0.000000 0.000000 0.000000 0.082801
#
#
# Mechanical properties :
#
#
# Convention : Reuss Voigt Hill
#
# Bulk Modulus (GPa) = 53.23730 60.15846 56.69788
# Shear Modulus (GPa) = 20.04726 22.28317 21.16521
#
# Velocity S-wave (km/s) = 3.49938 3.68937 3.59563
# Velocity P-wave (km/s) = 6.98906 7.40916 7.20218
#
# Compressibility (1/GPa) = 0.01878382
#
# Stress axis : x y z
#
# Youngs Moduli (GPa) = 54.47962 54.47962 82.83523
#
# Poissons Ratio (x) = 0.20526 0.46520
# Poissons Ratio (y) = 0.20526 0.46520
# Poissons Ratio (z) = 0.30596 0.30596
#
# Static dielectric constant tensor:
#      x y z
#    x 2.923220 0.000000 0.000000 
#    y 0.000000 2.923220 0.000000 
#    z 0.000000 0.000000 3.584430 
# 
# 
# High freq. dielectric constant tensor:
#      x y z
#    x 1.610300 0.000000 0.000000 
#    y 0.000000 1.610300 0.000000 
#    z 0.000000 0.000000 1.653910 
# 
# From -- ./inp_files/1773.got.cif
#   From: 2010.03.12/outbox.cif.g09.slc.cpg/sg99_cif.got.tgz:1773.got - 2010.04.08 21:11:30.
