data_PCOD8306527
_publ_section_title
;
Structure prediction by ZEFSAII (Michael W. Deem and Ramdas Pophale) SiO2 
 PCOD8306527
Probable space group: P 4 M M
;
_chemical_formula_sum "Si O2"
_cell_formula_units_Z 64
_cell_length_a 14.155219
_cell_length_b 14.155219
_cell_length_c 20.369371
_cell_angle_alpha 90.000000
_cell_angle_beta 90.000000
_cell_angle_gamma 90.000000
_cell_volume 4081.415449
_symmetry_space_group_name_H-M "P 4 M M"
_symmetry_group_IT_number 99
_symmetry_cell_setting 'tetragonal'
loop_
_space_group_symop_operation_xyz
x,y,z
-y,x,z
-x,-y,z
y,-x,z
-x,y,z
x,-y,z
-y,-x,z
y,x,z
loop_
_atom_site_type_symbol
_atom_site_label
_atom_site_fract_x
_atom_site_fract_y
_atom_site_fract_z
Si Si1 0.387710 0.895150 0.495610
Si Si2 0.894574 0.611681 0.350108
Si Si3 0.608665 0.240997 0.606483
Si Si4 0.741548 0.892536 0.985069
Si Si5 0.889274 0.734754 0.135121
Si Si6 0.760894 0.391472 0.753129
Si Si7 0.109176 0.608622 0.870103
Si Si8 0.386621 0.768323 0.229473
O O1 0.500000 0.895937 0.500469
O O2 0.355722 0.861167 0.422863
O O3 0.345662 0.828853 0.552572
O O4 0.348076 0.000000 0.508079
O O5 0.902349 0.500000 0.347789
O O6 0.816623 0.644962 0.297932
O O7 0.000000 0.652735 0.334441
O O8 0.500000 0.260163 0.590891
O O9 0.658252 0.341749 0.600751
O O10 0.623240 0.197738 0.679509
O O11 0.837364 0.837364 0.972185
O O12 0.662059 0.854989 0.935131
O O13 0.766824 0.000000 0.970195
O O14 0.705065 0.879305 0.059199
O O15 0.833245 0.833245 0.149405
O O16 0.841004 0.648058 0.173616
O O17 0.000000 0.747362 0.154648
O O18 0.735385 0.500000 0.765407
O O19 0.664461 0.335540 0.763594
O O20 0.837719 0.354698 0.805165
O O21 0.131095 0.500000 0.883746
O O22 0.000000 0.627314 0.856386
O O23 0.500000 0.752318 0.223786
O O24 0.332608 0.667393 0.223666
#
# Coordination Sequence:
#
# PCOD8306527 Si02
#       8
#     8   8   8   8   8   8   8   8
#     4   8  14  25  41  60  81 105 134 169 208 247
#     4   8  14  26  44  63  81 104 136 173 212 251
#     4   9  17  27  39  57  81 109 140 172 207 250
#     4   9  17  29  45  65  89 114 138 167 205 251
#     4   9  18  31  47  69  93 116 145 179 217 263
#     4   9  17  28  41  57  78 106 139 174 211 249
#     4   9  17  28  42  61  83 107 137 172 210 251
#     4  10  20  32  46  65  89 118 152 187 221 259
#
# _framework density 15.680835
#
# number of rings (size 3 to 8) (size 9 to 14) (size 15 to 20)
#    0.000    3.125    0.000    1.500    0.000    2.875 
#    0.000    6.250    0.000    0.000    0.000    3.500 
#    0.000    3.250    0.000    5.500    0.000    4.500 
#
# Total GULP energy -793150.073438 kJ/mol
# GULP energy per Si atom -12392.969897 kJ/mol
# Density = 1.564515 g / cm^3
# Si number density = 15.680835 Si / 1000 Ang^3
#
#
#
# Elastic Constant Matrix: (Units=GPa)
#
#
# Indices 1 2 3 4 5 6 
#
# 1 69.9548 39.4972 54.6409 0.0000 0.0000 0.0003
# 2 39.4972 69.9548 54.6409 0.0000 0.0000 -0.0003
# 3 54.6409 54.6409 118.1637 0.0000 0.0000 0.0000
# 4 0.0000 0.0000 0.0000 24.3485 0.0000 0.0000
# 5 0.0000 0.0000 0.0000 0.0000 24.3485 0.0000
# 6 0.0003 -0.0003 0.0000 0.0000 0.0000 16.0396
#
#
#
# Elastic Compliance Matrix: (Units=1/GPa)
#
#
# Indices 1 2 3 4 5 6 
#
# 1 0.024903 -0.007930 -0.007848 0.000000 0.000000 -0.000001
# 2 -0.007930 0.024903 -0.007848 0.000000 0.000000 0.000001
# 3 -0.007848 -0.007848 0.015721 0.000000 0.000000 0.000000
# 4 0.000000 0.000000 0.000000 0.041070 0.000000 0.000000
# 5 0.000000 0.000000 0.000000 0.000000 0.041070 0.000000
# 6 -0.000001 0.000001 0.000000 0.000000 0.000000 0.062346
#
#
# Mechanical properties :
#
#
# Convention : Reuss Voigt Hill
#
# Bulk Modulus (GPa) = 54.72586 61.73679 58.23132
# Shear Modulus (GPa) = 18.98560 20.23360 19.60960
#
# Velocity S-wave (km/s) = 3.48336 3.59603 3.54014
# Velocity P-wave (km/s) = 7.15220 7.52982 7.34344
#
# Compressibility (1/GPa) = 0.01827290
#
# Stress axis : x y z
#
# Youngs Moduli (GPa) = 40.15648 40.15648 63.60773
#
# Poissons Ratio (x) = 0.31844 0.49922
# Poissons Ratio (y) = 0.31844 0.49922
# Poissons Ratio (z) = 0.31517 0.31517
#
# Static dielectric constant tensor:
#      x y z
#    x 2.881600 0.000000 0.000000 
#    y 0.000000 2.881600 0.000000 
#    z 0.000000 0.000000 3.344470 
# 
# 
# High freq. dielectric constant tensor:
#      x y z
#    x 1.582280 0.000000 0.000000 
#    y 0.000000 1.582280 0.000000 
#    z 0.000000 0.000000 1.616400 
# 
# From -- ./inp_files/2057.got.cif
#   From: 2010.03.12/outbox.cif.g09.slc.cpg/sg99_cif.got.tgz:2057.got - 2010.04.08 21:11:30.
