data_PCOD8306568
_publ_section_title
;
Structure prediction by ZEFSAII (Michael W. Deem and Ramdas Pophale) SiO2 
 PCOD8306568
Probable space group: P 4 M M
;
_chemical_formula_sum "Si O2"
_cell_formula_units_Z 64
_cell_length_a 13.473004
_cell_length_b 13.473004
_cell_length_c 20.417574
_cell_angle_alpha 90.000000
_cell_angle_beta 90.000000
_cell_angle_gamma 90.000000
_cell_volume 3706.235535
_symmetry_space_group_name_H-M "P 4 M M"
_symmetry_group_IT_number 99
_symmetry_cell_setting 'tetragonal'
loop_
_space_group_symop_operation_xyz
x,y,z
-y,x,z
-x,-y,z
y,-x,z
-x,y,z
x,-y,z
-y,-x,z
y,x,z
loop_
_atom_site_type_symbol
_atom_site_label
_atom_site_fract_x
_atom_site_fract_y
_atom_site_fract_z
Si Si1 0.616579 0.223374 0.458300
Si Si2 0.280085 0.116431 0.342911
Si Si3 0.382799 0.776853 0.227609
Si Si4 0.772511 0.613747 0.975677
Si Si5 0.274863 0.114909 0.721623
Si Si6 0.613863 0.224072 0.828531
Si Si7 0.886668 0.385894 0.590978
Si Si8 0.617535 0.109169 0.098871
O O1 0.500000 0.239851 0.446666
O O2 0.671285 0.328716 0.448174
O O3 0.657955 0.142590 0.407735
O O4 0.640518 0.183303 0.530404
O O5 0.176476 0.176476 0.340573
O O6 0.349179 0.143289 0.281352
O O7 0.255283 0.000000 0.342276
O O8 0.500000 0.758251 0.232771
O O9 0.328020 0.671981 0.239518
O O10 0.349212 0.818766 0.157249
O O11 0.748448 0.500000 0.990568
O O12 0.668293 0.668293 0.983282
O O13 0.816217 0.629205 0.902658
O O14 0.849919 0.655888 0.028961
O O15 0.173069 0.173069 0.733290
O O16 0.352247 0.137479 0.779702
O O17 0.321503 0.147977 0.652662
O O18 0.248630 0.000000 0.722486
O O19 0.500000 0.251608 0.815406
O O20 0.676269 0.323732 0.815279
O O21 0.875358 0.500000 0.611355
O O22 0.000000 0.361943 0.571419
O O23 0.500000 0.100263 0.098544
O O24 0.664615 0.000000 0.109081
#
# Coordination Sequence:
#
# PCOD8306568 Si02
#       8
#     8   8   8   8   8   8   8   8
#     4  10  20  33  50  73 101 133 167 201 237 280
#     4  10  21  36  54  76 100 127 162 203 246 291
#     4  10  20  33  50  73 100 130 164 201 242 290
#     4   9  17  29  45  67  95 124 154 189 231 283
#     4  10  20  33  49  69  94 124 159 200 243 287
#     4   9  18  31  47  69  96 125 158 196 238 286
#     4   9  17  30  50  74  96 121 156 197 241 288
#     4   9  17  29  45  65  90 122 159 197 235 274
#
# _framework density 17.268194999999999
#
# number of rings (size 3 to 8) (size 9 to 14) (size 15 to 20)
#    0.000    2.500    0.000    2.250    0.000    4.000 
#    0.000    2.500    0.000    4.500    0.000    3.500 
#    0.000    2.250    0.000    0.500    0.000    0.000 
#
# Total GULP energy -793598.111493 kJ/mol
# GULP energy per Si atom -12399.970492 kJ/mol
# Density = 1.722889 g / cm^3
# Si number density = 17.268195 Si / 1000 Ang^3
#
#
#
# Elastic Constant Matrix: (Units=GPa)
#
#
# Indices 1 2 3 4 5 6 
#
# 1 93.0827 41.9752 46.9540 0.0000 0.0000 -0.0001
# 2 41.9752 93.0827 46.9540 0.0000 0.0000 0.0001
# 3 46.9540 46.9540 111.3695 0.0000 0.0000 0.0000
# 4 0.0000 0.0000 0.0000 24.4713 0.0000 0.0000
# 5 0.0000 0.0000 0.0000 0.0000 24.4713 0.0000
# 6 -0.0001 0.0001 0.0000 0.0000 0.0000 15.3494
#
#
#
# Elastic Compliance Matrix: (Units=1/GPa)
#
#
# Indices 1 2 3 4 5 6 
#
# 1 0.015021 -0.004546 -0.004416 0.000000 0.000000 0.000000
# 2 -0.004546 0.015021 -0.004416 0.000000 0.000000 0.000000
# 3 -0.004416 -0.004416 0.012703 0.000000 0.000000 0.000000
# 4 0.000000 0.000000 0.000000 0.040864 0.000000 0.000000
# 5 0.000000 0.000000 0.000000 0.000000 0.040864 0.000000
# 6 0.000000 0.000000 0.000000 0.000000 0.000000 0.065149
#
#
# Mechanical properties :
#
#
# Convention : Reuss Voigt Hill
#
# Bulk Modulus (GPa) = 62.54802 63.25566 62.90184
# Shear Modulus (GPa) = 22.55216 23.63518 23.09367
#
# Velocity S-wave (km/s) = 3.61777 3.70362 3.66095
# Velocity P-wave (km/s) = 7.33152 7.41619 7.37398
#
# Compressibility (1/GPa) = 0.01598772
#
# Stress axis : x y z
#
# Youngs Moduli (GPa) = 66.57445 66.57445 78.72167
#
# Poissons Ratio (x) = 0.30264 0.34766
# Poissons Ratio (y) = 0.30264 0.34766
# Poissons Ratio (z) = 0.29401 0.29401
#
# Static dielectric constant tensor:
#      x y z
#    x 3.080690 0.000000 0.000000 
#    y 0.000000 3.080690 0.000000 
#    z 0.000000 0.000000 3.466270 
# 
# 
# High freq. dielectric constant tensor:
#      x y z
#    x 1.654130 0.000000 0.000000 
#    y 0.000000 1.654130 0.000000 
#    z 0.000000 0.000000 1.685620 
# 
# From -- ./inp_files/2318.got.cif
#   From: 2010.03.12/outbox.cif.g09.slc.cpg/sg99_cif.got.tgz:2318.got - 2010.04.08 21:11:30.
