data_PCOD8306359
_publ_section_title
;
Structure prediction by ZEFSAII (Michael W. Deem and Ramdas Pophale) SiO2 
 PCOD8306359
Probable space group: I 41 2 2
;
_chemical_formula_sum "Si O2"
_cell_formula_units_Z 52
_cell_length_a 15.722124
_cell_length_b 15.722124
_cell_length_c 10.792355
_cell_angle_alpha 90.000000
_cell_angle_beta 90.000000
_cell_angle_gamma 90.000000
_cell_volume 2667.710246
_symmetry_space_group_name_H-M "I 41 2 2"
_symmetry_group_IT_number 98
_symmetry_cell_setting 'tetragonal'
loop_
_space_group_symop_operation_xyz
x,y,z
-y,1/2+x,1/4+z
-x,-y,z
y,1/2-x,1/4+z
x,1/2-y,1/4-z
-x,1/2+y,1/4-z
y,x,-z
-y,-x,-z
1/2+x,1/2+y,1/2+z
1/2-y,x,3/4+z
1/2-x,1/2-y,1/2+z
1/2+y,-x,3/4+z
1/2+x,-y,3/4-z
1/2-x,y,3/4-z
1/2+y,1/2+x,1/2-z
1/2-y,1/2-x,1/2-z
loop_
_atom_site_type_symbol
_atom_site_label
_atom_site_fract_x
_atom_site_fract_y
_atom_site_fract_z
Si Si1 0.300341 0.462874 0.251738
Si Si2 0.649017 0.546341 0.678082
Si Si3 0.923676 0.433180 0.887802
Si Si4 0.500000 0.000000 0.750000
O O1 0.250000 0.485868 0.375000
O O2 0.361254 0.382516 0.277156
O O3 0.239192 0.439228 0.137203
O O4 0.352450 0.547432 0.218076
O O5 0.655530 0.481622 0.795750
O O6 0.583608 0.500927 0.584246
O O7 0.900738 0.400738 0.750000
O O8 0.000000 0.500000 0.882435
#
# Coordination Sequence:
#
# PCOD8306359 Si02
#       4
#    16  16  16   4
#     4  11  19  33  59  87 120 153 195 246 295 355
#     4  11  20  34  61  88 118 159 198 246 299 358
#     4   9  19  36  57  81 111 152 203 238 279 357
#     4  12  16  36  58  88 112 148 212 238 290 366
#
# _framework density 19.492370999999999
#
# number of rings (size 3 to 8) (size 9 to 14) (size 15 to 20)
#    0.000    1.538    7.692    0.000    0.000    1.231 
#    0.000    0.000   54.154    0.000   28.000    0.000 
#    0.000    0.000    0.000    0.000    0.000    0.000 
#
# Total GULP energy -322300.455528 kJ/mol
# GULP energy per Si atom -12396.171366 kJ/mol
# Density = 1.944801 g / cm^3
# Si number density = 19.492371 Si / 1000 Ang^3
#
#
#
# Elastic Constant Matrix: (Units=GPa)
#
#
# Indices 1 2 3 4 5 6 
#
# 1 76.4303 63.4839 58.8935 0.0000 0.0000 0.0000
# 2 63.4839 76.4303 58.8935 0.0000 0.0000 0.0000
# 3 58.8935 58.8935 156.0379 0.0000 0.0000 0.0000
# 4 0.0000 0.0000 0.0000 33.5507 0.0000 0.0000
# 5 0.0000 0.0000 0.0000 0.0000 33.5507 0.0000
# 6 0.0000 0.0000 0.0000 0.0000 0.0000 13.0074
#
#
#
# Elastic Compliance Matrix: (Units=1/GPa)
#
#
# Indices 1 2 3 4 5 6 
#
# 1 0.043859 -0.033383 -0.003954 0.000000 0.000000 0.000000
# 2 -0.033383 0.043859 -0.003954 0.000000 0.000000 0.000000
# 3 -0.003954 -0.003954 0.009393 0.000000 0.000000 0.000000
# 4 0.000000 0.000000 0.000000 0.029806 0.000000 0.000000
# 5 0.000000 0.000000 0.000000 0.000000 0.029806 0.000000
# 6 0.000000 0.000000 0.000000 0.000000 0.000000 0.076879
#
#
# Mechanical properties :
#
#
# Convention : Reuss Voigt Hill
#
# Bulk Modulus (GPa) = 68.82592 74.60448 71.71520
# Shear Modulus (GPa) = 15.57505 24.53027 20.05266
#
# Velocity S-wave (km/s) = 2.82978 3.55132 3.21088
# Velocity P-wave (km/s) = 6.78695 7.42783 7.11461
#
# Compressibility (1/GPa) = 0.01452941
#
# Stress axis : x y z
#
# Youngs Moduli (GPa) = 22.80042 22.80042 106.45833
#
# Poissons Ratio (x) = 0.76115 0.42093
# Poissons Ratio (y) = 0.76115 0.42093
# Poissons Ratio (z) = 0.09015 0.09015
#
# Static dielectric constant tensor:
#      x y z
#    x 3.454140 0.000000 0.000000 
#    y 0.000000 3.454140 0.000000 
#    z 0.000000 0.000000 4.238000 
# 
# 
# High freq. dielectric constant tensor:
#      x y z
#    x 1.730830 0.000000 0.000000 
#    y 0.000000 1.730830 0.000000 
#    z 0.000000 0.000000 1.786500 
# 
# From -- ./inp_files/4677.got.cif
#   From: 2010.03.12/outbox.cif.g09.slc.cpg/sg98_3_cif.got.tgz:4677.got - 2010.04.08 21:04:41.
