data_PCOD8306408
_publ_section_title
;
Structure prediction by ZEFSAII (Michael W. Deem and Ramdas Pophale) SiO2 
 PCOD8306408
Probable space group: P 4 M M
;
_chemical_formula_sum "Si O2"
_cell_formula_units_Z 48
_cell_length_a 24.978524
_cell_length_b 24.978524
_cell_length_c 5.169006
_cell_angle_alpha 90.000000
_cell_angle_beta 90.000000
_cell_angle_gamma 90.000000
_cell_volume 3225.080655
_symmetry_space_group_name_H-M "P 4 M M"
_symmetry_group_IT_number 99
_symmetry_cell_setting 'tetragonal'
loop_
_space_group_symop_operation_xyz
x,y,z
-y,x,z
-x,-y,z
y,-x,z
-x,y,z
x,-y,z
-y,-x,z
y,x,z
loop_
_atom_site_type_symbol
_atom_site_label
_atom_site_fract_x
_atom_site_fract_y
_atom_site_fract_z
Si Si1 0.106561 0.803732 0.847970
Si Si2 0.713424 0.560519 0.394941
Si Si3 0.150255 0.060790 0.347756
Si Si4 0.762541 0.327688 0.346526
Si Si5 0.808882 0.280084 0.845959
Si Si6 0.440786 0.646086 0.893492
O O1 0.154476 0.845525 0.848825
O O2 0.070669 0.812406 0.595390
O O3 0.130815 0.743548 0.847528
O O4 0.070617 0.812240 0.100573
O O5 0.738408 0.500000 0.369453
O O6 0.754533 0.608359 0.340904
O O7 0.692721 0.569737 0.685725
O O8 0.666570 0.567004 0.184593
O O9 0.097839 0.097839 0.347311
O O10 0.129553 0.000000 0.347763
O O11 0.706588 0.293413 0.348060
O O12 0.798996 0.315406 0.593283
O O13 0.798411 0.315334 0.098179
O O14 0.769447 0.230554 0.843949
O O15 0.500000 0.622806 0.855083
O O16 0.401180 0.598821 0.830926
#
# Coordination Sequence:
#
# PCOD8306408 Si02
#       6
#     8   8   8   8   8   8
#     4   9  17  30  44  60  85 111 141 181 221 257
#     4  10  20  31  42  57  79 105 130 159 203 255
#     4  10  19  30  45  63  86 120 157 189 216 240
#     4  10  17  26  42  61  79 100 133 170 202 244
#     4   9  17  27  42  63  81 101 131 171 213 250
#     4  10  19  30  42  54  70  95 128 167 208 245
#
# _framework density 14.883349000000001
#
# number of rings (size 3 to 8) (size 9 to 14) (size 15 to 20)
#    0.000    2.333    0.000    4.000    0.000    5.667 
#    0.000    0.000    0.000    6.000    0.000    0.000 
#    0.000    0.000    0.000    0.000    0.000   58.333 
#
# Total GULP energy -595027.086091 kJ/mol
# GULP energy per Si atom -12396.397627 kJ/mol
# Density = 1.484947 g / cm^3
# Si number density = 14.883349 Si / 1000 Ang^3
#
#
#
# Elastic Constant Matrix: (Units=GPa)
#
#
# Indices 1 2 3 4 5 6 
#
# 1 71.5988 53.2031 35.1741 0.0000 0.0000 -0.0005
# 2 53.2031 71.5988 35.1741 0.0000 0.0000 0.0005
# 3 35.1741 35.1741 117.4026 0.0000 0.0000 0.0000
# 4 0.0000 0.0000 0.0000 12.0124 0.0000 0.0000
# 5 0.0000 0.0000 0.0000 0.0000 12.0124 0.0000
# 6 -0.0005 0.0005 0.0000 0.0000 0.0000 18.6761
#
#
#
# Elastic Compliance Matrix: (Units=1/GPa)
#
#
# Indices 1 2 3 4 5 6 
#
# 1 0.032001 -0.022360 -0.002888 0.000000 0.000000 0.000001
# 2 -0.022360 0.032001 -0.002888 0.000000 0.000000 -0.000001
# 3 -0.002888 -0.002888 0.010248 0.000000 0.000000 0.000000
# 4 0.000000 0.000000 0.000000 0.083248 0.000000 0.000000
# 5 0.000000 0.000000 0.000000 0.000000 0.083248 0.000000
# 6 0.000001 -0.000001 0.000000 0.000000 0.000000 0.053544
#
#
# Mechanical properties :
#
#
# Convention : Reuss Voigt Hill
#
# Bulk Modulus (GPa) = 55.62830 56.41142 56.01986
# Shear Modulus (GPa) = 14.02309 17.67676 15.84993
#
# Velocity S-wave (km/s) = 3.07286 3.45002 3.26689
# Velocity P-wave (km/s) = 7.07441 7.33859 7.20771
#
# Compressibility (1/GPa) = 0.01797646
#
# Stress axis : x y z
#
# Youngs Moduli (GPa) = 31.24935 31.24935 97.57568
#
# Poissons Ratio (x) = 0.69873 0.28184
# Poissons Ratio (y) = 0.69873 0.28184
# Poissons Ratio (z) = 0.09026 0.09026
#
# Static dielectric constant tensor:
#      x y z
#    x 2.726880 0.000000 0.000000 
#    y 0.000000 2.726880 0.000000 
#    z 0.000000 0.000000 3.189320 
# 
# 
# High freq. dielectric constant tensor:
#      x y z
#    x 1.537370 0.000000 0.000000 
#    y 0.000000 1.537370 0.000000 
#    z 0.000000 0.000000 1.597900 
# 
# From -- ./inp_files/377.got.cif
#   From: 2010.03.12/outbox.cif.g09.slc.cpg/sg99_cif.got.tgz:377.got - 2010.04.08 21:11:30.
