data_PCOD8306197
_publ_section_title
;
Structure prediction by ZEFSAII (Michael W. Deem and Ramdas Pophale) SiO2 
 PCOD8306197
Probable space group: I 41 2 2
;
_chemical_formula_sum "Si O2"
_cell_formula_units_Z 80
_cell_length_a 28.803010
_cell_length_b 28.803010
_cell_length_c 4.959278
_cell_angle_alpha 90.000000
_cell_angle_beta 90.000000
_cell_angle_gamma 90.000000
_cell_volume 4114.283409
_symmetry_space_group_name_H-M "I 41 2 2"
_symmetry_group_IT_number 98
_symmetry_cell_setting 'tetragonal'
loop_
_space_group_symop_operation_xyz
x,y,z
-y,1/2+x,1/4+z
-x,-y,z
y,1/2-x,1/4+z
x,1/2-y,1/4-z
-x,1/2+y,1/4-z
y,x,-z
-y,-x,-z
1/2+x,1/2+y,1/2+z
1/2-y,x,3/4+z
1/2-x,1/2-y,1/2+z
1/2+y,-x,3/4+z
1/2+x,-y,3/4-z
1/2-x,y,3/4-z
1/2+y,1/2+x,1/2-z
1/2-y,1/2-x,1/2-z
loop_
_atom_site_type_symbol
_atom_site_label
_atom_site_fract_x
_atom_site_fract_y
_atom_site_fract_z
Si Si1 0.344508 0.655493 0.500000
Si Si2 0.431537 0.139699 0.175240
Si Si3 0.521915 0.406257 0.965033
Si Si4 0.800403 0.199598 0.500000
Si Si5 0.303015 0.040626 0.821843
Si Si6 0.649530 0.049255 0.702601
O O1 0.333671 0.687750 0.753927
O O2 0.332968 0.601198 0.516485
O O3 0.381048 0.118953 0.250000
O O4 0.468505 0.096895 0.180964
O O5 0.450640 0.175363 0.390078
O O6 0.428164 0.168187 0.894571
O O7 0.531564 0.390339 0.658476
O O8 0.541175 0.458826 0.000000
O O9 0.550506 0.371149 0.153200
O O10 0.807912 0.250000 0.625000
O O11 0.250000 0.055076 0.875000
O O12 0.307327 0.986740 0.729880
#
# Coordination Sequence:
#
# PCOD8306197 Si02
#       6
#     8  16  16   8  16  16
#     4  12  21  38  64  80  99 136 180 235 282 347
#     4  10  21  35  55  83 116 153 195 237 274 333
#     4  10  17  32  52  77 114 152 180 219 278 320
#     4  12  27  44  56  70  96 128 169 233 306 361
#     4  10  21  37  57  82 118 155 187 235 289 339
#     4  10  20  33  55  82 110 141 181 231 279 334
#
# _framework density 19.444454
#
# number of rings (size 3 to 8) (size 9 to 14) (size 15 to 20)
#    0.000    1.600    2.000    3.600    0.000    2.000 
#    0.000    0.000    0.000    7.200    0.000    0.000 
#    0.000   22.400    0.000    0.000    0.000    0.000 
#
# Total GULP energy -495612.272328 kJ/mol
# GULP energy per Si atom -12390.306808 kJ/mol
# Density = 1.940020 g / cm^3
# Si number density = 19.444454 Si / 1000 Ang^3
#
#
#
# Elastic Constant Matrix: (Units=GPa)
#
#
# Indices 1 2 3 4 5 6 
#
# 1 71.4636 39.5893 11.6952 0.0000 0.0000 0.0000
# 2 39.5893 71.4522 11.6914 0.0000 0.0000 0.0000
# 3 11.6952 11.6914 83.5396 0.0000 0.0000 0.0000
# 4 0.0000 0.0000 0.0000 25.0795 0.0000 0.0000
# 5 0.0000 0.0000 0.0000 0.0000 25.0796 0.0000
# 6 0.0000 0.0000 0.0000 0.0000 0.0000 21.4967
#
#
#
# Elastic Compliance Matrix: (Units=1/GPa)
#
#
# Indices 1 2 3 4 5 6 
#
# 1 0.020327 -0.011050 -0.001299 0.000000 0.000000 0.000000
# 2 -0.011050 0.020330 -0.001298 0.000000 0.000000 0.000000
# 3 -0.001299 -0.001298 0.012334 0.000000 0.000000 0.000000
# 4 0.000000 0.000000 0.000000 0.039873 0.000000 0.000000
# 5 0.000000 0.000000 0.000000 0.000000 0.039873 0.000000
# 6 0.000000 0.000000 0.000000 0.000000 0.000000 0.046519
#
#
# Mechanical properties :
#
#
# Convention : Reuss Voigt Hill
#
# Bulk Modulus (GPa) = 38.91613 39.15635 39.03624
# Shear Modulus (GPa) = 23.24315 25.22979 24.23647
#
# Velocity S-wave (km/s) = 3.46115 3.60603 3.53433
# Velocity P-wave (km/s) = 6.00252 6.12529 6.06422
#
# Compressibility (1/GPa) = 0.02569629
#
# Stress axis : x y z
#
# Youngs Moduli (GPa) = 49.19502 49.18772 81.07695
#
# Poissons Ratio (x) = 0.54353 0.10534
# Poissons Ratio (y) = 0.54361 0.10526
# Poissons Ratio (z) = 0.06392 0.06386
#
# Static dielectric constant tensor:
#      x y z
#    x 3.367570 0.000000 0.000000 
#    y 0.000000 3.367580 0.000000 
#    z 0.000000 0.000000 3.789930 
# 
# 
# High freq. dielectric constant tensor:
#      x y z
#    x 1.731800 0.000000 0.000000 
#    y 0.000000 1.731800 0.000000 
#    z 0.000000 0.000000 1.782680 
# 
# From -- ./inp_files/1763.got.cif
#   From: 2010.03.12/outbox.cif.g09.slc.cpg/sg98_1_cif.got.tgz:1763.got - 2010.04.08 21:04:41.
