data_PCOD8306936
_publ_section_title
;
Structure prediction by ZEFSAII (Michael W. Deem and Ramdas Pophale) SiO2 
 PCOD8306936
Probable space group: P 42 N M
;
_chemical_formula_sum "Si O2"
_cell_formula_units_Z 64
_cell_length_a 23.627262
_cell_length_b 23.627262
_cell_length_c 5.317896
_cell_angle_alpha 90.000000
_cell_angle_beta 90.000000
_cell_angle_gamma 90.000000
_cell_volume 2968.702198
_symmetry_space_group_name_H-M "P 42 N M"
_symmetry_group_IT_number 102
_symmetry_cell_setting 'tetragonal'
loop_
_space_group_symop_operation_xyz
x,y,z
1/2-y,1/2+x,1/2+z
-x,-y,z
1/2+y,1/2-x,1/2+z
1/2-x,1/2+y,1/2+z
1/2+x,1/2-y,1/2+z
-y,-x,z
y,x,z
loop_
_atom_site_type_symbol
_atom_site_label
_atom_site_fract_x
_atom_site_fract_y
_atom_site_fract_z
Si Si1 0.907767 0.002549 0.074390
Si Si2 0.558185 0.795781 0.682352
Si Si3 0.138618 0.043618 0.576995
Si Si4 0.773491 0.683390 0.705587
Si Si5 0.809821 0.341074 0.714482
Si Si6 0.053472 0.262995 0.443312
Si Si7 0.982403 0.649408 0.808299
Si Si8 0.389660 0.917588 0.547931
O O1 0.957608 0.957608 0.065591
O O2 0.872171 0.994477 0.329493
O O3 0.868951 0.994336 0.827442
O O4 0.934576 0.065424 0.071377
O O5 0.616253 0.759892 0.674901
O O6 0.526892 0.804902 0.417951
O O7 0.512087 0.764389 0.857303
O O8 0.576127 0.857767 0.782673
O O9 0.097744 0.097744 0.582345
O O10 0.202724 0.066066 0.570718
O O11 0.712614 0.712614 0.728301
O O12 0.804153 0.707261 0.455908
O O13 0.810105 0.701708 0.949581
O O14 0.877171 0.353238 0.733261
O O15 0.774182 0.400377 0.722176
O O16 0.061869 0.314887 0.640514
O O17 0.019516 0.603226 0.657015
O O18 0.949759 0.613104 0.015652
#
# Coordination Sequence:
#
# PCOD8306936 Si02
#       8
#     8   8   8   8   8   8   8   8
#     4   9  18  36  60  85 120 166 207 256 330 402
#     4  10  22  41  66  92 127 179 219 271 338 403
#     4  10  22  37  60  94 129 161 212 277 327 392
#     4  11  24  43  67  98 133 173 226 278 333 399
#     4  11  22  41  68  94 126 177 218 271 324 404
#     4  11  24  39  66  93 129 174 225 270 347 403
#     4  11  22  41  68  94 130 179 218 278 332 414
#     4  10  22  39  65  93 129 166 227 263 335 398
#
# _framework density 21.558243999999998
#
# number of rings (size 3 to 8) (size 9 to 14) (size 15 to 20)
#    0.000    1.625    2.500    2.250    1.750    2.500 
#    0.000    4.375    0.000    0.000    0.000    0.000 
#    0.000    0.000    0.000    0.000    0.000    0.000 
#
# Total GULP energy -793322.292505 kJ/mol
# GULP energy per Si atom -12395.660820 kJ/mol
# Density = 2.150918 g / cm^3
# Si number density = 21.558244 Si / 1000 Ang^3
#
#
#
# Elastic Constant Matrix: (Units=GPa)
#
#
# Indices 1 2 3 4 5 6 
#
# 1 88.5134 34.7896 25.5368 0.0000 0.0000 0.0002
# 2 34.7896 88.5134 25.5368 0.0000 0.0000 -0.0002
# 3 25.5368 25.5368 121.6836 0.0000 0.0000 0.0000
# 4 0.0000 0.0000 0.0000 20.8791 0.0000 0.0000
# 5 0.0000 0.0000 0.0000 0.0000 20.8791 0.0000
# 6 0.0002 -0.0002 0.0000 0.0000 0.0000 26.6339
#
#
#
# Elastic Compliance Matrix: (Units=1/GPa)
#
#
# Indices 1 2 3 4 5 6 
#
# 1 0.013748 -0.004866 -0.001864 0.000000 0.000000 0.000000
# 2 -0.004866 0.013748 -0.001864 0.000000 0.000000 0.000000
# 3 -0.001864 -0.001864 0.009000 0.000000 0.000000 0.000000
# 4 0.000000 0.000000 0.000000 0.047895 0.000000 0.000000
# 5 0.000000 0.000000 0.000000 0.000000 0.047895 0.000000
# 6 0.000000 0.000000 0.000000 0.000000 0.000000 0.037546
#
#
# Mechanical properties :
#
#
# Convention : Reuss Voigt Hill
#
# Bulk Modulus (GPa) = 51.79017 52.27074 52.03046
# Shear Modulus (GPa) = 25.84569 27.86825 26.85697
#
# Velocity S-wave (km/s) = 3.46624 3.59931 3.53340
# Velocity P-wave (km/s) = 6.33208 6.44766 6.39013
#
# Compressibility (1/GPa) = 0.01930868
#
# Stress axis : x y z
#
# Youngs Moduli (GPa) = 72.73797 72.73797 111.10602
#
# Poissons Ratio (x) = 0.35393 0.20711
# Poissons Ratio (y) = 0.35393 0.20711
# Poissons Ratio (z) = 0.13559 0.13559
#
# Static dielectric constant tensor:
#      x y z
#    x 3.751940 0.000000 0.000000 
#    y 0.000000 3.751940 0.000000 
#    z 0.000000 0.000000 3.958660 
# 
# 
# High freq. dielectric constant tensor:
#      x y z
#    x 1.830150 0.000000 0.000000 
#    y 0.000000 1.830150 0.000000 
#    z 0.000000 0.000000 1.856720 
# 
# From -- ./inp_files/450.got.cif
#   From: 2010.03.12/outbox.cif.g09.slc.cpg/sg102_1_cif.got.tgz:450.got - 2010.04.14 01:40:42.
