data_PCOD8306520
_publ_section_title
;
Structure prediction by ZEFSAII (Michael W. Deem and Ramdas Pophale) SiO2 
 PCOD8306520
Probable space group: P 4 M M
;
_chemical_formula_sum "Si O2"
_cell_formula_units_Z 64
_cell_length_a 19.402204
_cell_length_b 19.402204
_cell_length_c 10.023345
_cell_angle_alpha 90.000000
_cell_angle_beta 90.000000
_cell_angle_gamma 90.000000
_cell_volume 3773.243321
_symmetry_space_group_name_H-M "P 4 M M"
_symmetry_group_IT_number 99
_symmetry_cell_setting 'tetragonal'
loop_
_space_group_symop_operation_xyz
x,y,z
-y,x,z
-x,-y,z
y,-x,z
-x,y,z
x,-y,z
-y,-x,z
y,x,z
loop_
_atom_site_type_symbol
_atom_site_label
_atom_site_fract_x
_atom_site_fract_y
_atom_site_fract_z
Si Si1 0.577756 0.188325 0.502110
Si Si2 0.082533 0.803482 0.438023
Si Si3 0.573492 0.100667 0.257647
Si Si4 0.424956 0.227655 0.063039
Si Si5 0.281675 0.169073 0.640773
Si Si6 0.925772 0.720954 0.175738
Si Si7 0.312114 0.579017 0.307185
Si Si8 0.820076 0.708382 0.940864
O O1 0.500000 0.197470 0.563968
O O2 0.578948 0.119194 0.413685
O O3 0.637387 0.180514 0.612148
O O4 0.598874 0.251983 0.409332
O O5 0.123357 0.876644 0.443395
O O6 0.107441 0.753326 0.557091
O O7 0.102642 0.764807 0.300605
O O8 0.000000 0.816328 0.450553
O O9 0.500000 0.060328 0.235346
O O10 0.569254 0.169676 0.174011
O O11 0.641297 0.059553 0.215416
O O12 0.500000 0.238342 0.993751
O O13 0.403592 0.293548 0.152340
O O14 0.370088 0.207116 0.950581
O O15 0.240064 0.240064 0.614527
O O16 0.277716 0.147472 0.796094
O O17 0.000000 0.751181 0.133024
O O18 0.875755 0.727969 0.051496
O O19 0.331980 0.500000 0.321896
O O20 0.378210 0.621791 0.349909
O O21 0.754494 0.754494 0.969344
#
# Coordination Sequence:
#
# PCOD8306520 Si02
#       8
#     8   8   8   8   8   8   8   8
#     4   9  16  28  46  68  95 128 165 203 247 297
#     4  10  21  37  57  79 102 128 160 199 243 294
#     4   8  14  26  44  68  95 122 156 195 233 279
#     4   8  15  27  43  65  92 123 162 203 243 288
#     4  10  20  33  50  74 102 131 166 209 250 291
#     4  10  19  32  51  74  98 128 163 200 240 287
#     4   9  16  25  40  63  91 126 168 214 261 307
#     4  10  20  32  48  72 100 130 164 202 247 292
#
# _framework density 16.961535999999999
#
# number of rings (size 3 to 8) (size 9 to 14) (size 15 to 20)
#    0.000    2.750    1.250    2.625    0.000    1.500 
#    0.000    0.000    0.000    0.375    0.000    1.750 
#    0.000    3.000    0.000   23.250    0.000    0.000 
#
# Total GULP energy -792850.955262 kJ/mol
# GULP energy per Si atom -12388.296176 kJ/mol
# Density = 1.692293 g / cm^3
# Si number density = 16.961536 Si / 1000 Ang^3
#
#
#
# Elastic Constant Matrix: (Units=GPa)
#
#
# Indices 1 2 3 4 5 6 
#
# 1 83.8040 42.2375 46.4560 0.0000 0.0000 -0.0001
# 2 42.2375 83.8040 46.4560 0.0000 0.0000 0.0001
# 3 46.4560 46.4560 94.6115 0.0000 0.0000 0.0000
# 4 0.0000 0.0000 0.0000 18.7891 0.0000 0.0000
# 5 0.0000 0.0000 0.0000 0.0000 18.7891 0.0000
# 6 -0.0001 0.0001 0.0000 0.0000 0.0000 4.7528
#
#
#
# Elastic Compliance Matrix: (Units=1/GPa)
#
#
# Indices 1 2 3 4 5 6 
#
# 1 0.018246 -0.005812 -0.006106 0.000000 0.000000 0.000000
# 2 -0.005812 0.018246 -0.006106 0.000000 0.000000 0.000000
# 3 -0.006106 -0.006106 0.016566 0.000000 0.000000 0.000000
# 4 0.000000 0.000000 0.000000 0.053222 0.000000 0.000000
# 5 0.000000 0.000000 0.000000 0.000000 0.053222 0.000000
# 6 0.000000 0.000000 0.000000 0.000000 0.000000 0.210402
#
#
# Mechanical properties :
#
#
# Convention : Reuss Voigt Hill
#
# Bulk Modulus (GPa) = 58.78108 59.16870 58.97489
# Shear Modulus (GPa) = 12.14709 16.93755 14.54232
#
# Velocity S-wave (km/s) = 2.67901 3.16347 2.93127
# Velocity P-wave (km/s) = 6.65584 6.95005 6.80453
#
# Compressibility (1/GPa) = 0.01701228
#
# Stress axis : x y z
#
# Youngs Moduli (GPa) = 54.80569 54.80569 60.36632
#
# Poissons Ratio (x) = 0.31851 0.36858
# Poissons Ratio (y) = 0.31851 0.36858
# Poissons Ratio (z) = 0.33463 0.33463
#
# Static dielectric constant tensor:
#      x y z
#    x 3.602820 0.000000 0.000000 
#    y 0.000000 3.602820 0.000000 
#    z 0.000000 0.000000 2.967710 
# 
# 
# High freq. dielectric constant tensor:
#      x y z
#    x 1.651250 0.000000 0.000000 
#    y 0.000000 1.651250 0.000000 
#    z 0.000000 0.000000 1.631130 
# 
# From -- ./inp_files/1202.got.cif
#   From: 2010.03.12/outbox.cif.g09.slc.cpg/sg99_cif.got.tgz:1202.got - 2010.04.08 21:11:30.
