data_PCOD8306043
_publ_section_title
;
Structure prediction by ZEFSAII (Michael W. Deem and Ramdas Pophale) SiO2 
 PCOD8306043
Probable space group: I 4 2 2 
;
_chemical_formula_sum "Si O2"
_cell_formula_units_Z 52
_cell_length_a 11.483667
_cell_length_b 11.483667
_cell_length_c 22.734580
_cell_angle_alpha 90.000000
_cell_angle_beta 90.000000
_cell_angle_gamma 90.000000
_cell_volume 2998.113820
_symmetry_space_group_name_H-M "I 4 2 2 "
_symmetry_group_IT_number 97
_symmetry_cell_setting 'tetragonal'
loop_
_space_group_symop_operation_xyz
x,y,z
-y,x,z
-x,-y,z
y,-x,z
x,-y,-z
-x,y,-z
y,x,-z
-y,-x,-z
1/2+x,1/2+y,1/2+z
1/2-y,1/2+x,1/2+z
1/2-x,1/2-y,1/2+z
1/2+y,1/2-x,1/2+z
1/2+x,1/2-y,1/2-z
1/2-x,1/2+y,1/2-z
1/2+y,1/2+x,1/2-z
1/2-y,1/2-x,1/2-z
loop_
_atom_site_type_symbol
_atom_site_label
_atom_site_fract_x
_atom_site_fract_y
_atom_site_fract_z
Si Si1 0.190765 0.985915 0.434873
Si Si2 0.668814 0.415293 0.712441
Si Si3 0.500000 0.000000 0.250000
Si Si4 0.405323 0.193555 0.822988
O O1 0.289943 0.961182 0.387206
O O2 0.105131 0.877568 0.425628
O O3 0.246255 0.000000 0.500000
O O4 0.654116 0.551568 0.696552
O O5 0.690327 0.396945 0.782764
O O6 0.777768 0.367096 0.674199
O O7 0.500575 0.886170 0.209515
#
# Coordination Sequence:
#
# PCOD8306043 Si02
#       4
#    16  16   4  16
#     4   9  18  32  50  72  97 127 163 198 236 287
#     4   9  18  30  45  70  99 129 163 196 240 296
#     4   8  20  32  42  72 100 122 160 200 240 292
#     4  10  19  30  49  70  99 131 156 202 247 284
#
# _framework density 17.344237
#
# number of rings (size 3 to 8) (size 9 to 14) (size 15 to 20)
#    0.000    3.077    0.000    2.769    0.000   17.231 
#    0.000    0.769    0.000    0.000    0.000    0.000 
#    0.000   19.692    0.000    0.000    0.000    0.000 
#
# Total GULP energy -322119.777558 kJ/mol
# GULP energy per Si atom -12389.222214 kJ/mol
# Density = 1.730476 g / cm^3
# Si number density = 17.344237 Si / 1000 Ang^3
#
#
#
# Elastic Constant Matrix: (Units=GPa)
#
#
# Indices 1 2 3 4 5 6 
#
# 1 96.3961 38.5584 50.1816 0.0000 0.0000 0.0000
# 2 38.5584 96.3961 50.1816 0.0000 0.0000 0.0000
# 3 50.1816 50.1816 147.2813 0.0000 0.0000 0.0000
# 4 0.0000 0.0000 0.0000 27.0203 0.0000 0.0000
# 5 0.0000 0.0000 0.0000 0.0000 27.0203 0.0000
# 6 0.0000 0.0000 0.0000 0.0000 0.0000 27.3818
#
#
#
# Elastic Compliance Matrix: (Units=1/GPa)
#
#
# Indices 1 2 3 4 5 6 
#
# 1 0.013607 -0.003683 -0.003382 0.000000 0.000000 0.000000
# 2 -0.003683 0.013607 -0.003382 0.000000 0.000000 0.000000
# 3 -0.003382 -0.003382 0.009094 0.000000 0.000000 0.000000
# 4 0.000000 0.000000 0.000000 0.037009 0.000000 0.000000
# 5 0.000000 0.000000 0.000000 0.000000 0.037009 0.000000
# 6 0.000000 0.000000 0.000000 0.000000 0.000000 0.036521
#
#
# Mechanical properties :
#
#
# Convention : Reuss Voigt Hill
#
# Bulk Modulus (GPa) = 64.86230 68.65743 66.75986
# Shear Modulus (GPa) = 28.92216 29.69461 29.30839
#
# Velocity S-wave (km/s) = 4.08798 4.14221 4.11518
# Velocity P-wave (km/s) = 7.73048 7.90875 7.82012
#
# Compressibility (1/GPa) = 0.01541728
#
# Stress axis : x y z
#
# Youngs Moduli (GPa) = 73.49030 73.49030 109.96211
#
# Poissons Ratio (x) = 0.27063 0.37184
# Poissons Ratio (y) = 0.27063 0.37184
# Poissons Ratio (z) = 0.24851 0.24851
#
# Static dielectric constant tensor:
#      x y z
#    x 3.165730 0.000000 0.000000 
#    y 0.000000 3.165730 0.000000 
#    z 0.000000 0.000000 3.082250 
# 
# 
# High freq. dielectric constant tensor:
#      x y z
#    x 1.665000 0.000000 0.000000 
#    y 0.000000 1.665000 0.000000 
#    z 0.000000 0.000000 1.641810 
# 
# From -- ./inp_files/6238.got.cif
#   From: 2010.03.12/outbox.cif.g09.slc.cpg/sg97_4_cif.got.tgz:6238.got - 2010.04.08 20:59:42.
