data_PCOD8306577
_publ_section_title
;
Structure prediction by ZEFSAII (Michael W. Deem and Ramdas Pophale) SiO2 
 PCOD8306577
Probable space group: P 4 M M
;
_chemical_formula_sum "Si O2"
_cell_formula_units_Z 64
_cell_length_a 13.463319
_cell_length_b 13.463319
_cell_length_c 20.284260
_cell_angle_alpha 90.000000
_cell_angle_beta 90.000000
_cell_angle_gamma 90.000000
_cell_volume 3676.744410
_symmetry_space_group_name_H-M "P 4 M M"
_symmetry_group_IT_number 99
_symmetry_cell_setting 'tetragonal'
loop_
_space_group_symop_operation_xyz
x,y,z
-y,x,z
-x,-y,z
y,-x,z
-x,y,z
x,-y,z
-y,-x,z
y,x,z
loop_
_atom_site_type_symbol
_atom_site_label
_atom_site_fract_x
_atom_site_fract_y
_atom_site_fract_z
Si Si1 0.726905 0.887591 0.001890
Si Si2 0.110925 0.617638 0.390887
Si Si3 0.612112 0.772825 0.901291
Si Si4 0.223462 0.384209 0.260923
Si Si5 0.883844 0.279399 0.638910
Si Si6 0.385044 0.224842 0.751127
Si Si7 0.777987 0.382831 0.522427
Si Si8 0.275451 0.114478 0.151597
O O1 0.823528 0.823528 0.985146
O O2 0.689085 0.869515 0.076381
O O3 0.759734 0.000000 0.991158
O O4 0.638974 0.861361 0.951276
O O5 0.102967 0.500000 0.389770
O O6 0.166301 0.655309 0.325501
O O7 0.172408 0.652532 0.454345
O O8 0.000000 0.663815 0.393217
O O9 0.500000 0.739697 0.913047
O O10 0.676717 0.676717 0.918143
O O11 0.628362 0.809981 0.826563
O O12 0.247962 0.500000 0.265249
O O13 0.327820 0.327820 0.254467
O O14 0.154308 0.363598 0.197743
O O15 0.824050 0.175951 0.633703
O O16 0.860776 0.335529 0.707240
O O17 0.853342 0.353538 0.580347
O O18 0.000000 0.254803 0.635035
O O19 0.500000 0.240017 0.732177
O O20 0.329955 0.329955 0.738404
O O21 0.756907 0.500000 0.524193
O O22 0.672977 0.327024 0.531277
O O23 0.173884 0.173884 0.166110
O O24 0.253674 0.000000 0.167186
#
# Coordination Sequence:
#
# PCOD8306577 Si02
#       8
#     8   8   8   8   8   8   8   8
#     4   9  18  32  49  70  96 124 156 196 240 287
#     4   9  17  30  49  71  94 123 160 200 240 280
#     4   9  18  32  49  70  97 127 160 198 237 280
#     4  10  20  33  49  70  97 129 165 203 242 287
#     4  10  21  36  53  73  97 126 162 203 245 290
#     4   9  18  32  50  73  99 127 159 195 237 285
#     4  10  20  33  50  74 103 134 168 203 240 285
#     4   9  18  32  50  72  96 123 156 195 241 291
#
# _framework density 17.406701999999999
#
# number of rings (size 3 to 8) (size 9 to 14) (size 15 to 20)
#    0.000    2.625    0.000    1.500    0.000    4.375 
#    0.000    5.000    0.000    4.500    0.000    7.000 
#    0.000    9.000    0.000    0.000    0.000    0.000 
#
# Total GULP energy -793653.794489 kJ/mol
# GULP energy per Si atom -12400.840539 kJ/mol
# Density = 1.736708 g / cm^3
# Si number density = 17.406702 Si / 1000 Ang^3
#
#
#
# Elastic Constant Matrix: (Units=GPa)
#
#
# Indices 1 2 3 4 5 6 
#
# 1 97.9510 41.8992 50.0025 0.0000 0.0000 0.0000
# 2 41.8992 97.9510 50.0025 0.0000 0.0000 0.0000
# 3 50.0025 50.0025 109.6635 0.0000 0.0000 0.0000
# 4 0.0000 0.0000 0.0000 26.4659 0.0000 0.0000
# 5 0.0000 0.0000 0.0000 0.0000 26.4659 0.0000
# 6 0.0000 0.0000 0.0000 0.0000 0.0000 11.9095
#
#
#
# Elastic Compliance Matrix: (Units=1/GPa)
#
#
# Indices 1 2 3 4 5 6 
#
# 1 0.014225 -0.003615 -0.004838 0.000000 0.000000 0.000000
# 2 -0.003615 0.014225 -0.004838 0.000000 0.000000 0.000000
# 3 -0.004838 -0.004838 0.013530 0.000000 0.000000 0.000000
# 4 0.000000 0.000000 0.000000 0.037784 0.000000 0.000000
# 5 0.000000 0.000000 0.000000 0.000000 0.037784 0.000000
# 6 0.000000 0.000000 0.000000 0.000000 0.000000 0.083966
#
#
# Mechanical properties :
#
#
# Convention : Reuss Voigt Hill
#
# Bulk Modulus (GPa) = 64.93778 65.48600 65.21189
# Shear Modulus (GPa) = 21.43798 23.87903 22.65851
#
# Velocity S-wave (km/s) = 3.51321 3.70784 3.61184
# Velocity P-wave (km/s) = 7.33785 7.48556 7.41207
#
# Compressibility (1/GPa) = 0.01539936
#
# Stress axis : x y z
#
# Youngs Moduli (GPa) = 70.29740 70.29740 73.90733
#
# Poissons Ratio (x) = 0.25415 0.35754
# Poissons Ratio (y) = 0.25415 0.35754
# Poissons Ratio (z) = 0.34008 0.34008
#
# Static dielectric constant tensor:
#      x y z
#    x 3.118660 0.000000 0.000000 
#    y 0.000000 3.118660 0.000000 
#    z 0.000000 0.000000 3.498310 
# 
# 
# High freq. dielectric constant tensor:
#      x y z
#    x 1.661930 0.000000 0.000000 
#    y 0.000000 1.661930 0.000000 
#    z 0.000000 0.000000 1.688780 
# 
# From -- ./inp_files/2325.got.cif
#   From: 2010.03.12/outbox.cif.g09.slc.cpg/sg99_cif.got.tgz:2325.got - 2010.04.08 21:11:30.
