data_PCOD8306898
_publ_section_title
;
Structure prediction by ZEFSAII (Michael W. Deem and Ramdas Pophale) SiO2 
 PCOD8306898
Probable space group: P 42 N M
;
_chemical_formula_sum "Si O2"
_cell_formula_units_Z 60
_cell_length_a 17.202985
_cell_length_b 17.202985
_cell_length_c 10.115107
_cell_angle_alpha 90.000000
_cell_angle_beta 90.000000
_cell_angle_gamma 90.000000
_cell_volume 2993.492005
_symmetry_space_group_name_H-M "P 42 N M"
_symmetry_group_IT_number 102
_symmetry_cell_setting 'tetragonal'
loop_
_space_group_symop_operation_xyz
x,y,z
1/2-y,1/2+x,1/2+z
-x,-y,z
1/2+y,1/2-x,1/2+z
1/2-x,1/2+y,1/2+z
1/2+x,1/2-y,1/2+z
-y,-x,z
y,x,z
loop_
_atom_site_type_symbol
_atom_site_label
_atom_site_fract_x
_atom_site_fract_y
_atom_site_fract_z
Si Si1 0.713508 0.587472 0.557180
Si Si2 0.294226 0.168808 0.459254
Si Si3 0.875005 0.607923 0.223457
Si Si4 0.874702 0.384780 0.428067
Si Si5 0.211739 0.915807 0.355969
Si Si6 0.050309 0.175477 0.558754
Si Si7 0.010217 0.248741 0.814799
Si Si8 0.500000 0.000000 0.330872
O O1 0.642691 0.642691 0.517484
O O2 0.794886 0.635261 0.545082
O O3 0.702727 0.554312 0.705033
O O4 0.713325 0.516626 0.454523
O O5 0.236024 0.236024 0.411465
O O6 0.323984 0.123328 0.330906
O O7 0.250971 0.104914 0.546500
O O8 0.797823 0.557361 0.244205
O O9 0.951170 0.555429 0.235599
O O10 0.875052 0.648316 0.081002
O O11 0.901341 0.302324 0.374333
O O12 0.801016 0.413834 0.343552
O O13 0.944138 0.447752 0.422114
O O14 0.164305 0.835696 0.375843
O O15 0.178192 0.979005 0.457220
O O16 0.095813 0.095813 0.529571
O O17 0.025938 0.178266 0.712957
#
# Coordination Sequence:
#
# PCOD8306898 Si02
#       8
#     8   8   8   8   8   8   8   4
#     4   9  20  40  64  90 123 164 206 253 306 366
#     4   9  19  36  61  87 118 161 201 248 309 367
#     4  10  20  35  54  88 126 162 202 246 301 371
#     4  11  22  36  60  93 129 164 207 254 309 375
#     4  11  24  42  66  91 121 163 211 262 316 373
#     4  11  23  42  63  88 123 161 207 261 316 375
#     4  10  22  37  60  93 122 163 207 254 309 373
#     4  10  22  34  54  86 132 170 196 240 312 380
#
# _framework density 20.043482000000001
#
# number of rings (size 3 to 8) (size 9 to 14) (size 15 to 20)
#    0.000    1.867    1.333    2.000    3.733    2.933 
#    0.000    0.667    0.000    0.800    0.000    0.000 
#    0.000    0.000    0.000    0.000    0.000    0.000 
#
# Total GULP energy -744069.812542 kJ/mol
# GULP energy per Si atom -12401.163542 kJ/mol
# Density = 1.999786 g / cm^3
# Si number density = 20.043482 Si / 1000 Ang^3
#
#
#
# Elastic Constant Matrix: (Units=GPa)
#
#
# Indices 1 2 3 4 5 6 
#
# 1 72.0479 35.5785 41.6854 0.0000 0.0000 -0.0001
# 2 35.5785 72.0479 41.6854 0.0000 0.0000 0.0001
# 3 41.6854 41.6854 134.4024 0.0000 0.0000 0.0000
# 4 0.0000 0.0000 0.0000 21.7964 0.0000 0.0000
# 5 0.0000 0.0000 0.0000 0.0000 21.7964 0.0000
# 6 -0.0001 0.0001 0.0000 0.0000 0.0000 18.5650
#
#
#
# Elastic Compliance Matrix: (Units=1/GPa)
#
#
# Indices 1 2 3 4 5 6 
#
# 1 0.019825 -0.007595 -0.003793 0.000000 0.000000 0.000000
# 2 -0.007595 0.019825 -0.003793 0.000000 0.000000 0.000000
# 3 -0.003793 -0.003793 0.009793 0.000000 0.000000 0.000000
# 4 0.000000 0.000000 0.000000 0.045879 0.000000 0.000000
# 5 0.000000 0.000000 0.000000 0.000000 0.045879 0.000000
# 6 0.000000 0.000000 0.000000 0.000000 0.000000 0.053865
#
#
# Mechanical properties :
#
#
# Convention : Reuss Voigt Hill
#
# Bulk Modulus (GPa) = 52.41033 57.37743 54.89388
# Shear Modulus (GPa) = 21.57134 23.06816 22.31975
#
# Velocity S-wave (km/s) = 3.28415 3.39618 3.34063
# Velocity P-wave (km/s) = 6.37071 6.63832 6.50589
#
# Compressibility (1/GPa) = 0.01908021
#
# Stress axis : x y z
#
# Youngs Moduli (GPa) = 50.44151 50.44151 102.11147
#
# Poissons Ratio (x) = 0.38312 0.38732
# Poissons Ratio (y) = 0.38312 0.38732
# Poissons Ratio (z) = 0.19133 0.19133
#
# Static dielectric constant tensor:
#      x y z
#    x 3.587530 0.000000 0.000000 
#    y 0.000000 3.587530 0.000000 
#    z 0.000000 0.000000 3.665040 
# 
# 
# High freq. dielectric constant tensor:
#      x y z
#    x 1.770790 0.000000 0.000000 
#    y 0.000000 1.770790 0.000000 
#    z 0.000000 0.000000 1.789970 
# 
# From -- ./inp_files/1157.got.cif
#   From: 2010.03.12/outbox.cif.g09.slc.cpg/sg102_1_cif.got.tgz:1157.got - 2010.04.14 01:40:42.
