data_PCOD8306557
_publ_section_title
;
Structure prediction by ZEFSAII (Michael W. Deem and Ramdas Pophale) SiO2 
 PCOD8306557
Probable space group: P 4 M M
;
_chemical_formula_sum "Si O2"
_cell_formula_units_Z 64
_cell_length_a 13.929193
_cell_length_b 13.929193
_cell_length_c 19.779666
_cell_angle_alpha 90.000000
_cell_angle_beta 90.000000
_cell_angle_gamma 90.000000
_cell_volume 3837.698617
_symmetry_space_group_name_H-M "P 4 M M"
_symmetry_group_IT_number 99
_symmetry_cell_setting 'tetragonal'
loop_
_space_group_symop_operation_xyz
x,y,z
-y,x,z
-x,-y,z
y,-x,z
-x,y,z
x,-y,z
-y,-x,z
y,x,z
loop_
_atom_site_type_symbol
_atom_site_label
_atom_site_fract_x
_atom_site_fract_y
_atom_site_fract_z
Si Si1 0.608798 0.111870 0.072180
Si Si2 0.390471 0.763093 0.947879
Si Si3 0.734820 0.890175 0.702537
Si Si4 0.609206 0.235640 0.457848
Si Si5 0.767164 0.389143 0.795242
Si Si6 0.765851 0.389358 0.301111
Si Si7 0.270013 0.113571 0.201878
Si Si8 0.735128 0.890383 0.546609
O O1 0.500000 0.142886 0.091089
O O2 0.679556 0.143428 0.131869
O O3 0.614657 0.000000 0.059725
O O4 0.643762 0.158404 0.002059
O O5 0.500000 0.735307 0.959166
O O6 0.334356 0.665645 0.960766
O O7 0.373122 0.803043 0.872225
O O8 0.831142 0.831142 0.719562
O O9 0.646193 0.852198 0.746740
O O10 0.705340 0.878358 0.624540
O O11 0.756031 0.000000 0.721246
O O12 0.500000 0.257266 0.477809
O O13 0.668803 0.331198 0.475442
O O14 0.619120 0.207557 0.379635
O O15 0.646916 0.146400 0.501549
O O16 0.744896 0.500000 0.780073
O O17 0.669573 0.330428 0.780795
O O18 0.752297 0.500000 0.279157
O O19 0.666727 0.333274 0.284694
O O20 0.854332 0.341377 0.261617
O O21 0.168167 0.168167 0.207122
O O22 0.251400 0.000000 0.207545
O O23 0.831264 0.831264 0.529559
O O24 0.757136 0.000000 0.528056
#
# Coordination Sequence:
#
# PCOD8306557 Si02
#       8
#     8   8   8   8   8   8   8   8
#     4   9  17  29  46  68  91 115 146 184 226 272
#     4   9  17  29  45  65  90 119 149 182 220 263
#     4   9  18  32  49  69  92 118 149 187 231 277
#     4   9  18  32  49  70  96 124 154 188 224 265
#     4   9  18  31  46  66  92 122 156 191 226 266
#     4   9  18  32  50  72  96 122 152 186 226 271
#     4  10  20  33  49  68  91 121 156 193 231 270
#     4   9  18  32  49  69  93 120 151 188 229 273
#
# _framework density 16.676659999999998
#
# number of rings (size 3 to 8) (size 9 to 14) (size 15 to 20)
#    0.000    2.875    0.000    0.750    0.000    3.625 
#    0.000    7.500    0.000    0.000    0.000    8.750 
#    0.000    3.000    0.000    0.000    0.000    0.000 
#
# Total GULP energy -793596.239295 kJ/mol
# GULP energy per Si atom -12399.941239 kJ/mol
# Density = 1.663870 g / cm^3
# Si number density = 16.676660 Si / 1000 Ang^3
#
#
#
# Elastic Constant Matrix: (Units=GPa)
#
#
# Indices 1 2 3 4 5 6 
#
# 1 103.4190 51.8681 55.2271 0.0000 0.0000 -0.0002
# 2 51.8681 103.4190 55.2271 0.0000 0.0000 0.0002
# 3 55.2271 55.2271 76.8628 0.0000 0.0000 0.0000
# 4 0.0000 0.0000 0.0000 28.0517 0.0000 0.0000
# 5 0.0000 0.0000 0.0000 0.0000 28.0517 0.0000
# 6 -0.0002 0.0002 0.0000 0.0000 0.0000 17.4031
#
#
#
# Elastic Compliance Matrix: (Units=1/GPa)
#
#
# Indices 1 2 3 4 5 6 
#
# 1 0.016285 -0.003114 -0.009464 0.000000 0.000000 0.000000
# 2 -0.003114 0.016285 -0.009464 0.000000 0.000000 0.000000
# 3 -0.009464 -0.009464 0.026610 0.000000 0.000000 0.000000
# 4 0.000000 0.000000 0.000000 0.035648 0.000000 0.000000
# 5 0.000000 0.000000 0.000000 0.000000 0.035648 0.000000
# 6 0.000000 0.000000 0.000000 0.000000 0.000000 0.057461
#
#
# Mechanical properties :
#
#
# Convention : Reuss Voigt Hill
#
# Bulk Modulus (GPa) = 66.23669 67.59395 66.91532
# Shear Modulus (GPa) = 21.09252 22.79323 21.94287
#
# Velocity S-wave (km/s) = 3.56025 3.70100 3.63131
# Velocity P-wave (km/s) = 7.53027 7.67354 7.60224
#
# Compressibility (1/GPa) = 0.01509737
#
# Stress axis : x y z
#
# Youngs Moduli (GPa) = 61.40743 61.40743 37.58032
#
# Poissons Ratio (x) = 0.19120 0.35565
# Poissons Ratio (y) = 0.19120 0.35565
# Poissons Ratio (z) = 0.58114 0.58114
#
# Static dielectric constant tensor:
#      x y z
#    x 3.102250 0.000000 0.000000 
#    y 0.000000 3.102250 0.000000 
#    z 0.000000 0.000000 3.264140 
# 
# 
# High freq. dielectric constant tensor:
#      x y z
#    x 1.637580 0.000000 0.000000 
#    y 0.000000 1.637580 0.000000 
#    z 0.000000 0.000000 1.648200 
# 
# From -- ./inp_files/2073.got.cif
#   From: 2010.03.12/outbox.cif.g09.slc.cpg/sg99_cif.got.tgz:2073.got - 2010.04.08 21:11:30.
