data_PCOD8306195
_publ_section_title
;
Structure prediction by ZEFSAII (Michael W. Deem and Ramdas Pophale) SiO2 
 PCOD8306195
Probable space group: I 41 2 2
;
_chemical_formula_sum "Si O2"
_cell_formula_units_Z 72
_cell_length_a 12.452856
_cell_length_b 12.452856
_cell_length_c 27.367513
_cell_angle_alpha 90.000000
_cell_angle_beta 90.000000
_cell_angle_gamma 90.000000
_cell_volume 4243.979381
_symmetry_space_group_name_H-M "I 41 2 2"
_symmetry_group_IT_number 98
_symmetry_cell_setting 'tetragonal'
loop_
_space_group_symop_operation_xyz
x,y,z
-y,1/2+x,1/4+z
-x,-y,z
y,1/2-x,1/4+z
x,1/2-y,1/4-z
-x,1/2+y,1/4-z
y,x,-z
-y,-x,-z
1/2+x,1/2+y,1/2+z
1/2-y,x,3/4+z
1/2-x,1/2-y,1/2+z
1/2+y,-x,3/4+z
1/2+x,-y,3/4-z
1/2-x,y,3/4-z
1/2+y,1/2+x,1/2-z
1/2-y,1/2-x,1/2-z
loop_
_atom_site_type_symbol
_atom_site_label
_atom_site_fract_x
_atom_site_fract_y
_atom_site_fract_z
Si Si1 0.738462 0.595274 0.226756
Si Si2 0.622417 0.526718 0.721916
Si Si3 0.631758 0.835471 0.872587
Si Si4 0.868854 0.291687 0.023518
Si Si5 0.250000 0.543424 0.375000
O O1 0.819010 0.680991 0.250000
O O2 0.615259 0.635170 0.234869
O O3 0.772036 0.571734 0.170856
O O4 0.747250 0.483659 0.254494
O O5 0.500000 0.500000 0.708037
O O6 0.682611 0.568715 0.673180
O O7 0.668696 0.412930 0.740023
O O8 0.750000 0.781320 0.875000
O O9 0.648205 0.964308 0.862951
O O10 0.875361 0.278130 0.081651
O O11 0.778903 0.221098 0.000000
#
# Coordination Sequence:
#
# PCOD8306195 Si02
#       5
#    16  16  16  16   8
#     4  11  18  33  55  88 108 138 190 241 285 331
#     4  10  19  36  54  74 123 154 174 228 293 341
#     4  10  17  31  56  86 105 133 187 238 290 315
#     4  11  24  36  52  81 120 160 182 223 291 360
#     4  10  18  36  54  82 112 142 184 240 294 318
#
# _framework density 16.965209999999999
#
# number of rings (size 3 to 8) (size 9 to 14) (size 15 to 20)
#    0.667    0.889    8.889    0.000    3.111    0.444 
#    0.000    0.000    2.444    0.667    0.000    0.000 
#    0.000    0.000    0.000    0.000    0.000    0.000 
#
# Total GULP energy -446006.008672 kJ/mol
# GULP energy per Si atom -12389.055796 kJ/mol
# Density = 1.692660 g / cm^3
# Si number density = 16.965210 Si / 1000 Ang^3
#
#
#
# Elastic Constant Matrix: (Units=GPa)
#
#
# Indices 1 2 3 4 5 6 
#
# 1 60.0143 85.8107 37.6305 0.0000 0.0000 0.0000
# 2 85.8107 60.0204 37.6266 0.0000 0.0000 0.0000
# 3 37.6305 37.6266 97.1593 0.0000 0.0000 0.0000
# 4 0.0000 0.0000 0.0000 24.3404 0.0000 0.0000
# 5 0.0000 0.0000 0.0000 0.0000 24.3400 0.0000
# 6 0.0000 0.0000 0.0000 0.0000 0.0000 0.1216
#
#
#
# Elastic Compliance Matrix: (Units=1/GPa)
#
#
# Indices 1 2 3 4 5 6 
#
# 1 -0.015101 0.023670 -0.003318 0.000000 0.000000 0.000000
# 2 0.023670 -0.015098 -0.003321 0.000000 0.000000 0.000000
# 3 -0.003318 -0.003321 0.012863 0.000000 0.000000 0.000000
# 4 0.000000 0.000000 0.000000 0.041084 0.000000 0.000000
# 5 0.000000 0.000000 0.000000 0.000000 0.041085 0.000000
# 6 0.000000 0.000000 0.000000 0.000000 0.000000 8.222510
#
#
# Mechanical properties :
#
#
# Convention : Reuss Voigt Hill
#
# Bulk Modulus (GPa) = 59.78269 59.92552 59.85411
# Shear Modulus (GPa) = 0.60541 13.50215 7.05378
#
# Velocity S-wave (km/s) = 0.59802 2.82418 2.04128
# Velocity P-wave (km/s) = 5.98262 6.78483 6.39632
#
# Compressibility (1/GPa) = 0.01672725
#
# Stress axis : x y z
#
# Youngs Moduli (GPa) = -66.21973 -66.23294 77.74046
#
# Poissons Ratio (x) = 1.56774 0.25793
# Poissons Ratio (y) = 1.56742 0.25814
# Poissons Ratio (z) = -0.21971 -0.21993
#
# Static dielectric constant tensor:
#      x y z
#    x 2.975070 0.000000 0.000000 
#    y 0.000000 2.974960 0.000000 
#    z 0.000000 0.000000 3.252810 
# 
# 
# High freq. dielectric constant tensor:
#      x y z
#    x 1.632220 0.000000 0.000000 
#    y 0.000000 1.632230 0.000000 
#    z 0.000000 0.000000 1.650030 
# 
# From -- ./inp_files/10825.got.cif
#   From: 2010.03.12/outbox.cif.g09.slc.cpg/sg98_6_cif.got.tgz:10825.got - 2010.04.08 21:04:41.
