data_PCOD8306906
_publ_section_title
;
Structure prediction by ZEFSAII (Michael W. Deem and Ramdas Pophale) SiO2 
 PCOD8306906
Probable space group: P 42 N M
;
_chemical_formula_sum "Si O2"
_cell_formula_units_Z 40
_cell_length_a 13.629251
_cell_length_b 13.629251
_cell_length_c 11.718908
_cell_angle_alpha 90.000000
_cell_angle_beta 90.000000
_cell_angle_gamma 90.000000
_cell_volume 2176.863133
_symmetry_space_group_name_H-M "P 42 N M"
_symmetry_group_IT_number 102
_symmetry_cell_setting 'tetragonal'
loop_
_space_group_symop_operation_xyz
x,y,z
1/2-y,1/2+x,1/2+z
-x,-y,z
1/2+y,1/2-x,1/2+z
1/2-x,1/2+y,1/2+z
1/2+x,1/2-y,1/2+z
-y,-x,z
y,x,z
loop_
_atom_site_type_symbol
_atom_site_label
_atom_site_fract_x
_atom_site_fract_y
_atom_site_fract_z
Si Si1 0.025637 0.653531 0.716350
Si Si2 0.476175 0.153806 0.671060
Si Si3 0.366217 0.203825 0.449959
Si Si4 0.345513 0.498921 0.807368
Si Si5 0.709480 0.444138 0.040365
O O1 0.094592 0.576641 0.649385
O O2 0.070107 0.684855 0.837002
O O3 0.917308 0.605540 0.727983
O O4 0.015074 0.750284 0.638862
O O5 0.441940 0.206585 0.555173
O O6 0.499433 0.236693 0.761641
O O7 0.305976 0.305976 0.440069
O O8 0.294631 0.113130 0.471775
O O9 0.400319 0.599682 0.770821
O O10 0.405487 0.405487 0.760484
O O11 0.343888 0.490754 0.944964
O O12 0.634064 0.365937 0.096392
#
# Coordination Sequence:
#
# PCOD8306906 Si02
#       5
#     8   8   8   8   8
#     4  10  21  33  59  83 111 149 189 234 284 336
#     4  10  21  34  56  84 113 145 191 237 281 335
#     4  10  20  36  56  81 116 152 185 232 288 335
#     4  10  20  36  58  81 111 151 192 235 282 337
#     4   9  19  36  55  80 114 147 187 232 280 334
#
# _framework density 18.375064999999999
#
# number of rings (size 3 to 8) (size 9 to 14) (size 15 to 20)
#    0.000    2.200    2.000    0.600    2.800    3.200 
#    0.000    1.000    0.000    1.200    0.000    0.000 
#    0.000    0.000    0.000    0.000    0.000    0.000 
#
# Total GULP energy -495870.526249 kJ/mol
# GULP energy per Si atom -12396.763156 kJ/mol
# Density = 1.833324 g / cm^3
# Si number density = 18.375065 Si / 1000 Ang^3
#
#
#
# Elastic Constant Matrix: (Units=GPa)
#
#
# Indices 1 2 3 4 5 6 
#
# 1 82.5658 44.8355 44.6706 0.0000 0.0000 -0.0003
# 2 44.8355 82.5658 44.6706 0.0000 0.0000 0.0003
# 3 44.6706 44.6706 102.4675 0.0000 0.0000 0.0000
# 4 0.0000 0.0000 0.0000 22.9802 0.0000 0.0000
# 5 0.0000 0.0000 0.0000 0.0000 22.9802 0.0000
# 6 -0.0003 0.0003 0.0000 0.0000 0.0000 23.4005
#
#
#
# Elastic Compliance Matrix: (Units=1/GPa)
#
#
# Indices 1 2 3 4 5 6 
#
# 1 0.018905 -0.007599 -0.004929 0.000000 0.000000 0.000000
# 2 -0.007599 0.018905 -0.004929 0.000000 0.000000 0.000000
# 3 -0.004929 -0.004929 0.014056 0.000000 0.000000 0.000000
# 4 0.000000 0.000000 0.000000 0.043516 0.000000 0.000000
# 5 0.000000 0.000000 0.000000 0.000000 0.043516 0.000000
# 6 0.000000 0.000000 0.000000 0.000000 0.000000 0.042734
#
#
# Mechanical properties :
#
#
# Convention : Reuss Voigt Hill
#
# Bulk Modulus (GPa) = 58.98690 59.55027 59.26858
# Shear Modulus (GPa) = 22.50275 22.76701 22.63488
#
# Velocity S-wave (km/s) = 3.50328 3.52379 3.51355
# Velocity P-wave (km/s) = 6.96672 7.00247 6.98462
#
# Compressibility (1/GPa) = 0.01695292
#
# Stress axis : x y z
#
# Youngs Moduli (GPa) = 52.89702 52.89702 71.14188
#
# Poissons Ratio (x) = 0.40198 0.35063
# Poissons Ratio (y) = 0.40198 0.35063
# Poissons Ratio (z) = 0.26071 0.26071
#
# Static dielectric constant tensor:
#      x y z
#    x 3.429420 0.000000 0.000000 
#    y 0.000000 3.429420 0.000000 
#    z 0.000000 0.000000 3.223660 
# 
# 
# High freq. dielectric constant tensor:
#      x y z
#    x 1.712570 0.000000 0.000000 
#    y 0.000000 1.712570 0.000000 
#    z 0.000000 0.000000 1.697940 
# 
# From -- ./inp_files/927.got.cif
#   From: 2010.03.12/outbox.cif.g09.slc.cpg/sg102_1_cif.got.tgz:927.got - 2010.04.14 01:40:42.
