data_PCOD8306960
_publ_section_title
;
Structure prediction by ZEFSAII (Michael W. Deem and Ramdas Pophale) SiO2 
 PCOD8306960
Probable space group: P 4 C C
;
_chemical_formula_sum "Si O2"
_cell_formula_units_Z 56
_cell_length_a 21.576268
_cell_length_b 21.576268
_cell_length_c 8.874092
_cell_angle_alpha 90.000000
_cell_angle_beta 90.000000
_cell_angle_gamma 90.000000
_cell_volume 4131.203444
_symmetry_space_group_name_H-M "P 4 C C"
_symmetry_group_IT_number 103
_symmetry_cell_setting 'tetragonal'
loop_
_space_group_symop_operation_xyz
x,y,z
-y,x,z
-x,-y,z
y,-x,z
-x,y,1/2+z
x,-y,1/2+z
-y,-x,1/2+z
y,x,1/2+z
loop_
_atom_site_type_symbol
_atom_site_label
_atom_site_fract_x
_atom_site_fract_y
_atom_site_fract_z
Si Si1 0.051769 0.160369 0.341830
Si Si2 0.967806 0.422606 0.767586
Si Si3 0.032651 0.704384 0.894613
Si Si4 0.096483 0.492892 0.004071
Si Si5 0.849307 0.078157 0.684292
Si Si6 0.916217 0.287822 0.217825
Si Si7 0.883777 0.583214 0.744064
O O1 0.065801 0.233807 0.331481
O O2 0.058948 0.137022 0.512729
O O3 0.100062 0.127702 0.232159
O O4 0.982400 0.145321 0.288175
O O5 0.939342 0.355424 0.809795
O O6 0.940415 0.445581 0.610342
O O7 0.041384 0.419045 0.749891
O O8 0.951157 0.469988 0.899582
O O9 0.958881 0.709721 0.866469
O O10 0.040379 0.698081 0.073486
O O11 0.137891 0.542033 0.100368
O O12 0.140908 0.449951 0.897146
O O13 0.781486 0.111392 0.701894
O O14 0.864729 0.343616 0.229845
#
# Coordination Sequence:
#
# PCOD8306960 Si02
#       7
#     8   8   8   8   8   8   8
#     4  10  20  35  50  65  77  92 111 143 183 233
#     4  10  16  23  32  49  71  97 120 140 163 185
#     4   9  18  28  40  54  74  94 114 136 169 207
#     4  10  17  22  32  48  72  96 122 144 158 184
#     4  10  20  35  50  65  77  92 111 143 183 233
#     4   9  18  28  40  54  74  94 114 136 169 207
#     4  10  16  23  32  49  71  97 120 140 163 185
#
# _framework density 13.555372
#
# number of rings (size 3 to 8) (size 9 to 14) (size 15 to 20)
#    0.000    2.286    1.429    4.286    6.000    1.429 
#    0.000    1.429    0.000    0.000    0.000    0.000 
#    0.000    0.000    0.000    0.000    0.000    0.000 
#
# Total GULP energy -693768.949209 kJ/mol
# GULP energy per Si atom -12388.731236 kJ/mol
# Density = 1.352452 g / cm^3
# Si number density = 13.555372 Si / 1000 Ang^3
#
#
#
# Elastic Constant Matrix: (Units=GPa)
#
#
# Indices 1 2 3 4 5 6 
#
# 1 50.0444 22.9800 17.9819 0.0000 0.0000 0.0000
# 2 22.9800 50.0444 17.9819 0.0000 0.0000 0.0000
# 3 17.9819 17.9819 72.5935 0.0000 0.0000 0.0000
# 4 0.0000 0.0000 0.0000 15.2144 0.0000 0.0000
# 5 0.0000 0.0000 0.0000 0.0000 15.2144 0.0000
# 6 0.0000 0.0000 0.0000 0.0000 0.0000 -0.0119
#
#
#
# Elastic Compliance Matrix: (Units=1/GPa)
#
#
# Indices 1 2 3 4 5 6 
#
# 1 0.026273 -0.010676 -0.003863 0.000000 0.000000 0.000000
# 2 -0.010676 0.026273 -0.003863 0.000000 0.000000 0.000000
# 3 -0.003863 -0.003863 0.015689 0.000000 0.000000 0.000000
# 4 0.000000 0.000000 0.000000 0.065727 0.000000 0.000000
# 5 0.000000 0.000000 0.000000 0.000000 0.065727 0.000000
# 6 0.000000 0.000000 0.000000 0.000000 0.000000-84.241495
#
#
# Mechanical properties :
#
#
# Convention : Reuss Voigt Hill
#
# Bulk Modulus (GPa) = 31.81758 32.28553 32.05156
# Shear Modulus (GPa) = -0.05953 13.66594 6.80321
#
# Velocity S-wave (km/s) = -0.20979 3.17859 2.24270
# Velocity P-wave (km/s) = 4.84403 6.11069 5.51385
#
# Compressibility (1/GPa) = 0.03142916
#
# Stress axis : x y z
#
# Youngs Moduli (GPa) = 38.06208 38.06208 63.73765
#
# Poissons Ratio (x) = 0.40636 0.24624
# Poissons Ratio (y) = 0.40636 0.24624
# Poissons Ratio (z) = 0.14705 0.14705
#
# Static dielectric constant tensor:
#      x y z
#    x 2.646730 0.000000 0.000000 
#    y 0.000000 2.646730 0.000000 
#    z 0.000000 0.000000 3.042730 
# 
# 
# High freq. dielectric constant tensor:
#      x y z
#    x 1.472850 0.000000 0.000000 
#    y 0.000000 1.472850 0.000000 
#    z 0.000000 0.000000 1.543670 
# 
# From -- ./inp_files/370.got.cif
#   From: 2010.03.12/outbox.cif.g09.slc.cpg/sg103_cif.got.tgz:370.got - 2010.04.14 01:42:52.
