data_PCOD8306453
_publ_section_title
;
Structure prediction by ZEFSAII (Michael W. Deem and Ramdas Pophale) SiO2 
 PCOD8306453
Probable space group: P 4 M M
;
_chemical_formula_sum "Si O2"
_cell_formula_units_Z 56
_cell_length_a 13.495202
_cell_length_b 13.495202
_cell_length_c 18.050729
_cell_angle_alpha 90.000000
_cell_angle_beta 90.000000
_cell_angle_gamma 90.000000
_cell_volume 3287.407376
_symmetry_space_group_name_H-M "P 4 M M"
_symmetry_group_IT_number 99
_symmetry_cell_setting 'tetragonal'
loop_
_space_group_symop_operation_xyz
x,y,z
-y,x,z
-x,-y,z
y,-x,z
-x,y,z
x,-y,z
-y,-x,z
y,x,z
loop_
_atom_site_type_symbol
_atom_site_label
_atom_site_fract_x
_atom_site_fract_y
_atom_site_fract_z
Si Si1 0.616642 0.223582 0.982880
Si Si2 0.111886 0.615162 0.131741
Si Si3 0.883644 0.729344 0.277150
Si Si4 0.116390 0.720108 0.852600
Si Si5 0.617184 0.224160 0.722943
Si Si6 0.890238 0.382334 0.578637
Si Si7 0.390126 0.882071 0.417062
O O1 0.500000 0.240155 0.970928
O O2 0.671323 0.328678 0.971057
O O3 0.656700 0.142996 0.925088
O O4 0.642237 0.183112 0.064076
O O5 0.114683 0.500000 0.149808
O O6 0.150728 0.669005 0.205086
O O7 0.000000 0.648613 0.111798
O O8 0.838584 0.838584 0.272633
O O9 0.840529 0.676604 0.350585
O O10 0.000000 0.741004 0.281080
O O11 0.176315 0.823686 0.850941
O O12 0.143146 0.652438 0.782196
O O13 0.000000 0.744524 0.852271
O O14 0.500000 0.240861 0.729615
O O15 0.670918 0.329083 0.737742
O O16 0.650725 0.185274 0.642333
O O17 0.898264 0.500000 0.575930
O O18 0.851713 0.345545 0.497802
O O19 0.000000 0.338585 0.595408
O O20 0.500000 0.837087 0.406968
O O21 0.395861 0.000000 0.412768
#
# Coordination Sequence:
#
# PCOD8306453 Si02
#       7
#     8   8   8   8   8   8   8
#     4  10  20  33  50  73 100 129 160 192 227 270
#     4   9  17  30  49  70  89 112 147 193 240 278
#     4  10  19  29  42  61  87 119 151 183 222 270
#     4  10  21  36  54  76  99 123 154 192 234 280
#     4  10  20  32  47  69  96 127 162 196 231 273
#     4   8  14  26  45  67  89 113 144 187 236 280
#     4   8  14  26  44  65  87 110 142 188 236 275
#
# _framework density 17.034701999999999
#
# number of rings (size 3 to 8) (size 9 to 14) (size 15 to 20)
#    0.000    2.714    0.000    3.000    0.000    5.143 
#    0.000    0.000    0.000    2.571    0.000    2.000 
#    0.000    6.000    0.000    0.571    0.000    0.000 
#
# Total GULP energy -694202.138379 kJ/mol
# GULP energy per Si atom -12396.466757 kJ/mol
# Density = 1.699593 g / cm^3
# Si number density = 17.034702 Si / 1000 Ang^3
#
#
#
# Elastic Constant Matrix: (Units=GPa)
#
#
# Indices 1 2 3 4 5 6 
#
# 1 78.6845 44.0839 46.9549 0.0000 0.0000 -0.0002
# 2 44.0839 78.6845 46.9549 0.0000 0.0000 0.0002
# 3 46.9549 46.9549 130.2575 0.0000 0.0000 0.0000
# 4 0.0000 0.0000 0.0000 16.9281 0.0000 0.0000
# 5 0.0000 0.0000 0.0000 0.0000 16.9281 0.0000
# 6 -0.0002 0.0002 0.0000 0.0000 0.0000 19.0014
#
#
#
# Elastic Compliance Matrix: (Units=1/GPa)
#
#
# Indices 1 2 3 4 5 6 
#
# 1 0.020074 -0.008827 -0.004054 0.000000 0.000000 0.000000
# 2 -0.008827 0.020074 -0.004054 0.000000 0.000000 0.000000
# 3 -0.004054 -0.004054 0.010600 0.000000 0.000000 0.000000
# 4 0.000000 0.000000 0.000000 0.059073 0.000000 0.000000
# 5 0.000000 0.000000 0.000000 0.000000 0.059073 0.000000
# 6 0.000000 0.000000 0.000000 0.000000 0.000000 0.052628
#
#
# Mechanical properties :
#
#
# Convention : Reuss Voigt Hill
#
# Bulk Modulus (GPa) = 59.25386 62.62377 60.93882
# Shear Modulus (GPa) = 19.15569 20.54703 19.85136
#
# Velocity S-wave (km/s) = 3.35701 3.47679 3.41742
# Velocity P-wave (km/s) = 7.06298 7.27734 7.17096
#
# Compressibility (1/GPa) = 0.01687654
#
# Stress axis : x y z
#
# Youngs Moduli (GPa) = 49.81593 49.81593 94.34006
#
# Poissons Ratio (x) = 0.43974 0.38247
# Poissons Ratio (y) = 0.43974 0.38247
# Poissons Ratio (z) = 0.20196 0.20196
#
# Static dielectric constant tensor:
#      x y z
#    x 2.957460 0.000000 0.000000 
#    y 0.000000 2.957460 0.000000 
#    z 0.000000 0.000000 3.567840 
# 
# 
# High freq. dielectric constant tensor:
#      x y z
#    x 1.635480 0.000000 0.000000 
#    y 0.000000 1.635480 0.000000 
#    z 0.000000 0.000000 1.680420 
# 
# From -- ./inp_files/2125.got.cif
#   From: 2010.03.12/outbox.cif.g09.slc.cpg/sg99_cif.got.tgz:2125.got - 2010.04.08 21:11:30.
