data_PCOD8306445
_publ_section_title
;
Structure prediction by ZEFSAII (Michael W. Deem and Ramdas Pophale) SiO2 
 PCOD8306445
Probable space group: P 4 M M
;
_chemical_formula_sum "Si O2"
_cell_formula_units_Z 56
_cell_length_a 13.921839
_cell_length_b 13.921839
_cell_length_c 18.052859
_cell_angle_alpha 90.000000
_cell_angle_beta 90.000000
_cell_angle_gamma 90.000000
_cell_volume 3498.961825
_symmetry_space_group_name_H-M "P 4 M M"
_symmetry_group_IT_number 99
_symmetry_cell_setting 'tetragonal'
loop_
_space_group_symop_operation_xyz
x,y,z
-y,x,z
-x,-y,z
y,-x,z
-x,y,z
x,-y,z
-y,-x,z
y,x,z
loop_
_atom_site_type_symbol
_atom_site_label
_atom_site_fract_x
_atom_site_fract_y
_atom_site_fract_z
Si Si1 0.392533 0.886354 0.109600
Si Si2 0.889597 0.390287 0.827333
Si Si3 0.887160 0.268634 0.970765
Si Si4 0.113602 0.268269 0.249995
Si Si5 0.393373 0.885893 0.387172
Si Si6 0.612654 0.766183 0.685001
Si Si7 0.106642 0.614099 0.550192
O O1 0.500000 0.841633 0.109987
O O2 0.336786 0.853896 0.183051
O O3 0.400941 0.000000 0.107040
O O4 0.335106 0.849971 0.037808
O O5 0.869969 0.500000 0.851199
O O6 0.861102 0.323124 0.895404
O O7 0.827145 0.360288 0.757101
O O8 0.000000 0.376327 0.804541
O O9 0.832669 0.167332 0.973025
O O10 0.000000 0.246483 0.977549
O O11 0.166094 0.166094 0.242695
O O12 0.149582 0.319320 0.325166
O O13 0.000000 0.248282 0.249240
O O14 0.500000 0.843597 0.370945
O O15 0.356607 0.853504 0.468723
O O16 0.400518 0.000000 0.385481
O O17 0.500000 0.746701 0.679076
O O18 0.663590 0.663590 0.689568
O O19 0.653078 0.822711 0.613432
O O20 0.099793 0.500000 0.555126
O O21 0.000000 0.657569 0.563102
#
# Coordination Sequence:
#
# PCOD8306445 Si02
#       7
#     8   8   8   8   8   8   8
#     4   9  17  30  47  64  82 106 139 180 219 245
#     4   9  17  30  48  67  85 107 140 185 229 256
#     4  10  19  30  45  66  93 121 145 169 201 248
#     4  10  19  29  42  62  89 119 147 173 205 251
#     4   8  14  26  44  64  85 108 137 179 225 258
#     4  10  19  29  42  61  86 115 144 174 211 259
#     4   8  14  26  44  64  84 106 136 178 225 263
#
# _framework density 16.004746999999998
#
# number of rings (size 3 to 8) (size 9 to 14) (size 15 to 20)
#    0.000    2.857    0.000    3.000    0.000    6.143 
#    0.000    0.000    0.000    2.571    0.000    0.000 
#    0.000   25.143    0.000    0.571    0.000    0.000 
#
# Total GULP energy -694235.240476 kJ/mol
# GULP energy per Si atom -12397.057866 kJ/mol
# Density = 1.596832 g / cm^3
# Si number density = 16.004747 Si / 1000 Ang^3
#
#
#
# Elastic Constant Matrix: (Units=GPa)
#
#
# Indices 1 2 3 4 5 6 
#
# 1 67.0280 45.4763 51.3800 0.0000 0.0000 -0.0002
# 2 45.4763 67.0280 51.3800 0.0000 0.0000 0.0002
# 3 51.3800 51.3800 137.3502 0.0000 0.0000 0.0000
# 4 0.0000 0.0000 0.0000 11.8810 0.0000 0.0000
# 5 0.0000 0.0000 0.0000 0.0000 11.8810 0.0000
# 6 -0.0002 0.0002 0.0000 0.0000 0.0000 21.5827
#
#
#
# Elastic Compliance Matrix: (Units=1/GPa)
#
#
# Indices 1 2 3 4 5 6 
#
# 1 0.029951 -0.016449 -0.005051 0.000000 0.000000 0.000000
# 2 -0.016449 0.029951 -0.005051 0.000000 0.000000 0.000000
# 3 -0.005051 -0.005051 0.011059 0.000000 0.000000 0.000000
# 4 0.000000 0.000000 0.000000 0.084168 0.000000 0.000000
# 5 0.000000 0.000000 0.000000 0.000000 0.084168 0.000000
# 6 0.000000 0.000000 0.000000 0.000000 0.000000 0.046333
#
#
# Mechanical properties :
#
#
# Convention : Reuss Voigt Hill
#
# Bulk Modulus (GPa) = 55.99085 63.09764 59.54424
# Shear Modulus (GPa) = 14.50599 17.28028 15.89314
#
# Velocity S-wave (km/s) = 3.01384 3.28944 3.15465
# Velocity P-wave (km/s) = 6.86810 7.34419 7.11013
#
# Compressibility (1/GPa) = 0.01786006
#
# Stress axis : x y z
#
# Youngs Moduli (GPa) = 33.38800 33.38800 90.42047
#
# Poissons Ratio (x) = 0.54920 0.45669
# Poissons Ratio (y) = 0.54920 0.45669
# Poissons Ratio (z) = 0.16864 0.16864
#
# Static dielectric constant tensor:
#      x y z
#    x 2.804920 0.000000 0.000000 
#    y 0.000000 2.804920 0.000000 
#    z 0.000000 0.000000 3.386230 
# 
# 
# High freq. dielectric constant tensor:
#      x y z
#    x 1.586930 0.000000 0.000000 
#    y 0.000000 1.586930 0.000000 
#    z 0.000000 0.000000 1.636810 
# 
# From -- ./inp_files/2010.got.cif
#   From: 2010.03.12/outbox.cif.g09.slc.cpg/sg99_cif.got.tgz:2010.got - 2010.04.08 21:11:30.
