data_PCOD8306075
_publ_section_title
;
Structure prediction by ZEFSAII (Michael W. Deem and Ramdas Pophale) SiO2 
 PCOD8306075
Probable space group: I 4 2 2 
;
_chemical_formula_sum "Si O2"
_cell_formula_units_Z 120
_cell_length_a 17.636496
_cell_length_b 17.636496
_cell_length_c 19.632111
_cell_angle_alpha 90.000000
_cell_angle_beta 90.000000
_cell_angle_gamma 90.000000
_cell_volume 6106.489425
_symmetry_space_group_name_H-M "I 4 2 2 "
_symmetry_group_IT_number 97
_symmetry_cell_setting 'tetragonal'
loop_
_space_group_symop_operation_xyz
x,y,z
-y,x,z
-x,-y,z
y,-x,z
x,-y,-z
-x,y,-z
y,x,-z
-y,-x,-z
1/2+x,1/2+y,1/2+z
1/2-y,1/2+x,1/2+z
1/2-x,1/2-y,1/2+z
1/2+y,1/2-x,1/2+z
1/2+x,1/2-y,1/2-z
1/2-x,1/2+y,1/2-z
1/2+y,1/2+x,1/2-z
1/2-y,1/2-x,1/2-z
loop_
_atom_site_type_symbol
_atom_site_label
_atom_site_fract_x
_atom_site_fract_y
_atom_site_fract_z
Si Si1 0.442118 0.157827 0.211608
Si Si2 0.328126 0.343229 0.076375
Si Si3 0.815136 0.672384 0.599004
Si Si4 0.588749 0.085979 0.490089
Si Si5 0.569605 0.398452 0.806557
Si Si6 0.679427 0.899979 0.636332
Si Si7 0.879607 0.788492 0.793082
Si Si8 0.287016 0.787016 0.250000
O O1 0.422658 0.077343 0.250000
O O2 0.376113 0.173633 0.158379
O O3 0.524311 0.161466 0.178634
O O4 0.437085 0.224940 0.265907
O O5 0.296743 0.257213 0.074908
O O6 0.394646 0.347904 0.132733
O O7 0.259258 0.401318 0.094835
O O8 0.360438 0.360438 0.000000
O O9 0.850408 0.624086 0.538385
O O10 0.734790 0.637172 0.628016
O O11 0.500000 0.086484 0.500000
O O12 0.608867 0.110787 0.413976
O O13 0.620913 0.000000 0.500000
O O14 0.604347 0.480460 0.816909
O O15 0.582593 0.368573 0.728340
O O16 0.678274 0.827341 0.684408
O O17 0.802173 0.798594 0.751024
#
# Coordination Sequence:
#
# PCOD8306075 Si02
#       8
#    16  16  16  16  16  16  16   8
#     4  10  20  36  60  87 119 168 208 248 314 381
#     4  12  23  36  64  94 122 170 217 261 320 398
#     4  11  20  39  63  86 121 169 208 258 313 379
#     4  11  25  43  61  86 129 171 212 260 317 384
#     4  11  24  41  60  90 130 164 205 266 327 385
#     4  12  23  39  62  92 125 164 213 264 319 386
#     4  11  19  38  61  88 124 156 205 258 313 373
#     4  12  22  36  59  94 122 147 206 274 304 360
#
# _framework density 19.651226000000001
#
# number of rings (size 3 to 8) (size 9 to 14) (size 15 to 20)
#    0.000    0.800    8.667    0.800    0.000    2.667 
#    0.000    0.667    0.000    0.000    0.000    0.000 
#    0.000    0.000    0.000    0.000    0.000    0.000 
#
# Total GULP energy -743386.303453 kJ/mol
# GULP energy per Si atom -12389.771724 kJ/mol
# Density = 1.960650 g / cm^3
# Si number density = 19.651226 Si / 1000 Ang^3
#
#
#
# Elastic Constant Matrix: (Units=GPa)
#
#
# Indices 1 2 3 4 5 6 
#
# 1 112.2726 13.0865 52.1179 0.0000 0.0000 0.0000
# 2 13.0865 112.2743 52.1169 0.0000 0.0000 0.0000
# 3 52.1179 52.1169 106.4018 0.0000 0.0000 0.0000
# 4 0.0000 0.0000 0.0000 44.6194 0.0000 0.0000
# 5 0.0000 0.0000 0.0000 0.0000 44.6141 0.0000
# 6 0.0000 0.0000 0.0000 0.0000 0.0000 23.3068
#
#
#
# Elastic Compliance Matrix: (Units=1/GPa)
#
#
# Indices 1 2 3 4 5 6 
#
# 1 0.011770 0.001688 -0.006592 0.000000 0.000000 0.000000
# 2 0.001688 0.011770 -0.006592 0.000000 0.000000 0.000000
# 3 -0.006592 -0.006592 0.015856 0.000000 0.000000 0.000000
# 4 0.000000 0.000000 0.000000 0.022412 0.000000 0.000000
# 5 0.000000 0.000000 0.000000 0.000000 0.022414 0.000000
# 6 0.000000 0.000000 0.000000 0.000000 0.000000 0.042906
#
#
# Mechanical properties :
#
#
# Convention : Reuss Voigt Hill
#
# Bulk Modulus (GPa) = 60.95951 62.84350 61.90151
# Shear Modulus (GPa) = 32.13605 36.74990 34.44297
#
# Velocity S-wave (km/s) = 4.04830 4.32916 4.19108
# Velocity P-wave (km/s) = 7.27597 7.55233 7.41544
#
# Compressibility (1/GPa) = 0.01640433
#
# Stress axis : x y z
#
# Youngs Moduli (GPa) = 84.95976 84.96239 63.06705
#
# Poissons Ratio (x) = -0.14343 0.41575
# Poissons Ratio (y) = -0.14342 0.41573
# Poissons Ratio (z) = 0.56007 0.56007
#
# Static dielectric constant tensor:
#      x y z
#    x 3.712180 0.000000 0.000000 
#    y 0.000000 3.712170 0.000000 
#    z 0.000000 0.000000 3.836700 
# 
# 
# High freq. dielectric constant tensor:
#      x y z
#    x 1.757260 0.000000 0.000000 
#    y 0.000000 1.757260 0.000000 
#    z 0.000000 0.000000 1.760280 
# 
# From -- ./inp_files/6856.got.cif
#   From: 2010.03.12/outbox.cif.g09.slc.cpg/sg97_4_cif.got.tgz:6856.got - 2010.04.08 20:59:42.
