data_PCOD8306979
_publ_section_title
;
Structure prediction by ZEFSAII (Michael W. Deem and Ramdas Pophale) SiO2 
 PCOD8306979
Probable space group: P 4 C C
;
_chemical_formula_sum "Si O2"
_cell_formula_units_Z 48
_cell_length_a 13.893451
_cell_length_b 13.893451
_cell_length_c 12.885758
_cell_angle_alpha 90.000000
_cell_angle_beta 90.000000
_cell_angle_gamma 90.000000
_cell_volume 2487.311846
_symmetry_space_group_name_H-M "P 4 C C"
_symmetry_group_IT_number 103
_symmetry_cell_setting 'tetragonal'
loop_
_space_group_symop_operation_xyz
x,y,z
-y,x,z
-x,-y,z
y,-x,z
-x,y,1/2+z
x,-y,1/2+z
-y,-x,1/2+z
y,x,1/2+z
loop_
_atom_site_type_symbol
_atom_site_label
_atom_site_fract_x
_atom_site_fract_y
_atom_site_fract_z
Si Si1 0.751450 0.008604 0.588800
Si Si2 0.328223 0.846856 0.749130
Si Si3 0.724255 0.149348 0.237730
Si Si4 0.145406 0.948160 0.395649
Si Si5 0.886899 0.520948 0.159210
Si Si6 0.938514 0.588133 0.951021
O O1 0.732185 0.071634 0.690177
O O2 0.839791 0.049539 0.520796
O O3 0.769169 0.900264 0.633383
O O4 0.659248 0.010037 0.512774
O O5 0.261539 0.752317 0.748484
O O6 0.428376 0.823898 0.691124
O O7 0.351897 0.880333 0.865857
O O8 0.760103 0.089901 0.338064
O O9 0.608777 0.142663 0.234525
O O10 0.058010 0.878302 0.363309
O O11 0.000000 0.500000 0.175055
O O12 0.865387 0.545452 0.038414
O O13 0.000000 0.500000 0.900782
#
# Coordination Sequence:
#
# PCOD8306979 Si02
#       6
#     8   8   8   8   8   8
#     4  11  21  37  55  83 116 161 198 248 303 364
#     4  12  22  36  61  87 116 157 203 256 307 363
#     4  11  23  38  60  88 119 157 212 254 303 374
#     4  11  24  38  53  81 122 167 206 244 301 366
#     4  10  21  41  60  87 118 161 198 258 314 362
#     4  10  20  34  58  85 116 153 199 251 305 360
#
# _framework density 19.297941000000002
#
# number of rings (size 3 to 8) (size 9 to 14) (size 15 to 20)
#    0.000    1.167    5.000    4.500    2.333    1.333 
#    0.000    1.667    0.000    0.500    0.000    0.000 
#    0.000    5.333    0.000    0.000    0.000    0.000 
#
# Total GULP energy -594962.730730 kJ/mol
# GULP energy per Si atom -12395.056890 kJ/mol
# Density = 1.925402 g / cm^3
# Si number density = 19.297941 Si / 1000 Ang^3
#
#
#
# Elastic Constant Matrix: (Units=GPa)
#
#
# Indices 1 2 3 4 5 6 
#
# 1 95.6482 51.4024 42.9943 0.0000 0.0000 0.0000
# 2 51.4024 95.6482 42.9943 0.0000 0.0000 0.0000
# 3 42.9943 42.9943 105.3507 0.0000 0.0000 0.0000
# 4 0.0000 0.0000 0.0000 31.6982 0.0000 0.0000
# 5 0.0000 0.0000 0.0000 0.0000 31.6982 0.0000
# 6 0.0000 0.0000 0.0000 0.0000 0.0000 28.9289
#
#
#
# Elastic Compliance Matrix: (Units=1/GPa)
#
#
# Indices 1 2 3 4 5 6 
#
# 1 0.015766 -0.006835 -0.003645 0.000000 0.000000 0.000000
# 2 -0.006835 0.015766 -0.003645 0.000000 0.000000 0.000000
# 3 -0.003645 -0.003645 0.012467 0.000000 0.000000 0.000000
# 4 0.000000 0.000000 0.000000 0.031548 0.000000 0.000000
# 5 0.000000 0.000000 0.000000 0.000000 0.031548 0.000000
# 6 0.000000 0.000000 0.000000 0.000000 0.000000 0.034567
#
#
# Mechanical properties :
#
#
# Convention : Reuss Voigt Hill
#
# Bulk Modulus (GPa) = 63.49010 63.49210 63.49110
# Shear Modulus (GPa) = 28.54489 29.08214 28.81352
#
# Velocity S-wave (km/s) = 3.85017 3.88623 3.86824
# Velocity P-wave (km/s) = 7.26198 7.28762 7.27481
#
# Compressibility (1/GPa) = 0.01575049
#
# Stress axis : x y z
#
# Youngs Moduli (GPa) = 63.42577 63.42577 80.20960
#
# Poissons Ratio (x) = 0.43349 0.29238
# Poissons Ratio (y) = 0.43349 0.29238
# Poissons Ratio (z) = 0.23120 0.23120
#
# Static dielectric constant tensor:
#      x y z
#    x 3.484870 0.000000 0.000000 
#    y 0.000000 3.484870 0.000000 
#    z 0.000000 0.000000 3.793470 
# 
# 
# High freq. dielectric constant tensor:
#      x y z
#    x 1.724080 0.000000 0.000000 
#    y 0.000000 1.724080 0.000000 
#    z 0.000000 0.000000 1.770670 
# 
# From -- ./inp_files/607.got.cif
#   From: 2010.03.12/outbox.cif.g09.slc.cpg/sg103_cif.got.tgz:607.got - 2010.04.14 01:42:52.
