data_PCOD8306881
_publ_section_title
;
Structure prediction by ZEFSAII (Michael W. Deem and Ramdas Pophale) SiO2 
 PCOD8306881
Probable space group: P 42 N M
;
_chemical_formula_sum "Si O2"
_cell_formula_units_Z 48
_cell_length_a 14.782756
_cell_length_b 14.782756
_cell_length_c 12.089351
_cell_angle_alpha 90.000000
_cell_angle_beta 90.000000
_cell_angle_gamma 90.000000
_cell_volume 2641.884362
_symmetry_space_group_name_H-M "P 42 N M"
_symmetry_group_IT_number 102
_symmetry_cell_setting 'tetragonal'
loop_
_space_group_symop_operation_xyz
x,y,z
1/2-y,1/2+x,1/2+z
-x,-y,z
1/2+y,1/2-x,1/2+z
1/2-x,1/2+y,1/2+z
1/2+x,1/2-y,1/2+z
-y,-x,z
y,x,z
loop_
_atom_site_type_symbol
_atom_site_label
_atom_site_fract_x
_atom_site_fract_y
_atom_site_fract_z
Si Si1 0.038960 0.638419 0.767430
Si Si2 0.574467 0.425534 0.340059
Si Si3 0.783249 0.465436 0.047487
Si Si4 0.362574 0.965324 0.318497
Si Si5 0.440695 0.295981 0.420449
Si Si6 0.076415 0.076415 0.580983
Si Si7 0.136541 0.719594 0.128665
O O1 0.108241 0.555772 0.752775
O O2 0.083408 0.706703 0.853169
O O3 0.027768 0.690868 0.651727
O O4 0.947388 0.602501 0.825416
O O5 0.500000 0.500000 0.368323
O O6 0.542693 0.330854 0.394692
O O7 0.588776 0.411225 0.210954
O O8 0.674695 0.453121 0.033576
O O9 0.836615 0.372504 0.066770
O O10 0.821713 0.514045 0.938435
O O11 0.288322 0.916516 0.243315
O O12 0.370474 0.370474 0.377196
O O13 0.429320 0.277429 0.550069
O O14 0.000000 0.000000 0.552526
O O15 0.229236 0.770765 0.154677
#
# Coordination Sequence:
#
# PCOD8306881 Si02
#       7
#     8   4   8   8   8   4   8
#     4  10  21  35  58  87 115 153 191 244 293 344
#     4   9  18  34  57  87 111 145 195 245 285 335
#     4  11  21  37  60  85 115 154 199 239 296 353
#     4  10  23  36  57  86 123 152 192 243 294 352
#     4  10  19  35  61  84 114 149 195 240 289 349
#     4  11  22  36  59  87 117 150 195 245 293 348
#     4  10  21  38  60  85 117 161 200 236 290 361
#
# _framework density 18.168851
#
# number of rings (size 3 to 8) (size 9 to 14) (size 15 to 20)
#    0.000    1.833    4.167    0.000    2.333    2.000 
#    0.000    0.833    0.000    1.000    0.000    0.000 
#    0.000    0.000    0.000    0.000    0.000    0.000 
#
# Total GULP energy -595056.626920 kJ/mol
# GULP energy per Si atom -12397.013061 kJ/mol
# Density = 1.812750 g / cm^3
# Si number density = 18.168851 Si / 1000 Ang^3
#
#
#
# Elastic Constant Matrix: (Units=GPa)
#
#
# Indices 1 2 3 4 5 6 
#
# 1 66.6242 20.9645 44.8832 0.0000 0.0000 -0.0001
# 2 20.9645 66.6242 44.8832 0.0000 0.0000 0.0001
# 3 44.8832 44.8832 112.7850 0.0000 0.0000 0.0000
# 4 0.0000 0.0000 0.0000 27.5490 0.0000 0.0000
# 5 0.0000 0.0000 0.0000 0.0000 27.5490 0.0000
# 6 -0.0001 0.0001 0.0000 0.0000 0.0000 25.2624
#
#
#
# Elastic Compliance Matrix: (Units=1/GPa)
#
#
# Indices 1 2 3 4 5 6 
#
# 1 0.020591 -0.001310 -0.007673 0.000000 0.000000 0.000000
# 2 -0.001310 0.020591 -0.007673 0.000000 0.000000 0.000000
# 3 -0.007673 -0.007673 0.014973 0.000000 0.000000 0.000000
# 4 0.000000 0.000000 0.000000 0.036299 0.000000 0.000000
# 5 0.000000 0.000000 0.000000 0.000000 0.036299 0.000000
# 6 0.000000 0.000000 0.000000 0.000000 0.000000 0.039585
#
#
# Mechanical properties :
#
#
# Convention : Reuss Voigt Hill
#
# Bulk Modulus (GPa) = 43.77659 51.94389 47.86024
# Shear Modulus (GPa) = 23.89333 25.09224 24.49278
#
# Velocity S-wave (km/s) = 3.63032 3.72029 3.67558
# Velocity P-wave (km/s) = 6.45902 6.86336 6.66426
#
# Compressibility (1/GPa) = 0.02284326
#
# Stress axis : x y z
#
# Youngs Moduli (GPa) = 48.56530 48.56530 66.78584
#
# Poissons Ratio (x) = 0.06364 0.51243
# Poissons Ratio (y) = 0.06364 0.51243
# Poissons Ratio (z) = 0.37263 0.37263
#
# Static dielectric constant tensor:
#      x y z
#    x 3.453510 0.000000 0.000000 
#    y 0.000000 3.453510 0.000000 
#    z 0.000000 0.000000 3.213980 
# 
# 
# High freq. dielectric constant tensor:
#      x y z
#    x 1.703970 0.000000 0.000000 
#    y 0.000000 1.703970 0.000000 
#    z 0.000000 0.000000 1.694220 
# 
# From -- ./inp_files/1783.got.cif
#   From: 2010.03.12/outbox.cif.g09.slc.cpg/sg102_1_cif.got.tgz:1783.got - 2010.04.14 01:40:42.
