data_PCOD8306409
_publ_section_title
;
Structure prediction by ZEFSAII (Michael W. Deem and Ramdas Pophale) SiO2 
 PCOD8306409
Probable space group: P 4 M M
;
_chemical_formula_sum "Si O2"
_cell_formula_units_Z 48
_cell_length_a 22.648562
_cell_length_b 22.648562
_cell_length_c 7.469576
_cell_angle_alpha 90.000000
_cell_angle_beta 90.000000
_cell_angle_gamma 90.000000
_cell_volume 3831.573990
_symmetry_space_group_name_H-M "P 4 M M"
_symmetry_group_IT_number 99
_symmetry_cell_setting 'tetragonal'
loop_
_space_group_symop_operation_xyz
x,y,z
-y,x,z
-x,-y,z
y,-x,z
-x,y,z
x,-y,z
-y,-x,z
y,x,z
loop_
_atom_site_type_symbol
_atom_site_label
_atom_site_fract_x
_atom_site_fract_y
_atom_site_fract_z
Si Si1 0.154141 0.569898 0.702990
Si Si2 0.725920 0.633075 0.199207
Si Si3 0.565811 0.343419 0.905920
Si Si4 0.567054 0.723299 0.548045
Si Si5 0.934735 0.569035 0.410948
Si Si6 0.842153 0.430160 0.112297
O O1 0.156325 0.500000 0.687504
O O2 0.216175 0.594515 0.628210
O O3 0.101583 0.595969 0.579394
O O4 0.144265 0.588189 0.908555
O O5 0.702082 0.702082 0.196677
O O6 0.700217 0.604811 0.380648
O O7 0.795555 0.617528 0.193368
O O8 0.702394 0.602409 0.021527
O O9 0.500000 0.342743 0.979774
O O10 0.590882 0.409119 0.928465
O O11 0.569844 0.326404 0.698810
O O12 0.500000 0.733946 0.483604
O O13 0.941468 0.500000 0.443414
O O14 0.901595 0.580578 0.223886
O O15 0.000000 0.598298 0.402730
O O16 0.821805 0.500000 0.127167
#
# Coordination Sequence:
#
# PCOD8306409 Si02
#       6
#     8   8   8   8   8   8
#     4   9  16  25  41  57  73  97 120 143 177 223
#     4  11  20  28  41  59  75  93 123 157 187 227
#     4  10  20  31  42  56  71  88 116 153 193 241
#     4  10  17  28  44  57  70  92 119 149 188 234
#     4   9  17  27  40  60  81  99 120 144 174 221
#     4  10  17  28  43  57  75 101 123 148 189 229
#
# _framework density 12.527488999999999
#
# number of rings (size 3 to 8) (size 9 to 14) (size 15 to 20)
#    0.000    2.167    3.333    2.000    0.000    0.833 
#    0.000    3.333    0.000    0.000    0.000    2.333 
#    0.000    0.000    0.000    0.000    0.000    0.000 
#
# Total GULP energy -594707.260516 kJ/mol
# GULP energy per Si atom -12389.734594 kJ/mol
# Density = 1.249898 g / cm^3
# Si number density = 12.527489 Si / 1000 Ang^3
#
#
#
# Elastic Constant Matrix: (Units=GPa)
#
#
# Indices 1 2 3 4 5 6 
#
# 1 42.9382 17.2717 8.0702 0.0000 0.0000 0.0003
# 2 17.2717 42.9382 8.0702 0.0000 0.0000 -0.0003
# 3 8.0702 8.0702 66.3183 0.0000 0.0000 0.0000
# 4 0.0000 0.0000 0.0000 11.6624 0.0000 0.0000
# 5 0.0000 0.0000 0.0000 0.0000 11.6624 0.0000
# 6 0.0003 -0.0003 0.0000 0.0000 0.0000 4.9782
#
#
#
# Elastic Compliance Matrix: (Units=1/GPa)
#
#
# Indices 1 2 3 4 5 6 
#
# 1 0.028065 -0.010896 -0.002089 0.000000 0.000000 -0.000003
# 2 -0.010896 0.028065 -0.002089 0.000000 0.000000 0.000003
# 3 -0.002089 -0.002089 0.015587 0.000000 0.000000 0.000000
# 4 0.000000 0.000000 0.000000 0.085745 0.000000 0.000000
# 5 0.000000 0.000000 0.000000 0.000000 0.085745 0.000000
# 6 -0.000003 0.000003 0.000000 0.000000 0.000000 0.200878
#
#
# Mechanical properties :
#
#
# Convention : Reuss Voigt Hill
#
# Bulk Modulus (GPa) = 24.05722 24.33545 24.19633
# Shear Modulus (GPa) = 10.24399 13.57943 11.91171
#
# Velocity S-wave (km/s) = 2.86268 3.29594 3.08692
# Velocity P-wave (km/s) = 5.49289 5.82685 5.66233
#
# Compressibility (1/GPa) = 0.04156757
#
# Stress axis : x y z
#
# Youngs Moduli (GPa) = 35.63160 35.63160 64.15487
#
# Poissons Ratio (x) = 0.38825 0.13404
# Poissons Ratio (y) = 0.38825 0.13404
# Poissons Ratio (z) = 0.07444 0.07444
#
# Static dielectric constant tensor:
#      x y z
#    x 2.454790 0.000000 0.000000 
#    y 0.000000 2.454790 0.000000 
#    z 0.000000 0.000000 2.752890 
# 
# 
# High freq. dielectric constant tensor:
#      x y z
#    x 1.434800 0.000000 0.000000 
#    y 0.000000 1.434800 0.000000 
#    z 0.000000 0.000000 1.500280 
# 
# From -- ./inp_files/1053.got.cif
#   From: 2010.03.12/outbox.cif.g09.slc.cpg/sg99_cif.got.tgz:1053.got - 2010.04.08 21:11:30.
