data_PCOD8306291
_publ_section_title
;
Structure prediction by ZEFSAII (Michael W. Deem and Ramdas Pophale) SiO2 
 PCOD8306291
Probable space group: I 41 2 2
;
_chemical_formula_sum "Si O2"
_cell_formula_units_Z 96
_cell_length_a 24.851708
_cell_length_b 24.851708
_cell_length_c 8.354149
_cell_angle_alpha 90.000000
_cell_angle_beta 90.000000
_cell_angle_gamma 90.000000
_cell_volume 5159.584164
_symmetry_space_group_name_H-M "I 41 2 2"
_symmetry_group_IT_number 98
_symmetry_cell_setting 'tetragonal'
loop_
_space_group_symop_operation_xyz
x,y,z
-y,1/2+x,1/4+z
-x,-y,z
y,1/2-x,1/4+z
x,1/2-y,1/4-z
-x,1/2+y,1/4-z
y,x,-z
-y,-x,-z
1/2+x,1/2+y,1/2+z
1/2-y,x,3/4+z
1/2-x,1/2-y,1/2+z
1/2+y,-x,3/4+z
1/2+x,-y,3/4-z
1/2-x,y,3/4-z
1/2+y,1/2+x,1/2-z
1/2-y,1/2-x,1/2-z
loop_
_atom_site_type_symbol
_atom_site_label
_atom_site_fract_x
_atom_site_fract_y
_atom_site_fract_z
Si Si1 0.743208 0.040492 0.060889
Si Si2 0.299087 0.459045 0.974481
Si Si3 0.047589 0.848312 0.751938
Si Si4 0.910388 0.910388 0.500000
Si Si5 0.028446 0.057147 0.826369
Si Si6 0.250000 0.812083 0.875000
Si Si7 0.333104 0.632610 0.157685
O O1 0.799781 0.062027 0.129076
O O2 0.693764 0.075457 0.130987
O O3 0.728829 0.979582 0.111780
O O4 0.750000 0.043475 0.875000
O O5 0.250000 0.432009 0.875000
O O6 0.323910 0.511308 0.888202
O O7 0.346093 0.416919 0.008362
O O8 0.103550 0.874178 0.693101
O O9 0.015666 0.895962 0.840175
O O10 0.935098 0.934429 0.665804
O O11 0.059300 0.059300 0.000000
O O12 0.000000 0.000000 0.804597
O O13 0.272137 0.772137 0.750000
O O14 0.200821 0.846575 0.807437
O O15 0.329061 0.670940 0.000000
#
# Coordination Sequence:
#
# PCOD8306291 Si02
#       7
#    16  16  16   8  16   8  16
#     4  11  23  36  58  88 111 153 198 245 305 359
#     4   9  20  40  61  90 122 155 199 236 299 359
#     4  10  23  40  58  80 119 149 197 254 290 364
#     4  10  21  38  66  88 126 162 202 242 298 378
#     4  10  23  38  58  90 122 157 197 252 312 364
#     4  12  26  42  52  74 100 140 202 256 304 352
#     4  12  24  39  60  76 106 153 197 255 306 349
#
# _framework density 18.60615
#
# number of rings (size 3 to 8) (size 9 to 14) (size 15 to 20)
#    0.000    1.500    2.500    1.750    4.667    2.667 
#    0.000    0.000    0.000    0.000    0.000    1.167 
#    0.000    0.000    0.000    0.000    0.000    0.000 
#
# Total GULP energy -594738.588160 kJ/mol
# GULP energy per Si atom -12390.387253 kJ/mol
# Density = 1.856380 g / cm^3
# Si number density = 18.606150 Si / 1000 Ang^3
#
#
#
# Elastic Constant Matrix: (Units=GPa)
#
#
# Indices 1 2 3 4 5 6 
#
# 1 108.1542 55.4510 39.3734 0.0000 0.0000 0.0000
# 2 55.4510 108.1537 39.3731 0.0000 0.0000 0.0000
# 3 39.3734 39.3731 112.9788 0.0000 0.0000 0.0000
# 4 0.0000 0.0000 0.0000 23.9563 0.0000 0.0000
# 5 0.0000 0.0000 0.0000 0.0000 23.9561 0.0000
# 6 0.0000 0.0000 0.0000 0.0000 0.0000 40.4823
#
#
#
# Elastic Compliance Matrix: (Units=1/GPa)
#
#
# Indices 1 2 3 4 5 6 
#
# 1 0.013159 -0.005815 -0.002559 0.000000 0.000000 0.000000
# 2 -0.005815 0.013159 -0.002559 0.000000 0.000000 0.000000
# 3 -0.002559 -0.002559 0.010635 0.000000 0.000000 0.000000
# 4 0.000000 0.000000 0.000000 0.041743 0.000000 0.000000
# 5 0.000000 0.000000 0.000000 0.000000 0.041743 0.000000
# 6 0.000000 0.000000 0.000000 0.000000 0.000000 0.024702
#
#
# Mechanical properties :
#
#
# Convention : Reuss Voigt Hill
#
# Bulk Modulus (GPa) = 66.28784 66.40909 66.34846
# Shear Modulus (GPa) = 29.06333 30.68487 29.87410
#
# Velocity S-wave (km/s) = 3.95654 4.06541 4.01135
# Velocity P-wave (km/s) = 7.52173 7.60304 7.56250
#
# Compressibility (1/GPa) = 0.01508572
#
# Stress axis : x y z
#
# Youngs Moduli (GPa) = 75.99239 75.99211 94.02756
#
# Poissons Ratio (x) = 0.44190 0.24066
# Poissons Ratio (y) = 0.44190 0.24066
# Poissons Ratio (z) = 0.19450 0.19450
#
# Static dielectric constant tensor:
#      x y z
#    x 3.824650 0.000000 0.000000 
#    y 0.000000 3.824680 0.000000 
#    z 0.000000 0.000000 3.841210 
# 
# 
# High freq. dielectric constant tensor:
#      x y z
#    x 1.707030 0.000000 0.000000 
#    y 0.000000 1.707030 0.000000 
#    z 0.000000 0.000000 1.739000 
# 
# From -- ./inp_files/3752.got.cif
#   From: 2010.03.12/outbox.cif.g09.slc.cpg/sg98_2_cif.got.tgz:3752.got - 2010.04.08 21:04:41.
