data_PCOD8306545
_publ_section_title
;
Structure prediction by ZEFSAII (Michael W. Deem and Ramdas Pophale) SiO2 
 PCOD8306545
Probable space group: P 4 M M
;
_chemical_formula_sum "Si O2"
_cell_formula_units_Z 64
_cell_length_a 13.545983
_cell_length_b 13.545983
_cell_length_c 20.754598
_cell_angle_alpha 90.000000
_cell_angle_beta 90.000000
_cell_angle_gamma 90.000000
_cell_volume 3808.337054
_symmetry_space_group_name_H-M "P 4 M M"
_symmetry_group_IT_number 99
_symmetry_cell_setting 'tetragonal'
loop_
_space_group_symop_operation_xyz
x,y,z
-y,x,z
-x,-y,z
y,-x,z
-x,y,z
x,-y,z
-y,-x,z
y,x,z
loop_
_atom_site_type_symbol
_atom_site_label
_atom_site_fract_x
_atom_site_fract_y
_atom_site_fract_z
Si Si1 0.390373 0.117231 0.330730
Si Si2 0.273342 0.886335 0.070989
Si Si3 0.882883 0.723743 0.823414
Si Si4 0.732156 0.887122 0.213310
Si Si5 0.616661 0.780069 0.709863
Si Si6 0.117314 0.275621 0.596770
Si Si7 0.391473 0.883334 0.949560
Si Si8 0.883273 0.389766 0.471894
O O1 0.500000 0.160267 0.325155
O O2 0.330400 0.163099 0.270811
O O3 0.347628 0.147962 0.401189
O O4 0.392484 0.000000 0.324035
O O5 0.171544 0.828457 0.063172
O O6 0.319222 0.872524 0.143039
O O7 0.247103 0.000000 0.057679
O O8 0.351275 0.846364 0.018659
O O9 0.828903 0.828903 0.812705
O O10 0.845482 0.644150 0.771793
O O11 0.851089 0.682126 0.892959
O O12 0.000000 0.740211 0.816418
O O13 0.839453 0.839453 0.211845
O O14 0.750480 0.000000 0.229370
O O15 0.500000 0.757023 0.709792
O O16 0.676515 0.676515 0.709524
O O17 0.644099 0.846338 0.648227
O O18 0.170390 0.170390 0.608975
O O19 0.152382 0.315355 0.527073
O O20 0.000000 0.259842 0.602287
O O21 0.500000 0.836045 0.939051
O O22 0.401383 0.000000 0.949505
O O23 0.838711 0.500000 0.482384
O O24 0.000000 0.398971 0.475244
#
# Coordination Sequence:
#
# PCOD8306545 Si02
#       8
#     8   8   8   8   8   8   8   8
#     4   8  14  25  41  60  81 107 142 184 228 269
#     4   9  17  28  41  59  84 114 148 184 222 268
#     4  10  20  33  50  73 100 130 163 195 228 271
#     4   9  17  27  39  57  83 115 148 181 218 265
#     4  10  21  36  54  76  99 124 158 199 242 287
#     4  10  20  32  47  69  96 127 162 196 231 275
#     4   9  17  29  45  64  86 114 148 186 228 271
#     4   8  14  26  44  63  82 108 145 188 230 270
#
# _framework density 16.805235
#
# number of rings (size 3 to 8) (size 9 to 14) (size 15 to 20)
#    0.000    2.875    0.000    2.250    0.000    3.625 
#    0.000    3.750    0.000    4.500    0.000    3.500 
#    0.000    2.500    0.000    8.250    0.000    4.750 
#
# Total GULP energy -793096.744756 kJ/mol
# GULP energy per Si atom -12392.136637 kJ/mol
# Density = 1.676699 g / cm^3
# Si number density = 16.805235 Si / 1000 Ang^3
#
#
#
# Elastic Constant Matrix: (Units=GPa)
#
#
# Indices 1 2 3 4 5 6 
#
# 1 76.4078 36.2257 42.7261 0.0000 0.0000 0.0002
# 2 36.2257 76.4078 42.7261 0.0000 0.0000 -0.0002
# 3 42.7261 42.7261 136.9129 0.0000 0.0000 0.0000
# 4 0.0000 0.0000 0.0000 22.8107 0.0000 0.0000
# 5 0.0000 0.0000 0.0000 0.0000 22.8107 0.0000
# 6 0.0002 -0.0002 0.0000 0.0000 0.0000 9.7974
#
#
#
# Elastic Compliance Matrix: (Units=1/GPa)
#
#
# Indices 1 2 3 4 5 6 
#
# 1 0.018260 -0.006627 -0.003630 0.000000 0.000000 -0.000001
# 2 -0.006627 0.018260 -0.003630 0.000000 0.000000 0.000001
# 3 -0.003630 -0.003630 0.009570 0.000000 0.000000 0.000000
# 4 0.000000 0.000000 0.000000 0.043839 0.000000 0.000000
# 5 0.000000 0.000000 0.000000 0.000000 0.043839 0.000000
# 6 -0.000001 0.000001 0.000000 0.000000 0.000000 0.102067
#
#
# Mechanical properties :
#
#
# Convention : Reuss Voigt Hill
#
# Bulk Modulus (GPa) = 54.60295 59.23157 56.91726
# Shear Modulus (GPa) = 18.53819 22.28716 20.41267
#
# Velocity S-wave (km/s) = 3.32493 3.64566 3.48898
# Velocity P-wave (km/s) = 6.87767 7.28310 7.08329
#
# Compressibility (1/GPa) = 0.01831403
#
# Stress axis : x y z
#
# Youngs Moduli (GPa) = 54.76582 54.76582 104.49770
#
# Poissons Ratio (x) = 0.36294 0.37934
# Poissons Ratio (y) = 0.36294 0.37934
# Poissons Ratio (z) = 0.19881 0.19881
#
# Static dielectric constant tensor:
#      x y z
#    x 2.944650 0.000000 0.000000 
#    y 0.000000 2.944650 0.000000 
#    z 0.000000 0.000000 3.639220 
# 
# 
# High freq. dielectric constant tensor:
#      x y z
#    x 1.619290 0.000000 0.000000 
#    y 0.000000 1.619290 0.000000 
#    z 0.000000 0.000000 1.673980 
# 
# From -- ./inp_files/2309.got.cif
#   From: 2010.03.12/outbox.cif.g09.slc.cpg/sg99_cif.got.tgz:2309.got - 2010.04.08 21:11:30.
