data_PCOD8306450
_publ_section_title
;
Structure prediction by ZEFSAII (Michael W. Deem and Ramdas Pophale) SiO2 
 PCOD8306450
Probable space group: P 4 M M
;
_chemical_formula_sum "Si O2"
_cell_formula_units_Z 64
_cell_length_a 13.668702
_cell_length_b 13.668702
_cell_length_c 20.650727
_cell_angle_alpha 90.000000
_cell_angle_beta 90.000000
_cell_angle_gamma 90.000000
_cell_volume 3858.245835
_symmetry_space_group_name_H-M "P 4 M M"
_symmetry_group_IT_number 99
_symmetry_cell_setting 'tetragonal'
loop_
_space_group_symop_operation_xyz
x,y,z
-y,x,z
-x,-y,z
y,-x,z
-x,y,z
x,-y,z
-y,-x,z
y,x,z
loop_
_atom_site_type_symbol
_atom_site_label
_atom_site_fract_x
_atom_site_fract_y
_atom_site_fract_z
Si Si1 0.391022 0.115819 0.323650
Si Si2 0.615048 0.771986 0.807298
Si Si3 0.613483 0.111760 0.934663
Si Si4 0.390737 0.116168 0.180738
Si Si5 0.885024 0.268517 0.060571
Si Si6 0.273814 0.883960 0.447430
Si Si7 0.384325 0.109104 0.683096
Si Si8 0.615879 0.224468 0.555872
O O1 0.500000 0.159033 0.336640
O O2 0.353532 0.148864 0.252263
O O3 0.315171 0.151185 0.377917
O O4 0.398641 0.000000 0.326299
O O5 0.500000 0.751867 0.802625
O O6 0.667693 0.667693 0.802368
O O7 0.645467 0.823212 0.874055
O O8 0.651991 0.841446 0.749365
O O9 0.500000 0.124181 0.950350
O O10 0.638779 0.000000 0.917367
O O11 0.669940 0.147310 0.998128
O O12 0.500000 0.157059 0.169518
O O13 0.321279 0.157745 0.124624
O O14 0.392737 0.000000 0.175689
O O15 0.838367 0.161634 0.056063
O O16 0.000000 0.254169 0.064234
O O17 0.170642 0.829359 0.459316
O O18 0.353879 0.851854 0.500209
O O19 0.256000 0.000000 0.451549
O O20 0.500000 0.099847 0.683695
O O21 0.351069 0.175699 0.623212
O O22 0.338398 0.000000 0.677522
O O23 0.500000 0.244987 0.552563
O O24 0.672550 0.327451 0.547709
#
# Coordination Sequence:
#
# PCOD8306450 Si02
#       8
#     8   8   8   8   8   8   8   8
#     4   8  14  26  45  66  86 110 143 185 231 275
#     4  10  19  30  45  66  93 122 150 182 223 274
#     4   9  17  30  48  67  85 108 143 189 236 272
#     4   8  14  26  44  64  84 108 142 185 229 267
#     4  10  19  29  42  61  87 118 149 181 219 268
#     4  10  20  32  47  68  94 126 163 200 238 280
#     4   9  17  30  48  68  90 118 152 188 223 259
#     4  10  20  33  50  73  99 126 157 193 236 288
#
# _framework density 16.58785
#
# number of rings (size 3 to 8) (size 9 to 14) (size 15 to 20)
#    0.000    2.750    0.000    3.000    0.000    5.250 
#    0.000    0.000    0.000    2.250    0.000    3.500 
#    0.000   12.500    0.000    9.250    0.000    1.000 
#
# Total GULP energy -793371.182298 kJ/mol
# GULP energy per Si atom -12396.424723 kJ/mol
# Density = 1.655010 g / cm^3
# Si number density = 16.587850 Si / 1000 Ang^3
#
#
#
# Elastic Constant Matrix: (Units=GPa)
#
#
# Indices 1 2 3 4 5 6 
#
# 1 68.1602 40.1461 44.3774 0.0000 0.0000 -0.0002
# 2 40.1461 68.1602 44.3774 0.0000 0.0000 0.0002
# 3 44.3774 44.3774 133.4008 0.0000 0.0000 0.0000
# 4 0.0000 0.0000 0.0000 18.0911 0.0000 0.0000
# 5 0.0000 0.0000 0.0000 0.0000 18.0911 0.0000
# 6 -0.0002 0.0002 0.0000 0.0000 0.0000 19.6456
#
#
#
# Elastic Compliance Matrix: (Units=1/GPa)
#
#
# Indices 1 2 3 4 5 6 
#
# 1 0.024195 -0.011501 -0.004223 0.000000 0.000000 0.000000
# 2 -0.011501 0.024195 -0.004223 0.000000 0.000000 0.000000
# 3 -0.004223 -0.004223 0.010306 0.000000 0.000000 0.000000
# 4 0.000000 0.000000 0.000000 0.055276 0.000000 0.000000
# 5 0.000000 0.000000 0.000000 0.000000 0.055276 0.000000
# 6 0.000000 0.000000 0.000000 0.000000 0.000000 0.050902
#
#
# Mechanical properties :
#
#
# Convention : Reuss Voigt Hill
#
# Bulk Modulus (GPa) = 53.18590 58.61367 55.89978
# Shear Modulus (GPa) = 18.77513 20.55358 19.66436
#
# Velocity S-wave (km/s) = 3.36796 3.52387 3.44680
# Velocity P-wave (km/s) = 6.87437 7.20894 7.04365
#
# Compressibility (1/GPa) = 0.01880198
#
# Stress axis : x y z
#
# Youngs Moduli (GPa) = 41.33110 41.33110 97.03451
#
# Poissons Ratio (x) = 0.47537 0.40974
# Poissons Ratio (y) = 0.47537 0.40974
# Poissons Ratio (z) = 0.17453 0.17453
#
# Static dielectric constant tensor:
#      x y z
#    x 2.892000 0.000000 0.000000 
#    y 0.000000 2.892000 0.000000 
#    z 0.000000 0.000000 3.474860 
# 
# 
# High freq. dielectric constant tensor:
#      x y z
#    x 1.614910 0.000000 0.000000 
#    y 0.000000 1.614910 0.000000 
#    z 0.000000 0.000000 1.660660 
# 
# From -- ./inp_files/2096.got.cif
#   From: 2010.03.12/outbox.cif.g09.slc.cpg/sg99_cif.got.tgz:2096.got - 2010.04.08 21:11:30.
