data_PCOD8306722
_publ_section_title
;
Structure prediction by ZEFSAII (Michael W. Deem and Ramdas Pophale) SiO2 
 PCOD8306722
Probable space group: P 42 C M
;
_chemical_formula_sum "Si O2"
_cell_formula_units_Z 48
_cell_length_a 11.352404
_cell_length_b 11.352404
_cell_length_c 18.787875
_cell_angle_alpha 90.000000
_cell_angle_beta 90.000000
_cell_angle_gamma 90.000000
_cell_volume 2421.326405
_symmetry_space_group_name_H-M "P 42 C M"
_symmetry_group_IT_number 101
_symmetry_cell_setting 'tetragonal'
loop_
_space_group_symop_operation_xyz
x,y,z
-y,x,1/2+z
-x,-y,z
y,-x,1/2+z
-x,y,1/2+z
x,-y,1/2+z
-y,-x,z
y,x,z
loop_
_atom_site_type_symbol
_atom_site_label
_atom_site_fract_x
_atom_site_fract_y
_atom_site_fract_z
Si Si1 0.840411 0.348733 0.471740
Si Si2 0.237596 0.426092 0.557969
Si Si3 0.951641 0.765663 0.214816
Si Si4 0.134242 0.522588 0.695619
Si Si5 0.770694 0.046826 0.058677
Si Si6 0.856154 0.663896 0.812617
O O1 0.719919 0.280082 0.465265
O O2 0.800963 0.472922 0.503644
O O3 0.893775 0.368294 0.393108
O O4 0.929577 0.268992 0.517916
O O5 0.369491 0.369491 0.547201
O O6 0.227938 0.478137 0.637633
O O7 0.144774 0.325105 0.544307
O O8 0.886032 0.886032 0.233102
O O9 0.854014 0.661995 0.207944
O O10 0.023501 0.778972 0.142323
O O11 0.040695 0.742338 0.279009
O O12 0.159002 0.457090 0.769613
O O13 0.000000 0.500000 0.668235
O O14 0.898191 0.101810 0.034253
O O15 0.734086 0.734086 0.809607
#
# Coordination Sequence:
#
# PCOD8306722 Si02
#       6
#     8   8   8   8   8   8
#     4  11  24  41  60  89 126 162 205 257 316 372
#     4  11  21  37  64  90 118 159 211 255 302 370
#     4  11  22  36  59  92 124 155 200 250 305 366
#     4  10  18  35  61  87 117 156 199 245 296 355
#     4  11  22  37  60  90 124 163 207 254 304 368
#     4  10  22  40  61  85 118 161 202 246 303 366
#
# _framework density 19.823844000000001
#
# number of rings (size 3 to 8) (size 9 to 14) (size 15 to 20)
#    0.000    1.333    5.000    2.000    0.000    7.333 
#    0.000    4.167    0.000    2.500    0.000    0.000 
#    0.000    0.000    0.000    0.000    0.000    0.000 
#
# Total GULP energy -594987.421823 kJ/mol
# GULP energy per Si atom -12395.571288 kJ/mol
# Density = 1.977872 g / cm^3
# Si number density = 19.823844 Si / 1000 Ang^3
#
#
#
# Elastic Constant Matrix: (Units=GPa)
#
#
# Indices 1 2 3 4 5 6 
#
# 1 12.1726 127.7637 47.8925 0.0000 0.0000 -0.0024
# 2 127.7637 12.1726 47.8925 0.0000 0.0000 0.0024
# 3 47.8925 47.8925 148.6544 0.0000 0.0000 0.0000
# 4 0.0000 0.0000 0.0000 16.8759 0.0000 0.0000
# 5 0.0000 0.0000 0.0000 0.0000 16.8759 0.0000
# 6 -0.0024 0.0024 0.0000 0.0000 0.0000 40.2952
#
#
#
# Elastic Compliance Matrix: (Units=1/GPa)
#
#
# Indices 1 2 3 4 5 6 
#
# 1 0.000258 0.008910 -0.002954 0.000000 0.000000 -0.000001
# 2 0.008910 0.000258 -0.002954 0.000000 0.000000 0.000001
# 3 -0.002954 -0.002954 0.008630 0.000000 0.000000 0.000000
# 4 0.000000 0.000000 0.000000 0.059256 0.000000 0.000000
# 5 0.000000 0.000000 0.000000 0.000000 0.059256 0.000000
# 6 -0.000001 0.000001 0.000000 0.000000 0.000000 0.024817
#
#
# Mechanical properties :
#
#
# Convention : Reuss Voigt Hill
#
# Bulk Modulus (GPa) = 66.00083 68.89966 67.45024
# Shear Modulus (GPa) = 32.99857 11.43947 22.21902
#
# Velocity S-wave (km/s) = 4.08436 2.40481 3.35150
# Velocity P-wave (km/s) = 7.45712 6.52244 7.00539
#
# Compressibility (1/GPa) = 0.01515132
#
# Stress axis : x y z
#
# Youngs Moduli (GPa) = 3871.06270 3871.06270 115.87254
#
# Poissons Ratio (x) = -34.48928 0.34224
# Poissons Ratio (y) = -34.48928 0.34224
# Poissons Ratio (z) = 11.43369 11.43369
#
# Static dielectric constant tensor:
#      x y z
#    x 3.730890 0.000000 0.000000 
#    y 0.000000 3.730890 0.000000 
#    z 0.000000 0.000000 3.654040 
# 
# 
# High freq. dielectric constant tensor:
#      x y z
#    x 1.772590 0.000000 0.000000 
#    y 0.000000 1.772590 0.000000 
#    z 0.000000 0.000000 1.765700 
# 
# From -- ./inp_files/2124.got.cif
#   From: 2010.03.12/outbox.cif.g09.slc.cpg/sg101_2_cif.got.tgz:2124.got - 2010.04.14 01:38:52.
