data_PCOD8306512
_publ_section_title
;
Structure prediction by ZEFSAII (Michael W. Deem and Ramdas Pophale) SiO2 
 PCOD8306512
Probable space group: P 4 M M
;
_chemical_formula_sum "Si O2"
_cell_formula_units_Z 56
_cell_length_a 17.605353
_cell_length_b 17.605353
_cell_length_c 11.155889
_cell_angle_alpha 90.000000
_cell_angle_beta 90.000000
_cell_angle_gamma 90.000000
_cell_volume 3457.750551
_symmetry_space_group_name_H-M "P 4 M M"
_symmetry_group_IT_number 99
_symmetry_cell_setting 'tetragonal'
loop_
_space_group_symop_operation_xyz
x,y,z
-y,x,z
-x,-y,z
y,-x,z
-x,y,z
x,-y,z
-y,-x,z
y,x,z
loop_
_atom_site_type_symbol
_atom_site_label
_atom_site_fract_x
_atom_site_fract_y
_atom_site_fract_z
Si Si1 0.912937 0.366547 0.879660
Si Si2 0.289447 0.411882 0.492495
Si Si3 0.411856 0.088821 0.146915
Si Si4 0.850755 0.416338 0.643316
Si Si5 0.722225 0.914418 0.524411
Si Si6 0.913926 0.205960 0.774304
Si Si7 0.686515 0.806169 0.318223
O O1 0.858914 0.409957 0.786334
O O2 0.901287 0.276587 0.863306
O O3 0.000000 0.388982 0.852583
O O4 0.889167 0.393826 0.010551
O O5 0.307808 0.500000 0.469607
O O6 0.368474 0.368474 0.513676
O O7 0.236725 0.398151 0.609289
O O8 0.244764 0.378680 0.378380
O O9 0.500000 0.107307 0.175856
O O10 0.354460 0.139028 0.224496
O O11 0.394850 0.000000 0.171030
O O12 0.871364 0.500000 0.598352
O O13 0.910200 0.363649 0.573592
O O14 0.775270 0.892136 0.636620
O O15 0.732914 0.856613 0.415036
O O16 0.738542 0.000000 0.480271
O O17 0.861151 0.138850 0.822021
O O18 0.000000 0.177342 0.780964
O O19 0.749772 0.749772 0.259095
#
# Coordination Sequence:
#
# PCOD8306512 Si02
#       7
#     8   8   8   8   8   8   8
#     4   9  18  30  44  64  89 118 148 176 212 262
#     4   9  18  31  46  65  88 114 146 184 224 267
#     4  10  20  33  49  69  94 122 152 189 231 273
#     4   9  16  26  42  65  90 113 139 174 216 265
#     4   9  17  28  43  64  89 118 149 180 219 264
#     4   9  17  29  45  65  89 116 148 186 223 261
#     4  10  19  31  46  65  91 121 153 187 225 270
#
# _framework density 16.195501
#
# number of rings (size 3 to 8) (size 9 to 14) (size 15 to 20)
#    0.000    2.714    0.000    3.000    0.000    6.571 
#    0.000    0.000    0.000    0.000    0.000    0.000 
#    0.000    2.571    0.000    5.286    0.000    0.000 
#
# Total GULP energy -694146.807307 kJ/mol
# GULP energy per Si atom -12395.478702 kJ/mol
# Density = 1.615864 g / cm^3
# Si number density = 16.195501 Si / 1000 Ang^3
#
#
#
# Elastic Constant Matrix: (Units=GPa)
#
#
# Indices 1 2 3 4 5 6 
#
# 1 75.2267 47.6068 29.9795 0.0000 0.0000 0.0001
# 2 47.6068 75.2267 29.9795 0.0000 0.0000 -0.0001
# 3 29.9795 29.9795 68.4150 0.0000 0.0000 0.0000
# 4 0.0000 0.0000 0.0000 18.3899 0.0000 0.0000
# 5 0.0000 0.0000 0.0000 0.0000 18.3899 0.0000
# 6 0.0001 -0.0001 0.0000 0.0000 0.0000 28.7723
#
#
#
# Elastic Compliance Matrix: (Units=1/GPa)
#
#
# Indices 1 2 3 4 5 6 
#
# 1 0.023281 -0.012925 -0.004538 0.000000 0.000000 0.000000
# 2 -0.012925 0.023281 -0.004538 0.000000 0.000000 0.000000
# 3 -0.004538 -0.004538 0.018594 0.000000 0.000000 0.000000
# 4 0.000000 0.000000 0.000000 0.054378 0.000000 0.000000
# 5 0.000000 0.000000 0.000000 0.000000 0.054378 0.000000
# 6 0.000000 0.000000 0.000000 0.000000 0.000000 0.034756
#
#
# Mechanical properties :
#
#
# Convention : Reuss Voigt Hill
#
# Bulk Modulus (GPa) = 47.27248 48.22225 47.74736
# Shear Modulus (GPa) = 19.25147 20.53058 19.89102
#
# Velocity S-wave (km/s) = 3.45148 3.56430 3.50834
# Velocity P-wave (km/s) = 6.71831 6.83950 6.77917
#
# Compressibility (1/GPa) = 0.02115396
#
# Stress axis : x y z
#
# Youngs Moduli (GPa) = 42.95340 42.95340 53.78108
#
# Poissons Ratio (x) = 0.55516 0.24407
# Poissons Ratio (y) = 0.55516 0.24407
# Poissons Ratio (z) = 0.19493 0.19493
#
# Static dielectric constant tensor:
#      x y z
#    x 3.011970 0.000000 0.000000 
#    y 0.000000 3.011970 0.000000 
#    z 0.000000 0.000000 2.958380 
# 
# 
# High freq. dielectric constant tensor:
#      x y z
#    x 1.617470 0.000000 0.000000 
#    y 0.000000 1.617470 0.000000 
#    z 0.000000 0.000000 1.603760 
# 
# From -- ./inp_files/1543.got.cif
#   From: 2010.03.12/outbox.cif.g09.slc.cpg/sg99_cif.got.tgz:1543.got - 2010.04.08 21:11:30.
