data_PCOD8306816
_publ_section_title
;
Structure prediction by ZEFSAII (Michael W. Deem and Ramdas Pophale) SiO2 
 PCOD8306816
Probable space group: P 42 N M
;
_chemical_formula_sum "Si O2"
_cell_formula_units_Z 48
_cell_length_a 11.464326
_cell_length_b 11.464326
_cell_length_c 18.366483
_cell_angle_alpha 90.000000
_cell_angle_beta 90.000000
_cell_angle_gamma 90.000000
_cell_volume 2413.921015
_symmetry_space_group_name_H-M "P 42 N M"
_symmetry_group_IT_number 102
_symmetry_cell_setting 'tetragonal'
loop_
_space_group_symop_operation_xyz
x,y,z
1/2-y,1/2+x,1/2+z
-x,-y,z
1/2+y,1/2-x,1/2+z
1/2-x,1/2+y,1/2+z
1/2+x,1/2-y,1/2+z
-y,-x,z
y,x,z
loop_
_atom_site_type_symbol
_atom_site_label
_atom_site_fract_x
_atom_site_fract_y
_atom_site_fract_z
Si Si1 0.583403 0.761954 0.826080
Si Si2 0.875852 0.458197 0.551072
Si Si3 0.088017 0.610235 0.804218
Si Si4 0.152915 0.668079 0.166366
Si Si5 0.764000 0.578326 0.156222
Si Si6 0.257012 0.072218 0.906616
O O1 0.624643 0.624643 0.825704
O O2 0.444423 0.787840 0.834548
O O3 0.624094 0.824333 0.751443
O O4 0.650518 0.825324 0.891630
O O5 0.846653 0.537374 0.620232
O O6 0.880339 0.327247 0.582113
O O7 0.776068 0.467588 0.489978
O O8 0.000000 0.500000 0.517496
O O9 0.117999 0.660009 0.725501
O O10 0.000000 0.500000 0.801510
O O11 0.039007 0.715760 0.854646
O O12 0.216017 0.783984 0.138082
O O13 0.243683 0.561394 0.156648
O O14 0.635842 0.635842 0.158752
O O15 0.125347 0.125347 0.895933
#
# Coordination Sequence:
#
# PCOD8306816 Si02
#       6
#     8   8   8   8   8   8
#     4   9  16  29  54  80 102 139 190 241 277 327
#     4  10  19  34  53  78 104 144 184 232 283 330
#     4  10  16  32  52  75 105 148 189 231 279 342
#     4  10  19  34  55  76 103 145 193 227 272 338
#     4  11  20  31  51  79 113 143 180 232 287 345
#     4  10  19  30  53  84 112 140 183 240 291 344
#
# _framework density 19.884661000000001
#
# number of rings (size 3 to 8) (size 9 to 14) (size 15 to 20)
#    0.000    2.000    5.000    2.500    0.000    0.333 
#    0.000    0.833    0.000    4.500    0.000    0.000 
#    0.000    5.333    0.000    0.000    0.000    0.000 
#
# Total GULP energy -594634.743921 kJ/mol
# GULP energy per Si atom -12388.223832 kJ/mol
# Density = 1.983940 g / cm^3
# Si number density = 19.884661 Si / 1000 Ang^3
#
#
#
# Elastic Constant Matrix: (Units=GPa)
#
#
# Indices 1 2 3 4 5 6 
#
# 1 58.4961 42.3023 17.5020 0.0000 0.0000 0.0003
# 2 42.3023 58.4961 17.5020 0.0000 0.0000 -0.0003
# 3 17.5020 17.5020 75.8918 0.0000 0.0000 0.0000
# 4 0.0000 0.0000 0.0000 11.1450 0.0000 0.0000
# 5 0.0000 0.0000 0.0000 0.0000 11.1450 0.0000
# 6 0.0003 -0.0003 0.0000 0.0000 0.0000 44.9419
#
#
#
# Elastic Compliance Matrix: (Units=1/GPa)
#
#
# Indices 1 2 3 4 5 6 
#
# 1 0.036268 -0.025484 -0.002487 0.000000 0.000000 0.000000
# 2 -0.025484 0.036268 -0.002487 0.000000 0.000000 0.000000
# 3 -0.002487 -0.002487 0.014324 0.000000 0.000000 0.000000
# 4 0.000000 0.000000 0.000000 0.089726 0.000000 0.000000
# 5 0.000000 0.000000 0.000000 0.000000 0.089726 0.000000
# 6 0.000000 0.000000 0.000000 0.000000 0.000000 0.022251
#
#
# Mechanical properties :
#
#
# Convention : Reuss Voigt Hill
#
# Bulk Modulus (GPa) = 38.54399 38.61073 38.57736
# Shear Modulus (GPa) = 13.96148 21.15154 17.55651
#
# Velocity S-wave (km/s) = 2.65264 3.26500 2.97462
# Velocity P-wave (km/s) = 5.36729 5.80285 5.58932
#
# Compressibility (1/GPa) = 0.02594438
#
# Stress axis : x y z
#
# Youngs Moduli (GPa) = 27.57226 27.57226 69.81387
#
# Poissons Ratio (x) = 0.70265 0.17363
# Poissons Ratio (y) = 0.70265 0.17363
# Poissons Ratio (z) = 0.06857 0.06857
#
# Static dielectric constant tensor:
#      x y z
#    x 3.675830 0.000000 0.000000 
#    y 0.000000 3.675830 0.000000 
#    z 0.000000 0.000000 3.422090 
# 
# 
# High freq. dielectric constant tensor:
#      x y z
#    x 1.748340 0.000000 0.000000 
#    y 0.000000 1.748340 0.000000 
#    z 0.000000 0.000000 1.772850 
# 
# From -- ./inp_files/2702.got.cif
#   From: 2010.03.12/outbox.cif.g09.slc.cpg/sg102_2_cif.got.tgz:2702.got - 2010.04.14 01:40:42.
