data_PCOD8306732
_publ_section_title
;
Structure prediction by ZEFSAII (Michael W. Deem and Ramdas Pophale) SiO2 
 PCOD8306732
Probable space group: P 42 C M
;
_chemical_formula_sum "Si O2"
_cell_formula_units_Z 48
_cell_length_a 12.778638
_cell_length_b 12.778638
_cell_length_c 15.168992
_cell_angle_alpha 90.000000
_cell_angle_beta 90.000000
_cell_angle_gamma 90.000000
_cell_volume 2476.999147
_symmetry_space_group_name_H-M "P 42 C M"
_symmetry_group_IT_number 101
_symmetry_cell_setting 'tetragonal'
loop_
_space_group_symop_operation_xyz
x,y,z
-y,x,1/2+z
-x,-y,z
y,-x,1/2+z
-x,y,1/2+z
x,-y,1/2+z
-y,-x,z
y,x,z
loop_
_atom_site_type_symbol
_atom_site_label
_atom_site_fract_x
_atom_site_fract_y
_atom_site_fract_z
Si Si1 0.675111 0.971277 0.212870
Si Si2 0.945481 0.783687 0.556485
Si Si3 0.064500 0.233944 0.886667
Si Si4 0.514441 0.842889 0.718738
Si Si5 0.459094 0.878965 0.411379
Si Si6 0.773379 0.606203 0.549539
O O1 0.610508 0.863058 0.209288
O O2 0.755934 0.970005 0.131641
O O3 0.736336 0.989765 0.304551
O O4 0.587110 0.058058 0.198503
O O5 0.883417 0.883417 0.592999
O O6 0.866735 0.688252 0.542287
O O7 0.996531 0.817312 0.464032
O O8 0.153888 0.153888 0.853998
O O9 0.115892 0.336180 0.931739
O O10 0.529505 0.813300 0.820746
O O11 0.554937 0.758017 0.647336
O O12 0.513613 0.807074 0.484116
O O13 0.500000 0.000000 0.403623
O O14 0.663744 0.663744 0.524797
#
# Coordination Sequence:
#
# PCOD8306732 Si02
#       6
#     8   8   8   8   8   8
#     4   9  16  30  50  76 104 140 181 232 278 323
#     4  10  19  31  48  72 107 144 178 222 274 328
#     4  11  21  33  52  79 108 145 193 234 278 336
#     4   9  16  28  52  82 110 141 182 236 288 326
#     4  11  18  33  56  80 113 148 186 236 288 329
#     4  10  20  32  55  88 116 146 187 235 289 348
#
# _framework density 19.378287
#
# number of rings (size 3 to 8) (size 9 to 14) (size 15 to 20)
#    0.000    2.000    5.000    1.500    2.333    4.333 
#    0.000    0.833    0.000    8.500    0.000    0.000 
#    0.000    0.000    0.000    0.000    0.000    0.000 
#
# Total GULP energy -594651.423807 kJ/mol
# GULP energy per Si atom -12388.571329 kJ/mol
# Density = 1.933418 g / cm^3
# Si number density = 19.378287 Si / 1000 Ang^3
#
#
#
# Elastic Constant Matrix: (Units=GPa)
#
#
# Indices 1 2 3 4 5 6 
#
# 1 39.7849 19.6535 23.1978 0.0000 0.0000 0.0000
# 2 19.6535 39.7849 23.1978 0.0000 0.0000 0.0000
# 3 23.1978 23.1978 116.0372 0.0000 0.0000 0.0000
# 4 0.0000 0.0000 0.0000 9.8322 0.0000 0.0000
# 5 0.0000 0.0000 0.0000 0.0000 9.8322 0.0000
# 6 0.0000 0.0000 0.0000 0.0000 0.0000 24.3439
#
#
#
# Elastic Compliance Matrix: (Units=1/GPa)
#
#
# Indices 1 2 3 4 5 6 
#
# 1 0.034804 -0.014869 -0.003985 0.000000 0.000000 0.000000
# 2 -0.014869 0.034804 -0.003985 0.000000 0.000000 0.000000
# 3 -0.003985 -0.003985 0.010211 0.000000 0.000000 0.000000
# 4 0.000000 0.000000 0.000000 0.101707 0.000000 0.000000
# 5 0.000000 0.000000 0.000000 0.000000 0.101707 0.000000
# 6 0.000000 0.000000 0.000000 0.000000 0.000000 0.041078
#
#
# Mechanical properties :
#
#
# Convention : Reuss Voigt Hill
#
# Bulk Modulus (GPa) = 29.29121 36.41172 32.85147
# Shear Modulus (GPa) = 13.11057 17.43884 15.27470
#
# Velocity S-wave (km/s) = 2.60390 3.00312 2.81060
# Velocity P-wave (km/s) = 4.91820 5.55479 5.24616
#
# Compressibility (1/GPa) = 0.03413993
#
# Stress axis : x y z
#
# Youngs Moduli (GPa) = 28.73211 28.73211 97.92979
#
# Poissons Ratio (x) = 0.42723 0.39028
# Poissons Ratio (y) = 0.42723 0.39028
# Poissons Ratio (z) = 0.11451 0.11451
#
# Static dielectric constant tensor:
#      x y z
#    x 3.372910 0.000000 0.000000 
#    y 0.000000 3.372910 0.000000 
#    z 0.000000 0.000000 3.687640 
# 
# 
# High freq. dielectric constant tensor:
#      x y z
#    x 1.715390 0.000000 0.000000 
#    y 0.000000 1.715390 0.000000 
#    z 0.000000 0.000000 1.769870 
# 
# From -- ./inp_files/2169.got.cif
#   From: 2010.03.12/outbox.cif.g09.slc.cpg/sg101_2_cif.got.tgz:2169.got - 2010.04.14 01:38:52.
