data_PCOD8306115
_publ_section_title
;
Structure prediction by ZEFSAII (Michael W. Deem and Ramdas Pophale) SiO2 
 PCOD8306115
Probable space group: I 4 2 2 
;
_chemical_formula_sum "Si O2"
_cell_formula_units_Z 56
_cell_length_a 10.816610
_cell_length_b 10.816610
_cell_length_c 22.624339
_cell_angle_alpha 90.000000
_cell_angle_beta 90.000000
_cell_angle_gamma 90.000000
_cell_volume 2647.026213
_symmetry_space_group_name_H-M "I 4 2 2 "
_symmetry_group_IT_number 97
_symmetry_cell_setting 'tetragonal'
loop_
_space_group_symop_operation_xyz
x,y,z
-y,x,z
-x,-y,z
y,-x,z
x,-y,-z
-x,y,-z
y,x,-z
-y,-x,-z
1/2+x,1/2+y,1/2+z
1/2-y,1/2+x,1/2+z
1/2-x,1/2-y,1/2+z
1/2+y,1/2-x,1/2+z
1/2+x,1/2-y,1/2-z
1/2-x,1/2+y,1/2-z
1/2+y,1/2+x,1/2-z
1/2-y,1/2-x,1/2-z
loop_
_atom_site_type_symbol
_atom_site_label
_atom_site_fract_x
_atom_site_fract_y
_atom_site_fract_z
Si Si1 0.947895 0.362437 0.386496
Si Si2 0.065250 0.184665 0.851628
Si Si3 0.000000 0.205722 0.500000
Si Si4 0.993394 0.692722 0.262695
O O1 0.800328 0.377960 0.386019
O O2 0.997898 0.295711 0.444168
O O3 0.992070 0.274494 0.332021
O O4 0.000000 0.500000 0.380214
O O5 0.048179 0.200720 0.780131
O O6 0.925340 0.155337 0.871350
O O7 0.122255 0.122255 0.500000
O O8 0.072990 0.572990 0.250000
O O9 0.849594 0.650407 0.250000
#
# Coordination Sequence:
#
# PCOD8306115 Si02
#       4
#    16  16   8  16
#     4  11  22  43  69  92 127 180 221 267 335 397
#     4  10  22  37  62 102 137 167 214 270 329 404
#     4  11  29  48  66  98 127 165 230 286 330 393
#     4   9  16  34  59  93 127 164 213 252 312 391
#
# _framework density 21.155815
#
# number of rings (size 3 to 8) (size 9 to 14) (size 15 to 20)
#    0.000    1.857    5.714    0.429    4.000    5.714 
#    0.000    2.857    0.000    0.000    0.000    0.000 
#    0.000    0.000    0.000    0.000    0.000    0.000 
#
# Total GULP energy -346879.061014 kJ/mol
# GULP energy per Si atom -12388.537893 kJ/mol
# Density = 2.110766 g / cm^3
# Si number density = 21.155815 Si / 1000 Ang^3
#
#
#
# Elastic Constant Matrix: (Units=GPa)
#
#
# Indices 1 2 3 4 5 6 
#
# 1 60.9330 35.8077 28.0699 0.0000 0.0000 0.0000
# 2 35.8077 60.9325 28.0691 0.0000 0.0000 0.0000
# 3 28.0699 28.0691 125.8210 0.0000 0.0000 0.0000
# 4 0.0000 0.0000 0.0000 17.5280 0.0000 0.0000
# 5 0.0000 0.0000 0.0000 0.0000 17.5285 0.0000
# 6 0.0000 0.0000 0.0000 0.0000 0.0000 24.3649
#
#
#
# Elastic Compliance Matrix: (Units=1/GPa)
#
#
# Indices 1 2 3 4 5 6 
#
# 1 0.025837 -0.013963 -0.002649 0.000000 0.000000 0.000000
# 2 -0.013963 0.025838 -0.002649 0.000000 0.000000 0.000000
# 3 -0.002649 -0.002649 0.009130 0.000000 0.000000 0.000000
# 4 0.000000 0.000000 0.000000 0.057052 0.000000 0.000000
# 5 0.000000 0.000000 0.000000 0.000000 0.057050 0.000000
# 6 0.000000 0.000000 0.000000 0.000000 0.000000 0.041043
#
#
# Mechanical properties :
#
#
# Convention : Reuss Voigt Hill
#
# Bulk Modulus (GPa) = 44.87924 47.95332 46.41628
# Shear Modulus (GPa) = 19.09131 22.26693 20.67912
#
# Velocity S-wave (km/s) = 3.00728 3.24778 3.12984
# Velocity P-wave (km/s) = 5.77218 6.06465 5.92022
#
# Compressibility (1/GPa) = 0.02228202
#
# Stress axis : x y z
#
# Youngs Moduli (GPa) = 38.70344 38.70331 109.53210
#
# Poissons Ratio (x) = 0.54043 0.29016
# Poissons Ratio (y) = 0.54043 0.29014
# Poissons Ratio (z) = 0.10253 0.10252
#
# Static dielectric constant tensor:
#      x y z
#    x 3.231470 0.000000 0.000000 
#    y 0.000000 3.231470 0.000000 
#    z 0.000000 0.000000 4.608500 
# 
# 
# High freq. dielectric constant tensor:
#      x y z
#    x 1.827020 0.000000 0.000000 
#    y 0.000000 1.827020 0.000000 
#    z 0.000000 0.000000 1.807780 
# 
# From -- ./inp_files/6319.got.cif
#   From: 2010.03.12/outbox.cif.g09.slc.cpg/sg97_4_cif.got.tgz:6319.got - 2010.04.08 20:59:42.
