data_PCOD8306859
_publ_section_title
;
Structure prediction by ZEFSAII (Michael W. Deem and Ramdas Pophale) SiO2 
 PCOD8306859
Probable space group: P 42 N M
;
_chemical_formula_sum "Si O2"
_cell_formula_units_Z 56
_cell_length_a 11.488845
_cell_length_b 11.488845
_cell_length_c 23.448254
_cell_angle_alpha 90.000000
_cell_angle_beta 90.000000
_cell_angle_gamma 90.000000
_cell_volume 3095.018508
_symmetry_space_group_name_H-M "P 42 N M"
_symmetry_group_IT_number 102
_symmetry_cell_setting 'tetragonal'
loop_
_space_group_symop_operation_xyz
x,y,z
1/2-y,1/2+x,1/2+z
-x,-y,z
1/2+y,1/2-x,1/2+z
1/2-x,1/2+y,1/2+z
1/2+x,1/2-y,1/2+z
-y,-x,z
y,x,z
loop_
_atom_site_type_symbol
_atom_site_label
_atom_site_fract_x
_atom_site_fract_y
_atom_site_fract_z
Si Si1 0.499060 0.691528 0.459030
Si Si2 0.679616 0.128727 0.244495
Si Si3 0.060476 0.255981 0.839858
Si Si4 0.486378 0.828607 0.139918
Si Si5 0.904768 0.095233 0.649683
Si Si6 0.401493 0.401493 0.276022
Si Si7 0.269447 0.075998 0.172065
Si Si8 0.222206 0.412544 0.573903
O O1 0.387363 0.612638 0.473231
O O2 0.608161 0.608161 0.443882
O O3 0.472074 0.778460 0.405962
O O4 0.524230 0.773242 0.512939
O O5 0.793792 0.206209 0.247310
O O6 0.613007 0.132288 0.305942
O O7 0.595562 0.182186 0.195630
O O8 0.722834 0.997517 0.230930
O O9 0.152375 0.152375 0.836774
O O10 0.944798 0.214753 0.807198
O O11 0.537879 0.705112 0.118032
O O12 0.597093 0.906955 0.153899
O O13 0.411851 0.882355 0.088122
O O14 0.863516 0.136485 0.712548
O O15 0.000000 0.000000 0.657482
O O16 0.500000 0.500000 0.276036
O O17 0.192613 0.192613 0.179935
O O18 0.217731 0.995825 0.121524
O O19 0.293158 0.293158 0.572494
#
# Coordination Sequence:
#
# PCOD8306859 Si02
#       8
#     8   8   8   8   4   4   8   8
#     4   9  16  27  46  74 106 140 175 217 269 323
#     4  10  19  31  51  76 105 139 170 214 263 320
#     4   9  15  25  44  74 106 135 168 211 265 320
#     4  11  20  33  48  72 103 139 174 215 268 317
#     4  11  18  28  50  78 105 135 169 207 259 326
#     4   9  14  22  42  72 106 133 157 199 254 320
#     4  11  22  35  49  70 103 147 183 215 262 313
#     4  10  20  33  51  74 103 138 176 222 266 317
#
# _framework density 18.093592000000001
#
# number of rings (size 3 to 8) (size 9 to 14) (size 15 to 20)
#    0.000    2.000    2.857    4.714    0.000    1.714 
#    0.000    0.000    0.000    3.429    0.000    0.000 
#    0.000    5.714    0.286    0.857    7.429    0.000 
#
# Total GULP energy -694000.795610 kJ/mol
# GULP energy per Si atom -12392.871350 kJ/mol
# Density = 1.805241 g / cm^3
# Si number density = 18.093592 Si / 1000 Ang^3
#
#
#
# Elastic Constant Matrix: (Units=GPa)
#
#
# Indices 1 2 3 4 5 6 
#
# 1 87.3055 32.1840 49.3651 0.0000 0.0000 -0.0002
# 2 32.1840 87.3055 49.3651 0.0000 0.0000 0.0002
# 3 49.3651 49.3651 129.6604 0.0000 0.0000 0.0000
# 4 0.0000 0.0000 0.0000 25.0881 0.0000 0.0000
# 5 0.0000 0.0000 0.0000 0.0000 25.0881 0.0000
# 6 -0.0002 0.0002 0.0000 0.0000 0.0000 23.2394
#
#
#
# Elastic Compliance Matrix: (Units=1/GPa)
#
#
# Indices 1 2 3 4 5 6 
#
# 1 0.015176 -0.002966 -0.004649 0.000000 0.000000 0.000000
# 2 -0.002966 0.015176 -0.004649 0.000000 0.000000 0.000000
# 3 -0.004649 -0.004649 0.011252 0.000000 0.000000 0.000000
# 4 0.000000 0.000000 0.000000 0.039860 0.000000 0.000000
# 5 0.000000 0.000000 0.000000 0.000000 0.039860 0.000000
# 6 0.000000 0.000000 0.000000 0.000000 0.000000 0.043030
#
#
# Mechanical properties :
#
#
# Convention : Reuss Voigt Hill
#
# Bulk Modulus (GPa) = 58.55660 62.89999 60.72830
# Shear Modulus (GPa) = 25.69738 26.24025 25.96882
#
# Velocity S-wave (km/s) = 3.77271 3.81235 3.79258
# Velocity P-wave (km/s) = 7.17016 7.36327 7.26736
#
# Compressibility (1/GPa) = 0.01707749
#
# Stress axis : x y z
#
# Youngs Moduli (GPa) = 65.89416 65.89416 88.87160
#
# Poissons Ratio (x) = 0.19543 0.41313
# Poissons Ratio (y) = 0.19543 0.41313
# Poissons Ratio (z) = 0.30632 0.30632
#
# Static dielectric constant tensor:
#      x y z
#    x 3.213310 0.000000 0.000000 
#    y 0.000000 3.213310 0.000000 
#    z 0.000000 0.000000 3.366510 
# 
# 
# High freq. dielectric constant tensor:
#      x y z
#    x 1.689340 0.000000 0.000000 
#    y 0.000000 1.689340 0.000000 
#    z 0.000000 0.000000 1.675700 
# 
# From -- ./inp_files/3361.got.cif
#   From: 2010.03.12/outbox.cif.g09.slc.cpg/sg102_2_cif.got.tgz:3361.got - 2010.04.14 01:40:42.
