data_PCOD8306349
_publ_section_title
;
Structure prediction by ZEFSAII (Michael W. Deem and Ramdas Pophale) SiO2 
 PCOD8306349
Probable space group: I 41 2 2
;
_chemical_formula_sum "Si O2"
_cell_formula_units_Z 48
_cell_length_a 12.784742
_cell_length_b 12.784742
_cell_length_c 13.549795
_cell_angle_alpha 90.000000
_cell_angle_beta 90.000000
_cell_angle_gamma 90.000000
_cell_volume 2214.708952
_symmetry_space_group_name_H-M "I 41 2 2"
_symmetry_group_IT_number 98
_symmetry_cell_setting 'tetragonal'
loop_
_space_group_symop_operation_xyz
x,y,z
-y,1/2+x,1/4+z
-x,-y,z
y,1/2-x,1/4+z
x,1/2-y,1/4-z
-x,1/2+y,1/4-z
y,x,-z
-y,-x,-z
1/2+x,1/2+y,1/2+z
1/2-y,x,3/4+z
1/2-x,1/2-y,1/2+z
1/2+y,-x,3/4+z
1/2+x,-y,3/4-z
1/2-x,y,3/4-z
1/2+y,1/2+x,1/2-z
1/2-y,1/2-x,1/2-z
loop_
_atom_site_type_symbol
_atom_site_label
_atom_site_fract_x
_atom_site_fract_y
_atom_site_fract_z
Si Si1 0.719727 0.984188 0.982571
Si Si2 0.196701 0.865603 0.278113
Si Si3 0.963151 0.881878 0.859863
O O1 0.821826 0.938326 0.037541
O O2 0.670017 0.077243 0.047723
O O3 0.750000 0.031562 0.875000
O O4 0.638124 0.889637 0.961631
O O5 0.250000 0.916313 0.375000
O O6 0.264371 0.764371 0.250000
O O7 0.191648 0.952204 0.193327
O O8 0.000000 0.000000 0.883328
#
# Coordination Sequence:
#
# PCOD8306349 Si02
#       3
#    16  16  16
#     4  11  23  40  66 100 136 174 216 280 338 393
#     4  11  21  39  68 100 129 170 227 278 324 396
#     4  10  24  42  67 101 137 170 225 278 335 398
#
# _framework density 21.673276000000001
#
# number of rings (size 3 to 8) (size 9 to 14) (size 15 to 20)
#    0.000    1.333    3.333    2.000    4.667    4.000 
#    0.000    6.667    0.000    0.000    0.000    0.000 
#    0.000    0.000    0.000    0.000    0.000    0.000 
#
# Total GULP energy -297423.400500 kJ/mol
# GULP energy per Si atom -12392.641687 kJ/mol
# Density = 2.162395 g / cm^3
# Si number density = 21.673276 Si / 1000 Ang^3
#
#
#
# Elastic Constant Matrix: (Units=GPa)
#
#
# Indices 1 2 3 4 5 6 
#
# 1 116.2879 57.7361 69.3797 0.0000 0.0000 0.0000
# 2 57.7361 116.2879 69.3797 0.0000 0.0000 0.0000
# 3 69.3797 69.3797 123.9112 0.0000 0.0000 0.0000
# 4 0.0000 0.0000 0.0000 42.1655 0.0000 0.0000
# 5 0.0000 0.0000 0.0000 0.0000 42.1655 0.0000
# 6 0.0000 0.0000 0.0000 0.0000 0.0000 32.1261
#
#
#
# Elastic Compliance Matrix: (Units=1/GPa)
#
#
# Indices 1 2 3 4 5 6 
#
# 1 0.013730 -0.003349 -0.005812 0.000000 0.000000 0.000000
# 2 -0.003349 0.013730 -0.005812 0.000000 0.000000 0.000000
# 3 -0.005812 -0.005812 0.014579 0.000000 0.000000 0.000000
# 4 0.000000 0.000000 0.000000 0.023716 0.000000 0.000000
# 5 0.000000 0.000000 0.000000 0.000000 0.023716 0.000000
# 6 0.000000 0.000000 0.000000 0.000000 0.000000 0.031127
#
#
# Mechanical properties :
#
#
# Convention : Reuss Voigt Hill
#
# Bulk Modulus (GPa) = 82.70380 83.27536 82.98958
# Shear Modulus (GPa) = 32.34640 33.95751 33.15196
#
# Velocity S-wave (km/s) = 3.86742 3.96257 3.91528
# Velocity P-wave (km/s) = 7.62790 7.70989 7.66900
#
# Compressibility (1/GPa) = 0.01209134
#
# Stress axis : x y z
#
# Youngs Moduli (GPa) = 72.83372 72.83372 68.59076
#
# Poissons Ratio (x) = 0.24392 0.39868
# Poissons Ratio (y) = 0.24392 0.39868
# Poissons Ratio (z) = 0.42334 0.42334
#
# Static dielectric constant tensor:
#      x y z
#    x 3.937660 0.000000 0.000000 
#    y 0.000000 3.937660 0.000000 
#    z 0.000000 0.000000 4.081840 
# 
# 
# High freq. dielectric constant tensor:
#      x y z
#    x 1.843380 0.000000 0.000000 
#    y 0.000000 1.843380 0.000000 
#    z 0.000000 0.000000 1.849560 
# 
# From -- ./inp_files/4458.got.cif
#   From: 2010.03.12/outbox.cif.g09.slc.cpg/sg98_3_cif.got.tgz:4458.got - 2010.04.08 21:04:41.
