data_PCOD8306026
_publ_section_title
;
Structure prediction by ZEFSAII (Michael W. Deem and Ramdas Pophale) SiO2 
 PCOD8306026
Probable space group: I 4 2 2 
;
_chemical_formula_sum "Si O2"
_cell_formula_units_Z 80
_cell_length_a 14.581610
_cell_length_b 14.581610
_cell_length_c 21.254733
_cell_angle_alpha 90.000000
_cell_angle_beta 90.000000
_cell_angle_gamma 90.000000
_cell_volume 4519.252538
_symmetry_space_group_name_H-M "I 4 2 2 "
_symmetry_group_IT_number 97
_symmetry_cell_setting 'tetragonal'
loop_
_space_group_symop_operation_xyz
x,y,z
-y,x,z
-x,-y,z
y,-x,z
x,-y,-z
-x,y,-z
y,x,-z
-y,-x,-z
1/2+x,1/2+y,1/2+z
1/2-y,1/2+x,1/2+z
1/2-x,1/2-y,1/2+z
1/2+y,1/2-x,1/2+z
1/2+x,1/2-y,1/2-z
1/2-x,1/2+y,1/2-z
1/2+y,1/2+x,1/2-z
1/2-y,1/2-x,1/2-z
loop_
_atom_site_type_symbol
_atom_site_label
_atom_site_fract_x
_atom_site_fract_y
_atom_site_fract_z
Si Si1 0.596682 0.894304 0.984873
Si Si2 0.967247 0.316898 0.247991
Si Si3 0.645418 0.454657 0.328682
Si Si4 0.080928 0.570971 0.848068
Si Si5 0.407379 0.277512 0.463361
O O1 0.618323 0.880284 0.910796
O O2 0.500000 0.843261 0.000000
O O3 0.680648 0.852564 0.027051
O O4 0.583707 0.000000 0.000000
O O5 0.873355 0.373355 0.250000
O O6 0.941899 0.211165 0.232358
O O7 0.037467 0.350272 0.194558
O O8 0.019399 0.333770 0.314034
O O9 0.613210 0.559621 0.327161
O O10 0.702001 0.427622 0.390938
O O11 0.000000 0.500000 0.865104
O O12 0.500000 0.259697 0.500000
O O13 0.359653 0.359653 0.500000
#
# Coordination Sequence:
#
# PCOD8306026 Si02
#       5
#    16  16  16  16  16
#     4  10  18  29  53  79 110 142 176 221 285 337
#     4   9  19  34  55  75 104 139 189 232 272 323
#     4  11  23  38  54  76 114 154 189 225 281 350
#     4   9  16  31  52  77 102 138 174 224 278 324
#     4  11  21  33  51  80 114 150 184 222 277 340
#
# _framework density 17.702041999999999
#
# number of rings (size 3 to 8) (size 9 to 14) (size 15 to 20)
#    0.000    2.000    4.000    3.600    2.800    0.200 
#    3.600    0.000    0.000    0.000    0.000    0.000 
#    0.000    0.400    0.000    0.200    0.000    0.000 
#
# Total GULP energy -495585.443025 kJ/mol
# GULP energy per Si atom -12389.636076 kJ/mol
# Density = 1.766175 g / cm^3
# Si number density = 17.702042 Si / 1000 Ang^3
#
#
#
# Elastic Constant Matrix: (Units=GPa)
#
#
# Indices 1 2 3 4 5 6 
#
# 1 79.9704 32.5187 40.5098 0.0000 0.0000 0.0000
# 2 32.5187 79.9704 40.5098 0.0000 0.0000 0.0000
# 3 40.5098 40.5098 104.8537 0.0000 0.0000 0.0000
# 4 0.0000 0.0000 0.0000 25.4301 0.0000 0.0000
# 5 0.0000 0.0000 0.0000 0.0000 25.4301 0.0000
# 6 0.0000 0.0000 0.0000 0.0000 0.0000 4.7919
#
#
#
# Elastic Compliance Matrix: (Units=1/GPa)
#
#
# Indices 1 2 3 4 5 6 
#
# 1 0.016696 -0.004378 -0.004759 0.000000 0.000000 0.000000
# 2 -0.004378 0.016696 -0.004759 0.000000 0.000000 0.000000
# 3 -0.004759 -0.004759 0.013214 0.000000 0.000000 0.000000
# 4 0.000000 0.000000 0.000000 0.039323 0.000000 0.000000
# 5 0.000000 0.000000 0.000000 0.000000 0.039323 0.000000
# 6 0.000000 0.000000 0.000000 0.000000 0.000000 0.208687
#
#
# Mechanical properties :
#
#
# Convention : Reuss Voigt Hill
#
# Bulk Modulus (GPa) = 53.15282 54.65235 53.90259
# Shear Modulus (GPa) = 13.58688 21.21417 17.40052
#
# Velocity S-wave (km/s) = 2.77344 3.46555 3.13863
# Velocity P-wave (km/s) = 6.35197 6.85229 6.60687
#
# Compressibility (1/GPa) = 0.01881368
#
# Stress axis : x y z
#
# Youngs Moduli (GPa) = 59.89599 59.89599 75.67679
#
# Poissons Ratio (x) = 0.26225 0.36012
# Poissons Ratio (y) = 0.26225 0.36012
# Poissons Ratio (z) = 0.28503 0.28503
#
# Static dielectric constant tensor:
#      x y z
#    x 3.289880 0.000000 0.000000 
#    y 0.000000 3.289880 0.000000 
#    z 0.000000 0.000000 3.374120 
# 
# 
# High freq. dielectric constant tensor:
#      x y z
#    x 1.659110 0.000000 0.000000 
#    y 0.000000 1.659110 0.000000 
#    z 0.000000 0.000000 1.684840 
# 
# From -- ./inp_files/6436.got.cif
#   From: 2010.03.12/outbox.cif.g09.slc.cpg/sg97_4_cif.got.tgz:6436.got - 2010.04.08 20:59:42.
