data_PCOD8306619
_publ_section_title
;
Structure prediction by ZEFSAII (Michael W. Deem and Ramdas Pophale) SiO2 
 PCOD8306619
Probable space group: P 4 M M
;
_chemical_formula_sum "Si O2"
_cell_formula_units_Z 64
_cell_length_a 14.757632
_cell_length_b 14.757632
_cell_length_c 20.441395
_cell_angle_alpha 90.000000
_cell_angle_beta 90.000000
_cell_angle_gamma 90.000000
_cell_volume 4451.884448
_symmetry_space_group_name_H-M "P 4 M M"
_symmetry_group_IT_number 99
_symmetry_cell_setting 'tetragonal'
loop_
_space_group_symop_operation_xyz
x,y,z
-y,x,z
-x,-y,z
y,-x,z
-x,y,z
x,-y,z
-y,-x,z
y,x,z
loop_
_atom_site_type_symbol
_atom_site_label
_atom_site_fract_x
_atom_site_fract_y
_atom_site_fract_z
Si Si1 0.607554 0.899725 0.934790
Si Si2 0.102067 0.753623 0.326215
Si Si3 0.744561 0.893438 0.184107
Si Si4 0.107511 0.399562 0.079792
Si Si5 0.603924 0.103957 0.578813
Si Si6 0.249399 0.603377 0.685573
Si Si7 0.750331 0.395504 0.835196
Si Si8 0.744149 0.105679 0.468357
O O1 0.500000 0.906058 0.930749
O O2 0.644632 0.830307 0.880509
O O3 0.648598 0.000000 0.921155
O O4 0.635151 0.864930 0.007283
O O5 0.152040 0.847961 0.327022
O O6 0.123631 0.702123 0.257546
O O7 0.123155 0.702006 0.394899
O O8 0.000000 0.784773 0.325382
O O9 0.837611 0.837611 0.174400
O O10 0.670250 0.855039 0.133603
O O11 0.765133 0.000000 0.172117
O O12 0.148236 0.500000 0.093358
O O13 0.000000 0.405542 0.083996
O O14 0.500000 0.119250 0.557782
O O15 0.630161 0.163637 0.641529
O O16 0.665496 0.134485 0.518080
O O17 0.621695 0.000000 0.598424
O O18 0.279882 0.500000 0.673334
O O19 0.334589 0.665412 0.666744
O O20 0.218689 0.617642 0.760364
O O21 0.730073 0.500000 0.851612
O O22 0.658296 0.341705 0.849864
O O23 0.833138 0.166863 0.481041
O O24 0.771036 0.000000 0.477590
#
# Coordination Sequence:
#
# PCOD8306619 Si02
#       8
#     8   8   8   8   8   8   8   8
#     4   8  14  25  40  56  74  96 123 156 189 217
#     4   8  14  23  34  50  72  97 124 151 179 213
#     4   9  16  25  37  54  76 100 125 152 182 218
#     4   8  14  25  39  54  73  97 125 156 187 217
#     4   9  17  28  41  57  76  98 124 152 183 220
#     4   9  17  28  41  57  77 100 125 152 181 215
#     4   9  17  27  39  57  79 101 124 149 179 218
#     4   9  16  26  40  56  75  99 124 152 185 218
#
# _framework density 14.375934000000001
#
# number of rings (size 3 to 8) (size 9 to 14) (size 15 to 20)
#    0.000    3.375    0.000    1.125    0.000    1.625 
#    0.000    6.875    0.000    3.750    0.000    0.000 
#    0.000    0.500    0.000    2.750    0.000   13.250 
#
# Total GULP energy -792878.227370 kJ/mol
# GULP energy per Si atom -12388.722303 kJ/mol
# Density = 1.434321 g / cm^3
# Si number density = 14.375934 Si / 1000 Ang^3
#
#
#
# Elastic Constant Matrix: (Units=GPa)
#
#
# Indices 1 2 3 4 5 6 
#
# 1 59.3234 36.7082 56.0235 0.0000 0.0000 -0.0001
# 2 36.7082 59.3234 56.0235 0.0000 0.0000 0.0001
# 3 56.0235 56.0235 120.8369 0.0000 0.0000 0.0000
# 4 0.0000 0.0000 0.0000 21.0715 0.0000 0.0000
# 5 0.0000 0.0000 0.0000 0.0000 21.0715 0.0000
# 6 -0.0001 0.0001 0.0000 0.0000 0.0000 15.5049
#
#
#
# Elastic Compliance Matrix: (Units=1/GPa)
#
#
# Indices 1 2 3 4 5 6 
#
# 1 0.033451 -0.010767 -0.010517 0.000000 0.000000 0.000000
# 2 -0.010767 0.033451 -0.010517 0.000000 0.000000 0.000000
# 3 -0.010517 -0.010517 0.018028 0.000000 0.000000 0.000000
# 4 0.000000 0.000000 0.000000 0.047457 0.000000 0.000000
# 5 0.000000 0.000000 0.000000 0.000000 0.047457 0.000000
# 6 0.000000 0.000000 0.000000 0.000000 0.000000 0.064496
#
#
# Mechanical properties :
#
#
# Convention : Reuss Voigt Hill
#
# Bulk Modulus (GPa) = 46.88693 59.66597 53.27645
# Shear Modulus (GPa) = 15.87038 17.57814 16.72426
#
# Velocity S-wave (km/s) = 3.32619 3.50057 3.41449
# Velocity P-wave (km/s) = 6.88745 7.61136 7.25844
#
# Compressibility (1/GPa) = 0.02132790
#
# Stress axis : x y z
#
# Youngs Moduli (GPa) = 29.89431 29.89431 55.47027
#
# Poissons Ratio (x) = 0.32187 0.58339
# Poissons Ratio (y) = 0.32187 0.58339
# Poissons Ratio (z) = 0.31440 0.31440
#
# Static dielectric constant tensor:
#      x y z
#    x 2.703730 0.000000 0.000000 
#    y 0.000000 2.703730 0.000000 
#    z 0.000000 0.000000 3.196660 
# 
# 
# High freq. dielectric constant tensor:
#      x y z
#    x 1.525130 0.000000 0.000000 
#    y 0.000000 1.525130 0.000000 
#    z 0.000000 0.000000 1.564100 
# 
# From -- ./inp_files/2069.got.cif
#   From: 2010.03.12/outbox.cif.g09.slc.cpg/sg99_cif.got.tgz:2069.got - 2010.04.08 21:11:30.
