data_PCOD8306236
_publ_section_title
;
Structure prediction by ZEFSAII (Michael W. Deem and Ramdas Pophale) SiO2 
 PCOD8306236
Probable space group: I 41 2 2
;
_chemical_formula_sum "Si O2"
_cell_formula_units_Z 56
_cell_length_a 18.011940
_cell_length_b 18.011940
_cell_length_c 8.862128
_cell_angle_alpha 90.000000
_cell_angle_beta 90.000000
_cell_angle_gamma 90.000000
_cell_volume 2875.140033
_symmetry_space_group_name_H-M "I 41 2 2"
_symmetry_group_IT_number 98
_symmetry_cell_setting 'tetragonal'
loop_
_space_group_symop_operation_xyz
x,y,z
-y,1/2+x,1/4+z
-x,-y,z
y,1/2-x,1/4+z
x,1/2-y,1/4-z
-x,1/2+y,1/4-z
y,x,-z
-y,-x,-z
1/2+x,1/2+y,1/2+z
1/2-y,x,3/4+z
1/2-x,1/2-y,1/2+z
1/2+y,-x,3/4+z
1/2+x,-y,3/4-z
1/2-x,y,3/4-z
1/2+y,1/2+x,1/2-z
1/2-y,1/2-x,1/2-z
loop_
_atom_site_type_symbol
_atom_site_label
_atom_site_fract_x
_atom_site_fract_y
_atom_site_fract_z
Si Si1 0.575606 0.031837 0.486253
Si Si2 0.500717 0.179644 0.537279
Si Si3 0.057508 0.320192 0.717995
Si Si4 0.576812 0.576812 0.500000
O O1 0.566613 0.120252 0.508859
O O2 0.500000 0.000000 0.410751
O O3 0.642700 0.010413 0.375645
O O4 0.583719 0.998238 0.653237
O O5 0.534222 0.250000 0.625000
O O6 0.472228 0.209235 0.377063
O O7 0.429536 0.144993 0.630628
O O8 0.088250 0.250000 0.625000
O O9 0.123737 0.376264 0.750000
#
# Coordination Sequence:
#
# PCOD8306236 Si02
#       4
#    16  16  16   8
#     4  10  19  37  64  92 121 164 217 273 310 384
#     4  11  22  34  60  94 128 157 211 276 330 373
#     4  12  24  40  63  91 131 173 226 267 326 383
#     4  10  19  34  60  90 124 158 214 266 316 375
#
# _framework density 19.477312000000001
#
# number of rings (size 3 to 8) (size 9 to 14) (size 15 to 20)
#    0.000    1.143    5.714    6.429    0.000    0.000 
#    0.000    1.429    0.000    0.000    0.000   32.000 
#    0.000    0.000    0.000    0.000    0.000    0.000 
#
# Total GULP energy -346984.287977 kJ/mol
# GULP energy per Si atom -12392.295999 kJ/mol
# Density = 1.943298 g / cm^3
# Si number density = 19.477312 Si / 1000 Ang^3
#
#
#
# Elastic Constant Matrix: (Units=GPa)
#
#
# Indices 1 2 3 4 5 6 
#
# 1 108.9653 34.2650 45.5701 0.0000 0.0000 0.0000
# 2 34.2650 108.9656 45.5701 0.0000 0.0000 0.0000
# 3 45.5701 45.5701 153.5463 0.0000 0.0000 0.0000
# 4 0.0000 0.0000 0.0000 30.5872 0.0000 0.0000
# 5 0.0000 0.0000 0.0000 0.0000 30.5875 0.0000
# 6 0.0000 0.0000 0.0000 0.0000 0.0000 11.7293
#
#
#
# Elastic Compliance Matrix: (Units=1/GPa)
#
#
# Indices 1 2 3 4 5 6 
#
# 1 0.010997 -0.002390 -0.002554 0.000000 0.000000 0.000000
# 2 -0.002390 0.010997 -0.002554 0.000000 0.000000 0.000000
# 3 -0.002554 -0.002554 0.008029 0.000000 0.000000 0.000000
# 4 0.000000 0.000000 0.000000 0.032693 0.000000 0.000000
# 5 0.000000 0.000000 0.000000 0.000000 0.032693 0.000000
# 6 0.000000 0.000000 0.000000 0.000000 0.000000 0.085256
#
#
# Mechanical properties :
#
#
# Convention : Reuss Voigt Hill
#
# Bulk Modulus (GPa) = 66.55371 69.14306 67.84839
# Shear Modulus (GPa) = 24.91629 30.98560 27.95095
#
# Velocity S-wave (km/s) = 3.58054 3.99288 3.79232
# Velocity P-wave (km/s) = 7.16503 7.53882 7.35430
#
# Compressibility (1/GPa) = 0.01502546
#
# Stress axis : x y z
#
# Youngs Moduli (GPa) = 90.93363 90.93390 124.54919
#
# Poissons Ratio (x) = 0.21731 0.31816
# Poissons Ratio (y) = 0.21731 0.31816
# Poissons Ratio (z) = 0.23229 0.23229
#
# Static dielectric constant tensor:
#      x y z
#    x 3.410290 0.000000 0.000000 
#    y 0.000000 3.410290 0.000000 
#    z 0.000000 0.000000 4.008730 
# 
# 
# High freq. dielectric constant tensor:
#      x y z
#    x 1.720870 0.000000 0.000000 
#    y 0.000000 1.720870 0.000000 
#    z 0.000000 0.000000 1.798660 
# 
# From -- ./inp_files/2980.got.cif
#   From: 2010.03.12/outbox.cif.g09.slc.cpg/sg98_2_cif.got.tgz:2980.got - 2010.04.08 21:04:41.
