data_PCOD8306070
_publ_section_title
;
Structure prediction by ZEFSAII (Michael W. Deem and Ramdas Pophale) SiO2 
 PCOD8306070
Probable space group: I 4 2 2 
;
_chemical_formula_sum "Si O2"
_cell_formula_units_Z 80
_cell_length_a 13.980897
_cell_length_b 13.980897
_cell_length_c 19.715113
_cell_angle_alpha 90.000000
_cell_angle_beta 90.000000
_cell_angle_gamma 90.000000
_cell_volume 3853.624044
_symmetry_space_group_name_H-M "I 4 2 2 "
_symmetry_group_IT_number 97
_symmetry_cell_setting 'tetragonal'
loop_
_space_group_symop_operation_xyz
x,y,z
-y,x,z
-x,-y,z
y,-x,z
x,-y,-z
-x,y,-z
y,x,-z
-y,-x,-z
1/2+x,1/2+y,1/2+z
1/2-y,1/2+x,1/2+z
1/2-x,1/2-y,1/2+z
1/2+y,1/2-x,1/2+z
1/2+x,1/2-y,1/2-z
1/2-x,1/2+y,1/2-z
1/2+y,1/2+x,1/2-z
1/2-y,1/2-x,1/2-z
loop_
_atom_site_type_symbol
_atom_site_label
_atom_site_fract_x
_atom_site_fract_y
_atom_site_fract_z
Si Si1 0.938641 0.594648 0.823731
Si Si2 0.614162 0.607214 0.249389
Si Si3 0.122580 0.703233 0.819396
Si Si4 0.223750 0.548448 0.067878
Si Si5 0.800250 0.857159 0.608950
O O1 0.888838 0.611163 0.750000
O O2 0.858898 0.581423 0.881215
O O3 0.000000 0.500000 0.822340
O O4 0.011631 0.682398 0.839325
O O5 0.505294 0.633931 0.256961
O O6 0.684276 0.646354 0.308160
O O7 0.645478 0.655611 0.179639
O O8 0.143928 0.643928 0.750000
O O9 0.189184 0.672865 0.882376
O O10 0.300047 0.469432 0.093041
O O11 0.289894 0.642845 0.054767
O O12 0.178445 0.500000 0.000000
#
# Coordination Sequence:
#
# PCOD8306070 Si02
#       5
#    16  16  16  16  16
#     4  11  20  39  63  89 120 155 207 262 324 369
#     4  10  20  34  56  89 126 162 209 263 323 383
#     4  10  20  35  58  89 124 161 209 267 316 381
#     4  12  26  41  62  87 123 169 212 260 312 388
#     4  11  22  40  56  85 121 170 216 251 316 381
#
# _framework density 20.759678999999998
#
# number of rings (size 3 to 8) (size 9 to 14) (size 15 to 20)
#    0.000    1.200    6.000    1.800    2.800    1.600 
#    0.000    1.000    0.000    0.000    0.000    0.000 
#    0.000    0.000    0.000    0.000    0.000    0.000 
#
# Total GULP energy -495588.385216 kJ/mol
# GULP energy per Si atom -12389.709630 kJ/mol
# Density = 2.071243 g / cm^3
# Si number density = 20.759679 Si / 1000 Ang^3
#
#
#
# Elastic Constant Matrix: (Units=GPa)
#
#
# Indices 1 2 3 4 5 6 
#
# 1 64.0331 33.5450 31.5286 0.0000 0.0000 0.0000
# 2 33.5450 64.0326 31.5286 0.0000 0.0000 0.0000
# 3 31.5286 31.5286 77.5612 0.0000 0.0000 0.0000
# 4 0.0000 0.0000 0.0000 23.4983 0.0000 0.0000
# 5 0.0000 0.0000 0.0000 0.0000 23.4984 0.0000
# 6 0.0000 0.0000 0.0000 0.0000 0.0000 30.4953
#
#
#
# Elastic Compliance Matrix: (Units=1/GPa)
#
#
# Indices 1 2 3 4 5 6 
#
# 1 0.023350 -0.009450 -0.005650 0.000000 0.000000 0.000000
# 2 -0.009450 0.023350 -0.005650 0.000000 0.000000 0.000000
# 3 -0.005650 -0.005650 0.017487 0.000000 0.000000 0.000000
# 4 0.000000 0.000000 0.000000 0.042556 0.000000 0.000000
# 5 0.000000 0.000000 0.000000 0.000000 0.042556 0.000000
# 6 0.000000 0.000000 0.000000 0.000000 0.000000 0.032792
#
#
# Mechanical properties :
#
#
# Convention : Reuss Voigt Hill
#
# Bulk Modulus (GPa) = 44.08192 44.31457 44.19825
# Shear Modulus (GPa) = 21.63069 22.76671 22.19870
#
# Velocity S-wave (km/s) = 3.23144 3.31521 3.27359
# Velocity P-wave (km/s) = 5.93325 6.00391 5.96868
#
# Compressibility (1/GPa) = 0.02268504
#
# Stress axis : x y z
#
# Youngs Moduli (GPa) = 42.82722 42.82684 57.18664
#
# Poissons Ratio (x) = 0.40472 0.32311
# Poissons Ratio (y) = 0.40473 0.32311
# Poissons Ratio (z) = 0.24198 0.24198
#
# Static dielectric constant tensor:
#      x y z
#    x 3.946590 0.000000 0.000000 
#    y 0.000000 3.946580 0.000000 
#    z 0.000000 0.000000 3.569770 
# 
# 
# High freq. dielectric constant tensor:
#      x y z
#    x 1.817840 0.000000 0.000000 
#    y 0.000000 1.817840 0.000000 
#    z 0.000000 0.000000 1.771230 
# 
# From -- ./inp_files/6422.got.cif
#   From: 2010.03.12/outbox.cif.g09.slc.cpg/sg97_4_cif.got.tgz:6422.got - 2010.04.08 20:59:42.
