data_PCOD8306149
_publ_section_title
;
Structure prediction by ZEFSAII (Michael W. Deem and Ramdas Pophale) SiO2 
 PCOD8306149
Probable space group: I 4 2 2 
;
_chemical_formula_sum "Si O2"
_cell_formula_units_Z 56
_cell_length_a 12.022045
_cell_length_b 12.022045
_cell_length_c 19.256335
_cell_angle_alpha 90.000000
_cell_angle_beta 90.000000
_cell_angle_gamma 90.000000
_cell_volume 2783.109740
_symmetry_space_group_name_H-M "I 4 2 2 "
_symmetry_group_IT_number 97
_symmetry_cell_setting 'tetragonal'
loop_
_space_group_symop_operation_xyz
x,y,z
-y,x,z
-x,-y,z
y,-x,z
x,-y,-z
-x,y,-z
y,x,-z
-y,-x,-z
1/2+x,1/2+y,1/2+z
1/2-y,1/2+x,1/2+z
1/2-x,1/2-y,1/2+z
1/2+y,1/2-x,1/2+z
1/2+x,1/2-y,1/2-z
1/2-x,1/2+y,1/2-z
1/2+y,1/2+x,1/2-z
1/2-y,1/2-x,1/2-z
loop_
_atom_site_type_symbol
_atom_site_label
_atom_site_fract_x
_atom_site_fract_y
_atom_site_fract_z
Si Si1 0.905219 0.720524 0.632248
Si Si2 0.868003 0.496749 0.578699
Si Si3 0.364258 0.794556 0.175780
Si Si4 0.000000 0.182633 0.500000
O O1 0.831232 0.609975 0.619225
O O2 0.825443 0.823864 0.647457
O O3 0.001833 0.705315 0.690338
O O4 0.988476 0.738779 0.566339
O O5 0.819239 0.500000 0.500000
O O6 0.824426 0.390533 0.621875
O O7 0.000000 0.500000 0.577460
O O8 0.307989 0.807989 0.250000
O O9 0.110535 0.110535 0.500000
#
# Coordination Sequence:
#
# PCOD8306149 Si02
#       4
#    16  16  16   8
#     4  11  22  39  64  91 128 163 209 269 324 389
#     4   9  20  37  60  90 122 159 209 261 315 388
#     4  11  25  39  61  92 125 173 215 262 330 395
#     4  11  20  34  61  98 130 155 204 273 336 376
#
# _framework density 20.121376000000001
#
# number of rings (size 3 to 8) (size 9 to 14) (size 15 to 20)
#    0.000    1.571    2.857    3.429    4.000    4.571 
#    0.000    0.000    0.000    0.857    0.000    2.000 
#    0.000    0.000    0.000    0.000    0.000    0.000 
#
# Total GULP energy -347064.456561 kJ/mol
# GULP energy per Si atom -12395.159163 kJ/mol
# Density = 2.007558 g / cm^3
# Si number density = 20.121376 Si / 1000 Ang^3
#
#
#
# Elastic Constant Matrix: (Units=GPa)
#
#
# Indices 1 2 3 4 5 6 
#
# 1 94.5244 28.9469 28.6983 0.0000 0.0000 0.0000
# 2 28.9469 94.5244 28.6983 0.0000 0.0000 0.0000
# 3 28.6983 28.6983 99.9856 0.0000 0.0000 0.0000
# 4 0.0000 0.0000 0.0000 23.9140 0.0000 0.0000
# 5 0.0000 0.0000 0.0000 0.0000 23.9140 0.0000
# 6 0.0000 0.0000 0.0000 0.0000 0.0000 23.4100
#
#
#
# Elastic Compliance Matrix: (Units=1/GPa)
#
#
# Indices 1 2 3 4 5 6 
#
# 1 0.012298 -0.002952 -0.002683 0.000000 0.000000 0.000000
# 2 -0.002952 0.012298 -0.002683 0.000000 0.000000 0.000000
# 3 -0.002683 -0.002683 0.011541 0.000000 0.000000 0.000000
# 4 0.000000 0.000000 0.000000 0.041816 0.000000 0.000000
# 5 0.000000 0.000000 0.000000 0.000000 0.041816 0.000000
# 6 0.000000 0.000000 0.000000 0.000000 0.000000 0.042717
#
#
# Mechanical properties :
#
#
# Convention : Reuss Voigt Hill
#
# Bulk Modulus (GPa) = 51.27343 51.30237 51.28790
# Shear Modulus (GPa) = 26.93667 27.76034 27.34851
#
# Velocity S-wave (km/s) = 3.66281 3.71839 3.69070
# Velocity P-wave (km/s) = 6.58981 6.63227 6.61107
#
# Compressibility (1/GPa) = 0.01950328
#
# Stress axis : x y z
#
# Youngs Moduli (GPa) = 81.31671 81.31671 86.64498
#
# Poissons Ratio (x) = 0.24001 0.23243
# Poissons Ratio (y) = 0.24001 0.23243
# Poissons Ratio (z) = 0.21814 0.21814
#
# Static dielectric constant tensor:
#      x y z
#    x 3.659770 0.000000 0.000000 
#    y 0.000000 3.659770 0.000000 
#    z 0.000000 0.000000 3.720920 
# 
# 
# High freq. dielectric constant tensor:
#      x y z
#    x 1.771360 0.000000 0.000000 
#    y 0.000000 1.771360 0.000000 
#    z 0.000000 0.000000 1.783220 
# 
# From -- ./inp_files/6243.got.cif
#   From: 2010.03.12/outbox.cif.g09.slc.cpg/sg97_4_cif.got.tgz:6243.got - 2010.04.08 20:59:42.
