data_PCOD8306806
_publ_section_title
;
Structure prediction by ZEFSAII (Michael W. Deem and Ramdas Pophale) SiO2 
 PCOD8306806
Probable space group: P 42 C M
;
_chemical_formula_sum "Si O2"
_cell_formula_units_Z 32
_cell_length_a 12.456613
_cell_length_b 12.456613
_cell_length_c 9.528019
_cell_angle_alpha 90.000000
_cell_angle_beta 90.000000
_cell_angle_gamma 90.000000
_cell_volume 1478.436101
_symmetry_space_group_name_H-M "P 42 C M"
_symmetry_group_IT_number 101
_symmetry_cell_setting 'tetragonal'
loop_
_space_group_symop_operation_xyz
x,y,z
-y,x,1/2+z
-x,-y,z
y,-x,1/2+z
-x,y,1/2+z
x,-y,1/2+z
-y,-x,z
y,x,z
loop_
_atom_site_type_symbol
_atom_site_label
_atom_site_fract_x
_atom_site_fract_y
_atom_site_fract_z
Si Si1 0.828881 0.998769 0.672670
Si Si2 0.314509 0.006362 0.924557
Si Si3 0.605962 0.218049 0.030873
Si Si4 0.406355 0.228581 0.859219
O O1 0.914686 0.085315 0.722688
O O2 0.794546 0.021279 0.513353
O O3 0.721505 0.008214 0.763817
O O4 0.879297 0.879297 0.685133
O O5 0.385610 0.113206 0.931193
O O6 0.379326 0.903817 0.978920
O O7 0.715245 0.284756 0.007692
O O8 0.512672 0.272684 0.937142
O O9 0.571950 0.218678 0.193559
O O10 0.308070 0.308070 0.890746
#
# Coordination Sequence:
#
# PCOD8306806 Si02
#       4
#     8   8   8   8
#     4  11  22  36  59  94 136 182 227 269 324 394
#     4  12  23  41  68  96 136 175 220 276 337 398
#     4  11  26  47  70 100 137 177 225 280 337 399
#     4  11  26  47  70 100 137 177 225 280 337 399
#
# _framework density 21.644492
#
# number of rings (size 3 to 8) (size 9 to 14) (size 15 to 20)
#    0.000    0.750    2.500    5.250    3.500    5.500 
#    0.000    2.500    0.000    0.000    0.000    0.000 
#    0.000    0.000    0.000    0.000    0.000    0.000 
#
# Total GULP energy -396932.948107 kJ/mol
# GULP energy per Si atom -12404.154628 kJ/mol
# Density = 2.159523 g / cm^3
# Si number density = 21.644492 Si / 1000 Ang^3
#
#
#
# Elastic Constant Matrix: (Units=GPa)
#
#
# Indices 1 2 3 4 5 6 
#
# 1 108.2240 37.3297 48.6556 0.0000 0.0000 -0.0007
# 2 37.3297 108.2240 48.6556 0.0000 0.0000 0.0007
# 3 48.6556 48.6556 103.1699 0.0000 0.0000 0.0000
# 4 0.0000 0.0000 0.0000 41.4612 0.0000 0.0000
# 5 0.0000 0.0000 0.0000 0.0000 41.4612 0.0000
# 6 -0.0007 0.0007 0.0000 0.0000 0.0000 18.1346
#
#
#
# Elastic Compliance Matrix: (Units=1/GPa)
#
#
# Indices 1 2 3 4 5 6 
#
# 1 0.012070 -0.002036 -0.004732 0.000000 0.000000 0.000001
# 2 -0.002036 0.012070 -0.004732 0.000000 0.000000 -0.000001
# 3 -0.004732 -0.004732 0.014156 0.000000 0.000000 0.000000
# 4 0.000000 0.000000 0.000000 0.024119 0.000000 0.000000
# 5 0.000000 0.000000 0.000000 0.000000 0.024119 0.000000
# 6 0.000001 -0.000001 0.000000 0.000000 0.000000 0.055143
#
#
# Mechanical properties :
#
#
# Convention : Reuss Voigt Hill
#
# Bulk Modulus (GPa) = 65.37770 65.43328 65.40549
# Shear Modulus (GPa) = 29.45072 32.54320 30.99696
#
# Velocity S-wave (km/s) = 3.69271 3.88175 3.78841
# Velocity P-wave (km/s) = 6.96077 7.09839 7.02992
#
# Compressibility (1/GPa) = 0.01529573
#
# Stress axis : x y z
#
# Youngs Moduli (GPa) = 82.85171 82.85171 70.64084
#
# Poissons Ratio (x) = 0.16867 0.33428
# Poissons Ratio (y) = 0.16867 0.33428
# Poissons Ratio (z) = 0.39206 0.39206
#
# Static dielectric constant tensor:
#      x y z
#    x 3.842080 0.000000 0.000000 
#    y 0.000000 3.842080 0.000000 
#    z 0.000000 0.000000 3.947130 
# 
# 
# High freq. dielectric constant tensor:
#      x y z
#    x 1.848510 0.000000 0.000000 
#    y 0.000000 1.848510 0.000000 
#    z 0.000000 0.000000 1.861160 
# 
# From -- ./inp_files/1098.got.cif
#   From: 2010.03.12/outbox.cif.g09.slc.cpg/sg101_1_cif.got.tgz:1098.got - 2010.04.14 01:38:52.
