data_PCOD8306640
_publ_section_title
;
Structure prediction by ZEFSAII (Michael W. Deem and Ramdas Pophale) SiO2 
 PCOD8306640
Probable space group: P 4 B M
;
_chemical_formula_sum "Si O2"
_cell_formula_units_Z 40
_cell_length_a 14.538176
_cell_length_b 14.538176
_cell_length_c 9.649453
_cell_angle_alpha 90.000000
_cell_angle_beta 90.000000
_cell_angle_gamma 90.000000
_cell_volume 2039.494504
_symmetry_space_group_name_H-M "P 4 B M"
_symmetry_group_IT_number 100
_symmetry_cell_setting 'tetragonal'
loop_
_space_group_symop_operation_xyz
x,y,z
-y,x,z
-x,-y,z
y,-x,z
1/2-x,1/2+y,z
1/2+x,1/2-y,z
1/2-y,1/2-x,z
1/2+y,1/2+x,z
loop_
_atom_site_type_symbol
_atom_site_label
_atom_site_fract_x
_atom_site_fract_y
_atom_site_fract_z
Si Si1 0.352004 0.539247 0.259270
Si Si2 0.750103 0.402698 0.530785
Si Si3 0.901844 0.116156 0.759269
Si Si4 0.249897 0.597302 0.987754
Si Si5 0.004983 0.353074 0.759270
O O1 0.388926 0.435525 0.259270
O O2 0.287734 0.553574 0.391156
O O3 0.287734 0.553574 0.127384
O O4 0.821438 0.321438 0.496708
O O5 0.665721 0.361824 0.622096
O O6 0.795588 0.484797 0.620147
O O7 0.011862 0.128113 0.759269
O O8 0.861825 0.165720 0.896444
O O9 0.178563 0.678563 0.021831
O O10 0.204413 0.515203 0.898393
O O11 0.110614 0.389387 0.759270
O O12 0.939072 0.439072 0.759271
#
# Coordination Sequence:
#
# PCOD8306640 Si02
#       5
#     8   8   8   8   8
#     4  11  23  40  58  77 107 147 186 223 274 333
#     4  10  20  36  57  82 113 143 180 232 277 318
#     4  10  19  34  56  81 110 147 188 225 272 330
#     4  10  20  36  57  82 113 143 180 232 277 318
#     4   8  16  34  58  81 109 146 179 210 262 327
#
# _framework density 19.612704000000001
#
# number of rings (size 3 to 8) (size 9 to 14) (size 15 to 20)
#    0.000    2.200    0.000    4.800    0.000    3.200 
#    0.000   21.000    0.000    4.800    0.000    0.000 
#    0.000    0.000    0.000    0.000    0.000    0.000 
#
# Total GULP energy -495814.721706 kJ/mol
# GULP energy per Si atom -12395.368043 kJ/mol
# Density = 1.956806 g / cm^3
# Si number density = 19.612704 Si / 1000 Ang^3
#
#
#
# Elastic Constant Matrix: (Units=GPa)
#
#
# Indices 1 2 3 4 5 6 
#
# 1 100.3755 58.5363 59.5544 0.0000 0.0000 -0.0003
# 2 58.5363 100.3755 59.5544 0.0000 0.0000 0.0003
# 3 59.5544 59.5544 180.3935 0.0000 0.0000 0.0000
# 4 0.0000 0.0000 0.0000 21.7475 0.0000 0.0000
# 5 0.0000 0.0000 0.0000 0.0000 21.7475 0.0000
# 6 -0.0003 0.0003 0.0000 0.0000 0.0000 21.0181
#
#
#
# Elastic Compliance Matrix: (Units=1/GPa)
#
#
# Indices 1 2 3 4 5 6 
#
# 1 0.016131 -0.007770 -0.002761 0.000000 0.000000 0.000000
# 2 -0.007770 0.016131 -0.002761 0.000000 0.000000 0.000000
# 3 -0.002761 -0.002761 0.007366 0.000000 0.000000 0.000000
# 4 0.000000 0.000000 0.000000 0.045982 0.000000 0.000000
# 5 0.000000 0.000000 0.000000 0.000000 0.045982 0.000000
# 6 0.000000 0.000000 0.000000 0.000000 0.000000 0.047578
#
#
# Mechanical properties :
#
#
# Convention : Reuss Voigt Hill
#
# Bulk Modulus (GPa) = 76.64172 81.82608 79.23390
# Shear Modulus (GPa) = 23.79792 26.46925 25.13359
#
# Velocity S-wave (km/s) = 3.48716 3.67767 3.58368
# Velocity P-wave (km/s) = 7.44151 7.73597 7.59017
#
# Compressibility (1/GPa) = 0.01304772
#
# Stress axis : x y z
#
# Youngs Moduli (GPa) = 61.99063 61.99063 135.75587
#
# Poissons Ratio (x) = 0.48164 0.37476
# Poissons Ratio (y) = 0.48164 0.37476
# Poissons Ratio (z) = 0.17113 0.17113
#
# Static dielectric constant tensor:
#      x y z
#    x 3.792300 0.000000 0.000000 
#    y 0.000000 3.792300 0.000000 
#    z 0.000000 0.000000 3.572600 
# 
# 
# High freq. dielectric constant tensor:
#      x y z
#    x 1.765480 0.000000 0.000000 
#    y 0.000000 1.765480 0.000000 
#    z 0.000000 0.000000 1.764170 
# 
# From -- ./inp_files/763.got.cif
#   From: 2010.03.12/outbox.cif.g09.slc.cpg/sg100_cif.got.tgz:763.got - 2010.04.14 01:37:57.
