data_PCOD8306284
_publ_section_title
;
Structure prediction by ZEFSAII (Michael W. Deem and Ramdas Pophale) SiO2 
 PCOD8306284
Probable space group: I 41 2 2
;
_chemical_formula_sum "Si O2"
_cell_formula_units_Z 72
_cell_length_a 12.230168
_cell_length_b 12.230168
_cell_length_c 26.138120
_cell_angle_alpha 90.000000
_cell_angle_beta 90.000000
_cell_angle_gamma 90.000000
_cell_volume 3909.661819
_symmetry_space_group_name_H-M "I 41 2 2"
_symmetry_group_IT_number 98
_symmetry_cell_setting 'tetragonal'
loop_
_space_group_symop_operation_xyz
x,y,z
-y,1/2+x,1/4+z
-x,-y,z
y,1/2-x,1/4+z
x,1/2-y,1/4-z
-x,1/2+y,1/4-z
y,x,-z
-y,-x,-z
1/2+x,1/2+y,1/2+z
1/2-y,x,3/4+z
1/2-x,1/2-y,1/2+z
1/2+y,-x,3/4+z
1/2+x,-y,3/4-z
1/2-x,y,3/4-z
1/2+y,1/2+x,1/2-z
1/2-y,1/2-x,1/2-z
loop_
_atom_site_type_symbol
_atom_site_label
_atom_site_fract_x
_atom_site_fract_y
_atom_site_fract_z
Si Si1 0.024711 0.376832 0.833203
Si Si2 0.622856 0.896277 0.055210
Si Si3 0.626604 0.375819 0.769571
Si Si4 0.257350 0.811843 0.576577
Si Si5 0.310952 0.310952 0.000000
O O1 0.101498 0.378650 0.883270
O O2 0.083965 0.313368 0.787112
O O3 0.000000 0.500000 0.815432
O O4 0.911784 0.316758 0.846212
O O5 0.501913 0.877140 0.034212
O O6 0.694791 0.796483 0.035032
O O7 0.675380 0.009058 0.034045
O O8 0.727262 0.321191 0.798180
O O9 0.645123 0.356663 0.709027
O O10 0.310930 0.750000 0.625000
#
# Coordination Sequence:
#
# PCOD8306284 Si02
#       5
#    16  16  16  16   8
#     4  12  22  35  59  91 123 155 193 251 309 362
#     4  11  21  41  56  85 124 164 192 242 310 356
#     4  10  21  37  60  83 122 154 197 248 293 356
#     4  11  20  37  60  90 112 153 205 247 294 350
#     4  12  25  36  58  89 128 158 196 236 304 377
#
# _framework density 18.415914999999998
#
# number of rings (size 3 to 8) (size 9 to 14) (size 15 to 20)
#    0.000    0.889    6.667    2.333    3.111    0.000 
#    0.000    2.222    0.000    2.667    0.000    0.000 
#    0.000    0.000    0.000    0.000    0.000    0.000 
#
# Total GULP energy -446414.735884 kJ/mol
# GULP energy per Si atom -12400.409330 kJ/mol
# Density = 1.837400 g / cm^3
# Si number density = 18.415915 Si / 1000 Ang^3
#
#
#
# Elastic Constant Matrix: (Units=GPa)
#
#
# Indices 1 2 3 4 5 6 
#
# 1 74.8880 21.7137 33.3375 0.0000 0.0000 0.0000
# 2 21.7137 74.8880 33.3375 0.0000 0.0000 0.0000
# 3 33.3375 33.3375 121.9379 0.0000 0.0000 0.0000
# 4 0.0000 0.0000 0.0000 27.5683 0.0000 0.0000
# 5 0.0000 0.0000 0.0000 0.0000 27.5683 0.0000
# 6 0.0000 0.0000 0.0000 0.0000 0.0000 15.8695
#
#
#
# Elastic Compliance Matrix: (Units=1/GPa)
#
#
# Indices 1 2 3 4 5 6 
#
# 1 0.015783 -0.003023 -0.003488 0.000000 0.000000 0.000000
# 2 -0.003023 0.015783 -0.003488 0.000000 0.000000 0.000000
# 3 -0.003488 -0.003488 0.010108 0.000000 0.000000 0.000000
# 4 0.000000 0.000000 0.000000 0.036274 0.000000 0.000000
# 5 0.000000 0.000000 0.000000 0.000000 0.036274 0.000000
# 6 0.000000 0.000000 0.000000 0.000000 0.000000 0.063014
#
#
# Mechanical properties :
#
#
# Convention : Reuss Voigt Hill
#
# Bulk Modulus (GPa) = 46.13888 49.83237 47.98563
# Shear Modulus (GPa) = 24.45471 26.42291 25.43881
#
# Velocity S-wave (km/s) = 3.64801 3.79197 3.72068
# Velocity P-wave (km/s) = 6.54615 6.80369 6.67616
#
# Compressibility (1/GPa) = 0.02167369
#
# Stress axis : x y z
#
# Youngs Moduli (GPa) = 63.36019 63.36019 98.92813
#
# Poissons Ratio (x) = 0.19156 0.34510
# Poissons Ratio (y) = 0.19156 0.34510
# Poissons Ratio (z) = 0.22103 0.22103
#
# Static dielectric constant tensor:
#      x y z
#    x 3.497250 0.000000 0.000000 
#    y 0.000000 3.497250 0.000000 
#    z 0.000000 0.000000 3.743570 
# 
# 
# High freq. dielectric constant tensor:
#      x y z
#    x 1.698710 0.000000 0.000000 
#    y 0.000000 1.698710 0.000000 
#    z 0.000000 0.000000 1.730860 
# 
# From -- ./inp_files/10784.got.cif
#   From: 2010.03.12/outbox.cif.g09.slc.cpg/sg98_6_cif.got.tgz:10784.got - 2010.04.08 21:04:41.
