data_PCOD8306321
_publ_section_title
;
Structure prediction by ZEFSAII (Michael W. Deem and Ramdas Pophale) SiO2 
 PCOD8306321
Probable space group: I 41 2 2
;
_chemical_formula_sum "Si O2"
_cell_formula_units_Z 72
_cell_length_a 11.570518
_cell_length_b 11.570518
_cell_length_c 24.557358
_cell_angle_alpha 90.000000
_cell_angle_beta 90.000000
_cell_angle_gamma 90.000000
_cell_volume 3287.662637
_symmetry_space_group_name_H-M "I 41 2 2"
_symmetry_group_IT_number 98
_symmetry_cell_setting 'tetragonal'
loop_
_space_group_symop_operation_xyz
x,y,z
-y,1/2+x,1/4+z
-x,-y,z
y,1/2-x,1/4+z
x,1/2-y,1/4-z
-x,1/2+y,1/4-z
y,x,-z
-y,-x,-z
1/2+x,1/2+y,1/2+z
1/2-y,x,3/4+z
1/2-x,1/2-y,1/2+z
1/2+y,-x,3/4+z
1/2+x,-y,3/4-z
1/2-x,y,3/4-z
1/2+y,1/2+x,1/2-z
1/2-y,1/2-x,1/2-z
loop_
_atom_site_type_symbol
_atom_site_label
_atom_site_fract_x
_atom_site_fract_y
_atom_site_fract_z
Si Si1 0.167101 0.332900 0.750000
Si Si2 0.118576 0.316445 0.866576
Si Si3 0.888623 0.244241 0.038648
Si Si4 0.886249 0.438311 0.122062
Si Si5 0.612716 0.930076 0.019548
O O1 0.111731 0.380243 0.806911
O O2 0.302642 0.366664 0.744828
O O3 0.250000 0.271446 0.875000
O O4 0.083077 0.402891 0.915074
O O5 0.034861 0.209858 0.875809
O O6 0.846099 0.344828 0.078081
O O7 0.915863 0.125855 0.071251
O O8 0.779027 0.220974 0.000000
O O9 0.998397 0.276522 0.001231
O O10 0.000000 0.500000 0.100030
O O11 0.500000 0.000000 0.998481
#
# Coordination Sequence:
#
# PCOD8306321 Si02
#       5
#     8  16  16  16  16
#     4  10  22  40  70  94 132 186 232 284 343 426
#     4  10  22  41  64  96 129 174 233 280 342 421
#     4  11  23  40  63  97 134 176 220 288 352 413
#     4  11  24  39  64  96 138 175 225 282 355 420
#     4  11  23  42  66  97 138 177 228 289 353 422
#
# _framework density 21.900057
#
# number of rings (size 3 to 8) (size 9 to 14) (size 15 to 20)
#    0.000    1.333    2.222    3.333    9.333    0.444 
#    0.000    9.444    0.000    0.000    0.000    0.000 
#    0.000    0.000    0.000    0.000    0.000    0.000 
#
# Total GULP energy -446026.150938 kJ/mol
# GULP energy per Si atom -12389.615304 kJ/mol
# Density = 2.185021 g / cm^3
# Si number density = 21.900057 Si / 1000 Ang^3
#
#
#
# Elastic Constant Matrix: (Units=GPa)
#
#
# Indices 1 2 3 4 5 6 
#
# 1 84.9369 40.1762 30.8397 0.0000 0.0000 0.0000
# 2 40.1762 84.9352 30.8392 0.0000 0.0000 0.0000
# 3 30.8397 30.8392 164.3455 0.0000 0.0000 0.0000
# 4 0.0000 0.0000 0.0000 -43.2761 0.0000 0.0000
# 5 0.0000 0.0000 0.0000 0.0000 -43.2760 0.0000
# 6 0.0000 0.0000 0.0000 0.0000 0.0000 34.5226
#
#
#
# Elastic Compliance Matrix: (Units=1/GPa)
#
#
# Indices 1 2 3 4 5 6 
#
# 1 0.015574 -0.006767 -0.001653 0.000000 0.000000 0.000000
# 2 -0.006767 0.015575 -0.001653 0.000000 0.000000 0.000000
# 3 -0.001653 -0.001653 0.006705 0.000000 0.000000 0.000000
# 4 0.000000 0.000000 0.000000 -0.023107 0.000000 0.000000
# 5 0.000000 0.000000 0.000000 0.000000 -0.023107 0.000000
# 6 0.000000 0.000000 0.000000 0.000000 0.000000 0.028967
#
#
# Mechanical properties :
#
#
# Convention : Reuss Voigt Hill
#
# Bulk Modulus (GPa) = 56.46771 59.76978 58.11874
# Shear Modulus (GPa) = 107.17271 5.08492 56.12881
#
# Velocity S-wave (km/s) = 7.00310 1.52542 5.06805
# Velocity P-wave (km/s) = 9.55152 5.51850 7.80017
#
# Compressibility (1/GPa) = 0.01770924
#
# Stress axis : x y z
#
# Youngs Moduli (GPa) = 64.20801 64.20674 149.14203
#
# Poissons Ratio (x) = 0.43448 0.24649
# Poissons Ratio (y) = 0.43449 0.24649
# Poissons Ratio (z) = 0.10612 0.10612
#
# Static dielectric constant tensor:
#      x y z
#    x 3.944720 0.000000 0.000000 
#    y 0.000000 3.944760 0.000000 
#    z 0.000000 0.000000 4.511900 
# 
# 
# High freq. dielectric constant tensor:
#      x y z
#    x 1.839660 0.000000 0.000000 
#    y 0.000000 1.839660 0.000000 
#    z 0.000000 0.000000 1.898910 
# 
# From -- ./inp_files/10829.got.cif
#   From: 2010.03.12/outbox.cif.g09.slc.cpg/sg98_6_cif.got.tgz:10829.got - 2010.04.08 21:04:41.
