data_PCOD8306596
_publ_section_title
;
Structure prediction by ZEFSAII (Michael W. Deem and Ramdas Pophale) SiO2 
 PCOD8306596
Probable space group: P 4 M M
;
_chemical_formula_sum "Si O2"
_cell_formula_units_Z 64
_cell_length_a 13.459159
_cell_length_b 13.459159
_cell_length_c 20.296967
_cell_angle_alpha 90.000000
_cell_angle_beta 90.000000
_cell_angle_gamma 90.000000
_cell_volume 3676.774483
_symmetry_space_group_name_H-M "P 4 M M"
_symmetry_group_IT_number 99
_symmetry_cell_setting 'tetragonal'
loop_
_space_group_symop_operation_xyz
x,y,z
-y,x,z
-x,-y,z
y,-x,z
-x,y,z
x,-y,z
-y,-x,z
y,x,z
loop_
_atom_site_type_symbol
_atom_site_label
_atom_site_fract_x
_atom_site_fract_y
_atom_site_fract_z
Si Si1 0.390704 0.882225 0.906920
Si Si2 0.779126 0.384149 0.662934
Si Si3 0.723368 0.116956 0.777745
Si Si4 0.886264 0.274074 0.400637
Si Si5 0.276487 0.885368 0.179187
Si Si6 0.113683 0.727462 0.031007
Si Si7 0.222215 0.385263 0.290719
Si Si8 0.725658 0.885795 0.551750
O O1 0.500000 0.835299 0.897021
O O2 0.319585 0.847701 0.847952
O O3 0.398857 0.000000 0.906687
O O4 0.349884 0.844150 0.977350
O O5 0.753375 0.500000 0.665691
O O6 0.676095 0.323906 0.668334
O O7 0.852824 0.355855 0.722269
O O8 0.835547 0.360455 0.594813
O O9 0.827739 0.172262 0.765428
O O10 0.743486 0.000000 0.774641
O O11 0.828965 0.171036 0.387179
O O12 0.840460 0.360934 0.356189
O O13 0.875795 0.308319 0.476144
O O14 0.000000 0.255266 0.381009
O O15 0.174134 0.825867 0.191108
O O16 0.316419 0.871519 0.104458
O O17 0.361703 0.844666 0.226956
O O18 0.253951 0.000000 0.194886
O O19 0.168342 0.831659 0.023465
O O20 0.000000 0.751909 0.015867
O O21 0.250834 0.500000 0.290806
O O22 0.324492 0.324492 0.288953
O O23 0.830349 0.830349 0.564394
O O24 0.741233 0.000000 0.572323
#
# Coordination Sequence:
#
# PCOD8306596 Si02
#       8
#     8   8   8   8   8   8   8   8
#     4   9  17  29  45  65  90 122 160 199 236 274
#     4  10  21  36  53  73  97 126 163 206 248 289
#     4  10  20  33  50  73 100 129 161 197 239 290
#     4   9  18  32  50  74 103 132 162 195 232 279
#     4   9  18  31  47  70  99 129 161 196 235 283
#     4   9  17  29  45  67  96 127 158 192 231 280
#     4  10  21  36  52  70  93 121 157 202 247 291
#     4   9  18  32  50  74 103 133 164 197 234 280
#
# _framework density 17.406561
#
# number of rings (size 3 to 8) (size 9 to 14) (size 15 to 20)
#    0.000    2.625    0.000    1.500    0.000    4.375 
#    0.000    5.000    0.000    6.750    0.000    3.500 
#    0.000    2.250    0.000    0.500    0.000    0.000 
#
# Total GULP energy -793593.762671 kJ/mol
# GULP energy per Si atom -12399.902542 kJ/mol
# Density = 1.736694 g / cm^3
# Si number density = 17.406561 Si / 1000 Ang^3
#
#
#
# Elastic Constant Matrix: (Units=GPa)
#
#
# Indices 1 2 3 4 5 6 
#
# 1 108.4349 42.4095 48.9636 0.0000 0.0000 0.0000
# 2 42.4095 108.4349 48.9636 0.0000 0.0000 0.0000
# 3 48.9636 48.9636 107.5438 0.0000 0.0000 0.0000
# 4 0.0000 0.0000 0.0000 22.5046 0.0000 0.0000
# 5 0.0000 0.0000 0.0000 0.0000 22.5046 0.0000
# 6 0.0000 0.0000 0.0000 0.0000 0.0000 11.5735
#
#
#
# Elastic Compliance Matrix: (Units=1/GPa)
#
#
# Indices 1 2 3 4 5 6 
#
# 1 0.012278 -0.002867 -0.004285 0.000000 0.000000 0.000000
# 2 -0.002867 0.012278 -0.004285 0.000000 0.000000 0.000000
# 3 -0.004285 -0.004285 0.013200 0.000000 0.000000 0.000000
# 4 0.000000 0.000000 0.000000 0.044435 0.000000 0.000000
# 5 0.000000 0.000000 0.000000 0.000000 0.044435 0.000000
# 6 0.000000 0.000000 0.000000 0.000000 0.000000 0.086404
#
#
# Mechanical properties :
#
#
# Convention : Reuss Voigt Hill
#
# Bulk Modulus (GPa) = 67.19001 67.23191 67.21096
# Shear Modulus (GPa) = 20.75842 23.58833 22.17337
#
# Velocity S-wave (km/s) = 3.45710 3.68522 3.57298
# Velocity P-wave (km/s) = 7.39050 7.53764 7.46444
#
# Compressibility (1/GPa) = 0.01488317
#
# Stress axis : x y z
#
# Youngs Moduli (GPa) = 81.44431 81.44431 75.75686
#
# Poissons Ratio (x) = 0.23353 0.32460
# Poissons Ratio (y) = 0.23353 0.32460
# Poissons Ratio (z) = 0.34897 0.34897
#
# Static dielectric constant tensor:
#      x y z
#    x 3.076910 0.000000 0.000000 
#    y 0.000000 3.076910 0.000000 
#    z 0.000000 0.000000 3.549920 
# 
# 
# High freq. dielectric constant tensor:
#      x y z
#    x 1.656150 0.000000 0.000000 
#    y 0.000000 1.656150 0.000000 
#    z 0.000000 0.000000 1.693140 
# 
# From -- ./inp_files/2303.got.cif
#   From: 2010.03.12/outbox.cif.g09.slc.cpg/sg99_cif.got.tgz:2303.got - 2010.04.08 21:11:30.
