data_PCOD8306049
_publ_section_title
;
Structure prediction by ZEFSAII (Michael W. Deem and Ramdas Pophale) SiO2 
 PCOD8306049
Probable space group: I 4 2 2 
;
_chemical_formula_sum "Si O2"
_cell_formula_units_Z 80
_cell_length_a 17.746958
_cell_length_b 17.746958
_cell_length_c 13.783208
_cell_angle_alpha 90.000000
_cell_angle_beta 90.000000
_cell_angle_gamma 90.000000
_cell_volume 4341.083636
_symmetry_space_group_name_H-M "I 4 2 2 "
_symmetry_group_IT_number 97
_symmetry_cell_setting 'tetragonal'
loop_
_space_group_symop_operation_xyz
x,y,z
-y,x,z
-x,-y,z
y,-x,z
x,-y,-z
-x,y,-z
y,x,-z
-y,-x,-z
1/2+x,1/2+y,1/2+z
1/2-y,1/2+x,1/2+z
1/2-x,1/2-y,1/2+z
1/2+y,1/2-x,1/2+z
1/2+x,1/2-y,1/2-z
1/2-x,1/2+y,1/2-z
1/2+y,1/2+x,1/2-z
1/2-y,1/2-x,1/2-z
loop_
_atom_site_type_symbol
_atom_site_label
_atom_site_fract_x
_atom_site_fract_y
_atom_site_fract_z
Si Si1 0.881482 0.737133 0.762918
Si Si2 0.759617 0.809808 0.897677
Si Si3 0.231918 0.974833 0.110273
Si Si4 0.114340 0.956384 0.256915
Si Si5 0.169944 0.158404 0.609248
O O1 0.847262 0.652739 0.750000
O O2 0.822505 0.791389 0.817752
O O3 0.886375 0.778946 0.658483
O O4 0.961671 0.731534 0.818800
O O5 0.725286 0.894285 0.884873
O O6 0.688378 0.755332 0.889389
O O7 0.801444 0.801444 0.000000
O O8 0.147820 0.954120 0.148047
O O9 0.228659 0.000000 0.000000
O O10 0.172402 0.922342 0.335535
O O11 0.042859 0.903637 0.274112
O O12 0.143006 0.143006 0.500000
#
# Coordination Sequence:
#
# PCOD8306049 Si02
#       5
#    16  16  16  16  16
#     4  10  20  36  54  79 121 159 199 245 290 349
#     4  10  19  34  57  86 116 152 199 242 290 356
#     4  12  21  34  59  89 123 154 190 248 308 355
#     4  11  23  37  52  82 123 157 193 233 291 361
#     4  10  21  37  56  76 112 163 209 244 275 339
#
# _framework density 18.428578000000002
#
# number of rings (size 3 to 8) (size 9 to 14) (size 15 to 20)
#    0.000    1.400    6.000    0.000    0.000    0.800 
#    0.000    2.000    0.000    0.000    0.000    2.800 
#    0.000    6.400    0.000    0.000    0.000    0.000 
#
# Total GULP energy -495591.501351 kJ/mol
# GULP energy per Si atom -12389.787534 kJ/mol
# Density = 1.838663 g / cm^3
# Si number density = 18.428578 Si / 1000 Ang^3
#
#
#
# Elastic Constant Matrix: (Units=GPa)
#
#
# Indices 1 2 3 4 5 6 
#
# 1 97.9792 43.0499 39.6267 0.0000 0.0000 0.0000
# 2 43.0499 97.9803 39.6267 0.0000 0.0000 0.0000
# 3 39.6267 39.6267 115.9374 0.0000 0.0000 0.0000
# 4 0.0000 0.0000 0.0000 26.3634 0.0000 0.0000
# 5 0.0000 0.0000 0.0000 0.0000 26.3632 0.0000
# 6 0.0000 0.0000 0.0000 0.0000 0.0000 -12.5996
#
#
#
# Elastic Compliance Matrix: (Units=1/GPa)
#
#
# Indices 1 2 3 4 5 6 
#
# 1 0.013491 -0.004714 -0.003000 0.000000 0.000000 0.000000
# 2 -0.004714 0.013491 -0.003000 0.000000 0.000000 0.000000
# 3 -0.003000 -0.003000 0.010676 0.000000 0.000000 0.000000
# 4 0.000000 0.000000 0.000000 0.037931 0.000000 0.000000
# 5 0.000000 0.000000 0.000000 0.000000 0.037932 0.000000
# 6 0.000000 0.000000 0.000000 0.000000 0.000000 -0.079368
#
#
# Mechanical properties :
#
#
# Convention : Reuss Voigt Hill
#
# Bulk Modulus (GPa) = 61.61475 61.83371 61.72423
# Shear Modulus (GPa) = 81.98047 20.66499 51.32273
#
# Velocity S-wave (km/s) = 6.67698 3.35230 5.28299
# Velocity P-wave (km/s) = 9.64104 6.97208 8.41307
#
# Compressibility (1/GPa) = 0.01622988
#
# Stress axis : x y z
#
# Youngs Moduli (GPa) = 74.12446 74.12547 93.66867
#
# Poissons Ratio (x) = 0.34945 0.28098
# Poissons Ratio (y) = 0.34944 0.28098
# Poissons Ratio (z) = 0.22236 0.22235
#
# Static dielectric constant tensor:
#      x y z
#    x 3.417230 0.000000 0.000000 
#    y 0.000000 3.417230 0.000000 
#    z 0.000000 0.000000 3.723320 
# 
# 
# High freq. dielectric constant tensor:
#      x y z
#    x 1.695640 0.000000 0.000000 
#    y 0.000000 1.695640 0.000000 
#    z 0.000000 0.000000 1.728470 
# 
# From -- ./inp_files/4707.got.cif
#   From: 2010.03.12/outbox.cif.g09.slc.cpg/sg97_3_cif.got.tgz:4707.got - 2010.04.08 20:59:42.
