data_PCOD8306162
_publ_section_title
;
Structure prediction by ZEFSAII (Michael W. Deem and Ramdas Pophale) SiO2 
 PCOD8306162
Probable space group: I 4 2 2 
;
_chemical_formula_sum "Si O2"
_cell_formula_units_Z 64
_cell_length_a 11.490317
_cell_length_b 11.490317
_cell_length_c 21.594299
_cell_angle_alpha 90.000000
_cell_angle_beta 90.000000
_cell_angle_gamma 90.000000
_cell_volume 2851.038823
_symmetry_space_group_name_H-M "I 4 2 2 "
_symmetry_group_IT_number 97
_symmetry_cell_setting 'tetragonal'
loop_
_space_group_symop_operation_xyz
x,y,z
-y,x,z
-x,-y,z
y,-x,z
x,-y,-z
-x,y,-z
y,x,-z
-y,-x,-z
1/2+x,1/2+y,1/2+z
1/2-y,1/2+x,1/2+z
1/2-x,1/2-y,1/2+z
1/2+y,1/2-x,1/2+z
1/2+x,1/2-y,1/2-z
1/2-x,1/2+y,1/2-z
1/2+y,1/2+x,1/2-z
1/2-y,1/2-x,1/2-z
loop_
_atom_site_type_symbol
_atom_site_label
_atom_site_fract_x
_atom_site_fract_y
_atom_site_fract_z
Si Si1 0.962528 0.818458 0.857792
Si Si2 0.977937 0.192133 0.394179
Si Si3 0.687163 0.996428 0.738224
Si Si4 0.403892 0.926304 0.936675
O O1 0.923914 0.712198 0.898856
O O2 0.088855 0.864873 0.875509
O O3 0.970566 0.789863 0.785404
O O4 0.952310 0.293840 0.444933
O O5 0.100628 0.127279 0.402757
O O6 0.982862 0.256057 0.328297
O O7 0.634719 0.865282 0.750000
O O8 0.584116 0.084116 0.750000
O O9 0.500000 0.000000 0.897462
O O10 0.386806 0.000000 0.000000
#
# Coordination Sequence:
#
# PCOD8306162 Si02
#       4
#    16  16  16  16
#     4  11  25  43  68 105 143 183 236 296 361 438
#     4  11  25  45  74 110 149 192 246 307 374 443
#     4  11  22  37  68 108 149 191 236 290 363 446
#     4  11  26  47  71 100 134 189 246 297 365 432
#
# _framework density 22.447959999999998
#
# number of rings (size 3 to 8) (size 9 to 14) (size 15 to 20)
#    0.000    1.000    2.500    3.000    7.000    5.000 
#    4.500    1.250    0.000    6.000    0.000    0.000 
#    0.000    0.000    0.000    0.000    0.000    0.000 
#
# Total GULP energy -396487.377785 kJ/mol
# GULP energy per Si atom -12390.230556 kJ/mol
# Density = 2.239687 g / cm^3
# Si number density = 22.447960 Si / 1000 Ang^3
#
#
#
# Elastic Constant Matrix: (Units=GPa)
#
#
# Indices 1 2 3 4 5 6 
#
# 1 146.1288 56.9603 31.8670 0.0000 0.0000 0.0000
# 2 56.9603 146.1282 31.8670 0.0000 0.0000 0.0000
# 3 31.8670 31.8670 86.2609 0.0000 0.0000 0.0000
# 4 0.0000 0.0000 0.0000 7.0721 0.0000 0.0000
# 5 0.0000 0.0000 0.0000 0.0000 7.0792 0.0000
# 6 0.0000 0.0000 0.0000 0.0000 0.0000 -20.8374
#
#
#
# Elastic Compliance Matrix: (Units=1/GPa)
#
#
# Indices 1 2 3 4 5 6 
#
# 1 0.008392 -0.002823 -0.002058 0.000000 0.000000 0.000000
# 2 -0.002823 0.008392 -0.002058 0.000000 0.000000 0.000000
# 3 -0.002058 -0.002058 0.013113 0.000000 0.000000 0.000000
# 4 0.000000 0.000000 0.000000 0.141400 0.000000 0.000000
# 5 0.000000 0.000000 0.000000 0.000000 0.141259 0.000000
# 6 0.000000 0.000000 0.000000 0.000000 0.000000 -0.047991
#
#
# Mechanical properties :
#
#
# Convention : Reuss Voigt Hill
#
# Bulk Modulus (GPa) = 62.41416 68.87851 65.64634
# Shear Modulus (GPa) = 17.61916 15.85103 16.73510
#
# Velocity S-wave (km/s) = 2.80463 2.66018 2.73336
# Velocity P-wave (km/s) = 6.19292 6.33922 6.26649
#
# Compressibility (1/GPa) = 0.01602200
#
# Stress axis : x y z
#
# Youngs Moduli (GPa) = 119.15833 119.15781 76.26027
#
# Poissons Ratio (x) = 0.33633 0.15691
# Poissons Ratio (y) = 0.33633 0.15691
# Poissons Ratio (z) = 0.24518 0.24518
#
# Static dielectric constant tensor:
#      x y z
#    x 4.581870 0.000000 0.000000 
#    y 0.000000 4.581840 0.000000 
#    z 0.000000 0.000000 3.985680 
# 
# 
# High freq. dielectric constant tensor:
#      x y z
#    x 1.902520 0.000000 0.000000 
#    y 0.000000 1.902520 0.000000 
#    z 0.000000 0.000000 1.874320 
# 
# From -- ./inp_files/6293.got.cif
#   From: 2010.03.12/outbox.cif.g09.slc.cpg/sg97_4_cif.got.tgz:6293.got - 2010.04.08 20:59:42.
