data_PCOD8306248
_publ_section_title
;
Structure prediction by ZEFSAII (Michael W. Deem and Ramdas Pophale) SiO2 
 PCOD8306248
Probable space group: I 41 2 2
;
_chemical_formula_sum "Si O2"
_cell_formula_units_Z 88
_cell_length_a 17.380918
_cell_length_b 17.380918
_cell_length_c 16.186794
_cell_angle_alpha 90.000000
_cell_angle_beta 90.000000
_cell_angle_gamma 90.000000
_cell_volume 4889.970747
_symmetry_space_group_name_H-M "I 41 2 2"
_symmetry_group_IT_number 98
_symmetry_cell_setting 'tetragonal'
loop_
_space_group_symop_operation_xyz
x,y,z
-y,1/2+x,1/4+z
-x,-y,z
y,1/2-x,1/4+z
x,1/2-y,1/4-z
-x,1/2+y,1/4-z
y,x,-z
-y,-x,-z
1/2+x,1/2+y,1/2+z
1/2-y,x,3/4+z
1/2-x,1/2-y,1/2+z
1/2+y,-x,3/4+z
1/2+x,-y,3/4-z
1/2-x,y,3/4-z
1/2+y,1/2+x,1/2-z
1/2-y,1/2-x,1/2-z
loop_
_atom_site_type_symbol
_atom_site_label
_atom_site_fract_x
_atom_site_fract_y
_atom_site_fract_z
Si Si1 0.580656 0.033687 0.976115
Si Si2 0.181572 0.393322 0.434992
Si Si3 0.801778 0.601898 0.189200
Si Si4 0.698568 0.198568 0.250000
Si Si5 0.146599 0.931684 0.074327
Si Si6 0.638987 0.191201 0.424940
O O1 0.565774 0.099122 0.908661
O O2 0.500000 0.000000 0.012680
O O3 0.621211 0.961889 0.933130
O O4 0.636674 0.068742 0.046123
O O5 0.250000 0.420198 0.375000
O O6 0.216537 0.376750 0.526280
O O7 0.140806 0.315365 0.400786
O O8 0.866970 0.633031 0.250000
O O9 0.810688 0.511613 0.187905
O O10 0.653670 0.167635 0.330099
O O11 0.679583 0.288430 0.235216
O O12 0.217120 0.872916 0.074778
O O13 0.088735 0.911266 0.000000
#
# Coordination Sequence:
#
# PCOD8306248 Si02
#       6
#    16  16  16   8  16  16
#     4  12  24  36  55  90 125 160 196 237 297 367
#     4  10  20  34  54  81 118 153 190 234 293 351
#     4  10  20  34  51  81 114 157 188 236 291 355
#     4  10  22  40  59  88 119 156 204 246 306 346
#     4  12  22  31  53  88 131 157 190 232 301 366
#     4  11  22  38  59  87 120 158 197 249 292 368
#
# _framework density 17.996017999999999
#
# number of rings (size 3 to 8) (size 9 to 14) (size 15 to 20)
#    0.000    1.091    6.364    2.182    0.000    0.000 
#    0.000    0.455    0.000    0.000   52.000    0.000 
#    0.000    0.000    0.000    0.000    0.000    0.000 
#
# Total GULP energy -545366.142485 kJ/mol
# GULP energy per Si atom -12394.685056 kJ/mol
# Density = 1.795506 g / cm^3
# Si number density = 17.996018 Si / 1000 Ang^3
#
#
#
# Elastic Constant Matrix: (Units=GPa)
#
#
# Indices 1 2 3 4 5 6 
#
# 1 73.3868 31.7043 35.5131 0.0000 0.0000 0.0000
# 2 31.7043 73.3878 35.5124 0.0000 0.0000 0.0000
# 3 35.5131 35.5124 84.1807 0.0000 0.0000 0.0000
# 4 0.0000 0.0000 0.0000 27.3047 0.0000 0.0000
# 5 0.0000 0.0000 0.0000 0.0000 27.3047 0.0000
# 6 0.0000 0.0000 0.0000 0.0000 0.0000 30.7553
#
#
#
# Elastic Compliance Matrix: (Units=1/GPa)
#
#
# Indices 1 2 3 4 5 6 
#
# 1 0.018651 -0.005340 -0.005615 0.000000 0.000000 0.000000
# 2 -0.005340 0.018650 -0.005615 0.000000 0.000000 0.000000
# 3 -0.005615 -0.005615 0.016617 0.000000 0.000000 0.000000
# 4 0.000000 0.000000 0.000000 0.036624 0.000000 0.000000
# 5 0.000000 0.000000 0.000000 0.000000 0.036624 0.000000
# 6 0.000000 0.000000 0.000000 0.000000 0.000000 0.032515
#
#
# Mechanical properties :
#
#
# Convention : Reuss Voigt Hill
#
# Bulk Modulus (GPa) = 48.12995 48.49053 48.31024
# Shear Modulus (GPa) = 25.03169 25.62131 25.32650
#
# Velocity S-wave (km/s) = 3.73360 3.77732 3.75552
# Velocity P-wave (km/s) = 6.73715 6.78438 6.76081
#
# Compressibility (1/GPa) = 0.02077708
#
# Stress axis : x y z
#
# Youngs Moduli (GPa) = 53.61695 53.61846 60.17973
#
# Poissons Ratio (x) = 0.28633 0.33793
# Poissons Ratio (y) = 0.28632 0.33791
# Poissons Ratio (z) = 0.30108 0.30107
#
# Static dielectric constant tensor:
#      x y z
#    x 3.373180 0.000000 0.000000 
#    y 0.000000 3.373180 0.000000 
#    z 0.000000 0.000000 3.394250 
# 
# 
# High freq. dielectric constant tensor:
#      x y z
#    x 1.692020 0.000000 0.000000 
#    y 0.000000 1.692020 0.000000 
#    z 0.000000 0.000000 1.679320 
# 
# From -- ./inp_files/6546.got.cif
#   From: 2010.03.12/outbox.cif.g09.slc.cpg/sg98_4_cif.got.tgz:6546.got - 2010.04.08 21:04:41.
