data_PCOD8306808
_publ_section_title
;
Structure prediction by ZEFSAII (Michael W. Deem and Ramdas Pophale) SiO2 
 PCOD8306808
Probable space group: P 42 C M
;
_chemical_formula_sum "Si O2"
_cell_formula_units_Z 64
_cell_length_a 14.284324
_cell_length_b 14.284324
_cell_length_c 20.522457
_cell_angle_alpha 90.000000
_cell_angle_beta 90.000000
_cell_angle_gamma 90.000000
_cell_volume 4187.441368
_symmetry_space_group_name_H-M "P 42 C M"
_symmetry_group_IT_number 101
_symmetry_cell_setting 'tetragonal'
loop_
_space_group_symop_operation_xyz
x,y,z
-y,x,1/2+z
-x,-y,z
y,-x,1/2+z
-x,y,1/2+z
x,-y,1/2+z
-y,-x,z
y,x,z
loop_
_atom_site_type_symbol
_atom_site_label
_atom_site_fract_x
_atom_site_fract_y
_atom_site_fract_z
Si Si1 0.847500 0.505044 0.942160
Si Si2 0.652499 0.994957 0.586851
Si Si3 0.254757 0.597247 0.837328
Si Si4 0.254757 0.402752 0.191683
Si Si5 0.652499 0.994957 0.942160
Si Si6 0.902751 0.754755 0.337327
Si Si7 0.097249 0.754755 0.691683
Si Si8 0.152499 0.494956 0.586851
O O1 0.766622 0.485132 0.889007
O O2 0.892805 0.607195 0.928610
O O3 0.928669 0.428670 0.937484
O O4 0.802668 0.500000 0.014505
O O5 0.697331 0.000000 0.514505
O O6 0.733376 0.014869 0.640004
O O7 0.571330 0.071330 0.591527
O O8 0.607196 0.892804 0.600401
O O9 0.353940 0.646061 0.854321
O O10 0.258139 0.554033 0.764506
O O11 0.174466 0.674463 0.840825
O O12 0.353939 0.353939 0.174690
O O13 0.174465 0.325536 0.188186
O O14 0.233377 0.485132 0.140004
O O15 0.733376 0.014869 0.889006
O O16 0.853937 0.853937 0.354320
O O17 0.945965 0.758137 0.264505
O O18 0.146063 0.853938 0.674690
#
# Coordination Sequence:
#
# PCOD8306808 Si02
#       8
#     8   8   8   8   8   8   8   8
#     4   8  13  20  29  42  62  88 115 141 170 205
#     4   8  13  20  29  42  62  88 115 141 170 205
#     4   8  13  20  29  42  62  88 115 141 170 205
#     4   8  13  20  29  42  62  88 115 141 170 205
#     4   8  13  20  29  42  62  88 115 141 170 205
#     4   8  13  20  29  42  62  88 115 141 170 205
#     4   8  13  20  29  42  62  88 115 141 170 205
#     4   8  13  20  29  42  62  88 115 141 170 205
#
# _framework density 15.283796000000001
#
# number of rings (size 3 to 8) (size 9 to 14) (size 15 to 20)
#    0.000    4.000    0.000    3.000    0.000    1.000 
#    0.000    5.000    0.000    0.000    0.000    0.000 
#    0.000    3.000    0.000   25.000    0.000   29.000 
#
# Total GULP energy -792865.789457 kJ/mol
# GULP energy per Si atom -12388.527960 kJ/mol
# Density = 1.524901 g / cm^3
# Si number density = 15.283796 Si / 1000 Ang^3
#
#
#
# Elastic Constant Matrix: (Units=GPa)
#
#
# Indices 1 2 3 4 5 6 
#
# 1 35.3818 29.7376 55.6616 0.0000 0.0000 0.0000
# 2 29.7376 35.3818 55.6616 0.0000 0.0000 0.0000
# 3 55.6616 55.6616 155.9303 0.0000 0.0000 0.0000
# 4 0.0000 0.0000 0.0000 4.0061 0.0000 0.0000
# 5 0.0000 0.0000 0.0000 0.0000 4.0061 0.0000
# 6 0.0000 0.0000 0.0000 0.0000 0.0000 12.1446
#
#
#
# Elastic Compliance Matrix: (Units=1/GPa)
#
#
# Indices 1 2 3 4 5 6 
#
# 1 0.108286 -0.068886 -0.014064 0.000000 0.000000 0.000000
# 2 -0.068886 0.108286 -0.014064 0.000000 0.000000 0.000000
# 3 -0.014064 -0.014064 0.016454 0.000000 0.000000 0.000000
# 4 0.000000 0.000000 0.000000 0.249621 0.000000 0.000000
# 5 0.000000 0.000000 0.000000 0.000000 0.249621 0.000000
# 6 0.000000 0.000000 0.000000 0.000000 0.000000 0.082341
#
#
# Mechanical properties :
#
#
# Convention : Reuss Voigt Hill
#
# Bulk Modulus (GPa) = 25.64362 56.53506 41.08934
# Shear Modulus (GPa) = 4.89410 9.74023 7.31717
#
# Velocity S-wave (km/s) = 1.79140 2.52720 2.19042
# Velocity P-wave (km/s) = 4.59277 6.75175 5.77407
#
# Compressibility (1/GPa) = 0.03899606
#
# Stress axis : x y z
#
# Youngs Moduli (GPa) = 9.23482 9.23482 60.77565
#
# Poissons Ratio (x) = 0.63615 0.85476
# Poissons Ratio (y) = 0.63615 0.85476
# Poissons Ratio (z) = 0.12988 0.12988
#
# Static dielectric constant tensor:
#      x y z
#    x 2.698980 0.000000 0.000000 
#    y 0.000000 2.698980 0.000000 
#    z 0.000000 0.000000 3.340410 
# 
# 
# High freq. dielectric constant tensor:
#      x y z
#    x 1.532070 0.000000 0.000000 
#    y 0.000000 1.532070 0.000000 
#    z 0.000000 0.000000 1.600160 
# 
# From -- ./inp_files/2280.got.cif
#   From: 2010.03.12/outbox.cif.g09.slc.cpg/sg101_2_cif.got.tgz:2280.got - 2010.04.14 01:38:52.
