data_PCOD8306469
_publ_section_title
;
Structure prediction by ZEFSAII (Michael W. Deem and Ramdas Pophale) SiO2 
 PCOD8306469
Probable space group: P 4 M M
;
_chemical_formula_sum "Si O2"
_cell_formula_units_Z 64
_cell_length_a 13.793081
_cell_length_b 13.793081
_cell_length_c 20.434305
_cell_angle_alpha 90.000000
_cell_angle_beta 90.000000
_cell_angle_gamma 90.000000
_cell_volume 3887.607798
_symmetry_space_group_name_H-M "P 4 M M"
_symmetry_group_IT_number 99
_symmetry_cell_setting 'tetragonal'
loop_
_space_group_symop_operation_xyz
x,y,z
-y,x,z
-x,-y,z
y,-x,z
-x,y,z
x,-y,z
-y,-x,z
y,x,z
loop_
_atom_site_type_symbol
_atom_site_label
_atom_site_fract_x
_atom_site_fract_y
_atom_site_fract_z
Si Si1 0.265058 0.110508 0.012530
Si Si2 0.111122 0.612960 0.642229
Si Si3 0.889492 0.265060 0.520789
Si Si4 0.886644 0.728566 0.160334
Si Si5 0.775248 0.384777 0.266660
Si Si6 0.886644 0.271435 0.372986
Si Si7 0.387040 0.888879 0.891090
Si Si8 0.768345 0.614583 0.766660
O O1 0.164712 0.164712 0.003070
O O2 0.307040 0.126040 0.085503
O O3 0.239464 0.000000 0.999653
O O4 0.341389 0.148631 0.959028
O O5 0.125248 0.500000 0.633302
O O6 0.148630 0.658610 0.574291
O O7 0.173548 0.651069 0.703049
O O8 0.000000 0.639898 0.656876
O O9 0.835287 0.164714 0.530248
O O10 0.873960 0.307043 0.447816
O O11 0.000000 0.239464 0.533666
O O12 0.830590 0.830590 0.172712
O O13 0.838873 0.644118 0.203530
O O14 0.000000 0.743630 0.178273
O O15 0.755209 0.500000 0.266659
O O16 0.672318 0.327683 0.266661
O O17 0.838876 0.355884 0.329789
O O18 0.830588 0.169413 0.360608
O O19 0.000000 0.256369 0.355046
O O20 0.500000 0.874753 0.900019
O O21 0.348932 0.826452 0.830271
O O22 0.360102 0.000000 0.876443
O O23 0.753970 0.500000 0.766660
O O24 0.662820 0.662820 0.766660
#
# Coordination Sequence:
#
# PCOD8306469 Si02
#       8
#     8   8   8   8   8   8   8   8
#     4   9  17  29  45  66  93 122 150 180 213 254
#     4   9  17  29  45  65  87 111 143 183 223 261
#     4   9  17  29  45  66  93 122 150 180 213 254
#     4   9  18  31  47  70  98 126 156 187 221 264
#     4  10  21  36  52  70  92 118 151 192 234 276
#     4   9  18  31  47  70  98 126 156 187 221 264
#     4   9  17  29  45  65  87 111 143 183 223 261
#     4  10  19  30  45  63  84 112 143 177 220 267
#
# _framework density 16.462567
#
# number of rings (size 3 to 8) (size 9 to 14) (size 15 to 20)
#    0.000    2.750    0.000    1.500    0.000    4.250 
#    0.000    5.000    0.000    2.250    0.000    0.000 
#    0.000   15.000    0.000    0.000    0.000    0.000 
#
# Total GULP energy -793386.001823 kJ/mol
# GULP energy per Si atom -12396.656278 kJ/mol
# Density = 1.642510 g / cm^3
# Si number density = 16.462567 Si / 1000 Ang^3
#
#
#
# Elastic Constant Matrix: (Units=GPa)
#
#
# Indices 1 2 3 4 5 6 
#
# 1 83.3357 46.8081 56.7723 0.0000 0.0000 -0.0001
# 2 46.8081 83.3357 56.7723 0.0000 0.0000 0.0001
# 3 56.7723 56.7723 132.7191 0.0000 0.0000 0.0000
# 4 0.0000 0.0000 0.0000 25.7867 0.0000 0.0000
# 5 0.0000 0.0000 0.0000 0.0000 25.7867 0.0000
# 6 -0.0001 0.0001 0.0000 0.0000 0.0000 22.0214
#
#
#
# Elastic Compliance Matrix: (Units=1/GPa)
#
#
# Indices 1 2 3 4 5 6 
#
# 1 0.019818 -0.007559 -0.005244 0.000000 0.000000 0.000000
# 2 -0.007559 0.019818 -0.005244 0.000000 0.000000 0.000000
# 3 -0.005244 -0.005244 0.012021 0.000000 0.000000 0.000000
# 4 0.000000 0.000000 0.000000 0.038780 0.000000 0.000000
# 5 0.000000 0.000000 0.000000 0.000000 0.038780 0.000000
# 6 0.000000 0.000000 0.000000 0.000000 0.000000 0.045410
#
#
# Mechanical properties :
#
#
# Convention : Reuss Voigt Hill
#
# Bulk Modulus (GPa) = 64.25430 68.89959 66.57695
# Shear Modulus (GPa) = 23.15813 23.98817 23.57315
#
# Velocity S-wave (km/s) = 3.75469 3.82138 3.78818
# Velocity P-wave (km/s) = 7.61001 7.83669 7.72418
#
# Compressibility (1/GPa) = 0.01556316
#
# Stress axis : x y z
#
# Youngs Moduli (GPa) = 50.45993 50.45993 83.18781
#
# Poissons Ratio (x) = 0.38142 0.43623
# Poissons Ratio (y) = 0.38142 0.43623
# Poissons Ratio (z) = 0.26461 0.26461
#
# Static dielectric constant tensor:
#      x y z
#    x 2.968360 0.000000 0.000000 
#    y 0.000000 2.968360 0.000000 
#    z 0.000000 0.000000 3.475820 
# 
# 
# High freq. dielectric constant tensor:
#      x y z
#    x 1.619720 0.000000 0.000000 
#    y 0.000000 1.619720 0.000000 
#    z 0.000000 0.000000 1.653130 
# 
# From -- ./inp_files/2299.got.cif
#   From: 2010.03.12/outbox.cif.g09.slc.cpg/sg99_cif.got.tgz:2299.got - 2010.04.08 21:11:30.
