data_PCOD8306878
_publ_section_title
;
Structure prediction by ZEFSAII (Michael W. Deem and Ramdas Pophale) SiO2 
 PCOD8306878
Probable space group: P 42 N M
;
_chemical_formula_sum "Si O2"
_cell_formula_units_Z 48
_cell_length_a 12.448425
_cell_length_b 12.448425
_cell_length_c 17.402975
_cell_angle_alpha 90.000000
_cell_angle_beta 90.000000
_cell_angle_gamma 90.000000
_cell_volume 2696.822174
_symmetry_space_group_name_H-M "P 42 N M"
_symmetry_group_IT_number 102
_symmetry_cell_setting 'tetragonal'
loop_
_space_group_symop_operation_xyz
x,y,z
1/2-y,1/2+x,1/2+z
-x,-y,z
1/2+y,1/2-x,1/2+z
1/2-x,1/2+y,1/2+z
1/2+x,1/2-y,1/2+z
-y,-x,z
y,x,z
loop_
_atom_site_type_symbol
_atom_site_label
_atom_site_fract_x
_atom_site_fract_y
_atom_site_fract_z
Si Si1 0.103056 0.427219 0.623730
Si Si2 0.124265 0.301209 0.774020
Si Si3 0.691001 0.860125 0.471129
Si Si4 0.295249 0.017813 0.325049
Si Si5 0.769965 0.599040 0.328811
Si Si6 0.326382 0.501928 0.676289
O O1 0.108376 0.331212 0.685118
O O2 0.088300 0.374960 0.540239
O O3 0.213858 0.495635 0.629970
O O4 0.000000 0.500000 0.640274
O O5 0.227946 0.227946 0.783903
O O6 0.136825 0.408336 0.825334
O O7 0.021133 0.237821 0.805733
O O8 0.791213 0.791213 0.503086
O O9 0.611777 0.782907 0.421349
O O10 0.737001 0.953023 0.413155
O O11 0.367570 0.115659 0.290211
O O12 0.193555 0.004519 0.268470
O O13 0.677083 0.677083 0.297316
O O14 0.391199 0.608802 0.651264
O O15 0.396397 0.396397 0.657313
#
# Coordination Sequence:
#
# PCOD8306878 Si02
#       6
#     8   8   8   8   8   8
#     4  11  22  34  55  83 109 149 183 226 271 322
#     4  11  21  34  55  81 114 142 182 232 270 326
#     4   9  19  34  56  79 108 140 179 228 275 328
#     4   9  17  32  56  79 105 139 180 227 267 318
#     4   9  19  34  56  79 105 144 182 226 269 321
#     4  10  19  34  57  83 111 140 180 232 278 322
#
# _framework density 17.798725000000001
#
# number of rings (size 3 to 8) (size 9 to 14) (size 15 to 20)
#    1.000    1.167    0.000    6.500    2.333    0.333 
#    0.000    0.833    0.000    3.000    0.000    0.000 
#    0.000    0.000    0.000    0.000    0.000    0.000 
#
# Total GULP energy -594789.316571 kJ/mol
# GULP energy per Si atom -12391.444095 kJ/mol
# Density = 1.775821 g / cm^3
# Si number density = 17.798725 Si / 1000 Ang^3
#
#
#
# Elastic Constant Matrix: (Units=GPa)
#
#
# Indices 1 2 3 4 5 6 
#
# 1 107.4173 49.1254 27.6858 0.0000 0.0000 -0.0001
# 2 49.1254 107.4173 27.6858 0.0000 0.0000 0.0001
# 3 27.6858 27.6858 68.8221 0.0000 0.0000 0.0000
# 4 0.0000 0.0000 0.0000 18.7111 0.0000 0.0000
# 5 0.0000 0.0000 0.0000 0.0000 18.7111 0.0000
# 6 -0.0001 0.0001 0.0000 0.0000 0.0000 21.9163
#
#
#
# Elastic Compliance Matrix: (Units=1/GPa)
#
#
# Indices 1 2 3 4 5 6 
#
# 1 0.012301 -0.004854 -0.002996 0.000000 0.000000 0.000000
# 2 -0.004854 0.012301 -0.002996 0.000000 0.000000 0.000000
# 3 -0.002996 -0.002996 0.016941 0.000000 0.000000 0.000000
# 4 0.000000 0.000000 0.000000 0.053444 0.000000 0.000000
# 5 0.000000 0.000000 0.000000 0.000000 0.053444 0.000000
# 6 0.000000 0.000000 0.000000 0.000000 0.000000 0.045628
#
#
# Mechanical properties :
#
#
# Convention : Reuss Voigt Hill
#
# Bulk Modulus (GPa) = 50.37293 54.73899 52.55596
# Shear Modulus (GPa) = 22.48516 23.81170 23.14843
#
# Velocity S-wave (km/s) = 3.55815 3.66161 3.61025
# Velocity P-wave (km/s) = 6.72633 6.97837 6.85351
#
# Compressibility (1/GPa) = 0.01985193
#
# Stress axis : x y z
#
# Youngs Moduli (GPa) = 81.29144 81.29144 59.02918
#
# Poissons Ratio (x) = 0.39456 0.17686
# Poissons Ratio (y) = 0.39456 0.17686
# Poissons Ratio (z) = 0.24356 0.24356
#
# Static dielectric constant tensor:
#      x y z
#    x 3.195010 0.000000 0.000000 
#    y 0.000000 3.195010 0.000000 
#    z 0.000000 0.000000 3.043630 
# 
# 
# High freq. dielectric constant tensor:
#      x y z
#    x 1.681620 0.000000 0.000000 
#    y 0.000000 1.681620 0.000000 
#    z 0.000000 0.000000 1.666500 
# 
# From -- ./inp_files/2728.got.cif
#   From: 2010.03.12/outbox.cif.g09.slc.cpg/sg102_2_cif.got.tgz:2728.got - 2010.04.14 01:40:42.
