data_PCOD8306328
_publ_section_title
;
Structure prediction by ZEFSAII (Michael W. Deem and Ramdas Pophale) SiO2 
 PCOD8306328
Probable space group: I 41 2 2
;
_chemical_formula_sum "Si O2"
_cell_formula_units_Z 80
_cell_length_a 11.267130
_cell_length_b 11.267130
_cell_length_c 29.814615
_cell_angle_alpha 90.000000
_cell_angle_beta 90.000000
_cell_angle_gamma 90.000000
_cell_volume 3784.912258
_symmetry_space_group_name_H-M "I 41 2 2"
_symmetry_group_IT_number 98
_symmetry_cell_setting 'tetragonal'
loop_
_space_group_symop_operation_xyz
x,y,z
-y,1/2+x,1/4+z
-x,-y,z
y,1/2-x,1/4+z
x,1/2-y,1/4-z
-x,1/2+y,1/4-z
y,x,-z
-y,-x,-z
1/2+x,1/2+y,1/2+z
1/2-y,x,3/4+z
1/2-x,1/2-y,1/2+z
1/2+y,-x,3/4+z
1/2+x,-y,3/4-z
1/2-x,y,3/4-z
1/2+y,1/2+x,1/2-z
1/2-y,1/2-x,1/2-z
loop_
_atom_site_type_symbol
_atom_site_label
_atom_site_fract_x
_atom_site_fract_y
_atom_site_fract_z
Si Si1 0.855435 0.644565 0.250000
Si Si2 0.829864 0.483225 0.782769
Si Si3 0.291259 0.230892 0.323904
Si Si4 0.364928 0.000578 0.538368
Si Si5 0.869297 0.130704 0.000000
Si Si6 0.754748 0.226552 0.175467
O O1 0.818511 0.726770 0.292509
O O2 0.839012 0.505751 0.261190
O O3 0.935428 0.435428 0.750000
O O4 0.857737 0.609700 0.806399
O O5 0.708989 0.509226 0.756996
O O6 0.807256 0.383434 0.820009
O O7 0.250000 0.212846 0.375000
O O8 0.390323 0.333524 0.321457
O O9 0.500000 0.000000 0.523571
O O10 0.341425 0.879443 0.563190
O O11 0.787011 0.163457 0.042437
O O12 0.785004 0.250000 0.125000
#
# Coordination Sequence:
#
# PCOD8306328 Si02
#       6
#     8  16  16  16   8  16
#     4  11  26  44  69  94 142 182 225 292 344 427
#     4  10  22  45  71  97 137 183 230 286 357 414
#     4  12  26  44  70 105 138 181 241 290 354 423
#     4  11  23  42  68  96 133 182 223 283 351 416
#     4  11  24  46  68  97 134 184 228 277 360 418
#     4  11  24  42  68  98 133 171 229 286 344 417
#
# _framework density 21.136552999999999
#
# number of rings (size 3 to 8) (size 9 to 14) (size 15 to 20)
#    0.000    1.000    5.000    1.800    2.800    8.800 
#    0.000    0.000    0.000    0.000    0.000    0.000 
#    0.000    0.000    0.000    0.000    0.000    0.000 
#
# Total GULP energy -495868.927232 kJ/mol
# GULP energy per Si atom -12396.723181 kJ/mol
# Density = 2.108844 g / cm^3
# Si number density = 21.136553 Si / 1000 Ang^3
#
#
#
# Elastic Constant Matrix: (Units=GPa)
#
#
# Indices 1 2 3 4 5 6 
#
# 1 120.0890 36.3681 29.4148 0.0000 0.0000 0.0000
# 2 36.3681 120.0885 29.4149 0.0000 0.0000 0.0000
# 3 29.4148 29.4149 132.2487 0.0000 0.0000 0.0000
# 4 0.0000 0.0000 0.0000 12.5320 0.0000 0.0000
# 5 0.0000 0.0000 0.0000 0.0000 12.5322 0.0000
# 6 0.0000 0.0000 0.0000 0.0000 0.0000 8.5405
#
#
#
# Elastic Compliance Matrix: (Units=1/GPa)
#
#
# Indices 1 2 3 4 5 6 
#
# 1 0.009460 -0.002485 -0.001551 0.000000 0.000000 0.000000
# 2 -0.002485 0.009460 -0.001551 0.000000 0.000000 0.000000
# 3 -0.001551 -0.001551 0.008252 0.000000 0.000000 0.000000
# 4 0.000000 0.000000 0.000000 0.079795 0.000000 0.000000
# 5 0.000000 0.000000 0.000000 0.000000 0.079794 0.000000
# 6 0.000000 0.000000 0.000000 0.000000 0.000000 0.117090
#
#
# Mechanical properties :
#
#
# Convention : Reuss Voigt Hill
#
# Bulk Modulus (GPa) = 62.51592 62.53578 62.52585
# Shear Modulus (GPa) = 15.60756 25.20283 20.40520
#
# Velocity S-wave (km/s) = 2.72033 3.45683 3.11046
# Velocity P-wave (km/s) = 6.28556 6.75157 6.52273
#
# Compressibility (1/GPa) = 0.01599593
#
# Stress axis : x y z
#
# Youngs Moduli (GPa) = 105.71211 105.71161 121.18833
#
# Poissons Ratio (x) = 0.26267 0.18801
# Poissons Ratio (y) = 0.26267 0.18801
# Poissons Ratio (z) = 0.16400 0.16400
#
# Static dielectric constant tensor:
#      x y z
#    x 4.040020 0.000000 0.000000 
#    y 0.000000 4.040060 0.000000 
#    z 0.000000 0.000000 3.664240 
# 
# 
# High freq. dielectric constant tensor:
#      x y z
#    x 1.844660 0.000000 0.000000 
#    y 0.000000 1.844660 0.000000 
#    z 0.000000 0.000000 1.807300 
# 
# From -- ./inp_files/11867.got.cif
#   From: 2010.03.12/outbox.cif.g09.slc.cpg/sg98_6_cif.got.tgz:11867.got - 2010.04.08 21:04:41.
