data_PCOD8306503
_publ_section_title
;
Structure prediction by ZEFSAII (Michael W. Deem and Ramdas Pophale) SiO2 
 PCOD8306503
Probable space group: P 4 M M
;
_chemical_formula_sum "Si O2"
_cell_formula_units_Z 40
_cell_length_a 13.547891
_cell_length_b 13.547891
_cell_length_c 12.816727
_cell_angle_alpha 90.000000
_cell_angle_beta 90.000000
_cell_angle_gamma 90.000000
_cell_volume 2352.450650
_symmetry_space_group_name_H-M "P 4 M M"
_symmetry_group_IT_number 99
_symmetry_cell_setting 'tetragonal'
loop_
_space_group_symop_operation_xyz
x,y,z
-y,x,z
-x,-y,z
y,-x,z
-x,y,z
x,-y,z
-y,-x,z
y,x,z
loop_
_atom_site_type_symbol
_atom_site_label
_atom_site_fract_x
_atom_site_fract_y
_atom_site_fract_z
Si Si1 0.112300 0.385935 0.227610
Si Si2 0.276011 0.116112 0.613149
Si Si3 0.615584 0.775704 0.436835
Si Si4 0.609908 0.883024 0.818535
Si Si5 0.726870 0.884139 0.020037
O O1 0.121663 0.500000 0.197594
O O2 0.182169 0.357900 0.323367
O O3 0.146686 0.324971 0.127412
O O4 0.000000 0.359831 0.258553
O O5 0.172326 0.172326 0.598196
O O6 0.351562 0.142950 0.520953
O O7 0.324982 0.151914 0.720945
O O8 0.253938 0.000000 0.611534
O O9 0.500000 0.754479 0.449273
O O10 0.673340 0.673340 0.454297
O O11 0.500000 0.837242 0.810017
O O12 0.602364 0.000000 0.818928
O O13 0.659127 0.845629 0.925347
O O14 0.832989 0.832989 0.013607
O O15 0.745751 0.000000 0.012026
#
# Coordination Sequence:
#
# PCOD8306503 Si02
#       5
#     8   8   8   8   8
#     4   9  17  30  49  71  93 119 154 197 243 287
#     4  10  20  33  50  73 100 129 161 196 236 285
#     4  10  20  33  50  72  97 126 161 201 245 291
#     4   9  17  30  48  68  90 118 154 195 235 273
#     4  10  19  30  45  66  94 126 158 193 234 282
#
# _framework density 17.003544000000002
#
# number of rings (size 3 to 8) (size 9 to 14) (size 15 to 20)
#    0.000    2.400    0.000    3.000    0.000    5.000 
#    0.000    0.000    0.000    3.600    0.000    2.800 
#    0.000   16.400    0.000    0.000    0.000    0.000 
#
# Total GULP energy -496052.555871 kJ/mol
# GULP energy per Si atom -12401.313897 kJ/mol
# Density = 1.696484 g / cm^3
# Si number density = 17.003544 Si / 1000 Ang^3
#
#
#
# Elastic Constant Matrix: (Units=GPa)
#
#
# Indices 1 2 3 4 5 6 
#
# 1 80.7787 43.6048 46.0661 0.0000 0.0000 0.0000
# 2 43.6048 80.7787 46.0661 0.0000 0.0000 0.0000
# 3 46.0661 46.0661 119.6821 0.0000 0.0000 0.0000
# 4 0.0000 0.0000 0.0000 23.8653 0.0000 0.0000
# 5 0.0000 0.0000 0.0000 0.0000 23.8653 0.0000
# 6 0.0000 0.0000 0.0000 0.0000 0.0000 18.6521
#
#
#
# Elastic Compliance Matrix: (Units=1/GPa)
#
#
# Indices 1 2 3 4 5 6 
#
# 1 0.019073 -0.007827 -0.004329 0.000000 0.000000 0.000000
# 2 -0.007827 0.019073 -0.004329 0.000000 0.000000 0.000000
# 3 -0.004329 -0.004329 0.011688 0.000000 0.000000 0.000000
# 4 0.000000 0.000000 0.000000 0.041902 0.000000 0.000000
# 5 0.000000 0.000000 0.000000 0.000000 0.041902 0.000000
# 6 0.000000 0.000000 0.000000 0.000000 0.000000 0.053613
#
#
# Mechanical properties :
#
#
# Convention : Reuss Voigt Hill
#
# Bulk Modulus (GPa) = 59.29415 61.41263 60.35339
# Shear Modulus (GPa) = 22.13938 22.97669 22.55804
#
# Velocity S-wave (km/s) = 3.61230 3.67998 3.64630
# Velocity P-wave (km/s) = 7.23503 7.36561 7.30061
#
# Compressibility (1/GPa) = 0.01686507
#
# Stress axis : x y z
#
# Youngs Moduli (GPa) = 52.42948 52.42948 85.56040
#
# Poissons Ratio (x) = 0.41038 0.37036
# Poissons Ratio (y) = 0.41038 0.37036
# Poissons Ratio (z) = 0.22695 0.22695
#
# Static dielectric constant tensor:
#      x y z
#    x 3.012560 0.000000 0.000000 
#    y 0.000000 3.012560 0.000000 
#    z 0.000000 0.000000 3.373490 
# 
# 
# High freq. dielectric constant tensor:
#      x y z
#    x 1.642430 0.000000 0.000000 
#    y 0.000000 1.642430 0.000000 
#    z 0.000000 0.000000 1.674830 
# 
# From -- ./inp_files/1288.got.cif
#   From: 2010.03.12/outbox.cif.g09.slc.cpg/sg99_cif.got.tgz:1288.got - 2010.04.08 21:11:30.
