data_PCOD8306767
_publ_section_title
;
Structure prediction by ZEFSAII (Michael W. Deem and Ramdas Pophale) SiO2 
 PCOD8306767
Probable space group: P 42 C M
;
_chemical_formula_sum "Si O2"
_cell_formula_units_Z 48
_cell_length_a 13.703056
_cell_length_b 13.703056
_cell_length_c 13.816073
_cell_angle_alpha 90.000000
_cell_angle_beta 90.000000
_cell_angle_gamma 90.000000
_cell_volume 2594.295751
_symmetry_space_group_name_H-M "P 42 C M"
_symmetry_group_IT_number 101
_symmetry_cell_setting 'tetragonal'
loop_
_space_group_symop_operation_xyz
x,y,z
-y,x,1/2+z
-x,-y,z
y,-x,1/2+z
-x,y,1/2+z
x,-y,1/2+z
-y,-x,z
y,x,z
loop_
_atom_site_type_symbol
_atom_site_label
_atom_site_fract_x
_atom_site_fract_y
_atom_site_fract_z
Si Si1 0.275592 0.571396 0.871470
Si Si2 0.971436 0.389081 0.376769
Si Si3 0.018214 0.612774 0.158856
Si Si4 0.860959 0.702398 0.486946
Si Si5 0.618204 0.229681 0.470436
Si Si6 0.198128 0.354705 0.180124
O O1 0.382313 0.617688 0.851713
O O2 0.224241 0.627783 0.959446
O O3 0.285063 0.460590 0.904512
O O4 0.211424 0.574843 0.772883
O O5 0.882865 0.366337 0.447357
O O6 0.000000 0.500000 0.400677
O O7 0.936800 0.380643 0.266167
O O8 0.056223 0.310526 0.403623
O O9 0.915122 0.668669 0.162636
O O10 0.000000 0.500000 0.126857
O O11 0.092793 0.669388 0.089041
O O12 0.812166 0.812166 0.491194
O O13 0.721183 0.278818 0.447877
O O14 0.592358 0.241250 0.584562
O O15 0.252519 0.252519 0.201940
#
# Coordination Sequence:
#
# PCOD8306767 Si02
#       6
#     8   8   8   8   8   8
#     4  10  20  37  57  83 115 150 191 232 281 344
#     4  11  20  36  58  82 112 153 191 230 282 337
#     4  11  20  33  59  84 111 144 188 240 286 323
#     4  11  21  34  57  87 115 144 184 235 288 333
#     4  11  22  36  56  84 115 149 189 233 281 336
#     4  10  20  35  57  81 107 150 196 224 271 345
#
# _framework density 18.502130999999999
#
# number of rings (size 3 to 8) (size 9 to 14) (size 15 to 20)
#    0.000    1.333    5.000    2.500    0.000    1.000 
#    0.000    2.500    0.000    5.000    0.000    2.333 
#    0.000    0.000    0.000    0.000    0.000    0.000 
#
# Total GULP energy -594946.661621 kJ/mol
# GULP energy per Si atom -12394.722117 kJ/mol
# Density = 1.846002 g / cm^3
# Si number density = 18.502131 Si / 1000 Ang^3
#
#
#
# Elastic Constant Matrix: (Units=GPa)
#
#
# Indices 1 2 3 4 5 6 
#
# 1 83.7239 43.5591 40.3577 0.0000 0.0000 0.0001
# 2 43.5591 83.7239 40.3577 0.0000 0.0000 -0.0001
# 3 40.3577 40.3577 122.2998 0.0000 0.0000 0.0000
# 4 0.0000 0.0000 0.0000 27.5602 0.0000 0.0000
# 5 0.0000 0.0000 0.0000 0.0000 27.5602 0.0000
# 6 0.0001 -0.0001 0.0000 0.0000 0.0000 33.0834
#
#
#
# Elastic Compliance Matrix: (Units=1/GPa)
#
#
# Indices 1 2 3 4 5 6 
#
# 1 0.017417 -0.007481 -0.003279 0.000000 0.000000 0.000000
# 2 -0.007481 0.017417 -0.003279 0.000000 0.000000 0.000000
# 3 -0.003279 -0.003279 0.010340 0.000000 0.000000 0.000000
# 4 0.000000 0.000000 0.000000 0.036284 0.000000 0.000000
# 5 0.000000 0.000000 0.000000 0.000000 0.036284 0.000000
# 6 0.000000 0.000000 0.000000 0.000000 0.000000 0.030227
#
#
# Mechanical properties :
#
#
# Convention : Reuss Voigt Hill
#
# Bulk Modulus (GPa) = 58.48938 59.81073 59.15006
# Shear Modulus (GPa) = 27.51123 28.67231 28.09177
#
# Velocity S-wave (km/s) = 3.86025 3.94086 3.90076
# Velocity P-wave (km/s) = 7.17980 7.28723 7.23372
#
# Compressibility (1/GPa) = 0.01709712
#
# Stress axis : x y z
#
# Youngs Moduli (GPa) = 57.41670 57.41670 96.70739
#
# Poissons Ratio (x) = 0.42953 0.31707
# Poissons Ratio (y) = 0.42953 0.31707
# Poissons Ratio (z) = 0.18825 0.18825
#
# Static dielectric constant tensor:
#      x y z
#    x 3.343780 0.000000 0.000000 
#    y 0.000000 3.343780 0.000000 
#    z 0.000000 0.000000 3.675440 
# 
# 
# High freq. dielectric constant tensor:
#      x y z
#    x 1.695590 0.000000 0.000000 
#    y 0.000000 1.695590 0.000000 
#    z 0.000000 0.000000 1.741510 
# 
# From -- ./inp_files/1803.got.cif
#   From: 2010.03.12/outbox.cif.g09.slc.cpg/sg101_1_cif.got.tgz:1803.got - 2010.04.14 01:38:52.
