data_PCOD8306581
_publ_section_title
;
Structure prediction by ZEFSAII (Michael W. Deem and Ramdas Pophale) SiO2 
 PCOD8306581
Probable space group: P 4 M M
;
_chemical_formula_sum "Si O2"
_cell_formula_units_Z 48
_cell_length_a 13.709784
_cell_length_b 13.709784
_cell_length_c 15.418303
_cell_angle_alpha 90.000000
_cell_angle_beta 90.000000
_cell_angle_gamma 90.000000
_cell_volume 2897.996129
_symmetry_space_group_name_H-M "P 4 M M"
_symmetry_group_IT_number 99
_symmetry_cell_setting 'tetragonal'
loop_
_space_group_symop_operation_xyz
x,y,z
-y,x,z
-x,-y,z
y,-x,z
-x,y,z
x,-y,z
-y,-x,z
y,x,z
loop_
_atom_site_type_symbol
_atom_site_label
_atom_site_fract_x
_atom_site_fract_y
_atom_site_fract_z
Si Si1 0.115324 0.607808 0.019040
Si Si2 0.115601 0.274245 0.851131
Si Si3 0.270430 0.887314 0.180226
Si Si4 0.111832 0.268122 0.373258
Si Si5 0.226002 0.384525 0.706853
Si Si6 0.890160 0.614094 0.537365
O O1 0.161834 0.500000 0.007065
O O2 0.150959 0.650159 0.111344
O O3 0.000000 0.598330 0.017560
O O4 0.148709 0.679193 0.942300
O O5 0.171342 0.171342 0.839147
O O6 0.147019 0.351115 0.777695
O O7 0.000000 0.254934 0.845580
O O8 0.169850 0.830151 0.167142
O O9 0.313486 0.870516 0.277191
O O10 0.245130 0.000000 0.163216
O O11 0.166927 0.166927 0.384021
O O12 0.148500 0.342671 0.446559
O O13 0.000000 0.241896 0.387051
O O14 0.244423 0.500000 0.715213
O O15 0.328600 0.328600 0.719833
O O16 0.182078 0.354616 0.613894
O O17 0.889730 0.500000 0.524759
O O18 0.000000 0.650517 0.559022
#
# Coordination Sequence:
#
# PCOD8306581 Si02
#       6
#     8   8   8   8   8   8
#     4   9  17  29  45  64  87 116 149 185 223 263
#     4  10  20  33  50  72  97 125 156 189 227 274
#     4   9  17  28  42  62  88 118 151 186 226 272
#     4   9  17  28  42  61  87 118 150 185 224 269
#     4  10  20  33  50  71  94 122 156 194 236 280
#     4   9  17  29  46  67  89 115 149 188 231 279
#
# _framework density 16.56317
#
# number of rings (size 3 to 8) (size 9 to 14) (size 15 to 20)
#    0.000    2.667    0.000    2.000    0.000    3.000 
#    0.000    5.000    0.000    3.000    0.000    2.333 
#    0.000    3.000    0.000   12.333    0.000    1.333 
#
# Total GULP energy -595043.172365 kJ/mol
# GULP energy per Si atom -12396.732758 kJ/mol
# Density = 1.652547 g / cm^3
# Si number density = 16.563170 Si / 1000 Ang^3
#
#
#
# Elastic Constant Matrix: (Units=GPa)
#
#
# Indices 1 2 3 4 5 6 
#
# 1 70.4480 35.9930 44.0210 0.0000 0.0000 0.0002
# 2 35.9930 70.4480 44.0210 0.0000 0.0000 -0.0002
# 3 44.0210 44.0210 125.8332 0.0000 0.0000 0.0000
# 4 0.0000 0.0000 0.0000 24.8820 0.0000 0.0000
# 5 0.0000 0.0000 0.0000 0.0000 24.8820 0.0000
# 6 0.0002 -0.0002 0.0000 0.0000 0.0000 15.8784
#
#
#
# Elastic Compliance Matrix: (Units=1/GPa)
#
#
# Indices 1 2 3 4 5 6 
#
# 1 0.021122 -0.007902 -0.004625 0.000000 0.000000 0.000000
# 2 -0.007902 0.021122 -0.004625 0.000000 0.000000 0.000000
# 3 -0.004625 -0.004625 0.011183 0.000000 0.000000 0.000000
# 4 0.000000 0.000000 0.000000 0.040190 0.000000 0.000000
# 5 0.000000 0.000000 0.000000 0.000000 0.040190 0.000000
# 6 0.000000 0.000000 0.000000 0.000000 0.000000 0.062979
#
#
# Mechanical properties :
#
#
# Convention : Reuss Voigt Hill
#
# Bulk Modulus (GPa) = 52.29061 57.19991 54.74526
# Shear Modulus (GPa) = 21.05596 22.64141 21.84869
#
# Velocity S-wave (km/s) = 3.56933 3.70127 3.63590
# Velocity P-wave (km/s) = 6.97322 7.27154 7.12394
#
# Compressibility (1/GPa) = 0.01912389
#
# Stress axis : x y z
#
# Youngs Moduli (GPa) = 47.34419 47.34419 89.42145
#
# Poissons Ratio (x) = 0.37409 0.41357
# Poissons Ratio (y) = 0.37409 0.41357
# Poissons Ratio (z) = 0.21897 0.21897
#
# Static dielectric constant tensor:
#      x y z
#    x 2.982360 0.000000 0.000000 
#    y 0.000000 2.982360 0.000000 
#    z 0.000000 0.000000 3.445040 
# 
# 
# High freq. dielectric constant tensor:
#      x y z
#    x 1.620280 0.000000 0.000000 
#    y 0.000000 1.620280 0.000000 
#    z 0.000000 0.000000 1.657700 
# 
# From -- ./inp_files/1404.got.cif
#   From: 2010.03.12/outbox.cif.g09.slc.cpg/sg99_cif.got.tgz:1404.got - 2010.04.08 21:11:30.
