data_PCOD8306493
_publ_section_title
;
Structure prediction by ZEFSAII (Michael W. Deem and Ramdas Pophale) SiO2 
 PCOD8306493
Probable space group: P 4 M M
;
_chemical_formula_sum "Si O2"
_cell_formula_units_Z 64
_cell_length_a 13.466330
_cell_length_b 13.466330
_cell_length_c 20.496228
_cell_angle_alpha 90.000000
_cell_angle_beta 90.000000
_cell_angle_gamma 90.000000
_cell_volume 3716.827873
_symmetry_space_group_name_H-M "P 4 M M"
_symmetry_group_IT_number 99
_symmetry_cell_setting 'tetragonal'
loop_
_space_group_symop_operation_xyz
x,y,z
-y,x,z
-x,-y,z
y,-x,z
-x,y,z
x,-y,z
-y,-x,z
y,x,z
loop_
_atom_site_type_symbol
_atom_site_label
_atom_site_fract_x
_atom_site_fract_y
_atom_site_fract_z
Si Si1 0.883064 0.280185 0.453500
Si Si2 0.886873 0.728717 0.830844
Si Si3 0.383315 0.779477 0.571933
Si Si4 0.390584 0.118228 0.953385
Si Si5 0.616809 0.223067 0.338553
Si Si6 0.276872 0.884854 0.683846
Si Si7 0.615391 0.887817 0.207095
Si Si8 0.116573 0.728089 0.078387
O O1 0.824608 0.175393 0.453829
O O2 0.851579 0.346957 0.514675
O O3 0.858433 0.343250 0.389076
O O4 0.000000 0.257329 0.456226
O O5 0.833373 0.833373 0.837110
O O6 0.843570 0.653172 0.884500
O O7 0.873422 0.684323 0.758173
O O8 0.000000 0.752785 0.846724
O O9 0.500000 0.757625 0.565374
O O10 0.325615 0.674386 0.568765
O O11 0.362083 0.836462 0.639503
O O12 0.500000 0.163933 0.959463
O O13 0.395000 0.000000 0.954702
O O14 0.328076 0.157708 0.014628
O O15 0.500000 0.240004 0.349049
O O16 0.671895 0.328106 0.349640
O O17 0.642374 0.183344 0.266835
O O18 0.172517 0.827484 0.672733
O O19 0.259100 0.000000 0.665686
O O20 0.500000 0.884865 0.190963
O O21 0.669803 0.848748 0.142704
O O22 0.648650 0.000000 0.224611
O O23 0.162748 0.837253 0.080021
O O24 0.000000 0.741091 0.075563
#
# Coordination Sequence:
#
# PCOD8306493 Si02
#       8
#     8   8   8   8   8   8   8   8
#     4  10  21  36  54  77 103 130 162 198 237 285
#     4   9  17  29  45  67  96 126 155 188 226 273
#     4  10  21  36  53  74  99 127 162 203 245 290
#     4   9  17  29  44  62  85 114 150 191 231 269
#     4  10  20  33  50  73 100 130 165 204 244 286
#     4   9  18  31  47  70  99 130 164 199 236 282
#     4   9  17  30  49  71  93 120 156 196 237 280
#     4  10  19  30  45  65  91 121 151 186 228 277
#
# _framework density 17.218983999999999
#
# number of rings (size 3 to 8) (size 9 to 14) (size 15 to 20)
#    0.000    2.500    0.000    2.250    0.000    5.000 
#    0.000    2.500    0.000    6.750    0.000    1.750 
#    0.000   11.000    0.000    0.000    0.000    0.125 
#
# Total GULP energy -793529.281320 kJ/mol
# GULP energy per Si atom -12398.895021 kJ/mol
# Density = 1.717979 g / cm^3
# Si number density = 17.218984 Si / 1000 Ang^3
#
#
#
# Elastic Constant Matrix: (Units=GPa)
#
#
# Indices 1 2 3 4 5 6 
#
# 1 95.4904 49.6963 52.5182 0.0000 0.0000 0.0004
# 2 49.6963 95.4904 52.5182 0.0000 0.0000 -0.0004
# 3 52.5182 52.5182 123.9692 0.0000 0.0000 0.0000
# 4 0.0000 0.0000 0.0000 24.3292 0.0000 0.0000
# 5 0.0000 0.0000 0.0000 0.0000 24.3292 0.0000
# 6 0.0004 -0.0004 0.0000 0.0000 0.0000 16.0758
#
#
#
# Elastic Compliance Matrix: (Units=1/GPa)
#
#
# Indices 1 2 3 4 5 6 
#
# 1 0.015884 -0.005953 -0.004207 0.000000 0.000000 -0.000001
# 2 -0.005953 0.015884 -0.004207 0.000000 0.000000 0.000001
# 3 -0.004207 -0.004207 0.011631 0.000000 0.000000 0.000000
# 4 0.000000 0.000000 0.000000 0.041103 0.000000 0.000000
# 5 0.000000 0.000000 0.000000 0.000000 0.041103 0.000000
# 6 -0.000001 0.000001 0.000000 0.000000 0.000000 0.062205
#
#
# Mechanical properties :
#
#
# Convention : Reuss Voigt Hill
#
# Bulk Modulus (GPa) = 68.19011 69.37948 68.78480
# Shear Modulus (GPa) = 22.58012 23.62802 23.10407
#
# Velocity S-wave (km/s) = 3.62519 3.70835 3.66700
# Velocity P-wave (km/s) = 7.56375 7.66262 7.61334
#
# Compressibility (1/GPa) = 0.01466488
#
# Stress axis : x y z
#
# Youngs Moduli (GPa) = 62.95559 62.95559 85.97461
#
# Poissons Ratio (x) = 0.37475 0.36173
# Poissons Ratio (y) = 0.37475 0.36173
# Poissons Ratio (z) = 0.26488 0.26488
#
# Static dielectric constant tensor:
#      x y z
#    x 3.065940 0.000000 0.000000 
#    y 0.000000 3.065940 0.000000 
#    z 0.000000 0.000000 3.508560 
# 
# 
# High freq. dielectric constant tensor:
#      x y z
#    x 1.649100 0.000000 0.000000 
#    y 0.000000 1.649100 0.000000 
#    z 0.000000 0.000000 1.686790 
# 
# From -- ./inp_files/2304.got.cif
#   From: 2010.03.12/outbox.cif.g09.slc.cpg/sg99_cif.got.tgz:2304.got - 2010.04.08 21:11:30.
