data_PCOD8306448
_publ_section_title
;
Structure prediction by ZEFSAII (Michael W. Deem and Ramdas Pophale) SiO2 
 PCOD8306448
Probable space group: P 4 M M
;
_chemical_formula_sum "Si O2"
_cell_formula_units_Z 56
_cell_length_a 13.850089
_cell_length_b 13.850089
_cell_length_c 17.929441
_cell_angle_alpha 90.000000
_cell_angle_beta 90.000000
_cell_angle_gamma 90.000000
_cell_volume 3439.314398
_symmetry_space_group_name_H-M "P 4 M M"
_symmetry_group_IT_number 99
_symmetry_cell_setting 'tetragonal'
loop_
_space_group_symop_operation_xyz
x,y,z
-y,x,z
-x,-y,z
y,-x,z
-x,y,z
x,-y,z
-y,-x,z
y,x,z
loop_
_atom_site_type_symbol
_atom_site_label
_atom_site_fract_x
_atom_site_fract_y
_atom_site_fract_z
Si Si1 0.729509 0.114208 0.884170
Si Si2 0.234668 0.610182 0.600570
Si Si3 0.893200 0.385574 0.466115
Si Si4 0.232232 0.385818 0.326257
Si Si5 0.611850 0.769370 0.770508
Si Si6 0.114576 0.607147 0.024338
Si Si7 0.107160 0.385410 0.188132
O O1 0.831772 0.168229 0.874682
O O2 0.655678 0.143594 0.818803
O O3 0.748171 0.000000 0.881014
O O4 0.682202 0.149158 0.961893
O O5 0.260333 0.500000 0.582411
O O6 0.333091 0.666910 0.586921
O O7 0.153022 0.649109 0.544242
O O8 0.197012 0.622957 0.684862
O O9 0.901015 0.500000 0.463935
O O10 0.829883 0.349928 0.396685
O O11 0.000000 0.339759 0.460183
O O12 0.248517 0.500000 0.326188
O O13 0.336862 0.336862 0.329896
O O14 0.178388 0.347973 0.252076
O O15 0.500000 0.751659 0.791361
O O16 0.669800 0.669800 0.785764
O O17 0.157616 0.500000 0.007811
O O18 0.147639 0.644536 0.106262
O O19 0.000000 0.599322 0.023833
O O20 0.099610 0.500000 0.191930
O O21 0.000000 0.341618 0.201564
#
# Coordination Sequence:
#
# PCOD8306448 Si02
#       7
#     8   8   8   8   8   8   8
#     4  10  20  32  46  65  89 118 153 192 233 276
#     4   9  17  29  45  67  95 122 146 172 205 252
#     4   9  17  29  44  61  82 109 142 181 220 250
#     4  10  19  29  42  61  86 116 147 177 212 258
#     4   9  18  31  47  69  95 122 152 184 219 263
#     4   8  14  26  45  67  88 110 139 178 223 268
#     4   8  14  26  44  65  88 112 140 177 218 258
#
# _framework density 16.282314
#
# number of rings (size 3 to 8) (size 9 to 14) (size 15 to 20)
#    0.000    3.000    0.000    2.143    0.000    4.286 
#    0.000    2.857    0.000    2.571    0.000    0.000 
#    0.000   16.857    0.000    0.000    0.000    0.000 
#
# Total GULP energy -694157.761204 kJ/mol
# GULP energy per Si atom -12395.674307 kJ/mol
# Density = 1.624525 g / cm^3
# Si number density = 16.282314 Si / 1000 Ang^3
#
#
#
# Elastic Constant Matrix: (Units=GPa)
#
#
# Indices 1 2 3 4 5 6 
#
# 1 75.5978 39.5231 48.8717 0.0000 0.0000 -0.0002
# 2 39.5231 75.5978 48.8717 0.0000 0.0000 0.0002
# 3 48.8717 48.8717 121.5088 0.0000 0.0000 0.0000
# 4 0.0000 0.0000 0.0000 21.1624 0.0000 0.0000
# 5 0.0000 0.0000 0.0000 0.0000 21.1624 0.0000
# 6 -0.0002 0.0002 0.0000 0.0000 0.0000 13.3800
#
#
#
# Elastic Compliance Matrix: (Units=1/GPa)
#
#
# Indices 1 2 3 4 5 6 
#
# 1 0.020456 -0.007264 -0.005306 0.000000 0.000000 0.000000
# 2 -0.007264 0.020456 -0.005306 0.000000 0.000000 0.000000
# 3 -0.005306 -0.005306 0.012498 0.000000 0.000000 0.000000
# 4 0.000000 0.000000 0.000000 0.047254 0.000000 0.000000
# 5 0.000000 0.000000 0.000000 0.000000 0.047254 0.000000
# 6 0.000000 0.000000 0.000000 0.000000 0.000000 0.074739
#
#
# Mechanical properties :
#
#
# Convention : Reuss Voigt Hill
#
# Bulk Modulus (GPa) = 56.63215 60.80415 58.71815
# Shear Modulus (GPa) = 18.91843 20.17015 19.54429
#
# Velocity S-wave (km/s) = 3.41236 3.52344 3.46835
# Velocity P-wave (km/s) = 7.09807 7.34695 7.22358
#
# Compressibility (1/GPa) = 0.01765782
#
# Stress axis : x y z
#
# Youngs Moduli (GPa) = 48.88603 48.88603 80.01428
#
# Poissons Ratio (x) = 0.35513 0.42453
# Poissons Ratio (y) = 0.35513 0.42453
# Poissons Ratio (z) = 0.25937 0.25937
#
# Static dielectric constant tensor:
#      x y z
#    x 2.876800 0.000000 0.000000 
#    y 0.000000 2.876800 0.000000 
#    z 0.000000 0.000000 3.475710 
# 
# 
# High freq. dielectric constant tensor:
#      x y z
#    x 1.599090 0.000000 0.000000 
#    y 0.000000 1.599090 0.000000 
#    z 0.000000 0.000000 1.646310 
# 
# From -- ./inp_files/2137.got.cif
#   From: 2010.03.12/outbox.cif.g09.slc.cpg/sg99_cif.got.tgz:2137.got - 2010.04.08 21:11:30.
