data_PCOD8306249
_publ_section_title
;
Structure prediction by ZEFSAII (Michael W. Deem and Ramdas Pophale) SiO2 
 PCOD8306249
Probable space group: I 41 2 2
;
_chemical_formula_sum "Si O2"
_cell_formula_units_Z 112
_cell_length_a 21.839680
_cell_length_b 21.839680
_cell_length_c 12.551495
_cell_angle_alpha 90.000000
_cell_angle_beta 90.000000
_cell_angle_gamma 90.000000
_cell_volume 5986.706935
_symmetry_space_group_name_H-M "I 41 2 2"
_symmetry_group_IT_number 98
_symmetry_cell_setting 'tetragonal'
loop_
_space_group_symop_operation_xyz
x,y,z
-y,1/2+x,1/4+z
-x,-y,z
y,1/2-x,1/4+z
x,1/2-y,1/4-z
-x,1/2+y,1/4-z
y,x,-z
-y,-x,-z
1/2+x,1/2+y,1/2+z
1/2-y,x,3/4+z
1/2-x,1/2-y,1/2+z
1/2+y,-x,3/4+z
1/2+x,-y,3/4-z
1/2-x,y,3/4-z
1/2+y,1/2+x,1/2-z
1/2-y,1/2-x,1/2-z
loop_
_atom_site_type_symbol
_atom_site_label
_atom_site_fract_x
_atom_site_fract_y
_atom_site_fract_z
Si Si1 0.963806 0.624573 0.695924
Si Si2 0.437497 0.964958 0.477359
Si Si3 0.020394 0.276490 0.237850
Si Si4 0.642119 0.648535 0.808921
Si Si5 0.716280 0.851581 0.657957
Si Si6 0.093728 0.498569 0.209335
Si Si7 0.501276 0.656066 0.830058
O O1 0.936743 0.563258 0.750000
O O2 0.908903 0.661406 0.634351
O O3 0.994910 0.662043 0.791660
O O4 0.018830 0.608762 0.617129
O O5 0.452952 0.892571 0.468988
O O6 0.500000 0.000000 0.459521
O O7 0.404368 0.991318 0.582415
O O8 0.040455 0.250000 0.125000
O O9 0.080247 0.294347 0.302816
O O10 0.985103 0.341042 0.236221
O O11 0.979761 0.223635 0.293552
O O12 0.676463 0.653424 0.697576
O O13 0.657663 0.711898 0.870112
O O14 0.569471 0.641927 0.784225
O O15 0.696180 0.803821 0.750000
O O16 0.067745 0.432256 0.250000
O O17 0.049145 0.549145 0.250000
#
# Coordination Sequence:
#
# PCOD8306249 Si02
#       7
#    16  16  16  16  16  16  16
#     4  10  20  34  55  80 107 138 179 227 288 347
#     4  12  19  33  62  86 114 140 188 241 289 347
#     4  11  23  37  55  77 114 148 180 232 297 350
#     4  10  21  36  51  73 101 142 191 246 288 339
#     4  11  21  36  53  67  94 142 203 247 291 329
#     4  11  23  35  56  86 113 147 194 243 288 344
#     4  10  22  37  55  83 111 147 183 230 292 354
#
# _framework density 18.708114999999999
#
# number of rings (size 3 to 8) (size 9 to 14) (size 15 to 20)
#    0.000    1.286    4.286    4.714    0.000    0.000 
#    0.000   27.143    0.000    0.000    0.000    0.000 
#    0.000   18.286    0.000    0.000    0.000    0.000 
#
# Total GULP energy -693961.007548 kJ/mol
# GULP energy per Si atom -12392.160849 kJ/mol
# Density = 1.866553 g / cm^3
# Si number density = 18.708115 Si / 1000 Ang^3
#
#
#
# Elastic Constant Matrix: (Units=GPa)
#
#
# Indices 1 2 3 4 5 6 
#
# 1 80.0059 27.7743 32.2650 0.0000 0.0000 0.0000
# 2 27.7743 80.0064 32.2649 0.0000 0.0000 0.0000
# 3 32.2650 32.2649 118.5543 0.0000 0.0000 0.0000
# 4 0.0000 0.0000 0.0000 25.4550 0.0000 0.0000
# 5 0.0000 0.0000 0.0000 0.0000 25.4547 0.0000
# 6 0.0000 0.0000 0.0000 0.0000 0.0000 16.6186
#
#
#
# Elastic Compliance Matrix: (Units=1/GPa)
#
#
# Indices 1 2 3 4 5 6 
#
# 1 0.015115 -0.004031 -0.003017 0.000000 0.000000 0.000000
# 2 -0.004031 0.015115 -0.003017 0.000000 0.000000 0.000000
# 3 -0.003017 -0.003017 0.010077 0.000000 0.000000 0.000000
# 4 0.000000 0.000000 0.000000 0.039285 0.000000 0.000000
# 5 0.000000 0.000000 0.000000 0.000000 0.039285 0.000000
# 6 0.000000 0.000000 0.000000 0.000000 0.000000 0.060174
#
#
# Mechanical properties :
#
#
# Convention : Reuss Voigt Hill
#
# Bulk Modulus (GPa) = 49.55667 51.46388 50.51028
# Shear Modulus (GPa) = 24.28309 25.92314 25.10311
#
# Velocity S-wave (km/s) = 3.60668 3.72649 3.66707
# Velocity P-wave (km/s) = 6.62504 6.78853 6.70728
#
# Compressibility (1/GPa) = 0.02017892
#
# Stress axis : x y z
#
# Youngs Moduli (GPa) = 66.15999 66.16048 99.23674
#
# Poissons Ratio (x) = 0.26667 0.29936
# Poissons Ratio (y) = 0.26666 0.29936
# Poissons Ratio (z) = 0.19958 0.19958
#
# Static dielectric constant tensor:
#      x y z
#    x 3.506320 0.000000 0.000000 
#    y 0.000000 3.506320 0.000000 
#    z 0.000000 0.000000 3.035880 
# 
# 
# High freq. dielectric constant tensor:
#      x y z
#    x 1.695170 0.000000 0.000000 
#    y 0.000000 1.695170 0.000000 
#    z 0.000000 0.000000 1.749430 
# 
# From -- ./inp_files/5468.got.cif
#   From: 2010.03.12/outbox.cif.g09.slc.cpg/sg98_3_cif.got.tgz:5468.got - 2010.04.08 21:04:41.
