data_PCOD8306505
_publ_section_title
;
Structure prediction by ZEFSAII (Michael W. Deem and Ramdas Pophale) SiO2 
 PCOD8306505
Probable space group: P 4 M M
;
_chemical_formula_sum "Si O2"
_cell_formula_units_Z 64
_cell_length_a 13.386182
_cell_length_b 13.386182
_cell_length_c 20.713107
_cell_angle_alpha 90.000000
_cell_angle_beta 90.000000
_cell_angle_gamma 90.000000
_cell_volume 3711.578920
_symmetry_space_group_name_H-M "P 4 M M"
_symmetry_group_IT_number 99
_symmetry_cell_setting 'tetragonal'
loop_
_space_group_symop_operation_xyz
x,y,z
-y,x,z
-x,-y,z
y,-x,z
-x,y,z
x,-y,z
-y,-x,z
y,x,z
loop_
_atom_site_type_symbol
_atom_site_label
_atom_site_fract_x
_atom_site_fract_y
_atom_site_fract_z
Si Si1 0.278643 0.117962 0.539830
Si Si2 0.882038 0.721357 0.307830
Si Si3 0.276063 0.882172 0.796131
Si Si4 0.383235 0.218031 0.423830
Si Si5 0.610989 0.881758 0.668795
Si Si6 0.611137 0.118530 0.923830
Si Si7 0.882172 0.276062 0.051530
Si Si8 0.118242 0.610989 0.178866
O O1 0.172717 0.172717 0.528813
O O2 0.357764 0.151256 0.486029
O O3 0.322571 0.152501 0.608481
O O4 0.259474 0.000000 0.535744
O O5 0.827283 0.827283 0.318848
O O6 0.848744 0.642236 0.361632
O O7 0.847499 0.677429 0.239179
O O8 0.000000 0.740526 0.311916
O O9 0.167131 0.832870 0.793878
O O10 0.339569 0.844465 0.735011
O O11 0.332455 0.844500 0.860027
O O12 0.258906 0.000000 0.795487
O O13 0.500000 0.244750 0.423830
O O14 0.321416 0.321416 0.423830
O O15 0.500000 0.835023 0.663260
O O16 0.602702 0.000000 0.669524
O O17 0.500000 0.164396 0.923831
O O18 0.605026 0.000000 0.923831
O O19 0.667547 0.155500 0.987633
O O20 0.832871 0.167130 0.053784
O O21 0.844465 0.339570 0.112649
O O22 0.000000 0.258906 0.052174
O O23 0.164977 0.500000 0.184401
O O24 0.000000 0.602702 0.178137
#
# Coordination Sequence:
#
# PCOD8306505 Si02
#       8
#     8   8   8   8   8   8   8   8
#     4  10  20  33  50  74 103 134 167 201 240 291
#     4  10  20  33  50  74 103 134 167 201 240 291
#     4  10  19  30  45  67  96 127 157 189 228 281
#     4  10  21  36  54  76 100 128 165 208 254 300
#     4   9  17  30  48  68  91 122 160 202 243 277
#     4   9  17  30  47  65  87 117 153 195 239 274
#     4  10  19  30  45  67  96 127 157 189 228 281
#     4   9  17  30  48  68  91 122 160 202 243 277
#
# _framework density 17.243334000000001
#
# number of rings (size 3 to 8) (size 9 to 14) (size 15 to 20)
#    0.000    2.375    0.000    3.000    0.000    5.625 
#    0.000    0.000    0.000    9.000    0.000    0.000 
#    0.000   36.500    0.000    0.000    0.000    0.000 
#
# Total GULP energy -793606.562690 kJ/mol
# GULP energy per Si atom -12400.102542 kJ/mol
# Density = 1.720409 g / cm^3
# Si number density = 17.243334 Si / 1000 Ang^3
#
#
#
# Elastic Constant Matrix: (Units=GPa)
#
#
# Indices 1 2 3 4 5 6 
#
# 1 90.5294 47.0816 40.7165 0.0000 0.0000 0.0000
# 2 47.0816 90.5294 40.7165 0.0000 0.0000 0.0000
# 3 40.7165 40.7165 147.8805 0.0000 0.0000 0.0000
# 4 0.0000 0.0000 0.0000 20.3891 0.0000 0.0000
# 5 0.0000 0.0000 0.0000 0.0000 20.3891 0.0000
# 6 0.0000 0.0000 0.0000 0.0000 0.0000 11.8319
#
#
#
# Elastic Compliance Matrix: (Units=1/GPa)
#
#
# Indices 1 2 3 4 5 6 
#
# 1 0.015849 -0.007167 -0.002390 0.000000 0.000000 0.000000
# 2 -0.007167 0.015849 -0.002390 0.000000 0.000000 0.000000
# 3 -0.002390 -0.002390 0.008078 0.000000 0.000000 0.000000
# 4 0.000000 0.000000 0.000000 0.049046 0.000000 0.000000
# 5 0.000000 0.000000 0.000000 0.000000 0.049046 0.000000
# 6 0.000000 0.000000 0.000000 0.000000 0.000000 0.084517
#
#
# Mechanical properties :
#
#
# Convention : Reuss Voigt Hill
#
# Bulk Modulus (GPa) = 62.97207 65.10763 64.03985
# Shear Modulus (GPa) = 19.87487 23.88367 21.87927
#
# Velocity S-wave (km/s) = 3.39870 3.72573 3.56596
# Velocity P-wave (km/s) = 7.21113 7.50654 7.36032
#
# Compressibility (1/GPa) = 0.01588006
#
# Stress axis : x y z
#
# Youngs Moduli (GPa) = 63.09655 63.09655 123.78603
#
# Poissons Ratio (x) = 0.45224 0.29588
# Poissons Ratio (y) = 0.45224 0.29588
# Poissons Ratio (z) = 0.15082 0.15082
#
# Static dielectric constant tensor:
#      x y z
#    x 3.025690 0.000000 0.000000 
#    y 0.000000 3.025690 0.000000 
#    z 0.000000 0.000000 3.547650 
# 
# 
# High freq. dielectric constant tensor:
#      x y z
#    x 1.645580 0.000000 0.000000 
#    y 0.000000 1.645580 0.000000 
#    z 0.000000 0.000000 1.690540 
# 
# From -- ./inp_files/2306.got.cif
#   From: 2010.03.12/outbox.cif.g09.slc.cpg/sg99_cif.got.tgz:2306.got - 2010.04.08 21:11:30.
