data_PCOD8306091
_publ_section_title
;
Structure prediction by ZEFSAII (Michael W. Deem and Ramdas Pophale) SiO2 
 PCOD8306091
Probable space group: I 4 2 2 
;
_chemical_formula_sum "Si O2"
_cell_formula_units_Z 96
_cell_length_a 22.813768
_cell_length_b 22.813768
_cell_length_c 8.378791
_cell_angle_alpha 90.000000
_cell_angle_beta 90.000000
_cell_angle_gamma 90.000000
_cell_volume 4360.892681
_symmetry_space_group_name_H-M "I 4 2 2 "
_symmetry_group_IT_number 97
_symmetry_cell_setting 'tetragonal'
loop_
_space_group_symop_operation_xyz
x,y,z
-y,x,z
-x,-y,z
y,-x,z
x,-y,-z
-x,y,-z
y,x,-z
-y,-x,-z
1/2+x,1/2+y,1/2+z
1/2-y,1/2+x,1/2+z
1/2-x,1/2-y,1/2+z
1/2+y,1/2-x,1/2+z
1/2+x,1/2-y,1/2-z
1/2-x,1/2+y,1/2-z
1/2+y,1/2+x,1/2-z
1/2-y,1/2-x,1/2-z
loop_
_atom_site_type_symbol
_atom_site_label
_atom_site_fract_x
_atom_site_fract_y
_atom_site_fract_z
Si Si1 0.367032 0.285591 0.059152
Si Si2 0.904688 0.693138 0.957589
Si Si3 0.500000 0.400545 0.500000
Si Si4 0.419507 0.919507 0.750000
Si Si5 0.575725 0.791235 0.814010
Si Si6 0.709257 0.473855 0.293060
Si Si7 0.705318 0.205318 0.750000
Si Si8 0.000000 0.618918 0.500000
O O1 0.426501 0.293381 0.153779
O O2 0.310343 0.267254 0.169297
O O3 0.350285 0.350285 0.000000
O O4 0.372797 0.239190 0.914785
O O5 0.930015 0.640629 0.849018
O O6 0.945394 0.751279 0.935128
O O7 0.839334 0.699922 0.896872
O O8 0.902251 0.680231 0.147090
O O9 0.558138 0.441863 0.500000
O O10 0.492501 0.356200 0.349686
O O11 0.473650 0.923877 0.868324
O O12 0.529050 0.740536 0.783091
O O13 0.551793 0.842079 0.927716
#
# Coordination Sequence:
#
# PCOD8306091 Si02
#       8
#    16  16   8   8  16  16   8   8
#     4  11  25  40  64  99 142 181 223 285 348 418
#     4  10  20  39  71  98 132 175 235 287 341 412
#     4  11  26  44  70 106 144 187 240 300 356 417
#     4  11  24  42  66 108 136 182 236 300 352 421
#     4  12  21  40  68  99 126 181 233 283 339 417
#     4  11  21  42  68 100 133 177 239 287 338 426
#     4   9  22  42  56  95 144 169 216 285 346 421
#     4  12  24  42  70  97 142 179 238 290 354 426
#
# _framework density 22.013842
#
# number of rings (size 3 to 8) (size 9 to 14) (size 15 to 20)
#    0.000    1.083    5.000    2.000    2.333    4.000 
#    0.000    3.333    0.000    8.000    0.000    0.000 
#    0.000    0.000    0.000    0.000    0.000    0.000 
#
# Total GULP energy -594758.940961 kJ/mol
# GULP energy per Si atom -12390.811270 kJ/mol
# Density = 2.196374 g / cm^3
# Si number density = 22.013842 Si / 1000 Ang^3
#
#
#
# Elastic Constant Matrix: (Units=GPa)
#
#
# Indices 1 2 3 4 5 6 
#
# 1 92.9529 21.9984 40.2864 0.0000 0.0000 0.0000
# 2 21.9984 92.9532 40.2863 0.0000 0.0000 0.0000
# 3 40.2864 40.2863 153.2188 0.0000 0.0000 0.0000
# 4 0.0000 0.0000 0.0000 23.8891 0.0000 0.0000
# 5 0.0000 0.0000 0.0000 0.0000 23.8910 0.0000
# 6 0.0000 0.0000 0.0000 0.0000 0.0000 34.3400
#
#
#
# Elastic Compliance Matrix: (Units=1/GPa)
#
#
# Indices 1 2 3 4 5 6 
#
# 1 0.012379 -0.001714 -0.002804 0.000000 0.000000 0.000000
# 2 -0.001714 0.012379 -0.002804 0.000000 0.000000 0.000000
# 3 -0.002804 -0.002804 0.008001 0.000000 0.000000 0.000000
# 4 0.000000 0.000000 0.000000 0.041860 0.000000 0.000000
# 5 0.000000 0.000000 0.000000 0.000000 0.041857 0.000000
# 6 0.000000 0.000000 0.000000 0.000000 0.000000 0.029121
#
#
# Mechanical properties :
#
#
# Convention : Reuss Voigt Hill
#
# Bulk Modulus (GPa) = 55.20500 60.47415 57.83957
# Shear Modulus (GPa) = 30.06970 32.19427 31.13198
#
# Velocity S-wave (km/s) = 3.69988 3.82836 3.76467
# Velocity P-wave (km/s) = 6.58665 6.86093 6.72519
#
# Compressibility (1/GPa) = 0.01811430
#
# Stress axis : x y z
#
# Youngs Moduli (GPa) = 80.78073 80.78108 124.98099
#
# Poissons Ratio (x) = 0.13849 0.35047
# Poissons Ratio (y) = 0.13849 0.35046
# Poissons Ratio (z) = 0.22652 0.22652
#
# Static dielectric constant tensor:
#      x y z
#    x 3.581360 0.000000 0.000000 
#    y 0.000000 3.581360 0.000000 
#    z 0.000000 0.000000 4.220920 
# 
# 
# High freq. dielectric constant tensor:
#      x y z
#    x 1.855720 0.000000 0.000000 
#    y 0.000000 1.855720 0.000000 
#    z 0.000000 0.000000 1.883740 
# 
# From -- ./inp_files/2536.got.cif
#   From: 2010.03.12/outbox.cif.g09.slc.cpg/sg97_2_cif.got.tgz:2536.got - 2010.04.08 20:59:42.
