data_PCOD8306616
_publ_section_title
;
Structure prediction by ZEFSAII (Michael W. Deem and Ramdas Pophale) SiO2 
 PCOD8306616
Probable space group: P 4 M M
;
_chemical_formula_sum "Si O2"
_cell_formula_units_Z 64
_cell_length_a 13.585172
_cell_length_b 13.585172
_cell_length_c 20.622201
_cell_angle_alpha 90.000000
_cell_angle_beta 90.000000
_cell_angle_gamma 90.000000
_cell_volume 3805.969452
_symmetry_space_group_name_H-M "P 4 M M"
_symmetry_group_IT_number 99
_symmetry_cell_setting 'tetragonal'
loop_
_space_group_symop_operation_xyz
x,y,z
-y,x,z
-x,-y,z
y,-x,z
-x,y,z
x,-y,z
-y,-x,z
y,x,z
loop_
_atom_site_type_symbol
_atom_site_label
_atom_site_fract_x
_atom_site_fract_y
_atom_site_fract_z
Si Si1 0.278183 0.883605 0.672310
Si Si2 0.275394 0.114449 0.897567
Si Si3 0.221819 0.616395 0.788416
Si Si4 0.388320 0.234327 0.417766
Si Si5 0.391228 0.882194 0.160055
Si Si6 0.385551 0.775395 0.563158
Si Si7 0.891227 0.617806 0.300669
Si Si8 0.265673 0.111680 0.042958
O O1 0.173587 0.826414 0.674246
O O2 0.347754 0.847751 0.730362
O O3 0.337136 0.860766 0.606288
O O4 0.257700 0.000000 0.677612
O O5 0.172406 0.172406 0.886158
O O6 0.360763 0.162864 0.854436
O O7 0.257795 0.000000 0.879242
O O8 0.313714 0.124417 0.971723
O O9 0.242302 0.500000 0.783116
O O10 0.326415 0.673586 0.786480
O O11 0.500000 0.251881 0.399524
O O12 0.341299 0.341299 0.417790
O O13 0.375582 0.186286 0.489001
O O14 0.338546 0.168997 0.361409
O O15 0.500000 0.838764 0.151516
O O16 0.348121 0.848122 0.230362
O O17 0.331003 0.838545 0.099315
O O18 0.394506 0.000000 0.158577
O O19 0.500000 0.757795 0.581483
O O20 0.327592 0.672409 0.574567
O O21 0.894504 0.500000 0.302146
O O22 0.000000 0.661233 0.309210
O O23 0.158702 0.158702 0.042934
O O24 0.248119 0.000000 0.061201
#
# Coordination Sequence:
#
# PCOD8306616 Si02
#       8
#     8   8   8   8   8   8   8   8
#     4  10  21  36  53  74  99 125 155 190 226 267
#     4   9  18  31  46  67  94 122 154 191 229 272
#     4  10  21  36  53  74  99 125 155 190 226 267
#     4   9  17  28  42  62  88 116 146 179 216 262
#     4   8  14  25  40  58  81 108 140 181 225 265
#     4   9  18  31  46  67  94 122 154 191 229 272
#     4   8  14  25  40  58  81 108 140 181 225 265
#     4   9  17  28  42  62  88 116 146 179 216 262
#
# _framework density 16.815688999999999
#
# number of rings (size 3 to 8) (size 9 to 14) (size 15 to 20)
#    0.000    3.000    0.000    1.500    0.000    4.000 
#    0.000    5.000    0.000    4.500    0.000    0.000 
#    0.000    0.500    0.000    0.500    0.000    0.250 
#
# Total GULP energy -793054.960773 kJ/mol
# GULP energy per Si atom -12391.483762 kJ/mol
# Density = 1.677742 g / cm^3
# Si number density = 16.815689 Si / 1000 Ang^3
#
#
#
# Elastic Constant Matrix: (Units=GPa)
#
#
# Indices 1 2 3 4 5 6 
#
# 1 85.9505 41.1809 50.7310 0.0000 0.0000 0.0001
# 2 41.1809 85.9505 50.7310 0.0000 0.0000 -0.0001
# 3 50.7310 50.7310 128.1295 0.0000 0.0000 0.0000
# 4 0.0000 0.0000 0.0000 23.9566 0.0000 0.0000
# 5 0.0000 0.0000 0.0000 0.0000 23.9566 0.0000
# 6 0.0001 -0.0001 0.0000 0.0000 0.0000 12.9355
#
#
#
# Elastic Compliance Matrix: (Units=1/GPa)
#
#
# Indices 1 2 3 4 5 6 
#
# 1 0.016918 -0.005418 -0.004553 0.000000 0.000000 0.000000
# 2 -0.005418 0.016918 -0.004553 0.000000 0.000000 0.000000
# 3 -0.004553 -0.004553 0.011410 0.000000 0.000000 0.000000
# 4 0.000000 0.000000 0.000000 0.041742 0.000000 0.000000
# 5 0.000000 0.000000 0.000000 0.000000 0.041742 0.000000
# 6 0.000000 0.000000 0.000000 0.000000 0.000000 0.077306
#
#
# Mechanical properties :
#
#
# Convention : Reuss Voigt Hill
#
# Bulk Modulus (GPa) = 61.74011 65.03516 63.38763
# Shear Modulus (GPa) = 20.79126 22.66223 21.72675
#
# Velocity S-wave (km/s) = 3.52009 3.67506 3.59841
# Velocity P-wave (km/s) = 7.30184 7.53441 7.41904
#
# Compressibility (1/GPa) = 0.01619693
#
# Stress axis : x y z
#
# Youngs Moduli (GPa) = 59.10819 59.10819 87.64175
#
# Poissons Ratio (x) = 0.32028 0.39904
# Poissons Ratio (y) = 0.32028 0.39904
# Poissons Ratio (z) = 0.26913 0.26913
#
# Static dielectric constant tensor:
#      x y z
#    x 2.985190 0.000000 0.000000 
#    y 0.000000 2.985190 0.000000 
#    z 0.000000 0.000000 3.612310 
# 
# 
# High freq. dielectric constant tensor:
#      x y z
#    x 1.622990 0.000000 0.000000 
#    y 0.000000 1.622990 0.000000 
#    z 0.000000 0.000000 1.672740 
# 
# From -- ./inp_files/2352.got.cif
#   From: 2010.03.12/outbox.cif.g09.slc.cpg/sg99_cif.got.tgz:2352.got - 2010.04.08 21:11:30.
