data_PCOD8306489
_publ_section_title
;
Structure prediction by ZEFSAII (Michael W. Deem and Ramdas Pophale) SiO2 
 PCOD8306489
Probable space group: P 4 M M
;
_chemical_formula_sum "Si O2"
_cell_formula_units_Z 64
_cell_length_a 13.410988
_cell_length_b 13.410988
_cell_length_c 20.618590
_cell_angle_alpha 90.000000
_cell_angle_beta 90.000000
_cell_angle_gamma 90.000000
_cell_volume 3708.348239
_symmetry_space_group_name_H-M "P 4 M M"
_symmetry_group_IT_number 99
_symmetry_cell_setting 'tetragonal'
loop_
_space_group_symop_operation_xyz
x,y,z
-y,x,z
-x,-y,z
y,-x,z
-x,y,z
x,-y,z
-y,-x,z
y,x,z
loop_
_atom_site_type_symbol
_atom_site_label
_atom_site_fract_x
_atom_site_fract_y
_atom_site_fract_z
Si Si1 0.227810 0.614174 0.661640
Si Si2 0.881961 0.610617 0.283478
Si Si3 0.117607 0.274217 0.409994
Si Si4 0.382854 0.781324 0.038632
Si Si5 0.882730 0.612587 0.536669
Si Si6 0.719760 0.883090 0.919723
Si Si7 0.278308 0.117767 0.154383
Si Si8 0.778621 0.383726 0.806793
O O1 0.250706 0.500000 0.649484
O O2 0.333610 0.666391 0.655869
O O3 0.155008 0.655837 0.605588
O O4 0.181417 0.631524 0.733194
O O5 0.835309 0.500000 0.276694
O O6 0.844591 0.657681 0.350736
O O7 0.847951 0.678672 0.223622
O O8 0.000000 0.602440 0.283963
O O9 0.165299 0.165299 0.403355
O O10 0.156832 0.323074 0.476557
O O11 0.000000 0.259618 0.408696
O O12 0.500000 0.757053 0.036886
O O13 0.323199 0.676802 0.040831
O O14 0.358180 0.849078 0.100779
O O15 0.352901 0.844902 0.975961
O O16 0.845277 0.500000 0.525898
O O17 0.000000 0.617134 0.538876
O O18 0.825347 0.825347 0.922394
O O19 0.662776 0.863638 0.852221
O O20 0.741784 0.000000 0.927559
O O21 0.172887 0.172887 0.142702
O O22 0.258969 0.000000 0.150054
O O23 0.760356 0.500000 0.822584
O O24 0.673809 0.326192 0.818273
#
# Coordination Sequence:
#
# PCOD8306489 Si02
#       8
#     8   8   8   8   8   8   8   8
#     4   9  17  29  45  66  93 122 152 188 229 276
#     4   9  17  30  48  68  90 118 153 193 235 277
#     4  10  19  30  45  65  90 120 152 187 230 281
#     4  10  21  36  54  77 103 131 165 203 244 290
#     4   9  17  29  45  65  88 115 150 192 235 275
#     4  10  21  36  53  74  99 127 161 200 241 287
#     4  10  20  33  50  74 103 134 168 204 242 286
#     4   9  18  31  47  70  98 127 160 196 236 284
#
# _framework density 17.258357
#
# number of rings (size 3 to 8) (size 9 to 14) (size 15 to 20)
#    0.000    2.500    0.000    2.250    0.000    5.000 
#    0.000    2.500    0.000    6.750    0.000    0.000 
#    0.000   13.250    0.000    0.000    0.000    0.000 
#
# Total GULP energy -793463.852009 kJ/mol
# GULP energy per Si atom -12397.872688 kJ/mol
# Density = 1.721908 g / cm^3
# Si number density = 17.258357 Si / 1000 Ang^3
#
#
#
# Elastic Constant Matrix: (Units=GPa)
#
#
# Indices 1 2 3 4 5 6 
#
# 1 89.0991 44.2050 44.6967 0.0000 0.0000 0.0001
# 2 44.2050 89.0991 44.6967 0.0000 0.0000 -0.0001
# 3 44.6967 44.6967 130.8400 0.0000 0.0000 0.0000
# 4 0.0000 0.0000 0.0000 25.5174 0.0000 0.0000
# 5 0.0000 0.0000 0.0000 0.0000 25.5174 0.0000
# 6 0.0001 -0.0001 0.0000 0.0000 0.0000 17.6044
#
#
#
# Elastic Compliance Matrix: (Units=1/GPa)
#
#
# Indices 1 2 3 4 5 6 
#
# 1 0.016003 -0.006272 -0.003324 0.000000 0.000000 0.000000
# 2 -0.006272 0.016003 -0.003324 0.000000 0.000000 0.000000
# 3 -0.003324 -0.003324 0.009914 0.000000 0.000000 0.000000
# 4 0.000000 0.000000 0.000000 0.039189 0.000000 0.000000
# 5 0.000000 0.000000 0.000000 0.000000 0.039189 0.000000
# 6 0.000000 0.000000 0.000000 0.000000 0.000000 0.056804
#
#
# Mechanical properties :
#
#
# Convention : Reuss Voigt Hill
#
# Bulk Modulus (GPa) = 62.19281 64.02611 63.10946
# Shear Modulus (GPa) = 24.00364 25.42382 24.71373
#
# Velocity S-wave (km/s) = 3.73344 3.84230 3.78826
# Velocity P-wave (km/s) = 7.39590 7.54079 7.46870
#
# Compressibility (1/GPa) = 0.01607903
#
# Stress axis : x y z
#
# Youngs Moduli (GPa) = 62.48925 62.48925 100.86653
#
# Poissons Ratio (x) = 0.39193 0.33530
# Poissons Ratio (y) = 0.39193 0.33530
# Poissons Ratio (z) = 0.20773 0.20773
#
# Static dielectric constant tensor:
#      x y z
#    x 3.073650 0.000000 0.000000 
#    y 0.000000 3.073650 0.000000 
#    z 0.000000 0.000000 3.608390 
# 
# 
# High freq. dielectric constant tensor:
#      x y z
#    x 1.651120 0.000000 0.000000 
#    y 0.000000 1.651120 0.000000 
#    z 0.000000 0.000000 1.689810 
# 
# From -- ./inp_files/2246.got.cif
#   From: 2010.03.12/outbox.cif.g09.slc.cpg/sg99_cif.got.tgz:2246.got - 2010.04.08 21:11:30.
