data_PCOD8306001
_publ_section_title
;
Structure prediction by ZEFSAII (Michael W. Deem and Ramdas Pophale) SiO2 
 PCOD8306001
Probable space group: P 43 21 2
;
_chemical_formula_sum "Si O2"
_cell_formula_units_Z 60
_cell_length_a 17.865362
_cell_length_b 17.865362
_cell_length_c 9.064604
_cell_angle_alpha 90.000000
_cell_angle_beta 90.000000
_cell_angle_gamma 90.000000
_cell_volume 2893.160168
_symmetry_space_group_name_H-M "P 43 21 2"
_symmetry_group_IT_number 96
_symmetry_cell_setting 'tetragonal'
loop_
_space_group_symop_operation_xyz
x,y,z
1/2-y,1/2+x,3/4+z
-x,-y,1/2+z
1/2+y,1/2-x,1/4+z
1/2+x,1/2-y,1/4-z
1/2-x,1/2+y,3/4-z
y,x,-z
-y,-x,1/2-z
loop_
_atom_site_type_symbol
_atom_site_label
_atom_site_fract_x
_atom_site_fract_y
_atom_site_fract_z
Si Si1 0.815911 0.732472 0.191277
Si Si2 0.903696 0.698916 0.469711
Si Si3 0.100727 0.195919 0.238634
Si Si4 0.516224 0.724892 0.976504
Si Si5 0.810226 0.189775 0.750000
Si Si6 0.459963 0.564886 0.912851
Si Si7 0.295330 0.050260 0.505587
Si Si8 0.928630 0.541706 0.609987
O O1 0.836541 0.696894 0.349354
O O2 0.831357 0.820991 0.191763
O O3 0.728540 0.723525 0.147761
O O4 0.867238 0.691805 0.065529
O O5 0.886873 0.767616 0.578719
O O6 0.898590 0.623269 0.564465
O O7 0.984516 0.710177 0.385111
O O8 0.048320 0.122801 0.225147
O O9 0.056227 0.253296 0.339955
O O10 0.472809 0.653030 0.918667
O O11 0.603617 0.709689 0.981645
O O12 0.496616 0.744878 0.143538
O O13 0.466627 0.533373 0.750000
O O14 0.524265 0.524265 0.000000
O O15 0.371395 0.005935 0.539733
O O16 0.949254 0.502033 0.458087
#
# Coordination Sequence:
#
# PCOD8306001 Si02
#       8
#     8   8   8   8   4   8   8   8
#     4  11  24  42  74 101 132 190 232 285 357 422
#     4  11  25  48  73  98 142 187 237 298 348 429
#     4  12  21  47  73 102 134 181 240 283 351 432
#     4  11  26  44  68 104 147 180 233 294 356 425
#     4  12  26  40  72 104 144 182 238 288 356 434
#     4  12  25  43  70 104 140 186 228 281 358 435
#     4  11  25  44  70 102 136 179 238 293 344 431
#     4  12  30  48  72 103 142 190 241 298 366 424
#
# _framework density 20.738568999999998
#
# number of rings (size 3 to 8) (size 9 to 14) (size 15 to 20)
#    0.000    0.533    7.333    0.400   11.200    0.000 
#    0.000    0.000    0.000    0.000    0.000    0.000 
#    0.000    0.000    0.000    0.000    0.000    0.000 
#
# Total GULP energy -743823.622828 kJ/mol
# GULP energy per Si atom -12397.060380 kJ/mol
# Density = 2.069137 g / cm^3
# Si number density = 20.738569 Si / 1000 Ang^3
#
#
#
# Elastic Constant Matrix: (Units=GPa)
#
#
# Indices 1 2 3 4 5 6 
#
# 1 77.0731 26.5168 24.5429 0.0000 0.0000 0.0000
# 2 26.5168 77.0740 24.5438 0.0000 0.0000 0.0000
# 3 24.5429 24.5438 102.2354 0.0000 0.0000 0.0000
# 4 0.0000 0.0000 0.0000 38.9706 0.0000 0.0000
# 5 0.0000 0.0000 0.0000 0.0000 38.9685 0.0000
# 6 0.0000 0.0000 0.0000 0.0000 0.0000 26.8523
#
#
#
# Elastic Compliance Matrix: (Units=1/GPa)
#
#
# Indices 1 2 3 4 5 6 
#
# 1 0.015336 -0.004444 -0.002615 0.000000 0.000000 0.000000
# 2 -0.004444 0.015336 -0.002615 0.000000 0.000000 0.000000
# 3 -0.002615 -0.002615 0.011037 0.000000 0.000000 0.000000
# 4 0.000000 0.000000 0.000000 0.025660 0.000000 0.000000
# 5 0.000000 0.000000 0.000000 0.000000 0.025662 0.000000
# 6 0.000000 0.000000 0.000000 0.000000 0.000000 0.037241
#
#
# Mechanical properties :
#
#
# Convention : Reuss Voigt Hill
#
# Bulk Modulus (GPa) = 44.71840 45.28770 45.00305
# Shear Modulus (GPa) = 31.83231 33.01020 32.42126
#
# Velocity S-wave (km/s) = 3.92207 3.99398 3.95819
# Velocity P-wave (km/s) = 6.48999 6.56917 6.52970
#
# Compressibility (1/GPa) = 0.02236216
#
# Stress axis : x y z
#
# Youngs Moduli (GPa) = 65.20531 65.20569 90.60542
#
# Poissons Ratio (x) = 0.28975 0.23692
# Poissons Ratio (y) = 0.28975 0.23693
# Poissons Ratio (z) = 0.17050 0.17051
#
# Static dielectric constant tensor:
#      x y z
#    x 3.806120 0.000000 0.000000 
#    y 0.000000 3.806130 0.000000 
#    z 0.000000 0.000000 3.917800 
# 
# 
# High freq. dielectric constant tensor:
#      x y z
#    x 1.809780 0.000000 0.000000 
#    y 0.000000 1.809780 0.000000 
#    z 0.000000 0.000000 1.825060 
# 
# From -- ./inp_files/1606.got.cif
#   From: 2010.03.12/outbox.cif.g09.slc.cpg/sg96_1_cif.got.tgz:1606.got - 2010.04.08 20:56:49.
