data_PCOD8306815
_publ_section_title
;
Structure prediction by ZEFSAII (Michael W. Deem and Ramdas Pophale) SiO2 
 PCOD8306815
Probable space group: P 42 N M
;
_chemical_formula_sum "Si O2"
_cell_formula_units_Z 56
_cell_length_a 11.613885
_cell_length_b 11.613885
_cell_length_c 23.059014
_cell_angle_alpha 90.000000
_cell_angle_beta 90.000000
_cell_angle_gamma 90.000000
_cell_volume 3110.253416
_symmetry_space_group_name_H-M "P 42 N M"
_symmetry_group_IT_number 102
_symmetry_cell_setting 'tetragonal'
loop_
_space_group_symop_operation_xyz
x,y,z
1/2-y,1/2+x,1/2+z
-x,-y,z
1/2+y,1/2-x,1/2+z
1/2-x,1/2+y,1/2+z
1/2+x,1/2-y,1/2+z
-y,-x,z
y,x,z
loop_
_atom_site_type_symbol
_atom_site_label
_atom_site_fract_x
_atom_site_fract_y
_atom_site_fract_z
Si Si1 0.501778 0.687267 0.903830
Si Si2 0.090954 0.605162 0.199421
Si Si3 0.338134 0.159119 0.093359
Si Si4 0.125863 0.529242 0.001316
Si Si5 0.229934 0.406993 0.220648
Si Si6 0.436227 0.746834 0.776756
Si Si7 0.273790 0.909715 0.081627
O O1 0.402853 0.597148 0.918960
O O2 0.625703 0.625703 0.904673
O O3 0.482563 0.744618 0.841704
O O4 0.499098 0.785041 0.951641
O O5 0.208521 0.545119 0.226046
O O6 0.127609 0.650480 0.136893
O O7 0.000000 0.500000 0.196036
O O8 0.044253 0.714004 0.236684
O O9 0.268740 0.268740 0.069943
O O10 0.455653 0.151147 0.058658
O O11 0.363004 0.168948 0.161514
O O12 0.258830 0.047052 0.082939
O O13 0.131320 0.661148 0.022967
O O14 0.000000 0.500000 0.976272
O O15 0.364925 0.364925 0.221370
O O16 0.163669 0.342909 0.272950
O O17 0.378655 0.621345 0.759893
O O18 0.148908 0.851093 0.082948
#
# Coordination Sequence:
#
# PCOD8306815 Si02
#       7
#     8   8   8   8   8   8   8
#     4  10  21  37  54  77 110 141 173 220 272 321
#     4  10  16  31  50  70 102 136 178 216 258 315
#     4  10  18  32  52  73  99 136 180 222 259 311
#     4  10  20  35  54  74 101 137 186 220 258 309
#     4   9  16  29  51  74  99 133 178 223 260 305
#     4   9  18  30  48  75 104 135 170 210 264 324
#     4  11  20  30  46  74 108 137 170 216 267 321
#
# _framework density 18.004963
#
# number of rings (size 3 to 8) (size 9 to 14) (size 15 to 20)
#    0.000    2.143    4.286    1.286    0.000    2.571 
#    0.000    0.000    0.000    1.286    0.000    0.000 
#    0.000    5.714    0.000    0.000    0.000    0.000 
#
# Total GULP energy -693846.994532 kJ/mol
# GULP energy per Si atom -12390.124902 kJ/mol
# Density = 1.796398 g / cm^3
# Si number density = 18.004963 Si / 1000 Ang^3
#
#
#
# Elastic Constant Matrix: (Units=GPa)
#
#
# Indices 1 2 3 4 5 6 
#
# 1 57.0753 32.0745 30.9239 0.0000 0.0000 0.0000
# 2 32.0745 57.0753 30.9239 0.0000 0.0000 0.0000
# 3 30.9239 30.9239 84.8971 0.0000 0.0000 0.0000
# 4 0.0000 0.0000 0.0000 20.3486 0.0000 0.0000
# 5 0.0000 0.0000 0.0000 0.0000 20.3486 0.0000
# 6 0.0000 0.0000 0.0000 0.0000 0.0000 37.0011
#
#
#
# Elastic Compliance Matrix: (Units=1/GPa)
#
#
# Indices 1 2 3 4 5 6 
#
# 1 0.027504 -0.012494 -0.005467 0.000000 0.000000 0.000000
# 2 -0.012494 0.027504 -0.005467 0.000000 0.000000 0.000000
# 3 -0.005467 -0.005467 0.015762 0.000000 0.000000 0.000000
# 4 0.000000 0.000000 0.000000 0.049143 0.000000 0.000000
# 5 0.000000 0.000000 0.000000 0.000000 0.049143 0.000000
# 6 0.000000 0.000000 0.000000 0.000000 0.000000 0.027026
#
#
# Mechanical properties :
#
#
# Convention : Reuss Voigt Hill
#
# Bulk Modulus (GPa) = 41.81923 42.98802 42.40362
# Shear Modulus (GPa) = 19.92722 22.54803 21.23762
#
# Velocity S-wave (km/s) = 3.33041 3.54266 3.43817
# Velocity P-wave (km/s) = 6.16975 6.37663 6.27404
#
# Compressibility (1/GPa) = 0.02391244
#
# Stress axis : x y z
#
# Youngs Moduli (GPa) = 36.35782 36.35782 63.44364
#
# Poissons Ratio (x) = 0.45426 0.34688
# Poissons Ratio (y) = 0.45426 0.34688
# Poissons Ratio (z) = 0.19878 0.19878
#
# Static dielectric constant tensor:
#      x y z
#    x 3.478320 0.000000 0.000000 
#    y 0.000000 3.478320 0.000000 
#    z 0.000000 0.000000 3.145350 
# 
# 
# High freq. dielectric constant tensor:
#      x y z
#    x 1.686910 0.000000 0.000000 
#    y 0.000000 1.686910 0.000000 
#    z 0.000000 0.000000 1.678390 
# 
# From -- ./inp_files/3328.got.cif
#   From: 2010.03.12/outbox.cif.g09.slc.cpg/sg102_2_cif.got.tgz:3328.got - 2010.04.14 01:40:42.
