data_PCOD8306146
_publ_section_title
;
Structure prediction by ZEFSAII (Michael W. Deem and Ramdas Pophale) SiO2 
 PCOD8306146
Probable space group: I 4 2 2 
;
_chemical_formula_sum "Si O2"
_cell_formula_units_Z 88
_cell_length_a 17.153672
_cell_length_b 17.153672
_cell_length_c 14.872723
_cell_angle_alpha 90.000000
_cell_angle_beta 90.000000
_cell_angle_gamma 90.000000
_cell_volume 4376.275885
_symmetry_space_group_name_H-M "I 4 2 2 "
_symmetry_group_IT_number 97
_symmetry_cell_setting 'tetragonal'
loop_
_space_group_symop_operation_xyz
x,y,z
-y,x,z
-x,-y,z
y,-x,z
x,-y,-z
-x,y,-z
y,x,-z
-y,-x,-z
1/2+x,1/2+y,1/2+z
1/2-y,1/2+x,1/2+z
1/2-x,1/2-y,1/2+z
1/2+y,1/2-x,1/2+z
1/2+x,1/2-y,1/2-z
1/2-x,1/2+y,1/2-z
1/2+y,1/2+x,1/2-z
1/2-y,1/2-x,1/2-z
loop_
_atom_site_type_symbol
_atom_site_label
_atom_site_fract_x
_atom_site_fract_y
_atom_site_fract_z
Si Si1 0.095615 0.704917 0.210044
Si Si2 0.243487 0.947174 0.133732
Si Si3 0.910035 0.791957 0.467495
Si Si4 0.168581 0.795211 0.726092
Si Si5 0.834577 0.293992 0.014800
Si Si6 0.500000 0.627282 0.500000
O O1 0.121123 0.621123 0.250000
O O2 0.130849 0.772273 0.276727
O O3 0.001768 0.705728 0.201248
O O4 0.129925 0.716148 0.111703
O O5 0.191676 0.888633 0.191223
O O6 0.297046 0.902588 0.060484
O O7 0.181396 0.004229 0.087192
O O8 0.873030 0.873030 0.500000
O O9 0.886032 0.786195 0.361982
O O10 0.872577 0.716186 0.514038
O O11 0.000000 0.792585 0.500000
O O12 0.216469 0.716469 0.750000
O O13 0.780293 0.219708 0.000000
O O14 0.422187 0.577814 0.500000
#
# Coordination Sequence:
#
# PCOD8306146 Si02
#       6
#    16  16  16  16  16   8
#     4  11  22  35  61  92 123 160 210 260 313 376
#     4  12  21  36  63  91 125 159 204 265 320 374
#     4  11  25  43  66  90 126 170 216 263 316 380
#     4  11  22  40  62  92 120 162 219 266 306 374
#     4  11  19  40  63  91 122 162 208 258 319 378
#     4  11  22  36  54  90 133 166 190 240 331 400
#
# _framework density 20.108422000000001
#
# number of rings (size 3 to 8) (size 9 to 14) (size 15 to 20)
#    0.000    0.818    5.455    4.909    5.091    0.182 
#    0.000    0.000    0.000    4.909    0.000    0.000 
#    0.000    0.000    0.000    0.000    0.000    0.000 
#
# Total GULP energy -545223.559336 kJ/mol
# GULP energy per Si atom -12391.444530 kJ/mol
# Density = 2.006265 g / cm^3
# Si number density = 20.108422 Si / 1000 Ang^3
#
#
#
# Elastic Constant Matrix: (Units=GPa)
#
#
# Indices 1 2 3 4 5 6 
#
# 1 106.0357 57.7890 27.7613 0.0000 0.0000 0.0000
# 2 57.7890 106.0355 27.7611 0.0000 0.0000 0.0000
# 3 27.7613 27.7611 81.8819 0.0000 0.0000 0.0000
# 4 0.0000 0.0000 0.0000 33.6060 0.0000 0.0000
# 5 0.0000 0.0000 0.0000 0.0000 33.6073 0.0000
# 6 0.0000 0.0000 0.0000 0.0000 0.0000 14.0944
#
#
#
# Elastic Compliance Matrix: (Units=1/GPa)
#
#
# Indices 1 2 3 4 5 6 
#
# 1 0.013812 -0.006915 -0.002338 0.000000 0.000000 0.000000
# 2 -0.006915 0.013812 -0.002338 0.000000 0.000000 0.000000
# 3 -0.002338 -0.002338 0.013798 0.000000 0.000000 0.000000
# 4 0.000000 0.000000 0.000000 0.029757 0.000000 0.000000
# 5 0.000000 0.000000 0.000000 0.000000 0.029755 0.000000
# 6 0.000000 0.000000 0.000000 0.000000 0.000000 0.070950
#
#
# Mechanical properties :
#
#
# Convention : Reuss Voigt Hill
#
# Bulk Modulus (GPa) = 54.82915 57.84177 56.33546
# Shear Modulus (GPa) = 24.85754 28.30432 26.58093
#
# Velocity S-wave (km/s) = 3.51974 3.75585 3.63971
# Velocity P-wave (km/s) = 6.62149 6.90188 6.76314
#
# Compressibility (1/GPa) = 0.01823847
#
# Stress axis : x y z
#
# Youngs Moduli (GPa) = 72.40248 72.40241 72.47328
#
# Poissons Ratio (x) = 0.50067 0.16946
# Poissons Ratio (y) = 0.50067 0.16945
# Poissons Ratio (z) = 0.16929 0.16929
#
# Static dielectric constant tensor:
#      x y z
#    x 3.808200 0.000000 0.000000 
#    y 0.000000 3.808200 0.000000 
#    z 0.000000 0.000000 3.963080 
# 
# 
# High freq. dielectric constant tensor:
#      x y z
#    x 1.770160 0.000000 0.000000 
#    y 0.000000 1.770160 0.000000 
#    z 0.000000 0.000000 1.803760 
# 
# From -- ./inp_files/4841.got.cif
#   From: 2010.03.12/outbox.cif.g09.slc.cpg/sg97_3_cif.got.tgz:4841.got - 2010.04.08 20:59:42.
