data_PCOD8306170
_publ_section_title
;
Structure prediction by ZEFSAII (Michael W. Deem and Ramdas Pophale) SiO2 
 PCOD8306170
Probable space group: I 4 2 2 
;
_chemical_formula_sum "Si O2"
_cell_formula_units_Z 56
_cell_length_a 13.173458
_cell_length_b 13.173458
_cell_length_c 12.328334
_cell_angle_alpha 90.000000
_cell_angle_beta 90.000000
_cell_angle_gamma 90.000000
_cell_volume 2139.459029
_symmetry_space_group_name_H-M "I 4 2 2 "
_symmetry_group_IT_number 97
_symmetry_cell_setting 'tetragonal'
loop_
_space_group_symop_operation_xyz
x,y,z
-y,x,z
-x,-y,z
y,-x,z
x,-y,-z
-x,y,-z
y,x,-z
-y,-x,-z
1/2+x,1/2+y,1/2+z
1/2-y,1/2+x,1/2+z
1/2-x,1/2-y,1/2+z
1/2+y,1/2-x,1/2+z
1/2+x,1/2-y,1/2-z
1/2-x,1/2+y,1/2-z
1/2+y,1/2+x,1/2-z
1/2-y,1/2-x,1/2-z
loop_
_atom_site_type_symbol
_atom_site_label
_atom_site_fract_x
_atom_site_fract_y
_atom_site_fract_z
Si Si1 0.697123 0.500000 0.500000
Si Si2 0.674610 0.161494 0.536535
Si Si3 0.447884 0.352713 0.725813
Si Si4 0.967132 0.349862 0.670405
O O1 0.761433 0.584725 0.566209
O O2 0.635219 0.441389 0.593932
O O3 0.779909 0.220092 0.500000
O O4 0.632199 0.095386 0.437935
O O5 0.678503 0.084664 0.640682
O O6 0.561357 0.373451 0.771377
O O7 0.413810 0.243611 0.766372
O O8 0.947846 0.447846 0.750000
#
# Coordination Sequence:
#
# PCOD8306170 Si02
#       4
#     8  16  16  16
#     4  12  24  42  68  98 138 182 236 295 375 440
#     4  11  25  47  72 104 150 194 242 309 384 457
#     4  11  23  42  68 101 138 185 246 308 370 450
#     4  11  24  46  71 105 146 191 250 301 384 465
#
# _framework density 26.174842000000002
#
# number of rings (size 3 to 8) (size 9 to 14) (size 15 to 20)
#    0.000    0.857    2.857    4.286    0.000    4.571 
#    5.143    0.000    0.000    6.857    0.000    0.000 
#    0.000    0.000    0.000    0.000    0.000    0.000 
#
# Total GULP energy -346904.181525 kJ/mol
# GULP energy per Si atom -12389.435054 kJ/mol
# Density = 2.611527 g / cm^3
# Si number density = 26.174842 Si / 1000 Ang^3
#
#
#
# Elastic Constant Matrix: (Units=GPa)
#
#
# Indices 1 2 3 4 5 6 
#
# 1 96.9419 35.5671 20.3173 0.0000 0.0000 0.0000
# 2 35.5671 96.9429 20.3172 0.0000 0.0000 0.0000
# 3 20.3173 20.3172 83.6049 0.0000 0.0000 0.0000
# 4 0.0000 0.0000 0.0000 35.4103 0.0000 0.0000
# 5 0.0000 0.0000 0.0000 0.0000 35.4098 0.0000
# 6 0.0000 0.0000 0.0000 0.0000 0.0000 39.4807
#
#
#
# Elastic Compliance Matrix: (Units=1/GPa)
#
#
# Indices 1 2 3 4 5 6 
#
# 1 0.012224 -0.004069 -0.001982 0.000000 0.000000 0.000000
# 2 -0.004069 0.012224 -0.001982 0.000000 0.000000 0.000000
# 3 -0.001982 -0.001982 0.012924 0.000000 0.000000 0.000000
# 4 0.000000 0.000000 0.000000 0.028240 0.000000 0.000000
# 5 0.000000 0.000000 0.000000 0.000000 0.028241 0.000000
# 6 0.000000 0.000000 0.000000 0.000000 0.000000 0.025329
#
#
# Mechanical properties :
#
#
# Convention : Reuss Voigt Hill
#
# Bulk Modulus (GPa) = 46.93454 47.76588 47.35021
# Shear Modulus (GPa) = 35.12491 35.47935 35.30213
#
# Velocity S-wave (km/s) = 3.66722 3.68567 3.67646
# Velocity P-wave (km/s) = 5.99178 6.03329 6.01257
#
# Compressibility (1/GPa) = 0.02130627
#
# Stress axis : x y z
#
# Youngs Moduli (GPa) = 81.80750 81.80839 77.37456
#
# Poissons Ratio (x) = 0.33292 0.15333
# Poissons Ratio (y) = 0.33291 0.15332
# Poissons Ratio (z) = 0.16211 0.16211
#
# Static dielectric constant tensor:
#      x y z
#    x 4.714700 0.000000 0.000000 
#    y 0.000000 4.714690 0.000000 
#    z 0.000000 0.000000 4.464740 
# 
# 
# High freq. dielectric constant tensor:
#      x y z
#    x 2.057860 0.000000 0.000000 
#    y 0.000000 2.057860 0.000000 
#    z 0.000000 0.000000 2.032500 
# 
# From -- ./inp_files/3277.got.cif
#   From: 2010.03.12/outbox.cif.g09.slc.cpg/sg97_2_cif.got.tgz:3277.got - 2010.04.08 20:59:42.
