data_PCOD8306862
_publ_section_title
;
Structure prediction by ZEFSAII (Michael W. Deem and Ramdas Pophale) SiO2 
 PCOD8306862
Probable space group: P 42 N M
;
_chemical_formula_sum "Si O2"
_cell_formula_units_Z 48
_cell_length_a 19.870304
_cell_length_b 19.870304
_cell_length_c 7.583735
_cell_angle_alpha 90.000000
_cell_angle_beta 90.000000
_cell_angle_gamma 90.000000
_cell_volume 2994.278363
_symmetry_space_group_name_H-M "P 42 N M"
_symmetry_group_IT_number 102
_symmetry_cell_setting 'tetragonal'
loop_
_space_group_symop_operation_xyz
x,y,z
1/2-y,1/2+x,1/2+z
-x,-y,z
1/2+y,1/2-x,1/2+z
1/2-x,1/2+y,1/2+z
1/2+x,1/2-y,1/2+z
-y,-x,z
y,x,z
loop_
_atom_site_type_symbol
_atom_site_label
_atom_site_fract_x
_atom_site_fract_y
_atom_site_fract_z
Si Si1 0.448055 0.335222 0.183220
Si Si2 0.159440 0.727165 0.683220
Si Si3 0.159581 0.272738 0.879746
Si Si4 0.944162 0.832973 0.981053
Si Si5 0.227262 0.659581 0.986694
Si Si6 0.055838 0.167026 0.385387
O O1 0.393645 0.393645 0.183220
O O2 0.413171 0.261957 0.183220
O O3 0.491308 0.342552 0.359447
O O4 0.491308 0.342551 0.006993
O O5 0.217342 0.782659 0.683218
O O6 0.166751 0.680155 0.510141
O O7 0.166752 0.680155 0.856299
O O8 0.216436 0.216436 0.883953
O O9 0.150972 0.302495 0.683220
O O10 0.090036 0.239032 0.942897
O O11 0.892273 0.892273 0.935978
O O12 0.967876 0.836317 0.183220
O O13 0.283564 0.716437 0.982488
O O14 0.260968 0.590036 0.923542
O O15 0.107726 0.107726 0.430463
#
# Coordination Sequence:
#
# PCOD8306862 Si02
#       6
#     8   8   8   8   8   8
#     4  11  23  34  45  70 111 141 159 196 254 301
#     4   9  18  31  46  69  98 124 154 205 261 297
#     4   9  15  27  50  72  87 116 164 210 248 282
#     4  10  19  32  51  71  95 134 179 210 231 276
#     4   9  15  27  50  72  87 116 164 210 248 282
#     4  10  19  32  51  71  95 134 179 210 231 276
#
# _framework density 16.030571999999999
#
# number of rings (size 3 to 8) (size 9 to 14) (size 15 to 20)
#    0.000    2.333    3.333    0.500    0.000    3.333 
#    0.000    5.000    0.000    0.000    0.000    0.000 
#    0.000    4.000    0.000    0.000    0.000    0.000 
#
# Total GULP energy -595131.067333 kJ/mol
# GULP energy per Si atom -12398.563903 kJ/mol
# Density = 1.599409 g / cm^3
# Si number density = 16.030572 Si / 1000 Ang^3
#
#
#
# Elastic Constant Matrix: (Units=GPa)
#
#
# Indices 1 2 3 4 5 6 
#
# 1 54.6177 54.9612 54.5533 0.0000 0.0000 0.0000
# 2 54.9612 54.6177 54.5533 0.0000 0.0000 0.0000
# 3 54.5533 54.5533 149.4324 0.0000 0.0000 0.0000
# 4 0.0000 0.0000 0.0000 16.9341 0.0000 0.0000
# 5 0.0000 0.0000 0.0000 0.0000 16.9341 0.0000
# 6 0.0000 0.0000 0.0000 0.0000 0.0000 18.7450
#
#
#
# Elastic Compliance Matrix: (Units=1/GPa)
#
#
# Indices 1 2 3 4 5 6 
#
# 1 -1.448590 1.462928 -0.005234 0.000000 0.000000 0.000004
# 2 1.462928 -1.448590 -0.005234 0.000000 0.000000 -0.000004
# 3 -0.005234 -0.005234 0.010514 0.000000 0.000000 0.000000
# 4 0.000000 0.000000 0.000000 0.059052 0.000000 0.000000
# 5 0.000000 0.000000 0.000000 0.000000 0.059052 0.000000
# 6 0.000004 -0.000004 0.000000 0.000000 0.000000 0.053347
#
#
# Mechanical properties :
#
#
# Convention : Reuss Voigt Hill
#
# Bulk Modulus (GPa) = 54.78885 65.20038 59.99462
# Shear Modulus (GPa) = -0.89062 16.82933 7.96935
#
# Velocity S-wave (km/s) = -0.74618 3.24362 2.23207
# Velocity P-wave (km/s) = 5.78874 7.40195 6.64449
#
# Compressibility (1/GPa) = 0.01825189
#
# Stress axis : x y z
#
# Youngs Moduli (GPa) = -0.69033 -0.69033 95.11413
#
# Poissons Ratio (x) = 1.00990 0.49785
# Poissons Ratio (y) = 1.00990 0.49785
# Poissons Ratio (z) = -0.00361 -0.00361
#
# Static dielectric constant tensor:
#      x y z
#    x 2.836410 0.000000 0.000000 
#    y 0.000000 2.836410 0.000000 
#    z 0.000000 0.000000 3.336140 
# 
# 
# High freq. dielectric constant tensor:
#      x y z
#    x 1.581780 0.000000 0.000000 
#    y 0.000000 1.581780 0.000000 
#    z 0.000000 0.000000 1.640390 
# 
# From -- ./inp_files/1052.got.cif
#   From: 2010.03.12/outbox.cif.g09.slc.cpg/sg102_1_cif.got.tgz:1052.got - 2010.04.14 01:40:42.
