data_PCOD8306911
_publ_section_title
;
Structure prediction by ZEFSAII (Michael W. Deem and Ramdas Pophale) SiO2 
 PCOD8306911
Probable space group: P 42 N M
;
_chemical_formula_sum "Si O2"
_cell_formula_units_Z 24
_cell_length_a 12.002796
_cell_length_b 12.002796
_cell_length_c 8.295913
_cell_angle_alpha 90.000000
_cell_angle_beta 90.000000
_cell_angle_gamma 90.000000
_cell_volume 1195.168226
_symmetry_space_group_name_H-M "P 42 N M"
_symmetry_group_IT_number 102
_symmetry_cell_setting 'tetragonal'
loop_
_space_group_symop_operation_xyz
x,y,z
1/2-y,1/2+x,1/2+z
-x,-y,z
1/2+y,1/2-x,1/2+z
1/2-x,1/2+y,1/2+z
1/2+x,1/2-y,1/2+z
-y,-x,z
y,x,z
loop_
_atom_site_type_symbol
_atom_site_label
_atom_site_fract_x
_atom_site_fract_y
_atom_site_fract_z
Si Si1 0.088938 0.088938 0.725320
Si Si2 0.332022 0.024114 0.345420
Si Si3 0.411062 0.588939 0.841793
Si Si4 0.524114 0.167978 0.221696
O O1 0.090219 0.090219 0.533557
O O2 0.210902 0.056269 0.790079
O O3 0.000000 0.000000 0.792104
O O4 0.210902 0.056269 0.277035
O O5 0.415244 0.127138 0.316968
O O6 0.328231 0.995236 0.533558
O O7 0.372862 0.915244 0.250147
O O8 0.500000 0.500000 0.775010
#
# Coordination Sequence:
#
# PCOD8306911 Si02
#       4
#     4   8   4   8
#     4   9  20  36  55  80 109 144 180 219 267 321
#     4  10  20  36  58  81 109 142 181 221 269 322
#     4   9  20  36  55  80 109 144 180 219 267 321
#     4  10  20  36  58  81 109 142 181 221 269 322
#
# _framework density 20.080856000000001
#
# number of rings (size 3 to 8) (size 9 to 14) (size 15 to 20)
#    0.000    2.333    0.000    4.000    4.667    0.000 
#    0.000    5.000    0.000    8.000    0.000    0.000 
#    0.000    0.000    0.000    0.000    0.000    0.000 
#
# Total GULP energy -297655.590372 kJ/mol
# GULP energy per Si atom -12402.316266 kJ/mol
# Density = 2.003515 g / cm^3
# Si number density = 20.080856 Si / 1000 Ang^3
#
#
#
# Elastic Constant Matrix: (Units=GPa)
#
#
# Indices 1 2 3 4 5 6 
#
# 1 174.6265 95.4236 -1.7036 0.0000 0.0000 -0.0003
# 2 95.4236 174.6265 -1.7036 0.0000 0.0000 0.0003
# 3 -1.7036 -1.7036 27.0384 0.0000 0.0000 0.0000
# 4 0.0000 0.0000 0.0000 22.2919 0.0000 0.0000
# 5 0.0000 0.0000 0.0000 0.0000 22.2919 0.0000
# 6 -0.0003 0.0003 0.0000 0.0000 0.0000 23.7934
#
#
#
# Elastic Compliance Matrix: (Units=1/GPa)
#
#
# Indices 1 2 3 4 5 6 
#
# 1 0.008166 -0.004460 0.000234 0.000000 0.000000 0.000000
# 2 -0.004460 0.008166 0.000234 0.000000 0.000000 0.000000
# 3 0.000234 0.000234 0.037014 0.000000 0.000000 0.000000
# 4 0.000000 0.000000 0.000000 0.044859 0.000000 0.000000
# 5 0.000000 0.000000 0.000000 0.000000 0.044859 0.000000
# 6 0.000000 0.000000 0.000000 0.000000 0.000000 0.042028
#
#
# Mechanical properties :
#
#
# Convention : Reuss Voigt Hill
#
# Bulk Modulus (GPa) = 22.04596 62.25823 42.15209
# Shear Modulus (GPa) = 24.01556 32.62712 28.32134
#
# Velocity S-wave (km/s) = 3.46199 4.03524 3.75956
# Velocity P-wave (km/s) = 5.19451 7.26512 6.31526
#
# Compressibility (1/GPa) = 0.04535978
#
# Stress axis : x y z
#
# Youngs Moduli (GPa) = 122.46074 122.46074 27.01691
#
# Poissons Ratio (x) = 0.54616 -0.00631
# Poissons Ratio (y) = 0.54616 -0.00631
# Poissons Ratio (z) = -0.02859 -0.02859
#
# Static dielectric constant tensor:
#      x y z
#    x 3.819180 0.000000 0.000000 
#    y 0.000000 3.819180 0.000000 
#    z 0.000000 0.000000 3.310420 
# 
# 
# High freq. dielectric constant tensor:
#      x y z
#    x 1.790830 0.000000 0.000000 
#    y 0.000000 1.790830 0.000000 
#    z 0.000000 0.000000 1.758320 
# 
# From -- ./inp_files/654.got.cif
#   From: 2010.03.12/outbox.cif.g09.slc.cpg/sg102_1_cif.got.tgz:654.got - 2010.04.14 01:40:42.
