data_PCOD8306962
_publ_section_title
;
Structure prediction by ZEFSAII (Michael W. Deem and Ramdas Pophale) SiO2 
 PCOD8306962
Probable space group: P 4 C C
;
_chemical_formula_sum "Si O2"
_cell_formula_units_Z 60
_cell_length_a 13.833085
_cell_length_b 13.833085
_cell_length_c 15.471168
_cell_angle_alpha 90.000000
_cell_angle_beta 90.000000
_cell_angle_gamma 90.000000
_cell_volume 2960.473604
_symmetry_space_group_name_H-M "P 4 C C"
_symmetry_group_IT_number 103
_symmetry_cell_setting 'tetragonal'
loop_
_space_group_symop_operation_xyz
x,y,z
-y,x,z
-x,-y,z
y,-x,z
-x,y,1/2+z
x,-y,1/2+z
-y,-x,1/2+z
y,x,1/2+z
loop_
_atom_site_type_symbol
_atom_site_label
_atom_site_fract_x
_atom_site_fract_y
_atom_site_fract_z
Si Si1 0.901769 0.124706 0.831290
Si Si2 0.210338 0.277500 0.222284
Si Si3 0.660943 0.722714 0.073618
Si Si4 0.770600 0.540213 0.007904
Si Si5 0.938822 0.646425 0.091043
Si Si6 0.725026 0.903615 0.971616
Si Si7 0.157769 0.564140 0.847528
Si Si8 0.000000 0.500000 0.723590
O O1 0.829977 0.183418 0.769582
O O2 0.893784 0.169296 0.927614
O O3 0.016268 0.133895 0.814820
O O4 0.314540 0.269854 0.175937
O O5 0.138557 0.291153 0.142023
O O6 0.223225 0.367489 0.287032
O O7 0.695284 0.626385 0.022850
O O8 0.546169 0.732617 0.068123
O O9 0.716191 0.808927 0.027659
O O10 0.880435 0.567528 0.034081
O O11 0.775452 0.503954 0.907988
O O12 0.006406 0.593766 0.161978
O O13 0.001215 0.717509 0.030999
O O14 0.636625 0.910199 0.903079
O O15 0.093620 0.497914 0.784818
#
# Coordination Sequence:
#
# PCOD8306962 Si02
#       8
#     8   8   8   8   8   8   8   4
#     4  10  23  41  59  86 126 165 208 250 310 390
#     4   9  21  38  56  89 122 158 205 256 312 371
#     4  10  22  39  63  88 122 161 212 259 320 371
#     4  10  21  40  60  90 122 164 207 264 310 393
#     4  10  20  34  58  88 122 150 212 252 309 372
#     4  10  21  38  59  88 117 162 204 253 310 372
#     4   9  18  34  54  85 125 149 200 250 314 370
#     4  10  16  30  54  90 114 156 186 260 318 356
#
# _framework density 20.267026000000001
#
# number of rings (size 3 to 8) (size 9 to 14) (size 15 to 20)
#    0.000    2.267    0.000    2.400    5.600    0.267 
#    2.400   12.000    0.000    0.000    0.000   18.667 
#    0.000    0.000    0.000    0.000    0.000    0.000 
#
# Total GULP energy -743598.109991 kJ/mol
# GULP energy per Si atom -12393.301833 kJ/mol
# Density = 2.022090 g / cm^3
# Si number density = 20.267026 Si / 1000 Ang^3
#
#
#
# Elastic Constant Matrix: (Units=GPa)
#
#
# Indices 1 2 3 4 5 6 
#
# 1 79.8115 31.1121 31.8339 0.0000 0.0000 0.0000
# 2 31.1121 79.8115 31.8339 0.0000 0.0000 0.0000
# 3 31.8339 31.8339 104.6935 0.0000 0.0000 0.0000
# 4 0.0000 0.0000 0.0000 28.4947 0.0000 0.0000
# 5 0.0000 0.0000 0.0000 0.0000 28.4947 0.0000
# 6 0.0000 0.0000 0.0000 0.0000 0.0000 20.9123
#
#
#
# Elastic Compliance Matrix: (Units=1/GPa)
#
#
# Indices 1 2 3 4 5 6 
#
# 1 0.015728 -0.004806 -0.003321 0.000000 0.000000 0.000000
# 2 -0.004806 0.015728 -0.003321 0.000000 0.000000 0.000000
# 3 -0.003321 -0.003321 0.011571 0.000000 0.000000 0.000000
# 4 0.000000 0.000000 0.000000 0.035094 0.000000 0.000000
# 5 0.000000 0.000000 0.000000 0.000000 0.035094 0.000000
# 6 0.000000 0.000000 0.000000 0.000000 0.000000 0.047819
#
#
# Mechanical properties :
#
#
# Convention : Reuss Voigt Hill
#
# Bulk Modulus (GPa) = 49.67580 50.43071 50.05325
# Shear Modulus (GPa) = 26.22744 26.88280 26.55512
#
# Velocity S-wave (km/s) = 3.60125 3.64597 3.62368
# Velocity P-wave (km/s) = 6.46961 6.53156 6.50066
#
# Compressibility (1/GPa) = 0.02013053
#
# Stress axis : x y z
#
# Youngs Moduli (GPa) = 63.58206 63.58206 86.42160
#
# Poissons Ratio (x) = 0.30560 0.28699
# Poissons Ratio (y) = 0.30560 0.28699
# Poissons Ratio (z) = 0.21114 0.21114
#
# Static dielectric constant tensor:
#      x y z
#    x 3.639080 0.000000 0.000000 
#    y 0.000000 3.639080 0.000000 
#    z 0.000000 0.000000 4.066040 
# 
# 
# High freq. dielectric constant tensor:
#      x y z
#    x 1.779770 0.000000 0.000000 
#    y 0.000000 1.779770 0.000000 
#    z 0.000000 0.000000 1.802910 
# 
# From -- ./inp_files/916.got.cif
#   From: 2010.03.12/outbox.cif.g09.slc.cpg/sg103_cif.got.tgz:916.got - 2010.04.14 01:42:52.
