data_PCOD8306181
_publ_section_title
;
Structure prediction by ZEFSAII (Michael W. Deem and Ramdas Pophale) SiO2 
 PCOD8306181
Probable space group: I 4 2 2 
;
_chemical_formula_sum "Si O2"
_cell_formula_units_Z 52
_cell_length_a 13.580923
_cell_length_b 13.580923
_cell_length_c 13.247057
_cell_angle_alpha 90.000000
_cell_angle_beta 90.000000
_cell_angle_gamma 90.000000
_cell_volume 2443.306660
_symmetry_space_group_name_H-M "I 4 2 2 "
_symmetry_group_IT_number 97
_symmetry_cell_setting 'tetragonal'
loop_
_space_group_symop_operation_xyz
x,y,z
-y,x,z
-x,-y,z
y,-x,z
x,-y,-z
-x,y,-z
y,x,-z
-y,-x,-z
1/2+x,1/2+y,1/2+z
1/2-y,1/2+x,1/2+z
1/2-x,1/2-y,1/2+z
1/2+y,1/2-x,1/2+z
1/2+x,1/2-y,1/2-z
1/2-x,1/2+y,1/2-z
1/2+y,1/2+x,1/2-z
1/2-y,1/2-x,1/2-z
loop_
_atom_site_type_symbol
_atom_site_label
_atom_site_fract_x
_atom_site_fract_y
_atom_site_fract_z
Si Si1 0.061634 0.340523 0.899917
Si Si2 0.936416 0.147024 0.216675
Si Si3 0.500000 0.000000 0.750000
Si Si4 0.094585 0.225296 0.562300
O O1 0.096798 0.236466 0.854515
O O2 0.997188 0.401800 0.818866
O O3 0.157693 0.403753 0.924986
O O4 0.000000 0.322220 0.000000
O O5 0.913338 0.172333 0.331250
O O6 0.051001 0.127941 0.192628
O O7 0.190391 0.190391 0.500000
O O8 0.000000 0.192642 0.500000
#
# Coordination Sequence:
#
# PCOD8306181 Si02
#       4
#    16  16   4  16
#     4  12  28  46  71 107 143 191 235 293 364 430
#     4  11  25  47  72 102 140 185 238 296 352 422
#     4  12  22  48  72 102 148 176 236 290 356 426
#     4  12  24  44  75 106 139 182 241 299 353 418
#
# _framework density 21.282634000000002
#
# number of rings (size 3 to 8) (size 9 to 14) (size 15 to 20)
#    0.000    0.308    6.154    2.308    4.308    0.308 
#    0.000    1.538    0.000    0.000    0.000    0.000 
#    0.000    0.000    0.000    0.000    0.000    0.000 
#
# Total GULP energy -322585.631878 kJ/mol
# GULP energy per Si atom -12407.139688 kJ/mol
# Density = 2.123419 g / cm^3
# Si number density = 21.282634 Si / 1000 Ang^3
#
#
#
# Elastic Constant Matrix: (Units=GPa)
#
#
# Indices 1 2 3 4 5 6 
#
# 1 84.3848 6.9754 27.2626 0.0000 0.0000 0.0000
# 2 6.9754 84.3848 27.2626 0.0000 0.0000 0.0000
# 3 27.2626 27.2626 120.4907 0.0000 0.0000 0.0000
# 4 0.0000 0.0000 0.0000 32.7633 0.0000 0.0000
# 5 0.0000 0.0000 0.0000 0.0000 32.7633 0.0000
# 6 0.0000 0.0000 0.0000 0.0000 0.0000 25.9662
#
#
#
# Elastic Compliance Matrix: (Units=1/GPa)
#
#
# Indices 1 2 3 4 5 6 
#
# 1 0.012786 -0.000132 -0.002863 0.000000 0.000000 0.000000
# 2 -0.000132 0.012786 -0.002863 0.000000 0.000000 0.000000
# 3 -0.002863 -0.002863 0.009595 0.000000 0.000000 0.000000
# 4 0.000000 0.000000 0.000000 0.030522 0.000000 0.000000
# 5 0.000000 0.000000 0.000000 0.000000 0.030522 0.000000
# 6 0.000000 0.000000 0.000000 0.000000 0.000000 0.038512
#
#
# Mechanical properties :
#
#
# Convention : Reuss Voigt Hill
#
# Bulk Modulus (GPa) = 42.64187 45.80681 44.22434
# Shear Modulus (GPa) = 32.41337 33.48253 32.94795
#
# Velocity S-wave (km/s) = 3.90679 3.97070 3.93888
# Velocity P-wave (km/s) = 6.35847 6.52624 6.44290
#
# Compressibility (1/GPa) = 0.02345113
#
# Stress axis : x y z
#
# Youngs Moduli (GPa) = 78.20799 78.20799 104.21995
#
# Poissons Ratio (x) = 0.01032 0.29841
# Poissons Ratio (y) = 0.01032 0.29841
# Poissons Ratio (z) = 0.22393 0.22393
#
# Static dielectric constant tensor:
#      x y z
#    x 3.676800 0.000000 0.000000 
#    y 0.000000 3.676800 0.000000 
#    z 0.000000 0.000000 4.071390 
# 
# 
# High freq. dielectric constant tensor:
#      x y z
#    x 1.837880 0.000000 0.000000 
#    y 0.000000 1.837880 0.000000 
#    z 0.000000 0.000000 1.849370 
# 
# From -- ./inp_files/3300.got.cif
#   From: 2010.03.12/outbox.cif.g09.slc.cpg/sg97_2_cif.got.tgz:3300.got - 2010.04.08 20:59:42.
