data_PCOD8306988
_publ_section_title
;
Structure prediction by ZEFSAII (Michael W. Deem and Ramdas Pophale) SiO2 
 PCOD8306988
Probable space group: P 4 C C
;
_chemical_formula_sum "Si O2"
_cell_formula_units_Z 40
_cell_length_a 14.557680
_cell_length_b 14.557680
_cell_length_c 9.222069
_cell_angle_alpha 90.000000
_cell_angle_beta 90.000000
_cell_angle_gamma 90.000000
_cell_volume 1954.396628
_symmetry_space_group_name_H-M "P 4 C C"
_symmetry_group_IT_number 103
_symmetry_cell_setting 'tetragonal'
loop_
_space_group_symop_operation_xyz
x,y,z
-y,x,z
-x,-y,z
y,-x,z
-x,y,1/2+z
x,-y,1/2+z
-y,-x,1/2+z
y,x,1/2+z
loop_
_atom_site_type_symbol
_atom_site_label
_atom_site_fract_x
_atom_site_fract_y
_atom_site_fract_z
Si Si1 0.121254 0.548090 0.730630
Si Si2 0.386674 0.403509 0.523482
Si Si3 0.876101 0.663462 0.734561
Si Si4 0.676379 0.290842 0.269243
Si Si5 0.376731 0.002592 0.983420
O O1 0.156361 0.443443 0.731171
O O2 0.201964 0.621788 0.716262
O O3 0.065393 0.560456 0.879364
O O4 0.056678 0.559794 0.591209
O O5 0.490052 0.372157 0.489059
O O6 0.312509 0.342421 0.437083
O O7 0.363629 0.381271 0.689656
O O8 0.784748 0.725421 0.742578
O O9 0.932702 0.687067 0.586860
O O10 0.937902 0.684410 0.877650
#
# Coordination Sequence:
#
# PCOD8306988 Si02
#       5
#     8   8   8   8   8
#     4  11  20  35  55  78 108 141 180 222 271 323
#     4  11  22  36  50  70 108 156 194 219 252 300
#     4  11  20  35  55  78 108 141 180 222 271 323
#     4  12  24  35  54  82 110 141 186 234 272 314
#     4  10  21  36  56  76 102 143 180 221 276 330
#
# _framework density 20.466674999999999
#
# number of rings (size 3 to 8) (size 9 to 14) (size 15 to 20)
#    0.000    1.000    0.000   10.800    0.000    1.600 
#    0.000    0.000    0.000    0.000    0.000    0.000 
#    0.000   56.000    0.000    0.000    0.000    0.000 
#
# Total GULP energy -495967.035886 kJ/mol
# GULP energy per Si atom -12399.175897 kJ/mol
# Density = 2.042009 g / cm^3
# Si number density = 20.466675 Si / 1000 Ang^3
#
#
#
# Elastic Constant Matrix: (Units=GPa)
#
#
# Indices 1 2 3 4 5 6 
#
# 1 72.6754 44.1412 22.7273 0.0000 0.0000 0.0000
# 2 44.1412 72.6754 22.7273 0.0000 0.0000 0.0000
# 3 22.7273 22.7273 118.5626 0.0000 0.0000 0.0000
# 4 0.0000 0.0000 0.0000 118.4284 0.0000 0.0000
# 5 0.0000 0.0000 0.0000 0.0000 118.4284 0.0000
# 6 0.0000 0.0000 0.0000 0.0000 0.0000 27.0218
#
#
#
# Elastic Compliance Matrix: (Units=1/GPa)
#
#
# Indices 1 2 3 4 5 6 
#
# 1 0.022148 -0.012898 -0.001773 0.000000 0.000000 0.000000
# 2 -0.012898 0.022148 -0.001773 0.000000 0.000000 0.000000
# 3 -0.001773 -0.001773 0.009114 0.000000 0.000000 0.000000
# 4 0.000000 0.000000 0.000000 0.008444 0.000000 0.000000
# 5 0.000000 0.000000 0.000000 0.000000 0.008444 0.000000
# 6 0.000000 0.000000 0.000000 0.000000 0.000000 0.037007
#
#
# Mechanical properties :
#
#
# Convention : Reuss Voigt Hill
#
# Bulk Modulus (GPa) = 48.72789 49.23390 48.98089
# Shear Modulus (GPa) = 34.00576 64.39691 49.20133
#
# Velocity S-wave (km/s) = 4.08060 5.61539 4.90835
# Velocity P-wave (km/s) = 6.78688 8.13335 7.49043
#
# Compressibility (1/GPa) = 0.02052213
#
# Stress axis : x y z
#
# Youngs Moduli (GPa) = 45.15082 45.15082 109.71909
#
# Poissons Ratio (x) = 0.58234 0.19456
# Poissons Ratio (y) = 0.58234 0.19456
# Poissons Ratio (z) = 0.08006 0.08006
#
# Static dielectric constant tensor:
#      x y z
#    x 3.442090 0.000000 0.000000 
#    y 0.000000 3.442090 0.000000 
#    z 0.000000 0.000000 4.061490 
# 
# 
# High freq. dielectric constant tensor:
#      x y z
#    x 1.767680 0.000000 0.000000 
#    y 0.000000 1.767680 0.000000 
#    z 0.000000 0.000000 1.832650 
# 
# From -- ./inp_files/187.got.cif
#   From: 2010.03.12/outbox.cif.g09.slc.cpg/sg103_cif.got.tgz:187.got - 2010.04.14 01:42:52.
