data_PCOD8306155
_publ_section_title
;
Structure prediction by ZEFSAII (Michael W. Deem and Ramdas Pophale) SiO2 
 PCOD8306155
Probable space group: I 4 2 2 
;
_chemical_formula_sum "Si O2"
_cell_formula_units_Z 40
_cell_length_a 14.034174
_cell_length_b 14.034174
_cell_length_c 7.514324
_cell_angle_alpha 90.000000
_cell_angle_beta 90.000000
_cell_angle_gamma 90.000000
_cell_volume 1480.006526
_symmetry_space_group_name_H-M "I 4 2 2 "
_symmetry_group_IT_number 97
_symmetry_cell_setting 'tetragonal'
loop_
_space_group_symop_operation_xyz
x,y,z
-y,x,z
-x,-y,z
y,-x,z
x,-y,-z
-x,y,-z
y,x,-z
-y,-x,-z
1/2+x,1/2+y,1/2+z
1/2-y,1/2+x,1/2+z
1/2-x,1/2-y,1/2+z
1/2+y,1/2-x,1/2+z
1/2+x,1/2-y,1/2-z
1/2-x,1/2+y,1/2-z
1/2+y,1/2+x,1/2-z
1/2-y,1/2-x,1/2-z
loop_
_atom_site_type_symbol
_atom_site_label
_atom_site_fract_x
_atom_site_fract_y
_atom_site_fract_z
Si Si1 0.284191 0.215810 0.250000
Si Si2 0.895862 0.389373 0.954734
Si Si3 0.397758 0.609545 0.210245
O O1 0.314945 0.159896 0.427410
O O2 0.308090 0.327258 0.283222
O O3 0.871060 0.371060 0.750000
O O4 0.893410 0.500000 0.000000
O O5 0.000000 0.347724 0.000000
O O6 0.366397 0.504235 0.279947
O O7 0.394731 0.605270 0.000000
#
# Coordination Sequence:
#
# PCOD8306155 Si02
#       3
#     8  16  16
#     4  12  24  43  78 115 142 208 268 322 396 492
#     4  11  21  39  64 106 159 204 253 331 408 465
#     4   9  22  48  78 112 159 208 260 328 397 466
#
# _framework density 27.026907999999999
#
# number of rings (size 3 to 8) (size 9 to 14) (size 15 to 20)
#    0.000    1.600    4.000    2.400    5.600    0.000 
#   10.800    0.000    0.000    4.800    0.000    5.600 
#    0.000    0.000    0.000    0.000    0.000    0.000 
#
# Total GULP energy -248047.771504 kJ/mol
# GULP energy per Si atom -12402.388575 kJ/mol
# Density = 2.696539 g / cm^3
# Si number density = 27.026908 Si / 1000 Ang^3
#
#
#
# Elastic Constant Matrix: (Units=GPa)
#
#
# Indices 1 2 3 4 5 6 
#
# 1 166.5608 80.6564 8.5516 0.0000 0.0000 0.0000
# 2 80.6564 166.5646 8.5513 0.0000 0.0000 0.0000
# 3 8.5516 8.5513 154.6216 0.0000 0.0000 0.0000
# 4 0.0000 0.0000 0.0000 11.8385 0.0000 0.0000
# 5 0.0000 0.0000 0.0000 0.0000 11.8405 0.0000
# 6 0.0000 0.0000 0.0000 0.0000 0.0000 45.1977
#
#
#
# Elastic Compliance Matrix: (Units=1/GPa)
#
#
# Indices 1 2 3 4 5 6 
#
# 1 0.007851 -0.003790 -0.000225 0.000000 0.000000 0.000000
# 2 -0.003790 0.007850 -0.000225 0.000000 0.000000 0.000000
# 3 -0.000225 -0.000225 0.006492 0.000000 0.000000 0.000000
# 4 0.000000 0.000000 0.000000 0.084470 0.000000 0.000000
# 5 0.000000 0.000000 0.000000 0.000000 0.084456 0.000000
# 6 0.000000 0.000000 0.000000 0.000000 0.000000 0.022125
#
#
# Mechanical properties :
#
#
# Convention : Reuss Voigt Hill
#
# Bulk Modulus (GPa) = 72.91276 75.91841 74.41559
# Shear Modulus (GPa) = 22.09512 39.77452 30.93482
#
# Velocity S-wave (km/s) = 2.86234 3.84039 3.38685
# Velocity P-wave (km/s) = 6.16120 6.91489 6.54890
#
# Compressibility (1/GPa) = 0.01371502
#
# Stress axis : x y z
#
# Youngs Moduli (GPa) = 127.37796 127.38093 154.02998
#
# Poissons Ratio (x) = 0.48278 0.03459
# Poissons Ratio (y) = 0.48277 0.03459
# Poissons Ratio (z) = 0.02861 0.02860
#
# Static dielectric constant tensor:
#      x y z
#    x 5.324650 0.000000 0.000000 
#    y 0.000000 5.324600 0.000000 
#    z 0.000000 0.000000 4.578930 
# 
# 
# High freq. dielectric constant tensor:
#      x y z
#    x 2.096280 0.000000 0.000000 
#    y 0.000000 2.096280 0.000000 
#    z 0.000000 0.000000 2.077290 
# 
# From -- ./inp_files/1454.got.cif
#   From: 2010.03.12/outbox.cif.g09.slc.cpg/sg97_1_cif.got.tgz:1454.got - 2010.04.08 20:59:42.
