data_PCOD8306057
_publ_section_title
;
Structure prediction by ZEFSAII (Michael W. Deem and Ramdas Pophale) SiO2 
 PCOD8306057
Probable space group: I 4 2 2 
;
_chemical_formula_sum "Si O2"
_cell_formula_units_Z 112
_cell_length_a 14.167825
_cell_length_b 14.167825
_cell_length_c 25.929921
_cell_angle_alpha 90.000000
_cell_angle_beta 90.000000
_cell_angle_gamma 90.000000
_cell_volume 5204.842130
_symmetry_space_group_name_H-M "I 4 2 2 "
_symmetry_group_IT_number 97
_symmetry_cell_setting 'tetragonal'
loop_
_space_group_symop_operation_xyz
x,y,z
-y,x,z
-x,-y,z
y,-x,z
x,-y,-z
-x,y,-z
y,x,-z
-y,-x,-z
1/2+x,1/2+y,1/2+z
1/2-y,1/2+x,1/2+z
1/2-x,1/2-y,1/2+z
1/2+y,1/2-x,1/2+z
1/2+x,1/2-y,1/2-z
1/2-x,1/2+y,1/2-z
1/2+y,1/2+x,1/2-z
1/2-y,1/2-x,1/2-z
loop_
_atom_site_type_symbol
_atom_site_label
_atom_site_fract_x
_atom_site_fract_y
_atom_site_fract_z
Si Si1 0.314187 0.304145 0.881744
Si Si2 0.455360 0.791742 0.449766
Si Si3 0.216211 0.873849 0.146481
Si Si4 0.427365 0.638135 0.788887
Si Si5 0.696106 0.945313 0.551732
Si Si6 0.067957 0.749121 0.191440
Si Si7 0.117586 0.625194 0.391625
O O1 0.297639 0.207289 0.849064
O O2 0.329689 0.396117 0.845778
O O3 0.399745 0.289584 0.921936
O O4 0.217192 0.325658 0.912399
O O5 0.500000 0.742115 0.500000
O O6 0.415390 0.712817 0.411484
O O7 0.373626 0.863473 0.467079
O O8 0.533396 0.853978 0.422008
O O9 0.112601 0.831814 0.155749
O O10 0.244412 0.954850 0.187231
O O11 0.374231 0.539008 0.780778
O O12 0.397884 0.722441 0.749195
O O13 0.727062 0.000000 0.500000
O O14 0.644718 0.007613 0.596482
O O15 0.107029 0.647592 0.169481
#
# Coordination Sequence:
#
# PCOD8306057 Si02
#       7
#    16  16  16  16  16  16  16
#     4  10  23  40  56  90 128 161 210 270 321 391
#     4  10  19  36  60  89 123 162 217 254 310 390
#     4   9  20  35  57  87 122 159 198 266 314 378
#     4  11  22  39  67  90 115 163 215 266 323 404
#     4  11  21  37  62  90 128 170 212 265 328 396
#     4  10  19  38  58  90 119 156 210 260 329 384
#     4  10  21  35  58  88 123 161 206 266 314 386
#
# _framework density 21.518422999999999
#
# number of rings (size 3 to 8) (size 9 to 14) (size 15 to 20)
#    0.000    1.857    2.857    1.286    0.000    3.143 
#    2.571    2.143    0.000    0.000    0.000   12.000 
#    0.000    0.000    0.000    0.000    0.000    0.000 
#
# Total GULP energy -693731.414971 kJ/mol
# GULP energy per Si atom -12388.060982 kJ/mol
# Density = 2.146945 g / cm^3
# Si number density = 21.518423 Si / 1000 Ang^3
#
#
#
# Elastic Constant Matrix: (Units=GPa)
#
#
# Indices 1 2 3 4 5 6 
#
# 1 48.5744 2.6062 18.9396 0.0000 0.0000 0.0000
# 2 2.6062 48.5744 18.9396 0.0000 0.0000 0.0000
# 3 18.9396 18.9396 97.3571 0.0000 0.0000 0.0000
# 4 0.0000 0.0000 0.0000 32.2770 0.0000 0.0000
# 5 0.0000 0.0000 0.0000 0.0000 32.2770 0.0000
# 6 0.0000 0.0000 0.0000 0.0000 0.0000 20.4997
#
#
#
# Elastic Compliance Matrix: (Units=1/GPa)
#
#
# Indices 1 2 3 4 5 6 
#
# 1 0.022290 0.000535 -0.004440 0.000000 0.000000 0.000000
# 2 0.000535 0.022290 -0.004440 0.000000 0.000000 0.000000
# 3 -0.004440 -0.004440 0.011999 0.000000 0.000000 0.000000
# 4 0.000000 0.000000 0.000000 0.030982 0.000000 0.000000
# 5 0.000000 0.000000 0.000000 0.000000 0.030982 0.000000
# 6 0.000000 0.000000 0.000000 0.000000 0.000000 0.048781
#
#
# Mechanical properties :
#
#
# Convention : Reuss Voigt Hill
#
# Bulk Modulus (GPa) = 25.07035 30.60851 27.83943
# Shear Modulus (GPa) = 25.34092 27.27879 26.30986
#
# Velocity S-wave (km/s) = 3.43540 3.56433 3.50046
# Velocity P-wave (km/s) = 5.23563 5.58520 5.41324
#
# Compressibility (1/GPa) = 0.03988776
#
# Stress axis : x y z
#
# Youngs Moduli (GPa) = 44.86407 44.86407 83.33983
#
# Poissons Ratio (x) = -0.02402 0.37005
# Poissons Ratio (y) = -0.02402 0.37005
# Poissons Ratio (z) = 0.19921 0.19921
#
# Static dielectric constant tensor:
#      x y z
#    x 3.966110 0.000000 0.000000 
#    y 0.000000 3.966110 0.000000 
#    z 0.000000 0.000000 3.918960 
# 
# 
# High freq. dielectric constant tensor:
#      x y z
#    x 1.836360 0.000000 0.000000 
#    y 0.000000 1.836360 0.000000 
#    z 0.000000 0.000000 1.827840 
# 
# From -- ./inp_files/7282.got.cif
#   From: 2010.03.12/outbox.cif.g09.slc.cpg/sg97_4_cif.got.tgz:7282.got - 2010.04.08 20:59:42.
