data_PCOD8306410
_publ_section_title
;
Structure prediction by ZEFSAII (Michael W. Deem and Ramdas Pophale) SiO2 
 PCOD8306410
Probable space group: P 4 M M
;
_chemical_formula_sum "Si O2"
_cell_formula_units_Z 56
_cell_length_a 20.637479
_cell_length_b 20.637479
_cell_length_c 9.624276
_cell_angle_alpha 90.000000
_cell_angle_beta 90.000000
_cell_angle_gamma 90.000000
_cell_volume 4099.032462
_symmetry_space_group_name_H-M "P 4 M M"
_symmetry_group_IT_number 99
_symmetry_cell_setting 'tetragonal'
loop_
_space_group_symop_operation_xyz
x,y,z
-y,x,z
-x,-y,z
y,-x,z
-x,y,z
x,-y,z
-y,-x,z
y,x,z
loop_
_atom_site_type_symbol
_atom_site_label
_atom_site_fract_x
_atom_site_fract_y
_atom_site_fract_z
Si Si1 0.257989 0.360693 0.323920
Si Si2 0.754727 0.572984 0.816368
Si Si3 0.000000 0.577260 0.863488
Si Si4 0.881742 0.576955 0.678541
Si Si5 0.678094 0.575843 0.070626
Si Si6 0.423845 0.000000 0.178943
Si Si7 0.427791 0.672815 0.557109
Si Si8 0.875513 0.422362 0.358776
O O1 0.285928 0.285928 0.304633
O O2 0.297254 0.407997 0.223034
O O3 0.273937 0.384981 0.478121
O O4 0.181608 0.374390 0.303300
O O5 0.777253 0.500000 0.847554
O O6 0.815986 0.608002 0.743400
O O7 0.692237 0.574042 0.717580
O O8 0.732088 0.603990 0.962235
O O9 0.061357 0.603484 0.777061
O O10 0.000000 0.500000 0.867459
O O11 0.000000 0.605302 0.021662
O O12 0.878851 0.500000 0.681233
O O13 0.891509 0.597159 0.517855
O O14 0.667385 0.500000 0.049468
O O15 0.609459 0.609459 0.042020
O O16 0.402512 0.936371 0.263765
O O17 0.500000 0.000000 0.165493
O O18 0.500000 0.672494 0.496532
O O19 0.398771 0.601230 0.538695
O O20 0.858606 0.500000 0.345800
#
# Coordination Sequence:
#
# PCOD8306410 Si02
#       8
#     8   8   4   8   8   4   8   8
#     4  10  20  31  44  60  79 105 138 174 207 247
#     4   9  17  28  41  56  70  94 124 156 202 254
#     4   9  17  27  37  61  87 101 125 157 191 246
#     4   9  16  26  41  56  77 103 125 152 196 247
#     4  10  20  31  42  56  73  96 130 174 223 269
#     4   9  19  27  41  67  89 107 129 162 203 250
#     4  10  18  29  42  56  73  94 128 171 215 260
#     4  10  17  29  45  62  84 110 136 166 209 254
#
# _framework density 13.661761
#
# number of rings (size 3 to 8) (size 9 to 14) (size 15 to 20)
#    0.000    2.429    1.429    2.143    2.000    2.000 
#    0.000    0.000    0.000    5.143    0.000    0.000 
#    0.000    0.000    0.000    0.000    0.000    0.357 
#
# Total GULP energy -693798.013245 kJ/mol
# GULP energy per Si atom -12389.250237 kJ/mol
# Density = 1.363067 g / cm^3
# Si number density = 13.661761 Si / 1000 Ang^3
#
#
#
# Elastic Constant Matrix: (Units=GPa)
#
#
# Indices 1 2 3 4 5 6 
#
# 1 67.9999 29.0092 26.2677 0.0000 0.0000 -0.0001
# 2 29.0092 67.9999 26.2677 0.0000 0.0000 0.0001
# 3 26.2677 26.2677 74.2722 0.0000 0.0000 0.0000
# 4 0.0000 0.0000 0.0000 16.5546 0.0000 0.0000
# 5 0.0000 0.0000 0.0000 0.0000 16.5546 0.0000
# 6 -0.0001 0.0001 0.0000 0.0000 0.0000 7.7487
#
#
#
# Elastic Compliance Matrix: (Units=1/GPa)
#
#
# Indices 1 2 3 4 5 6 
#
# 1 0.019199 -0.006448 -0.004509 0.000000 0.000000 0.000000
# 2 -0.006448 0.019199 -0.004509 0.000000 0.000000 0.000000
# 3 -0.004509 -0.004509 0.016654 0.000000 0.000000 0.000000
# 4 0.000000 0.000000 0.000000 0.060406 0.000000 0.000000
# 5 0.000000 0.000000 0.000000 0.000000 0.060406 0.000000
# 6 0.000000 0.000000 0.000000 0.000000 0.000000 0.129054
#
#
# Mechanical properties :
#
#
# Convention : Reuss Voigt Hill
#
# Bulk Modulus (GPa) = 41.46489 41.48461 41.47475
# Shear Modulus (GPa) = 14.53948 16.75338 15.64643
#
# Velocity S-wave (km/s) = 3.26582 3.50565 3.38786
# Velocity P-wave (km/s) = 6.68115 6.84233 6.76222
#
# Compressibility (1/GPa) = 0.02411679
#
# Stress axis : x y z
#
# Youngs Moduli (GPa) = 52.08667 52.08667 60.04681
#
# Poissons Ratio (x) = 0.33587 0.27078
# Poissons Ratio (y) = 0.33587 0.27078
# Poissons Ratio (z) = 0.23488 0.23488
#
# Static dielectric constant tensor:
#      x y z
#    x 2.557450 0.000000 0.000000 
#    y 0.000000 2.557450 0.000000 
#    z 0.000000 0.000000 2.922870 
# 
# 
# High freq. dielectric constant tensor:
#      x y z
#    x 1.479990 0.000000 0.000000 
#    y 0.000000 1.479990 0.000000 
#    z 0.000000 0.000000 1.544130 
# 
# From -- ./inp_files/1142.got.cif
#   From: 2010.03.12/outbox.cif.g09.slc.cpg/sg99_cif.got.tgz:1142.got - 2010.04.08 21:11:30.
