data_PCOD8306253
_publ_section_title
;
Structure prediction by ZEFSAII (Michael W. Deem and Ramdas Pophale) SiO2 
 PCOD8306253
Probable space group: I 41 2 2
;
_chemical_formula_sum "Si O2"
_cell_formula_units_Z 56
_cell_length_a 11.741070
_cell_length_b 11.741070
_cell_length_c 15.957145
_cell_angle_alpha 90.000000
_cell_angle_beta 90.000000
_cell_angle_gamma 90.000000
_cell_volume 2199.735917
_symmetry_space_group_name_H-M "I 41 2 2"
_symmetry_group_IT_number 98
_symmetry_cell_setting 'tetragonal'
loop_
_space_group_symop_operation_xyz
x,y,z
-y,1/2+x,1/4+z
-x,-y,z
y,1/2-x,1/4+z
x,1/2-y,1/4-z
-x,1/2+y,1/4-z
y,x,-z
-y,-x,-z
1/2+x,1/2+y,1/2+z
1/2-y,x,3/4+z
1/2-x,1/2-y,1/2+z
1/2+y,-x,3/4+z
1/2+x,-y,3/4-z
1/2-x,y,3/4-z
1/2+y,1/2+x,1/2-z
1/2-y,1/2-x,1/2-z
loop_
_atom_site_type_symbol
_atom_site_label
_atom_site_fract_x
_atom_site_fract_y
_atom_site_fract_z
Si Si1 0.876279 0.530109 0.138363
Si Si2 0.869920 0.191576 0.755955
Si Si3 0.250000 0.464855 0.875000
Si Si4 0.340666 0.434434 0.223912
O O1 0.796998 0.570481 0.215436
O O2 0.000000 0.500000 0.174723
O O3 0.817116 0.414724 0.101352
O O4 0.883433 0.624472 0.064052
O O5 0.741921 0.241921 0.750000
O O6 0.953119 0.275550 0.704193
O O7 0.883042 0.064762 0.716811
O O8 0.360471 0.388558 0.853661
#
# Coordination Sequence:
#
# PCOD8306253 Si02
#       4
#    16  16   8  16
#     4   9  20  39  62  89 127 171 218 277 336 402
#     4  10  20  35  59  90 126 170 218 272 340 411
#     4  10  20  36  60  88 126 166 214 278 338 398
#     4  10  21  39  60  91 130 171 225 280 338 408
#
# _framework density 25.457602000000001
#
# number of rings (size 3 to 8) (size 9 to 14) (size 15 to 20)
#    0.000    2.286    0.000    4.286    0.000    4.571 
#    0.000   10.000    0.000    0.000    0.000    0.000 
#    0.000    0.000    0.000    0.000    0.000    0.000 
#
# Total GULP energy -347034.399672 kJ/mol
# GULP energy per Si atom -12394.085703 kJ/mol
# Density = 2.539966 g / cm^3
# Si number density = 25.457602 Si / 1000 Ang^3
#
#
#
# Elastic Constant Matrix: (Units=GPa)
#
#
# Indices 1 2 3 4 5 6 
#
# 1 125.4115 29.7519 23.5981 0.0000 0.0000 0.0000
# 2 29.7519 125.4115 23.5981 0.0000 0.0000 0.0000
# 3 23.5981 23.5981 49.0072 0.0000 0.0000 0.0000
# 4 0.0000 0.0000 0.0000 22.1526 0.0000 0.0000
# 5 0.0000 0.0000 0.0000 0.0000 22.1526 0.0000
# 6 0.0000 0.0000 0.0000 0.0000 0.0000 50.3986
#
#
#
# Elastic Compliance Matrix: (Units=1/GPa)
#
#
# Indices 1 2 3 4 5 6 
#
# 1 0.009002 -0.001451 -0.003636 0.000000 0.000000 0.000000
# 2 -0.001451 0.009002 -0.003636 0.000000 0.000000 0.000000
# 3 -0.003636 -0.003636 0.023907 0.000000 0.000000 0.000000
# 4 0.000000 0.000000 0.000000 0.045141 0.000000 0.000000
# 5 0.000000 0.000000 0.000000 0.000000 0.045141 0.000000
# 6 0.000000 0.000000 0.000000 0.000000 0.000000 0.019842
#
#
# Mechanical properties :
#
#
# Convention : Reuss Voigt Hill
#
# Bulk Modulus (GPa) = 40.87520 50.41405 45.64463
# Shear Modulus (GPa) = 28.14725 33.79955 30.97340
#
# Velocity S-wave (km/s) = 3.32874 3.64769 3.49186
# Velocity P-wave (km/s) = 5.55563 6.13082 5.85030
#
# Compressibility (1/GPa) = 0.02446471
#
# Stress axis : x y z
#
# Youngs Moduli (GPa) = 111.08343 111.08343 41.82930
#
# Poissons Ratio (x) = 0.16124 0.15209
# Poissons Ratio (y) = 0.16124 0.15209
# Poissons Ratio (z) = 0.40388 0.40388
#
# Static dielectric constant tensor:
#      x y z
#    x 4.694850 0.000000 0.000000 
#    y 0.000000 4.694850 0.000000 
#    z 0.000000 0.000000 4.218710 
# 
# 
# High freq. dielectric constant tensor:
#      x y z
#    x 2.018200 0.000000 0.000000 
#    y 0.000000 2.018200 0.000000 
#    z 0.000000 0.000000 2.001150 
# 
# From -- ./inp_files/8406.got.cif
#   From: 2010.03.12/outbox.cif.g09.slc.cpg/sg98_5_cif.got.tgz:8406.got - 2010.04.08 21:04:41.
