data_PCOD8306135
_publ_section_title
;
Structure prediction by ZEFSAII (Michael W. Deem and Ramdas Pophale) SiO2 
 PCOD8306135
Probable space group: I 4 2 2 
;
_chemical_formula_sum "Si O2"
_cell_formula_units_Z 112
_cell_length_a 14.820856
_cell_length_b 14.820856
_cell_length_c 24.943041
_cell_angle_alpha 90.000000
_cell_angle_beta 90.000000
_cell_angle_gamma 90.000000
_cell_volume 5478.932827
_symmetry_space_group_name_H-M "I 4 2 2 "
_symmetry_group_IT_number 97
_symmetry_cell_setting 'tetragonal'
loop_
_space_group_symop_operation_xyz
x,y,z
-y,x,z
-x,-y,z
y,-x,z
x,-y,-z
-x,y,-z
y,x,-z
-y,-x,-z
1/2+x,1/2+y,1/2+z
1/2-y,1/2+x,1/2+z
1/2-x,1/2-y,1/2+z
1/2+y,1/2-x,1/2+z
1/2+x,1/2-y,1/2-z
1/2-x,1/2+y,1/2-z
1/2+y,1/2+x,1/2-z
1/2-y,1/2-x,1/2-z
loop_
_atom_site_type_symbol
_atom_site_label
_atom_site_fract_x
_atom_site_fract_y
_atom_site_fract_z
Si Si1 0.396528 0.105779 0.007016
Si Si2 0.048647 0.769305 0.762865
Si Si3 0.601776 0.028105 0.801787
Si Si4 0.767830 0.160518 0.053558
Si Si5 0.219297 0.850453 0.717558
Si Si6 0.669504 0.172408 0.618221
Si Si7 0.361146 0.455007 0.373271
O O1 0.382540 0.149104 0.065048
O O2 0.500000 0.125207 0.000000
O O3 0.337744 0.161887 0.963351
O O4 0.372651 0.000000 0.000000
O O5 0.124452 0.795768 0.719258
O O6 0.068352 0.829622 0.814137
O O7 0.055436 0.663339 0.781244
O O8 0.949683 0.792624 0.741364
O O9 0.592766 0.092766 0.750000
O O10 0.662332 0.077146 0.847059
O O11 0.500000 0.000000 0.821289
O O12 0.797426 0.228678 0.100820
O O13 0.787445 0.063557 0.080220
O O14 0.826413 0.173588 0.000000
O O15 0.292422 0.792422 0.750000
O O16 0.249644 0.864601 0.655604
O O17 0.442933 0.386870 0.382840
#
# Coordination Sequence:
#
# PCOD8306135 Si02
#       7
#    16  16  16  16  16  16  16
#     4  10  25  43  69  99 128 167 225 292 349 417
#     4  12  23  42  64  93 142 179 232 278 339 411
#     4  11  24  41  65  99 139 182 223 282 335 409
#     4  10  24  41  64  91 130 175 220 279 342 401
#     4  12  25  41  65  98 135 183 229 286 335 417
#     4  11  22  45  63  93 138 171 224 274 344 409
#     4  11  23  37  61  92 128 181 224 269 329 399
#
# _framework density 20.441935999999998
#
# number of rings (size 3 to 8) (size 9 to 14) (size 15 to 20)
#    0.000    1.000    4.286    1.714   10.000    1.429 
#    0.000    0.714    0.000    0.000    0.000    0.000 
#    0.000   14.000    0.000    0.000    0.000    0.000 
#
# Total GULP energy -693805.709610 kJ/mol
# GULP energy per Si atom -12389.387672 kJ/mol
# Density = 2.039541 g / cm^3
# Si number density = 20.441936 Si / 1000 Ang^3
#
#
#
# Elastic Constant Matrix: (Units=GPa)
#
#
# Indices 1 2 3 4 5 6 
#
# 1 69.2033 111.7796 60.4294 0.0000 0.0000 0.0000
# 2 111.7796 69.2030 60.4298 0.0000 0.0000 0.0000
# 3 60.4294 60.4298 126.8295 0.0000 0.0000 0.0000
# 4 0.0000 0.0000 0.0000 30.3701 0.0000 0.0000
# 5 0.0000 0.0000 0.0000 0.0000 30.3706 0.0000
# 6 0.0000 0.0000 0.0000 0.0000 0.0000 4491.6407
#
#
#
# Elastic Compliance Matrix: (Units=1/GPa)
#
#
# Indices 1 2 3 4 5 6 
#
# 1 -0.007692 0.015796 -0.003861 0.000000 0.000000 0.000000
# 2 0.015796 -0.007692 -0.003861 0.000000 0.000000 0.000000
# 3 -0.003861 -0.003861 0.011564 0.000000 0.000000 0.000000
# 4 0.000000 0.000000 0.000000 0.032927 0.000000 0.000000
# 5 0.000000 0.000000 0.000000 0.000000 0.032927 0.000000
# 6 0.000000 0.000000 0.000000 0.000000 0.000000 0.000223
#
#
# Mechanical properties :
#
#
# Convention : Reuss Voigt Hill
#
# Bulk Modulus (GPa) = 81.12277 81.16814 81.14546
# Shear Modulus (GPa) = 99.56242 912.64944 506.10593
#
# Velocity S-wave (km/s) = 6.98647 21.15251 15.75181
# Velocity P-wave (km/s) = 10.23971 25.22626 19.25118
#
# Compressibility (1/GPa) = 0.01232700
#
# Stress axis : x y z
#
# Youngs Moduli (GPa) = -130.01212 -130.01024 86.47506
#
# Poissons Ratio (x) = 2.05358 0.33390
# Poissons Ratio (y) = 2.05361 0.33389
# Poissons Ratio (z) = -0.50201 -0.50199
#
# Static dielectric constant tensor:
#      x y z
#    x 3.825080 0.000000 0.000000 
#    y 0.000000 3.825080 0.000000 
#    z 0.000000 0.000000 3.970520 
# 
# 
# High freq. dielectric constant tensor:
#      x y z
#    x 1.799260 0.000000 0.000000 
#    y 0.000000 1.799260 0.000000 
#    z 0.000000 0.000000 1.799930 
# 
# From -- ./inp_files/7286.got.cif
#   From: 2010.03.12/outbox.cif.g09.slc.cpg/sg97_4_cif.got.tgz:7286.got - 2010.04.08 20:59:42.
