data_PCOD8306701
_publ_section_title
;
Structure prediction by ZEFSAII (Michael W. Deem and Ramdas Pophale) SiO2 
 PCOD8306701
Probable space group: P 42 C M
;
_chemical_formula_sum "Si O2"
_cell_formula_units_Z 56
_cell_length_a 12.185368
_cell_length_b 12.185368
_cell_length_c 19.768865
_cell_angle_alpha 90.000000
_cell_angle_beta 90.000000
_cell_angle_gamma 90.000000
_cell_volume 2935.344203
_symmetry_space_group_name_H-M "P 42 C M"
_symmetry_group_IT_number 101
_symmetry_cell_setting 'tetragonal'
loop_
_space_group_symop_operation_xyz
x,y,z
-y,x,1/2+z
-x,-y,z
y,-x,1/2+z
-x,y,1/2+z
x,-y,1/2+z
-y,-x,z
y,x,z
loop_
_atom_site_type_symbol
_atom_site_label
_atom_site_fract_x
_atom_site_fract_y
_atom_site_fract_z
Si Si1 0.511741 0.237991 0.057160
Si Si2 0.496997 0.674501 0.202369
Si Si3 0.840613 0.655547 0.372699
Si Si4 0.585022 0.096468 0.734426
Si Si5 0.116345 0.699401 0.595008
Si Si6 0.282839 0.896956 0.017321
Si Si7 0.504839 0.671405 0.913770
O O1 0.510240 0.315137 0.122018
O O2 0.409862 0.154751 0.056930
O O3 0.622716 0.167435 0.057240
O O4 0.504315 0.318489 0.994238
O O5 0.386377 0.613624 0.229013
O O6 0.602471 0.602471 0.221619
O O7 0.513603 0.791927 0.236824
O O8 0.747691 0.747691 0.365762
O O9 0.915196 0.651122 0.305314
O O10 0.914848 0.680860 0.438729
O O11 0.785776 0.533551 0.380296
O O12 0.673027 0.093309 0.673835
O O13 0.500000 0.000000 0.723691
O O14 0.207955 0.792046 0.590702
O O15 0.010045 0.741895 0.555345
O O16 0.170921 0.829080 0.019990
O O17 0.420907 0.579094 0.889077
O O18 0.628436 0.628436 0.894442
#
# Coordination Sequence:
#
# PCOD8306701 Si02
#       7
#     8   8   8   8   8   8   8
#     4  10  17  30  50  78 112 141 177 227 281 328
#     4  10  19  31  51  78 109 145 182 222 268 321
#     4   9  19  35  53  75 107 146 185 225 274 332
#     4  11  22  36  54  80 113 150 185 222 273 331
#     4  11  22  36  57  82 110 144 184 231 276 326
#     4  10  21  37  59  83 107 141 184 232 280 327
#     4   9  16  26  45  75 110 147 183 220 266 322
#
# _framework density 19.077831
#
# number of rings (size 3 to 8) (size 9 to 14) (size 15 to 20)
#    0.000    2.000    0.000    7.714    0.000    4.286 
#    0.000    1.429    0.000    1.714    0.000    2.000 
#    0.000    0.000    0.000    0.000    0.000    0.000 
#
# Total GULP energy -694147.597345 kJ/mol
# GULP energy per Si atom -12395.492810 kJ/mol
# Density = 1.903441 g / cm^3
# Si number density = 19.077831 Si / 1000 Ang^3
#
#
#
# Elastic Constant Matrix: (Units=GPa)
#
#
# Indices 1 2 3 4 5 6 
#
# 1 67.0247 11.1771 26.4315 0.0000 0.0000 -0.0012
# 2 11.1771 67.0247 26.4315 0.0000 0.0000 0.0012
# 3 26.4315 26.4315 105.1379 0.0000 0.0000 0.0000
# 4 0.0000 0.0000 0.0000 -0.1650 0.0000 0.0000
# 5 0.0000 0.0000 0.0000 0.0000 -0.1650 0.0000
# 6 -0.0012 0.0012 0.0000 0.0000 0.0000 10.3294
#
#
#
# Elastic Compliance Matrix: (Units=1/GPa)
#
#
# Indices 1 2 3 4 5 6 
#
# 1 0.016656 -0.001250 -0.003873 0.000000 0.000000 0.000002
# 2 -0.001250 0.016656 -0.003873 0.000000 0.000000 -0.000002
# 3 -0.003873 -0.003873 0.011459 0.000000 0.000000 0.000000
# 4 0.000000 0.000000 0.000000 -6.061010 0.000000 0.000000
# 5 0.000000 0.000000 0.000000 0.000000 -6.061010 0.000000
# 6 0.000002 -0.000002 0.000000 0.000000 0.000000 0.096811
#
#
# Mechanical properties :
#
#
# Convention : Reuss Voigt Hill
#
# Bulk Modulus (GPa) = 37.34426 40.80748 39.07587
# Shear Modulus (GPa) = -0.41829 13.67637 6.62904
#
# Velocity S-wave (km/s) = -0.46875 2.68035 1.86609
# Velocity P-wave (km/s) = 4.39593 5.56916 5.01696
#
# Compressibility (1/GPa) = 0.02677788
#
# Stress axis : x y z
#
# Youngs Moduli (GPa) = 60.03966 60.03966 87.27080
#
# Poissons Ratio (x) = 0.07506 0.33799
# Poissons Ratio (y) = 0.07506 0.33799
# Poissons Ratio (z) = 0.23253 0.23253
#
# Static dielectric constant tensor:
#      x y z
#    x 3.421460 0.000000 0.000000 
#    y 0.000000 3.421460 0.000000 
#    z 0.000000 0.000000 3.641800 
# 
# 
# High freq. dielectric constant tensor:
#      x y z
#    x 1.723270 0.000000 0.000000 
#    y 0.000000 1.723270 0.000000 
#    z 0.000000 0.000000 1.752600 
# 
# From -- ./inp_files/2516.got.cif
#   From: 2010.03.12/outbox.cif.g09.slc.cpg/sg101_2_cif.got.tgz:2516.got - 2010.04.14 01:38:52.
