data_PCOD8306777
_publ_section_title
;
Structure prediction by ZEFSAII (Michael W. Deem and Ramdas Pophale) SiO2 
 PCOD8306777
Probable space group: P 42 C M
;
_chemical_formula_sum "Si O2"
_cell_formula_units_Z 48
_cell_length_a 18.695389
_cell_length_b 18.695389
_cell_length_c 10.143370
_cell_angle_alpha 90.000000
_cell_angle_beta 90.000000
_cell_angle_gamma 90.000000
_cell_volume 3545.286033
_symmetry_space_group_name_H-M "P 42 C M"
_symmetry_group_IT_number 101
_symmetry_cell_setting 'tetragonal'
loop_
_space_group_symop_operation_xyz
x,y,z
-y,x,1/2+z
-x,-y,z
y,-x,1/2+z
-x,y,1/2+z
x,-y,1/2+z
-y,-x,z
y,x,z
loop_
_atom_site_type_symbol
_atom_site_label
_atom_site_fract_x
_atom_site_fract_y
_atom_site_fract_z
Si Si1 0.415153 0.836926 0.259440
Si Si2 0.315446 0.565493 0.867814
Si Si3 0.315445 0.434507 0.673137
Si Si4 0.163074 0.415152 0.281520
Si Si5 0.585374 0.090278 0.520480
Si Si6 0.071267 0.414937 0.520480
O O1 0.393522 0.755818 0.223112
O O2 0.500001 0.840355 0.270481
O O3 0.384017 0.864718 0.397567
O O4 0.384166 0.890153 0.149542
O O5 0.380793 0.619208 0.858054
O O6 0.332793 0.500000 0.770475
O O7 0.244184 0.606479 0.817840
O O8 0.305008 0.539427 0.020475
O O9 0.380790 0.380790 0.682896
O O10 0.135279 0.384016 0.143395
O O11 0.109851 0.384165 0.391423
O O12 0.500231 0.080662 0.520480
O O13 0.614730 0.009407 0.520477
#
# Coordination Sequence:
#
# PCOD8306777 Si02
#       6
#     8   8   8   8   8   8
#     4   9  16  26  39  57  77 100 120 150 188 229
#     4  10  21  35  48  60  74  96 127 166 213 255
#     4  10  21  35  48  60  74  96 127 166 213 255
#     4   9  16  26  39  57  77 100 120 150 188 229
#     4   9  16  22  37  58  81  99 122 141 173 226
#     4   9  14  24  37  56  79 103 120 141 175 222
#
# _framework density 13.539104999999999
#
# number of rings (size 3 to 8) (size 9 to 14) (size 15 to 20)
#    0.000    2.667    1.667    1.000    7.000    5.000 
#    0.000    1.667    0.000    0.000    0.000    0.000 
#    0.000    0.000    0.000    0.000    0.000    0.000 
#
# Total GULP energy -594810.371132 kJ/mol
# GULP energy per Si atom -12391.882732 kJ/mol
# Density = 1.350829 g / cm^3
# Si number density = 13.539105 Si / 1000 Ang^3
#
#
#
# Elastic Constant Matrix: (Units=GPa)
#
#
# Indices 1 2 3 4 5 6 
#
# 1 51.9045 22.5677 40.4310 0.0000 0.0000 -0.0006
# 2 22.5677 51.9045 40.4310 0.0000 0.0000 0.0006
# 3 40.4310 40.4310 138.3344 0.0000 0.0000 0.0000
# 4 0.0000 0.0000 0.0000 18.7516 0.0000 0.0000
# 5 0.0000 0.0000 0.0000 0.0000 18.7516 0.0000
# 6 -0.0006 0.0006 0.0000 0.0000 0.0000 -0.2168
#
#
#
# Elastic Compliance Matrix: (Units=1/GPa)
#
#
# Indices 1 2 3 4 5 6 
#
# 1 0.026879 -0.007208 -0.005749 0.000000 0.000000 -0.000090
# 2 -0.007208 0.026879 -0.005749 0.000000 0.000000 0.000090
# 3 -0.005749 -0.005749 0.010589 0.000000 0.000000 0.000000
# 4 0.000000 0.000000 0.000000 0.053329 0.000000 0.000000
# 5 0.000000 0.000000 0.000000 0.000000 0.053329 0.000000
# 6 -0.000090 0.000090 0.000000 0.000000 0.000000 -4.612460
#
#
# Mechanical properties :
#
#
# Convention : Reuss Voigt Hill
#
# Bulk Modulus (GPa) = 37.12829 49.88921 43.50875
# Shear Modulus (GPa) = -1.13764 16.70483 7.78359
#
# Velocity S-wave (km/s) = -0.91765 3.51639 2.40030
# Velocity P-wave (km/s) = 5.13418 7.30855 6.31564
#
# Compressibility (1/GPa) = 0.02693364
#
# Stress axis : x y z
#
# Youngs Moduli (GPa) = 37.20443 37.20443 94.43425
#
# Poissons Ratio (x) = 0.26818 0.54290
# Poissons Ratio (y) = 0.26818 0.54290
# Poissons Ratio (z) = 0.21389 0.21389
#
# Static dielectric constant tensor:
#      x y z
#    x 2.448850 0.000000 0.000000 
#    y 0.000000 2.448850 0.000000 
#    z 0.000000 0.000000 3.118760 
# 
# 
# High freq. dielectric constant tensor:
#      x y z
#    x 1.472100 0.000000 0.000000 
#    y 0.000000 1.472100 0.000000 
#    z 0.000000 0.000000 1.544500 
# 
# From -- ./inp_files/761.got.cif
#   From: 2010.03.12/outbox.cif.g09.slc.cpg/sg101_1_cif.got.tgz:761.got - 2010.04.14 01:38:52.
