data_PCOD8306925
_publ_section_title
;
Structure prediction by ZEFSAII (Michael W. Deem and Ramdas Pophale) SiO2 
 PCOD8306925
Probable space group: P 42 N M
;
_chemical_formula_sum "Si O2"
_cell_formula_units_Z 64
_cell_length_a 11.946768
_cell_length_b 11.946768
_cell_length_c 22.955346
_cell_angle_alpha 90.000000
_cell_angle_beta 90.000000
_cell_angle_gamma 90.000000
_cell_volume 3276.307856
_symmetry_space_group_name_H-M "P 42 N M"
_symmetry_group_IT_number 102
_symmetry_cell_setting 'tetragonal'
loop_
_space_group_symop_operation_xyz
x,y,z
1/2-y,1/2+x,1/2+z
-x,-y,z
1/2+y,1/2-x,1/2+z
1/2-x,1/2+y,1/2+z
1/2+x,1/2-y,1/2+z
-y,-x,z
y,x,z
loop_
_atom_site_type_symbol
_atom_site_label
_atom_site_fract_x
_atom_site_fract_y
_atom_site_fract_z
Si Si1 0.980916 0.370817 0.441420
Si Si2 0.680888 0.500644 0.525075
Si Si3 0.250702 0.570178 0.155755
Si Si4 0.501596 0.680331 0.031520
Si Si5 0.628504 0.017710 0.116962
Si Si6 0.429413 0.749324 0.402266
Si Si7 0.354083 0.170970 0.210396
Si Si8 0.601246 0.081927 0.831491
O O1 0.852080 0.351772 0.423852
O O2 0.000000 0.500000 0.459160
O O3 0.012466 0.293135 0.495159
O O4 0.060374 0.342103 0.385992
O O5 0.609687 0.390314 0.540953
O O6 0.611813 0.611813 0.541486
O O7 0.795963 0.496766 0.560575
O O8 0.706728 0.503588 0.456481
O O9 0.348885 0.651116 0.178732
O O10 0.289436 0.501213 0.099216
O O11 0.142975 0.646149 0.140967
O O12 0.222222 0.478882 0.204815
O O13 0.398909 0.601092 0.014428
O O14 0.618878 0.618878 0.018092
O O15 0.500000 0.000000 0.098222
O O16 0.663991 0.933195 0.167807
O O17 0.349358 0.650643 0.378663
O O18 0.510939 0.789073 0.350465
O O19 0.262112 0.262112 0.194559
O O20 0.339704 0.131445 0.277126
O O21 0.500000 0.000000 0.813050
#
# Coordination Sequence:
#
# PCOD8306925 Si02
#       8
#     8   8   8   8   8   8   8   8
#     4   9  20  34  56  82 113 148 191 234 281 333
#     4  10  21  36  55  83 119 152 184 230 287 343
#     4  10  22  37  56  84 115 150 191 236 287 342
#     4  10  21  36  55  83 119 152 184 230 288 344
#     4  10  22  36  58  82 113 146 194 235 281 337
#     4   9  19  33  54  83 114 150 190 233 284 343
#     4  11  23  39  60  84 112 151 192 239 286 335
#     4   9  20  38  56  79 113 147 193 237 280 331
#
# _framework density 19.534182999999999
#
# number of rings (size 3 to 8) (size 9 to 14) (size 15 to 20)
#    0.000    2.500    0.000    2.625    7.000    2.750 
#    0.000    0.000    0.000    2.250    0.000    1.750 
#    0.000    0.000    0.000    0.000    0.000    0.000 
#
# Total GULP energy -793629.005469 kJ/mol
# GULP energy per Si atom -12400.453210 kJ/mol
# Density = 1.948972 g / cm^3
# Si number density = 19.534183 Si / 1000 Ang^3
#
#
#
# Elastic Constant Matrix: (Units=GPa)
#
#
# Indices 1 2 3 4 5 6 
#
# 1 81.2483 33.9420 35.0025 0.0000 0.0000 -0.0004
# 2 33.9420 81.2483 35.0025 0.0000 0.0000 0.0004
# 3 35.0025 35.0025 67.6968 0.0000 0.0000 0.0000
# 4 0.0000 0.0000 0.0000 25.6681 0.0000 0.0000
# 5 0.0000 0.0000 0.0000 0.0000 25.6681 0.0000
# 6 -0.0004 0.0004 0.0000 0.0000 0.0000 24.4588
#
#
#
# Elastic Compliance Matrix: (Units=1/GPa)
#
#
# Indices 1 2 3 4 5 6 
#
# 1 0.016899 -0.004240 -0.006545 0.000000 0.000000 0.000000
# 2 -0.004240 0.016899 -0.006545 0.000000 0.000000 0.000000
# 3 -0.006545 -0.006545 0.021540 0.000000 0.000000 0.000000
# 4 0.000000 0.000000 0.000000 0.038959 0.000000 0.000000
# 5 0.000000 0.000000 0.000000 0.000000 0.038959 0.000000
# 6 0.000000 0.000000 0.000000 0.000000 0.000000 0.040885
#
#
# Mechanical properties :
#
#
# Convention : Reuss Voigt Hill
#
# Bulk Modulus (GPa) = 48.36282 48.67638 48.51960
# Shear Modulus (GPa) = 23.18092 23.57543 23.37818
#
# Velocity S-wave (km/s) = 3.44857 3.47779 3.46321
# Velocity P-wave (km/s) = 6.37719 6.41088 6.39406
#
# Compressibility (1/GPa) = 0.02067704
#
# Stress axis : x y z
#
# Youngs Moduli (GPa) = 59.17519 59.17519 46.42455
#
# Poissons Ratio (x) = 0.25089 0.30387
# Poissons Ratio (y) = 0.25089 0.30387
# Poissons Ratio (z) = 0.38732 0.38732
#
# Static dielectric constant tensor:
#      x y z
#    x 3.600220 0.000000 0.000000 
#    y 0.000000 3.600220 0.000000 
#    z 0.000000 0.000000 3.348310 
# 
# 
# High freq. dielectric constant tensor:
#      x y z
#    x 1.757830 0.000000 0.000000 
#    y 0.000000 1.757830 0.000000 
#    z 0.000000 0.000000 1.750200 
# 
# From -- ./inp_files/3430.got.cif
#   From: 2010.03.12/outbox.cif.g09.slc.cpg/sg102_2_cif.got.tgz:3430.got - 2010.04.14 01:40:42.
