data_PCOD8306150
_publ_section_title
;
Structure prediction by ZEFSAII (Michael W. Deem and Ramdas Pophale) SiO2 
 PCOD8306150
Probable space group: I 4 2 2 
;
_chemical_formula_sum "Si O2"
_cell_formula_units_Z 88
_cell_length_a 15.665133
_cell_length_b 15.665133
_cell_length_c 18.954336
_cell_angle_alpha 90.000000
_cell_angle_beta 90.000000
_cell_angle_gamma 90.000000
_cell_volume 4651.325665
_symmetry_space_group_name_H-M "I 4 2 2 "
_symmetry_group_IT_number 97
_symmetry_cell_setting 'tetragonal'
loop_
_space_group_symop_operation_xyz
x,y,z
-y,x,z
-x,-y,z
y,-x,z
x,-y,-z
-x,y,-z
y,x,-z
-y,-x,-z
1/2+x,1/2+y,1/2+z
1/2-y,1/2+x,1/2+z
1/2-x,1/2-y,1/2+z
1/2+y,1/2-x,1/2+z
1/2+x,1/2-y,1/2-z
1/2-x,1/2+y,1/2-z
1/2+y,1/2+x,1/2-z
1/2-y,1/2-x,1/2-z
loop_
_atom_site_type_symbol
_atom_site_label
_atom_site_fract_x
_atom_site_fract_y
_atom_site_fract_z
Si Si1 0.774200 0.330645 0.442077
Si Si2 0.957012 0.867813 0.138376
Si Si3 0.694981 0.311473 0.708036
Si Si4 0.562712 0.375025 0.805927
Si Si5 0.285542 0.500000 0.500000
Si Si6 0.084180 0.204936 0.543608
O O1 0.717961 0.282040 0.500000
O O2 0.741464 0.318446 0.362965
O O3 0.773881 0.431471 0.460081
O O4 0.870947 0.296005 0.442290
O O5 0.911756 0.792203 0.183739
O O6 0.053182 0.892500 0.157748
O O7 0.951551 0.846839 0.055647
O O8 0.778529 0.278529 0.750000
O O9 0.612297 0.303157 0.760037
O O10 0.613175 0.463213 0.787702
O O11 0.564139 0.348553 0.886908
O O12 0.147464 0.147464 0.500000
O O13 0.000000 0.225176 0.500000
#
# Coordination Sequence:
#
# PCOD8306150 Si02
#       6
#    16  16  16  16   8  16
#     4  11  23  40  60  90 122 161 213 258 310 378
#     4  11  21  35  58  93 126 157 198 255 322 385
#     4  12  23  38  55  84 134 170 200 245 316 389
#     4  11  23  37  57  91 126 160 203 257 321 386
#     4  12  20  39  65  88 124 164 208 258 317 389
#     4  11  22  39  64  88 119 159 212 265 313 364
#
# _framework density 18.919338
#
# number of rings (size 3 to 8) (size 9 to 14) (size 15 to 20)
#    0.000    0.727    7.273    1.636    0.000    2.364 
#    0.000    0.455    0.000    0.000    0.000    0.000 
#    0.000    0.000    0.000    0.000    0.000    0.000 
#
# Total GULP energy -545190.915846 kJ/mol
# GULP energy per Si atom -12390.702633 kJ/mol
# Density = 1.887628 g / cm^3
# Si number density = 18.919338 Si / 1000 Ang^3
#
#
#
# Elastic Constant Matrix: (Units=GPa)
#
#
# Indices 1 2 3 4 5 6 
#
# 1 89.8007 58.0455 45.2009 0.0000 0.0000 0.0000
# 2 58.0455 89.8003 45.2010 0.0000 0.0000 0.0000
# 3 45.2009 45.2010 118.4901 0.0000 0.0000 0.0000
# 4 0.0000 0.0000 0.0000 39.7049 0.0000 0.0000
# 5 0.0000 0.0000 0.0000 0.0000 39.7050 0.0000
# 6 0.0000 0.0000 0.0000 0.0000 0.0000 28.4899
#
#
#
# Elastic Compliance Matrix: (Units=1/GPa)
#
#
# Indices 1 2 3 4 5 6 
#
# 1 0.020156 -0.011335 -0.003365 0.000000 0.000000 0.000000
# 2 -0.011335 0.020156 -0.003365 0.000000 0.000000 0.000000
# 3 -0.003365 -0.003365 0.011007 0.000000 0.000000 0.000000
# 4 0.000000 0.000000 0.000000 0.025186 0.000000 0.000000
# 5 0.000000 0.000000 0.000000 0.000000 0.025186 0.000000
# 6 0.000000 0.000000 0.000000 0.000000 0.000000 0.035100
#
#
# Mechanical properties :
#
#
# Convention : Reuss Voigt Hill
#
# Bulk Modulus (GPa) = 65.83607 66.10954 65.97281
# Shear Modulus (GPa) = 28.09231 31.55618 29.82425
#
# Velocity S-wave (km/s) = 3.85755 4.08846 3.97468
# Velocity P-wave (km/s) = 7.39694 7.57008 7.48401
#
# Compressibility (1/GPa) = 0.01518924
#
# Stress axis : x y z
#
# Youngs Moduli (GPa) = 49.61252 49.61219 90.85151
#
# Poissons Ratio (x) = 0.56234 0.30573
# Poissons Ratio (y) = 0.56235 0.30573
# Poissons Ratio (z) = 0.16695 0.16696
#
# Static dielectric constant tensor:
#      x y z
#    x 3.569350 0.000000 0.000000 
#    y 0.000000 3.569360 0.000000 
#    z 0.000000 0.000000 3.868900 
# 
# 
# High freq. dielectric constant tensor:
#      x y z
#    x 1.709590 0.000000 0.000000 
#    y 0.000000 1.709590 0.000000 
#    z 0.000000 0.000000 1.777970 
# 
# From -- ./inp_files/6528.got.cif
#   From: 2010.03.12/outbox.cif.g09.slc.cpg/sg97_4_cif.got.tgz:6528.got - 2010.04.08 20:59:42.
