data_PCOD8306298
_publ_section_title
;
Structure prediction by ZEFSAII (Michael W. Deem and Ramdas Pophale) SiO2 
 PCOD8306298
Probable space group: I 41 2 2
;
_chemical_formula_sum "Si O2"
_cell_formula_units_Z 80
_cell_length_a 16.989828
_cell_length_b 16.989828
_cell_length_c 13.751478
_cell_angle_alpha 90.000000
_cell_angle_beta 90.000000
_cell_angle_gamma 90.000000
_cell_volume 3969.422644
_symmetry_space_group_name_H-M "I 41 2 2"
_symmetry_group_IT_number 98
_symmetry_cell_setting 'tetragonal'
loop_
_space_group_symop_operation_xyz
x,y,z
-y,1/2+x,1/4+z
-x,-y,z
y,1/2-x,1/4+z
x,1/2-y,1/4-z
-x,1/2+y,1/4-z
y,x,-z
-y,-x,-z
1/2+x,1/2+y,1/2+z
1/2-y,x,3/4+z
1/2-x,1/2-y,1/2+z
1/2+y,-x,3/4+z
1/2+x,-y,3/4-z
1/2-x,y,3/4-z
1/2+y,1/2+x,1/2-z
1/2-y,1/2-x,1/2-z
loop_
_atom_site_type_symbol
_atom_site_label
_atom_site_fract_x
_atom_site_fract_y
_atom_site_fract_z
Si Si1 0.028785 0.708995 0.020180
Si Si2 0.016932 0.779816 0.827165
Si Si3 0.826714 0.204754 0.722754
Si Si4 0.320983 0.419231 0.941021
Si Si5 0.070763 0.058841 0.266767
O O1 0.041045 0.750000 0.125000
O O2 0.110191 0.678605 0.970685
O O3 0.998589 0.772159 0.941560
O O4 0.962156 0.641633 0.024046
O O5 0.988150 0.704838 0.764193
O O6 0.971256 0.859014 0.800710
O O7 0.110389 0.780723 0.808072
O O8 0.857138 0.250000 0.625000
O O9 0.742313 0.242313 0.750000
O O10 0.250000 0.392196 0.875000
O O11 0.397598 0.442106 0.877535
O O12 0.341132 0.341132 0.000000
O O13 0.000000 0.000000 0.260751
#
# Coordination Sequence:
#
# PCOD8306298 Si02
#       5
#    16  16  16  16  16
#     4  12  27  44  66  99 138 183 234 277 332 415
#     4  11  24  43  68  99 139 172 223 281 345 408
#     4  12  23  40  66  98 135 176 214 274 347 402
#     4  10  21  40  66  96 130 165 217 287 339 397
#     4  11  23  44  69 100 134 180 228 278 343 407
#
# _framework density 20.154064999999999
#
# number of rings (size 3 to 8) (size 9 to 14) (size 15 to 20)
#    0.000    0.800    6.000    2.400    0.000    1.200 
#    0.000    5.000    0.000    0.000    0.000    0.000 
#    0.000    0.000    0.000    0.000    0.000    0.000 
#
# Total GULP energy -495685.726363 kJ/mol
# GULP energy per Si atom -12392.143159 kJ/mol
# Density = 2.010819 g / cm^3
# Si number density = 20.154065 Si / 1000 Ang^3
#
#
#
# Elastic Constant Matrix: (Units=GPa)
#
#
# Indices 1 2 3 4 5 6 
#
# 1 -857.4308 1001.2286 44.4300 0.0000 0.0000 0.0000
# 2 1001.2286 -857.4308 44.4300 0.0000 0.0000 0.0000
# 3 44.4300 44.4300 147.6307 0.0000 0.0000 0.0000
# 4 0.0000 0.0000 0.0000 25.8313 0.0000 0.0000
# 5 0.0000 0.0000 0.0000 0.0000 25.8313 0.0000
# 6 0.0000 0.0000 0.0000 0.0000 0.0000 38.7170
#
#
#
# Elastic Compliance Matrix: (Units=1/GPa)
#
#
# Indices 1 2 3 4 5 6 
#
# 1 0.004002 0.004541 -0.002571 0.000000 0.000000 0.000000
# 2 0.004541 0.004002 -0.002571 0.000000 0.000000 0.000000
# 3 -0.002571 -0.002571 0.008321 0.000000 0.000000 0.000000
# 4 0.000000 0.000000 0.000000 0.038713 0.000000 0.000000
# 5 0.000000 0.000000 0.000000 0.000000 0.038713 0.000000
# 6 0.000000 0.000000 0.000000 0.000000 0.000000 0.025828
#
#
# Mechanical properties :
#
#
# Convention : Reuss Voigt Hill
#
# Bulk Modulus (GPa) = 66.12447 68.10514 67.11480
# Shear Modulus (GPa) = 39.73799 -159.07871 -59.67036
#
# Velocity S-wave (km/s) = 4.44521 -8.89397 -5.44714
# Velocity P-wave (km/s) = 7.69593 8.46195 2.48770
#
# Compressibility (1/GPa) = 0.01512299
#
# Stress axis : x y z
#
# Youngs Moduli (GPa) = 249.84483 249.84483 120.17514
#
# Poissons Ratio (x) = -1.13442 0.30898
# Poissons Ratio (y) = -1.13442 0.30898
# Poissons Ratio (z) = 0.64236 0.64236
#
# Static dielectric constant tensor:
#      x y z
#    x 3.908560 0.000000 0.000000 
#    y 0.000000 3.908560 0.000000 
#    z 0.000000 0.000000 3.873860 
# 
# 
# High freq. dielectric constant tensor:
#      x y z
#    x 1.787550 0.000000 0.000000 
#    y 0.000000 1.787550 0.000000 
#    z 0.000000 0.000000 1.790950 
# 
# From -- ./inp_files/6435.got.cif
#   From: 2010.03.12/outbox.cif.g09.slc.cpg/sg98_4_cif.got.tgz:6435.got - 2010.04.08 21:04:41.
