data_PCOD8306139
_publ_section_title
;
Structure prediction by ZEFSAII (Michael W. Deem and Ramdas Pophale) SiO2 
 PCOD8306139
Probable space group: I 4 2 2 
;
_chemical_formula_sum "Si O2"
_cell_formula_units_Z 96
_cell_length_a 14.262950
_cell_length_b 14.262950
_cell_length_c 21.550209
_cell_angle_alpha 90.000000
_cell_angle_beta 90.000000
_cell_angle_gamma 90.000000
_cell_volume 4383.996572
_symmetry_space_group_name_H-M "I 4 2 2 "
_symmetry_group_IT_number 97
_symmetry_cell_setting 'tetragonal'
loop_
_space_group_symop_operation_xyz
x,y,z
-y,x,z
-x,-y,z
y,-x,z
x,-y,-z
-x,y,-z
y,x,-z
-y,-x,-z
1/2+x,1/2+y,1/2+z
1/2-y,1/2+x,1/2+z
1/2-x,1/2-y,1/2+z
1/2+y,1/2-x,1/2+z
1/2+x,1/2-y,1/2-z
1/2-x,1/2+y,1/2-z
1/2+y,1/2+x,1/2-z
1/2-y,1/2-x,1/2-z
loop_
_atom_site_type_symbol
_atom_site_label
_atom_site_fract_x
_atom_site_fract_y
_atom_site_fract_z
Si Si1 0.217636 0.622830 0.870104
Si Si2 0.603304 0.108612 0.489306
Si Si3 0.389498 0.610503 0.500000
Si Si4 0.603558 0.103558 0.250000
Si Si5 0.072657 0.300909 0.786045
Si Si6 0.760687 0.323090 0.409749
Si Si7 0.002479 0.845195 0.308499
O O1 0.133791 0.620507 0.918691
O O2 0.179734 0.628016 0.801207
O O3 0.274613 0.718836 0.882512
O O4 0.278543 0.524388 0.868162
O O5 0.500000 0.151019 0.500000
O O6 0.671802 0.162505 0.535806
O O7 0.605892 0.000000 0.500000
O O8 0.368316 0.500000 0.500000
O O9 0.342723 0.657751 0.438862
O O10 0.501151 0.113292 0.281598
O O11 0.167001 0.333000 0.750000
O O12 0.099181 0.278432 0.856816
O O13 0.019581 0.212829 0.754731
O O14 0.093508 0.908207 0.310912
#
# Coordination Sequence:
#
# PCOD8306139 Si02
#       7
#    16  16   8   8  16  16  16
#     4  11  24  43  70 102 138 187 239 293 359 436
#     4  11  25  44  70 103 142 187 235 302 366 430
#     4  11  26  46  68 100 144 191 244 304 368 453
#     4  10  25  42  66 104 140 179 228 300 364 429
#     4  11  25  41  71 102 142 181 236 296 365 431
#     4  12  25  43  73 101 143 191 243 303 365 440
#     4  10  24  45  68  99 141 186 237 296 357 430
#
# _framework density 21.897825999999998
#
# number of rings (size 3 to 8) (size 9 to 14) (size 15 to 20)
#    0.000    1.083    1.667    2.750   15.167    0.000 
#    0.000    1.667    0.000    0.000    0.000    0.000 
#    0.000    0.000    0.000    0.000    0.000    0.000 
#
# Total GULP energy -594691.699394 kJ/mol
# GULP energy per Si atom -12389.410404 kJ/mol
# Density = 2.184799 g / cm^3
# Si number density = 21.897826 Si / 1000 Ang^3
#
#
#
# Elastic Constant Matrix: (Units=GPa)
#
#
# Indices 1 2 3 4 5 6 
#
# 1 86.0853 40.2776 42.7467 0.0000 0.0000 0.0000
# 2 40.2776 86.0838 42.7466 0.0000 0.0000 0.0000
# 3 42.7467 42.7466 132.6000 0.0000 0.0000 0.0000
# 4 0.0000 0.0000 0.0000 39.5164 0.0000 0.0000
# 5 0.0000 0.0000 0.0000 0.0000 39.5162 0.0000
# 6 0.0000 0.0000 0.0000 0.0000 0.0000 125.6847
#
#
#
# Elastic Compliance Matrix: (Units=1/GPa)
#
#
# Indices 1 2 3 4 5 6 
#
# 1 0.015976 -0.005855 -0.003263 0.000000 0.000000 0.000000
# 2 -0.005855 0.015976 -0.003263 0.000000 0.000000 0.000000
# 3 -0.003263 -0.003263 0.009645 0.000000 0.000000 0.000000
# 4 0.000000 0.000000 0.000000 0.025306 0.000000 0.000000
# 5 0.000000 0.000000 0.000000 0.000000 0.025306 0.000000
# 6 0.000000 0.000000 0.000000 0.000000 0.000000 0.007956
#
#
# Mechanical properties :
#
#
# Convention : Reuss Voigt Hill
#
# Bulk Modulus (GPa) = 59.39494 61.81233 60.60363
# Shear Modulus (GPa) = 38.30285 52.87667 45.58976
#
# Velocity S-wave (km/s) = 4.18684 4.91929 4.56777
# Velocity P-wave (km/s) = 7.11023 7.78169 7.45353
#
# Compressibility (1/GPa) = 0.01683645
#
# Stress axis : x y z
#
# Youngs Moduli (GPa) = 62.59441 62.59318 103.67872
#
# Poissons Ratio (x) = 0.36647 0.33828
# Poissons Ratio (y) = 0.36647 0.33829
# Poissons Ratio (z) = 0.20423 0.20423
#
# Static dielectric constant tensor:
#      x y z
#    x 4.208260 0.000000 0.000000 
#    y 0.000000 4.208280 0.000000 
#    z 0.000000 0.000000 3.862450 
# 
# 
# High freq. dielectric constant tensor:
#      x y z
#    x 1.873420 0.000000 0.000000 
#    y 0.000000 1.873420 0.000000 
#    z 0.000000 0.000000 1.851100 
# 
# From -- ./inp_files/6654.got.cif
#   From: 2010.03.12/outbox.cif.g09.slc.cpg/sg97_4_cif.got.tgz:6654.got - 2010.04.08 20:59:42.
