data_PCOD8306511
_publ_section_title
;
Structure prediction by ZEFSAII (Michael W. Deem and Ramdas Pophale) SiO2 
 PCOD8306511
Probable space group: P 4 M M
;
_chemical_formula_sum "Si O2"
_cell_formula_units_Z 64
_cell_length_a 17.944745
_cell_length_b 17.944745
_cell_length_c 11.675318
_cell_angle_alpha 90.000000
_cell_angle_beta 90.000000
_cell_angle_gamma 90.000000
_cell_volume 3759.614369
_symmetry_space_group_name_H-M "P 4 M M"
_symmetry_group_IT_number 99
_symmetry_cell_setting 'tetragonal'
loop_
_space_group_symop_operation_xyz
x,y,z
-y,x,z
-x,-y,z
y,-x,z
-x,y,z
x,-y,z
-y,-x,z
y,x,z
loop_
_atom_site_type_symbol
_atom_site_label
_atom_site_fract_x
_atom_site_fract_y
_atom_site_fract_z
Si Si1 0.917236 0.198621 0.074690
Si Si2 0.807928 0.688258 0.711264
Si Si3 0.089149 0.671050 0.920172
Si Si4 0.086026 0.790949 0.335693
Si Si5 0.793039 0.583433 0.054975
Si Si6 0.409486 0.716081 0.285154
Si Si7 0.316476 0.808077 0.452123
Si Si8 0.583381 0.697780 0.834787
O O1 0.880353 0.119648 0.061321
O O2 0.908936 0.229934 0.202331
O O3 0.000000 0.183368 0.037691
O O4 0.882885 0.255022 0.983826
O O5 0.771583 0.771583 0.719559
O O6 0.881008 0.678033 0.790469
O O7 0.830467 0.666155 0.582698
O O8 0.746733 0.628859 0.746409
O O9 0.000000 0.657655 0.920063
O O10 0.129193 0.609560 0.998684
O O11 0.135085 0.864916 0.364789
O O12 0.116703 0.716482 0.396018
O O13 0.000000 0.806247 0.372326
O O14 0.810350 0.500000 0.089463
O O15 0.760556 0.619678 0.171600
O O16 0.728048 0.591882 0.962602
O O17 0.500000 0.699989 0.285704
O O18 0.362307 0.637694 0.294051
O O19 0.388966 0.772920 0.389191
O O20 0.253518 0.746482 0.445506
O O21 0.500000 0.696738 0.789804
O O22 0.613733 0.613733 0.834760
#
# Coordination Sequence:
#
# PCOD8306511 Si02
#       8
#     8   8   8   8   8   8   8   8
#     4   9  17  28  43  66  94 121 150 185 228 278
#     4   9  18  32  48  66  92 127 163 199 242 292
#     4  10  19  30  48  73  95 120 160 208 248 280
#     4   9  17  29  47  71  98 129 164 204 249 296
#     4   9  18  32  48  68  96 127 155 187 234 290
#     4  10  20  34  54  78 103 132 165 203 249 302
#     4   9  18  32  49  69  94 128 168 204 243 296
#     4   9  17  29  46  68  93 121 153 190 235 288
#
# _framework density 17.023022000000001
#
# number of rings (size 3 to 8) (size 9 to 14) (size 15 to 20)
#    0.000    2.750    0.000    1.500    0.000    4.250 
#    0.000    1.250    0.000    3.375    0.000    5.250 
#    0.000    3.000    0.000    0.000    0.000    0.000 
#
# Total GULP energy -792857.759604 kJ/mol
# GULP energy per Si atom -12388.402494 kJ/mol
# Density = 1.698428 g / cm^3
# Si number density = 17.023022 Si / 1000 Ang^3
#
#
#
# Elastic Constant Matrix: (Units=GPa)
#
#
# Indices 1 2 3 4 5 6 
#
# 1 101.7570 11.7267 36.2712 0.0000 0.0000 -0.0011
# 2 11.7267 101.7570 36.2712 0.0000 0.0000 0.0011
# 3 36.2712 36.2712 97.0974 0.0000 0.0000 0.0000
# 4 0.0000 0.0000 0.0000 18.2613 0.0000 0.0000
# 5 0.0000 0.0000 0.0000 0.0000 18.2613 0.0000
# 6 -0.0011 0.0011 0.0000 0.0000 0.0000 19.6782
#
#
#
# Elastic Compliance Matrix: (Units=1/GPa)
#
#
# Indices 1 2 3 4 5 6 
#
# 1 0.011342 0.000234 -0.004324 0.000000 0.000000 0.000001
# 2 0.000234 0.011342 -0.004324 0.000000 0.000000 -0.000001
# 3 -0.004324 -0.004324 0.013530 0.000000 0.000000 0.000000
# 4 0.000000 0.000000 0.000000 0.054761 0.000000 0.000000
# 5 0.000000 0.000000 0.000000 0.000000 0.054761 0.000000
# 6 0.000001 -0.000001 0.000000 0.000000 0.000000 0.050818
#
#
# Mechanical properties :
#
#
# Convention : Reuss Voigt Hill
#
# Bulk Modulus (GPa) = 51.58729 52.12771 51.85750
# Shear Modulus (GPa) = 22.74360 25.66298 24.20329
#
# Velocity S-wave (km/s) = 3.65917 3.88692 3.77476
# Velocity P-wave (km/s) = 6.94427 7.12970 7.03760
#
# Compressibility (1/GPa) = 0.01938462
#
# Stress axis : x y z
#
# Youngs Moduli (GPa) = 88.17007 88.17007 73.91176
#
# Poissons Ratio (x) = -0.02066 0.31962
# Poissons Ratio (y) = -0.02066 0.31962
# Poissons Ratio (z) = 0.38127 0.38127
#
# Static dielectric constant tensor:
#      x y z
#    x 3.364090 0.000000 0.000000 
#    y 0.000000 3.364090 0.000000 
#    z 0.000000 0.000000 3.277620 
# 
# 
# High freq. dielectric constant tensor:
#      x y z
#    x 1.647710 0.000000 0.000000 
#    y 0.000000 1.647710 0.000000 
#    z 0.000000 0.000000 1.657890 
# 
# From -- ./inp_files/1582.got.cif
#   From: 2010.03.12/outbox.cif.g09.slc.cpg/sg99_cif.got.tgz:1582.got - 2010.04.08 21:11:30.
