data_PCOD8306191
_publ_section_title
;
Structure prediction by ZEFSAII (Michael W. Deem and Ramdas Pophale) SiO2 
 PCOD8306191
Probable space group: I 41 2 2
;
_chemical_formula_sum "Si O2"
_cell_formula_units_Z 68
_cell_length_a 11.309852
_cell_length_b 11.309852
_cell_length_c 27.653168
_cell_angle_alpha 90.000000
_cell_angle_beta 90.000000
_cell_angle_gamma 90.000000
_cell_volume 3537.192828
_symmetry_space_group_name_H-M "I 41 2 2"
_symmetry_group_IT_number 98
_symmetry_cell_setting 'tetragonal'
loop_
_space_group_symop_operation_xyz
x,y,z
-y,1/2+x,1/4+z
-x,-y,z
y,1/2-x,1/4+z
x,1/2-y,1/4-z
-x,1/2+y,1/4-z
y,x,-z
-y,-x,-z
1/2+x,1/2+y,1/2+z
1/2-y,x,3/4+z
1/2-x,1/2-y,1/2+z
1/2+y,-x,3/4+z
1/2+x,-y,3/4-z
1/2-x,y,3/4-z
1/2+y,1/2+x,1/2-z
1/2-y,1/2-x,1/2-z
loop_
_atom_site_type_symbol
_atom_site_label
_atom_site_fract_x
_atom_site_fract_y
_atom_site_fract_z
Si Si1 0.000000 0.000000 0.500000
Si Si2 0.675144 0.580663 0.682032
Si Si3 0.256947 0.743054 0.500000
Si Si4 0.824566 0.417823 0.421872
Si Si5 0.746354 0.503121 0.965603
Si Si6 0.250000 0.151352 0.375000
O O1 0.894501 0.996434 0.461790
O O2 0.655930 0.445707 0.665332
O O3 0.554352 0.653117 0.682119
O O4 0.717416 0.579214 0.737399
O O5 0.768236 0.643964 0.646300
O O6 0.259894 0.633189 0.463789
O O7 0.135047 0.722673 0.529896
O O8 0.750000 0.399848 0.375000
O O9 0.800159 0.566366 0.917900
#
# Coordination Sequence:
#
# PCOD8306191 Si02
#       6
#     4  16   8  16  16   8
#     4  10  16  36  52  76 120 148 168 250 298 316
#     4  10  21  39  58  86 120 155 193 251 286 347
#     4   9  22  39  58  85 122 155 188 252 293 349
#     4  10  21  39  61  81 119 159 196 237 301 346
#     4  10  21  36  58  86 118 149 194 243 298 345
#     4  12  20  36  62  90 110 162 198 236 296 368
#
# _framework density 19.224284000000001
#
# number of rings (size 3 to 8) (size 9 to 14) (size 15 to 20)
#    0.000    1.882    3.529    0.000    1.647    1.882 
#    0.000    4.706    0.000    0.000    0.000    0.000 
#    0.000    0.000    0.000    0.000    0.000    0.000 
#
# Total GULP energy -421342.525586 kJ/mol
# GULP energy per Si atom -12392.427223 kJ/mol
# Density = 1.918053 g / cm^3
# Si number density = 19.224284 Si / 1000 Ang^3
#
#
#
# Elastic Constant Matrix: (Units=GPa)
#
#
# Indices 1 2 3 4 5 6 
#
# 1 76.3334 47.3082 70.7118 0.0000 0.0000 0.0000
# 2 47.3082 76.3341 70.7106 0.0000 0.0000 0.0000
# 3 70.7118 70.7106 159.2919 0.0000 0.0000 0.0000
# 4 0.0000 0.0000 0.0000 31.0970 0.0000 0.0000
# 5 0.0000 0.0000 0.0000 0.0000 31.0975 0.0000
# 6 0.0000 0.0000 0.0000 0.0000 0.0000 22.3060
#
#
#
# Elastic Compliance Matrix: (Units=1/GPa)
#
#
# Indices 1 2 3 4 5 6 
#
# 1 0.025442 -0.009011 -0.007294 0.000000 0.000000 0.000000
# 2 -0.009011 0.025441 -0.007293 0.000000 0.000000 0.000000
# 3 -0.007294 -0.007293 0.012753 0.000000 0.000000 0.000000
# 4 0.000000 0.000000 0.000000 0.032157 0.000000 0.000000
# 5 0.000000 0.000000 0.000000 0.000000 0.032157 0.000000
# 6 0.000000 0.000000 0.000000 0.000000 0.000000 0.044831
#
#
# Mechanical properties :
#
#
# Convention : Reuss Voigt Hill
#
# Bulk Modulus (GPa) = 60.82915 76.60227 68.71571
# Shear Modulus (GPa) = 22.17714 25.11535 23.64625
#
# Velocity S-wave (km/s) = 3.40015 3.61839 3.51097
# Velocity P-wave (km/s) = 6.86478 7.57563 7.22895
#
# Compressibility (1/GPa) = 0.01643949
#
# Stress axis : x y z
#
# Youngs Moduli (GPa) = 39.30532 39.30689 78.41193
#
# Poissons Ratio (x) = 0.35420 0.57193
# Poissons Ratio (y) = 0.35418 0.57188
# Poissons Ratio (z) = 0.28669 0.28667
#
# Static dielectric constant tensor:
#      x y z
#    x 3.529370 0.000000 0.000000 
#    y 0.000000 3.529360 0.000000 
#    z 0.000000 0.000000 3.232350 
# 
# 
# High freq. dielectric constant tensor:
#      x y z
#    x 1.748590 0.000000 0.000000 
#    y 0.000000 1.748590 0.000000 
#    z 0.000000 0.000000 1.741780 
# 
# From -- ./inp_files/10873.got.cif
#   From: 2010.03.12/outbox.cif.g09.slc.cpg/sg98_6_cif.got.tgz:10873.got - 2010.04.08 21:04:41.
