data_PCOD8306969
_publ_section_title
;
Structure prediction by ZEFSAII (Michael W. Deem and Ramdas Pophale) SiO2 
 PCOD8306969
Probable space group: P 4 C C
;
_chemical_formula_sum "Si O2"
_cell_formula_units_Z 56
_cell_length_a 14.773267
_cell_length_b 14.773267
_cell_length_c 14.137066
_cell_angle_alpha 90.000000
_cell_angle_beta 90.000000
_cell_angle_gamma 90.000000
_cell_volume 3085.406425
_symmetry_space_group_name_H-M "P 4 C C"
_symmetry_group_IT_number 103
_symmetry_cell_setting 'tetragonal'
loop_
_space_group_symop_operation_xyz
x,y,z
-y,x,z
-x,-y,z
y,-x,z
-x,y,1/2+z
x,-y,1/2+z
-y,-x,1/2+z
y,x,1/2+z
loop_
_atom_site_type_symbol
_atom_site_label
_atom_site_fract_x
_atom_site_fract_y
_atom_site_fract_z
Si Si1 0.235399 0.500000 0.476390
Si Si2 0.744927 0.161991 0.837174
Si Si3 0.838010 0.744927 0.615606
Si Si4 0.894497 0.894497 0.976390
Si Si5 0.444337 0.913023 0.836319
Si Si6 0.444337 0.086977 0.116461
Si Si7 0.312359 0.687641 0.476390
O O1 0.174271 0.513977 0.384625
O O2 0.174271 0.486023 0.568155
O O3 0.299136 0.583487 0.500967
O O4 0.299137 0.416514 0.451813
O O5 0.761071 0.176706 0.726390
O O6 0.841669 0.137679 0.882819
O O7 0.665323 0.085982 0.855348
O O8 0.714407 0.255748 0.883626
O O9 0.862321 0.841669 0.569960
O O10 0.914018 0.665323 0.597432
O O11 0.744253 0.714407 0.569154
O O12 0.000000 0.873582 0.976390
O O13 0.464020 0.902514 0.726390
O O14 0.500000 0.000000 0.875710
O O15 0.500000 0.000000 0.077070
#
# Coordination Sequence:
#
# PCOD8306969 Si02
#       7
#     8   8   8   8   8   8   8
#     4  10  19  33  50  72 104 136 166 207 251 300
#     4   9  19  36  55  76 104 136 172 217 265 308
#     4   9  19  36  55  76 104 136 172 217 265 308
#     4  10  22  37  52  75 106 142 184 218 250 306
#     4   9  18  32  53  80 103 128 167 213 263 313
#     4   9  18  32  53  80 103 128 167 213 263 313
#     4   9  20  34  52  76 102 135 172 210 256 311
#
# _framework density 18.149958999999999
#
# number of rings (size 3 to 8) (size 9 to 14) (size 15 to 20)
#    0.000    2.714    0.000    0.429    0.000    9.429 
#    0.000    4.286    0.000    0.000    0.000    8.000 
#    0.000    0.000    0.000    0.000    0.000    0.000 
#
# Total GULP energy -693954.931189 kJ/mol
# GULP energy per Si atom -12392.052343 kJ/mol
# Density = 1.810865 g / cm^3
# Si number density = 18.149959 Si / 1000 Ang^3
#
#
#
# Elastic Constant Matrix: (Units=GPa)
#
#
# Indices 1 2 3 4 5 6 
#
# 1 129.8589 72.0457 50.1398 0.0000 0.0000 0.0000
# 2 72.0457 129.8589 50.1398 0.0000 0.0000 0.0000
# 3 50.1398 50.1398 101.8466 0.0000 0.0000 0.0000
# 4 0.0000 0.0000 0.0000 20.9558 0.0000 0.0000
# 5 0.0000 0.0000 0.0000 0.0000 20.9558 0.0000
# 6 0.0000 0.0000 0.0000 0.0000 0.0000 30.6064
#
#
#
# Elastic Compliance Matrix: (Units=1/GPa)
#
#
# Indices 1 2 3 4 5 6 
#
# 1 0.011926 -0.005371 -0.003227 0.000000 0.000000 0.000000
# 2 -0.005371 0.011926 -0.003227 0.000000 0.000000 0.000000
# 3 -0.003227 -0.003227 0.012997 0.000000 0.000000 0.000000
# 4 0.000000 0.000000 0.000000 0.047719 0.000000 0.000000
# 5 0.000000 0.000000 0.000000 0.000000 0.047719 0.000000
# 6 0.000000 0.000000 0.000000 0.000000 0.000000 0.032673
#
#
# Mechanical properties :
#
#
# Convention : Reuss Voigt Hill
#
# Bulk Modulus (GPa) = 75.76767 78.46833 77.11800
# Shear Modulus (GPa) = 25.90517 27.11956 26.51237
#
# Velocity S-wave (km/s) = 3.78204 3.86967 3.82611
# Velocity P-wave (km/s) = 7.80434 7.95569 7.88038
#
# Compressibility (1/GPa) = 0.01319824
#
# Stress axis : x y z
#
# Youngs Moduli (GPa) = 83.84726 83.84726 76.94372
#
# Poissons Ratio (x) = 0.45031 0.24833
# Poissons Ratio (y) = 0.45031 0.24833
# Poissons Ratio (z) = 0.27062 0.27062
#
# Static dielectric constant tensor:
#      x y z
#    x 3.549160 0.000000 0.000000 
#    y 0.000000 3.549160 0.000000 
#    z 0.000000 0.000000 3.301420 
# 
# 
# High freq. dielectric constant tensor:
#      x y z
#    x 1.701080 0.000000 0.000000 
#    y 0.000000 1.701080 0.000000 
#    z 0.000000 0.000000 1.706290 
# 
# From -- ./inp_files/884.got.cif
#   From: 2010.03.12/outbox.cif.g09.slc.cpg/sg103_cif.got.tgz:884.got - 2010.04.14 01:42:52.
