data_PCOD8306366
_publ_section_title
;
Structure prediction by ZEFSAII (Michael W. Deem and Ramdas Pophale) SiO2 
 PCOD8306366
Probable space group: I 41 2 2
;
_chemical_formula_sum "Si O2"
_cell_formula_units_Z 48
_cell_length_a 7.672343
_cell_length_b 7.672343
_cell_length_c 25.972117
_cell_angle_alpha 90.000000
_cell_angle_beta 90.000000
_cell_angle_gamma 90.000000
_cell_volume 1528.844696
_symmetry_space_group_name_H-M "I 41 2 2"
_symmetry_group_IT_number 98
_symmetry_cell_setting 'tetragonal'
loop_
_space_group_symop_operation_xyz
x,y,z
-y,1/2+x,1/4+z
-x,-y,z
y,1/2-x,1/4+z
x,1/2-y,1/4-z
-x,1/2+y,1/4-z
y,x,-z
-y,-x,-z
1/2+x,1/2+y,1/2+z
1/2-y,x,3/4+z
1/2-x,1/2-y,1/2+z
1/2+y,-x,3/4+z
1/2+x,-y,3/4-z
1/2-x,y,3/4-z
1/2+y,1/2+x,1/2-z
1/2-y,1/2-x,1/2-z
loop_
_atom_site_type_symbol
_atom_site_label
_atom_site_fract_x
_atom_site_fract_y
_atom_site_fract_z
Si Si1 0.334371 0.407044 0.059612
Si Si2 0.538832 0.697479 0.789312
Si Si3 0.780105 0.423153 0.430291
O O1 0.500000 0.500000 0.087896
O O2 0.162352 0.526450 0.066388
O O3 0.290720 0.207835 0.077574
O O4 0.385098 0.385098 0.000000
O O5 0.500000 0.500000 0.779754
O O6 0.557383 0.762885 0.727986
O O7 0.369932 0.776592 0.816519
O O8 0.750000 0.514379 0.375000
#
# Coordination Sequence:
#
# PCOD8306366 Si02
#       3
#    16  16  16
#     4  11  20  40  79 109 152 222 270 338 427 500
#     4  11  21  45  76 108 166 226 275 349 435 505
#     4  11  25  44  72 116 167 220 292 358 414 508
#
# _framework density 31.396252
#
# number of rings (size 3 to 8) (size 9 to 14) (size 15 to 20)
#    0.000    1.000    6.667    2.000    0.000    2.667 
#    0.000    6.667    0.000    8.000    0.000    0.000 
#    0.000    0.000    0.000    0.000    0.000    0.000 
#
# Total GULP energy -297371.366466 kJ/mol
# GULP energy per Si atom -12390.473603 kJ/mol
# Density = 3.132479 g / cm^3
# Si number density = 31.396252 Si / 1000 Ang^3
#
#
#
# Elastic Constant Matrix: (Units=GPa)
#
#
# Indices 1 2 3 4 5 6 
#
# 1 207.6866 31.4374 24.9279 0.0000 0.0000 0.0000
# 2 31.4374 207.6867 24.9279 0.0000 0.0000 0.0000
# 3 24.9279 24.9279 148.7756 0.0000 0.0000 0.0000
# 4 0.0000 0.0000 0.0000 12.8930 0.0000 0.0000
# 5 0.0000 0.0000 0.0000 0.0000 12.8930 0.0000
# 6 0.0000 0.0000 0.0000 0.0000 0.0000 34.1850
#
#
#
# Elastic Compliance Matrix: (Units=1/GPa)
#
#
# Indices 1 2 3 4 5 6 
#
# 1 0.005004 -0.000670 -0.000726 0.000000 0.000000 0.000000
# 2 -0.000670 0.005004 -0.000726 0.000000 0.000000 0.000000
# 3 -0.000726 -0.000726 0.006965 0.000000 0.000000 0.000000
# 4 0.000000 0.000000 0.000000 0.077561 0.000000 0.000000
# 5 0.000000 0.000000 0.000000 0.000000 0.077561 0.000000
# 6 0.000000 0.000000 0.000000 0.000000 0.000000 0.029253
#
#
# Mechanical properties :
#
#
# Convention : Reuss Voigt Hill
#
# Bulk Modulus (GPa) = 78.57182 80.74838 79.66010
# Shear Modulus (GPa) = 23.82834 44.18459 34.00647
#
# Velocity S-wave (km/s) = 2.75790 3.75550 3.29468
# Velocity P-wave (km/s) = 5.93477 6.67682 6.31670
#
# Compressibility (1/GPa) = 0.01272721
#
# Stress axis : x y z
#
# Youngs Moduli (GPa) = 199.85821 199.85828 143.57826
#
# Poissons Ratio (x) = 0.13395 0.10425
# Poissons Ratio (y) = 0.13395 0.10425
# Poissons Ratio (z) = 0.14511 0.14511
#
# Static dielectric constant tensor:
#      x y z
#    x 6.731500 0.000000 0.000000 
#    y 0.000000 6.731500 0.000000 
#    z 0.000000 0.000000 5.950370 
# 
# 
# High freq. dielectric constant tensor:
#      x y z
#    x 2.330710 0.000000 0.000000 
#    y 0.000000 2.330710 0.000000 
#    z 0.000000 0.000000 2.284080 
# 
# From -- ./inp_files/11299.got.cif
#   From: 2010.03.12/outbox.cif.g09.slc.cpg/sg98_6_cif.got.tgz:11299.got - 2010.04.08 21:04:41.
