data_PCOD8306834
_publ_section_title
;
Structure prediction by ZEFSAII (Michael W. Deem and Ramdas Pophale) SiO2 
 PCOD8306834
Probable space group: P 42 N M
;
_chemical_formula_sum "Si O2"
_cell_formula_units_Z 64
_cell_length_a 12.146943
_cell_length_b 12.146943
_cell_length_c 23.175182
_cell_angle_alpha 90.000000
_cell_angle_beta 90.000000
_cell_angle_gamma 90.000000
_cell_volume 3419.456951
_symmetry_space_group_name_H-M "P 42 N M"
_symmetry_group_IT_number 102
_symmetry_cell_setting 'tetragonal'
loop_
_space_group_symop_operation_xyz
x,y,z
1/2-y,1/2+x,1/2+z
-x,-y,z
1/2+y,1/2-x,1/2+z
1/2-x,1/2+y,1/2+z
1/2+x,1/2-y,1/2+z
-y,-x,z
y,x,z
loop_
_atom_site_type_symbol
_atom_site_label
_atom_site_fract_x
_atom_site_fract_y
_atom_site_fract_z
Si Si1 0.319930 0.498968 0.185870
Si Si2 0.174539 0.990929 0.310569
Si Si3 0.247665 0.930649 0.559574
Si Si4 0.874542 0.482879 0.586738
Si Si5 0.244135 0.065388 0.194507
Si Si6 0.354810 0.829580 0.867894
Si Si7 0.858755 0.677086 0.499493
Si Si8 0.123820 0.453514 0.258978
O O1 0.392067 0.607934 0.184287
O O2 0.393726 0.393726 0.205127
O O3 0.271523 0.480757 0.122446
O O4 0.219309 0.526888 0.229754
O O5 0.082951 0.082951 0.317557
O O6 0.204494 0.978776 0.242796
O O7 0.276806 0.027082 0.349756
O O8 0.126859 0.873142 0.331489
O O9 0.147949 0.852052 0.539913
O O10 0.360626 0.860823 0.560703
O O11 0.256580 0.029699 0.513752
O O12 0.790941 0.500413 0.639658
O O13 0.843080 0.569931 0.538156
O O14 0.000000 0.500000 0.608377
O O15 0.146775 0.146775 0.174422
O O16 0.339132 0.137712 0.224426
O O17 0.254337 0.745664 0.857575
O O18 0.362738 0.866102 0.933897
O O19 0.342972 0.935704 0.826266
O O20 0.756031 0.756031 0.509716
O O21 0.000000 0.500000 0.251979
#
# Coordination Sequence:
#
# PCOD8306834 Si02
#       8
#     8   8   8   8   8   8   8   8
#     4  10  20  35  57  85 115 146 185 235 286 337
#     4   8  15  28  48  75 101 129 173 224 269 319
#     4  10  20  35  56  82 112 148 189 231 282 341
#     4  10  20  33  53  76 110 145 186 226 275 332
#     4  10  18  31  51  74 105 147 187 220 272 344
#     4   9  19  37  57  74 103 151 192 228 276 339
#     4  10  22  37  55  83 113 145 191 239 282 325
#     4  11  21  33  56  84 113 141 185 229 284 342
#
# _framework density 18.716424
#
# number of rings (size 3 to 8) (size 9 to 14) (size 15 to 20)
#    0.000    2.250    1.250    3.000    1.750    3.250 
#    0.000    3.750    0.000    4.125    0.000    3.500 
#    0.000    0.000    0.000    0.000    0.000    0.000 
#
# Total GULP energy -793307.329651 kJ/mol
# GULP energy per Si atom -12395.427026 kJ/mol
# Density = 1.867382 g / cm^3
# Si number density = 18.716424 Si / 1000 Ang^3
#
#
#
# Elastic Constant Matrix: (Units=GPa)
#
#
# Indices 1 2 3 4 5 6 
#
# 1 74.8048 29.1898 40.2225 0.0000 0.0000 0.0000
# 2 29.1898 74.8048 40.2225 0.0000 0.0000 0.0000
# 3 40.2225 40.2225 107.2341 0.0000 0.0000 0.0000
# 4 0.0000 0.0000 0.0000 24.5825 0.0000 0.0000
# 5 0.0000 0.0000 0.0000 0.0000 24.5825 0.0000
# 6 0.0000 0.0000 0.0000 0.0000 0.0000 21.4532
#
#
#
# Elastic Compliance Matrix: (Units=1/GPa)
#
#
# Indices 1 2 3 4 5 6 
#
# 1 0.017734 -0.004188 -0.005081 0.000000 0.000000 0.000000
# 2 -0.004188 0.017734 -0.005081 0.000000 0.000000 0.000000
# 3 -0.005081 -0.005081 0.013137 0.000000 0.000000 0.000000
# 4 0.000000 0.000000 0.000000 0.040679 0.000000 0.000000
# 5 0.000000 0.000000 0.000000 0.000000 0.040679 0.000000
# 6 0.000000 0.000000 0.000000 0.000000 0.000000 0.046613
#
#
# Mechanical properties :
#
#
# Convention : Reuss Voigt Hill
#
# Bulk Modulus (GPa) = 50.23754 52.90147 51.56950
# Shear Modulus (GPa) = 23.59453 23.93760 23.76606
#
# Velocity S-wave (km/s) = 3.55439 3.58014 3.56729
# Velocity P-wave (km/s) = 6.61397 6.73913 6.67685
#
# Compressibility (1/GPa) = 0.01990543
#
# Stress axis : x y z
#
# Youngs Moduli (GPa) = 56.38728 56.38728 76.12004
#
# Poissons Ratio (x) = 0.23616 0.38677
# Poissons Ratio (y) = 0.23616 0.38677
# Poissons Ratio (z) = 0.28651 0.28651
#
# Static dielectric constant tensor:
#      x y z
#    x 3.441320 0.000000 0.000000 
#    y 0.000000 3.441320 0.000000 
#    z 0.000000 0.000000 3.427250 
# 
# 
# High freq. dielectric constant tensor:
#      x y z
#    x 1.714690 0.000000 0.000000 
#    y 0.000000 1.714690 0.000000 
#    z 0.000000 0.000000 1.718200 
# 
# From -- ./inp_files/3461.got.cif
#   From: 2010.03.12/outbox.cif.g09.slc.cpg/sg102_2_cif.got.tgz:3461.got - 2010.04.14 01:40:42.
