data_PCOD8306257
_publ_section_title
;
Structure prediction by ZEFSAII (Michael W. Deem and Ramdas Pophale) SiO2 
 PCOD8306257
Probable space group: I 41 2 2
;
_chemical_formula_sum "Si O2"
_cell_formula_units_Z 56
_cell_length_a 17.295689
_cell_length_b 17.295689
_cell_length_c 8.999104
_cell_angle_alpha 90.000000
_cell_angle_beta 90.000000
_cell_angle_gamma 90.000000
_cell_volume 2691.999692
_symmetry_space_group_name_H-M "I 41 2 2"
_symmetry_group_IT_number 98
_symmetry_cell_setting 'tetragonal'
loop_
_space_group_symop_operation_xyz
x,y,z
-y,1/2+x,1/4+z
-x,-y,z
y,1/2-x,1/4+z
x,1/2-y,1/4-z
-x,1/2+y,1/4-z
y,x,-z
-y,-x,-z
1/2+x,1/2+y,1/2+z
1/2-y,x,3/4+z
1/2-x,1/2-y,1/2+z
1/2+y,-x,3/4+z
1/2+x,-y,3/4-z
1/2-x,y,3/4-z
1/2+y,1/2+x,1/2-z
1/2-y,1/2-x,1/2-z
loop_
_atom_site_type_symbol
_atom_site_label
_atom_site_fract_x
_atom_site_fract_y
_atom_site_fract_z
Si Si1 0.381325 0.410903 0.162275
Si Si2 0.333474 0.750000 0.625000
Si Si3 0.132885 0.537662 0.357083
Si Si4 0.591301 0.798912 0.837906
O O1 0.398790 0.489682 0.252483
O O2 0.419049 0.339423 0.251908
O O3 0.290878 0.393181 0.140783
O O4 0.419425 0.419425 0.000000
O O5 0.274404 0.774404 0.750000
O O6 0.387038 0.677061 0.669326
O O7 0.061915 0.561915 0.250000
O O8 0.191528 0.486033 0.259417
O O9 0.663013 0.836988 0.750000
#
# Coordination Sequence:
#
# PCOD8306257 Si02
#       4
#    16   8  16  16
#     4  11  22  36  57  90 126 157 207 252 294 344
#     4  10  20  40  70  94 116 144 192 242 306 368
#     4  10  20  40  65  87 118 160 195 243 302 369
#     4  10  20  36  57  88 122 164 208 238 295 354
#
# _framework density 20.802378000000001
#
# number of rings (size 3 to 8) (size 9 to 14) (size 15 to 20)
#    0.000    1.714    2.857    3.429    0.000    8.571 
#    0.000    8.571    0.000    0.000    0.000    0.000 
#    0.000    0.000    0.000    0.000    0.000    0.000 
#
# Total GULP energy -347222.377178 kJ/mol
# GULP energy per Si atom -12400.799185 kJ/mol
# Density = 2.075503 g / cm^3
# Si number density = 20.802378 Si / 1000 Ang^3
#
#
#
# Elastic Constant Matrix: (Units=GPa)
#
#
# Indices 1 2 3 4 5 6 
#
# 1 87.7282 42.8774 59.8931 0.0000 0.0000 0.0000
# 2 42.8774 87.7279 59.8926 0.0000 0.0000 0.0000
# 3 59.8931 59.8926 181.1401 0.0000 0.0000 0.0000
# 4 0.0000 0.0000 0.0000 28.1463 0.0000 0.0000
# 5 0.0000 0.0000 0.0000 0.0000 28.1453 0.0000
# 6 0.0000 0.0000 0.0000 0.0000 0.0000 26.4951
#
#
#
# Elastic Compliance Matrix: (Units=1/GPa)
#
#
# Indices 1 2 3 4 5 6 
#
# 1 0.016643 -0.005654 -0.003634 0.000000 0.000000 0.000000
# 2 -0.005654 0.016643 -0.003633 0.000000 0.000000 0.000000
# 3 -0.003634 -0.003633 0.007923 0.000000 0.000000 0.000000
# 4 0.000000 0.000000 0.000000 0.035529 0.000000 0.000000
# 5 0.000000 0.000000 0.000000 0.000000 0.035530 0.000000
# 6 0.000000 0.000000 0.000000 0.000000 0.000000 0.037743
#
#
# Mechanical properties :
#
#
# Convention : Reuss Voigt Hill
#
# Bulk Modulus (GPa) = 65.07163 75.76915 70.42039
# Shear Modulus (GPa) = 27.62834 29.48623 28.55728
#
# Velocity S-wave (km/s) = 3.64831 3.76898 3.70914
# Velocity P-wave (km/s) = 7.00683 7.44598 7.22974
#
# Compressibility (1/GPa) = 0.01536768
#
# Stress axis : x y z
#
# Youngs Moduli (GPa) = 60.08647 60.08656 126.20888
#
# Poissons Ratio (x) = 0.33970 0.45858
# Poissons Ratio (y) = 0.33970 0.45857
# Poissons Ratio (z) = 0.21833 0.21832
#
# Static dielectric constant tensor:
#      x y z
#    x 3.707970 0.000000 0.000000 
#    y 0.000000 3.707970 0.000000 
#    z 0.000000 0.000000 3.853910 
# 
# 
# High freq. dielectric constant tensor:
#      x y z
#    x 1.808580 0.000000 0.000000 
#    y 0.000000 1.808580 0.000000 
#    z 0.000000 0.000000 1.807600 
# 
# From -- ./inp_files/2963.got.cif
#   From: 2010.03.12/outbox.cif.g09.slc.cpg/sg98_2_cif.got.tgz:2963.got - 2010.04.08 21:04:41.
