data_PCOD8306923
_publ_section_title
;
Structure prediction by ZEFSAII (Michael W. Deem and Ramdas Pophale) SiO2 
 PCOD8306923
Probable space group: P 42 N M
;
_chemical_formula_sum "Si O2"
_cell_formula_units_Z 36
_cell_length_a 10.696282
_cell_length_b 10.696282
_cell_length_c 16.438104
_cell_angle_alpha 90.000000
_cell_angle_beta 90.000000
_cell_angle_gamma 90.000000
_cell_volume 1880.690853
_symmetry_space_group_name_H-M "P 42 N M"
_symmetry_group_IT_number 102
_symmetry_cell_setting 'tetragonal'
loop_
_space_group_symop_operation_xyz
x,y,z
1/2-y,1/2+x,1/2+z
-x,-y,z
1/2+y,1/2-x,1/2+z
1/2-x,1/2+y,1/2+z
1/2+x,1/2-y,1/2+z
-y,-x,z
y,x,z
loop_
_atom_site_type_symbol
_atom_site_label
_atom_site_fract_x
_atom_site_fract_y
_atom_site_fract_z
Si Si1 0.191258 0.191258 0.281711
Si Si2 0.191258 0.191258 0.689495
Si Si3 0.811097 0.188904 0.343476
Si Si4 0.640535 0.984738 0.577920
Si Si5 0.811097 0.188904 0.627729
Si Si6 0.000000 0.000000 0.689509
Si Si7 0.515262 0.140535 0.893286
Si Si8 0.500000 0.500000 0.781694
O O1 0.269598 0.269598 0.217546
O O2 0.113186 0.287259 0.336711
O O3 0.094880 0.094880 0.234218
O O4 0.269597 0.269597 0.753660
O O5 0.287258 0.113185 0.634495
O O6 0.094880 0.094880 0.736986
O O7 0.696600 0.125631 0.390900
O O8 0.916777 0.083224 0.340722
O O9 0.500000 0.000000 0.610574
O O10 0.696599 0.125632 0.580306
O O11 0.643100 0.934309 0.485603
O O12 0.916778 0.083223 0.630481
O O13 0.500000 0.000000 0.860632
#
# Coordination Sequence:
#
# PCOD8306923 Si02
#       8
#     4   4   4   8   4   2   8   2
#     4  10  21  35  60  83 112 145 190 236 277 333
#     4  10  21  35  60  83 112 145 190 236 277 333
#     4  10  21  35  60  83 112 145 190 236 277 333
#     4  10  22  38  57  83 116 151 187 229 287 344
#     4  10  21  35  60  83 112 145 190 236 277 333
#     4   8  20  36  49  84 101 144 180 222 284 316
#     4  10  22  38  57  83 116 151 187 229 287 344
#     4   8  20  36  49  84 101 144 180 222 284 316
#
# _framework density 19.141902999999999
#
# number of rings (size 3 to 8) (size 9 to 14) (size 15 to 20)
#    0.000    2.222    0.000    1.333   12.444    0.000 
#    0.000    6.667    0.000    0.000    0.000    9.333 
#    0.000    0.000    0.000    0.000    0.000    0.000 
#
# Total GULP energy -446068.216187 kJ/mol
# GULP energy per Si atom -12390.783783 kJ/mol
# Density = 1.909833 g / cm^3
# Si number density = 19.141903 Si / 1000 Ang^3
#
#
#
# Elastic Constant Matrix: (Units=GPa)
#
#
# Indices 1 2 3 4 5 6 
#
# 1 123.4757 63.8203 30.4939 0.0000 0.0000 0.0000
# 2 63.8203 123.4757 30.4939 0.0000 0.0000 0.0000
# 3 30.4939 30.4939 69.3794 0.0000 0.0000 0.0000
# 4 0.0000 0.0000 0.0000 18.1944 0.0000 0.0000
# 5 0.0000 0.0000 0.0000 0.0000 18.1944 0.0000
# 6 0.0000 0.0000 0.0000 0.0000 0.0000 33.6846
#
#
#
# Elastic Compliance Matrix: (Units=1/GPa)
#
#
# Indices 1 2 3 4 5 6 
#
# 1 0.011497 -0.005266 -0.002739 0.000000 0.000000 0.000000
# 2 -0.005266 0.011497 -0.002739 0.000000 0.000000 0.000000
# 3 -0.002739 -0.002739 0.016821 0.000000 0.000000 0.000000
# 4 0.000000 0.000000 0.000000 0.054962 0.000000 0.000000
# 5 0.000000 0.000000 0.000000 0.000000 0.054962 0.000000
# 6 0.000000 0.000000 0.000000 0.000000 0.000000 0.029687
#
#
# Mechanical properties :
#
#
# Convention : Reuss Voigt Hill
#
# Bulk Modulus (GPa) = 54.56080 62.88298 58.72189
# Shear Modulus (GPa) = 24.15202 26.78284 25.46743
#
# Velocity S-wave (km/s) = 3.55595 3.74461 3.65150
# Velocity P-wave (km/s) = 6.73980 7.18460 6.96575
#
# Compressibility (1/GPa) = 0.01832818
#
# Stress axis : x y z
#
# Youngs Moduli (GPa) = 86.97981 86.97981 59.44991
#
# Poissons Ratio (x) = 0.45804 0.16281
# Poissons Ratio (y) = 0.45804 0.16281
# Poissons Ratio (z) = 0.23821 0.23821
#
# Static dielectric constant tensor:
#      x y z
#    x 3.847510 0.000000 0.000000 
#    y 0.000000 3.847510 0.000000 
#    z 0.000000 0.000000 3.125810 
# 
# 
# High freq. dielectric constant tensor:
#      x y z
#    x 1.758850 0.000000 0.000000 
#    y 0.000000 1.758850 0.000000 
#    z 0.000000 0.000000 1.712840 
# 
# From -- ./inp_files/2214.got.cif
#   From: 2010.03.12/outbox.cif.g09.slc.cpg/sg102_2_cif.got.tgz:2214.got - 2010.04.14 01:40:42.
