data_PCOD8306750
_publ_section_title
;
Structure prediction by ZEFSAII (Michael W. Deem and Ramdas Pophale) SiO2 
 PCOD8306750
Probable space group: P 42 C M
;
_chemical_formula_sum "Si O2"
_cell_formula_units_Z 48
_cell_length_a 11.165510
_cell_length_b 11.165510
_cell_length_c 18.981528
_cell_angle_alpha 90.000000
_cell_angle_beta 90.000000
_cell_angle_gamma 90.000000
_cell_volume 2366.400779
_symmetry_space_group_name_H-M "P 42 C M"
_symmetry_group_IT_number 101
_symmetry_cell_setting 'tetragonal'
loop_
_space_group_symop_operation_xyz
x,y,z
-y,x,1/2+z
-x,-y,z
y,-x,1/2+z
-x,y,1/2+z
x,-y,1/2+z
-y,-x,z
y,x,z
loop_
_atom_site_type_symbol
_atom_site_label
_atom_site_fract_x
_atom_site_fract_y
_atom_site_fract_z
Si Si1 0.158900 0.353079 0.356250
Si Si2 0.306417 0.507340 0.605510
Si Si3 0.636201 0.024114 0.237513
Si Si4 0.196031 0.002886 0.109559
Si Si5 0.266997 0.543937 0.258491
Si Si6 0.648062 0.848571 0.514038
O O1 0.227682 0.227682 0.358476
O O2 0.242632 0.455670 0.323169
O O3 0.120252 0.392351 0.434873
O O4 0.039502 0.335696 0.311281
O O5 0.372835 0.627166 0.576042
O O6 0.396876 0.396876 0.606787
O O7 0.267258 0.532505 0.686009
O O8 0.191409 0.470453 0.558258
O O9 0.728877 0.975364 0.180219
O O10 0.647647 0.166223 0.250583
O O11 0.500000 0.000000 0.212938
O O12 0.102789 0.897212 0.124091
O O13 0.288155 0.965227 0.047798
O O14 0.125284 0.125284 0.089307
O O15 0.394023 0.605978 0.273180
O O16 0.738279 0.738279 0.513175
#
# Coordination Sequence:
#
# PCOD8306750 Si02
#       6
#     8   8   8   8   8   8
#     4  10  21  35  54  81 115 150 187 232 290 353
#     4   9  16  28  52  84 115 149 192 239 291 351
#     4  10  20  35  55  80 112 155 185 230 291 347
#     4  10  19  35  62  88 109 145 201 253 295 344
#     4  10  19  34  57  83 112 149 193 237 284 339
#     4   9  18  34  54  81 117 153 188 243 304 347
#
# _framework density 20.283968999999999
#
# number of rings (size 3 to 8) (size 9 to 14) (size 15 to 20)
#    0.000    2.333    1.667    1.500    0.000    1.667 
#    0.000    5.833    0.000    4.000    0.000    0.000 
#    0.000    0.000    0.000    0.000    0.000    0.000 
#
# Total GULP energy -595033.969175 kJ/mol
# GULP energy per Si atom -12396.541024 kJ/mol
# Density = 2.023780 g / cm^3
# Si number density = 20.283969 Si / 1000 Ang^3
#
#
#
# Elastic Constant Matrix: (Units=GPa)
#
#
# Indices 1 2 3 4 5 6 
#
# 1 76.9813 38.7846 51.8978 0.0000 0.0000 -0.0001
# 2 38.7846 76.9813 51.8978 0.0000 0.0000 0.0001
# 3 51.8978 51.8978 170.1130 0.0000 0.0000 0.0000
# 4 0.0000 0.0000 0.0000 29.3453 0.0000 0.0000
# 5 0.0000 0.0000 0.0000 0.0000 29.3453 0.0000
# 6 -0.0001 0.0001 0.0000 0.0000 0.0000 38.7755
#
#
#
# Elastic Compliance Matrix: (Units=1/GPa)
#
#
# Indices 1 2 3 4 5 6 
#
# 1 0.019035 -0.007145 -0.003628 0.000000 0.000000 0.000000
# 2 -0.007145 0.019035 -0.003628 0.000000 0.000000 0.000000
# 3 -0.003628 -0.003628 0.008092 0.000000 0.000000 0.000000
# 4 0.000000 0.000000 0.000000 0.034077 0.000000 0.000000
# 5 0.000000 0.000000 0.000000 0.000000 0.034077 0.000000
# 6 0.000000 0.000000 0.000000 0.000000 0.000000 0.025789
#
#
# Mechanical properties :
#
#
# Convention : Reuss Voigt Hill
#
# Bulk Modulus (GPa) = 57.59452 67.69289 62.64371
# Shear Modulus (GPa) = 28.62154 31.59292 30.10723
#
# Velocity S-wave (km/s) = 3.76046 3.95084 3.85682
# Velocity P-wave (km/s) = 6.87826 7.36595 7.12628
#
# Compressibility (1/GPa) = 0.01736276
#
# Stress axis : x y z
#
# Youngs Moduli (GPa) = 52.53364 52.53364 123.58145
#
# Poissons Ratio (x) = 0.37534 0.44830
# Poissons Ratio (y) = 0.37534 0.44830
# Poissons Ratio (z) = 0.19057 0.19057
#
# Static dielectric constant tensor:
#      x y z
#    x 3.655320 0.000000 0.000000 
#    y 0.000000 3.655320 0.000000 
#    z 0.000000 0.000000 3.712870 
# 
# 
# High freq. dielectric constant tensor:
#      x y z
#    x 1.784780 0.000000 0.000000 
#    y 0.000000 1.784780 0.000000 
#    z 0.000000 0.000000 1.781430 
# 
# From -- ./inp_files/2129.got.cif
#   From: 2010.03.12/outbox.cif.g09.slc.cpg/sg101_2_cif.got.tgz:2129.got - 2010.04.14 01:38:52.
