data_PCOD8306416
_publ_section_title
;
Structure prediction by ZEFSAII (Michael W. Deem and Ramdas Pophale) SiO2 
 PCOD8306416
Probable space group: P 4 M M
;
_chemical_formula_sum "Si O2"
_cell_formula_units_Z 64
_cell_length_a 17.199030
_cell_length_b 17.199030
_cell_length_c 12.450962
_cell_angle_alpha 90.000000
_cell_angle_beta 90.000000
_cell_angle_gamma 90.000000
_cell_volume 3683.077146
_symmetry_space_group_name_H-M "P 4 M M"
_symmetry_group_IT_number 99
_symmetry_cell_setting 'tetragonal'
loop_
_space_group_symop_operation_xyz
x,y,z
-y,x,z
-x,-y,z
y,-x,z
-x,y,z
x,-y,z
-y,-x,z
y,x,z
loop_
_atom_site_type_symbol
_atom_site_label
_atom_site_fract_x
_atom_site_fract_y
_atom_site_fract_z
Si Si1 0.789588 0.913854 0.318470
Si Si2 0.709365 0.163068 0.904823
Si Si3 0.296049 0.166224 0.494205
Si Si4 0.412465 0.774104 0.187858
Si Si5 0.092239 0.222787 0.693552
Si Si6 0.690671 0.086024 0.124001
Si Si7 0.591029 0.284755 0.420239
Si Si8 0.590110 0.286414 0.955306
O O1 0.864869 0.864869 0.347368
O O2 0.715609 0.884610 0.387064
O O3 0.770478 0.909329 0.192024
O O4 0.810405 0.000000 0.355700
O O5 0.775269 0.224732 0.933766
O O6 0.728160 0.115789 0.798000
O O7 0.707898 0.100951 0.999919
O O8 0.627647 0.210409 0.897341
O O9 0.234926 0.234926 0.497847
O O10 0.282513 0.111413 0.597198
O O11 0.380436 0.208497 0.487711
O O12 0.500000 0.802149 0.197321
O O13 0.366151 0.853065 0.177136
O O14 0.388835 0.727436 0.294427
O O15 0.399707 0.720084 0.083881
O O16 0.142376 0.142376 0.685718
O O17 0.000000 0.202554 0.694667
O O18 0.654099 0.000000 0.134880
O O19 0.500000 0.297606 0.442518
O O20 0.637654 0.362347 0.456417
O O21 0.500000 0.292428 0.920749
O O22 0.635304 0.364697 0.918631
#
# Coordination Sequence:
#
# PCOD8306416 Si02
#       8
#     8   8   8   8   8   8   8   8
#     4  10  19  30  46  68  94 126 163 203 246 294
#     4   9  18  32  50  71  97 133 174 209 249 305
#     4   9  18  33  52  72  97 130 167 200 239 296
#     4   9  17  29  45  68 100 135 168 204 250 303
#     4  10  20  35  56  79 103 131 166 210 254 299
#     4  10  18  28  46  70  97 130 169 211 249 293
#     4  10  19  32  52  76 103 134 167 205 249 297
#     4   9  17  29  47  72 101 133 170 212 256 303
#
# _framework density 17.376774000000001
#
# number of rings (size 3 to 8) (size 9 to 14) (size 15 to 20)
#    0.000    2.500    1.250    1.500    0.000    1.750 
#    0.000    0.625    0.000    7.875    0.000    1.750 
#    0.000    5.000    0.000    0.000    0.000    0.125 
#
# Total GULP energy -793202.278486 kJ/mol
# GULP energy per Si atom -12393.785601 kJ/mol
# Density = 1.733722 g / cm^3
# Si number density = 17.376774 Si / 1000 Ang^3
#
#
#
# Elastic Constant Matrix: (Units=GPa)
#
#
# Indices 1 2 3 4 5 6 
#
# 1 98.9976 66.0174 35.8377 0.0000 0.0000 0.0000
# 2 66.0174 98.9976 35.8377 0.0000 0.0000 0.0000
# 3 35.8377 35.8377 70.4330 0.0000 0.0000 0.0000
# 4 0.0000 0.0000 0.0000 20.3585 0.0000 0.0000
# 5 0.0000 0.0000 0.0000 0.0000 20.3585 0.0000
# 6 0.0000 0.0000 0.0000 0.0000 0.0000 9.0897
#
#
#
# Elastic Compliance Matrix: (Units=1/GPa)
#
#
# Indices 1 2 3 4 5 6 
#
# 1 0.019050 -0.011271 -0.003958 0.000000 0.000000 0.000000
# 2 -0.011271 0.019050 -0.003958 0.000000 0.000000 0.000000
# 3 -0.003958 -0.003958 0.018226 0.000000 0.000000 0.000000
# 4 0.000000 0.000000 0.000000 0.049119 0.000000 0.000000
# 5 0.000000 0.000000 0.000000 0.000000 0.049119 0.000000
# 6 0.000000 0.000000 0.000000 0.000000 0.000000 0.110015
#
#
# Mechanical properties :
#
#
# Convention : Reuss Voigt Hill
#
# Bulk Modulus (GPa) = 55.70546 60.42376 58.06461
# Shear Modulus (GPa) = 16.18443 18.67706 17.43074
#
# Velocity S-wave (km/s) = 3.05517 3.28201 3.17062
# Velocity P-wave (km/s) = 6.67626 7.01501 6.84773
#
# Compressibility (1/GPa) = 0.01795156
#
# Stress axis : x y z
#
# Youngs Moduli (GPa) = 52.49268 52.49268 54.86668
#
# Poissons Ratio (x) = 0.59164 0.21718
# Poissons Ratio (y) = 0.59164 0.21718
# Poissons Ratio (z) = 0.20778 0.20778
#
# Static dielectric constant tensor:
#      x y z
#    x 3.194150 0.000000 0.000000 
#    y 0.000000 3.194150 0.000000 
#    z 0.000000 0.000000 3.252660 
# 
# 
# High freq. dielectric constant tensor:
#      x y z
#    x 1.663450 0.000000 0.000000 
#    y 0.000000 1.663450 0.000000 
#    z 0.000000 0.000000 1.662210 
# 
# From -- ./inp_files/1611.got.cif
#   From: 2010.03.12/outbox.cif.g09.slc.cpg/sg99_cif.got.tgz:1611.got - 2010.04.08 21:11:30.
