data_PCOD8306311
_publ_section_title
;
Structure prediction by ZEFSAII (Michael W. Deem and Ramdas Pophale) SiO2 
 PCOD8306311
Probable space group: I 41 2 2
;
_chemical_formula_sum "Si O2"
_cell_formula_units_Z 80
_cell_length_a 15.846812
_cell_length_b 15.846812
_cell_length_c 19.173994
_cell_angle_alpha 90.000000
_cell_angle_beta 90.000000
_cell_angle_gamma 90.000000
_cell_volume 4815.001186
_symmetry_space_group_name_H-M "I 41 2 2"
_symmetry_group_IT_number 98
_symmetry_cell_setting 'tetragonal'
loop_
_space_group_symop_operation_xyz
x,y,z
-y,1/2+x,1/4+z
-x,-y,z
y,1/2-x,1/4+z
x,1/2-y,1/4-z
-x,1/2+y,1/4-z
y,x,-z
-y,-x,-z
1/2+x,1/2+y,1/2+z
1/2-y,x,3/4+z
1/2-x,1/2-y,1/2+z
1/2+y,-x,3/4+z
1/2+x,-y,3/4-z
1/2-x,y,3/4-z
1/2+y,1/2+x,1/2-z
1/2-y,1/2-x,1/2-z
loop_
_atom_site_type_symbol
_atom_site_label
_atom_site_fract_x
_atom_site_fract_y
_atom_site_fract_z
Si Si1 0.799007 0.424504 0.776637
Si Si2 0.625344 0.943179 0.053640
Si Si3 0.337918 0.223929 0.545206
Si Si4 0.590335 0.692988 0.948977
Si Si5 0.120376 0.554982 0.919408
O O1 0.836715 0.336715 0.750000
O O2 0.791189 0.492320 0.714902
O O3 0.861035 0.460198 0.837382
O O4 0.704406 0.403091 0.800115
O O5 0.667077 0.896696 0.119356
O O6 0.533297 0.901757 0.043462
O O7 0.619073 0.043262 0.067178
O O8 0.687056 0.924817 0.987914
O O9 0.354590 0.250000 0.625000
O O10 0.303141 0.303141 0.500000
O O11 0.274840 0.146028 0.537524
O O12 0.618702 0.618702 0.000000
#
# Coordination Sequence:
#
# PCOD8306311 Si02
#       5
#    16  16  16  16  16
#     4  11  20  33  51  79 114 145 176 211 268 337
#     4  11  20  35  51  77 113 146 184 220 268 331
#     4  11  22  34  54  80 109 147 185 233 282 326
#     4  11  20  29  49  81 119 146 170 212 269 334
#     4  10  22  32  52  80 107 148 182 215 266 333
#
# _framework density 16.614740999999999
#
# number of rings (size 3 to 8) (size 9 to 14) (size 15 to 20)
#    0.000    1.200    8.000    0.000    0.000    0.400 
#    0.000    0.000    4.400    0.000    0.000    8.400 
#    0.000    0.000    0.000    0.000    0.000    0.000 
#
# Total GULP energy -495902.721405 kJ/mol
# GULP energy per Si atom -12397.568035 kJ/mol
# Density = 1.657692 g / cm^3
# Si number density = 16.614741 Si / 1000 Ang^3
#
#
#
# Elastic Constant Matrix: (Units=GPa)
#
#
# Indices 1 2 3 4 5 6 
#
# 1 79.7505 26.4941 31.7076 0.0000 0.0000 0.0000
# 2 26.4941 79.7504 31.7076 0.0000 0.0000 0.0000
# 3 31.7076 31.7076 103.7711 0.0000 0.0000 0.0000
# 4 0.0000 0.0000 0.0000 27.3630 0.0000 0.0000
# 5 0.0000 0.0000 0.0000 0.0000 27.3630 0.0000
# 6 0.0000 0.0000 0.0000 0.0000 0.0000 22.6272
#
#
#
# Elastic Compliance Matrix: (Units=1/GPa)
#
#
# Indices 1 2 3 4 5 6 
#
# 1 0.015144 -0.003633 -0.003517 0.000000 0.000000 0.000000
# 2 -0.003633 0.015144 -0.003517 0.000000 0.000000 0.000000
# 3 -0.003517 -0.003517 0.011786 0.000000 0.000000 0.000000
# 4 0.000000 0.000000 0.000000 0.036546 0.000000 0.000000
# 5 0.000000 0.000000 0.000000 0.000000 0.036546 0.000000
# 6 0.000000 0.000000 0.000000 0.000000 0.000000 0.044195
#
#
# Mechanical properties :
#
#
# Convention : Reuss Voigt Hill
#
# Bulk Modulus (GPa) = 48.21643 49.23228 48.72436
# Shear Modulus (GPa) = 26.65110 27.02814 26.83962
#
# Velocity S-wave (km/s) = 4.00942 4.03768 4.02358
# Velocity P-wave (km/s) = 7.10755 7.17169 7.13969
#
# Compressibility (1/GPa) = 0.02073982
#
# Stress axis : x y z
#
# Youngs Moduli (GPa) = 66.03093 66.03092 84.84545
#
# Poissons Ratio (x) = 0.23987 0.29844
# Poissons Ratio (y) = 0.23987 0.29844
# Poissons Ratio (z) = 0.23226 0.23226
#
# Static dielectric constant tensor:
#      x y z
#    x 2.985360 0.000000 0.000000 
#    y 0.000000 2.985360 0.000000 
#    z 0.000000 0.000000 3.095260 
# 
# 
# High freq. dielectric constant tensor:
#      x y z
#    x 1.624720 0.000000 0.000000 
#    y 0.000000 1.624720 0.000000 
#    z 0.000000 0.000000 1.632380 
# 
# From -- ./inp_files/8691.got.cif
#   From: 2010.03.12/outbox.cif.g09.slc.cpg/sg98_5_cif.got.tgz:8691.got - 2010.04.08 21:04:41.
