data_PCOD8306919
_publ_section_title
;
Structure prediction by ZEFSAII (Michael W. Deem and Ramdas Pophale) SiO2 
 PCOD8306919
Probable space group: P 42 N M
;
_chemical_formula_sum "Si O2"
_cell_formula_units_Z 40
_cell_length_a 16.448584
_cell_length_b 16.448584
_cell_length_c 6.789820
_cell_angle_alpha 90.000000
_cell_angle_beta 90.000000
_cell_angle_gamma 90.000000
_cell_volume 1837.025967
_symmetry_space_group_name_H-M "P 42 N M"
_symmetry_group_IT_number 102
_symmetry_cell_setting 'tetragonal'
loop_
_space_group_symop_operation_xyz
x,y,z
1/2-y,1/2+x,1/2+z
-x,-y,z
1/2+y,1/2-x,1/2+z
1/2-x,1/2+y,1/2+z
1/2+x,1/2-y,1/2+z
-y,-x,z
y,x,z
loop_
_atom_site_type_symbol
_atom_site_label
_atom_site_fract_x
_atom_site_fract_y
_atom_site_fract_z
Si Si1 0.568791 0.183370 0.969620
Si Si2 0.232733 0.767268 0.215150
Si Si3 0.185839 0.185839 0.265646
Si Si4 0.014235 0.771920 0.800683
Si Si5 0.136425 0.136425 0.855393
Si Si6 0.307046 0.307046 0.260496
Si Si7 0.429826 0.191569 0.670686
O O1 0.621204 0.261158 0.894241
O O2 0.497219 0.156550 0.819651
O O3 0.526780 0.199804 0.178770
O O4 0.625562 0.106207 0.016282
O O5 0.300641 0.699360 0.253084
O O6 0.262928 0.856238 0.291334
O O7 0.219778 0.780223 0.980441
O O8 0.247027 0.247027 0.139708
O O9 0.139309 0.139309 0.093144
O O10 0.954991 0.848845 0.783902
O O11 0.100509 0.791362 0.705076
O O12 0.021415 0.753345 0.031896
#
# Coordination Sequence:
#
# PCOD8306919 Si02
#       7
#     8   4   4   8   4   4   8
#     4  12  24  43  69  97 136 175 228 277 327 404
#     4  10  20  42  68  88 126 174 224 266 321 401
#     4  12  22  42  71  94 130 182 231 259 331 408
#     4  11  23  41  69  99 130 169 223 278 335 395
#     4  12  22  39  73  97 128 177 218 276 340 396
#     4  10  22  41  66  95 130 167 221 273 326 397
#     4  11  24  42  67  99 129 176 225 274 332 398
#
# _framework density 21.774325999999999
#
# number of rings (size 3 to 8) (size 9 to 14) (size 15 to 20)
#    0.000    0.800    8.000    0.600    2.800    2.000 
#    0.000    3.000    0.000    1.800    0.000    0.000 
#    0.000    0.000    0.000    0.000    0.000    0.000 
#
# Total GULP energy -495578.628718 kJ/mol
# GULP energy per Si atom -12389.465718 kJ/mol
# Density = 2.172477 g / cm^3
# Si number density = 21.774326 Si / 1000 Ang^3
#
#
#
# Elastic Constant Matrix: (Units=GPa)
#
#
# Indices 1 2 3 4 5 6 
#
# 1 110.5518 27.3570 20.4725 0.0000 0.0000 -0.0002
# 2 27.3570 110.5518 20.4725 0.0000 0.0000 0.0002
# 3 20.4725 20.4725 40.7532 0.0000 0.0000 0.0000
# 4 0.0000 0.0000 0.0000 32.9424 0.0000 0.0000
# 5 0.0000 0.0000 0.0000 0.0000 32.9424 0.0000
# 6 -0.0002 0.0002 0.0000 0.0000 0.0000 29.5128
#
#
#
# Elastic Compliance Matrix: (Units=1/GPa)
#
#
# Indices 1 2 3 4 5 6 
#
# 1 0.010271 -0.001749 -0.004281 0.000000 0.000000 0.000000
# 2 -0.001749 0.010271 -0.004281 0.000000 0.000000 0.000000
# 3 -0.004281 -0.004281 0.028839 0.000000 0.000000 0.000000
# 4 0.000000 0.000000 0.000000 0.030356 0.000000 0.000000
# 5 0.000000 0.000000 0.000000 0.000000 0.030356 0.000000
# 6 0.000000 0.000000 0.000000 0.000000 0.000000 0.033884
#
#
# Mechanical properties :
#
#
# Convention : Reuss Voigt Hill
#
# Bulk Modulus (GPa) = 34.77165 44.27342 39.52253
# Shear Modulus (GPa) = 28.70496 31.98318 30.34407
#
# Velocity S-wave (km/s) = 3.63477 3.83671 3.73711
# Velocity P-wave (km/s) = 5.79821 6.32488 6.06726
#
# Compressibility (1/GPa) = 0.02875906
#
# Stress axis : x y z
#
# Youngs Moduli (GPa) = 97.36041 97.36041 34.67493
#
# Poissons Ratio (x) = 0.17027 0.14845
# Poissons Ratio (y) = 0.17027 0.14845
# Poissons Ratio (z) = 0.41682 0.41682
#
# Static dielectric constant tensor:
#      x y z
#    x 4.125500 0.000000 0.000000 
#    y 0.000000 4.125500 0.000000 
#    z 0.000000 0.000000 3.917980 
# 
# 
# High freq. dielectric constant tensor:
#      x y z
#    x 1.849670 0.000000 0.000000 
#    y 0.000000 1.849670 0.000000 
#    z 0.000000 0.000000 1.861230 
# 
# From -- ./inp_files/980.got.cif
#   From: 2010.03.12/outbox.cif.g09.slc.cpg/sg102_1_cif.got.tgz:980.got - 2010.04.14 01:40:42.
