data_PCOD8306845
_publ_section_title
;
Structure prediction by ZEFSAII (Michael W. Deem and Ramdas Pophale) SiO2 
 PCOD8306845
Probable space group: P 42 N M
;
_chemical_formula_sum "Si O2"
_cell_formula_units_Z 64
_cell_length_a 16.505887
_cell_length_b 16.505887
_cell_length_c 12.640364
_cell_angle_alpha 90.000000
_cell_angle_beta 90.000000
_cell_angle_gamma 90.000000
_cell_volume 3443.795193
_symmetry_space_group_name_H-M "P 42 N M"
_symmetry_group_IT_number 102
_symmetry_cell_setting 'tetragonal'
loop_
_space_group_symop_operation_xyz
x,y,z
1/2-y,1/2+x,1/2+z
-x,-y,z
1/2+y,1/2-x,1/2+z
1/2-x,1/2+y,1/2+z
1/2+x,1/2-y,1/2+z
-y,-x,z
y,x,z
loop_
_atom_site_type_symbol
_atom_site_label
_atom_site_fract_x
_atom_site_fract_y
_atom_site_fract_z
Si Si1 0.704737 0.838294 0.657320
Si Si2 0.772464 0.637526 0.855019
Si Si3 0.107488 0.756704 0.002862
Si Si4 0.754066 0.116566 0.583205
Si Si5 0.667857 0.805247 0.292620
Si Si6 0.996763 0.871651 0.113827
Si Si7 0.178752 0.049681 0.548296
Si Si8 0.227381 0.040849 0.311655
O O1 0.773508 0.773508 0.632829
O O2 0.682772 0.840336 0.782954
O O3 0.625545 0.811709 0.591212
O O4 0.740947 0.921695 0.612705
O O5 0.688217 0.688217 0.851479
O O6 0.759512 0.550236 0.804356
O O7 0.800844 0.623821 0.976580
O O8 0.176166 0.823835 0.002701
O O9 0.022134 0.800310 0.031883
O O10 0.105969 0.713722 0.888651
O O11 0.799988 0.200013 0.595961
O O12 0.699524 0.111476 0.687885
O O13 0.821677 0.045517 0.574206
O O14 0.744152 0.744152 0.295541
O O15 0.699106 0.896873 0.296577
O O16 0.930397 0.930397 0.057858
O O17 0.952390 0.837319 0.217808
O O18 0.075982 0.924019 0.147388
O O19 0.096717 0.096717 0.585711
O O20 0.186340 0.062951 0.423186
#
# Coordination Sequence:
#
# PCOD8306845 Si02
#       8
#     8   8   8   8   8   8   8   8
#     4   9  15  28  51  75  96 127 171 210 239 286
#     4   9  17  31  52  77 106 135 160 197 260 316
#     4   9  16  29  48  69  96 134 171 205 242 290
#     4   9  20  35  49  71 106 139 163 203 261 311
#     4  10  19  33  50  68  96 137 181 211 238 291
#     4  10  19  29  44  75 113 136 158 205 270 321
#     4  10  19  31  51  79 102 128 173 213 247 300
#     4  11  18  28  50  79 106 130 165 209 254 299
#
# _framework density 18.584147000000002
#
# number of rings (size 3 to 8) (size 9 to 14) (size 15 to 20)
#    0.000    2.375    2.500    1.500    0.000    0.750 
#    0.000    1.875    0.000    4.500    0.000    3.500 
#    0.000    0.000    0.000    0.000    0.000    0.000 
#
# Total GULP energy -792939.468204 kJ/mol
# GULP energy per Si atom -12389.679191 kJ/mol
# Density = 1.854185 g / cm^3
# Si number density = 18.584147 Si / 1000 Ang^3
#
#
#
# Elastic Constant Matrix: (Units=GPa)
#
#
# Indices 1 2 3 4 5 6 
#
# 1 38.7953 20.4569 33.3412 0.0000 0.0000 -0.0004
# 2 20.4569 38.7953 33.3412 0.0000 0.0000 0.0004
# 3 33.3412 33.3412 124.6985 0.0000 0.0000 0.0000
# 4 0.0000 0.0000 0.0000 23.0236 0.0000 0.0000
# 5 0.0000 0.0000 0.0000 0.0000 23.0236 0.0000
# 6 -0.0004 0.0004 0.0000 0.0000 0.0000 18.3265
#
#
#
# Elastic Compliance Matrix: (Units=1/GPa)
#
#
# Indices 1 2 3 4 5 6 
#
# 1 0.039336 -0.015194 -0.006455 0.000000 0.000000 0.000001
# 2 -0.015194 0.039336 -0.006455 0.000000 0.000000 -0.000001
# 3 -0.006455 -0.006455 0.011471 0.000000 0.000000 0.000000
# 4 0.000000 0.000000 0.000000 0.043434 0.000000 0.000000
# 5 0.000000 0.000000 0.000000 0.000000 0.043434 0.000000
# 6 0.000001 -0.000001 0.000000 0.000000 0.000000 0.054566
#
#
# Mechanical properties :
#
#
# Convention : Reuss Voigt Hill
#
# Bulk Modulus (GPa) = 29.46861 41.84086 35.65474
# Shear Modulus (GPa) = 16.71711 20.55142 18.63426
#
# Velocity S-wave (km/s) = 3.00248 3.32905 3.16997
# Velocity P-wave (km/s) = 5.28310 6.11064 5.71188
#
# Compressibility (1/GPa) = 0.03393441
#
# Stress axis : x y z
#
# Youngs Moduli (GPa) = 25.42221 25.42221 87.17629
#
# Poissons Ratio (x) = 0.38628 0.56270
# Poissons Ratio (y) = 0.38628 0.56270
# Poissons Ratio (z) = 0.16409 0.16409
#
# Static dielectric constant tensor:
#      x y z
#    x 3.223090 0.000000 0.000000 
#    y 0.000000 3.223090 0.000000 
#    z 0.000000 0.000000 3.693040 
# 
# 
# High freq. dielectric constant tensor:
#      x y z
#    x 1.691350 0.000000 0.000000 
#    y 0.000000 1.691350 0.000000 
#    z 0.000000 0.000000 1.727650 
# 
# From -- ./inp_files/1932.got.cif
#   From: 2010.03.12/outbox.cif.g09.slc.cpg/sg102_1_cif.got.tgz:1932.got - 2010.04.14 01:40:42.
