data_PCOD8306526
_publ_section_title
;
Structure prediction by ZEFSAII (Michael W. Deem and Ramdas Pophale) SiO2 
 PCOD8306526
Probable space group: P 4 M M
;
_chemical_formula_sum "Si O2"
_cell_formula_units_Z 64
_cell_length_a 14.060065
_cell_length_b 14.060065
_cell_length_c 20.404871
_cell_angle_alpha 90.000000
_cell_angle_beta 90.000000
_cell_angle_gamma 90.000000
_cell_volume 4033.745653
_symmetry_space_group_name_H-M "P 4 M M"
_symmetry_group_IT_number 99
_symmetry_cell_setting 'tetragonal'
loop_
_space_group_symop_operation_xyz
x,y,z
-y,x,z
-x,-y,z
y,-x,z
-x,y,z
x,-y,z
-y,-x,z
y,x,z
loop_
_atom_site_type_symbol
_atom_site_label
_atom_site_fract_x
_atom_site_fract_y
_atom_site_fract_z
Si Si1 0.109035 0.739335 0.277220
Si Si2 0.889259 0.733977 0.750293
Si Si3 0.613444 0.231186 0.654846
Si Si4 0.604854 0.887224 0.389456
Si Si5 0.612827 0.105536 0.533141
Si Si6 0.738982 0.108352 0.900374
Si Si7 0.395133 0.887129 0.014515
Si Si8 0.736702 0.890722 0.130494
O O1 0.159639 0.840362 0.282341
O O2 0.154770 0.668422 0.330705
O O3 0.121951 0.695680 0.204243
O O4 0.000000 0.759415 0.293666
O O5 0.832795 0.832795 0.736315
O O6 0.841769 0.647125 0.710967
O O7 0.880077 0.703494 0.825981
O O8 0.000000 0.747923 0.730394
O O9 0.500000 0.247896 0.660499
O O10 0.667557 0.332444 0.660974
O O11 0.644304 0.183198 0.586241
O O12 0.500000 0.841855 0.382109
O O13 0.649194 0.861919 0.460992
O O14 0.597449 0.000000 0.382698
O O15 0.500000 0.098155 0.530175
O O16 0.653295 0.000000 0.551058
O O17 0.835570 0.164431 0.913132
O O18 0.657761 0.147981 0.948747
O O19 0.763486 0.000000 0.917241
O O20 0.500000 0.841236 0.014522
O O21 0.402674 0.000000 0.014832
O O22 0.341519 0.851584 0.079784
O O23 0.833879 0.833879 0.120475
O O24 0.761713 0.000000 0.115810
#
# Coordination Sequence:
#
# PCOD8306526 Si02
#       8
#     8   8   8   8   8   8   8   8
#     4   9  17  27  39  57  81 110 141 170 203 245
#     4   9  18  31  47  69  94 119 148 180 215 257
#     4  10  20  32  46  65  88 115 149 187 226 268
#     4   8  14  25  41  61  84 108 136 172 211 250
#     4   8  14  26  44  64  84 106 135 174 218 261
#     4   9  17  29  45  66  92 118 143 171 202 242
#     4   9  17  28  41  58  81 109 139 170 206 245
#     4   9  17  28  41  58  81 108 139 174 209 250
#
# _framework density 15.866146000000001
#
# number of rings (size 3 to 8) (size 9 to 14) (size 15 to 20)
#    0.000    3.125    0.000    1.500    0.000    2.875 
#    0.000    6.250    0.000    2.250    0.000    0.000 
#    0.000    7.250    0.000    5.500    0.000    1.500 
#
# Total GULP energy -793215.972832 kJ/mol
# GULP energy per Si atom -12393.999575 kJ/mol
# Density = 1.583003 g / cm^3
# Si number density = 15.866146 Si / 1000 Ang^3
#
#
#
# Elastic Constant Matrix: (Units=GPa)
#
#
# Indices 1 2 3 4 5 6 
#
# 1 76.9908 38.6131 51.6394 0.0000 0.0000 0.0000
# 2 38.6131 76.9908 51.6394 0.0000 0.0000 0.0000
# 3 51.6394 51.6394 116.0677 0.0000 0.0000 0.0000
# 4 0.0000 0.0000 0.0000 22.8749 0.0000 0.0000
# 5 0.0000 0.0000 0.0000 0.0000 22.8749 0.0000
# 6 0.0000 0.0000 0.0000 0.0000 0.0000 11.5449
#
#
#
# Elastic Compliance Matrix: (Units=1/GPa)
#
#
# Indices 1 2 3 4 5 6 
#
# 1 0.020207 -0.005850 -0.006387 0.000000 0.000000 0.000000
# 2 -0.005850 0.020207 -0.006387 0.000000 0.000000 0.000000
# 3 -0.006387 -0.006387 0.014299 0.000000 0.000000 0.000000
# 4 0.000000 0.000000 0.000000 0.043716 0.000000 0.000000
# 5 0.000000 0.000000 0.000000 0.000000 0.043716 0.000000
# 6 0.000000 0.000000 0.000000 0.000000 0.000000 0.086618
#
#
# Mechanical properties :
#
#
# Convention : Reuss Voigt Hill
#
# Bulk Modulus (GPa) = 57.26397 61.53701 59.40049
# Shear Modulus (GPa) = 18.39362 20.00278 19.19820
#
# Velocity S-wave (km/s) = 3.40854 3.55452 3.48229
# Velocity P-wave (km/s) = 7.18757 7.46428 7.32723
#
# Compressibility (1/GPa) = 0.01746299
#
# Stress axis : x y z
#
# Youngs Moduli (GPa) = 49.48854 49.48854 69.93388
#
# Poissons Ratio (x) = 0.28951 0.44669
# Poissons Ratio (y) = 0.28951 0.44669
# Poissons Ratio (z) = 0.31610 0.31610
#
# Static dielectric constant tensor:
#      x y z
#    x 2.873160 0.000000 0.000000 
#    y 0.000000 2.873160 0.000000 
#    z 0.000000 0.000000 3.372450 
# 
# 
# High freq. dielectric constant tensor:
#      x y z
#    x 1.582300 0.000000 0.000000 
#    y 0.000000 1.582300 0.000000 
#    z 0.000000 0.000000 1.628060 
# 
# From -- ./inp_files/2055.got.cif
#   From: 2010.03.12/outbox.cif.g09.slc.cpg/sg99_cif.got.tgz:2055.got - 2010.04.08 21:11:30.
