data_PCOD8306194
_publ_section_title
;
Structure prediction by ZEFSAII (Michael W. Deem and Ramdas Pophale) SiO2 
 PCOD8306194
Probable space group: I 41 2 2
;
_chemical_formula_sum "Si O2"
_cell_formula_units_Z 96
_cell_length_a 20.750368
_cell_length_b 20.750368
_cell_length_c 13.455278
_cell_angle_alpha 90.000000
_cell_angle_beta 90.000000
_cell_angle_gamma 90.000000
_cell_volume 5793.543625
_symmetry_space_group_name_H-M "I 41 2 2"
_symmetry_group_IT_number 98
_symmetry_cell_setting 'tetragonal'
loop_
_space_group_symop_operation_xyz
x,y,z
-y,1/2+x,1/4+z
-x,-y,z
y,1/2-x,1/4+z
x,1/2-y,1/4-z
-x,1/2+y,1/4-z
y,x,-z
-y,-x,-z
1/2+x,1/2+y,1/2+z
1/2-y,x,3/4+z
1/2-x,1/2-y,1/2+z
1/2+y,-x,3/4+z
1/2+x,-y,3/4-z
1/2-x,y,3/4-z
1/2+y,1/2+x,1/2-z
1/2-y,1/2-x,1/2-z
loop_
_atom_site_type_symbol
_atom_site_label
_atom_site_fract_x
_atom_site_fract_y
_atom_site_fract_z
Si Si1 0.788561 0.813818 0.779175
Si Si2 0.362533 0.034442 0.748721
Si Si3 0.895496 0.495338 0.464775
Si Si4 0.555282 0.778057 0.429819
Si Si5 0.100500 0.500885 0.036462
Si Si6 0.277628 0.429540 0.765966
O O1 0.750000 0.841482 0.875000
O O2 0.752031 0.747970 0.750000
O O3 0.790235 0.868705 0.695747
O O4 0.864454 0.799679 0.792350
O O5 0.393596 0.106405 0.750000
O O6 0.286362 0.038284 0.738881
O O7 0.390791 0.996005 0.655161
O O8 0.379022 0.995772 0.848195
O O9 0.832468 0.507567 0.529754
O O10 0.945989 0.550283 0.492407
O O11 0.928410 0.426628 0.493615
O O12 0.542064 0.775034 0.310868
O O13 0.165420 0.482310 0.977062
O O14 0.250000 0.415195 0.875000
#
# Coordination Sequence:
#
# PCOD8306194 Si02
#       6
#    16  16  16  16  16  16
#     4  12  21  32  48  71 100 136 169 205 250 296
#     4   9  17  29  48  76 107 135 159 200 262 318
#     4  10  17  31  51  74 101 131 172 214 257 303
#     4  11  21  31  49  76 102 133 172 211 250 301
#     4   9  19  33  49  70  99 138 175 211 255 304
#     4  11  24  38  49  67 101 140 183 215 254 301
#
# _framework density 16.570169
#
# number of rings (size 3 to 8) (size 9 to 14) (size 15 to 20)
#    0.000    1.667    3.333    3.000    2.333    2.000 
#    0.000    0.833    0.000    2.000    0.000    0.000 
#    0.000   32.000    0.000    0.000    0.000    0.000 
#
# Total GULP energy -594806.311658 kJ/mol
# GULP energy per Si atom -12391.798160 kJ/mol
# Density = 1.653245 g / cm^3
# Si number density = 16.570169 Si / 1000 Ang^3
#
#
#
# Elastic Constant Matrix: (Units=GPa)
#
#
# Indices 1 2 3 4 5 6 
#
# 1 82.3289 56.8207 31.8148 0.0000 0.0000 0.0000
# 2 56.8207 82.3288 31.8149 0.0000 0.0000 0.0000
# 3 31.8148 31.8149 80.7091 0.0000 0.0000 0.0000
# 4 0.0000 0.0000 0.0000 15.3344 0.0000 0.0000
# 5 0.0000 0.0000 0.0000 0.0000 15.3346 0.0000
# 6 0.0000 0.0000 0.0000 0.0000 0.0000 28.3389
#
#
#
# Elastic Compliance Matrix: (Units=1/GPa)
#
#
# Indices 1 2 3 4 5 6 
#
# 1 0.023985 -0.015218 -0.003456 0.000000 0.000000 0.000000
# 2 -0.015218 0.023985 -0.003456 0.000000 0.000000 0.000000
# 3 -0.003456 -0.003456 0.015115 0.000000 0.000000 0.000000
# 4 0.000000 0.000000 0.000000 0.065213 0.000000 0.000000
# 5 0.000000 0.000000 0.000000 0.000000 0.065212 0.000000
# 6 0.000000 0.000000 0.000000 0.000000 0.000000 0.035287
#
#
# Mechanical properties :
#
#
# Convention : Reuss Voigt Hill
#
# Bulk Modulus (GPa) = 53.12073 54.02974 53.57523
# Shear Modulus (GPa) = 17.89989 20.12933 19.01461
#
# Velocity S-wave (km/s) = 3.29028 3.48917 3.39118
# Velocity P-wave (km/s) = 6.82365 6.99356 6.90913
#
# Compressibility (1/GPa) = 0.01882504
#
# Stress axis : x y z
#
# Youngs Moduli (GPa) = 41.69284 41.69271 66.16092
#
# Poissons Ratio (x) = 0.63449 0.22864
# Poissons Ratio (y) = 0.63449 0.22864
# Poissons Ratio (z) = 0.14408 0.14408
#
# Static dielectric constant tensor:
#      x y z
#    x 3.086340 0.000000 0.000000 
#    y 0.000000 3.086350 0.000000 
#    z 0.000000 0.000000 3.082880 
# 
# 
# High freq. dielectric constant tensor:
#      x y z
#    x 1.615230 0.000000 0.000000 
#    y 0.000000 1.615230 0.000000 
#    z 0.000000 0.000000 1.632080 
# 
# From -- ./inp_files/6662.got.cif
#   From: 2010.03.12/outbox.cif.g09.slc.cpg/sg98_4_cif.got.tgz:6662.got - 2010.04.08 21:04:41.
