data_PCOD8306547
_publ_section_title
;
Structure prediction by ZEFSAII (Michael W. Deem and Ramdas Pophale) SiO2 
 PCOD8306547
Probable space group: P 4 M M
;
_chemical_formula_sum "Si O2"
_cell_formula_units_Z 64
_cell_length_a 14.006063
_cell_length_b 14.006063
_cell_length_c 20.708719
_cell_angle_alpha 90.000000
_cell_angle_beta 90.000000
_cell_angle_gamma 90.000000
_cell_volume 4062.425280
_symmetry_space_group_name_H-M "P 4 M M"
_symmetry_group_IT_number 99
_symmetry_cell_setting 'tetragonal'
loop_
_space_group_symop_operation_xyz
x,y,z
-y,x,z
-x,-y,z
y,-x,z
-x,y,z
x,-y,z
-y,-x,z
y,x,z
loop_
_atom_site_type_symbol
_atom_site_label
_atom_site_fract_x
_atom_site_fract_y
_atom_site_fract_z
Si Si1 0.892679 0.740310 0.582660
Si Si2 0.736029 0.889900 0.210452
Si Si3 0.890825 0.737044 0.065960
Si Si4 0.113191 0.271587 0.723570
Si Si5 0.888653 0.732542 0.442975
Si Si6 0.886620 0.394510 0.325597
Si Si7 0.388980 0.108084 0.947405
Si Si8 0.386769 0.229934 0.823599
O O1 0.838853 0.838853 0.581752
O O2 0.870614 0.686340 0.650360
O O3 0.871457 0.684837 0.514835
O O4 0.000000 0.774464 0.583184
O O5 0.834841 0.834841 0.220415
O O6 0.695131 0.873825 0.138038
O O7 0.658675 0.850497 0.261174
O O8 0.759527 0.000000 0.223967
O O9 0.833465 0.833465 0.054485
O O10 0.000000 0.765691 0.055968
O O11 0.857917 0.659330 0.013810
O O12 0.171899 0.171899 0.733765
O O13 0.155766 0.353990 0.768717
O O14 0.000000 0.254854 0.737969
O O15 0.831032 0.831032 0.435656
O O16 0.850215 0.658353 0.390017
O O17 0.000000 0.755990 0.431456
O O18 0.841423 0.500000 0.325365
O O19 0.000000 0.400744 0.325670
O O20 0.500000 0.112552 0.961044
O O21 0.359630 0.180664 0.891182
O O22 0.358231 0.000000 0.928221
O O23 0.500000 0.249358 0.817014
O O24 0.330379 0.330379 0.817974
#
# Coordination Sequence:
#
# PCOD8306547 Si02
#       8
#     8   8   8   8   8   8   8   8
#     4   8  14  24  38  58  85 115 144 173 204 240
#     4   9  17  28  42  61  84 110 139 170 205 246
#     4   9  17  28  42  61  86 114 141 169 201 240
#     4   9  17  29  45  66  92 120 149 180 214 255
#     4   9  16  26  41  61  86 114 141 170 204 244
#     4   9  17  28  40  54  76 107 140 173 208 244
#     4   9  17  29  46  67  88 111 141 175 211 252
#     4  10  20  33  49  67  87 113 145 184 230 274
#
# _framework density 15.754136000000001
#
# number of rings (size 3 to 8) (size 9 to 14) (size 15 to 20)
#    0.000    3.000    0.000    1.125    0.000    2.000 
#    0.000    6.875    0.000    4.500    0.000    1.750 
#    0.000    4.000    0.000    9.250    0.000    0.750 
#
# Total GULP energy -792918.457281 kJ/mol
# GULP energy per Si atom -12389.350895 kJ/mol
# Density = 1.571828 g / cm^3
# Si number density = 15.754136 Si / 1000 Ang^3
#
#
#
# Elastic Constant Matrix: (Units=GPa)
#
#
# Indices 1 2 3 4 5 6 
#
# 1 68.3997 35.2099 55.2140 0.0000 0.0000 0.0000
# 2 35.2099 68.3997 55.2140 0.0000 0.0000 0.0000
# 3 55.2140 55.2140 144.3640 0.0000 0.0000 0.0000
# 4 0.0000 0.0000 0.0000 21.2025 0.0000 0.0000
# 5 0.0000 0.0000 0.0000 0.0000 21.2025 0.0000
# 6 0.0000 0.0000 0.0000 0.0000 0.0000 12.4902
#
#
#
# Elastic Compliance Matrix: (Units=1/GPa)
#
#
# Indices 1 2 3 4 5 6 
#
# 1 0.023212 -0.006918 -0.006232 0.000000 0.000000 0.000000
# 2 -0.006918 0.023212 -0.006232 0.000000 0.000000 0.000000
# 3 -0.006232 -0.006232 0.011694 0.000000 0.000000 0.000000
# 4 0.000000 0.000000 0.000000 0.047164 0.000000 0.000000
# 5 0.000000 0.000000 0.000000 0.000000 0.047164 0.000000
# 6 0.000000 0.000000 0.000000 0.000000 0.000000 0.080063
#
#
# Mechanical properties :
#
#
# Convention : Reuss Voigt Hill
#
# Bulk Modulus (GPa) = 51.66927 63.60436 57.63681
# Shear Modulus (GPa) = 18.00360 20.01406 19.00883
#
# Velocity S-wave (km/s) = 3.38418 3.56813 3.47737
# Velocity P-wave (km/s) = 6.93821 7.57867 7.26550
#
# Compressibility (1/GPa) = 0.01935386
#
# Stress axis : x y z
#
# Youngs Moduli (GPa) = 43.08203 43.08203 85.51645
#
# Poissons Ratio (x) = 0.29805 0.53290
# Poissons Ratio (y) = 0.29805 0.53290
# Poissons Ratio (z) = 0.26847 0.26847
#
# Static dielectric constant tensor:
#      x y z
#    x 2.826980 0.000000 0.000000 
#    y 0.000000 2.826980 0.000000 
#    z 0.000000 0.000000 3.478370 
# 
# 
# High freq. dielectric constant tensor:
#      x y z
#    x 1.578660 0.000000 0.000000 
#    y 0.000000 1.578660 0.000000 
#    z 0.000000 0.000000 1.629630 
# 
# From -- ./inp_files/2301.got.cif
#   From: 2010.03.12/outbox.cif.g09.slc.cpg/sg99_cif.got.tgz:2301.got - 2010.04.08 21:11:30.
