data_PCOD8306141
_publ_section_title
;
Structure prediction by ZEFSAII (Michael W. Deem and Ramdas Pophale) SiO2 
 PCOD8306141
Probable space group: I 4 2 2 
;
_chemical_formula_sum "Si O2"
_cell_formula_units_Z 88
_cell_length_a 14.673227
_cell_length_b 14.673227
_cell_length_c 19.480841
_cell_angle_alpha 90.000000
_cell_angle_beta 90.000000
_cell_angle_gamma 90.000000
_cell_volume 4194.295015
_symmetry_space_group_name_H-M "I 4 2 2 "
_symmetry_group_IT_number 97
_symmetry_cell_setting 'tetragonal'
loop_
_space_group_symop_operation_xyz
x,y,z
-y,x,z
-x,-y,z
y,-x,z
x,-y,-z
-x,y,-z
y,x,-z
-y,-x,-z
1/2+x,1/2+y,1/2+z
1/2-y,1/2+x,1/2+z
1/2-x,1/2-y,1/2+z
1/2+y,1/2-x,1/2+z
1/2+x,1/2-y,1/2-z
1/2-x,1/2+y,1/2-z
1/2+y,1/2+x,1/2-z
1/2-y,1/2-x,1/2-z
loop_
_atom_site_type_symbol
_atom_site_label
_atom_site_fract_x
_atom_site_fract_y
_atom_site_fract_z
Si Si1 0.906392 0.887660 0.239699
Si Si2 0.997542 0.271277 0.427151
Si Si3 0.920554 0.428425 0.831881
Si Si4 0.757697 0.854282 0.873364
Si Si5 0.391837 0.391837 0.500000
Si Si6 0.167300 0.157121 0.613761
O O1 0.852509 0.814225 0.196284
O O2 0.886896 0.875330 0.318966
O O3 0.011663 0.874132 0.219854
O O4 0.898727 0.228968 0.420651
O O5 0.000000 0.326526 0.500000
O O6 0.021267 0.330666 0.360244
O O7 0.071843 0.190243 0.435332
O O8 0.913844 0.413844 0.750000
O O9 0.927961 0.327775 0.868929
O O10 0.000000 0.500000 0.851052
O O11 0.712796 0.757289 0.872132
O O12 0.829471 0.862534 0.935706
O O13 0.500000 0.373622 0.500000
#
# Coordination Sequence:
#
# PCOD8306141 Si02
#       6
#    16  16  16  16   8  16
#     4  11  22  40  66  98 130 174 232 292 355 423
#     4  11  24  41  67  95 137 179 228 281 348 421
#     4  10  24  47  70 102 144 185 236 292 350 434
#     4  11  24  42  69  97 135 180 231 291 356 433
#     4  11  26  48  70 100 136 177 234 300 364 427
#     4  11  23  42  62  96 133 176 225 285 349 421
#
# _framework density 20.980879000000002
#
# number of rings (size 3 to 8) (size 9 to 14) (size 15 to 20)
#    0.000    1.182    1.818    4.364    5.091    5.091 
#    3.273    0.909    0.000    0.000    0.000    0.000 
#    0.000    0.000    0.000    0.000    0.000    0.000 
#
# Total GULP energy -545089.613064 kJ/mol
# GULP energy per Si atom -12388.400297 kJ/mol
# Density = 2.093313 g / cm^3
# Si number density = 20.980879 Si / 1000 Ang^3
#
#
#
# Elastic Constant Matrix: (Units=GPa)
#
#
# Indices 1 2 3 4 5 6 
#
# 1 100.0145 28.5004 29.7908 0.0000 0.0000 0.0000
# 2 28.5004 100.0144 29.7908 0.0002 0.0000 0.0000
# 3 29.7908 29.7908 100.7009 0.0002 0.0000 0.0000
# 4 0.0000 0.0002 0.0002-1171.8092 0.0005 0.0000
# 5 0.0000 0.0000 0.0000 0.0005-1171.8079 0.0000
# 6 0.0000 0.0000 0.0000 0.0000 0.0000 43.5642
#
#
#
# Elastic Compliance Matrix: (Units=1/GPa)
#
#
# Indices 1 2 3 4 5 6 
#
# 1 0.011501 -0.002483 -0.002668 0.000000 0.000000 0.000000
# 2 -0.002483 0.011501 -0.002668 0.000000 0.000000 0.000000
# 3 -0.002668 -0.002668 0.011509 0.000000 0.000000 0.000000
# 4 0.000000 0.000000 0.000000 -0.000853 0.000000 0.000000
# 5 0.000000 0.000000 0.000000 0.000000 -0.000853 0.000000
# 6 0.000000 0.000000 0.000000 0.000000 0.000000 0.022955
#
#
# Mechanical properties :
#
#
# Convention : Reuss Voigt Hill
#
# Bulk Modulus (GPa) = 52.98408 52.98820 52.98614
# Shear Modulus (GPa) = 64.36173 -445.83407 -190.73617
#
# Velocity S-wave (km/s) = 5.54463 -14.59304 -9.54499
# Velocity P-wave (km/s) = 8.14242 16.08204 9.80645
#
# Compressibility (1/GPa) = 0.01887359
#
# Stress axis : x y z
#
# Youngs Moduli (GPa) = 86.95148 86.95148 86.88939
#
# Poissons Ratio (x) = 0.21587 0.23181
# Poissons Ratio (y) = 0.21587 0.23181
# Poissons Ratio (z) = 0.23197 0.23197
#
# Static dielectric constant tensor:
#      x y z
#    x 4.866690 0.000000 0.000000 
#    y 0.000000 4.866690 0.000000 
#    z 0.000000 0.000000 3.946180 
# 
# 
# High freq. dielectric constant tensor:
#      x y z
#    x 1.828680 0.000000 0.000000 
#    y 0.000000 1.828680 0.000000 
#    z 0.000000 0.000000 1.828540 
# 
# From -- ./inp_files/6547.got.cif
#   From: 2010.03.12/outbox.cif.g09.slc.cpg/sg97_4_cif.got.tgz:6547.got - 2010.04.08 20:59:42.
