data_PCOD8306313
_publ_section_title
;
Structure prediction by ZEFSAII (Michael W. Deem and Ramdas Pophale) SiO2 
 PCOD8306313
Probable space group: I 41 2 2
;
_chemical_formula_sum "Si O2"
_cell_formula_units_Z 72
_cell_length_a 16.307991
_cell_length_b 16.307991
_cell_length_c 14.515790
_cell_angle_alpha 90.000000
_cell_angle_beta 90.000000
_cell_angle_gamma 90.000000
_cell_volume 3860.482631
_symmetry_space_group_name_H-M "I 41 2 2"
_symmetry_group_IT_number 98
_symmetry_cell_setting 'tetragonal'
loop_
_space_group_symop_operation_xyz
x,y,z
-y,1/2+x,1/4+z
-x,-y,z
y,1/2-x,1/4+z
x,1/2-y,1/4-z
-x,1/2+y,1/4-z
y,x,-z
-y,-x,-z
1/2+x,1/2+y,1/2+z
1/2-y,x,3/4+z
1/2-x,1/2-y,1/2+z
1/2+y,-x,3/4+z
1/2+x,-y,3/4-z
1/2-x,y,3/4-z
1/2+y,1/2+x,1/2-z
1/2-y,1/2-x,1/2-z
loop_
_atom_site_type_symbol
_atom_site_label
_atom_site_fract_x
_atom_site_fract_y
_atom_site_fract_z
Si Si1 0.861649 0.637722 0.049303
Si Si2 0.408001 0.836103 0.157305
Si Si3 0.819441 0.680560 0.250000
Si Si4 0.502761 0.093173 0.425484
Si Si5 0.305038 0.066322 0.238416
O O1 0.861715 0.642603 0.159722
O O2 0.793470 0.572133 0.016905
O O3 0.838328 0.722843 0.999562
O O4 0.952726 0.605660 0.020782
O O5 0.371221 0.750000 0.125000
O O6 0.362553 0.862553 0.250000
O O7 0.505834 0.828893 0.177992
O O8 0.389991 0.899200 0.072782
O O9 0.465690 0.158116 0.356026
O O10 0.500000 0.000000 0.388387
O O11 0.342930 0.157071 0.250000
#
# Coordination Sequence:
#
# PCOD8306313 Si02
#       5
#    16  16   8  16  16
#     4  11  21  36  57  88 126 163 211 241 320 376
#     4  10  22  37  59  82 116 152 201 256 313 355
#     4  10  22  36  55  84 127 174 200 250 300 404
#     4  11  21  35  55  86 122 158 198 253 304 375
#     4  11  20  31  54  89 125 156 185 239 307 377
#
# _framework density 18.650518999999999
#
# number of rings (size 3 to 8) (size 9 to 14) (size 15 to 20)
#    0.000    1.333    5.556    1.333    0.000    0.000 
#    0.000    0.556    4.889    0.000    0.000    0.000 
#    0.000    0.000    0.000    0.000    0.000    0.000 
#
# Total GULP energy -446105.913679 kJ/mol
# GULP energy per Si atom -12391.830936 kJ/mol
# Density = 1.860807 g / cm^3
# Si number density = 18.650519 Si / 1000 Ang^3
#
#
#
# Elastic Constant Matrix: (Units=GPa)
#
#
# Indices 1 2 3 4 5 6 
#
# 1 121.5008 48.1315 50.1622 0.0000 0.0000 0.0000
# 2 48.1315 121.5007 50.1613 0.0000 0.0000 0.0000
# 3 50.1622 50.1613 96.2774 0.0000 0.0000 0.0000
# 4 0.0000 0.0000 0.0000 16.8211 0.0000 0.0000
# 5 0.0000 0.0000 0.0000 0.0000 16.8201 0.0000
# 6 0.0000 0.0000 0.0000 0.0000 0.0000 19.6048
#
#
#
# Elastic Compliance Matrix: (Units=1/GPa)
#
#
# Indices 1 2 3 4 5 6 
#
# 1 0.011075 -0.002555 -0.004439 0.000000 0.000000 0.000000
# 2 -0.002555 0.011075 -0.004439 0.000000 0.000000 0.000000
# 3 -0.004439 -0.004439 0.015013 0.000000 0.000000 0.000000
# 4 0.000000 0.000000 0.000000 0.059449 0.000000 0.000000
# 5 0.000000 0.000000 0.000000 0.000000 0.059453 0.000000
# 6 0.000000 0.000000 0.000000 0.000000 0.000000 0.051008
#
#
# Mechanical properties :
#
#
# Convention : Reuss Voigt Hill
#
# Bulk Modulus (GPa) = 69.94766 70.68765 70.31765
# Shear Modulus (GPa) = 21.30338 23.37079 22.33709
#
# Velocity S-wave (km/s) = 3.38337 3.54374 3.46449
# Velocity P-wave (km/s) = 7.26972 7.39781 7.33404
#
# Compressibility (1/GPa) = 0.01429640
#
# Stress axis : x y z
#
# Youngs Moduli (GPa) = 90.29180 90.29257 66.61084
#
# Poissons Ratio (x) = 0.23066 0.29571
# Poissons Ratio (y) = 0.23065 0.29570
# Poissons Ratio (z) = 0.40085 0.40083
#
# Static dielectric constant tensor:
#      x y z
#    x 3.512430 0.000000 0.000000 
#    y 0.000000 3.512400 0.000000 
#    z 0.000000 0.000000 3.326910 
# 
# 
# High freq. dielectric constant tensor:
#      x y z
#    x 1.714900 0.000000 0.000000 
#    y 0.000000 1.714900 0.000000 
#    z 0.000000 0.000000 1.705840 
# 
# From -- ./inp_files/7479.got.cif
#   From: 2010.03.12/outbox.cif.g09.slc.cpg/sg98_4_cif.got.tgz:7479.got - 2010.04.08 21:04:41.
