data_PCOD8306003
_publ_section_title
;
Structure prediction by ZEFSAII (Michael W. Deem and Ramdas Pophale) SiO2 
 PCOD8306003
Probable space group: P 43 21 2
;
_chemical_formula_sum "Si O2"
_cell_formula_units_Z 36
_cell_length_a 9.399243
_cell_length_b 9.399243
_cell_length_c 17.361686
_cell_angle_alpha 90.000000
_cell_angle_beta 90.000000
_cell_angle_gamma 90.000000
_cell_volume 1533.831500
_symmetry_space_group_name_H-M "P 43 21 2"
_symmetry_group_IT_number 96
_symmetry_cell_setting 'tetragonal'
loop_
_space_group_symop_operation_xyz
x,y,z
1/2-y,1/2+x,3/4+z
-x,-y,1/2+z
1/2+y,1/2-x,1/4+z
1/2+x,1/2-y,1/4-z
1/2-x,1/2+y,3/4-z
y,x,-z
-y,-x,1/2-z
loop_
_atom_site_type_symbol
_atom_site_label
_atom_site_fract_x
_atom_site_fract_y
_atom_site_fract_z
Si Si1 0.830988 0.432396 0.983897
Si Si2 0.200272 0.808644 0.893882
Si Si3 0.707106 0.707106 0.000000
Si Si4 0.646820 0.986947 0.291660
Si Si5 0.706703 0.394706 0.613595
O O1 0.723909 0.405576 0.912668
O O2 0.979116 0.490280 0.951696
O O3 0.862182 0.290882 0.032953
O O4 0.740716 0.549462 0.034351
O O5 0.190737 0.636238 0.896895
O O6 0.038245 0.869603 0.895370
O O7 0.273725 0.867482 0.816102
O O8 0.709748 0.826572 0.065657
O O9 0.688103 0.939830 0.205747
#
# Coordination Sequence:
#
# PCOD8306003 Si02
#       5
#     8   8   4   8   8
#     4  11  26  45  73 107 151 194 252 314 389 453
#     4  11  24  46  74 103 144 191 245 310 383 449
#     4  12  26  46  72 104 152 202 250 318 394 456
#     4  11  24  49  71 108 144 197 246 322 378 465
#     4  11  26  44  74 107 148 193 260 310 381 470
#
# _framework density 23.470634
#
# number of rings (size 3 to 8) (size 9 to 14) (size 15 to 20)
#    0.000    0.889    2.222    3.333    9.333    0.000 
#    4.000    0.000    0.000    0.000    0.000    0.000 
#    0.000    0.000    0.000    0.000    0.000    0.000 
#
# Total GULP energy -446117.412391 kJ/mol
# GULP energy per Si atom -12392.150344 kJ/mol
# Density = 2.341721 g / cm^3
# Si number density = 23.470634 Si / 1000 Ang^3
#
#
#
# Elastic Constant Matrix: (Units=GPa)
#
#
# Indices 1 2 3 4 5 6 
#
# 1 150.0130 68.2704 56.6419 0.0000 0.0000 0.0000
# 2 68.2704 150.0130 56.6419 0.0000 0.0000 0.0000
# 3 56.6419 56.6419 107.9305 0.0000 0.0000 0.0000
# 4 0.0000 0.0000 0.0000 36.1925 0.0000 0.0000
# 5 0.0000 0.0000 0.0000 0.0000 36.1925 0.0000
# 6 0.0000 0.0000 0.0000 0.0000 0.0000 41.7311
#
#
#
# Elastic Compliance Matrix: (Units=1/GPa)
#
#
# Indices 1 2 3 4 5 6 
#
# 1 0.009265 -0.002969 -0.003304 0.000000 0.000000 0.000000
# 2 -0.002969 0.009265 -0.003304 0.000000 0.000000 0.000000
# 3 -0.003304 -0.003304 0.012733 0.000000 0.000000 0.000000
# 4 0.000000 0.000000 0.000000 0.027630 0.000000 0.000000
# 5 0.000000 0.000000 0.000000 0.000000 0.027630 0.000000
# 6 0.000000 0.000000 0.000000 0.000000 0.000000 0.023963
#
#
# Mechanical properties :
#
#
# Convention : Reuss Voigt Hill
#
# Bulk Modulus (GPa) = 82.58546 85.67388 84.12967
# Shear Modulus (GPa) = 37.40388 37.91671 37.66030
#
# Velocity S-wave (km/s) = 3.99638 4.02368 4.01006
# Velocity P-wave (km/s) = 7.52050 7.62683 7.57385
#
# Compressibility (1/GPa) = 0.01210867
#
# Stress axis : x y z
#
# Youngs Moduli (GPa) = 107.93607 107.93607 78.53465
#
# Poissons Ratio (x) = 0.32044 0.25949
# Poissons Ratio (y) = 0.32044 0.25949
# Poissons Ratio (z) = 0.35663 0.35663
#
# Static dielectric constant tensor:
#      x y z
#    x 4.488000 0.000000 0.000000 
#    y 0.000000 4.488000 0.000000 
#    z 0.000000 0.000000 4.005420 
# 
# 
# High freq. dielectric constant tensor:
#      x y z
#    x 1.939440 0.000000 0.000000 
#    y 0.000000 1.939440 0.000000 
#    z 0.000000 0.000000 1.912260 
# 
# From -- ./inp_files/3441.got.cif
#   From: 2010.03.12/outbox.cif.g09.slc.cpg/sg96_2_cif.got.tgz:3441.got - 2010.04.08 20:56:49.
