data_PCOD8306519
_publ_section_title
;
Structure prediction by ZEFSAII (Michael W. Deem and Ramdas Pophale) SiO2 
 PCOD8306519
Probable space group: P 4 M M
;
_chemical_formula_sum "Si O2"
_cell_formula_units_Z 64
_cell_length_a 26.021102
_cell_length_b 26.021102
_cell_length_c 5.084129
_cell_angle_alpha 90.000000
_cell_angle_beta 90.000000
_cell_angle_gamma 90.000000
_cell_volume 3442.452303
_symmetry_space_group_name_H-M "P 4 M M"
_symmetry_group_IT_number 99
_symmetry_cell_setting 'tetragonal'
loop_
_space_group_symop_operation_xyz
x,y,z
-y,x,z
-x,-y,z
y,-x,z
-x,y,z
x,-y,z
-y,-x,z
y,x,z
loop_
_atom_site_type_symbol
_atom_site_label
_atom_site_fract_x
_atom_site_fract_y
_atom_site_fract_z
Si Si1 0.209279 0.059235 0.069850
Si Si2 0.682038 0.901100 0.164175
Si Si3 0.388092 0.191593 0.112935
Si Si4 0.606637 0.690911 0.183212
Si Si5 0.559412 0.355846 0.684253
Si Si6 0.857111 0.058943 0.571260
Si Si7 0.151285 0.440663 0.610214
Si Si8 0.371519 0.941449 0.661034
O O1 0.257380 0.096754 0.112072
O O2 0.166351 0.070856 0.287055
O O3 0.227848 0.000000 0.087170
O O4 0.185842 0.072225 0.786968
O O5 0.663849 0.841695 0.151652
O O6 0.671533 0.924540 0.451254
O O7 0.651404 0.934612 0.951013
O O8 0.374993 0.250762 0.158206
O O9 0.431158 0.173124 0.319239
O O10 0.409271 0.185159 0.818920
O O11 0.658411 0.658411 0.166155
O O12 0.577135 0.682565 0.455646
O O13 0.567499 0.674364 0.955068
O O14 0.500000 0.370552 0.652072
O O15 0.591076 0.408925 0.674069
O O16 0.907465 0.092535 0.616876
O O17 0.874637 0.000000 0.597766
O O18 0.154276 0.500000 0.680074
O O19 0.092131 0.422805 0.624118
O O20 0.387789 0.000000 0.618243
#
# Coordination Sequence:
#
# PCOD8306519 Si02
#       8
#     8   8   8   8   8   8   8   8
#     4  10  19  33  55  78 103 134 169 214 260 303
#     4  10  20  34  53  78 103 132 175 217 259 305
#     4  10  21  36  54  75 103 136 172 216 256 299
#     4  10  21  37  55  77 105 136 173 210 248 302
#     4  10  21  36  56  82 108 136 171 210 254 306
#     4  10  21  36  54  78 106 136 169 206 252 306
#     4  10  21  34  50  76 105 134 172 214 255 300
#     4  10  19  32  51  74 103 138 174 212 255 306
#
# _framework density 18.591397000000001
#
# number of rings (size 3 to 8) (size 9 to 14) (size 15 to 20)
#    0.000    2.000    0.000    3.750    0.000    4.500 
#    0.000    1.250    0.000   10.500    0.000    0.000 
#    0.000    0.000    0.000    0.000    0.000    0.000 
#
# Total GULP energy -793909.663534 kJ/mol
# GULP energy per Si atom -12404.838493 kJ/mol
# Density = 1.854908 g / cm^3
# Si number density = 18.591397 Si / 1000 Ang^3
#
#
#
# Elastic Constant Matrix: (Units=GPa)
#
#
# Indices 1 2 3 4 5 6 
#
# 1 108.0669 45.9766 10.0190 0.0000 0.0000 -0.0007
# 2 45.9766 108.0669 10.0190 0.0000 0.0000 0.0007
# 3 10.0190 10.0190 69.4309 0.0000 0.0000 0.0000
# 4 0.0000 0.0000 0.0000 17.4176 0.0000 0.0000
# 5 0.0000 0.0000 0.0000 0.0000 17.4176 0.0000
# 6 -0.0007 0.0007 0.0000 0.0000 0.0000 12.8096
#
#
#
# Elastic Compliance Matrix: (Units=1/GPa)
#
#
# Indices 1 2 3 4 5 6 
#
# 1 0.011361 -0.004745 -0.000955 0.000000 0.000000 0.000001
# 2 -0.004745 0.011361 -0.000955 0.000000 0.000000 -0.000001
# 3 -0.000955 -0.000955 0.014678 0.000000 0.000000 0.000000
# 4 0.000000 0.000000 0.000000 0.057413 0.000000 0.000000
# 5 0.000000 0.000000 0.000000 0.000000 0.057413 0.000000
# 6 0.000001 -0.000001 0.000000 0.000000 0.000000 0.078067
#
#
# Mechanical properties :
#
#
# Convention : Reuss Voigt Hill
#
# Bulk Modulus (GPa) = 41.50871 46.39932 43.95402
# Shear Modulus (GPa) = 19.87031 24.16564 22.01798
#
# Velocity S-wave (km/s) = 3.27278 3.60923 3.44511
# Velocity P-wave (km/s) = 6.05448 6.51001 6.28638
#
# Compressibility (1/GPa) = 0.02409133
#
# Stress axis : x y z
#
# Youngs Moduli (GPa) = 88.02264 88.02264 68.12767
#
# Poissons Ratio (x) = 0.41766 0.06504
# Poissons Ratio (y) = 0.41766 0.06504
# Poissons Ratio (z) = 0.08403 0.08403
#
# Static dielectric constant tensor:
#      x y z
#    x 3.265750 0.000000 0.000000 
#    y 0.000000 3.265750 0.000000 
#    z 0.000000 0.000000 3.698220 
# 
# 
# High freq. dielectric constant tensor:
#      x y z
#    x 1.710010 0.000000 0.000000 
#    y 0.000000 1.710010 0.000000 
#    z 0.000000 0.000000 1.745890 
# 
# From -- ./inp_files/526.got.cif
#   From: 2010.03.12/outbox.cif.g09.slc.cpg/sg99_cif.got.tgz:526.got - 2010.04.08 21:11:30.
