data_PCOD8306910
_publ_section_title
;
Structure prediction by ZEFSAII (Michael W. Deem and Ramdas Pophale) SiO2 
 PCOD8306910
Probable space group: P 42 N M
;
_chemical_formula_sum "Si O2"
_cell_formula_units_Z 48
_cell_length_a 11.118056
_cell_length_b 11.118056
_cell_length_c 18.667284
_cell_angle_alpha 90.000000
_cell_angle_beta 90.000000
_cell_angle_gamma 90.000000
_cell_volume 2307.484801
_symmetry_space_group_name_H-M "P 42 N M"
_symmetry_group_IT_number 102
_symmetry_cell_setting 'tetragonal'
loop_
_space_group_symop_operation_xyz
x,y,z
1/2-y,1/2+x,1/2+z
-x,-y,z
1/2+y,1/2-x,1/2+z
1/2-x,1/2+y,1/2+z
1/2+x,1/2-y,1/2+z
-y,-x,z
y,x,z
loop_
_atom_site_type_symbol
_atom_site_label
_atom_site_fract_x
_atom_site_fract_y
_atom_site_fract_z
Si Si1 0.905440 0.594556 0.818360
Si Si2 0.004001 0.195788 0.414335
Si Si3 0.693849 0.506788 0.076908
Si Si4 0.806152 0.993213 0.076904
Si Si5 0.346668 0.846672 0.163291
Si Si6 0.804213 0.004002 0.914330
O O1 0.807787 0.521415 0.863636
O O2 0.845958 0.654032 0.748951
O O3 0.978579 0.692215 0.863632
O O4 0.000000 0.500000 0.787770
O O5 0.900499 0.099502 0.401412
O O6 0.000613 0.242849 0.495805
O O7 0.133174 0.133174 0.397144
O O8 0.585470 0.414531 0.086950
O O9 0.640503 0.640503 0.093253
O O10 0.804110 0.475434 0.130635
O O11 0.914534 0.085467 0.086952
O O12 0.695890 0.024563 0.130630
O O13 0.859495 0.859495 0.093244
O O14 0.757155 0.000624 0.995800
O O15 0.249999 0.750002 0.136048
O O16 0.900501 0.900501 0.901411
O O17 0.866826 0.133175 0.897134
#
# Coordination Sequence:
#
# PCOD8306910 Si02
#       6
#     8   8   8   8   8   8
#     4  12  26  38  52  88 128 163 192 234 297 366
#     4   9  19  39  65  88 112 149 203 255 294 345
#     4   8  16  33  59  87 109 143 198 250 296 345
#     4   8  16  33  59  87 109 143 198 250 296 345
#     4  10  20  36  58  80 114 155 196 242 289 354
#     4   9  19  39  65  88 112 149 203 255 294 345
#
# _framework density 20.801870000000001
#
# number of rings (size 3 to 8) (size 9 to 14) (size 15 to 20)
#    0.000    2.667    0.000    3.500    2.333    2.000 
#    3.000    3.333    0.000    0.000    0.000    0.000 
#    0.000    0.000    0.000    0.000    0.000    0.000 
#
# Total GULP energy -594903.405400 kJ/mol
# GULP energy per Si atom -12393.820946 kJ/mol
# Density = 2.075452 g / cm^3
# Si number density = 20.801870 Si / 1000 Ang^3
#
#
#
# Elastic Constant Matrix: (Units=GPa)
#
#
# Indices 1 2 3 4 5 6 
#
# 1 76.2854 45.1760 52.1240 0.0000 0.0000 0.0000
# 2 45.1760 76.2854 52.1240 0.0000 0.0000 0.0000
# 3 52.1240 52.1240 123.9511 0.0000 0.0000 0.0000
# 4 0.0000 0.0000 0.0000 17.9709 0.0000 0.0000
# 5 0.0000 0.0000 0.0000 0.0000 17.9709 0.0000
# 6 0.0000 0.0000 0.0000 0.0000 0.0000 30.1820
#
#
#
# Elastic Compliance Matrix: (Units=1/GPa)
#
#
# Indices 1 2 3 4 5 6 
#
# 1 0.022514 -0.009631 -0.005417 0.000000 0.000000 0.000000
# 2 -0.009631 0.022514 -0.005417 0.000000 0.000000 0.000000
# 3 -0.005417 -0.005417 0.012624 0.000000 0.000000 0.000000
# 4 0.000000 0.000000 0.000000 0.055645 0.000000 0.000000
# 5 0.000000 0.000000 0.000000 0.000000 0.055645 0.000000
# 6 0.000000 0.000000 0.000000 0.000000 0.000000 0.033132
#
#
# Mechanical properties :
#
#
# Convention : Reuss Voigt Hill
#
# Bulk Modulus (GPa) = 59.80975 63.92999 61.86987
# Shear Modulus (GPa) = 20.11427 21.69796 20.90611
#
# Velocity S-wave (km/s) = 3.11295 3.23317 3.17363
# Velocity P-wave (km/s) = 6.46027 6.68860 6.57543
#
# Compressibility (1/GPa) = 0.01671968
#
# Stress axis : x y z
#
# Youngs Moduli (GPa) = 44.41733 44.41733 79.21406
#
# Poissons Ratio (x) = 0.42778 0.42914
# Poissons Ratio (y) = 0.42778 0.42914
# Poissons Ratio (z) = 0.24063 0.24063
#
# Static dielectric constant tensor:
#      x y z
#    x 4.022380 0.000000 0.000000 
#    y 0.000000 4.022380 0.000000 
#    z 0.000000 0.000000 3.561750 
# 
# 
# High freq. dielectric constant tensor:
#      x y z
#    x 1.805050 0.000000 0.000000 
#    y 0.000000 1.805050 0.000000 
#    z 0.000000 0.000000 1.800900 
# 
# From -- ./inp_files/2721.got.cif
#   From: 2010.03.12/outbox.cif.g09.slc.cpg/sg102_2_cif.got.tgz:2721.got - 2010.04.14 01:40:42.
