data_PCOD8306006
_publ_section_title
;
Structure prediction by ZEFSAII (Michael W. Deem and Ramdas Pophale) SiO2 
 PCOD8306006
Probable space group: P 43 21 2
;
_chemical_formula_sum "Si O2"
_cell_formula_units_Z 40
_cell_length_a 14.074894
_cell_length_b 14.074894
_cell_length_c 8.441555
_cell_angle_alpha 90.000000
_cell_angle_beta 90.000000
_cell_angle_gamma 90.000000
_cell_volume 1672.294341
_symmetry_space_group_name_H-M "P 43 21 2"
_symmetry_group_IT_number 96
_symmetry_cell_setting 'tetragonal'
loop_
_space_group_symop_operation_xyz
x,y,z
1/2-y,1/2+x,3/4+z
-x,-y,1/2+z
1/2+y,1/2-x,1/4+z
1/2+x,1/2-y,1/4-z
1/2-x,1/2+y,3/4-z
y,x,-z
-y,-x,1/2-z
loop_
_atom_site_type_symbol
_atom_site_label
_atom_site_fract_x
_atom_site_fract_y
_atom_site_fract_z
Si Si1 0.994986 0.277958 0.795119
Si Si2 0.576545 0.081890 0.207886
Si Si3 0.361868 0.793734 0.244156
Si Si4 0.032533 0.777757 0.832897
Si Si5 0.890289 0.048439 0.490831
O O1 0.904122 0.336469 0.734011
O O2 0.036483 0.328499 0.949371
O O3 0.077688 0.275269 0.665371
O O4 0.963017 0.172719 0.851225
O O5 0.516896 0.066983 0.050385
O O6 0.687269 0.102998 0.169589
O O7 0.265364 0.734637 0.250000
O O8 0.425997 0.760171 0.390504
O O9 0.067108 0.844810 0.978202
O O10 0.030380 0.830670 0.666981
O O11 0.977257 0.977257 0.500000
#
# Coordination Sequence:
#
# PCOD8306006 Si02
#       5
#     8   8   8   8   8
#     4  12  26  48  75 111 151 197 251 320 380 457
#     4  12  24  46  74 112 150 195 253 317 391 450
#     4  12  28  45  72 111 146 197 255 308 388 453
#     4  11  26  45  74 107 145 199 246 314 375 458
#     4  11  25  50  74 104 149 199 250 306 382 458
#
# _framework density 23.919235
#
# number of rings (size 3 to 8) (size 9 to 14) (size 15 to 20)
#    0.000    0.400    4.000    3.000    5.600    1.600 
#    7.200    0.000    0.000    0.000    0.000    0.000 
#    0.000    0.000    0.000    0.000    0.000    0.000 
#
# Total GULP energy -496167.025575 kJ/mol
# GULP energy per Si atom -12404.175639 kJ/mol
# Density = 2.386479 g / cm^3
# Si number density = 23.919235 Si / 1000 Ang^3
#
#
#
# Elastic Constant Matrix: (Units=GPa)
#
#
# Indices 1 2 3 4 5 6 
#
# 1 148.6877 50.2534 19.7184 0.0000 0.0000 0.0000
# 2 50.2534 148.6844 19.7173 0.0000 0.0000 0.0000
# 3 19.7184 19.7173 46.1381 0.0000 0.0000 0.0000
# 4 0.0000 0.0000 0.0000 36.5565 0.0000 0.0000
# 5 0.0000 0.0000 0.0000 0.0000 36.5569 0.0000
# 6 0.0000 0.0000 0.0000 0.0000 0.0000 44.9157
#
#
#
# Elastic Compliance Matrix: (Units=1/GPa)
#
#
# Indices 1 2 3 4 5 6 
#
# 1 0.007826 -0.002334 -0.002347 0.000000 0.000000 0.000000
# 2 -0.002334 0.007826 -0.002347 0.000000 0.000000 0.000000
# 3 -0.002347 -0.002347 0.023680 0.000000 0.000000 0.000000
# 4 0.000000 0.000000 0.000000 0.027355 0.000000 0.000000
# 5 0.000000 0.000000 0.000000 0.000000 0.027355 0.000000
# 6 0.000000 0.000000 0.000000 0.000000 0.000000 0.022264
#
#
# Mechanical properties :
#
#
# Convention : Reuss Voigt Hill
#
# Bulk Modulus (GPa) = 39.56359 58.09872 48.83115
# Shear Modulus (GPa) = 36.02680 40.52722 38.27701
#
# Velocity S-wave (km/s) = 3.88517 4.12070 4.00467
# Velocity P-wave (km/s) = 6.05826 6.85438 6.46858
#
# Compressibility (1/GPa) = 0.02527577
#
# Stress axis : x y z
#
# Youngs Moduli (GPa) = 127.78727 127.78508 42.22943
#
# Poissons Ratio (x) = 0.29821 0.09912
# Poissons Ratio (y) = 0.29821 0.09911
# Poissons Ratio (z) = 0.29994 0.29991
#
# Static dielectric constant tensor:
#      x y z
#    x 4.599480 0.000000 0.000000 
#    y 0.000000 4.599490 0.000000 
#    z 0.000000 0.000000 4.364820 
# 
# 
# High freq. dielectric constant tensor:
#      x y z
#    x 1.959310 0.000000 0.000000 
#    y 0.000000 1.959310 0.000000 
#    z 0.000000 0.000000 1.958860 
# 
# From -- ./inp_files/1338.got.cif
#   From: 2010.03.12/outbox.cif.g09.slc.cpg/sg96_1_cif.got.tgz:1338.got - 2010.04.08 20:56:49.
