data_PCOD8306664
_publ_section_title
;
Structure prediction by ZEFSAII (Michael W. Deem and Ramdas Pophale) SiO2 
 PCOD8306664
Probable space group: P 4 B M
;
_chemical_formula_sum "Si O2"
_cell_formula_units_Z 64
_cell_length_a 16.515928
_cell_length_b 16.515928
_cell_length_c 11.686383
_cell_angle_alpha 90.000000
_cell_angle_beta 90.000000
_cell_angle_gamma 90.000000
_cell_volume 3187.763380
_symmetry_space_group_name_H-M "P 4 B M"
_symmetry_group_IT_number 100
_symmetry_cell_setting 'tetragonal'
loop_
_space_group_symop_operation_xyz
x,y,z
-y,x,z
-x,-y,z
y,-x,z
1/2-x,1/2+y,z
1/2+x,1/2-y,z
1/2-y,1/2-x,z
1/2+y,1/2+x,z
loop_
_atom_site_type_symbol
_atom_site_label
_atom_site_fract_x
_atom_site_fract_y
_atom_site_fract_z
Si Si1 0.568102 0.605193 0.001550
Si Si2 0.129750 0.499680 0.960901
Si Si3 0.396819 0.235080 0.117480
Si Si4 0.735081 0.896819 0.378723
Si Si5 0.999680 0.629750 0.535301
Si Si6 0.896547 0.127004 0.748099
Si Si7 0.068103 0.894808 0.494649
Si Si8 0.259054 0.980440 0.748100
O O1 0.476001 0.610925 0.048732
O O2 0.616871 0.683002 0.045056
O O3 0.563208 0.595705 0.864405
O O4 0.072729 0.572729 0.916143
O O5 0.186963 0.469711 0.859761
O O6 0.075392 0.424609 0.003446
O O7 0.183114 0.528762 0.068048
O O8 0.313110 0.186891 0.107076
O O9 0.417584 0.256123 0.248102
O O10 0.686891 0.813110 0.389128
O O11 0.683117 0.971238 0.428157
O O12 0.816999 0.883127 0.451145
O O13 0.072729 0.572729 0.580058
O O14 0.969708 0.686960 0.636444
O O15 0.924610 0.575391 0.492754
O O16 0.936791 0.095702 0.631794
O O17 0.927577 0.221467 0.748098
O O18 0.803124 0.097095 0.748100
O O19 0.976002 0.889075 0.447466
#
# Coordination Sequence:
#
# PCOD8306664 Si02
#       8
#     8   8   8   8   8   8   8   8
#     4  11  21  38  63  89 120 158 200 241 291 359
#     4  10  21  40  63  85 117 159 201 246 296 355
#     4  10  22  41  62  86 118 154 199 254 304 346
#     4  10  22  41  62  86 118 154 199 254 304 346
#     4  10  21  40  63  85 117 159 201 246 296 355
#     4  12  20  35  61  86 120 156 187 240 291 349
#     4  11  21  38  63  89 120 158 200 241 291 359
#     4  12  22  36  58  92 122 154 194 241 296 358
#
# _framework density 20.076771999999998
#
# number of rings (size 3 to 8) (size 9 to 14) (size 15 to 20)
#    0.000    1.250    5.000    0.750    0.000    3.750 
#    0.000   13.125    0.000    0.000    0.000    0.000 
#    0.000    0.000    0.000    0.000    0.000    0.000 
#
# Total GULP energy -792952.572339 kJ/mol
# GULP energy per Si atom -12389.883943 kJ/mol
# Density = 2.003108 g / cm^3
# Si number density = 20.076772 Si / 1000 Ang^3
#
#
#
# Elastic Constant Matrix: (Units=GPa)
#
#
# Indices 1 2 3 4 5 6 
#
# 1 95.2295 35.6453 40.1239 0.0000 0.0000 0.0000
# 2 35.6453 95.2295 40.1239 0.0000 0.0000 0.0000
# 3 40.1239 40.1239 104.8252 0.0000 0.0000 0.0000
# 4 0.0000 0.0000 0.0000-2855.7555 0.0000 0.0000
# 5 0.0000 0.0000 0.0000 0.0000-2855.7555 0.0000
# 6 0.0000 0.0000 0.0000 0.0000 0.0000 27.3958
#
#
#
# Elastic Compliance Matrix: (Units=1/GPa)
#
#
# Indices 1 2 3 4 5 6 
#
# 1 0.013384 -0.003399 -0.003822 0.000000 0.000000 0.000000
# 2 -0.003399 0.013384 -0.003822 0.000000 0.000000 0.000000
# 3 -0.003822 -0.003822 0.012465 0.000000 0.000000 0.000000
# 4 0.000000 0.000000 0.000000 -0.000350 0.000000 0.000000
# 5 0.000000 0.000000 0.000000 0.000000 -0.000350 0.000000
# 6 0.000000 0.000000 0.000000 0.000000 0.000000 0.036502
#
#
# Mechanical properties :
#
#
# Convention : Reuss Voigt Hill
#
# Bulk Modulus (GPa) = 58.31888 58.56339 58.44114
# Shear Modulus (GPa) = 48.62148 -1124.86364 -538.12108
#
# Velocity S-wave (km/s) = 4.92649 -23.69594 -16.38943
# Velocity P-wave (km/s) = 7.84037 26.82220 18.13779
#
# Compressibility (1/GPa) = 0.01714710
#
# Stress axis : x y z
#
# Youngs Moduli (GPa) = 74.71841 74.71841 80.22258
#
# Poissons Ratio (x) = 0.25400 0.30658
# Poissons Ratio (y) = 0.25400 0.30658
# Poissons Ratio (z) = 0.28555 0.28555
#
# Static dielectric constant tensor:
#      x y z
#    x 3.683690 0.000000 0.000000 
#    y 0.000000 3.683690 0.000000 
#    z 0.000000 0.000000 3.576200 
# 
# 
# High freq. dielectric constant tensor:
#      x y z
#    x 1.780590 0.000000 0.000000 
#    y 0.000000 1.780590 0.000000 
#    z 0.000000 0.000000 1.775320 
# 
# From -- ./inp_files/1383.got.cif
#   From: 2010.03.12/outbox.cif.g09.slc.cpg/sg100_cif.got.tgz:1383.got - 2010.04.14 01:37:57.
