data_PCOD8306572
_publ_section_title
;
Structure prediction by ZEFSAII (Michael W. Deem and Ramdas Pophale) SiO2 
 PCOD8306572
Probable space group: P 4 M M
;
_chemical_formula_sum "Si O2"
_cell_formula_units_Z 48
_cell_length_a 13.476956
_cell_length_b 13.476956
_cell_length_c 15.151778
_cell_angle_alpha 90.000000
_cell_angle_beta 90.000000
_cell_angle_gamma 90.000000
_cell_volume 2751.992332
_symmetry_space_group_name_H-M "P 4 M M"
_symmetry_group_IT_number 99
_symmetry_cell_setting 'tetragonal'
loop_
_space_group_symop_operation_xyz
x,y,z
-y,x,z
-x,-y,z
y,-x,z
-x,y,z
x,-y,z
-y,-x,z
y,x,z
loop_
_atom_site_type_symbol
_atom_site_label
_atom_site_fract_x
_atom_site_fract_y
_atom_site_fract_z
Si Si1 0.778557 0.615668 0.526610
Si Si2 0.774701 0.385111 0.034297
Si Si3 0.883612 0.276501 0.680168
Si Si4 0.386241 0.885546 0.858247
Si Si5 0.885647 0.274375 0.377909
Si Si6 0.273875 0.113094 0.175945
O O1 0.752906 0.500000 0.529788
O O2 0.675241 0.675241 0.531602
O O3 0.849343 0.643805 0.607960
O O4 0.837197 0.639525 0.436602
O O5 0.748729 0.500000 0.034487
O O6 0.672469 0.327532 0.049136
O O7 0.850668 0.363011 0.113769
O O8 0.822703 0.351152 0.942146
O O9 0.827578 0.172422 0.665614
O O10 0.855443 0.319097 0.775673
O O11 0.000000 0.256755 0.670071
O O12 0.500000 0.862629 0.833747
O O13 0.372202 0.000000 0.883119
O O14 0.829934 0.170067 0.395417
O O15 0.873610 0.308630 0.276836
O O16 0.000000 0.258141 0.403963
O O17 0.174751 0.174751 0.155118
O O18 0.247737 0.000000 0.154661
#
# Coordination Sequence:
#
# PCOD8306572 Si02
#       6
#     8   8   8   8   8   8
#     4  10  21  36  53  73  97 125 160 202 245 288
#     4  10  20  33  49  69  95 127 163 204 246 287
#     4  10  20  33  50  73 101 132 164 197 234 279
#     4   9  17  30  50  74  96 121 157 199 242 288
#     4   9  18  32  50  74 102 130 160 194 234 282
#     4   9  18  32  50  73 100 128 159 196 238 285
#
# _framework density 17.441908999999999
#
# number of rings (size 3 to 8) (size 9 to 14) (size 15 to 20)
#    0.000    2.500    0.000    2.000    0.000    4.500 
#    0.000    3.333    0.000    3.000    0.000    9.333 
#    0.000    0.000    0.000    0.000    0.000    0.000 
#
# Total GULP energy -595304.673049 kJ/mol
# GULP energy per Si atom -12402.180689 kJ/mol
# Density = 1.740221 g / cm^3
# Si number density = 17.441909 Si / 1000 Ang^3
#
#
#
# Elastic Constant Matrix: (Units=GPa)
#
#
# Indices 1 2 3 4 5 6 
#
# 1 103.3421 42.8543 52.7694 0.0000 0.0000 0.0001
# 2 42.8543 103.3421 52.7694 0.0000 0.0000 -0.0001
# 3 52.7694 52.7694 104.5973 0.0000 0.0000 0.0000
# 4 0.0000 0.0000 0.0000 26.1700 0.0000 0.0000
# 5 0.0000 0.0000 0.0000 0.0000 26.1700 0.0000
# 6 0.0001 -0.0001 0.0000 0.0000 0.0000 15.3423
#
#
#
# Elastic Compliance Matrix: (Units=1/GPa)
#
#
# Indices 1 2 3 4 5 6 
#
# 1 0.013645 -0.002887 -0.005428 0.000000 0.000000 0.000000
# 2 -0.002887 0.013645 -0.005428 0.000000 0.000000 0.000000
# 3 -0.005428 -0.005428 0.015037 0.000000 0.000000 0.000000
# 4 0.000000 0.000000 0.000000 0.038212 0.000000 0.000000
# 5 0.000000 0.000000 0.000000 0.000000 0.038212 0.000000
# 6 0.000000 0.000000 0.000000 0.000000 0.000000 0.065179
#
#
# Mechanical properties :
#
#
# Convention : Reuss Voigt Hill
#
# Bulk Modulus (GPa) = 67.37091 67.56305 67.46698
# Shear Modulus (GPa) = 23.10943 24.39568 23.75255
#
# Velocity S-wave (km/s) = 3.64392 3.74395 3.69427
# Velocity P-wave (km/s) = 7.51092 7.58352 7.54730
#
# Compressibility (1/GPa) = 0.01484320
#
# Stress axis : x y z
#
# Youngs Moduli (GPa) = 73.28555 73.28555 66.50320
#
# Poissons Ratio (x) = 0.21158 0.36095
# Poissons Ratio (y) = 0.21158 0.36095
# Poissons Ratio (z) = 0.39776 0.39776
#
# Static dielectric constant tensor:
#      x y z
#    x 3.102290 0.000000 0.000000 
#    y 0.000000 3.102290 0.000000 
#    z 0.000000 0.000000 3.437980 
# 
# 
# High freq. dielectric constant tensor:
#      x y z
#    x 1.666780 0.000000 0.000000 
#    y 0.000000 1.666780 0.000000 
#    z 0.000000 0.000000 1.689910 
# 
# From -- ./inp_files/1954.got.cif
#   From: 2010.03.12/outbox.cif.g09.slc.cpg/sg99_cif.got.tgz:1954.got - 2010.04.08 21:11:30.
