data_PCOD8306226
_publ_section_title
;
Structure prediction by ZEFSAII (Michael W. Deem and Ramdas Pophale) SiO2 
 PCOD8306226
Probable space group: I 41 2 2
;
_chemical_formula_sum "Si O2"
_cell_formula_units_Z 96
_cell_length_a 19.343048
_cell_length_b 19.343048
_cell_length_c 14.111895
_cell_angle_alpha 90.000000
_cell_angle_beta 90.000000
_cell_angle_gamma 90.000000
_cell_volume 5280.014990
_symmetry_space_group_name_H-M "I 41 2 2"
_symmetry_group_IT_number 98
_symmetry_cell_setting 'tetragonal'
loop_
_space_group_symop_operation_xyz
x,y,z
-y,1/2+x,1/4+z
-x,-y,z
y,1/2-x,1/4+z
x,1/2-y,1/4-z
-x,1/2+y,1/4-z
y,x,-z
-y,-x,-z
1/2+x,1/2+y,1/2+z
1/2-y,x,3/4+z
1/2-x,1/2-y,1/2+z
1/2+y,-x,3/4+z
1/2+x,-y,3/4-z
1/2-x,y,3/4-z
1/2+y,1/2+x,1/2-z
1/2-y,1/2-x,1/2-z
loop_
_atom_site_type_symbol
_atom_site_label
_atom_site_fract_x
_atom_site_fract_y
_atom_site_fract_z
Si Si1 0.084408 0.272265 0.773464
Si Si2 0.474074 0.689218 0.370009
Si Si3 0.501477 0.321499 0.592425
Si Si4 0.174029 0.844238 0.891344
Si Si5 0.946014 0.940718 0.794746
Si Si6 0.148095 0.379939 0.899374
O O1 0.133496 0.304630 0.854653
O O2 0.125020 0.205506 0.732355
O O3 0.070577 0.325426 0.686513
O O4 0.010728 0.254842 0.821271
O O5 0.489662 0.682725 0.480575
O O6 0.391806 0.694643 0.343734
O O7 0.506851 0.621744 0.326307
O O8 0.464352 0.250000 0.625000
O O9 0.576437 0.324815 0.644511
O O10 0.458525 0.388735 0.624936
O O11 0.250000 0.809272 0.875000
O O12 0.156282 0.843719 0.000000
O O13 0.909109 0.922307 0.695168
O O14 0.000000 0.000000 0.774196
#
# Coordination Sequence:
#
# PCOD8306226 Si02
#       6
#    16  16  16  16  16  16
#     4   9  18  36  59  77 106 148 191 229 286 338
#     4  10  19  32  55  79 109 151 183 233 284 345
#     4  10  19  31  51  79 112 144 181 230 290 340
#     4   9  18  32  52  75 105 146 182 222 281 342
#     4  11  20  32  53  82 114 142 189 233 287 346
#     4   9  19  35  60  77 108 149 185 231 285 341
#
# _framework density 18.181766
#
# number of rings (size 3 to 8) (size 9 to 14) (size 15 to 20)
#    0.000    2.333    1.667    1.500    0.000    0.667 
#    0.000    1.667   91.667    0.000    0.000    0.000 
#    0.000    0.000    0.000    0.000    0.000    0.000 
#
# Total GULP energy -594690.642917 kJ/mol
# GULP energy per Si atom -12389.388394 kJ/mol
# Density = 1.814038 g / cm^3
# Si number density = 18.181766 Si / 1000 Ang^3
#
#
#
# Elastic Constant Matrix: (Units=GPa)
#
#
# Indices 1 2 3 4 5 6 
#
# 1 97.3077 53.8374 44.3896 0.0000 0.0000 0.0000
# 2 53.8374 97.3076 44.3894 0.0000 0.0000 0.0000
# 3 44.3896 44.3894 83.9373 0.0000 0.0000 0.0000
# 4 0.0000 0.0000 0.0000 5224.6586 0.0000 0.0000
# 5 0.0000 0.0000 0.0000 0.0000 6825.4415 0.0000
# 6 0.0000 0.0000 0.0000 0.0000 0.0000 28.1111
#
#
#
# Elastic Compliance Matrix: (Units=1/GPa)
#
#
# Indices 1 2 3 4 5 6 
#
# 1 0.016301 -0.006703 -0.005076 0.000000 0.000000 0.000000
# 2 -0.006703 0.016301 -0.005075 0.000000 0.000000 0.000000
# 3 -0.005076 -0.005075 0.017282 0.000000 0.000000 0.000000
# 4 0.000000 0.000000 0.000000 0.000191 0.000000 0.000000
# 5 0.000000 0.000000 0.000000 0.000000 0.000147 0.000000
# 6 0.000000 0.000000 0.000000 0.000000 0.000000 0.035573
#
#
# Mechanical properties :
#
#
# Convention : Reuss Voigt Hill
#
# Bulk Modulus (GPa) = 61.82491 62.64283 62.23387
# Shear Modulus (GPa) = 40.03362 2424.70465 1232.36913
#
# Velocity S-wave (km/s) = 4.69748 36.55799 26.06293
# Velocity P-wave (km/s) = 7.96865 42.62054 30.65950
#
# Compressibility (1/GPa) = 0.01617471
#
# Stress axis : x y z
#
# Youngs Moduli (GPa) = 61.34653 61.34669 57.86397
#
# Poissons Ratio (x) = 0.41123 0.29369
# Poissons Ratio (y) = 0.41123 0.29369
# Poissons Ratio (z) = 0.31137 0.31136
#
# Static dielectric constant tensor:
#      x y z
#    x 0.153830 0.000000 0.000000 
#    y 0.000000 -0.954820 0.000000 
#    z 0.000000 0.000000 3.591000 
# 
# 
# High freq. dielectric constant tensor:
#      x y z
#    x 1.694970 0.000000 0.000000 
#    y 0.000000 1.694970 0.000000 
#    z 0.000000 0.000000 1.699010 
# 
# From -- ./inp_files/5309.got.cif
#   From: 2010.03.12/outbox.cif.g09.slc.cpg/sg98_3_cif.got.tgz:5309.got - 2010.04.08 21:04:41.
