data_PCOD8306029
_publ_section_title
;
Structure prediction by ZEFSAII (Michael W. Deem and Ramdas Pophale) SiO2 
 PCOD8306029
Probable space group: I 4 2 2 
;
_chemical_formula_sum "Si O2"
_cell_formula_units_Z 128
_cell_length_a 18.834187
_cell_length_b 18.834187
_cell_length_c 20.932937
_cell_angle_alpha 90.000000
_cell_angle_beta 90.000000
_cell_angle_gamma 90.000000
_cell_volume 7425.469569
_symmetry_space_group_name_H-M "I 4 2 2 "
_symmetry_group_IT_number 97
_symmetry_cell_setting 'tetragonal'
loop_
_space_group_symop_operation_xyz
x,y,z
-y,x,z
-x,-y,z
y,-x,z
x,-y,-z
-x,y,-z
y,x,-z
-y,-x,-z
1/2+x,1/2+y,1/2+z
1/2-y,1/2+x,1/2+z
1/2-x,1/2-y,1/2+z
1/2+y,1/2-x,1/2+z
1/2+x,1/2-y,1/2-z
1/2-x,1/2+y,1/2-z
1/2+y,1/2+x,1/2-z
1/2-y,1/2-x,1/2-z
loop_
_atom_site_type_symbol
_atom_site_label
_atom_site_fract_x
_atom_site_fract_y
_atom_site_fract_z
Si Si1 0.931161 0.266868 0.341018
Si Si2 0.449280 0.287140 0.302961
Si Si3 0.202646 0.263075 0.145656
Si Si4 0.546555 0.262564 0.058549
Si Si5 0.312780 0.801127 0.013781
Si Si6 0.330101 0.603425 0.712911
Si Si7 0.359472 0.329769 0.851536
Si Si8 0.690815 0.141303 0.877780
O O1 0.947295 0.247748 0.267686
O O2 0.882806 0.203624 0.370109
O O3 0.887485 0.340814 0.349117
O O4 0.001146 0.274244 0.384499
O O5 0.394062 0.350946 0.317400
O O6 0.525094 0.323331 0.316220
O O7 0.434019 0.221773 0.352304
O O8 0.166952 0.270875 0.075124
O O9 0.142109 0.245559 0.197725
O O10 0.248115 0.333693 0.159276
O O11 0.257734 0.199300 0.152277
O O12 0.604095 0.207746 0.029909
O O13 0.585849 0.330773 0.089443
O O14 0.500000 0.290479 0.000000
O O15 0.275871 0.724130 0.000000
O O16 0.307469 0.855688 0.954909
O O17 0.349290 0.598518 0.787561
#
# Coordination Sequence:
#
# PCOD8306029 Si02
#       8
#    16  16  16  16  16  16  16  16
#     4  10  18  31  46  70  96 131 170 208 245 286
#     4  10  20  31  49  69  99 132 167 210 242 296
#     4   8  16  28  49  68  93 119 159 209 250 293
#     4  11  19  26  45  72 100 129 162 199 240 295
#     4   9  17  30  47  73  98 127 158 207 257 297
#     4  10  18  32  47  71  95 129 167 202 252 290
#     4   9  18  30  46  67  96 131 167 208 243 281
#     4   9  16  30  47  69  96 124 160 206 259 286
#
# _framework density 17.237967999999999
#
# number of rings (size 3 to 8) (size 9 to 14) (size 15 to 20)
#    0.000    2.500    2.500    1.500    0.000    3.250 
#    0.000    0.625    0.000    0.375    3.250    3.500 
#    0.000    5.000    0.000    0.000    0.000    0.000 
#
# Total GULP energy -792850.636797 kJ/mol
# GULP energy per Si atom -12388.291200 kJ/mol
# Density = 1.719873 g / cm^3
# Si number density = 17.237968 Si / 1000 Ang^3
#
#
#
# Elastic Constant Matrix: (Units=GPa)
#
#
# Indices 1 2 3 4 5 6 
#
# 1 52.9557 32.6696 21.8980 0.0000 0.0000 0.0000
# 2 32.6696 52.9564 21.8978 0.0000 0.0000 0.0000
# 3 21.8980 21.8978 78.0896 0.0000 0.0000 0.0000
# 4 0.0000 0.0000 0.0000 25.9413 0.0000 0.0000
# 5 0.0000 0.0000 0.0000 0.0000 25.9410 0.0000
# 6 0.0000 0.0000 0.0000 0.0000 0.0000 13.3708
#
#
#
# Elastic Compliance Matrix: (Units=1/GPa)
#
#
# Indices 1 2 3 4 5 6 
#
# 1 0.031464 -0.017830 -0.003823 0.000000 0.000000 0.000000
# 2 -0.017830 0.031464 -0.003823 0.000000 0.000000 0.000000
# 3 -0.003823 -0.003823 0.014950 0.000000 0.000000 0.000000
# 4 0.000000 0.000000 0.000000 0.038549 0.000000 0.000000
# 5 0.000000 0.000000 0.000000 0.000000 0.038549 0.000000
# 6 0.000000 0.000000 0.000000 0.000000 0.000000 0.074790
#
#
# Mechanical properties :
#
#
# Convention : Reuss Voigt Hill
#
# Bulk Modulus (GPa) = 37.13973 37.43696 37.28835
# Shear Modulus (GPa) = 17.25958 20.21970 18.73964
#
# Velocity S-wave (km/s) = 3.16769 3.42859 3.30072
# Velocity P-wave (km/s) = 5.91364 6.11870 6.01704
#
# Compressibility (1/GPa) = 0.02692534
#
# Stress axis : x y z
#
# Youngs Moduli (GPa) = 31.78193 31.78249 66.88927
#
# Poissons Ratio (x) = 0.56668 0.25575
# Poissons Ratio (y) = 0.56667 0.25573
# Poissons Ratio (z) = 0.12152 0.12151
#
# Static dielectric constant tensor:
#      x y z
#    x 3.100090 0.000000 0.000000 
#    y 0.000000 3.100090 0.000000 
#    z 0.000000 0.000000 3.421660 
# 
# 
# High freq. dielectric constant tensor:
#      x y z
#    x 1.632370 0.000000 0.000000 
#    y 0.000000 1.632370 0.000000 
#    z 0.000000 0.000000 1.676070 
# 
# From -- ./inp_files/7406.got.cif
#   From: 2010.03.12/outbox.cif.g09.slc.cpg/sg97_4_cif.got.tgz:7406.got - 2010.04.08 20:59:42.
