data_PCOD8306372
_publ_section_title
;
Structure prediction by ZEFSAII (Michael W. Deem and Ramdas Pophale) SiO2 
 PCOD8306372
Probable space group: I 41 2 2
;
_chemical_formula_sum "Si O2"
_cell_formula_units_Z 88
_cell_length_a 13.742482
_cell_length_b 13.742482
_cell_length_c 27.727879
_cell_angle_alpha 90.000000
_cell_angle_beta 90.000000
_cell_angle_gamma 90.000000
_cell_volume 5236.571090
_symmetry_space_group_name_H-M "I 41 2 2"
_symmetry_group_IT_number 98
_symmetry_cell_setting 'tetragonal'
loop_
_space_group_symop_operation_xyz
x,y,z
-y,1/2+x,1/4+z
-x,-y,z
y,1/2-x,1/4+z
x,1/2-y,1/4-z
-x,1/2+y,1/4-z
y,x,-z
-y,-x,-z
1/2+x,1/2+y,1/2+z
1/2-y,x,3/4+z
1/2-x,1/2-y,1/2+z
1/2+y,-x,3/4+z
1/2+x,-y,3/4-z
1/2-x,y,3/4-z
1/2+y,1/2+x,1/2-z
1/2-y,1/2-x,1/2-z
loop_
_atom_site_type_symbol
_atom_site_label
_atom_site_fract_x
_atom_site_fract_y
_atom_site_fract_z
Si Si1 0.729496 0.651648 0.097293
Si Si2 0.383981 0.616020 0.000000
Si Si3 0.151645 0.770505 0.402709
Si Si4 0.499994 0.890843 0.919853
Si Si5 0.000000 0.500000 0.989880
Si Si6 0.606408 0.500009 0.148955
Si Si7 0.383975 0.116026 0.250000
O O1 0.753210 0.750000 0.125000
O O2 0.832408 0.596808 0.093619
O O3 0.659974 0.596541 0.133797
O O4 0.673729 0.659514 0.046072
O O5 0.326283 0.659510 0.046073
O O6 0.363669 0.499998 0.996283
O O7 0.250000 0.746821 0.375000
O O8 0.096501 0.839994 0.366205
O O9 0.096838 0.667575 0.406392
O O10 0.500000 0.000000 0.895790
O O11 0.500004 0.902737 0.977848
O O12 0.999999 0.596793 0.956939
O O13 0.500000 0.500000 0.123681
#
# Coordination Sequence:
#
# PCOD8306372 Si02
#       7
#    16   8  16  16   8  16   8
#     4  11  23  34  56  88 114 152 196 234 280 345
#     4  11  22  36  56  86 129 156 178 234 287 346
#     4  11  23  34  56  88 114 152 196 234 280 345
#     4   9  21  42  56  79 111 149 195 244 292 336
#     4   8  20  36  60  71 112 151 180 230 292 338
#     4   9  19  36  52  81 115 150 183 225 273 350
#     4  11  22  36  56  86 129 156 178 234 287 346
#
# _framework density 16.80489
#
# number of rings (size 3 to 8) (size 9 to 14) (size 15 to 20)
#    1.091    0.909    3.636    1.091    5.091    3.636 
#    0.000    0.000    0.000    0.000    0.000    0.000 
#    0.000    0.000    0.000    0.000    0.000    0.000 
#
# Total GULP energy -545092.495407 kJ/mol
# GULP energy per Si atom -12388.465805 kJ/mol
# Density = 1.676664 g / cm^3
# Si number density = 16.804890 Si / 1000 Ang^3
#
#
#
# Elastic Constant Matrix: (Units=GPa)
#
#
# Indices 1 2 3 4 5 6 
#
# 1 131.5068 60.2021 68.6754 0.0000 0.0000 0.0000
# 2 60.2021 131.5056 68.6753 0.0000 0.0000 0.0000
# 3 68.6754 68.6753 106.7152 0.0000 0.0000 0.0000
# 4 0.0000 0.0000 0.0000 18.9668 0.0000 0.0000
# 5 0.0000 0.0000 0.0000 0.0000 18.9671 0.0000
# 6 0.0000 0.0000 0.0000 0.0000 0.0000 -77.8592
#
#
#
# Elastic Compliance Matrix: (Units=1/GPa)
#
#
# Indices 1 2 3 4 5 6 
#
# 1 0.011852 -0.002173 -0.006229 0.000000 0.000000 0.000000
# 2 -0.002173 0.011852 -0.006229 0.000000 0.000000 0.000000
# 3 -0.006229 -0.006229 0.017388 0.000000 0.000000 0.000000
# 4 0.000000 0.000000 0.000000 0.052724 0.000000 0.000000
# 5 0.000000 0.000000 0.000000 0.000000 0.052723 0.000000
# 6 0.000000 0.000000 0.000000 0.000000 0.000000 -0.012844
#
#
# Mechanical properties :
#
#
# Convention : Reuss Voigt Hill
#
# Bulk Modulus (GPa) = 84.52784 84.98147 84.75466
# Shear Modulus (GPa) = 29.95847 3.49326 16.72587
#
# Velocity S-wave (km/s) = 4.22681 1.44334 3.15826
# Velocity P-wave (km/s) = 8.61568 7.31142 7.99021
#
# Compressibility (1/GPa) = 0.01183042
#
# Stress axis : x y z
#
# Youngs Moduli (GPa) = 84.37684 84.37592 57.51224
#
# Poissons Ratio (x) = 0.18333 0.35823
# Poissons Ratio (y) = 0.18333 0.35823
# Poissons Ratio (z) = 0.52556 0.52556
#
# Static dielectric constant tensor:
#      x y z
#    x 7.023790 0.000000 0.000000 
#    y 0.000000 7.015970 0.000000 
#    z 0.000000 0.000000 3.096550 
# 
# 
# High freq. dielectric constant tensor:
#      x y z
#    x 1.643310 0.000000 0.000000 
#    y 0.000000 1.643310 0.000000 
#    z 0.000000 0.000000 1.645020 
# 
# From -- ./inp_files/10920.got.cif
#   From: 2010.03.12/outbox.cif.g09.slc.cpg/sg98_6_cif.got.tgz:10920.got - 2010.04.08 21:04:41.
