data_PCOD8306850
_publ_section_title
;
Structure prediction by ZEFSAII (Michael W. Deem and Ramdas Pophale) SiO2 
 PCOD8306850
Probable space group: P 42 N M
;
_chemical_formula_sum "Si O2"
_cell_formula_units_Z 48
_cell_length_a 16.973932
_cell_length_b 16.973932
_cell_length_c 9.164567
_cell_angle_alpha 90.000000
_cell_angle_beta 90.000000
_cell_angle_gamma 90.000000
_cell_volume 2640.443425
_symmetry_space_group_name_H-M "P 42 N M"
_symmetry_group_IT_number 102
_symmetry_cell_setting 'tetragonal'
loop_
_space_group_symop_operation_xyz
x,y,z
1/2-y,1/2+x,1/2+z
-x,-y,z
1/2+y,1/2-x,1/2+z
1/2-x,1/2+y,1/2+z
1/2+x,1/2-y,1/2+z
-y,-x,z
y,x,z
loop_
_atom_site_type_symbol
_atom_site_label
_atom_site_fract_x
_atom_site_fract_y
_atom_site_fract_z
Si Si1 0.797848 0.078824 0.905160
Si Si2 0.500854 0.628300 0.678507
Si Si3 0.340265 0.875788 0.094050
Si Si4 0.216121 0.482882 0.838532
Si Si5 0.795688 0.494402 0.160119
Si Si6 0.570179 0.058252 0.848482
O O1 0.864539 0.135462 0.838027
O O2 0.769009 0.020377 0.777639
O O3 0.834219 0.019729 0.022620
O O4 0.732760 0.137310 0.980962
O O5 0.421337 0.578664 0.664880
O O6 0.573462 0.573462 0.731868
O O7 0.484755 0.698535 0.792134
O O8 0.306211 0.904728 0.248317
O O9 0.398923 0.801512 0.128930
O O10 0.388362 0.943675 0.007563
O O11 0.148469 0.547856 0.811131
O O12 0.221887 0.460924 0.008905
O O13 0.879428 0.524315 0.216340
O O14 0.500000 0.000000 0.870990
#
# Coordination Sequence:
#
# PCOD8306850 Si02
#       6
#     8   8   8   8   8   8
#     4   9  19  37  57  77 109 147 184 229 285 341
#     4   9  19  39  62  78  99 140 189 233 282 337
#     4   9  19  32  50  76 108 148 184 223 266 330
#     4  10  20  30  52  84 112 138 180 233 276 321
#     4  10  20  32  51  82 111 145 184 226 277 331
#     4  10  19  30  49  78 112 148 183 216 258 326
#
# _framework density 18.178766
#
# number of rings (size 3 to 8) (size 9 to 14) (size 15 to 20)
#    0.000    2.500    1.667    0.000    4.667    2.000 
#    0.000    9.167    0.000    6.000    0.000    0.000 
#    0.000    0.000    0.000    0.000    0.000    0.000 
#
# Total GULP energy -594671.523450 kJ/mol
# GULP energy per Si atom -12388.990072 kJ/mol
# Density = 1.813739 g / cm^3
# Si number density = 18.178766 Si / 1000 Ang^3
#
#
#
# Elastic Constant Matrix: (Units=GPa)
#
#
# Indices 1 2 3 4 5 6 
#
# 1 91.1903 38.2543 38.9576 0.0000 0.0000 -0.0003
# 2 38.2543 91.1903 38.9576 0.0000 0.0000 0.0003
# 3 38.9576 38.9576 108.7504 0.0000 0.0000 0.0000
# 4 0.0000 0.0000 0.0000 18.6245 0.0000 0.0000
# 5 0.0000 0.0000 0.0000 0.0000 18.6245 0.0000
# 6 -0.0003 0.0003 0.0000 0.0000 0.0000 29.1711
#
#
#
# Elastic Compliance Matrix: (Units=1/GPa)
#
#
# Indices 1 2 3 4 5 6 
#
# 1 0.014370 -0.004521 -0.003528 0.000000 0.000000 0.000000
# 2 -0.004521 0.014370 -0.003528 0.000000 0.000000 0.000000
# 3 -0.003528 -0.003528 0.011723 0.000000 0.000000 0.000000
# 4 0.000000 0.000000 0.000000 0.053693 0.000000 0.000000
# 5 0.000000 0.000000 0.000000 0.000000 0.053693 0.000000
# 6 0.000000 0.000000 0.000000 0.000000 0.000000 0.034280
#
#
# Mechanical properties :
#
#
# Convention : Reuss Voigt Hill
#
# Bulk Modulus (GPa) = 57.77549 58.16333 57.96941
# Shear Modulus (GPa) = 23.69073 24.94812 24.31942
#
# Velocity S-wave (km/s) = 3.61391 3.70858 3.66155
# Velocity P-wave (km/s) = 7.01888 7.09949 7.05930
#
# Compressibility (1/GPa) = 0.01730838
#
# Stress axis : x y z
#
# Youngs Moduli (GPa) = 69.59007 69.59007 85.30107
#
# Poissons Ratio (x) = 0.31461 0.30096
# Poissons Ratio (y) = 0.31461 0.30096
# Poissons Ratio (z) = 0.24553 0.24553
#
# Static dielectric constant tensor:
#      x y z
#    x 3.389660 0.000000 0.000000 
#    y 0.000000 3.389660 0.000000 
#    z 0.000000 0.000000 3.444580 
# 
# 
# High freq. dielectric constant tensor:
#      x y z
#    x 1.688690 0.000000 0.000000 
#    y 0.000000 1.688690 0.000000 
#    z 0.000000 0.000000 1.711520 
# 
# From -- ./inp_files/1034.got.cif
#   From: 2010.03.12/outbox.cif.g09.slc.cpg/sg102_1_cif.got.tgz:1034.got - 2010.04.14 01:40:42.
