data_PCOD8306270
_publ_section_title
;
Structure prediction by ZEFSAII (Michael W. Deem and Ramdas Pophale) SiO2 
 PCOD8306270
Probable space group: I 41 2 2
;
_chemical_formula_sum "Si O2"
_cell_formula_units_Z 120
_cell_length_a 13.736174
_cell_length_b 13.736174
_cell_length_c 31.253665
_cell_angle_alpha 90.000000
_cell_angle_beta 90.000000
_cell_angle_gamma 90.000000
_cell_volume 5897.018901
_symmetry_space_group_name_H-M "I 41 2 2"
_symmetry_group_IT_number 98
_symmetry_cell_setting 'tetragonal'
loop_
_space_group_symop_operation_xyz
x,y,z
-y,1/2+x,1/4+z
-x,-y,z
y,1/2-x,1/4+z
x,1/2-y,1/4-z
-x,1/2+y,1/4-z
y,x,-z
-y,-x,-z
1/2+x,1/2+y,1/2+z
1/2-y,x,3/4+z
1/2-x,1/2-y,1/2+z
1/2+y,-x,3/4+z
1/2+x,-y,3/4-z
1/2-x,y,3/4-z
1/2+y,1/2+x,1/2-z
1/2-y,1/2-x,1/2-z
loop_
_atom_site_type_symbol
_atom_site_label
_atom_site_fract_x
_atom_site_fract_y
_atom_site_fract_z
Si Si1 0.662559 0.337442 0.500000
Si Si2 0.167992 0.357982 0.568606
Si Si3 0.203542 0.330358 0.418566
Si Si4 0.719336 0.029473 0.419723
Si Si5 0.071797 0.579589 0.799985
Si Si6 0.333760 0.759218 0.409200
Si Si7 0.942950 0.717316 0.244599
Si Si8 0.017019 0.263411 0.857905
O O1 0.692428 0.278844 0.456881
O O2 0.681078 0.448489 0.488621
O O3 0.229644 0.257338 0.567788
O O4 0.212603 0.434752 0.535410
O O5 0.168635 0.408989 0.615006
O O6 0.056664 0.334881 0.554584
O O7 0.250000 0.370741 0.375000
O O8 0.219756 0.412886 0.453621
O O9 0.086818 0.317925 0.413364
O O10 0.750000 0.980392 0.375000
O O11 0.815076 0.066919 0.442350
O O12 0.650757 0.123397 0.411873
O O13 0.066494 0.566494 0.750000
O O14 0.000000 0.500000 0.821478
O O15 0.037205 0.682418 0.819001
O O16 0.250000 0.732348 0.375000
O O17 0.435526 0.717140 0.389936
O O18 0.877365 0.622636 0.250000
#
# Coordination Sequence:
#
# PCOD8306270 Si02
#       8
#     8  16  16  16  16  16  16  16
#     4  12  25  48  70  94 125 176 222 276 326 408
#     4  10  20  37  63  97 126 169 212 270 327 387
#     4   9  20  37  66  98 133 161 206 277 344 386
#     4  11  21  38  57  89 129 175 218 263 315 382
#     4  11  23  34  54  89 127 173 219 263 319 389
#     4  11  25  43  66  90 129 185 226 268 329 392
#     4  10  22  42  70 100 125 160 214 274 339 401
#     4  11  20  40  63  90 129 176 211 267 325 394
#
# _framework density 20.349267000000001
#
# number of rings (size 3 to 8) (size 9 to 14) (size 15 to 20)
#    0.000    1.467    4.000    3.000    2.800    0.533 
#    0.000    0.000    0.000    0.000    0.000    0.000 
#    0.000    0.000    0.000    0.000    0.000    0.000 
#
# Total GULP energy -743748.876714 kJ/mol
# GULP energy per Si atom -12395.814612 kJ/mol
# Density = 2.030295 g / cm^3
# Si number density = 20.349267 Si / 1000 Ang^3
#
#
#
# Elastic Constant Matrix: (Units=GPa)
#
#
# Indices 1 2 3 4 5 6 
#
# 1 94.9867 49.1022 39.8758 0.0000 0.0000 0.0000
# 2 49.1022 94.9882 39.8759 0.0000 0.0000 0.0000
# 3 39.8758 39.8759 113.3016 0.0000 0.0000 0.0000
# 4 0.0000 0.0000 0.0000 31.4849 0.0000 0.0000
# 5 0.0000 0.0000 0.0000 0.0000 31.4849 0.0000
# 6 0.0000 0.0000 0.0000 0.0000 0.0000 23.5276
#
#
#
# Elastic Compliance Matrix: (Units=1/GPa)
#
#
# Indices 1 2 3 4 5 6 
#
# 1 0.015206 -0.006587 -0.003033 0.000000 0.000000 0.000000
# 2 -0.006587 0.015206 -0.003033 0.000000 0.000000 0.000000
# 3 -0.003033 -0.003033 0.010961 0.000000 0.000000 0.000000
# 4 0.000000 0.000000 0.000000 0.031761 0.000000 0.000000
# 5 0.000000 0.000000 0.000000 0.000000 0.031761 0.000000
# 6 0.000000 0.000000 0.000000 0.000000 0.000000 0.042503
#
#
# Mechanical properties :
#
#
# Convention : Reuss Voigt Hill
#
# Bulk Modulus (GPa) = 62.24470 62.33160 62.28815
# Shear Modulus (GPa) = 28.07995 28.92765 28.50380
#
# Velocity S-wave (km/s) = 3.71873 3.77445 3.74669
# Velocity P-wave (km/s) = 7.00665 7.04930 7.02801
#
# Compressibility (1/GPa) = 0.01606563
#
# Stress axis : x y z
#
# Youngs Moduli (GPa) = 65.76165 65.76282 91.23086
#
# Poissons Ratio (x) = 0.43319 0.27675
# Poissons Ratio (y) = 0.43319 0.27674
# Poissons Ratio (z) = 0.19949 0.19949
#
# Static dielectric constant tensor:
#      x y z
#    x 3.525300 0.000000 0.000000 
#    y 0.000000 3.525310 0.000000 
#    z 0.000000 0.000000 3.728500 
# 
# 
# High freq. dielectric constant tensor:
#      x y z
#    x 1.781730 0.000000 0.000000 
#    y 0.000000 1.781730 0.000000 
#    z 0.000000 0.000000 1.802210 
# 
# From -- ./inp_files/12154.got.cif
#   From: 2010.03.12/outbox.cif.g09.slc.cpg/sg98_7_cif.got.tgz:12154.got - 2010.04.08 21:04:41.
