data_PCOD8306426
_publ_section_title
;
Structure prediction by ZEFSAII (Michael W. Deem and Ramdas Pophale) SiO2 
 PCOD8306426
Probable space group: P 4 M M
;
_chemical_formula_sum "Si O2"
_cell_formula_units_Z 64
_cell_length_a 13.991461
_cell_length_b 13.991461
_cell_length_c 20.528613
_cell_angle_alpha 90.000000
_cell_angle_beta 90.000000
_cell_angle_gamma 90.000000
_cell_volume 4018.701418
_symmetry_space_group_name_H-M "P 4 M M"
_symmetry_group_IT_number 99
_symmetry_cell_setting 'tetragonal'
loop_
_space_group_symop_operation_xyz
x,y,z
-y,x,z
-x,-y,z
y,-x,z
-x,y,z
x,-y,z
-y,-x,z
y,x,z
loop_
_atom_site_type_symbol
_atom_site_label
_atom_site_fract_x
_atom_site_fract_y
_atom_site_fract_z
Si Si1 0.613451 0.893413 0.405980
Si Si2 0.108661 0.740142 0.915707
Si Si3 0.886303 0.394628 0.027090
Si Si4 0.106446 0.386798 0.550465
Si Si5 0.267855 0.888818 0.767903
Si Si6 0.613808 0.769244 0.671139
Si Si7 0.613189 0.764584 0.288353
Si Si8 0.613813 0.106183 0.169706
O O1 0.500000 0.895382 0.402484
O O2 0.647320 0.861067 0.478269
O O3 0.651821 0.820554 0.351865
O O4 0.652402 0.000000 0.390999
O O5 0.157990 0.842011 0.921389
O O6 0.120060 0.698745 0.842903
O O7 0.000000 0.759287 0.934094
O O8 0.155717 0.668250 0.968074
O O9 0.841501 0.500000 0.018981
O O10 0.858533 0.351237 0.098110
O O11 0.000000 0.401221 0.022224
O O12 0.100630 0.500000 0.552359
O O13 0.183705 0.352214 0.603032
O O14 0.000000 0.346108 0.566339
O O15 0.169067 0.830934 0.754946
O O16 0.354511 0.842883 0.727288
O O17 0.251712 0.000000 0.748739
O O18 0.500000 0.751966 0.675116
O O19 0.667513 0.667513 0.678548
O O20 0.500000 0.750303 0.288953
O O21 0.660308 0.660308 0.287698
O O22 0.649580 0.821845 0.225015
O O23 0.500000 0.101439 0.168936
O O24 0.654017 0.000000 0.185064
#
# Coordination Sequence:
#
# PCOD8306426 Si02
#       8
#     8   8   8   8   8   8   8   8
#     4   8  14  26  44  63  81 102 132 173 215 247
#     4   9  17  28  42  62  88 115 140 166 200 248
#     4   8  14  25  41  61  83 105 132 170 214 254
#     4   8  14  26  45  66  84 104 133 170 213 255
#     4   9  18  31  46  66  90 115 146 182 220 265
#     4  10  20  32  46  65  90 120 153 186 218 256
#     4  10  19  28  39  57  82 112 143 172 205 250
#     4   8  14  26  43  60  78 101 133 177 222 254
#
# _framework density 15.925542
#
# number of rings (size 3 to 8) (size 9 to 14) (size 15 to 20)
#    0.000    3.250    0.000    2.250    0.000    4.250 
#    0.000    2.500    0.000    0.000    0.000    3.500 
#    0.000    4.250    0.000    9.500    0.000    0.750 
#
# Total GULP energy -793083.050840 kJ/mol
# GULP energy per Si atom -12391.922669 kJ/mol
# Density = 1.588930 g / cm^3
# Si number density = 15.925542 Si / 1000 Ang^3
#
#
#
# Elastic Constant Matrix: (Units=GPa)
#
#
# Indices 1 2 3 4 5 6 
#
# 1 65.5164 34.9618 47.3257 0.0000 0.0000 -0.0001
# 2 34.9618 65.5164 47.3257 0.0000 0.0000 0.0001
# 3 47.3257 47.3257 120.1958 0.0000 0.0000 0.0000
# 4 0.0000 0.0000 0.0000 18.1895 0.0000 0.0000
# 5 0.0000 0.0000 0.0000 0.0000 18.1895 0.0000
# 6 -0.0001 0.0001 0.0000 0.0000 0.0000 13.5584
#
#
#
# Elastic Compliance Matrix: (Units=1/GPa)
#
#
# Indices 1 2 3 4 5 6 
#
# 1 0.024274 -0.008454 -0.006229 0.000000 0.000000 0.000000
# 2 -0.008454 0.024274 -0.006229 0.000000 0.000000 0.000000
# 3 -0.006229 -0.006229 0.013225 0.000000 0.000000 0.000000
# 4 0.000000 0.000000 0.000000 0.054977 0.000000 0.000000
# 5 0.000000 0.000000 0.000000 0.000000 0.054977 0.000000
# 6 0.000000 0.000000 0.000000 0.000000 0.000000 0.073755
#
#
# Mechanical properties :
#
#
# Convention : Reuss Voigt Hill
#
# Bulk Modulus (GPa) = 50.12708 56.71721 53.42214
# Shear Modulus (GPa) = 17.00936 18.09518 17.55227
#
# Velocity S-wave (km/s) = 3.27166 3.37447 3.32346
# Velocity P-wave (km/s) = 6.76874 7.13260 6.95305
#
# Compressibility (1/GPa) = 0.01994930
#
# Stress axis : x y z
#
# Youngs Moduli (GPa) = 41.19590 41.19590 75.61449
#
# Poissons Ratio (x) = 0.34827 0.47100
# Poissons Ratio (y) = 0.34827 0.47100
# Poissons Ratio (z) = 0.25661 0.25661
#
# Static dielectric constant tensor:
#      x y z
#    x 2.800650 0.000000 0.000000 
#    y 0.000000 2.800650 0.000000 
#    z 0.000000 0.000000 3.463230 
# 
# 
# High freq. dielectric constant tensor:
#      x y z
#    x 1.580510 0.000000 0.000000 
#    y 0.000000 1.580510 0.000000 
#    z 0.000000 0.000000 1.631320 
# 
# From -- ./inp_files/2071.got.cif
#   From: 2010.03.12/outbox.cif.g09.slc.cpg/sg99_cif.got.tgz:2071.got - 2010.04.08 21:11:30.
