data_PCOD8306172
_publ_section_title
;
Structure prediction by ZEFSAII (Michael W. Deem and Ramdas Pophale) SiO2 
 PCOD8306172
Probable space group: I 4 2 2 
;
_chemical_formula_sum "Si O2"
_cell_formula_units_Z 112
_cell_length_a 14.645478
_cell_length_b 14.645478
_cell_length_c 25.227306
_cell_angle_alpha 90.000000
_cell_angle_beta 90.000000
_cell_angle_gamma 90.000000
_cell_volume 5411.005516
_symmetry_space_group_name_H-M "I 4 2 2 "
_symmetry_group_IT_number 97
_symmetry_cell_setting 'tetragonal'
loop_
_space_group_symop_operation_xyz
x,y,z
-y,x,z
-x,-y,z
y,-x,z
x,-y,-z
-x,y,-z
y,x,-z
-y,-x,-z
1/2+x,1/2+y,1/2+z
1/2-y,1/2+x,1/2+z
1/2-x,1/2-y,1/2+z
1/2+y,1/2-x,1/2+z
1/2+x,1/2-y,1/2-z
1/2-x,1/2+y,1/2-z
1/2+y,1/2+x,1/2-z
1/2-y,1/2-x,1/2-z
loop_
_atom_site_type_symbol
_atom_site_label
_atom_site_fract_x
_atom_site_fract_y
_atom_site_fract_z
Si Si1 0.926404 0.427854 0.132876
Si Si2 0.518664 0.236998 0.938212
Si Si3 0.694615 0.661842 0.439457
Si Si4 0.802264 0.830688 0.599732
Si Si5 0.766660 0.639581 0.796220
Si Si6 0.148076 0.022003 0.229150
Si Si7 0.021060 0.764317 0.114492
O O1 0.864157 0.468432 0.085774
O O2 0.862888 0.391401 0.179925
O O3 0.989278 0.344474 0.113181
O O4 0.000000 0.500000 0.154301
O O5 0.609811 0.296824 0.932552
O O6 0.439554 0.291367 0.906322
O O7 0.500000 0.225864 0.000000
O O8 0.668062 0.668062 0.500000
O O9 0.790383 0.710079 0.426432
O O10 0.620974 0.716423 0.406480
O O11 0.693407 0.556146 0.423005
O O12 0.812443 0.800114 0.661053
O O13 0.786192 0.713809 0.750000
O O14 0.723117 0.545959 0.773451
O O15 0.193116 0.017146 0.172173
O O16 0.075590 0.103049 0.237194
#
# Coordination Sequence:
#
# PCOD8306172 Si02
#       7
#    16  16  16  16  16  16  16
#     4  11  25  45  65 100 138 176 233 282 334 418
#     4  11  23  44  70  99 137 182 227 283 348 403
#     4  12  24  43  69 101 140 181 223 278 344 408
#     4  11  25  43  68 100 139 177 232 287 338 413
#     4  11  23  45  66  94 135 174 227 280 342 404
#     4  11  24  43  69  93 130 175 221 275 346 404
#     4  12  23  45  68 100 137 178 224 282 337 413
#
# _framework density 20.698557000000001
#
# number of rings (size 3 to 8) (size 9 to 14) (size 15 to 20)
#    0.000    0.714    5.714    2.571    4.000    1.143 
#    2.571    1.429    0.000    0.000    0.000    0.000 
#    0.000    0.000    0.000    0.000    0.000    0.000 
#
# Total GULP energy -694504.853007 kJ/mol
# GULP energy per Si atom -12401.872375 kJ/mol
# Density = 2.065145 g / cm^3
# Si number density = 20.698557 Si / 1000 Ang^3
#
#
#
# Elastic Constant Matrix: (Units=GPa)
#
#
# Indices 1 2 3 4 5 6 
#
# 1 81.6249 26.8323 28.0230 0.0000 0.0000 0.0000
# 2 26.8323 81.6244 28.0228 0.0000 0.0000 0.0000
# 3 28.0230 28.0228 132.1444 0.0000 0.0000 0.0000
# 4 0.0000 0.0000 0.0000 21.6301 0.0000 0.0000
# 5 0.0000 0.0000 0.0000 0.0000 21.6303 0.0000
# 6 0.0000 0.0000 0.0000 0.0000 0.0000 40.7297
#
#
#
# Elastic Compliance Matrix: (Units=1/GPa)
#
#
# Indices 1 2 3 4 5 6 
#
# 1 0.014303 -0.003948 -0.002196 0.000000 0.000000 0.000000
# 2 -0.003948 0.014303 -0.002196 0.000000 0.000000 0.000000
# 3 -0.002196 -0.002196 0.008499 0.000000 0.000000 0.000000
# 4 0.000000 0.000000 0.000000 0.046232 0.000000 0.000000
# 5 0.000000 0.000000 0.000000 0.000000 0.046231 0.000000
# 6 0.000000 0.000000 0.000000 0.000000 0.000000 0.024552
#
#
# Mechanical properties :
#
#
# Convention : Reuss Voigt Hill
#
# Bulk Modulus (GPa) = 48.95916 51.23887 50.09902
# Shear Modulus (GPa) = 28.15191 30.96572 29.55881
#
# Velocity S-wave (km/s) = 3.69194 3.87205 3.78307
# Velocity P-wave (km/s) = 6.47137 6.69320 6.58322
#
# Compressibility (1/GPa) = 0.02042519
#
# Stress axis : x y z
#
# Youngs Moduli (GPa) = 69.91625 69.91586 117.66339
#
# Poissons Ratio (x) = 0.27602 0.25838
# Poissons Ratio (y) = 0.27602 0.25838
# Poissons Ratio (z) = 0.15353 0.15353
#
# Static dielectric constant tensor:
#      x y z
#    x 3.861210 0.000000 0.000000 
#    y 0.000000 3.861200 0.000000 
#    z 0.000000 0.000000 3.715760 
# 
# 
# High freq. dielectric constant tensor:
#      x y z
#    x 1.816810 0.000000 0.000000 
#    y 0.000000 1.816810 0.000000 
#    z 0.000000 0.000000 1.816030 
# 
# From -- ./inp_files/7705.got.cif
#   From: 2010.03.12/outbox.cif.g09.slc.cpg/sg97_4_cif.got.tgz:7705.got - 2010.04.08 20:59:42.
