data_PCOD8306997
_publ_section_title
;
Structure prediction by ZEFSAII (Michael W. Deem and Ramdas Pophale) SiO2 
 PCOD8306997
Probable space group: P 4 C C
;
_chemical_formula_sum "Si O2"
_cell_formula_units_Z 24
_cell_length_a 10.717624
_cell_length_b 10.717624
_cell_length_c 9.171357
_cell_angle_alpha 90.000000
_cell_angle_beta 90.000000
_cell_angle_gamma 90.000000
_cell_volume 1053.490522
_symmetry_space_group_name_H-M "P 4 C C"
_symmetry_group_IT_number 103
_symmetry_cell_setting 'tetragonal'
loop_
_space_group_symop_operation_xyz
x,y,z
-y,x,z
-x,-y,z
y,-x,z
-x,y,1/2+z
x,-y,1/2+z
-y,-x,1/2+z
y,x,1/2+z
loop_
_atom_site_type_symbol
_atom_site_label
_atom_site_fract_x
_atom_site_fract_y
_atom_site_fract_z
Si Si1 0.710905 0.117638 0.941370
Si Si2 0.431446 0.305307 0.603537
Si Si3 0.117638 0.289095 0.265703
O O1 0.828700 0.171301 0.853537
O O2 0.655242 0.000000 0.853537
O O3 0.602530 0.223249 0.959826
O O4 0.755412 0.075525 0.103537
O O5 0.574687 0.341485 0.603537
O O6 0.397470 0.223249 0.747247
#
# Coordination Sequence:
#
# PCOD8306997 Si02
#       3
#     8   8   8
#     4  10  22  42  72 104 143 187 238 297 361 428
#     4   9  22  44  74 107 148 191 235 293 368 442
#     4  10  22  42  72 104 143 187 238 297 361 428
#
# _framework density 22.781412
#
# number of rings (size 3 to 8) (size 9 to 14) (size 15 to 20)
#    2.000    0.333    0.000    2.000    0.000    3.333 
#    0.000   16.667    0.000    0.000    0.000    0.000 
#    0.000    0.000    0.000    0.000    0.000    0.000 
#
# Total GULP energy -297315.269252 kJ/mol
# GULP energy per Si atom -12388.136219 kJ/mol
# Density = 2.272956 g / cm^3
# Si number density = 22.781412 Si / 1000 Ang^3
#
#
#
# Elastic Constant Matrix: (Units=GPa)
#
#
# Indices 1 2 3 4 5 6 
#
# 1 154.7967 88.7930 69.6010 0.0000 0.0000 0.0000
# 2 88.7930 154.7967 69.6010 0.0000 0.0000 0.0000
# 3 69.6010 69.6010 164.5162 0.0000 0.0000 0.0000
# 4 0.0000 0.0000 0.0000 36.7975 0.0000 0.0000
# 5 0.0000 0.0000 0.0000 0.0000 36.7975 0.0000
# 6 0.0000 0.0000 0.0000 0.0000 0.0000 28.4098
#
#
#
# Elastic Compliance Matrix: (Units=1/GPa)
#
#
# Indices 1 2 3 4 5 6 
#
# 1 0.010282 -0.004868 -0.002291 0.000000 0.000000 0.000000
# 2 -0.004868 0.010282 -0.002291 0.000000 0.000000 0.000000
# 3 -0.002291 -0.002291 0.008017 0.000000 0.000000 0.000000
# 4 0.000000 0.000000 0.000000 0.027176 0.000000 0.000000
# 5 0.000000 0.000000 0.000000 0.000000 0.027176 0.000000
# 6 0.000000 0.000000 0.000000 0.000000 0.000000 0.035199
#
#
# Mechanical properties :
#
#
# Convention : Reuss Voigt Hill
#
# Bulk Modulus (GPa) = 103.27665 103.34442 103.31053
# Shear Modulus (GPa) = 35.64847 36.80858 36.22853
#
# Velocity S-wave (km/s) = 3.96005 4.02397 3.99214
# Velocity P-wave (km/s) = 8.14503 8.18852 8.16680
#
# Compressibility (1/GPa) = 0.00968273
#
# Stress axis : x y z
#
# Youngs Moduli (GPa) = 97.25315 97.25315 124.74188
#
# Poissons Ratio (x) = 0.47345 0.28573
# Poissons Ratio (y) = 0.47345 0.28573
# Poissons Ratio (z) = 0.22277 0.22277
#
# Static dielectric constant tensor:
#      x y z
#    x 3.787710 0.000000 0.000000 
#    y 0.000000 3.787710 0.000000 
#    z 0.000000 0.000000 4.062450 
# 
# 
# High freq. dielectric constant tensor:
#      x y z
#    x 1.884020 0.000000 0.000000 
#    y 0.000000 1.884020 0.000000 
#    z 0.000000 0.000000 1.904720 
# 
# From -- ./inp_files/90.got.cif
#   From: 2010.03.12/outbox.cif.g09.slc.cpg/sg103_cif.got.tgz:90.got - 2010.04.14 01:42:52.
