data_PCOD8306390
_publ_section_title
;
Structure prediction by ZEFSAII (Michael W. Deem and Ramdas Pophale) SiO2 
 PCOD8306390
Probable space group: I 41 2 2
;
_chemical_formula_sum "Si O2"
_cell_formula_units_Z 52
_cell_length_a 14.836727
_cell_length_b 14.836727
_cell_length_c 10.754699
_cell_angle_alpha 90.000000
_cell_angle_beta 90.000000
_cell_angle_gamma 90.000000
_cell_volume 2367.415415
_symmetry_space_group_name_H-M "I 41 2 2"
_symmetry_group_IT_number 98
_symmetry_cell_setting 'tetragonal'
loop_
_space_group_symop_operation_xyz
x,y,z
-y,1/2+x,1/4+z
-x,-y,z
y,1/2-x,1/4+z
x,1/2-y,1/4-z
-x,1/2+y,1/4-z
y,x,-z
-y,-x,-z
1/2+x,1/2+y,1/2+z
1/2-y,x,3/4+z
1/2-x,1/2-y,1/2+z
1/2+y,-x,3/4+z
1/2+x,-y,3/4-z
1/2-x,y,3/4-z
1/2+y,1/2+x,1/2-z
1/2-y,1/2-x,1/2-z
loop_
_atom_site_type_symbol
_atom_site_label
_atom_site_fract_x
_atom_site_fract_y
_atom_site_fract_z
Si Si1 0.294382 0.472723 0.240571
Si Si2 0.644408 0.538739 0.692543
Si Si3 0.849333 0.372392 0.886658
Si Si4 0.500000 0.000000 0.750000
O O1 0.250000 0.464878 0.375000
O O2 0.383015 0.411577 0.241285
O O3 0.234198 0.429388 0.130074
O O4 0.313555 0.578410 0.213527
O O5 0.668614 0.467574 0.798028
O O6 0.587352 0.491520 0.584597
O O7 0.750000 0.324785 0.875000
O O8 0.889742 0.389742 0.750000
#
# Coordination Sequence:
#
# PCOD8306390 Si02
#       4
#    16  16  16   4
#     4  12  24  46  76 104 146 188 243 295 355 434
#     4  12  24  45  74 105 142 197 236 294 362 429
#     4  12  26  47  71 106 141 186 238 296 371 422
#     4  12  20  44  74 100 136 192 232 276 374 404
#
# _framework density 21.964883
#
# number of rings (size 3 to 8) (size 9 to 14) (size 15 to 20)
#    0.000    0.000    9.231    0.000    0.000    3.692 
#    2.769    4.615    0.000    0.000    0.000    0.000 
#    0.000    0.000    0.000    0.000    0.000    0.000 
#
# Total GULP energy -322357.088822 kJ/mol
# GULP energy per Si atom -12398.349570 kJ/mol
# Density = 2.191489 g / cm^3
# Si number density = 21.964883 Si / 1000 Ang^3
#
#
#
# Elastic Constant Matrix: (Units=GPa)
#
#
# Indices 1 2 3 4 5 6 
#
# 1 90.6434 44.3772 26.9540 0.0000 0.0000 0.0000
# 2 44.3772 90.6434 26.9540 0.0000 0.0000 0.0000
# 3 26.9540 26.9540 125.6634 0.0000 0.0000 0.0000
# 4 0.0000 0.0000 0.0000 -60.9577 0.0000 0.0000
# 5 0.0000 0.0000 0.0000 0.0000 -60.9577 0.0000
# 6 0.0000 0.0000 0.0000 0.0000 0.0000 22.2193
#
#
#
# Elastic Compliance Matrix: (Units=1/GPa)
#
#
# Indices 1 2 3 4 5 6 
#
# 1 0.014857 -0.006757 -0.001737 0.000000 0.000000 0.000000
# 2 -0.006757 0.014857 -0.001737 0.000000 0.000000 0.000000
# 3 -0.001737 -0.001737 0.008703 0.000000 0.000000 0.000000
# 4 0.000000 0.000000 0.000000 -0.016405 0.000000 0.000000
# 5 0.000000 0.000000 0.000000 0.000000 -0.016405 0.000000
# 6 0.000000 0.000000 0.000000 0.000000 0.000000 0.045006
#
#
# Mechanical properties :
#
#
# Convention : Reuss Voigt Hill
#
# Bulk Modulus (GPa) = 55.69969 55.94674 55.82322
# Shear Modulus (GPa) = 64.88327 -6.02821 29.42753
#
# Velocity S-wave (km/s) = 5.44093 -1.65844 3.66424
# Velocity P-wave (km/s) = 8.05513 4.67537 6.58575
#
# Compressibility (1/GPa) = 0.01795342
#
# Stress axis : x y z
#
# Youngs Moduli (GPa) = 67.30831 67.30831 114.90182
#
# Poissons Ratio (x) = 0.45481 0.19963
# Poissons Ratio (y) = 0.45481 0.19963
# Poissons Ratio (z) = 0.11694 0.11694
#
# Static dielectric constant tensor:
#      x y z
#    x 4.559540 0.000000 0.000000 
#    y 0.000000 4.559540 0.000000 
#    z 0.000000 0.000000 4.279620 
# 
# 
# High freq. dielectric constant tensor:
#      x y z
#    x 1.857700 0.000000 0.000000 
#    y 0.000000 1.857700 0.000000 
#    z 0.000000 0.000000 1.886560 
# 
# From -- ./inp_files/4683.got.cif
#   From: 2010.03.12/outbox.cif.g09.slc.cpg/sg98_3_cif.got.tgz:4683.got - 2010.04.08 21:04:41.
