data_PCOD8306156
_publ_section_title
;
Structure prediction by ZEFSAII (Michael W. Deem and Ramdas Pophale) SiO2 
 PCOD8306156
Probable space group: I 4 2 2 
;
_chemical_formula_sum "Si O2"
_cell_formula_units_Z 80
_cell_length_a 11.633467
_cell_length_b 11.633467
_cell_length_c 30.896960
_cell_angle_alpha 90.000000
_cell_angle_beta 90.000000
_cell_angle_gamma 90.000000
_cell_volume 4181.519006
_symmetry_space_group_name_H-M "I 4 2 2 "
_symmetry_group_IT_number 97
_symmetry_cell_setting 'tetragonal'
loop_
_space_group_symop_operation_xyz
x,y,z
-y,x,z
-x,-y,z
y,-x,z
x,-y,-z
-x,y,-z
y,x,-z
-y,-x,-z
1/2+x,1/2+y,1/2+z
1/2-y,1/2+x,1/2+z
1/2-x,1/2-y,1/2+z
1/2+y,1/2-x,1/2+z
1/2+x,1/2-y,1/2-z
1/2-x,1/2+y,1/2-z
1/2+y,1/2+x,1/2-z
1/2-y,1/2-x,1/2-z
loop_
_atom_site_type_symbol
_atom_site_label
_atom_site_fract_x
_atom_site_fract_y
_atom_site_fract_z
Si Si1 0.887400 0.428425 0.340129
Si Si2 0.819153 0.040208 0.776961
Si Si3 0.819880 0.955333 0.324621
Si Si4 0.997518 0.635983 0.932333
Si Si5 0.635331 0.182750 0.002413
O O1 0.798649 0.433492 0.301007
O O2 0.925084 0.296911 0.349878
O O3 0.823970 0.479888 0.382787
O O4 0.000000 0.500000 0.326948
O O5 0.794499 0.047890 0.726256
O O6 0.913961 0.135253 0.789760
O O7 0.917291 0.862765 0.337602
O O8 0.000000 0.500000 0.932731
O O9 0.118731 0.675258 0.953189
O O10 0.893391 0.679724 0.962154
O O11 0.500000 0.202735 0.000000
O O12 0.693537 0.306464 0.000000
#
# Coordination Sequence:
#
# PCOD8306156 Si02
#       5
#    16  16  16  16  16
#     4  11  22  34  56  85 108 144 195 243 281 347
#     4   9  20  37  54  75 110 152 190 238 293 339
#     4   9  20  39  56  75 112 155 189 234 298 349
#     4   8  18  36  52  74 109 145 176 218 270 322
#     4   9  17  34  58  79 107 144 176 210 270 335
#
# _framework density 19.131802
#
# number of rings (size 3 to 8) (size 9 to 14) (size 15 to 20)
#    0.000    2.800    0.000    3.000    2.800    3.400 
#    7.200    0.000    0.000    4.800    0.000    0.000 
#    0.000    0.000    0.000    0.000    0.000    0.000 
#
# Total GULP energy -495845.200773 kJ/mol
# GULP energy per Si atom -12396.130019 kJ/mol
# Density = 1.908826 g / cm^3
# Si number density = 19.131802 Si / 1000 Ang^3
#
#
#
# Elastic Constant Matrix: (Units=GPa)
#
#
# Indices 1 2 3 4 5 6 
#
# 1 93.3939 43.7510 21.6114 0.0000 0.0000 0.0000
# 2 43.7510 93.3919 21.6111 0.0000 0.0000 0.0000
# 3 21.6114 21.6111 54.1100 0.0000 0.0000 0.0000
# 4 0.0000 0.0000 0.0000 18.1038 0.0000 0.0000
# 5 0.0000 0.0000 0.0000 0.0000 18.1033 0.0000
# 6 0.0000 0.0000 0.0000 0.0000 0.0000 19.0537
#
#
#
# Elastic Compliance Matrix: (Units=1/GPa)
#
#
# Indices 1 2 3 4 5 6 
#
# 1 0.014243 -0.005901 -0.003332 0.000000 0.000000 0.000000
# 2 -0.005901 0.014243 -0.003332 0.000000 0.000000 0.000000
# 3 -0.003332 -0.003332 0.021142 0.000000 0.000000 0.000000
# 4 0.000000 0.000000 0.000000 0.055237 0.000000 0.000000
# 5 0.000000 0.000000 0.000000 0.000000 0.055239 0.000000
# 6 0.000000 0.000000 0.000000 0.000000 0.000000 0.052483
#
#
# Mechanical properties :
#
#
# Convention : Reuss Voigt Hill
#
# Bulk Modulus (GPa) = 40.81807 46.09364 43.45586
# Shear Modulus (GPa) = 20.33495 21.31365 20.82430
#
# Velocity S-wave (km/s) = 3.26373 3.34135 3.30277
# Velocity P-wave (km/s) = 5.96524 6.24749 6.10800
#
# Compressibility (1/GPa) = 0.02449895
#
# Stress axis : x y z
#
# Youngs Moduli (GPa) = 70.21092 70.20941 47.29891
#
# Poissons Ratio (x) = 0.41433 0.15758
# Poissons Ratio (y) = 0.41434 0.15758
# Poissons Ratio (z) = 0.23391 0.23391
#
# Static dielectric constant tensor:
#      x y z
#    x 3.400470 0.000000 0.000000 
#    y 0.000000 3.400470 0.000000 
#    z 0.000000 0.000000 4.288910 
# 
# 
# High freq. dielectric constant tensor:
#      x y z
#    x 1.735070 0.000000 0.000000 
#    y 0.000000 1.735070 0.000000 
#    z 0.000000 0.000000 1.734670 
# 
# From -- ./inp_files/7929.got.cif
#   From: 2010.03.12/outbox.cif.g09.slc.cpg/sg97_4_cif.got.tgz:7929.got - 2010.04.08 20:59:42.
