data_PCOD8306442
_publ_section_title
;
Structure prediction by ZEFSAII (Michael W. Deem and Ramdas Pophale) SiO2 
 PCOD8306442
Probable space group: P 4 M M
;
_chemical_formula_sum "Si O2"
_cell_formula_units_Z 64
_cell_length_a 13.822958
_cell_length_b 13.822958
_cell_length_c 20.877768
_cell_angle_alpha 90.000000
_cell_angle_beta 90.000000
_cell_angle_gamma 90.000000
_cell_volume 3989.202148
_symmetry_space_group_name_H-M "P 4 M M"
_symmetry_group_IT_number 99
_symmetry_cell_setting 'tetragonal'
loop_
_space_group_symop_operation_xyz
x,y,z
-y,x,z
-x,-y,z
y,-x,z
-x,y,z
x,-y,z
-y,-x,z
y,x,z
loop_
_atom_site_type_symbol
_atom_site_label
_atom_site_fract_x
_atom_site_fract_y
_atom_site_fract_z
Si Si1 0.385182 0.892654 0.084790
Si Si2 0.771032 0.614305 0.964105
Si Si3 0.732018 0.114356 0.344234
Si Si4 0.112837 0.271043 0.584061
Si Si5 0.114020 0.274436 0.862133
Si Si6 0.392783 0.885298 0.464738
Si Si7 0.114828 0.392644 0.225403
Si Si8 0.891101 0.263389 0.722576
O O1 0.500000 0.900541 0.084575
O O2 0.351856 0.855254 0.155143
O O3 0.342050 0.000000 0.070605
O O4 0.350656 0.817399 0.031160
O O5 0.751203 0.500000 0.961843
O O6 0.669230 0.669230 0.954779
O O7 0.846808 0.642419 0.908776
O O8 0.837033 0.162968 0.347457
O O9 0.670054 0.150273 0.404825
O O10 0.678322 0.152515 0.280515
O O11 0.748090 0.000000 0.344138
O O12 0.171226 0.171226 0.576772
O O13 0.150846 0.346515 0.531377
O O14 0.130604 0.319459 0.655260
O O15 0.000000 0.246824 0.572820
O O16 0.174521 0.174521 0.872358
O O17 0.131330 0.318102 0.789778
O O18 0.000000 0.254775 0.875190
O O19 0.500000 0.840207 0.459308
O O20 0.399504 0.000000 0.463742
O O21 0.158727 0.500000 0.236759
O O22 0.000000 0.400083 0.228821
O O23 0.836576 0.163425 0.721866
O O24 0.000000 0.229170 0.722888
#
# Coordination Sequence:
#
# PCOD8306442 Si02
#       8
#     8   8   8   8   8   8   8   8
#     4   8  14  26  45  67  88 109 136 173 215 256
#     4  10  20  32  46  64  86 114 148 186 228 271
#     4  10  19  29  42  61  85 113 142 170 203 246
#     4   9  16  26  41  62  89 118 143 167 198 241
#     4   9  17  29  45  66  91 118 148 181 217 258
#     4   9  17  29  43  57  76 104 138 177 215 244
#     4   8  14  26  44  65  88 112 139 173 208 241
#     4   8  14  24  38  58  86 117 145 172 201 238
#
# _framework density 16.043308
#
# number of rings (size 3 to 8) (size 9 to 14) (size 15 to 20)
#    0.000    3.125    0.000    1.875    0.000    3.375 
#    0.000    3.125    0.000    4.500    0.000    0.000 
#    0.000   14.750    0.000    0.000    0.000    0.000 
#
# Total GULP energy -792846.114907 kJ/mol
# GULP energy per Si atom -12388.220545 kJ/mol
# Density = 1.600679 g / cm^3
# Si number density = 16.043308 Si / 1000 Ang^3
#
#
#
# Elastic Constant Matrix: (Units=GPa)
#
#
# Indices 1 2 3 4 5 6 
#
# 1 61.6426 31.0450 44.6133 0.0000 0.0000 -0.0002
# 2 31.0450 61.6426 44.6133 0.0000 0.0000 0.0002
# 3 44.6133 44.6133 149.2688 0.0000 0.0000 0.0000
# 4 0.0000 0.0000 0.0000 20.7138 0.0000 0.0000
# 5 0.0000 0.0000 0.0000 0.0000 20.7138 0.0000
# 6 -0.0002 0.0002 0.0000 0.0000 0.0000 11.1070
#
#
#
# Elastic Compliance Matrix: (Units=1/GPa)
#
#
# Indices 1 2 3 4 5 6 
#
# 1 0.023915 -0.008768 -0.004527 0.000000 0.000000 0.000001
# 2 -0.008768 0.023915 -0.004527 0.000000 0.000000 -0.000001
# 3 -0.004527 -0.004527 0.009405 0.000000 0.000000 0.000000
# 4 0.000000 0.000000 0.000000 0.048277 0.000000 0.000000
# 5 0.000000 0.000000 0.000000 0.000000 0.048277 0.000000
# 6 0.000001 -0.000001 0.000000 0.000000 0.000000 0.090034
#
#
# Mechanical properties :
#
#
# Convention : Reuss Voigt Hill
#
# Bulk Modulus (GPa) = 46.31564 57.01079 51.66322
# Shear Modulus (GPa) = 17.44206 20.65905 19.05055
#
# Velocity S-wave (km/s) = 3.30083 3.59235 3.44967
# Velocity P-wave (km/s) = 6.59235 7.26769 6.93824
#
# Compressibility (1/GPa) = 0.02159098
#
# Stress axis : x y z
#
# Youngs Moduli (GPa) = 41.81529 41.81529 106.32139
#
# Poissons Ratio (x) = 0.36662 0.48133
# Poissons Ratio (y) = 0.36662 0.48133
# Poissons Ratio (z) = 0.18930 0.18930
#
# Static dielectric constant tensor:
#      x y z
#    x 2.775250 0.000000 0.000000 
#    y 0.000000 2.775250 0.000000 
#    z 0.000000 0.000000 3.665880 
# 
# 
# High freq. dielectric constant tensor:
#      x y z
#    x 1.582010 0.000000 0.000000 
#    y 0.000000 1.582010 0.000000 
#    z 0.000000 0.000000 1.644960 
# 
# From -- ./inp_files/2266.got.cif
#   From: 2010.03.12/outbox.cif.g09.slc.cpg/sg99_cif.got.tgz:2266.got - 2010.04.08 21:11:30.
