data_PCOD8306687
_publ_section_title
;
Structure prediction by ZEFSAII (Michael W. Deem and Ramdas Pophale) SiO2 
 PCOD8306687
Probable space group: P 4 B M
;
_chemical_formula_sum "Si O2"
_cell_formula_units_Z 40
_cell_length_a 15.647039
_cell_length_b 15.647039
_cell_length_c 9.486455
_cell_angle_alpha 90.000000
_cell_angle_beta 90.000000
_cell_angle_gamma 90.000000
_cell_volume 2322.567160
_symmetry_space_group_name_H-M "P 4 B M"
_symmetry_group_IT_number 100
_symmetry_cell_setting 'tetragonal'
loop_
_space_group_symop_operation_xyz
x,y,z
-y,x,z
-x,-y,z
y,-x,z
1/2-x,1/2+y,z
1/2+x,1/2-y,z
1/2-y,1/2-x,z
1/2+y,1/2+x,z
loop_
_atom_site_type_symbol
_atom_site_label
_atom_site_fract_x
_atom_site_fract_y
_atom_site_fract_z
Si Si1 0.071446 0.428555 0.961160
Si Si2 0.571445 0.071445 0.269051
Si Si3 0.132286 0.043065 0.452998
Si Si4 0.061247 0.699839 0.947443
Si Si5 0.699839 0.938753 0.282766
Si Si6 0.132286 0.043065 0.777211
O O1 0.152833 0.474528 0.886495
O O2 0.000000 0.500000 0.981402
O O3 0.102144 0.397857 0.115105
O O4 0.525472 0.152833 0.343714
O O5 0.500000 0.000000 0.248809
O O6 0.209003 0.071864 0.353913
O O7 0.160215 0.051779 0.615104
O O8 0.053872 0.105806 0.419451
O O9 0.144264 0.644264 0.907918
O O10 0.071864 0.790996 0.876295
O O11 0.053848 0.710419 0.115104
O O12 0.644265 0.855736 0.322289
O O13 0.053872 0.105806 0.810758
#
# Coordination Sequence:
#
# PCOD8306687 Si02
#       6
#     4   4   8   8   8   8
#     4   7  12  26  47  69  97 129 153 184 237 290
#     4   7  12  26  47  69  97 129 153 184 237 290
#     4   9  19  36  53  68  94 134 172 204 243 289
#     4   9  17  31  52  77 102 128 161 201 246 295
#     4   9  17  31  52  77 102 128 161 201 246 295
#     4   9  19  36  53  68  94 134 172 204 243 289
#
# _framework density 17.222321000000001
#
# number of rings (size 3 to 8) (size 9 to 14) (size 15 to 20)
#    0.000    3.400    0.000    3.600    0.000    2.400 
#    3.600    3.000    0.000    3.600    0.000    0.000 
#    0.000    0.000    0.000    0.000    0.000    0.000 
#
# Total GULP energy -495525.210405 kJ/mol
# GULP energy per Si atom -12388.130260 kJ/mol
# Density = 1.718312 g / cm^3
# Si number density = 17.222321 Si / 1000 Ang^3
#
#
#
# Elastic Constant Matrix: (Units=GPa)
#
#
# Indices 1 2 3 4 5 6 
#
# 1 103.0780 47.5751 46.7845 0.0000 0.0000 0.0000
# 2 47.5751 103.0780 46.7845 0.0000 0.0000 0.0000
# 3 46.7845 46.7845 48.4105 0.0000 0.0000 0.0000
# 4 0.0000 0.0000 0.0000 25.1438 0.0000 0.0000
# 5 0.0000 0.0000 0.0000 0.0000 25.1438 0.0000
# 6 0.0000 0.0000 0.0000 0.0000 0.0000 15.3665
#
#
#
# Elastic Compliance Matrix: (Units=1/GPa)
#
#
# Indices 1 2 3 4 5 6 
#
# 1 0.017310 -0.000707 -0.016046 0.000000 0.000000 0.000000
# 2 -0.000707 0.017310 -0.016046 0.000000 0.000000 0.000000
# 3 -0.016046 -0.016046 0.051671 0.000000 0.000000 0.000000
# 4 0.000000 0.000000 0.000000 0.039771 0.000000 0.000000
# 5 0.000000 0.000000 0.000000 0.000000 0.039771 0.000000
# 6 0.000000 0.000000 0.000000 0.000000 0.000000 0.065077
#
#
# Mechanical properties :
#
#
# Convention : Reuss Voigt Hill
#
# Bulk Modulus (GPa) = 48.32290 59.65052 53.98671
# Shear Modulus (GPa) = 16.47951 20.69230 18.58591
#
# Velocity S-wave (km/s) = 3.09669 3.47000 3.28864
# Velocity P-wave (km/s) = 6.39571 7.12498 6.77017
#
# Compressibility (1/GPa) = 0.02069412
#
# Stress axis : x y z
#
# Youngs Moduli (GPa) = 57.76850 57.76850 19.35320
#
# Poissons Ratio (x) = 0.04082 0.31054
# Poissons Ratio (y) = 0.04082 0.31054
# Poissons Ratio (z) = 0.92696 0.92696
#
# Static dielectric constant tensor:
#      x y z
#    x 3.208140 0.000000 0.000000 
#    y 0.000000 3.208140 0.000000 
#    z 0.000000 0.000000 2.874190 
# 
# 
# High freq. dielectric constant tensor:
#      x y z
#    x 1.661650 0.000000 0.000000 
#    y 0.000000 1.661650 0.000000 
#    z 0.000000 0.000000 1.635080 
# 
# From -- ./inp_files/795.got.cif
#   From: 2010.03.12/outbox.cif.g09.slc.cpg/sg100_cif.got.tgz:795.got - 2010.04.14 01:37:57.
