data_PCOD8306345
_publ_section_title
;
Structure prediction by ZEFSAII (Michael W. Deem and Ramdas Pophale) SiO2 
 PCOD8306345
Probable space group: I 41 2 2
;
_chemical_formula_sum "Si O2"
_cell_formula_units_Z 72
_cell_length_a 11.227148
_cell_length_b 11.227148
_cell_length_c 27.137246
_cell_angle_alpha 90.000000
_cell_angle_beta 90.000000
_cell_angle_gamma 90.000000
_cell_volume 3420.618711
_symmetry_space_group_name_H-M "I 41 2 2"
_symmetry_group_IT_number 98
_symmetry_cell_setting 'tetragonal'
loop_
_space_group_symop_operation_xyz
x,y,z
-y,1/2+x,1/4+z
-x,-y,z
y,1/2-x,1/4+z
x,1/2-y,1/4-z
-x,1/2+y,1/4-z
y,x,-z
-y,-x,-z
1/2+x,1/2+y,1/2+z
1/2-y,x,3/4+z
1/2-x,1/2-y,1/2+z
1/2+y,-x,3/4+z
1/2+x,-y,3/4-z
1/2-x,y,3/4-z
1/2+y,1/2+x,1/2-z
1/2-y,1/2-x,1/2-z
loop_
_atom_site_type_symbol
_atom_site_label
_atom_site_fract_x
_atom_site_fract_y
_atom_site_fract_z
Si Si1 0.504252 0.140387 0.888684
Si Si2 0.753415 0.250000 0.625000
Si Si3 0.601215 0.720560 0.262562
Si Si4 0.184432 0.847038 0.275831
Si Si5 0.544666 0.703969 0.472686
O O1 0.643162 0.173792 0.897556
O O2 0.457384 0.181276 0.835627
O O3 0.500000 0.000000 0.895194
O O4 0.417335 0.202797 0.928766
O O5 0.839336 0.305922 0.584419
O O6 0.641716 0.858285 0.250000
O O7 0.483872 0.669349 0.236680
O O8 0.702476 0.644154 0.236926
O O9 0.305550 0.805550 0.250000
O O10 0.078707 0.759433 0.257226
O O11 0.578908 0.578908 0.500000
#
# Coordination Sequence:
#
# PCOD8306345 Si02
#       5
#    16   8  16  16  16
#     4  11  24  42  68  96 134 177 225 286 351 417
#     4  10  24  40  62 100 120 174 222 272 338 402
#     4  11  25  44  65  96 136 182 222 281 353 424
#     4  11  22  41  66  91 134 170 229 276 338 405
#     4  10  25  40  65 102 133 174 224 288 348 421
#
# _framework density 21.048822999999999
#
# number of rings (size 3 to 8) (size 9 to 14) (size 15 to 20)
#    0.000    1.333    2.222    2.000    6.222    7.556 
#    0.000    2.222    0.000    0.000    0.000    0.000 
#    0.000    0.000    0.000    0.000    0.000    0.000 
#
# Total GULP energy -446196.852338 kJ/mol
# GULP energy per Si atom -12394.357009 kJ/mol
# Density = 2.100091 g / cm^3
# Si number density = 21.048823 Si / 1000 Ang^3
#
#
#
# Elastic Constant Matrix: (Units=GPa)
#
#
# Indices 1 2 3 4 5 6 
#
# 1 74.9366 76.6156 56.4964 0.0000 0.0000 0.0000
# 2 76.6156 74.9331 56.4960 0.0000 0.0000 0.0000
# 3 56.4964 56.4960 126.8603 0.0000 0.0000 0.0000
# 4 0.0000 0.0000 0.0000 39.4240 0.0000 0.0000
# 5 0.0000 0.0000 0.0000 0.0000 39.4239 0.0000
# 6 0.0000 0.0000 0.0000 0.0000 0.0000 35.0955
#
#
#
# Elastic Compliance Matrix: (Units=1/GPa)
#
#
# Indices 1 2 3 4 5 6 
#
# 1 -0.292533 0.302421 -0.004403 0.000000 0.000000 0.000000
# 2 0.302421 -0.292552 -0.004396 0.000000 0.000000 0.000000
# 3 -0.004403 -0.004396 0.011801 0.000000 0.000000 0.000000
# 4 0.000000 0.000000 0.000000 0.025365 0.000000 0.000000
# 5 0.000000 0.000000 0.000000 0.000000 0.025365 0.000000
# 6 0.000000 0.000000 0.000000 0.000000 0.000000 0.028494
#
#
# Mechanical properties :
#
#
# Convention : Reuss Voigt Hill
#
# Bulk Modulus (GPa) = 71.62902 72.88291 72.25597
# Shear Modulus (GPa) = -4.64403 28.59681 11.97639
#
# Velocity S-wave (km/s) = -1.48698 3.68991 2.38792
# Velocity P-wave (km/s) = 5.58173 7.27013 6.48114
#
# Compressibility (1/GPa) = 0.01396082
#
# Stress axis : x y z
#
# Youngs Moduli (GPa) = -3.41841 -3.41819 84.73809
#
# Poissons Ratio (x) = 1.03373 0.37307
# Poissons Ratio (y) = 1.03380 0.37251
# Poissons Ratio (z) = -0.01505 -0.01503
#
# Static dielectric constant tensor:
#      x y z
#    x 3.662600 0.000000 0.000000 
#    y 0.000000 3.662670 0.000000 
#    z 0.000000 0.000000 3.942820 
# 
# 
# High freq. dielectric constant tensor:
#      x y z
#    x 1.827520 0.000000 0.000000 
#    y 0.000000 1.827520 0.000000 
#    z 0.000000 0.000000 1.834760 
# 
# From -- ./inp_files/11684.got.cif
#   From: 2010.03.12/outbox.cif.g09.slc.cpg/sg98_6_cif.got.tgz:11684.got - 2010.04.08 21:04:41.
