data_PCOD8306288
_publ_section_title
;
Structure prediction by ZEFSAII (Michael W. Deem and Ramdas Pophale) SiO2 
 PCOD8306288
Probable space group: I 41 2 2
;
_chemical_formula_sum "Si O2"
_cell_formula_units_Z 116
_cell_length_a 18.733302
_cell_length_b 18.733302
_cell_length_c 15.825453
_cell_angle_alpha 90.000000
_cell_angle_beta 90.000000
_cell_angle_gamma 90.000000
_cell_volume 5553.730730
_symmetry_space_group_name_H-M "I 41 2 2"
_symmetry_group_IT_number 98
_symmetry_cell_setting 'tetragonal'
loop_
_space_group_symop_operation_xyz
x,y,z
-y,1/2+x,1/4+z
-x,-y,z
y,1/2-x,1/4+z
x,1/2-y,1/4-z
-x,1/2+y,1/4-z
y,x,-z
-y,-x,-z
1/2+x,1/2+y,1/2+z
1/2-y,x,3/4+z
1/2-x,1/2-y,1/2+z
1/2+y,-x,3/4+z
1/2+x,-y,3/4-z
1/2-x,y,3/4-z
1/2+y,1/2+x,1/2-z
1/2-y,1/2-x,1/2-z
loop_
_atom_site_type_symbol
_atom_site_label
_atom_site_fract_x
_atom_site_fract_y
_atom_site_fract_z
Si Si1 0.349128 0.633577 0.693943
Si Si2 0.376691 0.352474 0.277537
Si Si3 0.215101 0.668250 0.600617
Si Si4 0.500000 0.500000 0.000000
Si Si5 0.745134 0.678728 0.578113
Si Si6 0.503442 0.415509 0.728958
Si Si7 0.507003 0.229154 0.029046
Si Si8 0.468799 0.855735 0.342746
O O1 0.298347 0.646649 0.613942
O O2 0.346387 0.705353 0.750857
O O3 0.429107 0.606969 0.669261
O O4 0.316961 0.574917 0.755890
O O5 0.367326 0.297903 0.354391
O O6 0.312192 0.361932 0.211293
O O7 0.394473 0.429822 0.317624
O O8 0.440627 0.323900 0.221022
O O9 0.198724 0.750000 0.625000
O O10 0.162351 0.616659 0.656333
O O11 0.494829 0.569835 0.943807
O O12 0.772391 0.750000 0.625000
O O13 0.693342 0.693342 0.500000
O O14 0.500000 0.500000 0.749872
O O15 0.507054 0.363319 0.810373
O O16 0.519523 0.250000 0.125000
O O17 0.493373 0.294312 0.963315
#
# Coordination Sequence:
#
# PCOD8306288 Si02
#       8
#    16  16  16   4  16  16  16  16
#     4  10  22  38  59  87 120 160 207 253 308 369
#     4  11  21  38  64  89 124 161 199 257 304 373
#     4  10  21  38  61  84 118 159 205 256 308 366
#     4  12  24  36  52  80 128 168 214 240 278 352
#     4   9  20  40  63  90 117 153 203 252 309 367
#     4  11  21  40  58  83 121 163 207 253 307 365
#     4  11  23  35  55  89 127 168 208 240 299 371
#     4  10  25  36  54  85 125 171 208 250 294 363
#
# _framework density 20.886859000000001
#
# number of rings (size 3 to 8) (size 9 to 14) (size 15 to 20)
#    0.000    1.655    2.069    2.069    9.655    0.000 
#    3.724    2.069    0.000    3.724    0.000    0.000 
#    0.000    0.000    0.000    0.000    0.000    0.000 
#
# Total GULP energy -718637.383045 kJ/mol
# GULP energy per Si atom -12390.299708 kJ/mol
# Density = 2.083932 g / cm^3
# Si number density = 20.886859 Si / 1000 Ang^3
#
#
#
# Elastic Constant Matrix: (Units=GPa)
#
#
# Indices 1 2 3 4 5 6 
#
# 1 112.3870 71.0343 24.7875 0.0000 0.0000 0.0000
# 2 71.0343 112.3870 24.7875 0.0000 0.0000 0.0000
# 3 24.7875 24.7875 48.5950 0.0000 0.0000 0.0000
# 4 0.0000 0.0000 0.0000 29.9092 0.0000 0.0000
# 5 0.0000 0.0000 0.0000 0.0000 29.9092 0.0000
# 6 0.0000 0.0000 0.0000 0.0000 0.0000 19.8754
#
#
#
# Elastic Compliance Matrix: (Units=1/GPa)
#
#
# Indices 1 2 3 4 5 6 
#
# 1 0.015253 -0.008929 -0.003226 0.000000 0.000000 0.000000
# 2 -0.008929 0.015253 -0.003226 0.000000 0.000000 0.000000
# 3 -0.003226 -0.003226 0.023869 0.000000 0.000000 0.000000
# 4 0.000000 0.000000 0.000000 0.033435 0.000000 0.000000
# 5 0.000000 0.000000 0.000000 0.000000 0.033435 0.000000
# 6 0.000000 0.000000 0.000000 0.000000 0.000000 0.050314
#
#
# Mechanical properties :
#
#
# Convention : Reuss Voigt Hill
#
# Bulk Modulus (GPa) = 42.34797 57.17640 49.76218
# Shear Modulus (GPa) = 23.78801 26.12272 24.95537
#
# Velocity S-wave (km/s) = 3.37842 3.54033 3.46032
# Velocity P-wave (km/s) = 5.96131 6.64422 6.31201
#
# Compressibility (1/GPa) = 0.02361388
#
# Stress axis : x y z
#
# Youngs Moduli (GPa) = 65.56095 65.56095 41.89539
#
# Poissons Ratio (x) = 0.58541 0.13514
# Poissons Ratio (y) = 0.58541 0.13514
# Poissons Ratio (z) = 0.21148 0.21148
#
# Static dielectric constant tensor:
#      x y z
#    x 3.831760 0.000000 0.000000 
#    y 0.000000 3.831760 0.000000 
#    z 0.000000 0.000000 3.540390 
# 
# 
# High freq. dielectric constant tensor:
#      x y z
#    x 1.824150 0.000000 0.000000 
#    y 0.000000 1.824150 0.000000 
#    z 0.000000 0.000000 1.787270 
# 
# From -- ./inp_files/7830.got.cif
#   From: 2010.03.12/outbox.cif.g09.slc.cpg/sg98_4_cif.got.tgz:7830.got - 2010.04.08 21:04:41.
