data_PCOD8306534
_publ_section_title
;
Structure prediction by ZEFSAII (Michael W. Deem and Ramdas Pophale) SiO2 
 PCOD8306534
Probable space group: P 4 M M
;
_chemical_formula_sum "Si O2"
_cell_formula_units_Z 64
_cell_length_a 13.367570
_cell_length_b 13.367570
_cell_length_c 20.459719
_cell_angle_alpha 90.000000
_cell_angle_beta 90.000000
_cell_angle_gamma 90.000000
_cell_volume 3655.986628
_symmetry_space_group_name_H-M "P 4 M M"
_symmetry_group_IT_number 99
_symmetry_cell_setting 'tetragonal'
loop_
_space_group_symop_operation_xyz
x,y,z
-y,x,z
-x,-y,z
y,-x,z
-x,y,z
x,-y,z
-y,-x,z
y,x,z
loop_
_atom_site_type_symbol
_atom_site_label
_atom_site_fract_x
_atom_site_fract_y
_atom_site_fract_z
Si Si1 0.781688 0.383079 0.453110
Si Si2 0.223113 0.384509 0.685482
Si Si3 0.776245 0.386135 0.834658
Si Si4 0.725583 0.115698 0.940592
Si Si5 0.280276 0.116948 0.572858
Si Si6 0.277218 0.117948 0.337408
Si Si7 0.388285 0.881287 0.066173
Si Si8 0.611456 0.118497 0.209828
O O1 0.755674 0.500000 0.454755
O O2 0.677605 0.322396 0.450489
O O3 0.845218 0.354248 0.516623
O O4 0.850149 0.359538 0.390381
O O5 0.239454 0.500000 0.666803
O O6 0.328601 0.328601 0.672803
O O7 0.187776 0.371461 0.760178
O O8 0.136742 0.335211 0.641653
O O9 0.747452 0.500000 0.848700
O O10 0.677633 0.322368 0.850538
O O11 0.866241 0.352904 0.882006
O O12 0.828808 0.171193 0.924924
O O13 0.750793 0.000000 0.945765
O O14 0.681922 0.159776 0.008594
O O15 0.174442 0.174442 0.568890
O O16 0.258065 0.000000 0.564893
O O17 0.171955 0.171955 0.352495
O O18 0.315120 0.155933 0.266615
O O19 0.258598 0.000000 0.340495
O O20 0.500000 0.838083 0.056496
O O21 0.347647 0.848753 0.138057
O O22 0.392340 0.000000 0.060967
O O23 0.500000 0.162993 0.220570
O O24 0.604295 0.000000 0.213405
#
# Coordination Sequence:
#
# PCOD8306534 Si02
#       8
#     8   8   8   8   8   8   8   8
#     4  10  21  36  54  77 102 127 158 196 240 292
#     4   9  18  32  50  74 102 129 158 193 235 286
#     4   9  18  32  50  73  99 125 155 193 238 289
#     4  10  20  32  46  65  91 124 162 203 243 284
#     4  10  21  36  53  74 100 130 166 205 241 279
#     4  10  20  32  47  69  97 130 168 207 244 283
#     4   8  14  26  45  67  88 112 147 192 240 287
#     4   8  14  26  45  67  89 115 150 193 239 284
#
# _framework density 17.505534000000001
#
# number of rings (size 3 to 8) (size 9 to 14) (size 15 to 20)
#    0.000    2.750    0.000    2.250    0.000    4.750 
#    0.000    2.500    0.000    4.500    0.000    7.000 
#    0.000    0.000    0.000   23.250    0.000    1.375 
#
# Total GULP energy -793430.750333 kJ/mol
# GULP energy per Si atom -12397.355474 kJ/mol
# Density = 1.746569 g / cm^3
# Si number density = 17.505534 Si / 1000 Ang^3
#
#
#
# Elastic Constant Matrix: (Units=GPa)
#
#
# Indices 1 2 3 4 5 6 
#
# 1 92.2199 36.6269 43.5678 0.0000 0.0000 -0.0003
# 2 36.6269 92.2199 43.5678 0.0000 0.0000 0.0003
# 3 43.5678 43.5678 113.5012 0.0000 0.0000 0.0000
# 4 0.0000 0.0000 0.0000 25.2846 0.0000 0.0000
# 5 0.0000 0.0000 0.0000 0.0000 25.2846 0.0000
# 6 -0.0003 0.0003 0.0000 0.0000 0.0000 11.9400
#
#
#
# Elastic Compliance Matrix: (Units=1/GPa)
#
#
# Indices 1 2 3 4 5 6 
#
# 1 0.014235 -0.003753 -0.004024 0.000000 0.000000 0.000001
# 2 -0.003753 0.014235 -0.004024 0.000000 0.000000 -0.000001
# 3 -0.004024 -0.004024 0.011899 0.000000 0.000000 0.000000
# 4 0.000000 0.000000 0.000000 0.039550 0.000000 0.000000
# 5 0.000000 0.000000 0.000000 0.000000 0.039550 0.000000
# 6 0.000001 -0.000001 0.000000 0.000000 0.000000 0.083752
#
#
# Mechanical properties :
#
#
# Convention : Reuss Voigt Hill
#
# Bulk Modulus (GPa) = 59.63256 60.60734 60.11995
# Shear Modulus (GPa) = 21.51361 24.11375 22.81368
#
# Velocity S-wave (km/s) = 3.50946 3.71549 3.61394
# Velocity P-wave (km/s) = 7.11060 7.28721 7.19945
#
# Compressibility (1/GPa) = 0.01676936
#
# Stress axis : x y z
#
# Youngs Moduli (GPa) = 70.24919 70.24919 84.03752
#
# Poissons Ratio (x) = 0.26363 0.33814
# Poissons Ratio (y) = 0.26363 0.33814
# Poissons Ratio (z) = 0.28266 0.28266
#
# Static dielectric constant tensor:
#      x y z
#    x 3.032440 0.000000 0.000000 
#    y 0.000000 3.032440 0.000000 
#    z 0.000000 0.000000 3.635810 
# 
# 
# High freq. dielectric constant tensor:
#      x y z
#    x 1.657290 0.000000 0.000000 
#    y 0.000000 1.657290 0.000000 
#    z 0.000000 0.000000 1.697650 
# 
# From -- ./inp_files/2250.got.cif
#   From: 2010.03.12/outbox.cif.g09.slc.cpg/sg99_cif.got.tgz:2250.got - 2010.04.08 21:11:30.
