data_PCOD8306922
_publ_section_title
;
Structure prediction by ZEFSAII (Michael W. Deem and Ramdas Pophale) SiO2 
 PCOD8306922
Probable space group: P 42 N M
;
_chemical_formula_sum "Si O2"
_cell_formula_units_Z 64
_cell_length_a 12.643953
_cell_length_b 12.643953
_cell_length_c 22.562131
_cell_angle_alpha 90.000000
_cell_angle_beta 90.000000
_cell_angle_gamma 90.000000
_cell_volume 3606.997673
_symmetry_space_group_name_H-M "P 42 N M"
_symmetry_group_IT_number 102
_symmetry_cell_setting 'tetragonal'
loop_
_space_group_symop_operation_xyz
x,y,z
1/2-y,1/2+x,1/2+z
-x,-y,z
1/2+y,1/2-x,1/2+z
1/2-x,1/2+y,1/2+z
1/2+x,1/2-y,1/2+z
-y,-x,z
y,x,z
loop_
_atom_site_type_symbol
_atom_site_label
_atom_site_fract_x
_atom_site_fract_y
_atom_site_fract_z
Si Si1 0.613533 0.217730 0.427240
Si Si2 0.670729 0.493318 0.986106
Si Si3 0.065714 0.766227 0.843591
Si Si4 0.393378 0.932206 0.670420
Si Si5 0.001771 0.173607 0.719271
Si Si6 0.938440 0.231176 0.365837
Si Si7 0.816277 0.639572 0.049086
Si Si8 0.783109 0.388615 0.778590
O O1 0.667723 0.332278 0.428407
O O2 0.496671 0.228642 0.401506
O O3 0.676648 0.141535 0.383329
O O4 0.609615 0.172254 0.493898
O O5 0.614499 0.385502 0.007843
O O6 0.589522 0.589522 0.981131
O O7 0.759162 0.528076 0.033149
O O8 0.716772 0.477782 0.919831
O O9 0.134898 0.865103 0.864315
O O10 0.137900 0.670197 0.822710
O O11 0.989723 0.801005 0.789229
O O12 0.390084 0.881977 0.605087
O O13 0.402584 0.834480 0.714697
O O14 0.500000 0.000000 0.677132
O O15 0.284088 0.997484 0.682836
O O16 0.104669 0.104669 0.700350
O O17 0.893885 0.106116 0.706981
O O18 0.877062 0.122939 0.353008
O O19 0.996750 0.261206 0.305502
O O20 0.730343 0.730343 0.062895
O O21 0.674310 0.325691 0.770907
#
# Coordination Sequence:
#
# PCOD8306922 Si02
#       8
#     8   8   8   8   8   8   8   8
#     4   9  18  32  53  80 105 134 172 212 266 320
#     4   8  14  27  50  79 105 127 162 217 274 320
#     4   9  18  32  51  80 112 136 166 213 273 330
#     4  11  23  37  52  75 110 144 184 221 268 320
#     4   9  18  34  59  86 108 135 174 227 284 329
#     4   9  18  31  51  80 109 137 171 215 265 321
#     4   9  18  35  53  71 100 141 182 219 256 309
#     4  10  21  35  53  77 104 142 178 213 263 319
#
# _framework density 17.743289000000001
#
# number of rings (size 3 to 8) (size 9 to 14) (size 15 to 20)
#    0.000    2.750    0.000    4.125    3.500    2.000 
#    4.500    1.250    0.000    1.500    0.000    1.750 
#    0.000    0.000    0.000    0.000    0.000    0.000 
#
# Total GULP energy -793381.724485 kJ/mol
# GULP energy per Si atom -12396.589445 kJ/mol
# Density = 1.770290 g / cm^3
# Si number density = 17.743289 Si / 1000 Ang^3
#
#
#
# Elastic Constant Matrix: (Units=GPa)
#
#
# Indices 1 2 3 4 5 6 
#
# 1 80.5331 29.5391 47.6173 0.0000 0.0000 0.0000
# 2 29.5391 80.5331 47.6173 0.0000 0.0000 0.0000
# 3 47.6173 47.6173 113.6415 0.0000 0.0000 0.0000
# 4 0.0000 0.0000 0.0000 23.8358 0.0000 0.0000
# 5 0.0000 0.0000 0.0000 0.0000 23.8358 0.0000
# 6 0.0000 0.0000 0.0000 0.0000 0.0000 19.8111
#
#
#
# Elastic Compliance Matrix: (Units=1/GPa)
#
#
# Indices 1 2 3 4 5 6 
#
# 1 0.016931 -0.002679 -0.005972 0.000000 0.000000 0.000000
# 2 -0.002679 0.016931 -0.005972 0.000000 0.000000 0.000000
# 3 -0.005972 -0.005972 0.013804 0.000000 0.000000 0.000000
# 4 0.000000 0.000000 0.000000 0.041954 0.000000 0.000000
# 5 0.000000 0.000000 0.000000 0.000000 0.041954 0.000000
# 6 0.000000 0.000000 0.000000 0.000000 0.000000 0.050477
#
#
# Mechanical properties :
#
#
# Convention : Reuss Voigt Hill
#
# Bulk Modulus (GPa) = 54.28670 58.25058 56.26864
# Shear Modulus (GPa) = 22.99536 23.49213 23.24374
#
# Velocity S-wave (km/s) = 3.60391 3.64263 3.62332
# Velocity P-wave (km/s) = 6.92673 7.11285 7.02041
#
# Compressibility (1/GPa) = 0.01842072
#
# Stress axis : x y z
#
# Youngs Moduli (GPa) = 59.06366 59.06366 72.44283
#
# Poissons Ratio (x) = 0.15825 0.43260
# Poissons Ratio (y) = 0.15825 0.43260
# Poissons Ratio (z) = 0.35271 0.35271
#
# Static dielectric constant tensor:
#      x y z
#    x 3.175210 0.000000 0.000000 
#    y 0.000000 3.175210 0.000000 
#    z 0.000000 0.000000 3.176070 
# 
# 
# High freq. dielectric constant tensor:
#      x y z
#    x 1.672210 0.000000 0.000000 
#    y 0.000000 1.672210 0.000000 
#    z 0.000000 0.000000 1.678190 
# 
# From -- ./inp_files/3447.got.cif
#   From: 2010.03.12/outbox.cif.g09.slc.cpg/sg102_2_cif.got.tgz:3447.got - 2010.04.14 01:40:42.
