data_PCOD8306404
_publ_section_title
;
Structure prediction by ZEFSAII (Michael W. Deem and Ramdas Pophale) SiO2 
 PCOD8306404
Probable space group: I 41 2 2
;
_chemical_formula_sum "Si O2"
_cell_formula_units_Z 44
_cell_length_a 10.529559
_cell_length_b 10.529559
_cell_length_c 17.816948
_cell_angle_alpha 90.000000
_cell_angle_beta 90.000000
_cell_angle_gamma 90.000000
_cell_volume 1975.393759
_symmetry_space_group_name_H-M "I 41 2 2"
_symmetry_group_IT_number 98
_symmetry_cell_setting 'tetragonal'
loop_
_space_group_symop_operation_xyz
x,y,z
-y,1/2+x,1/4+z
-x,-y,z
y,1/2-x,1/4+z
x,1/2-y,1/4-z
-x,1/2+y,1/4-z
y,x,-z
-y,-x,-z
1/2+x,1/2+y,1/2+z
1/2-y,x,3/4+z
1/2-x,1/2-y,1/2+z
1/2+y,-x,3/4+z
1/2+x,-y,3/4-z
1/2-x,y,3/4-z
1/2+y,1/2+x,1/2-z
1/2-y,1/2-x,1/2-z
loop_
_atom_site_type_symbol
_atom_site_label
_atom_site_fract_x
_atom_site_fract_y
_atom_site_fract_z
Si Si1 0.000000 0.500000 0.250000
Si Si2 0.009324 0.266926 0.356265
Si Si3 0.406937 0.298691 0.235859
Si Si4 0.250000 0.623384 0.875000
O O1 0.993988 0.371870 0.294848
O O2 0.066875 0.342056 0.428425
O O3 0.098354 0.157944 0.319002
O O4 0.874825 0.209354 0.379508
O O5 0.324688 0.175313 0.250000
O O6 0.538364 0.255242 0.199385
#
# Coordination Sequence:
#
# PCOD8306404 Si02
#       4
#     4  16  16   8
#     4  12  32  48  76 112 160 210 248 316 404 472
#     4  12  29  50  76 112 155 204 260 320 391 474
#     4  12  25  51  77 109 153 200 256 316 395 451
#     4  12  28  48  80 118 148 204 264 330 374 476
#
# _framework density 22.274039999999999
#
# number of rings (size 3 to 8) (size 9 to 14) (size 15 to 20)
#    0.000    0.000    5.455    2.182   10.182    1.455 
#    0.000    0.000    0.000    0.000    0.000    0.000 
#    0.000    0.000    0.000    0.000    0.000    0.000 
#
# Total GULP energy -272709.009589 kJ/mol
# GULP energy per Si atom -12395.864072 kJ/mol
# Density = 2.222334 g / cm^3
# Si number density = 22.274040 Si / 1000 Ang^3
#
#
#
# Elastic Constant Matrix: (Units=GPa)
#
#
# Indices 1 2 3 4 5 6 
#
# 1 101.5586 36.9403 50.3497 0.0000 0.0000 0.0000
# 2 36.9403 101.5596 50.3491 0.0000 0.0000 0.0000
# 3 50.3497 50.3491 182.4243 0.0000 0.0000 0.0000
# 4 0.0000 0.0000 0.0000 43.7544 0.0000 0.0000
# 5 0.0000 0.0000 0.0000 0.0000 43.7486 0.0000
# 6 0.0000 0.0000 0.0000 0.0000 0.0000 30.1405
#
#
#
# Elastic Compliance Matrix: (Units=1/GPa)
#
#
# Indices 1 2 3 4 5 6 
#
# 1 0.012254 -0.003221 -0.002493 0.000000 0.000000 0.000000
# 2 -0.003221 0.012254 -0.002493 0.000000 0.000000 0.000000
# 3 -0.002493 -0.002493 0.006858 0.000000 0.000000 0.000000
# 4 0.000000 0.000000 0.000000 0.022855 0.000000 0.000000
# 5 0.000000 0.000000 0.000000 0.000000 0.022858 0.000000
# 6 0.000000 0.000000 0.000000 0.000000 0.000000 0.033178
#
#
# Mechanical properties :
#
#
# Convention : Reuss Voigt Hill
#
# Bulk Modulus (GPa) = 66.88361 73.42453 70.15407
# Shear Modulus (GPa) = 37.97792 40.05560 39.01676
#
# Velocity S-wave (km/s) = 4.13368 4.24525 4.18984
# Velocity P-wave (km/s) = 7.27158 7.55415 7.41421
#
# Compressibility (1/GPa) = 0.01495135
#
# Stress axis : x y z
#
# Youngs Moduli (GPa) = 81.60448 81.60575 145.81676
#
# Poissons Ratio (x) = 0.26287 0.36354
# Poissons Ratio (y) = 0.26287 0.36353
# Poissons Ratio (z) = 0.20345 0.20345
#
# Static dielectric constant tensor:
#      x y z
#    x 4.152940 0.000000 0.000000 
#    y 0.000000 4.152980 0.000000 
#    z 0.000000 0.000000 5.385580 
# 
# 
# High freq. dielectric constant tensor:
#      x y z
#    x 1.881650 0.000000 0.000000 
#    y 0.000000 1.881650 0.000000 
#    z 0.000000 0.000000 1.908620 
# 
# From -- ./inp_files/7117.got.cif
#   From: 2010.03.12/outbox.cif.g09.slc.cpg/sg98_4_cif.got.tgz:7117.got - 2010.04.08 21:04:41.
