data_PCOD8306188
_publ_section_title
;
Structure prediction by ZEFSAII (Michael W. Deem and Ramdas Pophale) SiO2 
 PCOD8306188
Probable space group: I 4 2 2 
;
_chemical_formula_sum "Si O2"
_cell_formula_units_Z 72
_cell_length_a 11.285171
_cell_length_b 11.285171
_cell_length_c 31.756563
_cell_angle_alpha 90.000000
_cell_angle_beta 90.000000
_cell_angle_gamma 90.000000
_cell_volume 4044.359764
_symmetry_space_group_name_H-M "I 4 2 2 "
_symmetry_group_IT_number 97
_symmetry_cell_setting 'tetragonal'
loop_
_space_group_symop_operation_xyz
x,y,z
-y,x,z
-x,-y,z
y,-x,z
x,-y,-z
-x,y,-z
y,x,-z
-y,-x,-z
1/2+x,1/2+y,1/2+z
1/2-y,1/2+x,1/2+z
1/2-x,1/2-y,1/2+z
1/2+y,1/2-x,1/2+z
1/2+x,1/2-y,1/2-z
1/2-x,1/2+y,1/2-z
1/2+y,1/2+x,1/2-z
1/2-y,1/2-x,1/2-z
loop_
_atom_site_type_symbol
_atom_site_label
_atom_site_fract_x
_atom_site_fract_y
_atom_site_fract_z
Si Si1 0.686078 0.457101 0.229215
Si Si2 0.682586 0.446653 0.327928
Si Si3 0.500000 0.694423 0.000000
Si Si4 0.122199 0.566150 0.160915
Si Si5 0.197553 0.002306 0.408790
O O1 0.639559 0.587326 0.216582
O O2 0.711028 0.446292 0.278473
O O3 0.806051 0.431980 0.204474
O O4 0.644506 0.579267 0.340520
O O5 0.799407 0.407491 0.353069
O O6 0.384424 0.615577 0.000000
O O7 0.501322 0.762939 0.044910
O O8 0.197862 0.501646 0.124964
O O9 0.000000 0.500000 0.168960
O O10 0.114922 0.117788 0.402860
#
# Coordination Sequence:
#
# PCOD8306188 Si02
#       5
#    16  16   8  16  16
#     4   9  19  37  56  71  93 132 178 225 274 307
#     4   9  21  39  53  66  96 144 183 214 256 306
#     4   7  12  28  55  82 102 130 165 197 254 324
#     4  12  24  31  48  81 107 132 170 220 259 309
#     4   9  18  34  57  81 107 135 164 208 265 315
#
# _framework density 17.802571
#
# number of rings (size 3 to 8) (size 9 to 14) (size 15 to 20)
#    0.000    2.556    0.000    4.667    6.222    3.556 
#    0.000    0.556    0.000    0.000    0.000    0.000 
#    0.000    0.000    0.000    0.000    0.000    0.000 
#
# Total GULP energy -446143.463028 kJ/mol
# GULP energy per Si atom -12392.873973 kJ/mol
# Density = 1.776205 g / cm^3
# Si number density = 17.802571 Si / 1000 Ang^3
#
#
#
# Elastic Constant Matrix: (Units=GPa)
#
#
# Indices 1 2 3 4 5 6 
#
# 1 79.2250 33.7041 7.8589 0.0000 0.0000 0.0000
# 2 33.7041 79.2248 7.8589 0.0000 0.0000 0.0000
# 3 7.8589 7.8589 31.8685 0.0000 0.0000 0.0000
# 4 0.0000 0.0000 0.0000 13.3283 0.0000 0.0000
# 5 0.0000 0.0000 0.0000 0.0000 13.3285 0.0000
# 6 0.0000 0.0000 0.0000 0.0000 0.0000 17.8080
#
#
#
# Elastic Compliance Matrix: (Units=1/GPa)
#
#
# Indices 1 2 3 4 5 6 
#
# 1 0.015569 -0.006399 -0.002261 0.000000 0.000000 0.000000
# 2 -0.006399 0.015569 -0.002261 0.000000 0.000000 0.000000
# 3 -0.002261 -0.002261 0.032494 0.000000 0.000000 0.000000
# 4 0.000000 0.000000 0.000000 0.075028 0.000000 0.000000
# 5 0.000000 0.000000 0.000000 0.000000 0.075027 0.000000
# 6 0.000000 0.000000 0.000000 0.000000 0.000000 0.056155
#
#
# Mechanical properties :
#
#
# Convention : Reuss Voigt Hill
#
# Bulk Modulus (GPa) = 23.92992 32.12910 28.02951
# Shear Modulus (GPa) = 16.36046 18.28606 17.32326
#
# Velocity S-wave (km/s) = 3.03478 3.20841 3.12280
# Velocity P-wave (km/s) = 5.07453 5.64020 5.36482
#
# Compressibility (1/GPa) = 0.04178869
#
# Stress axis : x y z
#
# Youngs Moduli (GPa) = 64.23067 64.23049 30.77470
#
# Poissons Ratio (x) = 0.41101 0.06959
# Poissons Ratio (y) = 0.41102 0.06959
# Poissons Ratio (z) = 0.14525 0.14525
#
# Static dielectric constant tensor:
#      x y z
#    x 3.222890 0.000000 0.000000 
#    y 0.000000 3.222890 0.000000 
#    z 0.000000 0.000000 3.343610 
# 
# 
# High freq. dielectric constant tensor:
#      x y z
#    x 1.677350 0.000000 0.000000 
#    y 0.000000 1.677350 0.000000 
#    z 0.000000 0.000000 1.668260 
# 
# From -- ./inp_files/7901.got.cif
#   From: 2010.03.12/outbox.cif.g09.slc.cpg/sg97_4_cif.got.tgz:7901.got - 2010.04.08 20:59:42.
