data_PCOD8306827
_publ_section_title
;
Structure prediction by ZEFSAII (Michael W. Deem and Ramdas Pophale) SiO2 
 PCOD8306827
Probable space group: P 42 N M
;
_chemical_formula_sum "Si O2"
_cell_formula_units_Z 56
_cell_length_a 13.773099
_cell_length_b 13.773099
_cell_length_c 16.710941
_cell_angle_alpha 90.000000
_cell_angle_beta 90.000000
_cell_angle_gamma 90.000000
_cell_volume 3170.036365
_symmetry_space_group_name_H-M "P 42 N M"
_symmetry_group_IT_number 102
_symmetry_cell_setting 'tetragonal'
loop_
_space_group_symop_operation_xyz
x,y,z
1/2-y,1/2+x,1/2+z
-x,-y,z
1/2+y,1/2-x,1/2+z
1/2-x,1/2+y,1/2+z
1/2+x,1/2-y,1/2+z
-y,-x,z
y,x,z
loop_
_atom_site_type_symbol
_atom_site_label
_atom_site_fract_x
_atom_site_fract_y
_atom_site_fract_z
Si Si1 0.899480 0.446092 0.444920
Si Si2 0.501369 0.344509 0.020314
Si Si3 0.844509 0.001369 0.217690
Si Si4 0.553908 0.899480 0.293084
Si Si5 0.000000 0.727775 0.369002
Si Si6 0.600679 0.753491 0.158354
Si Si7 0.100679 0.253491 0.079651
O O1 0.854477 0.500000 0.369002
O O2 0.815295 0.450727 0.510453
O O3 0.000000 0.500000 0.473006
O O4 0.919474 0.336580 0.414935
O O5 0.582682 0.417319 0.052646
O O6 0.401937 0.401937 0.998897
O O7 0.481300 0.269302 0.092187
O O8 0.543010 0.293868 0.940159
O O9 0.917318 0.082683 0.185358
O O10 0.793868 0.043010 0.297845
O O11 0.769302 0.981300 0.145818
O O12 0.901937 0.901937 0.239108
O O13 0.663420 0.919474 0.323070
O O14 0.549272 0.815295 0.227551
O O15 0.500000 0.000000 0.264998
O O16 0.653966 0.653966 0.189082
O O17 0.681124 0.818876 0.119002
O O18 0.153966 0.153966 0.048923
#
# Coordination Sequence:
#
# PCOD8306827 Si02
#       7
#     8   8   8   8   8   8   8
#     4   9  20  36  53  78 106 141 179 217 264 314
#     4  10  20  32  50  78 110 140 172 218 274 321
#     4  10  20  32  50  78 110 140 172 218 274 321
#     4   9  20  36  53  78 106 141 179 217 264 314
#     4  10  17  31  50  76 104 134 174 213 259 318
#     4  10  19  34  56  79 103 139 182 219 259 314
#     4  10  19  34  56  79 103 139 182 219 259 314
#
# _framework density 17.665413999999998
#
# number of rings (size 3 to 8) (size 9 to 14) (size 15 to 20)
#    0.000    2.571    2.857    0.857    0.000    2.857 
#    0.000    1.429    0.000   10.286    0.000    0.000 
#    0.000    0.000    0.000    0.000    0.000    0.000 
#
# Total GULP energy -693921.875052 kJ/mol
# GULP energy per Si atom -12391.462054 kJ/mol
# Density = 1.762521 g / cm^3
# Si number density = 17.665414 Si / 1000 Ang^3
#
#
#
# Elastic Constant Matrix: (Units=GPa)
#
#
# Indices 1 2 3 4 5 6 
#
# 1 74.9532 33.7235 59.3543 0.0000 0.0000 0.0000
# 2 33.7235 74.9532 59.3543 0.0000 0.0000 0.0000
# 3 59.3543 59.3543 138.6530 0.0000 0.0000 0.0000
# 4 0.0000 0.0000 0.0000 30.7663 0.0000 0.0000
# 5 0.0000 0.0000 0.0000 0.0000 30.7663 0.0000
# 6 0.0000 0.0000 0.0000 0.0000 0.0000 17.9342
#
#
#
# Elastic Compliance Matrix: (Units=1/GPa)
#
#
# Indices 1 2 3 4 5 6 
#
# 1 0.020769 -0.003486 -0.007398 0.000000 0.000000 0.000000
# 2 -0.003486 0.020769 -0.007398 0.000000 0.000000 0.000000
# 3 -0.007398 -0.007398 0.013547 0.000000 0.000000 0.000000
# 4 0.000000 0.000000 0.000000 0.032503 0.000000 0.000000
# 5 0.000000 0.000000 0.000000 0.000000 0.032503 0.000000
# 6 0.000000 0.000000 0.000000 0.000000 0.000000 0.055759
#
#
# Mechanical properties :
#
#
# Convention : Reuss Voigt Hill
#
# Bulk Modulus (GPa) = 53.99967 65.93596 59.96782
# Shear Modulus (GPa) = 22.87411 24.96850 23.92131
#
# Velocity S-wave (km/s) = 3.60231 3.76362 3.68385
# Velocity P-wave (km/s) = 6.92362 7.50282 7.21903
#
# Compressibility (1/GPa) = 0.01851863
#
# Stress axis : x y z
#
# Youngs Moduli (GPa) = 48.14936 48.14936 73.81975
#
# Poissons Ratio (x) = 0.16783 0.54615
# Poissons Ratio (y) = 0.16783 0.54615
# Poissons Ratio (z) = 0.35623 0.35623
#
# Static dielectric constant tensor:
#      x y z
#    x 3.287000 0.000000 0.000000 
#    y 0.000000 3.287000 0.000000 
#    z 0.000000 0.000000 3.318070 
# 
# 
# High freq. dielectric constant tensor:
#      x y z
#    x 1.670590 0.000000 0.000000 
#    y 0.000000 1.670590 0.000000 
#    z 0.000000 0.000000 1.680560 
# 
# From -- ./inp_files/2814.got.cif
#   From: 2010.03.12/outbox.cif.g09.slc.cpg/sg102_2_cif.got.tgz:2814.got - 2010.04.14 01:40:42.
