data_PCOD8306742
_publ_section_title
;
Structure prediction by ZEFSAII (Michael W. Deem and Ramdas Pophale) SiO2 
 PCOD8306742
Probable space group: P 42 C M
;
_chemical_formula_sum "Si O2"
_cell_formula_units_Z 64
_cell_length_a 12.245304
_cell_length_b 12.245304
_cell_length_c 23.141771
_cell_angle_alpha 90.000000
_cell_angle_beta 90.000000
_cell_angle_gamma 90.000000
_cell_volume 3470.050014
_symmetry_space_group_name_H-M "P 42 C M"
_symmetry_group_IT_number 101
_symmetry_cell_setting 'tetragonal'
loop_
_space_group_symop_operation_xyz
x,y,z
-y,x,1/2+z
-x,-y,z
y,-x,1/2+z
-x,y,1/2+z
x,-y,1/2+z
-y,-x,z
y,x,z
loop_
_atom_site_type_symbol
_atom_site_label
_atom_site_fract_x
_atom_site_fract_y
_atom_site_fract_z
Si Si1 0.726540 0.102570 0.961370
Si Si2 0.625093 0.195167 0.852020
Si Si3 0.308222 0.140579 0.590356
Si Si4 0.876643 0.458142 0.584662
Si Si5 0.261998 0.923179 0.653140
Si Si6 0.319034 0.143738 0.973584
Si Si7 0.372651 0.003607 0.266598
Si Si8 0.203182 0.378337 0.844899
O O1 0.844032 0.155968 0.943983
O O2 0.635650 0.137519 0.914410
O O3 0.737561 0.973470 0.967278
O O4 0.687708 0.151323 0.021623
O O5 0.700403 0.299597 0.845559
O O6 0.657986 0.106951 0.804725
O O7 0.503787 0.236022 0.838572
O O8 0.226860 0.226860 0.619449
O O9 0.430684 0.180104 0.607913
O O10 0.260091 0.020231 0.605772
O O11 0.849059 0.364163 0.631906
O O12 0.848123 0.416757 0.520230
O O13 0.000000 0.500000 0.582408
O O14 0.150420 0.849581 0.655990
O O15 0.290941 0.984869 0.712548
O O16 0.225868 0.225868 0.995078
O O17 0.364169 0.173804 0.911435
O O18 0.500000 0.000000 0.247226
O O19 0.344343 0.896040 0.303115
O O20 0.305741 0.305741 0.826359
#
# Coordination Sequence:
#
# PCOD8306742 Si02
#       8
#     8   8   8   8   8   8   8   8
#     4  10  19  32  54  83 113 145 178 216 266 324
#     4  10  20  35  58  82 108 143 181 224 271 319
#     4  10  21  35  54  81 110 143 183 220 263 322
#     4  10  19  33  57  80 108 142 184 223 264 312
#     4  11  22  36  56  82 109 140 182 232 279 323
#     4  11  20  33  54  82 113 146 178 218 270 322
#     4  10  20  36  58  79 105 140 185 229 270 325
#     4  10  22  35  54  82 111 143 181 222 268 324
#
# _framework density 18.443538
#
# number of rings (size 3 to 8) (size 9 to 14) (size 15 to 20)
#    0.000    1.750    3.750    2.625    0.000    1.250 
#    0.000    1.250    0.000    3.375    0.000    0.000 
#    0.000    0.000    0.000    0.000    0.000    0.000 
#
# Total GULP energy -792995.477559 kJ/mol
# GULP energy per Si atom -12390.554337 kJ/mol
# Density = 1.840156 g / cm^3
# Si number density = 18.443538 Si / 1000 Ang^3
#
#
#
# Elastic Constant Matrix: (Units=GPa)
#
#
# Indices 1 2 3 4 5 6 
#
# 1 90.0502 57.3185 16.1456 0.0000 0.0000 0.0003
# 2 57.3185 90.0502 16.1456 0.0000 0.0000 -0.0003
# 3 16.1456 16.1456 59.1193 0.0000 0.0000 0.0000
# 4 0.0000 0.0000 0.0000 16.3052 0.0000 0.0000
# 5 0.0000 0.0000 0.0000 0.0000 16.3052 0.0000
# 6 0.0003 -0.0003 0.0000 0.0000 0.0000 14.5699
#
#
#
# Elastic Compliance Matrix: (Units=1/GPa)
#
#
# Indices 1 2 3 4 5 6 
#
# 1 0.018885 -0.011667 -0.001971 0.000000 0.000000 -0.000001
# 2 -0.011667 0.018885 -0.001971 0.000000 0.000000 0.000001
# 3 -0.001971 -0.001971 0.017992 0.000000 0.000000 0.000000
# 4 0.000000 0.000000 0.000000 0.061330 0.000000 0.000000
# 5 0.000000 0.000000 0.000000 0.000000 0.061330 0.000000
# 6 -0.000001 0.000001 0.000000 0.000000 0.000000 0.068635
#
#
# Mechanical properties :
#
#
# Convention : Reuss Voigt Hill
#
# Bulk Modulus (GPa) = 40.74608 46.49325 43.61967
# Shear Modulus (GPa) = 17.45478 19.41007 18.43242
#
# Velocity S-wave (km/s) = 3.07968 3.24760 3.16475
# Velocity P-wave (km/s) = 5.89798 6.27102 6.08736
#
# Compressibility (1/GPa) = 0.02454224
#
# Stress axis : x y z
#
# Youngs Moduli (GPa) = 52.95345 52.95345 55.58148
#
# Poissons Ratio (x) = 0.61780 0.10956
# Poissons Ratio (y) = 0.61780 0.10956
# Poissons Ratio (z) = 0.10438 0.10438
#
# Static dielectric constant tensor:
#      x y z
#    x 3.887040 0.000000 0.000000 
#    y 0.000000 3.887040 0.000000 
#    z 0.000000 0.000000 3.492610 
# 
# 
# High freq. dielectric constant tensor:
#      x y z
#    x 1.705470 0.000000 0.000000 
#    y 0.000000 1.705470 0.000000 
#    z 0.000000 0.000000 1.721860 
# 
# From -- ./inp_files/2812.got.cif
#   From: 2010.03.12/outbox.cif.g09.slc.cpg/sg101_2_cif.got.tgz:2812.got - 2010.04.14 01:38:52.
