data_PCOD8306104
_publ_section_title
;
Structure prediction by ZEFSAII (Michael W. Deem and Ramdas Pophale) SiO2 
 PCOD8306104
Probable space group: I 4 2 2 
;
_chemical_formula_sum "Si O2"
_cell_formula_units_Z 52
_cell_length_a 14.039132
_cell_length_b 14.039132
_cell_length_c 12.954156
_cell_angle_alpha 90.000000
_cell_angle_beta 90.000000
_cell_angle_gamma 90.000000
_cell_volume 2553.228230
_symmetry_space_group_name_H-M "I 4 2 2 "
_symmetry_group_IT_number 97
_symmetry_cell_setting 'tetragonal'
loop_
_space_group_symop_operation_xyz
x,y,z
-y,x,z
-x,-y,z
y,-x,z
x,-y,-z
-x,y,-z
y,x,-z
-y,-x,-z
1/2+x,1/2+y,1/2+z
1/2-y,1/2+x,1/2+z
1/2-x,1/2-y,1/2+z
1/2+y,1/2-x,1/2+z
1/2+x,1/2-y,1/2-z
1/2-x,1/2+y,1/2-z
1/2+y,1/2+x,1/2-z
1/2-y,1/2-x,1/2-z
loop_
_atom_site_type_symbol
_atom_site_label
_atom_site_fract_x
_atom_site_fract_y
_atom_site_fract_z
Si Si1 0.082229 0.207082 0.430364
Si Si2 0.892977 0.347619 0.863360
Si Si3 0.000000 0.500000 0.500000
Si Si4 0.149791 0.964676 0.202281
O O1 0.122337 0.122337 0.500000
O O2 0.164052 0.284710 0.405105
O O3 0.038021 0.167819 0.324467
O O4 0.000000 0.255840 0.500000
O O5 0.890706 0.390706 0.750000
O O6 0.944652 0.244970 0.864588
O O7 0.941088 0.428842 0.929669
O O8 0.070124 0.886336 0.172702
#
# Coordination Sequence:
#
# PCOD8306104 Si02
#       4
#    16  16   4  16
#     4  11  20  36  63  97 126 166 220 271 328 390
#     4  10  24  41  61  96 128 170 222 278 332 397
#     4  12  22  44  68  80 122 176 226 272 336 396
#     4  10  21  39  63  96 137 173 212 273 339 401
#
# _framework density 20.366374
#
# number of rings (size 3 to 8) (size 9 to 14) (size 15 to 20)
#    0.000    1.538    4.615    0.462    0.000    2.769 
#    0.000    3.077    0.000    1.846    0.000    0.000 
#    0.000    0.000    0.000    0.000    0.000    0.000 
#
# Total GULP energy -322260.115622 kJ/mol
# GULP energy per Si atom -12394.619832 kJ/mol
# Density = 2.032002 g / cm^3
# Si number density = 20.366374 Si / 1000 Ang^3
#
#
#
# Elastic Constant Matrix: (Units=GPa)
#
#
# Indices 1 2 3 4 5 6 
#
# 1 129.1606 67.4641 47.2689 0.0000 0.0000 0.0000
# 2 67.4641 129.1606 47.2689 0.0000 0.0000 0.0000
# 3 47.2689 47.2689 73.8077 0.0000 0.0000 0.0000
# 4 0.0000 0.0000 0.0000 36.7397 0.0000 0.0000
# 5 0.0000 0.0000 0.0000 0.0000 36.7397 0.0000
# 6 0.0000 0.0000 0.0000 0.0000 0.0000 35.9928
#
#
#
# Elastic Compliance Matrix: (Units=1/GPa)
#
#
# Indices 1 2 3 4 5 6 
#
# 1 0.011779 -0.004430 -0.004706 0.000000 0.000000 0.000000
# 2 -0.004430 0.011779 -0.004706 0.000000 0.000000 0.000000
# 3 -0.004706 -0.004706 0.019577 0.000000 0.000000 0.000000
# 4 0.000000 0.000000 0.000000 0.027219 0.000000 0.000000
# 5 0.000000 0.000000 0.000000 0.000000 0.027219 0.000000
# 6 0.000000 0.000000 0.000000 0.000000 0.000000 0.027783
#
#
# Mechanical properties :
#
#
# Convention : Reuss Voigt Hill
#
# Bulk Modulus (GPa) = 64.72949 72.90364 68.81657
# Shear Modulus (GPa) = 31.60778 33.23624 32.42201
#
# Velocity S-wave (km/s) = 3.94377 4.04408 3.99424
# Velocity P-wave (km/s) = 7.25184 7.59473 7.42527
#
# Compressibility (1/GPa) = 0.01544891
#
# Stress axis : x y z
#
# Youngs Moduli (GPa) = 84.90037 84.90037 51.08062
#
# Poissons Ratio (x) = 0.37610 0.24040
# Poissons Ratio (y) = 0.37610 0.24040
# Poissons Ratio (z) = 0.39957 0.39957
#
# Static dielectric constant tensor:
#      x y z
#    x 3.648260 0.000000 0.000000 
#    y 0.000000 3.648260 0.000000 
#    z 0.000000 0.000000 3.779700 
# 
# 
# High freq. dielectric constant tensor:
#      x y z
#    x 1.796070 0.000000 0.000000 
#    y 0.000000 1.796070 0.000000 
#    z 0.000000 0.000000 1.797450 
# 
# From -- ./inp_files/3256.got.cif
#   From: 2010.03.12/outbox.cif.g09.slc.cpg/sg97_2_cif.got.tgz:3256.got - 2010.04.08 20:59:42.
