data_PCOD8306171
_publ_section_title
;
Structure prediction by ZEFSAII (Michael W. Deem and Ramdas Pophale) SiO2 
 PCOD8306171
Probable space group: I 4 2 2 
;
_chemical_formula_sum "Si O2"
_cell_formula_units_Z 84
_cell_length_a 18.973768
_cell_length_b 18.973768
_cell_length_c 11.630333
_cell_angle_alpha 90.000000
_cell_angle_beta 90.000000
_cell_angle_gamma 90.000000
_cell_volume 4186.964914
_symmetry_space_group_name_H-M "I 4 2 2 "
_symmetry_group_IT_number 97
_symmetry_cell_setting 'tetragonal'
loop_
_space_group_symop_operation_xyz
x,y,z
-y,x,z
-x,-y,z
y,-x,z
x,-y,-z
-x,y,-z
y,x,-z
-y,-x,-z
1/2+x,1/2+y,1/2+z
1/2-y,1/2+x,1/2+z
1/2-x,1/2-y,1/2+z
1/2+y,1/2-x,1/2+z
1/2+x,1/2-y,1/2-z
1/2-x,1/2+y,1/2-z
1/2+y,1/2+x,1/2-z
1/2-y,1/2-x,1/2-z
loop_
_atom_site_type_symbol
_atom_site_label
_atom_site_fract_x
_atom_site_fract_y
_atom_site_fract_z
Si Si1 0.079961 0.251956 0.984157
Si Si2 0.228924 0.616053 0.738983
Si Si3 0.474147 0.757049 0.883382
Si Si4 0.902596 0.397927 0.383529
Si Si5 0.225425 0.157583 0.239555
Si Si6 0.500000 0.000000 0.500000
O O1 0.078376 0.332177 0.945363
O O2 0.128707 0.211056 0.890433
O O3 0.115791 0.248188 0.107057
O O4 0.000000 0.222464 0.000000
O O5 0.151574 0.651574 0.750000
O O6 0.228064 0.539060 0.796377
O O7 0.289434 0.666691 0.791000
O O8 0.437581 0.827321 0.933338
O O9 0.412191 0.716648 0.817600
O O10 0.500000 0.716704 0.000000
O O11 0.888208 0.388208 0.250000
O O12 0.956137 0.458995 0.406652
O O13 0.301740 0.198261 0.250000
#
# Coordination Sequence:
#
# PCOD8306171 Si02
#       6
#    16  16  16  16  16   4
#     4  12  20  40  64  91 127 166 205 255 316 376
#     4  11  26  39  64  96 122 165 216 260 312 386
#     4  12  23  41  62  86 125 163 205 263 312 371
#     4  12  22  36  55  84 126 168 205 245 298 366
#     4  11  23  43  64  91 129 165 208 264 318 369
#     4  12  26  32  52  86 124 180 206 236 286 376
#
# _framework density 20.062265
#
# number of rings (size 3 to 8) (size 9 to 14) (size 15 to 20)
#    0.000    0.381    7.619    2.000    0.000    0.762 
#    0.000    0.000    0.000    0.571    0.000    2.667 
#    0.000    0.000    0.000    0.000    0.000    0.000 
#
# Total GULP energy -520417.430071 kJ/mol
# GULP energy per Si atom -12390.891192 kJ/mol
# Density = 2.001660 g / cm^3
# Si number density = 20.062265 Si / 1000 Ang^3
#
#
#
# Elastic Constant Matrix: (Units=GPa)
#
#
# Indices 1 2 3 4 5 6 
#
# 1 50.9211 4.6473 -6.3814 0.0000 0.0000 0.0000
# 2 4.6473 50.9215 -6.3816 0.0000 0.0000 0.0000
# 3 -6.3814 -6.3816 89.4739 0.0000 0.0000 0.0000
# 4 0.0000 0.0000 0.0000 29.0156 0.0000 0.0000
# 5 0.0000 0.0000 0.0000 0.0000 29.0154 0.0000
# 6 0.0000 0.0000 0.0000 0.0000 0.0000 42.7249
#
#
#
# Elastic Compliance Matrix: (Units=1/GPa)
#
#
# Indices 1 2 3 4 5 6 
#
# 1 0.019953 -0.001657 0.001305 0.000000 0.000000 0.000000
# 2 -0.001657 0.019953 0.001305 0.000000 0.000000 0.000000
# 3 0.001305 0.001305 0.011363 0.000000 0.000000 0.000000
# 4 0.000000 0.000000 0.000000 0.034464 0.000000 0.000000
# 5 0.000000 0.000000 0.000000 0.000000 0.034464 0.000000
# 6 0.000000 0.000000 0.000000 0.000000 0.000000 0.023406
#
#
# Mechanical properties :
#
#
# Convention : Reuss Voigt Hill
#
# Bulk Modulus (GPa) = 18.80652 19.45390 19.13021
# Shear Modulus (GPa) = 31.36320 33.44666 32.40493
#
# Velocity S-wave (km/s) = 3.95814 4.08750 4.02334
# Velocity P-wave (km/s) = 5.50305 5.65638 5.58024
#
# Compressibility (1/GPa) = 0.05317304
#
# Stress axis : x y z
#
# Youngs Moduli (GPa) = 50.11777 50.11809 88.00817
#
# Poissons Ratio (x) = 0.08307 -0.11484
# Poissons Ratio (y) = 0.08307 -0.11484
# Poissons Ratio (z) = -0.06540 -0.06540
#
# Static dielectric constant tensor:
#      x y z
#    x 3.569440 0.000000 0.000000 
#    y 0.000000 3.569430 0.000000 
#    z 0.000000 0.000000 3.653020 
# 
# 
# High freq. dielectric constant tensor:
#      x y z
#    x 1.769990 0.000000 0.000000 
#    y 0.000000 1.769990 0.000000 
#    z 0.000000 0.000000 1.796180 
# 
# From -- ./inp_files/3833.got.cif
#   From: 2010.03.12/outbox.cif.g09.slc.cpg/sg97_2_cif.got.tgz:3833.got - 2010.04.08 20:59:42.
