data_PCOD8306700
_publ_section_title
;
Structure prediction by ZEFSAII (Michael W. Deem and Ramdas Pophale) SiO2 
 PCOD8306700
Probable space group: P 42 C M
;
_chemical_formula_sum "Si O2"
_cell_formula_units_Z 64
_cell_length_a 14.047112
_cell_length_b 14.047112
_cell_length_c 19.921369
_cell_angle_alpha 90.000000
_cell_angle_beta 90.000000
_cell_angle_gamma 90.000000
_cell_volume 3930.911535
_symmetry_space_group_name_H-M "P 42 C M"
_symmetry_group_IT_number 101
_symmetry_cell_setting 'tetragonal'
loop_
_space_group_symop_operation_xyz
x,y,z
-y,x,1/2+z
-x,-y,z
y,-x,1/2+z
-x,y,1/2+z
x,-y,1/2+z
-y,-x,z
y,x,z
loop_
_atom_site_type_symbol
_atom_site_label
_atom_site_fract_x
_atom_site_fract_y
_atom_site_fract_z
Si Si1 0.855380 0.703953 0.807630
Si Si2 0.392001 0.760511 0.071602
Si Si3 0.371373 0.916065 0.172895
Si Si4 0.693681 0.540920 0.177154
Si Si5 0.038121 0.393162 0.351481
Si Si6 0.614750 0.770567 0.420530
Si Si7 0.452551 0.302646 0.822855
Si Si8 0.109897 0.586601 0.707148
O O1 0.806309 0.806309 0.824875
O O2 0.877923 0.704578 0.727463
O O3 0.783769 0.620285 0.826734
O O4 0.951189 0.683516 0.851164
O O5 0.292933 0.707068 0.074680
O O6 0.367610 0.864633 0.101409
O O7 0.468985 0.705251 0.115749
O O8 0.429026 0.766664 0.995520
O O9 0.472548 0.898541 0.208462
O O10 0.362415 0.030024 0.160441
O O11 0.600114 0.600114 0.161358
O O12 0.682597 0.485609 0.246680
O O13 0.784874 0.612334 0.180821
O O14 0.117259 0.367652 0.406960
O O15 0.095888 0.380248 0.282791
O O16 0.000000 0.500000 0.362337
O O17 0.714878 0.714878 0.415670
O O18 0.540909 0.719633 0.370778
O O19 0.399887 0.399887 0.846142
#
# Coordination Sequence:
#
# PCOD8306700 Si02
#       8
#     8   8   8   8   8   8   8   8
#     4  10  17  28  53  80 102 125 164 222 266 296
#     4  10  21  35  48  69 100 133 170 208 251 305
#     4   9  14  28  48  69  95 124 159 207 258 290
#     4  11  20  32  49  70 100 138 177 212 249 296
#     4  11  16  33  52  74 102 133 170 210 259 309
#     4  11  23  36  50  72 105 142 172 211 261 310
#     4  11  20  32  50  74 101 136 181 216 249 301
#     4   9  15  27  47  74  96 123 162 213 251 289
#
# _framework density 16.281210000000002
#
# number of rings (size 3 to 8) (size 9 to 14) (size 15 to 20)
#    0.000    1.750    7.500    1.125    0.000    2.250 
#    4.500    1.250    0.000    0.375    0.000    0.000 
#    0.000    2.500    0.000    0.250    0.000    0.000 
#
# Total GULP energy -793114.650479 kJ/mol
# GULP energy per Si atom -12392.416414 kJ/mol
# Density = 1.624415 g / cm^3
# Si number density = 16.281210 Si / 1000 Ang^3
#
#
#
# Elastic Constant Matrix: (Units=GPa)
#
#
# Indices 1 2 3 4 5 6 
#
# 1 73.8988 41.8235 38.5434 0.0000 0.0000 -0.0001
# 2 41.8235 73.8988 38.5434 0.0000 0.0000 0.0001
# 3 38.5434 38.5434 95.6671 0.0000 0.0000 0.0000
# 4 0.0000 0.0000 0.0000 14.0400 0.0000 0.0000
# 5 0.0000 0.0000 0.0000 0.0000 14.0400 0.0000
# 6 -0.0001 0.0001 0.0000 0.0000 0.0000 22.4639
#
#
#
# Elastic Compliance Matrix: (Units=1/GPa)
#
#
# Indices 1 2 3 4 5 6 
#
# 1 0.021494 -0.009683 -0.004759 0.000000 0.000000 0.000000
# 2 -0.009683 0.021494 -0.004759 0.000000 0.000000 0.000000
# 3 -0.004759 -0.004759 0.014287 0.000000 0.000000 0.000000
# 4 0.000000 0.000000 0.000000 0.071225 0.000000 0.000000
# 5 0.000000 0.000000 0.000000 0.000000 0.071225 0.000000
# 6 0.000000 0.000000 0.000000 0.000000 0.000000 0.044516
#
#
# Mechanical properties :
#
#
# Convention : Reuss Voigt Hill
#
# Bulk Modulus (GPa) = 52.97929 53.47613 53.22771
# Shear Modulus (GPa) = 17.30505 18.41242 17.85873
#
# Velocity S-wave (km/s) = 3.26373 3.36653 3.31553
# Velocity P-wave (km/s) = 6.84203 6.93022 6.88627
#
# Compressibility (1/GPa) = 0.01887530
#
# Stress axis : x y z
#
# Youngs Moduli (GPa) = 46.52475 46.52475 69.99201
#
# Poissons Ratio (x) = 0.45048 0.33307
# Poissons Ratio (y) = 0.45048 0.33307
# Poissons Ratio (z) = 0.22140 0.22140
#
# Static dielectric constant tensor:
#      x y z
#    x 3.268580 0.000000 0.000000 
#    y 0.000000 3.268580 0.000000 
#    z 0.000000 0.000000 2.982530 
# 
# 
# High freq. dielectric constant tensor:
#      x y z
#    x 1.613130 0.000000 0.000000 
#    y 0.000000 1.613130 0.000000 
#    z 0.000000 0.000000 1.607670 
# 
# From -- ./inp_files/2293.got.cif
#   From: 2010.03.12/outbox.cif.g09.slc.cpg/sg101_2_cif.got.tgz:2293.got - 2010.04.14 01:38:52.
