data_PCOD8306756
_publ_section_title
;
Structure prediction by ZEFSAII (Michael W. Deem and Ramdas Pophale) SiO2 
 PCOD8306756
Probable space group: P 42 C M
;
_chemical_formula_sum "Si O2"
_cell_formula_units_Z 64
_cell_length_a 12.651055
_cell_length_b 12.651055
_cell_length_c 21.504723
_cell_angle_alpha 90.000000
_cell_angle_beta 90.000000
_cell_angle_gamma 90.000000
_cell_volume 3441.813554
_symmetry_space_group_name_H-M "P 42 C M"
_symmetry_group_IT_number 101
_symmetry_cell_setting 'tetragonal'
loop_
_space_group_symop_operation_xyz
x,y,z
-y,x,1/2+z
-x,-y,z
y,-x,1/2+z
-x,y,1/2+z
x,-y,1/2+z
-y,-x,z
y,x,z
loop_
_atom_site_type_symbol
_atom_site_label
_atom_site_fract_x
_atom_site_fract_y
_atom_site_fract_z
Si Si1 0.377919 0.200066 0.386000
Si Si2 0.058243 0.774243 0.185672
Si Si3 0.623093 0.992849 0.954861
Si Si4 0.770328 0.608680 0.160195
Si Si5 0.384431 0.795350 0.367172
Si Si6 0.903398 0.271009 0.574090
Si Si7 0.386546 0.778265 0.223699
Si Si8 0.720607 0.117410 0.770315
O O1 0.302470 0.302470 0.390001
O O2 0.499420 0.240289 0.392579
O O3 0.370883 0.135015 0.320915
O O4 0.343220 0.111763 0.435756
O O5 0.109749 0.890252 0.189027
O O6 0.147468 0.685259 0.181035
O O7 0.984997 0.769748 0.125628
O O8 0.001575 0.751443 0.252134
O O9 0.646739 0.904745 0.901575
O O10 0.500000 0.000000 0.971958
O O11 0.694931 0.966885 0.013604
O O12 0.649618 0.649618 0.151928
O O13 0.836186 0.625650 0.096427
O O14 0.770475 0.492182 0.184997
O O15 0.829321 0.685414 0.206966
O O16 0.296950 0.703051 0.380267
O O17 0.396567 0.820912 0.293982
O O18 0.824164 0.175837 0.557687
O O19 0.339168 0.660833 0.227304
O O20 0.825723 0.174277 0.796512
#
# Coordination Sequence:
#
# PCOD8306756 Si02
#       8
#     8   8   8   8   8   8   8   8
#     4  10  20  36  56  84 117 149 190 236 286 337
#     4  10  21  34  51  79 111 142 182 231 283 338
#     4  10  22  37  57  83 111 149 195 236 281 329
#     4   9  18  33  53  78 108 140 179 224 272 326
#     4  10  20  36  59  86 119 155 190 233 282 338
#     4  10  22  38  58  79 102 144 191 233 278 330
#     4  10  20  32  52  83 114 145 178 222 281 336
#     4   9  17  31  52  76 106 142 176 219 275 334
#
# _framework density 18.594846
#
# number of rings (size 3 to 8) (size 9 to 14) (size 15 to 20)
#    0.000    2.250    1.250    2.250    1.750    3.500 
#    0.000    1.875    0.000    2.625    0.000    1.750 
#    0.000    0.000    0.000    0.000    0.000    0.000 
#
# Total GULP energy -792963.465344 kJ/mol
# GULP energy per Si atom -12390.054146 kJ/mol
# Density = 1.855252 g / cm^3
# Si number density = 18.594846 Si / 1000 Ang^3
#
#
#
# Elastic Constant Matrix: (Units=GPa)
#
#
# Indices 1 2 3 4 5 6 
#
# 1 98.3241 33.1465 22.6496 0.0000 0.0000 -0.0004
# 2 33.1465 98.3241 22.6496 0.0000 0.0000 0.0004
# 3 22.6496 22.6496 56.6758 0.0000 0.0000 0.0000
# 4 0.0000 0.0000 0.0000 22.3212 0.0000 0.0000
# 5 0.0000 0.0000 0.0000 0.0000 22.3212 0.0000
# 6 -0.0004 0.0004 0.0000 0.0000 0.0000 25.4080
#
#
#
# Elastic Compliance Matrix: (Units=1/GPa)
#
#
# Indices 1 2 3 4 5 6 
#
# 1 0.012082 -0.003261 -0.003525 0.000000 0.000000 0.000000
# 2 -0.003261 0.012082 -0.003525 0.000000 0.000000 0.000000
# 3 -0.003525 -0.003525 0.020462 0.000000 0.000000 0.000000
# 4 0.000000 0.000000 0.000000 0.044801 0.000000 0.000000
# 5 0.000000 0.000000 0.000000 0.000000 0.044801 0.000000
# 6 0.000000 0.000000 0.000000 0.000000 0.000000 0.039358
#
#
# Mechanical properties :
#
#
# Convention : Reuss Voigt Hill
#
# Bulk Modulus (GPa) = 41.66147 45.57948 43.62048
# Shear Modulus (GPa) = 24.72708 25.66861 25.19784
#
# Velocity S-wave (km/s) = 3.65057 3.71942 3.68516
# Velocity P-wave (km/s) = 6.34211 6.55825 6.45108
#
# Compressibility (1/GPa) = 0.02400299
#
# Stress axis : x y z
#
# Youngs Moduli (GPa) = 82.76919 82.76919 48.87168
#
# Poissons Ratio (x) = 0.26990 0.17228
# Poissons Ratio (y) = 0.26990 0.17228
# Poissons Ratio (z) = 0.29177 0.29177
#
# Static dielectric constant tensor:
#      x y z
#    x 3.471410 0.000000 0.000000 
#    y 0.000000 3.471410 0.000000 
#    z 0.000000 0.000000 3.318120 
# 
# 
# High freq. dielectric constant tensor:
#      x y z
#    x 1.720950 0.000000 0.000000 
#    y 0.000000 1.720950 0.000000 
#    z 0.000000 0.000000 1.707680 
# 
# From -- ./inp_files/2751.got.cif
#   From: 2010.03.12/outbox.cif.g09.slc.cpg/sg101_2_cif.got.tgz:2751.got - 2010.04.14 01:38:52.
