data_PCOD8306999
_publ_section_title
;
Structure prediction by ZEFSAII (Michael W. Deem and Ramdas Pophale) SiO2 
 PCOD8306999
Probable space group: P 4 C C
;
_chemical_formula_sum "Si O2"
_cell_formula_units_Z 36
_cell_length_a 14.030268
_cell_length_b 14.030268
_cell_length_c 9.745875
_cell_angle_alpha 90.000000
_cell_angle_beta 90.000000
_cell_angle_gamma 90.000000
_cell_volume 1918.460097
_symmetry_space_group_name_H-M "P 4 C C"
_symmetry_group_IT_number 103
_symmetry_cell_setting 'tetragonal'
loop_
_space_group_symop_operation_xyz
x,y,z
-y,x,z
-x,-y,z
y,-x,z
-x,y,1/2+z
x,-y,1/2+z
-y,-x,1/2+z
y,x,1/2+z
loop_
_atom_site_type_symbol
_atom_site_label
_atom_site_fract_x
_atom_site_fract_y
_atom_site_fract_z
Si Si1 0.680834 0.080373 0.010540
Si Si2 0.706113 0.705776 0.929458
Si Si3 0.400920 0.623141 0.680118
Si Si4 0.500000 0.000000 0.414514
Si Si5 0.679294 0.915791 0.819198
O O1 0.721592 0.076740 0.165413
O O2 0.697924 0.180983 0.940383
O O3 0.566508 0.064878 0.012402
O O4 0.729330 0.995807 0.918008
O O5 0.661872 0.626518 0.829458
O O6 0.690154 0.811516 0.877973
O O7 0.654209 0.690551 0.074088
O O8 0.367460 0.514143 0.661804
O O9 0.434341 0.934931 0.316098
#
# Coordination Sequence:
#
# PCOD8306999 Si02
#       5
#     8   8   8   4   8
#     4  10  23  38  60  93 121 159 210 267 326 375
#     4  12  24  39  66  89 130 172 216 264 326 390
#     4  11  26  40  56  88 128 177 224 258 302 379
#     4   8  22  36  66  88 126 156 214 284 322 372
#     4  10  23  38  60  93 121 159 210 267 326 375
#
# _framework density 18.765051
#
# number of rings (size 3 to 8) (size 9 to 14) (size 15 to 20)
#    1.333    0.222    2.222    2.000    9.333    1.778 
#    0.000    0.000    0.000    0.667    0.000    3.111 
#    0.000    0.000    0.000    0.000    0.000    0.000 
#
# Total GULP energy -446124.133345 kJ/mol
# GULP energy per Si atom -12392.337037 kJ/mol
# Density = 1.872234 g / cm^3
# Si number density = 18.765051 Si / 1000 Ang^3
#
#
#
# Elastic Constant Matrix: (Units=GPa)
#
#
# Indices 1 2 3 4 5 6 
#
# 1 93.9989 41.5145 36.6273 0.0000 0.0000 0.0000
# 2 41.5145 93.9989 36.6273 0.0000 0.0000 0.0000
# 3 36.6273 36.6273 70.1976 0.0000 0.0000 0.0000
# 4 0.0000 0.0000 0.0000 30.5279 0.0000 0.0000
# 5 0.0000 0.0000 0.0000 0.0000 30.5279 0.0000
# 6 0.0000 0.0000 0.0000 0.0000 0.0000 25.0192
#
#
#
# Elastic Compliance Matrix: (Units=1/GPa)
#
#
# Indices 1 2 3 4 5 6 
#
# 1 0.014666 -0.004387 -0.005363 0.000000 0.000000 0.000000
# 2 -0.004387 0.014666 -0.005363 0.000000 0.000000 0.000000
# 3 -0.005363 -0.005363 0.019842 0.000000 0.000000 0.000000
# 4 0.000000 0.000000 0.000000 0.032757 0.000000 0.000000
# 5 0.000000 0.000000 0.000000 0.000000 0.032757 0.000000
# 6 0.000000 0.000000 0.000000 0.000000 0.000000 0.039969
#
#
# Mechanical properties :
#
#
# Convention : Reuss Voigt Hill
#
# Bulk Modulus (GPa) = 52.77919 54.19262 53.48591
# Shear Modulus (GPa) = 26.15068 26.77674 26.46371
#
# Velocity S-wave (km/s) = 3.73712 3.78159 3.75942
# Velocity P-wave (km/s) = 6.84170 6.92889 6.88543
#
# Compressibility (1/GPa) = 0.01894686
#
# Stress axis : x y z
#
# Youngs Moduli (GPa) = 68.18559 68.18559 50.39797
#
# Poissons Ratio (x) = 0.29916 0.27029
# Poissons Ratio (y) = 0.29916 0.27029
# Poissons Ratio (z) = 0.36568 0.36568
#
# Static dielectric constant tensor:
#      x y z
#    x 3.245800 0.000000 0.000000 
#    y 0.000000 3.245800 0.000000 
#    z 0.000000 0.000000 3.502400 
# 
# 
# High freq. dielectric constant tensor:
#      x y z
#    x 1.714130 0.000000 0.000000 
#    y 0.000000 1.714130 0.000000 
#    z 0.000000 0.000000 1.740340 
# 
# From -- ./inp_files/169.got.cif
#   From: 2010.03.12/outbox.cif.g09.slc.cpg/sg103_cif.got.tgz:169.got - 2010.04.14 01:42:52.
