data_PCOD8306407
_publ_section_title
;
Structure prediction by ZEFSAII (Michael W. Deem and Ramdas Pophale) SiO2 
 PCOD8306407
Probable space group: I 41 2 2
;
_chemical_formula_sum "Si O2"
_cell_formula_units_Z 32
_cell_length_a 9.488370
_cell_length_b 9.488370
_cell_length_c 13.023442
_cell_angle_alpha 90.000000
_cell_angle_beta 90.000000
_cell_angle_gamma 90.000000
_cell_volume 1172.489612
_symmetry_space_group_name_H-M "I 41 2 2"
_symmetry_group_IT_number 98
_symmetry_cell_setting 'tetragonal'
loop_
_space_group_symop_operation_xyz
x,y,z
-y,1/2+x,1/4+z
-x,-y,z
y,1/2-x,1/4+z
x,1/2-y,1/4-z
-x,1/2+y,1/4-z
y,x,-z
-y,-x,-z
1/2+x,1/2+y,1/2+z
1/2-y,x,3/4+z
1/2-x,1/2-y,1/2+z
1/2+y,-x,3/4+z
1/2+x,-y,3/4-z
1/2-x,y,3/4-z
1/2+y,1/2+x,1/2-z
1/2-y,1/2-x,1/2-z
loop_
_atom_site_type_symbol
_atom_site_label
_atom_site_fract_x
_atom_site_fract_y
_atom_site_fract_z
Si Si1 0.202320 0.984779 0.551932
Si Si2 0.307529 0.428214 0.270797
O O1 0.166657 0.833344 0.500000
O O2 0.363273 0.034208 0.533819
O O3 0.183314 0.967864 0.674570
O O4 0.098715 0.098715 0.500000
O O5 0.250000 0.505461 0.375000
O O6 0.201348 0.298653 0.250000
#
# Coordination Sequence:
#
# PCOD8306407 Si02
#       2
#    16  16
#     4   9  15  23  40  69  94 120 161 208 251 299
#     4   8  14  25  40  63  95 121 155 212 261 294
#
# _framework density 27.292352999999999
#
# number of rings (size 3 to 8) (size 9 to 14) (size 15 to 20)
#    0.000    3.500    0.000    4.500    0.000    0.000 
#    0.000    0.000    0.000    0.000    0.000  147.000 
#    0.000    0.000    0.000    0.000    0.000    0.000 
#
# Total GULP energy -198209.510104 kJ/mol
# GULP energy per Si atom -12388.094381 kJ/mol
# Density = 2.723023 g / cm^3
# Si number density = 27.292353 Si / 1000 Ang^3
#
#
#
# Elastic Constant Matrix: (Units=GPa)
#
#
# Indices 1 2 3 4 5 6 
#
# 1 64.8342 21.5291 56.5997 0.0000 0.0000 0.0000
# 2 21.5291 64.8358 56.6003 0.0000 0.0000 0.0000
# 3 56.5997 56.6003 316.3166 0.0000 0.0000 0.0000
# 4 0.0000 0.0000 0.0000 34.1600 0.0000 0.0000
# 5 0.0000 0.0000 0.0000 0.0000 34.1597 0.0000
# 6 0.0000 0.0000 0.0000 0.0000 0.0000 11.6452
#
#
#
# Elastic Compliance Matrix: (Units=1/GPa)
#
#
# Indices 1 2 3 4 5 6 
#
# 1 0.019109 -0.003982 -0.002707 0.000000 0.000000 0.000000
# 2 -0.003982 0.019109 -0.002707 0.000000 0.000000 0.000000
# 3 -0.002707 -0.002707 0.004130 0.000000 0.000000 0.000000
# 4 0.000000 0.000000 0.000000 0.029274 0.000000 0.000000
# 5 0.000000 0.000000 0.000000 0.000000 0.029274 0.000000
# 6 0.000000 0.000000 0.000000 0.000000 0.000000 0.085872
#
#
# Mechanical properties :
#
#
# Convention : Reuss Voigt Hill
#
# Bulk Modulus (GPa) = 42.45109 79.49387 60.97248
# Shear Modulus (GPa) = 23.42879 36.74347 30.08613
#
# Velocity S-wave (km/s) = 2.93309 3.67317 3.32379
# Velocity P-wave (km/s) = 5.20179 6.86874 6.09255
#
# Compressibility (1/GPa) = 0.02355652
#
# Stress axis : x y z
#
# Youngs Moduli (GPa) = 52.33055 52.33182 242.12942
#
# Poissons Ratio (x) = 0.20841 0.65537
# Poissons Ratio (y) = 0.20841 0.65536
# Poissons Ratio (z) = 0.14164 0.14164
#
# Static dielectric constant tensor:
#      x y z
#    x 4.839520 0.000000 0.000000 
#    y 0.000000 4.839510 0.000000 
#    z 0.000000 0.000000 5.537110 
# 
# 
# High freq. dielectric constant tensor:
#      x y z
#    x 2.068780 0.000000 0.000000 
#    y 0.000000 2.068780 0.000000 
#    z 0.000000 0.000000 2.115940 
# 
# From -- ./inp_files/4116.got.cif
#   From: 2010.03.12/outbox.cif.g09.slc.cpg/sg98_3_cif.got.tgz:4116.got - 2010.04.08 21:04:41.
