data_PCOD8306224
_publ_section_title
;
Structure prediction by ZEFSAII (Michael W. Deem and Ramdas Pophale) SiO2 
 PCOD8306224
Probable space group: I 41 2 2
;
_chemical_formula_sum "Si O2"
_cell_formula_units_Z 88
_cell_length_a 17.424807
_cell_length_b 17.424807
_cell_length_c 15.648547
_cell_angle_alpha 90.000000
_cell_angle_beta 90.000000
_cell_angle_gamma 90.000000
_cell_volume 4751.272854
_symmetry_space_group_name_H-M "I 41 2 2"
_symmetry_group_IT_number 98
_symmetry_cell_setting 'tetragonal'
loop_
_space_group_symop_operation_xyz
x,y,z
-y,1/2+x,1/4+z
-x,-y,z
y,1/2-x,1/4+z
x,1/2-y,1/4-z
-x,1/2+y,1/4-z
y,x,-z
-y,-x,-z
1/2+x,1/2+y,1/2+z
1/2-y,x,3/4+z
1/2-x,1/2-y,1/2+z
1/2+y,-x,3/4+z
1/2+x,-y,3/4-z
1/2-x,y,3/4-z
1/2+y,1/2+x,1/2-z
1/2-y,1/2-x,1/2-z
loop_
_atom_site_type_symbol
_atom_site_label
_atom_site_fract_x
_atom_site_fract_y
_atom_site_fract_z
Si Si1 0.668386 0.515326 0.403624
Si Si2 0.629822 0.318795 0.829175
Si Si3 0.697800 0.994526 0.653254
Si Si4 0.215553 0.715553 0.750000
Si Si5 0.931168 0.054192 0.215406
Si Si6 0.312489 0.170019 0.651879
O O1 0.750000 0.480591 0.375000
O O2 0.654358 0.512245 0.505714
O O3 0.606951 0.460597 0.361004
O O4 0.662329 0.601125 0.363570
O O5 0.558638 0.261807 0.837811
O O6 0.692467 0.294763 0.757486
O O7 0.672239 0.321535 0.919747
O O8 0.596394 0.400678 0.800118
O O9 0.640357 0.009757 0.575372
O O10 0.733574 0.909190 0.631264
O O11 0.000000 0.000000 0.246810
O O12 0.270803 0.250000 0.625000
O O13 0.322238 0.177763 0.750000
#
# Coordination Sequence:
#
# PCOD8306224 Si02
#       6
#    16  16  16   8  16  16
#     4  10  19  31  49  80 122 158 192 238 302 368
#     4  11  23  40  62  92 124 164 209 261 319 385
#     4  11  21  33  56  85 121 164 200 249 307 373
#     4  10  24  42  63  90 127 168 208 264 326 380
#     4  12  23  35  56  90 122 162 209 253 304 378
#     4   9  19  34  53  78 115 156 194 243 298 364
#
# _framework density 18.521353000000001
#
# number of rings (size 3 to 8) (size 9 to 14) (size 15 to 20)
#    0.000    1.455    5.455    0.545    2.545    0.727 
#    0.000    0.455    0.000    4.364    0.000    0.000 
#    0.000    0.000    0.000    0.000    0.000    0.000 
#
# Total GULP energy -545161.823792 kJ/mol
# GULP energy per Si atom -12390.041450 kJ/mol
# Density = 1.847920 g / cm^3
# Si number density = 18.521353 Si / 1000 Ang^3
#
#
#
# Elastic Constant Matrix: (Units=GPa)
#
#
# Indices 1 2 3 4 5 6 
#
# 1 118.4903 52.3761 41.1479 0.0000 0.0000 0.0000
# 2 52.3761 118.4902 41.1481 0.0000 0.0000 0.0000
# 3 41.1479 41.1481 65.6284 0.0000 0.0000 0.0000
# 4 0.0000 0.0000 0.0000 21.8665 0.0000 0.0000
# 5 0.0000 0.0000 0.0000 0.0000 21.8666 0.0000
# 6 0.0000 0.0000 0.0000 0.0000 0.0000 32.9804
#
#
#
# Elastic Compliance Matrix: (Units=1/GPa)
#
#
# Indices 1 2 3 4 5 6 
#
# 1 0.011755 -0.003370 -0.005257 0.000000 0.000000 0.000000
# 2 -0.003370 0.011755 -0.005257 0.000000 0.000000 0.000000
# 3 -0.005257 -0.005257 0.021829 0.000000 0.000000 0.000000
# 4 0.000000 0.000000 0.000000 0.045732 0.000000 0.000000
# 5 0.000000 0.000000 0.000000 0.000000 0.045732 0.000000
# 6 0.000000 0.000000 0.000000 0.000000 0.000000 0.030321
#
#
# Mechanical properties :
#
#
# Convention : Reuss Voigt Hill
#
# Bulk Modulus (GPa) = 56.91344 63.55035 60.23189
# Shear Modulus (GPa) = 24.90665 26.53849 25.72257
#
# Velocity S-wave (km/s) = 3.67107 3.78942 3.73071
# Velocity P-wave (km/s) = 6.98314 7.31660 7.15182
#
# Compressibility (1/GPa) = 0.01757054
#
# Stress axis : x y z
#
# Youngs Moduli (GPa) = 85.07093 85.07068 45.80990
#
# Poissons Ratio (x) = 0.28673 0.24082
# Poissons Ratio (y) = 0.28673 0.24082
# Poissons Ratio (z) = 0.44721 0.44721
#
# Static dielectric constant tensor:
#      x y z
#    x 3.678550 0.000000 0.000000 
#    y 0.000000 3.678630 0.000000 
#    z 0.000000 0.000000 3.250700 
# 
# 
# High freq. dielectric constant tensor:
#      x y z
#    x 1.713460 0.000000 0.000000 
#    y 0.000000 1.713460 0.000000 
#    z 0.000000 0.000000 1.695610 
# 
# From -- ./inp_files/6556.got.cif
#   From: 2010.03.12/outbox.cif.g09.slc.cpg/sg98_4_cif.got.tgz:6556.got - 2010.04.08 21:04:41.
