data_PCOD8306164
_publ_section_title
;
Structure prediction by ZEFSAII (Michael W. Deem and Ramdas Pophale) SiO2 
 PCOD8306164
Probable space group: I 4 2 2 
;
_chemical_formula_sum "Si O2"
_cell_formula_units_Z 72
_cell_length_a 14.274899
_cell_length_b 14.274899
_cell_length_c 18.017949
_cell_angle_alpha 90.000000
_cell_angle_beta 90.000000
_cell_angle_gamma 90.000000
_cell_volume 3671.566863
_symmetry_space_group_name_H-M "I 4 2 2 "
_symmetry_group_IT_number 97
_symmetry_cell_setting 'tetragonal'
loop_
_space_group_symop_operation_xyz
x,y,z
-y,x,z
-x,-y,z
y,-x,z
x,-y,-z
-x,y,-z
y,x,-z
-y,-x,-z
1/2+x,1/2+y,1/2+z
1/2-y,1/2+x,1/2+z
1/2-x,1/2-y,1/2+z
1/2+y,1/2-x,1/2+z
1/2+x,1/2-y,1/2-z
1/2-x,1/2+y,1/2-z
1/2+y,1/2+x,1/2-z
1/2-y,1/2-x,1/2-z
loop_
_atom_site_type_symbol
_atom_site_label
_atom_site_fract_x
_atom_site_fract_y
_atom_site_fract_z
Si Si1 0.597441 0.054604 0.640341
Si Si2 0.347831 0.693921 0.252405
Si Si3 0.472188 0.224303 0.283149
Si Si4 0.283911 0.000000 0.500000
Si Si5 0.566401 0.641084 0.898986
O O1 0.572359 0.164029 0.650507
O O2 0.662279 0.020774 0.708177
O O3 0.651337 0.045900 0.562921
O O4 0.500000 0.000000 0.640161
O O5 0.253361 0.753361 0.250000
O O6 0.423707 0.741215 0.307637
O O7 0.318323 0.589359 0.273819
O O8 0.405066 0.692734 0.175819
O O9 0.217247 0.918000 0.464595
O O10 0.454581 0.623067 0.905426
#
# Coordination Sequence:
#
# PCOD8306164 Si02
#       5
#    16  16  16   8  16
#     4  11  22  42  60  89 128 174 218 268 327 391
#     4  12  21  38  64  94 128 170 217 271 329 398
#     4  11  23  39  64  93 126 169 220 271 328 390
#     4  12  23  39  62  90 126 178 218 259 327 412
#     4  11  23  40  60  92 133 171 209 264 342 406
#
# _framework density 19.610157000000001
#
# number of rings (size 3 to 8) (size 9 to 14) (size 15 to 20)
#    0.000    0.667    6.667    3.667    0.000    1.333 
#    0.000    0.000    0.000    0.000    0.000    0.000 
#    0.000    0.000    1.778    0.000    0.000    0.000 
#
# Total GULP energy -446182.415949 kJ/mol
# GULP energy per Si atom -12393.955999 kJ/mol
# Density = 1.956552 g / cm^3
# Si number density = 19.610157 Si / 1000 Ang^3
#
#
#
# Elastic Constant Matrix: (Units=GPa)
#
#
# Indices 1 2 3 4 5 6 
#
# 1 104.0108 42.7876 34.7686 0.0000 0.0000 0.0000
# 2 42.7876 104.0108 34.7686 0.0000 0.0000 0.0000
# 3 34.7686 34.7686 93.9819 0.0000 0.0000 0.0000
# 4 0.0000 0.0000 0.0000 29.2002 0.0000 0.0000
# 5 0.0000 0.0000 0.0000 0.0000 29.2002 0.0000
# 6 0.0000 0.0000 0.0000 0.0000 0.0000 41.9407
#
#
#
# Elastic Compliance Matrix: (Units=1/GPa)
#
#
# Indices 1 2 3 4 5 6 
#
# 1 0.012297 -0.004037 -0.003056 0.000000 0.000000 0.000000
# 2 -0.004037 0.012297 -0.003056 0.000000 0.000000 0.000000
# 3 -0.003056 -0.003056 0.012901 0.000000 0.000000 0.000000
# 4 0.000000 0.000000 0.000000 0.034246 0.000000 0.000000
# 5 0.000000 0.000000 0.000000 0.000000 0.034246 0.000000
# 6 0.000000 0.000000 0.000000 0.000000 0.000000 0.023843
#
#
# Mechanical properties :
#
#
# Convention : Reuss Voigt Hill
#
# Bulk Modulus (GPa) = 58.14710 58.51700 58.33205
# Shear Modulus (GPa) = 32.08022 32.71348 32.39685
#
# Velocity S-wave (km/s) = 4.04901 4.08878 4.06894
# Velocity P-wave (km/s) = 7.18159 7.22466 7.20316
#
# Compressibility (1/GPa) = 0.01719776
#
# Stress axis : x y z
#
# Youngs Moduli (GPa) = 81.32350 81.32350 77.51230
#
# Poissons Ratio (x) = 0.32831 0.23685
# Poissons Ratio (y) = 0.32831 0.23685
# Poissons Ratio (z) = 0.24849 0.24849
#
# Static dielectric constant tensor:
#      x y z
#    x 3.784330 0.000000 0.000000 
#    y 0.000000 3.784330 0.000000 
#    z 0.000000 0.000000 3.476780 
# 
# 
# High freq. dielectric constant tensor:
#      x y z
#    x 1.774410 0.000000 0.000000 
#    y 0.000000 1.774410 0.000000 
#    z 0.000000 0.000000 1.730290 
# 
# From -- ./inp_files/5572.got.cif
#   From: 2010.03.12/outbox.cif.g09.slc.cpg/sg97_3_cif.got.tgz:5572.got - 2010.04.08 20:59:42.
