data_PCOD8306778
_publ_section_title
;
Structure prediction by ZEFSAII (Michael W. Deem and Ramdas Pophale) SiO2 
 PCOD8306778
Probable space group: P 42 C M
;
_chemical_formula_sum "Si O2"
_cell_formula_units_Z 64
_cell_length_a 12.652505
_cell_length_b 12.652505
_cell_length_c 22.415312
_cell_angle_alpha 90.000000
_cell_angle_beta 90.000000
_cell_angle_gamma 90.000000
_cell_volume 3588.375009
_symmetry_space_group_name_H-M "P 42 C M"
_symmetry_group_IT_number 101
_symmetry_cell_setting 'tetragonal'
loop_
_space_group_symop_operation_xyz
x,y,z
-y,x,1/2+z
-x,-y,z
y,-x,1/2+z
-x,y,1/2+z
x,-y,1/2+z
-y,-x,z
y,x,z
loop_
_atom_site_type_symbol
_atom_site_label
_atom_site_fract_x
_atom_site_fract_y
_atom_site_fract_z
Si Si1 0.140888 0.316641 0.055780
Si Si2 0.828980 0.006189 0.993301
Si Si3 0.769654 0.060816 0.371333
Si Si4 0.891926 0.565235 0.175888
Si Si5 0.431958 0.263697 0.350330
Si Si6 0.672476 0.498669 0.226564
Si Si7 0.716277 0.889391 0.282362
Si Si8 0.385133 0.782790 0.431330
O O1 0.232784 0.232784 0.071731
O O2 0.121511 0.398215 0.108280
O O3 0.029362 0.257712 0.041841
O O4 0.171615 0.385210 0.997991
O O5 0.910274 0.910274 0.987364
O O6 0.780561 0.021103 0.926953
O O7 0.885583 0.114418 0.014273
O O8 0.879176 0.120825 0.360155
O O9 0.676864 0.142022 0.385952
O O10 0.743050 0.002295 0.310106
O O11 0.785560 0.499405 0.192800
O O12 0.903668 0.668363 0.216860
O O13 0.000000 0.500000 0.183223
O O14 0.353736 0.353736 0.373464
O O15 0.506964 0.308304 0.297661
O O16 0.368538 0.164357 0.325349
O O17 0.496127 0.226599 0.408043
O O18 0.604451 0.395550 0.207350
O O19 0.606581 0.606581 0.211784
O O20 0.822075 0.822075 0.276083
O O21 0.332529 0.667472 0.431579
#
# Coordination Sequence:
#
# PCOD8306778 Si02
#       8
#     8   8   8   8   8   8   8   8
#     4   9  18  36  55  72 101 143 184 222 263 319
#     4   8  14  28  52  77 100 132 175 216 255 310
#     4   9  18  31  51  80 110 138 171 217 267 320
#     4  11  23  38  54  76 110 143 183 226 276 322
#     4   9  18  32  51  80 113 139 170 218 277 334
#     4   9  18  35  61  84 104 143 191 230 269 322
#     4  10  21  35  53  77 104 143 179 213 267 326
#     4   9  18  32  53  80 105 135 175 215 269 322
#
# _framework density 17.835370000000001
#
# number of rings (size 3 to 8) (size 9 to 14) (size 15 to 20)
#    0.000    2.750    0.000    4.125    3.500    1.500 
#    4.500    1.875    0.000    2.250    0.000    0.000 
#    0.000    0.000    0.000    0.000    0.000    0.000 
#
# Total GULP energy -793400.540055 kJ/mol
# GULP energy per Si atom -12396.883438 kJ/mol
# Density = 1.779478 g / cm^3
# Si number density = 17.835370 Si / 1000 Ang^3
#
#
#
# Elastic Constant Matrix: (Units=GPa)
#
#
# Indices 1 2 3 4 5 6 
#
# 1 85.4949 35.3913 42.2157 0.0000 0.0000 0.0001
# 2 35.3913 85.4949 42.2157 0.0000 0.0000 -0.0001
# 3 42.2157 42.2157 90.2739 0.0000 0.0000 0.0000
# 4 0.0000 0.0000 0.0000 24.7980 0.0000 0.0000
# 5 0.0000 0.0000 0.0000 0.0000 24.7980 0.0000
# 6 0.0001 -0.0001 0.0000 0.0000 0.0000 18.7353
#
#
#
# Elastic Compliance Matrix: (Units=1/GPa)
#
#
# Indices 1 2 3 4 5 6 
#
# 1 0.016122 -0.003837 -0.005745 0.000000 0.000000 0.000000
# 2 -0.003837 0.016122 -0.005745 0.000000 0.000000 0.000000
# 3 -0.005745 -0.005745 0.016450 0.000000 0.000000 0.000000
# 4 0.000000 0.000000 0.000000 0.040326 0.000000 0.000000
# 5 0.000000 0.000000 0.000000 0.000000 0.040326 0.000000
# 6 0.000000 0.000000 0.000000 0.000000 0.000000 0.053375
#
#
# Mechanical properties :
#
#
# Convention : Reuss Voigt Hill
#
# Bulk Modulus (GPa) = 55.43090 55.65659 55.54375
# Shear Modulus (GPa) = 22.79076 23.09566 22.94321
#
# Velocity S-wave (km/s) = 3.57857 3.60243 3.59052
# Velocity P-wave (km/s) = 6.94417 6.96970 6.95695
#
# Compressibility (1/GPa) = 0.01804048
#
# Stress axis : x y z
#
# Youngs Moduli (GPa) = 62.02852 62.02852 60.78886
#
# Poissons Ratio (x) = 0.23800 0.34922
# Poissons Ratio (y) = 0.23800 0.34922
# Poissons Ratio (z) = 0.35634 0.35634
#
# Static dielectric constant tensor:
#      x y z
#    x 3.228480 0.000000 0.000000 
#    y 0.000000 3.228480 0.000000 
#    z 0.000000 0.000000 3.117520 
# 
# 
# High freq. dielectric constant tensor:
#      x y z
#    x 1.681720 0.000000 0.000000 
#    y 0.000000 1.681720 0.000000 
#    z 0.000000 0.000000 1.674270 
# 
# From -- ./inp_files/2762.got.cif
#   From: 2010.03.12/outbox.cif.g09.slc.cpg/sg101_2_cif.got.tgz:2762.got - 2010.04.14 01:38:52.
