data_PCOD8306271
_publ_section_title
;
Structure prediction by ZEFSAII (Michael W. Deem and Ramdas Pophale) SiO2 
 PCOD8306271
Probable space group: I 41 2 2
;
_chemical_formula_sum "Si O2"
_cell_formula_units_Z 88
_cell_length_a 11.661730
_cell_length_b 11.661730
_cell_length_c 31.733660
_cell_angle_alpha 90.000000
_cell_angle_beta 90.000000
_cell_angle_gamma 90.000000
_cell_volume 4315.649131
_symmetry_space_group_name_H-M "I 41 2 2"
_symmetry_group_IT_number 98
_symmetry_cell_setting 'tetragonal'
loop_
_space_group_symop_operation_xyz
x,y,z
-y,1/2+x,1/4+z
-x,-y,z
y,1/2-x,1/4+z
x,1/2-y,1/4-z
-x,1/2+y,1/4-z
y,x,-z
-y,-x,-z
1/2+x,1/2+y,1/2+z
1/2-y,x,3/4+z
1/2-x,1/2-y,1/2+z
1/2+y,-x,3/4+z
1/2+x,-y,3/4-z
1/2-x,y,3/4-z
1/2+y,1/2+x,1/2-z
1/2-y,1/2-x,1/2-z
loop_
_atom_site_type_symbol
_atom_site_label
_atom_site_fract_x
_atom_site_fract_y
_atom_site_fract_z
Si Si1 0.200916 0.282667 0.918252
Si Si2 0.163939 0.639500 0.601138
Si Si3 0.500000 0.000000 0.161769
Si Si4 0.508480 0.628273 0.219636
Si Si5 0.764086 0.935321 0.549958
Si Si6 0.015247 0.363328 0.367184
O O1 0.250000 0.339572 0.875000
O O2 0.122163 0.379029 0.939770
O O3 0.299304 0.241242 0.950069
O O4 0.135877 0.166805 0.904519
O O5 0.208355 0.750000 0.625000
O O6 0.067692 0.584657 0.631197
O O7 0.283392 0.573736 0.591759
O O8 0.104094 0.664230 0.556406
O O9 0.598727 0.946403 0.191865
O O10 0.500000 0.500000 0.238912
O O11 0.515650 0.726010 0.255119
O O12 0.683166 0.993874 0.584986
O O13 0.000000 0.500000 0.364186
#
# Coordination Sequence:
#
# PCOD8306271 Si02
#       6
#    16  16   8  16  16  16
#     4  10  20  38  60  86 118 165 212 251 315 388
#     4  11  21  36  62  90 122 167 212 259 320 386
#     4  10  20  42  59  90 132 160 202 256 328 386
#     4  12  20  36  60  93 125 165 209 264 324 385
#     4  10  22  36  64  93 124 160 204 268 321 377
#     4  10  21  41  62  89 120 167 219 261 306 381
#
# _framework density 20.390906999999999
#
# number of rings (size 3 to 8) (size 9 to 14) (size 15 to 20)
#    0.000    1.455    2.727    4.909    0.000    2.182 
#    0.000   15.455    0.000    2.182    0.000    0.000 
#    0.000    0.000    0.000    0.000    0.000    0.000 
#
# Total GULP energy -545214.592219 kJ/mol
# GULP energy per Si atom -12391.240732 kJ/mol
# Density = 2.034450 g / cm^3
# Si number density = 20.390907 Si / 1000 Ang^3
#
#
#
# Elastic Constant Matrix: (Units=GPa)
#
#
# Indices 1 2 3 4 5 6 
#
# 1 137.2842 45.6215 54.0937 0.0000 0.0000 0.0000
# 2 45.6215 137.2842 54.0937 0.0000 0.0000 0.0000
# 3 54.0937 54.0937 101.3643 0.0000 0.0000 0.0000
# 4 0.0000 0.0000 0.0000 19.3953 0.0000 0.0000
# 5 0.0000 0.0000 0.0000 0.0000 19.3952 0.0000
# 6 0.0000 0.0000 0.0000 0.0000 0.0000 21.8310
#
#
#
# Elastic Compliance Matrix: (Units=1/GPa)
#
#
# Indices 1 2 3 4 5 6 
#
# 1 0.009449 -0.001460 -0.004263 0.000000 0.000000 0.000000
# 2 -0.001460 0.009449 -0.004263 0.000000 0.000000 0.000000
# 3 -0.004263 -0.004263 0.014416 0.000000 0.000000 0.000000
# 4 0.000000 0.000000 0.000000 0.051559 0.000000 0.000000
# 5 0.000000 0.000000 0.000000 0.000000 0.051559 0.000000
# 6 0.000000 0.000000 0.000000 0.000000 0.000000 0.045806
#
#
# Mechanical properties :
#
#
# Convention : Reuss Voigt Hill
#
# Bulk Modulus (GPa) = 74.96094 75.95005 75.45549
# Shear Modulus (GPa) = 24.19435 26.93255 25.56345
#
# Velocity S-wave (km/s) = 3.44834 3.63824 3.54456
# Velocity P-wave (km/s) = 7.25923 7.41464 7.33735
#
# Compressibility (1/GPa) = 0.01334028
#
# Stress axis : x y z
#
# Youngs Moduli (GPa) = 105.82762 105.82763 69.36822
#
# Poissons Ratio (x) = 0.15453 0.29575
# Poissons Ratio (y) = 0.15453 0.29575
# Poissons Ratio (z) = 0.45119 0.45119
#
# Static dielectric constant tensor:
#      x y z
#    x 3.678000 0.000000 0.000000 
#    y 0.000000 3.678000 0.000000 
#    z 0.000000 0.000000 3.581270 
# 
# 
# High freq. dielectric constant tensor:
#      x y z
#    x 1.792710 0.000000 0.000000 
#    y 0.000000 1.792710 0.000000 
#    z 0.000000 0.000000 1.783860 
# 
# From -- ./inp_files/11949.got.cif
#   From: 2010.03.12/outbox.cif.g09.slc.cpg/sg98_6_cif.got.tgz:11949.got - 2010.04.08 21:04:41.
