data_PCOD8306891
_publ_section_title
;
Structure prediction by ZEFSAII (Michael W. Deem and Ramdas Pophale) SiO2 
 PCOD8306891
Probable space group: P 42 N M
;
_chemical_formula_sum "Si O2"
_cell_formula_units_Z 64
_cell_length_a 12.551847
_cell_length_b 12.551847
_cell_length_c 23.731543
_cell_angle_alpha 90.000000
_cell_angle_beta 90.000000
_cell_angle_gamma 90.000000
_cell_volume 3738.877620
_symmetry_space_group_name_H-M "P 42 N M"
_symmetry_group_IT_number 102
_symmetry_cell_setting 'tetragonal'
loop_
_space_group_symop_operation_xyz
x,y,z
1/2-y,1/2+x,1/2+z
-x,-y,z
1/2+y,1/2-x,1/2+z
1/2-x,1/2+y,1/2+z
1/2+x,1/2-y,1/2+z
-y,-x,z
y,x,z
loop_
_atom_site_type_symbol
_atom_site_label
_atom_site_fract_x
_atom_site_fract_y
_atom_site_fract_z
Si Si1 0.202847 0.623067 0.320390
Si Si2 0.621709 0.790602 0.192321
Si Si3 0.378418 0.206077 0.583106
Si Si4 0.793924 0.378416 0.583105
Si Si5 0.126545 0.500000 0.889351
Si Si6 0.209399 0.621710 0.192321
Si Si7 0.499999 0.873359 0.016529
Si Si8 0.623067 0.797155 0.320389
O O1 0.307738 0.692263 0.333538
O O2 0.106076 0.667561 0.358073
O O3 0.165215 0.634677 0.255592
O O4 0.230810 0.500000 0.334170
O O5 0.673956 0.673956 0.187165
O O6 0.679124 0.871831 0.149603
O O7 0.500000 0.778292 0.174673
O O8 0.634675 0.834789 0.255592
O O9 0.308822 0.308822 0.567139
O O10 0.500001 0.232238 0.567310
O O11 0.371833 0.179123 0.649603
O O12 0.332483 0.106030 0.547873
O O13 0.691182 0.308819 0.567138
O O14 0.893973 0.332482 0.547873
O O15 0.170873 0.500001 0.952874
O O16 0.167561 0.606075 0.858073
O O17 0.000000 0.500000 0.887786
O O18 0.326045 0.673956 0.187162
O O19 0.500000 0.000000 0.017909
O O20 0.692265 0.692265 0.333536
#
# Coordination Sequence:
#
# PCOD8306891 Si02
#       8
#     8   8   8   8   8   8   8   8
#     4   9  18  31  49  75 102 133 169 209 254 300
#     4   9  17  29  47  73 104 134 169 209 253 300
#     4  10  20  33  51  75 101 132 167 208 254 303
#     4  10  20  33  51  75 101 132 167 208 254 303
#     4   9  18  32  50  73  99 131 167 204 245 292
#     4   9  17  29  47  73 104 134 169 209 253 300
#     4   9  18  34  52  71  97 131 169 206 243 290
#     4   9  18  31  49  75 102 133 169 209 254 300
#
# _framework density 17.117436999999999
#
# number of rings (size 3 to 8) (size 9 to 14) (size 15 to 20)
#    0.000    2.750    1.250    0.000    1.750    1.750 
#    0.000    2.500    0.000    0.750    0.000    8.750 
#    0.000    0.000    0.000    0.000    0.000    0.000 
#
# Total GULP energy -793495.264981 kJ/mol
# GULP energy per Si atom -12398.363515 kJ/mol
# Density = 1.707848 g / cm^3
# Si number density = 17.117437 Si / 1000 Ang^3
#
#
#
# Elastic Constant Matrix: (Units=GPa)
#
#
# Indices 1 2 3 4 5 6 
#
# 1 91.6009 53.7044 41.3744 0.0000 0.0000 0.0002
# 2 53.7044 91.6009 41.3744 0.0000 0.0000 -0.0002
# 3 41.3744 41.3744 96.1157 0.0000 0.0000 0.0000
# 4 0.0000 0.0000 0.0000 19.5308 0.0000 0.0000
# 5 0.0000 0.0000 0.0000 0.0000 19.5308 0.0000
# 6 0.0002 -0.0002 0.0000 0.0000 0.0000 17.0828
#
#
#
# Elastic Compliance Matrix: (Units=1/GPa)
#
#
# Indices 1 2 3 4 5 6 
#
# 1 0.017752 -0.008635 -0.003925 0.000000 0.000000 0.000000
# 2 -0.008635 0.017752 -0.003925 0.000000 0.000000 0.000000
# 3 -0.003925 -0.003925 0.013783 0.000000 0.000000 0.000000
# 4 0.000000 0.000000 0.000000 0.051201 0.000000 0.000000
# 5 0.000000 0.000000 0.000000 0.000000 0.051201 0.000000
# 6 0.000000 0.000000 0.000000 0.000000 0.000000 0.058538
#
#
# Mechanical properties :
#
#
# Convention : Reuss Voigt Hill
#
# Bulk Modulus (GPa) = 61.27935 61.35825 61.31880
# Shear Modulus (GPa) = 20.10964 20.75316 20.43140
#
# Velocity S-wave (km/s) = 3.43126 3.48573 3.45860
# Velocity P-wave (km/s) = 7.18158 7.21967 7.20065
#
# Compressibility (1/GPa) = 0.01631871
#
# Stress axis : x y z
#
# Youngs Moduli (GPa) = 56.33057 56.33057 72.55366
#
# Poissons Ratio (x) = 0.48643 0.28474
# Poissons Ratio (y) = 0.48643 0.28474
# Poissons Ratio (z) = 0.22107 0.22107
#
# Static dielectric constant tensor:
#      x y z
#    x 3.041390 0.000000 0.000000 
#    y 0.000000 3.041390 0.000000 
#    z 0.000000 0.000000 3.355270 
# 
# 
# High freq. dielectric constant tensor:
#      x y z
#    x 1.643430 0.000000 0.000000 
#    y 0.000000 1.643430 0.000000 
#    z 0.000000 0.000000 1.665860 
# 
# From -- ./inp_files/3397.got.cif
#   From: 2010.03.12/outbox.cif.g09.slc.cpg/sg102_2_cif.got.tgz:3397.got - 2010.04.14 01:40:42.
