data_PCOD8306833
_publ_section_title
;
Structure prediction by ZEFSAII (Michael W. Deem and Ramdas Pophale) SiO2 
 PCOD8306833
Probable space group: P 42 N M
;
_chemical_formula_sum "Si O2"
_cell_formula_units_Z 40
_cell_length_a 13.630019
_cell_length_b 13.630019
_cell_length_c 12.526102
_cell_angle_alpha 90.000000
_cell_angle_beta 90.000000
_cell_angle_gamma 90.000000
_cell_volume 2327.066886
_symmetry_space_group_name_H-M "P 42 N M"
_symmetry_group_IT_number 102
_symmetry_cell_setting 'tetragonal'
loop_
_space_group_symop_operation_xyz
x,y,z
1/2-y,1/2+x,1/2+z
-x,-y,z
1/2+y,1/2-x,1/2+z
1/2-x,1/2+y,1/2+z
1/2+x,1/2-y,1/2+z
-y,-x,z
y,x,z
loop_
_atom_site_type_symbol
_atom_site_label
_atom_site_fract_x
_atom_site_fract_y
_atom_site_fract_z
Si Si1 0.341541 0.497927 0.462150
Si Si2 0.006193 0.346741 0.359978
Si Si3 0.614390 0.032929 0.588695
Si Si4 0.982240 0.657795 0.811502
Si Si5 0.248960 0.087741 0.162066
O O1 0.418083 0.581918 0.432105
O O2 0.391151 0.391151 0.455345
O O3 0.257577 0.504192 0.374229
O O4 0.303711 0.511407 0.582947
O O5 0.004073 0.323103 0.486221
O O6 0.894460 0.379666 0.337538
O O7 0.084120 0.431730 0.341928
O O8 0.035909 0.259560 0.278764
O O9 0.674223 0.982931 0.684614
O O10 0.617031 0.149659 0.605092
O O11 0.500000 0.000000 0.583448
O O12 0.185959 0.185959 0.178149
#
# Coordination Sequence:
#
# PCOD8306833 Si02
#       5
#     8   8   8   8   8
#     4  10  21  38  57  77 110 150 188 231 275 330
#     4  10  18  31  55  79 110 143 177 229 279 327
#     4  11  17  32  54  80 109 148 183 227 285 329
#     4  10  18  30  55  80 105 140 186 224 276 329
#     4  10  20  34  53  81 112 145 187 232 278 334
#
# _framework density 17.189019999999999
#
# number of rings (size 3 to 8) (size 9 to 14) (size 15 to 20)
#    0.000    1.800    8.000    0.000    0.000    3.200 
#    0.000    3.000    0.000    0.000    0.000    2.800 
#    0.000    0.000    0.000    0.000    0.000    0.000 
#
# Total GULP energy -495644.322873 kJ/mol
# GULP energy per Si atom -12391.108072 kJ/mol
# Density = 1.714990 g / cm^3
# Si number density = 17.189020 Si / 1000 Ang^3
#
#
#
# Elastic Constant Matrix: (Units=GPa)
#
#
# Indices 1 2 3 4 5 6 
#
# 1 79.5912 32.4217 52.8697 0.0000 0.0000 -0.0003
# 2 32.4217 79.5912 52.8697 0.0000 0.0000 0.0003
# 3 52.8697 52.8697 180.3477 0.0000 0.0000 0.0000
# 4 0.0000 0.0000 0.0000 24.4825 0.0000 0.0000
# 5 0.0000 0.0000 0.0000 0.0000 24.4825 0.0000
# 6 -0.0003 0.0003 0.0000 0.0000 0.0000 22.9716
#
#
#
# Elastic Compliance Matrix: (Units=1/GPa)
#
#
# Indices 1 2 3 4 5 6 
#
# 1 0.016772 -0.004428 -0.003619 0.000000 0.000000 0.000000
# 2 -0.004428 0.016772 -0.003619 0.000000 0.000000 0.000000
# 3 -0.003619 -0.003619 0.007666 0.000000 0.000000 0.000000
# 4 0.000000 0.000000 0.000000 0.040845 0.000000 0.000000
# 5 0.000000 0.000000 0.000000 0.000000 0.040845 0.000000
# 6 0.000000 0.000000 0.000000 0.000000 0.000000 0.043532
#
#
# Mechanical properties :
#
#
# Convention : Reuss Voigt Hill
#
# Bulk Modulus (GPa) = 55.93110 68.42802 62.17956
# Shear Modulus (GPa) = 25.54625 27.81193 26.67909
#
# Velocity S-wave (km/s) = 3.85930 4.02681 3.94394
# Velocity P-wave (km/s) = 7.24351 7.84320 7.54931
#
# Compressibility (1/GPa) = 0.01787914
#
# Stress axis : x y z
#
# Youngs Moduli (GPa) = 59.62398 59.62398 130.43905
#
# Poissons Ratio (x) = 0.26404 0.47200
# Poissons Ratio (y) = 0.26404 0.47200
# Poissons Ratio (z) = 0.21575 0.21575
#
# Static dielectric constant tensor:
#      x y z
#    x 3.110160 0.000000 0.000000 
#    y 0.000000 3.110160 0.000000 
#    z 0.000000 0.000000 3.697200 
# 
# 
# High freq. dielectric constant tensor:
#      x y z
#    x 1.638670 0.000000 0.000000 
#    y 0.000000 1.638670 0.000000 
#    z 0.000000 0.000000 1.685000 
# 
# From -- ./inp_files/1635.got.cif
#   From: 2010.03.12/outbox.cif.g09.slc.cpg/sg102_1_cif.got.tgz:1635.got - 2010.04.14 01:40:42.
