data_PCOD8306309
_publ_section_title
;
Structure prediction by ZEFSAII (Michael W. Deem and Ramdas Pophale) SiO2 
 PCOD8306309
Probable space group: I 41 2 2
;
_chemical_formula_sum "Si O2"
_cell_formula_units_Z 112
_cell_length_a 13.956860
_cell_length_b 13.956860
_cell_length_c 26.710031
_cell_angle_alpha 90.000000
_cell_angle_beta 90.000000
_cell_angle_gamma 90.000000
_cell_volume 5202.952204
_symmetry_space_group_name_H-M "I 41 2 2"
_symmetry_group_IT_number 98
_symmetry_cell_setting 'tetragonal'
loop_
_space_group_symop_operation_xyz
x,y,z
-y,1/2+x,1/4+z
-x,-y,z
y,1/2-x,1/4+z
x,1/2-y,1/4-z
-x,1/2+y,1/4-z
y,x,-z
-y,-x,-z
1/2+x,1/2+y,1/2+z
1/2-y,x,3/4+z
1/2-x,1/2-y,1/2+z
1/2+y,-x,3/4+z
1/2+x,-y,3/4-z
1/2-x,y,3/4-z
1/2+y,1/2+x,1/2-z
1/2-y,1/2-x,1/2-z
loop_
_atom_site_type_symbol
_atom_site_label
_atom_site_fract_x
_atom_site_fract_y
_atom_site_fract_z
Si Si1 0.337991 0.577824 0.700120
Si Si2 0.500000 0.000000 0.113809
Si Si3 0.420863 0.137233 0.031065
Si Si4 0.610008 0.474972 0.593427
Si Si5 0.725630 0.434168 0.429523
Si Si6 0.629020 0.034175 0.202539
Si Si7 0.659450 0.659450 0.000000
Si Si8 0.578845 0.723588 0.488573
O O1 0.368029 0.515804 0.747962
O O2 0.370881 0.515355 0.652486
O O3 0.382150 0.683361 0.703449
O O4 0.224868 0.596286 0.700237
O O5 0.453584 0.089541 0.083474
O O6 0.576652 0.051548 0.150002
O O7 0.365107 0.240936 0.030633
O O8 0.338044 0.067998 0.010106
O O9 0.500000 0.500000 0.581692
O O10 0.636222 0.365433 0.577414
O O11 0.681394 0.544856 0.564407
O O12 0.750000 0.479064 0.375000
O O13 0.685164 0.515381 0.465897
O O14 0.565944 0.065944 0.250000
O O15 0.652453 0.921478 0.207431
O O16 0.687079 0.687079 0.500000
#
# Coordination Sequence:
#
# PCOD8306309 Si02
#       8
#    16   8  16  16  16  16   8  16
#     4  10  25  44  67  98 135 181 226 281 360 411
#     4  12  23  42  70 104 132 180 235 294 350 422
#     4  11  25  41  69  99 141 177 229 291 346 422
#     4  11  23  41  66  94 135 183 227 282 341 418
#     4  10  23  41  65  93 134 178 222 279 344 415
#     4  11  22  46  74  94 136 181 227 289 358 419
#     4  10  21  46  64  98 135 188 222 274 356 431
#     4  12  23  39  64 100 133 177 232 279 337 417
#
# _framework density 21.526240999999999
#
# number of rings (size 3 to 8) (size 9 to 14) (size 15 to 20)
#    0.000    1.143    3.571    2.143    5.000    1.714 
#    0.000    7.143    0.000    0.000    0.000    0.000 
#    0.000    0.000    0.000    0.000    0.000    0.000 
#
# Total GULP energy -693950.100440 kJ/mol
# GULP energy per Si atom -12391.966079 kJ/mol
# Density = 2.147725 g / cm^3
# Si number density = 21.526241 Si / 1000 Ang^3
#
#
#
# Elastic Constant Matrix: (Units=GPa)
#
#
# Indices 1 2 3 4 5 6 
#
# 1 100.4572 36.1582 45.2383 0.0000 0.0000 0.0000
# 2 36.1582 100.4572 45.2383 0.0000 0.0000 0.0000
# 3 45.2383 45.2383 114.4913 0.0000 0.0000 0.0000
# 4 0.0000 0.0000 0.0000 13.9850 0.0000 0.0000
# 5 0.0000 0.0000 0.0000 0.0000 13.9850 0.0000
# 6 0.0000 0.0000 0.0000 0.0000 0.0000 31.8921
#
#
#
# Elastic Compliance Matrix: (Units=1/GPa)
#
#
# Indices 1 2 3 4 5 6 
#
# 1 0.012733 -0.002819 -0.003917 0.000000 0.000000 0.000000
# 2 -0.002819 0.012733 -0.003917 0.000000 0.000000 0.000000
# 3 -0.003917 -0.003917 0.011830 0.000000 0.000000 0.000000
# 4 0.000000 0.000000 0.000000 0.071505 0.000000 0.000000
# 5 0.000000 0.000000 0.000000 0.000000 0.071505 0.000000
# 6 0.000000 0.000000 0.000000 0.000000 0.000000 0.031356
#
#
# Mechanical properties :
#
#
# Convention : Reuss Voigt Hill
#
# Bulk Modulus (GPa) = 62.54315 63.18615 62.86465
# Shear Modulus (GPa) = 20.98195 24.55714 22.76954
#
# Velocity S-wave (km/s) = 3.12543 3.38124 3.25585
# Velocity P-wave (km/s) = 6.49168 6.68285 6.58796
#
# Compressibility (1/GPa) = 0.01598896
#
# Stress axis : x y z
#
# Youngs Moduli (GPa) = 78.53457 78.53457 84.53126
#
# Poissons Ratio (x) = 0.22140 0.33114
# Poissons Ratio (y) = 0.22140 0.33114
# Poissons Ratio (z) = 0.30765 0.30765
#
# Static dielectric constant tensor:
#      x y z
#    x 3.961140 0.000000 0.000000 
#    y 0.000000 3.961140 0.000000 
#    z 0.000000 0.000000 3.786240 
# 
# 
# High freq. dielectric constant tensor:
#      x y z
#    x 1.849470 0.000000 0.000000 
#    y 0.000000 1.849470 0.000000 
#    z 0.000000 0.000000 1.840790 
# 
# From -- ./inp_files/11020.got.cif
#   From: 2010.03.12/outbox.cif.g09.slc.cpg/sg98_6_cif.got.tgz:11020.got - 2010.04.08 21:04:41.
