data_PCOD8306951
_publ_section_title
;
Structure prediction by ZEFSAII (Michael W. Deem and Ramdas Pophale) SiO2 
 PCOD8306951
Probable space group: P 42 N M
;
_chemical_formula_sum "Si O2"
_cell_formula_units_Z 64
_cell_length_a 14.843793
_cell_length_b 14.843793
_cell_length_c 20.078255
_cell_angle_alpha 90.000000
_cell_angle_beta 90.000000
_cell_angle_gamma 90.000000
_cell_volume 4424.006378
_symmetry_space_group_name_H-M "P 42 N M"
_symmetry_group_IT_number 102
_symmetry_cell_setting 'tetragonal'
loop_
_space_group_symop_operation_xyz
x,y,z
1/2-y,1/2+x,1/2+z
-x,-y,z
1/2+y,1/2-x,1/2+z
1/2-x,1/2+y,1/2+z
1/2+x,1/2-y,1/2+z
-y,-x,z
y,x,z
loop_
_atom_site_type_symbol
_atom_site_label
_atom_site_fract_x
_atom_site_fract_y
_atom_site_fract_z
Si Si1 0.893166 0.599719 0.526390
Si Si2 0.103648 0.750586 0.778738
Si Si3 0.103649 0.249415 0.778738
Si Si4 0.896352 0.249415 0.626087
Si Si5 0.249415 0.103649 0.626087
Si Si6 0.106834 0.599719 0.526390
Si Si7 0.606834 0.099718 0.378434
Si Si8 0.599720 0.106834 0.878434
O O1 0.856510 0.669988 0.580900
O O2 0.852277 0.500000 0.540625
O O3 0.866216 0.633784 0.452412
O O4 1.000000 0.593140 0.531011
O O5 0.158794 0.841207 0.793434
O O6 0.114057 0.719642 0.702413
O O7 0.143489 0.669990 0.823925
O O8 0.999999 0.771833 0.796403
O O9 0.158796 0.158796 0.793435
O O10 0.114058 0.280359 0.702412
O O11 0.143490 0.330013 0.823925
O O12 0.841204 0.158797 0.611391
O O13 0.856511 0.330012 0.580900
O O14 0.000000 0.228168 0.608423
O O15 0.158796 0.158796 0.611391
O O16 0.133783 0.633784 0.452412
O O17 0.500000 0.093140 0.373813
O O18 0.647723 0.999999 0.364199
#
# Coordination Sequence:
#
# PCOD8306951 Si02
#       8
#     8   8   8   8   8   8   8   8
#     4   8  14  25  40  57  76  96 119 150 188 226
#     4   9  17  27  38  54  76 101 128 154 179 212
#     4   9  17  27  38  54  76 101 128 154 179 212
#     4   9  17  27  38  54  76 101 128 154 179 212
#     4   9  17  27  38  54  76 101 128 154 179 212
#     4   8  14  25  40  57  76  96 119 150 188 226
#     4   8  14  25  40  57  76  96 119 150 188 226
#     4   8  14  25  40  57  76  96 119 150 188 226
#
# _framework density 14.466524
#
# number of rings (size 3 to 8) (size 9 to 14) (size 15 to 20)
#    0.000    3.500    0.000    1.500    0.000    2.500 
#    0.000    7.500    0.000    0.000    0.000    0.000 
#    0.000    1.000    0.000    5.500    0.000    0.500 
#
# Total GULP energy -793215.174236 kJ/mol
# GULP energy per Si atom -12393.987097 kJ/mol
# Density = 1.443360 g / cm^3
# Si number density = 14.466524 Si / 1000 Ang^3
#
#
#
# Elastic Constant Matrix: (Units=GPa)
#
#
# Indices 1 2 3 4 5 6 
#
# 1 64.2743 36.5813 51.3831 0.0000 0.0000 0.0000
# 2 36.5813 64.2743 51.3831 0.0000 0.0000 0.0000
# 3 51.3831 51.3831 95.5204 0.0000 0.0000 0.0000
# 4 0.0000 0.0000 0.0000 18.3691 0.0000 0.0000
# 5 0.0000 0.0000 0.0000 0.0000 18.3691 0.0000
# 6 0.0000 0.0000 0.0000 0.0000 0.0000 12.5971
#
#
#
# Elastic Compliance Matrix: (Units=1/GPa)
#
#
# Indices 1 2 3 4 5 6 
#
# 1 0.029026 -0.007084 -0.011803 0.000000 0.000000 0.000000
# 2 -0.007084 0.029026 -0.011803 0.000000 0.000000 0.000000
# 3 -0.011803 -0.011803 0.023167 0.000000 0.000000 0.000000
# 4 0.000000 0.000000 0.000000 0.054439 0.000000 0.000000
# 5 0.000000 0.000000 0.000000 0.000000 0.054439 0.000000
# 6 0.000000 0.000000 0.000000 0.000000 0.000000 0.079383
#
#
# Mechanical properties :
#
#
# Convention : Reuss Voigt Hill
#
# Bulk Modulus (GPa) = 50.40669 55.86268 53.13468
# Shear Modulus (GPa) = 14.81588 15.51514 15.16551
#
# Velocity S-wave (km/s) = 3.20371 3.27844 3.24129
# Velocity P-wave (km/s) = 6.97168 7.28216 7.12861
#
# Compressibility (1/GPa) = 0.01983864
#
# Stress axis : x y z
#
# Youngs Moduli (GPa) = 34.45176 34.45176 43.16396
#
# Poissons Ratio (x) = 0.24406 0.50947
# Poissons Ratio (y) = 0.24406 0.50947
# Poissons Ratio (z) = 0.40664 0.40664
#
# Static dielectric constant tensor:
#      x y z
#    x 2.777690 0.000000 0.000000 
#    y 0.000000 2.777690 0.000000 
#    z 0.000000 0.000000 3.076170 
# 
# 
# High freq. dielectric constant tensor:
#      x y z
#    x 1.525990 0.000000 0.000000 
#    y 0.000000 1.525990 0.000000 
#    z 0.000000 0.000000 1.561270 
# 
# From -- ./inp_files/2866.got.cif
#   From: 2010.03.12/outbox.cif.g09.slc.cpg/sg102_2_cif.got.tgz:2866.got - 2010.04.14 01:40:42.
