data_PCOD8306189
_publ_section_title
;
Structure prediction by ZEFSAII (Michael W. Deem and Ramdas Pophale) SiO2 
 PCOD8306189
Probable space group: I 4 2 2 
;
_chemical_formula_sum "Si O2"
_cell_formula_units_Z 56
_cell_length_a 15.000000
_cell_length_b 15.000000
_cell_length_c 30.000000
_cell_angle_alpha 90.000000
_cell_angle_beta 90.000000
_cell_angle_gamma 90.000000
_cell_volume 6750.000000
_symmetry_space_group_name_H-M "I 4 2 2 "
_symmetry_group_IT_number 97
_symmetry_cell_setting 'tetragonal'
loop_
_space_group_symop_operation_xyz
x,y,z
-y,x,z
-x,-y,z
y,-x,z
x,-y,-z
-x,y,-z
y,x,-z
-y,-x,-z
1/2+x,1/2+y,1/2+z
1/2-y,1/2+x,1/2+z
1/2-x,1/2-y,1/2+z
1/2+y,1/2-x,1/2+z
1/2+x,1/2-y,1/2-z
1/2-x,1/2+y,1/2-z
1/2+y,1/2+x,1/2-z
1/2-y,1/2-x,1/2-z
loop_
_atom_site_type_symbol
_atom_site_label
_atom_site_fract_x
_atom_site_fract_y
_atom_site_fract_z
Si Si1 0.278587 0.127600 0.789770
Si Si2 0.419147 0.377215 0.771367
Si Si3 0.163567 0.614729 0.098444
Si Si4 0.007990 0.600990 0.846640
Si Si5 0.392798 0.899915 0.995334
Si Si6 0.286724 0.315730 0.149523
Si Si7 0.411201 0.834441 0.085987
O O1 0.341634 0.158367 0.750000
O O2 0.179688 0.107857 0.771996
O O3 0.328320 0.040258 0.809431
O O4 0.265635 0.205063 0.826209
O O5 0.525349 0.377516 0.769913
O O6 0.381934 0.334935 0.816471
O O7 0.248289 0.648802 0.124937
O O8 0.181881 0.515142 0.083627
O O9 0.086185 0.631355 0.134242
O O10 0.140321 0.654265 0.049395
O O11 0.074461 0.604382 0.887828
O O12 0.000000 0.500000 0.826866
O O13 0.362394 0.841829 0.038076
O O14 0.500000 0.902027 0.000000
O O15 0.356243 0.000000 0.000000
O O16 0.251882 0.374841 0.109684
#
# Coordination Sequence:
#
# PCOD8306189 Si02
#       7
#    16  16  16  16  16  16  16
#     4   9  20  35  49  70  99 124 162 214 254 300
#     4  10  21  37  54  67  90 133 175 210 250 302
#     4  10  18  28  51  75  94 134 166 192 253 302
#     4   9  17  30  49  73  99 128 158 197 256 306
#     4   9  15  27  47  72  98 128 163 192 233 301
#     4  10  20  33  48  72 100 125 160 212 252 292
#     4   9  17  31  47  69 104 129 157 204 235 295
#
# _framework density 8.2962959999999999
#
# number of rings (size 3 to 8) (size 9 to 14) (size 15 to 20)
#    0.000    2.571    1.429    0.857    2.000    2.000 
#    0.000    0.000    0.000    0.000    0.000    0.000 
#    0.000    9.143    0.000    2.714    0.000    0.000 
#
# Total GULP energy -693772.894076 kJ/mol
# GULP energy per Si atom -12388.801680 kJ/mol
# Density = 0.827741 g / cm^3
# Si number density = 8.296296 Si / 1000 Ang^3
#
#
#
# Elastic Constant Matrix: (Units=GPa)
#
#
# Indices 1 2 3 4 5 6 
#
# 1 57.0613 37.1167 39.1478 0.0000 0.0000 0.0000
# 2 37.1167 57.0611 39.1474 0.0000 0.0000 0.0000
# 3 39.1478 39.1474 107.6595 0.0000 0.0000 0.0000
# 4 0.0000 0.0000 0.0000 36.9021 0.0000 0.0000
# 5 0.0000 0.0000 0.0000 0.0000 36.9034 0.0000
# 6 0.0000 0.0000 0.0000 0.0000 0.0000 6.1791
#
#
#
# Elastic Compliance Matrix: (Units=1/GPa)
#
#
# Indices 1 2 3 4 5 6 
#
# 1 0.032679 -0.017460 -0.005534 0.000000 0.000000 0.000000
# 2 -0.017460 0.032679 -0.005534 0.000000 0.000000 0.000000
# 3 -0.005534 -0.005534 0.013313 0.000000 0.000000 0.000000
# 4 0.000000 0.000000 0.000000 0.027099 0.000000 0.000000
# 5 0.000000 0.000000 0.000000 0.000000 0.027098 0.000000
# 6 0.000000 0.000000 0.000000 0.000000 0.000000 0.161835
#
#
# Mechanical properties :
#
#
# Convention : Reuss Voigt Hill
#
# Bulk Modulus (GPa) = 46.26408 50.28954 48.27681
# Shear Modulus (GPa) = 13.92899 23.08827 18.50863
#
# Velocity S-wave (km/s) = 2.90051 3.73430 3.34350
# Velocity P-wave (km/s) = 6.25781 6.99768 6.63806
#
# Compressibility (1/GPa) = 0.02161504
#
# Stress axis : x y z
#
# Youngs Moduli (GPa) = 30.60069 30.60072 75.11401
#
# Poissons Ratio (x) = 0.53429 0.41568
# Poissons Ratio (y) = 0.53429 0.41567
# Poissons Ratio (z) = 0.16935 0.16934
#
# Static dielectric constant tensor:
#      x y z
#    x 3.011620 0.000000 0.000000 
#    y 0.000000 3.011630 0.000000 
#    z 0.000000 0.000000 3.435610 
# 
# 
# High freq. dielectric constant tensor:
#      x y z
#    x 1.620080 0.000000 0.000000 
#    y 0.000000 1.620080 0.000000 
#    z 0.000000 0.000000 1.650180 
# 
# From -- ./inp_files/8160.got.cif
#   From: 2010.03.12/outbox.ucp.g09.slc.cvg/sg97_5_cif.got.tgz:8160.got - 2010.05.04 20:18:10.
