data_PCOD8306731
_publ_section_title
;
Structure prediction by ZEFSAII (Michael W. Deem and Ramdas Pophale) SiO2 
 PCOD8306731
Probable space group: P 42 C M
;
_chemical_formula_sum "Si O2"
_cell_formula_units_Z 56
_cell_length_a 25.956696
_cell_length_b 25.956696
_cell_length_c 5.279443
_cell_angle_alpha 90.000000
_cell_angle_beta 90.000000
_cell_angle_gamma 90.000000
_cell_volume 3557.025076
_symmetry_space_group_name_H-M "P 42 C M"
_symmetry_group_IT_number 101
_symmetry_cell_setting 'tetragonal'
loop_
_space_group_symop_operation_xyz
x,y,z
-y,x,1/2+z
-x,-y,z
y,-x,1/2+z
-x,y,1/2+z
x,-y,1/2+z
-y,-x,z
y,x,z
loop_
_atom_site_type_symbol
_atom_site_label
_atom_site_fract_x
_atom_site_fract_y
_atom_site_fract_z
Si Si1 0.532902 0.381239 0.862540
Si Si2 0.175915 0.262117 0.883412
Si Si3 0.297989 0.615427 0.884555
Si Si4 0.344492 0.257467 0.884921
Si Si5 0.984047 0.218079 0.883621
Si Si6 0.133526 0.780392 0.883399
Si Si7 0.973010 0.893416 0.883639
O O1 0.509067 0.386061 0.583243
O O2 0.573017 0.426983 0.900587
O O3 0.560377 0.325954 0.885559
O O4 0.221172 0.221172 0.883556
O O5 0.142163 0.254859 0.136077
O O6 0.200883 0.318894 0.883557
O O7 0.142230 0.254907 0.630512
O O8 0.339657 0.660344 0.880994
O O9 0.262528 0.620183 0.634818
O O10 0.263039 0.620031 0.135754
O O11 0.301055 0.301055 0.884661
O O12 0.925025 0.200004 0.883616
O O13 0.999996 0.250598 0.133627
O O14 0.022910 0.168675 0.883646
O O15 0.169470 0.830531 0.883442
O O16 0.913335 0.913335 0.883643
O O17 0.000001 0.916119 0.133638
#
# Coordination Sequence:
#
# PCOD8306731 Si02
#       7
#     8   8   8   8   8   8   8
#     4  11  22  34  46  61  84 119 166 215 258 286
#     4   9  17  28  45  66  84 101 119 148 201 271
#     4   9  17  28  43  62  84 109 138 180 231 276
#     4   9  15  26  44  65  85 102 124 158 213 281
#     4  10  21  33  45  57  72  98 129 160 198 240
#     4  10  19  31  44  60  81 101 124 158 206 260
#     4  10  21  34  45  56  68  84 114 159 205 244
#
# _framework density 15.743493000000001
#
# number of rings (size 3 to 8) (size 9 to 14) (size 15 to 20)
#    0.000    2.286    0.000    3.429    0.000   12.000 
#    0.000    1.429    0.000    0.000    0.000    0.000 
#    0.000    0.000    0.000    0.000    0.000    0.000 
#
# Total GULP energy -694056.865970 kJ/mol
# GULP energy per Si atom -12393.872607 kJ/mol
# Density = 1.570766 g / cm^3
# Si number density = 15.743493 Si / 1000 Ang^3
#
#
#
# Elastic Constant Matrix: (Units=GPa)
#
#
# Indices 1 2 3 4 5 6 
#
# 1 37.8782 31.6276 27.1502 0.0000 0.0000 0.0006
# 2 31.6276 37.8782 27.1502 0.0000 0.0000 -0.0006
# 3 27.1502 27.1502 159.9619 0.0000 0.0000 0.0000
# 4 0.0000 0.0000 0.0000 18.5919 0.0000 0.0000
# 5 0.0000 0.0000 0.0000 0.0000 18.5919 0.0000
# 6 0.0006 -0.0006 0.0000 0.0000 0.0000 22.5372
#
#
#
# Elastic Compliance Matrix: (Units=1/GPa)
#
#
# Indices 1 2 3 4 5 6 
#
# 1 0.088286 -0.071699 -0.002815 0.000000 0.000000 -0.000004
# 2 -0.071699 0.088286 -0.002815 0.000000 0.000000 0.000004
# 3 -0.002815 -0.002815 0.007207 0.000000 0.000000 0.000000
# 4 0.000000 0.000000 0.000000 0.053787 0.000000 0.000000
# 5 0.000000 0.000000 0.000000 0.000000 0.053787 0.000000
# 6 -0.000004 0.000004 0.000000 0.000000 0.000000 0.044371
#
#
# Mechanical properties :
#
#
# Convention : Reuss Voigt Hill
#
# Bulk Modulus (GPa) = 34.34128 45.28606 39.81367
# Shear Modulus (GPa) = 9.99819 21.93022 15.96421
#
# Velocity S-wave (km/s) = 2.52279 3.73630 3.18782
# Velocity P-wave (km/s) = 5.50875 6.88772 6.23646
#
# Compressibility (1/GPa) = 0.02911947
#
# Stress axis : x y z
#
# Youngs Moduli (GPa) = 11.32681 11.32681 138.75120
#
# Poissons Ratio (x) = 0.81213 0.39062
# Poissons Ratio (y) = 0.81213 0.39062
# Poissons Ratio (z) = 0.03189 0.03189
#
# Static dielectric constant tensor:
#      x y z
#    x 2.708260 0.000000 0.000000 
#    y 0.000000 2.708260 0.000000 
#    z 0.000000 0.000000 3.994830 
# 
# 
# High freq. dielectric constant tensor:
#      x y z
#    x 1.555390 0.000000 0.000000 
#    y 0.000000 1.555390 0.000000 
#    z 0.000000 0.000000 1.644030 
# 
# From -- ./inp_files/184.got.cif
#   From: 2010.03.12/outbox.cif.g09.slc.cpg/sg101_1_cif.got.tgz:184.got - 2010.04.14 01:38:52.
