data_PCOD8306230
_publ_section_title
;
Structure prediction by ZEFSAII (Michael W. Deem and Ramdas Pophale) SiO2 
 PCOD8306230
Probable space group: I 41 2 2
;
_chemical_formula_sum "Si O2"
_cell_formula_units_Z 88
_cell_length_a 13.966827
_cell_length_b 13.966827
_cell_length_c 23.786175
_cell_angle_alpha 90.000000
_cell_angle_beta 90.000000
_cell_angle_gamma 90.000000
_cell_volume 4640.022830
_symmetry_space_group_name_H-M "I 41 2 2"
_symmetry_group_IT_number 98
_symmetry_cell_setting 'tetragonal'
loop_
_space_group_symop_operation_xyz
x,y,z
-y,1/2+x,1/4+z
-x,-y,z
y,1/2-x,1/4+z
x,1/2-y,1/4-z
-x,1/2+y,1/4-z
y,x,-z
-y,-x,-z
1/2+x,1/2+y,1/2+z
1/2-y,x,3/4+z
1/2-x,1/2-y,1/2+z
1/2+y,-x,3/4+z
1/2+x,-y,3/4-z
1/2-x,y,3/4-z
1/2+y,1/2+x,1/2-z
1/2-y,1/2-x,1/2-z
loop_
_atom_site_type_symbol
_atom_site_label
_atom_site_fract_x
_atom_site_fract_y
_atom_site_fract_z
Si Si1 0.045292 0.710406 0.377820
Si Si2 0.964936 0.340539 0.084176
Si Si3 0.834467 0.834467 0.500000
Si Si4 0.298739 0.951453 0.250443
Si Si5 0.198398 0.847356 0.725815
Si Si6 0.846546 0.822944 0.843987
O O1 0.082388 0.601748 0.383990
O O2 0.053004 0.763327 0.436790
O O3 0.104074 0.769204 0.331938
O O4 0.931537 0.710689 0.363901
O O5 0.964378 0.250000 0.125000
O O6 0.072231 0.379434 0.071624
O O7 0.927976 0.318982 0.021855
O O8 0.821035 0.754830 0.452825
O O9 0.941791 0.817514 0.524274
O O10 0.400609 0.900609 0.250000
O O11 0.217714 0.895866 0.287178
O O12 0.280393 0.780393 0.750000
O O13 0.750000 0.841929 0.875000
#
# Coordination Sequence:
#
# PCOD8306230 Si02
#       6
#    16  16   8  16  16  16
#     4  10  20  37  58  88 117 148 196 244 303 352
#     4  10  19  35  58  85 118 151 186 238 303 355
#     4  10  21  42  56  78 117 158 196 234 288 360
#     4   9  20  36  62  84 114 151 187 246 303 351
#     4  10  19  33  61  94 115 146 191 250 298 362
#     4  10  23  38  58  79 115 160 194 241 285 359
#
# _framework density 18.965423000000001
#
# number of rings (size 3 to 8) (size 9 to 14) (size 15 to 20)
#    0.000    2.182    1.818    0.818    2.545    0.000 
#    3.273    0.000    0.000    0.000    0.000    0.000 
#    0.000    0.000    0.000    0.000    0.000    0.000 
#
# Total GULP energy -545159.621463 kJ/mol
# GULP energy per Si atom -12389.991397 kJ/mol
# Density = 1.892226 g / cm^3
# Si number density = 18.965423 Si / 1000 Ang^3
#
#
#
# Elastic Constant Matrix: (Units=GPa)
#
#
# Indices 1 2 3 4 5 6 
#
# 1 126.3283 57.0881 42.7432 0.0000 0.0000 0.0000
# 2 57.0881 126.3283 42.7432 0.0000 0.0000 0.0000
# 3 42.7432 42.7432 60.0013 0.0000 0.0000 0.0000
# 4 0.0000 0.0000 0.0000 22.6314 0.0000 0.0000
# 5 0.0000 0.0000 0.0000 0.0000 22.6314 0.0000
# 6 0.0000 0.0000 0.0000 0.0000 0.0000 24.0686
#
#
#
# Elastic Compliance Matrix: (Units=1/GPa)
#
#
# Indices 1 2 3 4 5 6 
#
# 1 0.011302 -0.003140 -0.005814 0.000000 0.000000 0.000000
# 2 -0.003140 0.011302 -0.005814 0.000000 0.000000 0.000000
# 3 -0.005814 -0.005814 0.024950 0.000000 0.000000 0.000000
# 4 0.000000 0.000000 0.000000 0.044186 0.000000 0.000000
# 5 0.000000 0.000000 0.000000 0.000000 0.044186 0.000000
# 6 0.000000 0.000000 0.000000 0.000000 0.000000 0.041548
#
#
# Mechanical properties :
#
#
# Convention : Reuss Voigt Hill
#
# Bulk Modulus (GPa) = 55.50375 66.42301 60.96338
# Shear Modulus (GPa) = 23.47208 25.20519 24.33864
#
# Velocity S-wave (km/s) = 3.52181 3.64951 3.58623
# Velocity P-wave (km/s) = 6.77250 7.27034 7.02583
#
# Compressibility (1/GPa) = 0.01801680
#
# Stress axis : x y z
#
# Youngs Moduli (GPa) = 88.47789 88.47789 40.07962
#
# Poissons Ratio (x) = 0.27784 0.23304
# Poissons Ratio (y) = 0.27784 0.23304
# Poissons Ratio (z) = 0.51445 0.51445
#
# Static dielectric constant tensor:
#      x y z
#    x 3.969890 0.000000 0.000000 
#    y 0.000000 3.969890 0.000000 
#    z 0.000000 0.000000 3.150620 
# 
# 
# High freq. dielectric constant tensor:
#      x y z
#    x 1.754090 0.000000 0.000000 
#    y 0.000000 1.754090 0.000000 
#    z 0.000000 0.000000 1.705990 
# 
# From -- ./inp_files/8803.got.cif
#   From: 2010.03.12/outbox.cif.g09.slc.cpg/sg98_5_cif.got.tgz:8803.got - 2010.04.08 21:04:41.
