data_PCOD8306461
_publ_section_title
;
Structure prediction by ZEFSAII (Michael W. Deem and Ramdas Pophale) SiO2 
 PCOD8306461
Probable space group: P 4 M M
;
_chemical_formula_sum "Si O2"
_cell_formula_units_Z 64
_cell_length_a 13.581706
_cell_length_b 13.581706
_cell_length_c 20.688224
_cell_angle_alpha 90.000000
_cell_angle_beta 90.000000
_cell_angle_gamma 90.000000
_cell_volume 3816.206441
_symmetry_space_group_name_H-M "P 4 M M"
_symmetry_group_IT_number 99
_symmetry_cell_setting 'tetragonal'
loop_
_space_group_symop_operation_xyz
x,y,z
-y,x,z
-x,-y,z
y,-x,z
-x,y,z
x,-y,z
-y,-x,z
y,x,z
loop_
_atom_site_type_symbol
_atom_site_label
_atom_site_fract_x
_atom_site_fract_y
_atom_site_fract_z
Si Si1 0.110161 0.616597 0.329900
Si Si2 0.765736 0.388271 0.072000
Si Si3 0.223705 0.616815 0.705025
Si Si4 0.278425 0.883984 0.818106
Si Si5 0.383091 0.109171 0.188234
Si Si6 0.109508 0.383634 0.577836
Si Si7 0.772070 0.383744 0.452810
Si Si8 0.614435 0.775320 0.927154
O O1 0.103855 0.500000 0.335955
O O2 0.153028 0.646026 0.258907
O O3 0.180114 0.656395 0.386400
O O4 0.000000 0.659903 0.338572
O O5 0.747723 0.500000 0.090262
O O6 0.658673 0.341328 0.071844
O O7 0.830694 0.337329 0.128229
O O8 0.813998 0.375727 0.001052
O O9 0.242245 0.500000 0.709060
O O10 0.328438 0.671563 0.713885
O O11 0.147533 0.649907 0.760007
O O12 0.176836 0.650786 0.637255
O O13 0.175105 0.824896 0.814829
O O14 0.336918 0.860234 0.883967
O O15 0.255712 0.000000 0.814546
O O16 0.500000 0.105224 0.181367
O O17 0.339159 0.000000 0.183150
O O18 0.100507 0.500000 0.578819
O O19 0.157750 0.348798 0.510935
O O20 0.000000 0.337136 0.583429
O O21 0.754700 0.500000 0.453183
O O22 0.665733 0.334268 0.460925
O O23 0.500000 0.757879 0.908786
O O24 0.672108 0.672108 0.916175
#
# Coordination Sequence:
#
# PCOD8306461 Si02
#       8
#     8   8   8   8   8   8   8   8
#     4   8  14  26  43  60  79 106 142 186 231 266
#     4   9  17  28  42  62  90 122 153 183 215 257
#     4  10  20  33  50  74 103 133 163 192 225 269
#     4  10  21  36  53  73  96 122 155 196 241 288
#     4   8  14  25  41  60  81 107 142 184 228 268
#     4   9  17  30  48  67  87 115 153 195 233 264
#     4  10  19  29  42  62  89 120 151 182 220 271
#     4   9  18  31  46  67  94 124 159 195 231 274
#
# _framework density 16.770581
#
# number of rings (size 3 to 8) (size 9 to 14) (size 15 to 20)
#    0.000    2.875    0.000    2.250    0.000    4.625 
#    0.000    2.500    0.000    4.500    0.000    3.500 
#    0.000   11.250    0.000    5.500    0.000    1.500 
#
# Total GULP energy -793179.690033 kJ/mol
# GULP energy per Si atom -12393.432657 kJ/mol
# Density = 1.673241 g / cm^3
# Si number density = 16.770581 Si / 1000 Ang^3
#
#
#
# Elastic Constant Matrix: (Units=GPa)
#
#
# Indices 1 2 3 4 5 6 
#
# 1 78.8450 38.2846 44.6061 0.0000 0.0000 0.0003
# 2 38.2846 78.8450 44.6061 0.0000 0.0000 -0.0003
# 3 44.6061 44.6061 132.0495 0.0000 0.0000 0.0000
# 4 0.0000 0.0000 0.0000 22.4844 0.0000 0.0000
# 5 0.0000 0.0000 0.0000 0.0000 22.4844 0.0000
# 6 0.0003 -0.0003 0.0000 0.0000 0.0000 9.8706
#
#
#
# Elastic Compliance Matrix: (Units=1/GPa)
#
#
# Indices 1 2 3 4 5 6 
#
# 1 0.018075 -0.006580 -0.003883 0.000000 0.000000 -0.000001
# 2 -0.006580 0.018075 -0.003883 0.000000 0.000000 0.000001
# 3 -0.003883 -0.003883 0.010196 0.000000 0.000000 0.000000
# 4 0.000000 0.000000 0.000000 0.044475 0.000000 0.000000
# 5 0.000000 0.000000 0.000000 0.000000 0.044475 0.000000
# 6 -0.000001 0.000001 0.000000 0.000000 0.000000 0.101311
#
#
# Mechanical properties :
#
#
# Convention : Reuss Voigt Hill
#
# Bulk Modulus (GPa) = 56.64330 60.52590 58.58460
# Shear Modulus (GPa) = 18.43772 21.78408 20.11090
#
# Velocity S-wave (km/s) = 3.31933 3.60800 3.46667
# Velocity P-wave (km/s) = 6.96702 7.31613 7.14371
#
# Compressibility (1/GPa) = 0.01765434
#
# Stress axis : x y z
#
# Youngs Moduli (GPa) = 55.32560 55.32560 98.07510
#
# Poissons Ratio (x) = 0.36403 0.38083
# Poissons Ratio (y) = 0.36403 0.38083
# Poissons Ratio (z) = 0.21483 0.21483
#
# Static dielectric constant tensor:
#      x y z
#    x 2.946670 0.000000 0.000000 
#    y 0.000000 2.946670 0.000000 
#    z 0.000000 0.000000 3.572130 
# 
# 
# High freq. dielectric constant tensor:
#      x y z
#    x 1.618110 0.000000 0.000000 
#    y 0.000000 1.618110 0.000000 
#    z 0.000000 0.000000 1.671310 
# 
# From -- ./inp_files/2252.got.cif
#   From: 2010.03.12/outbox.cif.g09.slc.cpg/sg99_cif.got.tgz:2252.got - 2010.04.08 21:11:30.
