data_PCOD8306111
_publ_section_title
;
Structure prediction by ZEFSAII (Michael W. Deem and Ramdas Pophale) SiO2 
 PCOD8306111
Probable space group: I 4 2 2 
;
_chemical_formula_sum "Si O2"
_cell_formula_units_Z 112
_cell_length_a 14.235318
_cell_length_b 14.235318
_cell_length_c 26.038130
_cell_angle_alpha 90.000000
_cell_angle_beta 90.000000
_cell_angle_gamma 90.000000
_cell_volume 5276.478069
_symmetry_space_group_name_H-M "I 4 2 2 "
_symmetry_group_IT_number 97
_symmetry_cell_setting 'tetragonal'
loop_
_space_group_symop_operation_xyz
x,y,z
-y,x,z
-x,-y,z
y,-x,z
x,-y,-z
-x,y,-z
y,x,-z
-y,-x,-z
1/2+x,1/2+y,1/2+z
1/2-y,1/2+x,1/2+z
1/2-x,1/2-y,1/2+z
1/2+y,1/2-x,1/2+z
1/2+x,1/2-y,1/2-z
1/2-x,1/2+y,1/2-z
1/2+y,1/2+x,1/2-z
1/2-y,1/2-x,1/2-z
loop_
_atom_site_type_symbol
_atom_site_label
_atom_site_fract_x
_atom_site_fract_y
_atom_site_fract_z
Si Si1 0.451067 0.160040 0.548364
Si Si2 0.453859 0.093327 0.658361
Si Si3 0.227533 0.871618 0.691352
Si Si4 0.758491 0.068522 0.355404
Si Si5 0.101285 0.243765 0.471917
Si Si6 0.483811 0.651834 0.595249
Si Si7 0.743413 0.084313 0.806446
O O1 0.500000 0.111022 0.500000
O O2 0.478960 0.101168 0.598265
O O3 0.340393 0.160550 0.534460
O O4 0.503062 0.260498 0.557213
O O5 0.343210 0.104869 0.661871
O O6 0.501196 0.168204 0.695597
O O7 0.500000 0.000000 0.679986
O O8 0.127148 0.826864 0.680436
O O9 0.216921 0.905787 0.749612
O O10 0.314567 0.801877 0.678390
O O11 0.238799 0.958384 0.653627
O O12 0.789514 0.083199 0.414053
O O13 0.165784 0.165784 0.500000
O O14 0.000000 0.257124 0.500000
O O15 0.398886 0.582361 0.584024
O O16 0.456069 0.680692 0.653533
#
# Coordination Sequence:
#
# PCOD8306111 Si02
#       7
#    16  16  16  16  16  16  16
#     4  10  25  38  68  99 133 174 228 284 341 417
#     4  10  21  42  67  96 134 173 222 282 345 406
#     4  11  25  42  65 100 133 179 232 286 343 400
#     4  11  25  44  69  97 139 177 227 295 339 415
#     4  11  26  44  70 101 135 185 231 284 355 423
#     4  10  24  43  66  95 138 184 224 280 347 426
#     4  10  24  41  66  99 133 180 230 283 345 420
#
# _framework density 21.226279000000002
#
# number of rings (size 3 to 8) (size 9 to 14) (size 15 to 20)
#    0.000    1.571    1.429    0.857   14.000    3.286 
#    0.000    2.143    0.000    0.000    0.000    0.000 
#    0.000    0.000    0.000    0.000    0.000    0.000 
#
# Total GULP energy -693749.149471 kJ/mol
# GULP energy per Si atom -12388.377669 kJ/mol
# Density = 2.117797 g / cm^3
# Si number density = 21.226279 Si / 1000 Ang^3
#
#
#
# Elastic Constant Matrix: (Units=GPa)
#
#
# Indices 1 2 3 4 5 6 
#
# 1 69.2909 28.8462 36.5060 0.0000 0.0000 0.0000
# 2 28.8462 69.2909 36.5060 0.0000 0.0000 0.0000
# 3 36.5060 36.5060 115.3962 0.0000 0.0000 0.0000
# 4 0.0000 0.0000 0.0000 28.0877 0.0000 0.0000
# 5 0.0000 0.0000 0.0000 0.0000 28.0877 0.0000
# 6 0.0000 0.0000 0.0000 0.0000 0.0000 61.5087
#
#
#
# Elastic Compliance Matrix: (Units=1/GPa)
#
#
# Indices 1 2 3 4 5 6 
#
# 1 0.019026 -0.005699 -0.004216 0.000000 0.000000 0.000000
# 2 -0.005699 0.019026 -0.004216 0.000000 0.000000 0.000000
# 3 -0.004216 -0.004216 0.011333 0.000000 0.000000 0.000000
# 4 0.000000 0.000000 0.000000 0.035603 0.000000 0.000000
# 5 0.000000 0.000000 0.000000 0.000000 0.035603 0.000000
# 6 0.000000 0.000000 0.000000 0.000000 0.000000 0.016258
#
#
# Mechanical properties :
#
#
# Convention : Reuss Voigt Hill
#
# Bulk Modulus (GPa) = 47.34286 50.85492 49.09889
# Shear Modulus (GPa) = 29.04425 33.67811 31.36118
#
# Velocity S-wave (km/s) = 3.70309 3.98757 3.84796
# Velocity P-wave (km/s) = 6.37465 6.72394 6.55162
#
# Compressibility (1/GPa) = 0.02112251
#
# Stress axis : x y z
#
# Youngs Moduli (GPa) = 52.56040 52.56040 88.23643
#
# Poissons Ratio (x) = 0.29956 0.37199
# Poissons Ratio (y) = 0.29956 0.37199
# Poissons Ratio (z) = 0.22159 0.22159
#
# Static dielectric constant tensor:
#      x y z
#    x 3.944940 0.000000 0.000000 
#    y 0.000000 3.944940 0.000000 
#    z 0.000000 0.000000 3.848510 
# 
# 
# High freq. dielectric constant tensor:
#      x y z
#    x 1.836160 0.000000 0.000000 
#    y 0.000000 1.836160 0.000000 
#    z 0.000000 0.000000 1.838830 
# 
# From -- ./inp_files/7272.got.cif
#   From: 2010.03.12/outbox.cif.g09.slc.cpg/sg97_4_cif.got.tgz:7272.got - 2010.04.08 20:59:42.
