data_PCOD8306244
_publ_section_title
;
Structure prediction by ZEFSAII (Michael W. Deem and Ramdas Pophale) SiO2 
 PCOD8306244
Probable space group: I 41 2 2
;
_chemical_formula_sum "Si O2"
_cell_formula_units_Z 112
_cell_length_a 25.413090
_cell_length_b 25.413090
_cell_length_c 11.931612
_cell_angle_alpha 90.000000
_cell_angle_beta 90.000000
_cell_angle_gamma 90.000000
_cell_volume 7705.735030
_symmetry_space_group_name_H-M "I 41 2 2"
_symmetry_group_IT_number 98
_symmetry_cell_setting 'tetragonal'
loop_
_space_group_symop_operation_xyz
x,y,z
-y,1/2+x,1/4+z
-x,-y,z
y,1/2-x,1/4+z
x,1/2-y,1/4-z
-x,1/2+y,1/4-z
y,x,-z
-y,-x,-z
1/2+x,1/2+y,1/2+z
1/2-y,x,3/4+z
1/2-x,1/2-y,1/2+z
1/2+y,-x,3/4+z
1/2+x,-y,3/4-z
1/2-x,y,3/4-z
1/2+y,1/2+x,1/2-z
1/2-y,1/2-x,1/2-z
loop_
_atom_site_type_symbol
_atom_site_label
_atom_site_fract_x
_atom_site_fract_y
_atom_site_fract_z
Si Si1 0.406160 0.188101 0.133139
Si Si2 0.867000 0.954768 0.000145
Si Si3 0.181616 0.108045 0.637114
Si Si4 0.114491 0.030070 0.760737
Si Si5 0.545836 0.042947 0.122924
Si Si6 0.882975 0.976042 0.243773
Si Si7 0.130907 0.218483 0.011269
O O1 0.398586 0.250000 0.125000
O O2 0.413405 0.172640 0.262392
O O3 0.354616 0.158689 0.085538
O O4 0.456613 0.168383 0.062340
O O5 0.874639 0.990103 0.888058
O O6 0.812915 0.923338 0.990499
O O7 0.914675 0.914675 0.000000
O O8 0.867445 0.989078 0.114490
O O9 0.167123 0.058755 0.716607
O O10 0.241129 0.127365 0.657371
O O11 0.068626 0.073000 0.754098
O O12 0.098323 0.980234 0.685157
O O13 0.559450 0.059450 0.250000
O O14 0.500000 0.000000 0.122145
O O15 0.528199 0.094364 0.052992
O O16 0.137130 0.250000 0.125000
O O17 0.181064 0.181064 0.000000
#
# Coordination Sequence:
#
# PCOD8306244 Si02
#       7
#    16  16  16  16  16  16  16
#     4  10  20  31  44  55  77 102 134 174 217 261
#     4   9  17  29  43  57  78 102 130 164 209 259
#     4  10  20  32  43  58  75 102 137 177 224 259
#     4   9  16  28  43  59  78  99 124 160 209 260
#     4   9  16  26  42  62  81  98 121 154 200 258
#     4   9  17  28  43  60  78 100 124 159 208 256
#     4  11  22  33  46  58  77 108 145 187 231 264
#
# _framework density 14.534629000000001
#
# number of rings (size 3 to 8) (size 9 to 14) (size 15 to 20)
#    0.000    2.429    1.429    1.714    4.000    4.571 
#    0.000    2.857    0.000    0.000    0.000    0.000 
#    0.000    0.000    0.000    0.000    0.000    0.000 
#
# Total GULP energy -694130.685710 kJ/mol
# GULP energy per Si atom -12395.190816 kJ/mol
# Density = 1.450155 g / cm^3
# Si number density = 14.534629 Si / 1000 Ang^3
#
#
#
# Elastic Constant Matrix: (Units=GPa)
#
#
# Indices 1 2 3 4 5 6 
#
# 1 43.1853 41.7449 38.2214 0.0000 0.0000 0.0000
# 2 41.7449 43.1853 38.2214 0.0000 0.0000 0.0000
# 3 38.2214 38.2214 121.1574 0.0000 0.0000 0.0000
# 4 0.0000 0.0000 0.0000 19.9068 0.0000 0.0000
# 5 0.0000 0.0000 0.0000 0.0000 19.9068 0.0000
# 6 0.0000 0.0000 0.0000 0.0000 0.0000 15.3449
#
#
#
# Elastic Compliance Matrix: (Units=1/GPa)
#
#
# Indices 1 2 3 4 5 6 
#
# 1 0.355349 -0.338906 -0.005187 0.000000 0.000000 0.000000
# 2 -0.338906 0.355349 -0.005187 0.000000 0.000000 0.000000
# 3 -0.005187 -0.005187 0.011527 0.000000 0.000000 0.000000
# 4 0.000000 0.000000 0.000000 0.050234 0.000000 0.000000
# 5 0.000000 0.000000 0.000000 0.000000 0.050234 0.000000
# 6 0.000000 0.000000 0.000000 0.000000 0.000000 0.065168
#
#
# Mechanical properties :
#
#
# Convention : Reuss Voigt Hill
#
# Bulk Modulus (GPa) = 42.25856 49.32262 45.79059
# Shear Modulus (GPa) = 3.13615 16.98772 10.06194
#
# Velocity S-wave (km/s) = 1.47051 3.42244 2.63396
# Velocity P-wave (km/s) = 5.65868 7.04455 6.38931
#
# Compressibility (1/GPa) = 0.02366385
#
# Stress axis : x y z
#
# Youngs Moduli (GPa) = 2.81414 2.81414 86.75559
#
# Poissons Ratio (x) = 0.95373 0.45003
# Poissons Ratio (y) = 0.95373 0.45003
# Poissons Ratio (z) = 0.01460 0.01460
#
# Static dielectric constant tensor:
#      x y z
#    x 2.614180 0.000000 0.000000 
#    y 0.000000 2.614180 0.000000 
#    z 0.000000 0.000000 3.243120 
# 
# 
# High freq. dielectric constant tensor:
#      x y z
#    x 1.511400 0.000000 0.000000 
#    y 0.000000 1.511400 0.000000 
#    z 0.000000 0.000000 1.584150 
# 
# From -- ./inp_files/5465.got.cif
#   From: 2010.03.12/outbox.cif.g09.slc.cpg/sg98_3_cif.got.tgz:5465.got - 2010.04.08 21:04:41.
