data_PCOD8306928
_publ_section_title
;
Structure prediction by ZEFSAII (Michael W. Deem and Ramdas Pophale) SiO2 
 PCOD8306928
Probable space group: P 42 N M
;
_chemical_formula_sum "Si O2"
_cell_formula_units_Z 40
_cell_length_a 14.607558
_cell_length_b 14.607558
_cell_length_c 9.473796
_cell_angle_alpha 90.000000
_cell_angle_beta 90.000000
_cell_angle_gamma 90.000000
_cell_volume 2021.525703
_symmetry_space_group_name_H-M "P 42 N M"
_symmetry_group_IT_number 102
_symmetry_cell_setting 'tetragonal'
loop_
_space_group_symop_operation_xyz
x,y,z
1/2-y,1/2+x,1/2+z
-x,-y,z
1/2+y,1/2-x,1/2+z
1/2-x,1/2+y,1/2+z
1/2+x,1/2-y,1/2+z
-y,-x,z
y,x,z
loop_
_atom_site_type_symbol
_atom_site_label
_atom_site_fract_x
_atom_site_fract_y
_atom_site_fract_z
Si Si1 0.427310 0.572691 0.203530
Si Si2 0.670208 0.817159 0.293086
Si Si3 0.579202 0.927743 0.526144
Si Si4 0.941153 0.724397 0.049104
Si Si5 0.071107 0.071107 0.039833
Si Si6 0.476423 0.767142 0.239076
O O1 0.500000 0.500000 0.137881
O O2 0.432058 0.567943 0.371466
O O3 0.447904 0.676401 0.152807
O O4 0.756046 0.756046 0.347102
O O5 0.647387 0.902231 0.397326
O O6 0.688404 0.854685 0.136341
O O7 0.581595 0.752017 0.285362
O O8 0.531185 0.835474 0.582948
O O9 0.640467 0.969633 0.649385
O O10 0.500000 0.000000 0.479410
O O11 0.958587 0.829062 0.094952
O O12 0.916548 0.719150 0.881862
O O13 0.000000 0.000000 0.106904
#
# Coordination Sequence:
#
# PCOD8306928 Si02
#       6
#     4   8   8   8   4   8
#     4   9  18  36  61  89 117 156 207 256 302 372
#     4  11  23  39  62  90 127 167 209 258 320 373
#     4  11  24  38  60  94 131 164 207 260 317 377
#     4  10  21  36  61  88 118 162 206 255 310 367
#     4   9  18  38  61  85 117 158 211 258 302 368
#     4  10  22  38  63  88 123 162 210 258 313 370
#
# _framework density 19.787036000000001
#
# number of rings (size 3 to 8) (size 9 to 14) (size 15 to 20)
#    0.000    1.800    3.000    0.600    7.000    4.800 
#    0.000    0.000    0.000    3.600    0.000    0.000 
#    0.000    0.000    0.000    0.000    0.000    0.000 
#
# Total GULP energy -495838.253576 kJ/mol
# GULP energy per Si atom -12395.956339 kJ/mol
# Density = 1.974200 g / cm^3
# Si number density = 19.787036 Si / 1000 Ang^3
#
#
#
# Elastic Constant Matrix: (Units=GPa)
#
#
# Indices 1 2 3 4 5 6 
#
# 1 117.0464 57.7058 36.5655 0.0000 0.0000 -0.0002
# 2 57.7058 117.0464 36.5655 0.0000 0.0000 0.0002
# 3 36.5655 36.5655 63.1958 0.0000 0.0000 0.0000
# 4 0.0000 0.0000 0.0000 22.2388 0.0000 0.0000
# 5 0.0000 0.0000 0.0000 0.0000 22.2388 0.0000
# 6 -0.0002 0.0002 0.0000 0.0000 0.0000 43.9362
#
#
#
# Elastic Compliance Matrix: (Units=1/GPa)
#
#
# Indices 1 2 3 4 5 6 
#
# 1 0.012201 -0.004651 -0.004369 0.000000 0.000000 0.000000
# 2 -0.004651 0.012201 -0.004369 0.000000 0.000000 0.000000
# 3 -0.004369 -0.004369 0.020880 0.000000 0.000000 0.000000
# 4 0.000000 0.000000 0.000000 0.044966 0.000000 0.000000
# 5 0.000000 0.000000 0.000000 0.000000 0.044966 0.000000
# 6 0.000000 0.000000 0.000000 0.000000 0.000000 0.022760
#
#
# Mechanical properties :
#
#
# Convention : Reuss Voigt Hill
#
# Bulk Modulus (GPa) = 54.03819 62.10692 58.07256
# Shear Modulus (GPa) = 26.18891 28.77954 27.48423
#
# Velocity S-wave (km/s) = 3.64199 3.81788 3.73097
# Velocity P-wave (km/s) = 6.71228 7.13378 6.92624
#
# Compressibility (1/GPa) = 0.01850543
#
# Stress axis : x y z
#
# Youngs Moduli (GPa) = 81.95858 81.95858 47.89370
#
# Poissons Ratio (x) = 0.38116 0.20924
# Poissons Ratio (y) = 0.38116 0.20924
# Poissons Ratio (z) = 0.35807 0.35807
#
# Static dielectric constant tensor:
#      x y z
#    x 3.743970 0.000000 0.000000 
#    y 0.000000 3.743970 0.000000 
#    z 0.000000 0.000000 3.321590 
# 
# 
# High freq. dielectric constant tensor:
#      x y z
#    x 1.775590 0.000000 0.000000 
#    y 0.000000 1.775590 0.000000 
#    z 0.000000 0.000000 1.736360 
# 
# From -- ./inp_files/948.got.cif
#   From: 2010.03.12/outbox.cif.g09.slc.cpg/sg102_1_cif.got.tgz:948.got - 2010.04.14 01:40:42.
