data_PCOD8306641
_publ_section_title
;
Structure prediction by ZEFSAII (Michael W. Deem and Ramdas Pophale) SiO2 
 PCOD8306641
Probable space group: P 4 B M
;
_chemical_formula_sum "Si O2"
_cell_formula_units_Z 40
_cell_length_a 15.428967
_cell_length_b 15.428967
_cell_length_c 9.007341
_cell_angle_alpha 90.000000
_cell_angle_beta 90.000000
_cell_angle_gamma 90.000000
_cell_volume 2144.224751
_symmetry_space_group_name_H-M "P 4 B M"
_symmetry_group_IT_number 100
_symmetry_cell_setting 'tetragonal'
loop_
_space_group_symop_operation_xyz
x,y,z
-y,x,z
-x,-y,z
y,-x,z
1/2-x,1/2+y,z
1/2+x,1/2-y,z
1/2-y,1/2-x,z
1/2+y,1/2+x,z
loop_
_atom_site_type_symbol
_atom_site_label
_atom_site_fract_x
_atom_site_fract_y
_atom_site_fract_z
Si Si1 0.335804 0.302792 0.265180
Si Si2 0.572175 0.072175 0.107875
Si Si3 0.335804 0.302792 0.617378
Si Si4 0.753965 0.523153 0.264931
Si Si5 0.753966 0.523153 0.617631
Si Si6 0.927826 0.572175 0.774688
O O1 0.269303 0.230698 0.200339
O O2 0.333951 0.297871 0.441279
O O3 0.307363 0.398196 0.211540
O O4 0.432909 0.286287 0.206595
O O5 0.533277 0.152720 0.194535
O O6 0.500000 0.000000 0.103219
O O7 0.599423 0.099423 0.941282
O O8 0.269303 0.230698 0.682219
O O9 0.307363 0.398196 0.671019
O O10 0.432909 0.286286 0.675965
O O11 0.764870 0.523353 0.441281
O O12 0.847280 0.533278 0.688028
O O13 0.000000 0.500000 0.779345
#
# Coordination Sequence:
#
# PCOD8306641 Si02
#       6
#     8   4   8   8   8   4
#     4   9  17  30  51  82 111 138 179 223 266 326
#     4  11  23  37  53  79 111 142 189 234 269 319
#     4   9  17  30  51  82 111 138 179 223 266 326
#     4  10  19  34  57  80 110 144 178 224 276 326
#     4  10  19  34  57  80 110 144 178 224 276 326
#     4  11  23  37  53  79 111 142 189 234 269 319
#
# _framework density 18.65476
#
# number of rings (size 3 to 8) (size 9 to 14) (size 15 to 20)
#    0.000    2.200    2.000    1.800    0.000    4.000 
#    0.000    6.000    0.000    0.000    0.000    2.800 
#    0.000    0.000    0.000    0.000    0.000    0.000 
#
# Total GULP energy -495976.795294 kJ/mol
# GULP energy per Si atom -12399.419882 kJ/mol
# Density = 1.861230 g / cm^3
# Si number density = 18.654760 Si / 1000 Ang^3
#
#
#
# Elastic Constant Matrix: (Units=GPa)
#
#
# Indices 1 2 3 4 5 6 
#
# 1 324.2931 -68.4018 21.7177 0.0000 0.0000 -0.0076
# 2 -68.4018 324.2931 21.7177 0.0000 0.0000 0.0076
# 3 21.7177 21.7177 27.7877 0.0000 0.0000 0.0000
# 4 0.0000 0.0000 0.0000 -2.0863 0.0000 0.0000
# 5 0.0000 0.0000 0.0000 0.0000 -2.0863 0.0000
# 6 -0.0076 0.0076 0.0000 0.0000 0.0000 36.5225
#
#
#
# Elastic Compliance Matrix: (Units=1/GPa)
#
#
# Indices 1 2 3 4 5 6 
#
# 1 0.003526 0.000980 -0.003521 0.000000 0.000000 0.000001
# 2 0.000980 0.003526 -0.003521 0.000000 0.000000 -0.000001
# 3 -0.003521 -0.003521 0.041492 0.000000 0.000000 0.000000
# 4 0.000000 0.000000 0.000000 -0.479319 0.000000 0.000000
# 5 0.000000 0.000000 0.000000 0.000000 -0.479319 0.000000
# 6 0.000001 -0.000001 0.000000 0.000000 0.000000 0.027380
#
#
# Mechanical properties :
#
#
# Convention : Reuss Voigt Hill
#
# Bulk Modulus (GPa) = 27.45959 69.60454 48.53207
# Shear Modulus (GPa) = -5.82446 53.22601 23.70078
#
# Velocity S-wave (km/s) = -1.76890 5.34734 3.56827
# Velocity P-wave (km/s) = 3.25266 8.69013 6.56118
#
# Compressibility (1/GPa) = 0.03641714
#
# Stress axis : x y z
#
# Youngs Moduli (GPa) = 283.60168 283.60168 24.10131
#
# Poissons Ratio (x) = -0.27781 0.08487
# Poissons Ratio (y) = -0.27781 0.08487
# Poissons Ratio (z) = 0.99868 0.99868
#
# Static dielectric constant tensor:
#      x y z
#    x 3.881720 0.000000 0.000000 
#    y 0.000000 3.881720 0.000000 
#    z 0.000000 0.000000 3.065360 
# 
# 
# High freq. dielectric constant tensor:
#      x y z
#    x 1.737540 0.000000 0.000000 
#    y 0.000000 1.737540 0.000000 
#    z 0.000000 0.000000 1.675230 
# 
# From -- ./inp_files/801.got.cif
#   From: 2010.03.12/outbox.cif.g09.slc.cpg/sg100_cif.got.tgz:801.got - 2010.04.14 01:37:57.
