data_PCOD8306269
_publ_section_title
;
Structure prediction by ZEFSAII (Michael W. Deem and Ramdas Pophale) SiO2 
 PCOD8306269
Probable space group: I 41 2 2
;
_chemical_formula_sum "Si O2"
_cell_formula_units_Z 40
_cell_length_a 7.589391
_cell_length_b 7.589391
_cell_length_c 27.358716
_cell_angle_alpha 90.000000
_cell_angle_beta 90.000000
_cell_angle_gamma 90.000000
_cell_volume 1575.830736
_symmetry_space_group_name_H-M "I 41 2 2"
_symmetry_group_IT_number 98
_symmetry_cell_setting 'tetragonal'
loop_
_space_group_symop_operation_xyz
x,y,z
-y,1/2+x,1/4+z
-x,-y,z
y,1/2-x,1/4+z
x,1/2-y,1/4-z
-x,1/2+y,1/4-z
y,x,-z
-y,-x,-z
1/2+x,1/2+y,1/2+z
1/2-y,x,3/4+z
1/2-x,1/2-y,1/2+z
1/2+y,-x,3/4+z
1/2+x,-y,3/4-z
1/2-x,y,3/4-z
1/2+y,1/2+x,1/2-z
1/2-y,1/2-x,1/2-z
loop_
_atom_site_type_symbol
_atom_site_label
_atom_site_fract_x
_atom_site_fract_y
_atom_site_fract_z
Si Si1 0.797089 0.950285 0.175660
Si Si2 0.950539 0.703335 0.316233
Si Si3 0.766599 0.233401 0.500000
O O1 0.720382 0.976483 0.120875
O O2 0.771160 0.754220 0.197234
O O3 0.696163 0.086249 0.209750
O O4 0.000000 0.000000 0.173760
O O5 0.000000 0.500000 0.314673
O O6 0.075626 0.796388 0.276032
#
# Coordination Sequence:
#
# PCOD8306269 Si02
#       3
#    16  16   8
#     4  10  21  35  61 104 141 182 239 292 356 424
#     4  10  20  37  61 101 141 186 232 291 361 426
#     4  12  21  36  70 103 130 189 240 294 347 422
#
# _framework density 25.38344
#
# number of rings (size 3 to 8) (size 9 to 14) (size 15 to 20)
#    0.000    1.600    4.000    1.800    0.000    0.000 
#    0.000    0.000    0.000   16.800   20.800   11.200 
#    0.000    0.000    0.000    0.000    0.000    0.000 
#
# Total GULP energy -247971.541742 kJ/mol
# GULP energy per Si atom -12398.577087 kJ/mol
# Density = 2.532567 g / cm^3
# Si number density = 25.383440 Si / 1000 Ang^3
#
#
#
# Elastic Constant Matrix: (Units=GPa)
#
#
# Indices 1 2 3 4 5 6 
#
# 1 113.5220 32.9909 62.5557 0.0000 0.0000 0.0000
# 2 32.9909 113.5242 62.5556 0.0000 0.0000 0.0000
# 3 62.5557 62.5556 161.5267 0.0000 0.0000 0.0000
# 4 0.0000 0.0000 0.0000 15.8610 0.0000 0.0000
# 5 0.0000 0.0000 0.0000 0.0000 15.8590 0.0000
# 6 0.0000 0.0000 0.0000 0.0000 0.0000 16.8310
#
#
#
# Elastic Compliance Matrix: (Units=1/GPa)
#
#
# Indices 1 2 3 4 5 6 
#
# 1 0.011308 -0.001110 -0.003949 0.000000 0.000000 0.000000
# 2 -0.001110 0.011307 -0.003949 0.000000 0.000000 0.000000
# 3 -0.003949 -0.003949 0.009250 0.000000 0.000000 0.000000
# 4 0.000000 0.000000 0.000000 0.063048 0.000000 0.000000
# 5 0.000000 0.000000 0.000000 0.000000 0.063056 0.000000
# 6 0.000000 0.000000 0.000000 0.000000 0.000000 0.059414
#
#
# Mechanical properties :
#
#
# Convention : Reuss Voigt Hill
#
# Bulk Modulus (GPa) = 72.21281 78.30860 75.26070
# Shear Modulus (GPa) = 20.83199 25.07493 22.95346
#
# Velocity S-wave (km/s) = 2.86788 3.14641 3.01037
# Velocity P-wave (km/s) = 6.28306 6.64207 6.46506
#
# Compressibility (1/GPa) = 0.01384796
#
# Stress axis : x y z
#
# Youngs Moduli (GPa) = 88.43531 88.43765 108.10916
#
# Poissons Ratio (x) = 0.09815 0.42697
# Poissons Ratio (y) = 0.09815 0.42695
# Poissons Ratio (z) = 0.34927 0.34927
#
# Static dielectric constant tensor:
#      x y z
#    x 4.469050 0.000000 0.000000 
#    y 0.000000 4.469100 0.000000 
#    z 0.000000 0.000000 5.284910 
# 
# 
# High freq. dielectric constant tensor:
#      x y z
#    x 1.990770 0.000000 0.000000 
#    y 0.000000 1.990770 0.000000 
#    z 0.000000 0.000000 2.042780 
# 
# From -- ./inp_files/9499.got.cif
#   From: 2010.03.12/outbox.cif.g09.slc.cpg/sg98_5_cif.got.tgz:9499.got - 2010.04.08 21:04:41.
