data_PCOD8306921
_publ_section_title
;
Structure prediction by ZEFSAII (Michael W. Deem and Ramdas Pophale) SiO2 
 PCOD8306921
Probable space group: P 42 N M
;
_chemical_formula_sum "Si O2"
_cell_formula_units_Z 64
_cell_length_a 12.562305
_cell_length_b 12.562305
_cell_length_c 22.547358
_cell_angle_alpha 90.000000
_cell_angle_beta 90.000000
_cell_angle_gamma 90.000000
_cell_volume 3558.232543
_symmetry_space_group_name_H-M "P 42 N M"
_symmetry_group_IT_number 102
_symmetry_cell_setting 'tetragonal'
loop_
_space_group_symop_operation_xyz
x,y,z
1/2-y,1/2+x,1/2+z
-x,-y,z
1/2+y,1/2-x,1/2+z
1/2-x,1/2+y,1/2+z
1/2+x,1/2-y,1/2+z
-y,-x,z
y,x,z
loop_
_atom_site_type_symbol
_atom_site_label
_atom_site_fract_x
_atom_site_fract_y
_atom_site_fract_z
Si Si1 0.561878 0.269188 0.672650
Si Si2 0.715899 0.112753 0.737295
Si Si3 0.173254 0.997537 0.526205
Si Si4 0.715898 0.112751 0.085370
Si Si5 0.673255 0.502464 0.796461
Si Si6 0.894258 0.434071 0.979419
Si Si7 0.934072 0.605743 0.343247
Si Si8 0.730815 0.438122 0.150016
O O1 0.632281 0.367720 0.651765
O O2 0.633210 0.173199 0.695743
O O3 0.501848 0.231880 0.614082
O O4 0.483950 0.304837 0.726213
O O5 0.828116 0.171885 0.740632
O O6 0.671658 0.102990 0.803689
O O7 0.731878 0.998153 0.708584
O O8 0.103134 0.896867 0.504350
O O9 0.285094 0.999679 0.491110
O O10 0.195159 0.983952 0.596454
O O11 0.108285 0.108285 0.515410
O O12 0.828112 0.171889 0.082035
O O13 0.633203 0.173191 0.126921
O O14 0.671661 0.102987 0.018975
O O15 0.608285 0.391716 0.807255
O O16 0.603133 0.603133 0.818316
O O17 0.785093 0.500323 0.831557
O O18 0.896780 0.398312 0.911333
O O19 0.000000 0.500000 0.995717
O O20 0.000000 0.500000 0.326949
O O21 0.632291 0.367710 0.170902
#
# Coordination Sequence:
#
# PCOD8306921 Si02
#       8
#     8   8   8   8   8   8   8   8
#     4   9  19  33  52  82 113 138 171 217 269 328
#     4  10  21  34  54  82 106 141 179 213 269 320
#     4   9  18  34  58  85 110 136 171 226 288 333
#     4  10  21  34  54  82 106 141 179 213 269 320
#     4   9  18  34  58  85 110 136 171 226 288 333
#     4  10  22  38  53  75 108 146 186 224 265 315
#     4  10  22  38  53  75 108 146 186 224 265 315
#     4   9  19  33  52  82 113 138 171 217 269 328
#
# _framework density 17.986457999999999
#
# number of rings (size 3 to 8) (size 9 to 14) (size 15 to 20)
#    0.000    2.500    0.000    3.000    7.000    4.000 
#    0.000    1.250    0.000    2.250    0.000    1.750 
#    0.000    0.000    0.000    0.000    0.000    0.000 
#
# Total GULP energy -793519.547524 kJ/mol
# GULP energy per Si atom -12398.742930 kJ/mol
# Density = 1.794552 g / cm^3
# Si number density = 17.986458 Si / 1000 Ang^3
#
#
#
# Elastic Constant Matrix: (Units=GPa)
#
#
# Indices 1 2 3 4 5 6 
#
# 1 90.7665 25.2912 40.1755 0.0000 0.0000 -0.0001
# 2 25.2912 90.7665 40.1755 0.0000 0.0000 0.0001
# 3 40.1755 40.1755 93.1792 0.0000 0.0000 0.0000
# 4 0.0000 0.0000 0.0000 18.8400 0.0000 0.0000
# 5 0.0000 0.0000 0.0000 0.0000 18.8400 0.0000
# 6 -0.0001 0.0001 0.0000 0.0000 0.0000 18.0102
#
#
#
# Elastic Compliance Matrix: (Units=1/GPa)
#
#
# Indices 1 2 3 4 5 6 
#
# 1 0.013778 -0.001495 -0.005296 0.000000 0.000000 0.000000
# 2 -0.001495 0.013778 -0.005296 0.000000 0.000000 0.000000
# 3 -0.005296 -0.005296 0.015299 0.000000 0.000000 0.000000
# 4 0.000000 0.000000 0.000000 0.053079 0.000000 0.000000
# 5 0.000000 0.000000 0.000000 0.000000 0.053079 0.000000
# 6 0.000000 0.000000 0.000000 0.000000 0.000000 0.055524
#
#
# Mechanical properties :
#
#
# Convention : Reuss Voigt Hill
#
# Bulk Modulus (GPa) = 53.53044 53.99960 53.76502
# Shear Modulus (GPa) = 21.28233 22.40939 21.84586
#
# Velocity S-wave (km/s) = 3.44356 3.53356 3.48885
# Velocity P-wave (km/s) = 6.75551 6.83635 6.79605
#
# Compressibility (1/GPa) = 0.01868096
#
# Stress axis : x y z
#
# Youngs Moduli (GPa) = 72.57962 72.57962 65.36428
#
# Poissons Ratio (x) = 0.10850 0.34617
# Poissons Ratio (y) = 0.10850 0.34617
# Poissons Ratio (z) = 0.38438 0.38438
#
# Static dielectric constant tensor:
#      x y z
#    x 3.333610 0.000000 0.000000 
#    y 0.000000 3.333610 0.000000 
#    z 0.000000 0.000000 3.179870 
# 
# 
# High freq. dielectric constant tensor:
#      x y z
#    x 1.693280 0.000000 0.000000 
#    y 0.000000 1.693280 0.000000 
#    z 0.000000 0.000000 1.684270 
# 
# From -- ./inp_files/3409.got.cif
#   From: 2010.03.12/outbox.cif.g09.slc.cpg/sg102_2_cif.got.tgz:3409.got - 2010.04.14 01:40:42.
