data_PCOD8306157
_publ_section_title
;
Structure prediction by ZEFSAII (Michael W. Deem and Ramdas Pophale) SiO2 
 PCOD8306157
Probable space group: I 4 2 2 
;
_chemical_formula_sum "Si O2"
_cell_formula_units_Z 104
_cell_length_a 20.002253
_cell_length_b 20.002253
_cell_length_c 15.219874
_cell_angle_alpha 90.000000
_cell_angle_beta 90.000000
_cell_angle_gamma 90.000000
_cell_volume 6089.321292
_symmetry_space_group_name_H-M "I 4 2 2 "
_symmetry_group_IT_number 97
_symmetry_cell_setting 'tetragonal'
loop_
_space_group_symop_operation_xyz
x,y,z
-y,x,z
-x,-y,z
y,-x,z
x,-y,-z
-x,y,-z
y,x,-z
-y,-x,-z
1/2+x,1/2+y,1/2+z
1/2-y,1/2+x,1/2+z
1/2-x,1/2-y,1/2+z
1/2+y,1/2-x,1/2+z
1/2+x,1/2-y,1/2-z
1/2-x,1/2+y,1/2-z
1/2+y,1/2+x,1/2-z
1/2-y,1/2-x,1/2-z
loop_
_atom_site_type_symbol
_atom_site_label
_atom_site_fract_x
_atom_site_fract_y
_atom_site_fract_z
Si Si1 0.578398 0.421603 0.000000
Si Si2 0.212055 0.675475 0.495825
Si Si3 0.661110 0.227831 0.825084
Si Si4 0.158860 0.074190 0.673075
Si Si5 0.662772 0.222883 0.169090
Si Si6 0.067494 0.171757 0.753091
Si Si7 0.572790 0.321515 0.539183
O O1 0.593410 0.500000 0.000000
O O2 0.620796 0.398859 0.915153
O O3 0.267031 0.732970 0.500000
O O4 0.159339 0.688761 0.417392
O O5 0.168117 0.676142 0.583786
O O6 0.250160 0.605016 0.486324
O O7 0.673941 0.173941 0.750000
O O8 0.720538 0.281137 0.828595
O O9 0.591353 0.262454 0.799804
O O10 0.238103 0.091530 0.669458
O O11 0.124221 0.115078 0.750954
O O12 0.147860 0.997704 0.699663
O O13 0.671973 0.171973 0.250000
O O14 0.059821 0.181234 0.856549
O O15 0.500000 0.329576 0.500000
O O16 0.618387 0.381614 0.500000
#
# Coordination Sequence:
#
# PCOD8306157 Si02
#       7
#     8  16  16  16  16  16  16
#     4  11  22  38  48  72 102 146 186 216 247 300
#     4   9  18  32  52  74  99 130 169 220 267 311
#     4   9  16  32  50  74  96 130 172 212 267 309
#     4  11  23  35  52  75 107 142 181 214 257 308
#     4   9  20  31  52  74 100 132 169 222 269 313
#     4  11  22  35  53  74 107 144 177 216 254 311
#     4  11  23  36  53  74 104 140 180 217 256 309
#
# _framework density 17.079079
#
# number of rings (size 3 to 8) (size 9 to 14) (size 15 to 20)
#    0.000    1.923    3.077    0.923   14.000    0.462 
#    0.000    1.538    0.000    0.000    0.000    0.000 
#    0.000    5.538    0.000    0.000    0.000    0.000 
#
# Total GULP energy -644320.510797 kJ/mol
# GULP energy per Si atom -12390.779054 kJ/mol
# Density = 1.704021 g / cm^3
# Si number density = 17.079079 Si / 1000 Ang^3
#
#
#
# Elastic Constant Matrix: (Units=GPa)
#
#
# Indices 1 2 3 4 5 6 
#
# 1 50.9487 54.7467 40.3191 0.0000 0.0000 0.0000
# 2 54.7467 50.9464 40.3176 0.0000 0.0000 0.0000
# 3 40.3191 40.3176 141.9940 0.0000 0.0000 0.0000
# 4 0.0000 0.0000 0.0000 23.0785 0.0000 0.0000
# 5 0.0000 0.0000 0.0000 0.0000 23.0787 0.0000
# 6 0.0000 0.0000 0.0000 0.0000 0.0000 22.0865
#
#
#
# Elastic Compliance Matrix: (Units=1/GPa)
#
#
# Indices 1 2 3 4 5 6 
#
# 1 -0.125569 0.137649 -0.003429 0.000000 0.000000 0.000000
# 2 0.137649 -0.125574 -0.003430 0.000000 0.000000 0.000000
# 3 -0.003429 -0.003430 0.008990 0.000000 0.000000 0.000000
# 4 0.000000 0.000000 0.000000 0.043330 0.000000 0.000000
# 5 0.000000 0.000000 0.000000 0.000000 0.043330 0.000000
# 6 0.000000 0.000000 0.000000 0.000000 0.000000 0.045277
#
#
# Mechanical properties :
#
#
# Convention : Reuss Voigt Hill
#
# Bulk Modulus (GPa) = 51.47265 57.18398 54.32831
# Shear Modulus (GPa) = -13.68658 20.88247 3.59795
#
# Velocity S-wave (km/s) = -2.83391 3.50050 1.45300
# Velocity P-wave (km/s) = 4.41534 7.06346 5.89015
#
# Compressibility (1/GPa) = 0.01942779
#
# Stress axis : x y z
#
# Youngs Moduli (GPa) = -7.96373 -7.96344 111.23414
#
# Poissons Ratio (x) = 1.09616 0.38138
# Poissons Ratio (y) = 1.09620 0.38155
# Poissons Ratio (z) = -0.02730 -0.02732
#
# Static dielectric constant tensor:
#      x y z
#    x 3.012680 0.000000 0.000000 
#    y 0.000000 3.012670 0.000000 
#    z 0.000000 0.000000 3.516440 
# 
# 
# High freq. dielectric constant tensor:
#      x y z
#    x 1.626010 0.000000 0.000000 
#    y 0.000000 1.626010 0.000000 
#    z 0.000000 0.000000 1.683250 
# 
# From -- ./inp_files/5027.got.cif
#   From: 2010.03.12/outbox.cif.g09.slc.cpg/sg97_3_cif.got.tgz:5027.got - 2010.04.08 20:59:42.
