data_PCOD8306123
_publ_section_title
;
Structure prediction by ZEFSAII (Michael W. Deem and Ramdas Pophale) SiO2 
 PCOD8306123
Probable space group: I 4 2 2 
;
_chemical_formula_sum "Si O2"
_cell_formula_units_Z 112
_cell_length_a 14.649338
_cell_length_b 14.649338
_cell_length_c 24.306575
_cell_angle_alpha 90.000000
_cell_angle_beta 90.000000
_cell_angle_gamma 90.000000
_cell_volume 5216.266439
_symmetry_space_group_name_H-M "I 4 2 2 "
_symmetry_group_IT_number 97
_symmetry_cell_setting 'tetragonal'
loop_
_space_group_symop_operation_xyz
x,y,z
-y,x,z
-x,-y,z
y,-x,z
x,-y,-z
-x,y,-z
y,x,-z
-y,-x,-z
1/2+x,1/2+y,1/2+z
1/2-y,1/2+x,1/2+z
1/2-x,1/2-y,1/2+z
1/2+y,1/2-x,1/2+z
1/2+x,1/2-y,1/2-z
1/2-x,1/2+y,1/2-z
1/2+y,1/2+x,1/2-z
1/2-y,1/2-x,1/2-z
loop_
_atom_site_type_symbol
_atom_site_label
_atom_site_fract_x
_atom_site_fract_y
_atom_site_fract_z
Si Si1 0.448623 0.904176 0.689696
Si Si2 0.390813 0.781380 0.293931
Si Si3 0.083418 0.880143 0.064346
Si Si4 0.864855 0.064972 0.288049
Si Si5 0.838985 0.750867 0.376253
Si Si6 0.819542 0.340741 0.408042
Si Si7 0.256297 0.104104 0.507633
O O1 0.400365 0.900365 0.750000
O O2 0.513161 0.817627 0.686070
O O3 0.383928 0.885496 0.637874
O O4 0.500000 0.000000 0.681077
O O5 0.353495 0.853495 0.250000
O O6 0.402979 0.680772 0.268994
O O7 0.324701 0.777796 0.345696
O O8 0.126827 0.786430 0.087919
O O9 0.977370 0.875059 0.084878
O O10 0.107265 0.892736 0.000000
O O11 0.796869 0.085004 0.338137
O O12 0.957642 0.120572 0.291112
O O13 0.765895 0.826505 0.393241
O O14 0.886275 0.706882 0.429743
O O15 0.866780 0.342201 0.468565
O O16 0.167473 0.167473 0.500000
O O17 0.225932 0.000000 0.500000
#
# Coordination Sequence:
#
# PCOD8306123 Si02
#       7
#    16  16  16  16  16  16  16
#     4  11  25  43  69  98 133 178 230 282 348 422
#     4  10  22  42  67  95 130 174 218 279 337 416
#     4   9  19  40  69  99 137 177 221 274 335 411
#     4  10  24  42  67 103 138 174 226 291 349 406
#     4  10  24  40  70  94 135 178 226 278 347 406
#     4  11  25  42  68 100 135 182 228 282 351 408
#     4  10  24  44  67  98 136 178 232 290 341 419
#
# _framework density 21.471295000000001
#
# number of rings (size 3 to 8) (size 9 to 14) (size 15 to 20)
#    0.000    1.857    1.429    1.714   12.000    0.714 
#    0.000    0.000    0.000    0.000    0.000    0.000 
#    0.000    0.000    0.000    0.000    0.000    0.000 
#
# Total GULP energy -693768.501777 kJ/mol
# GULP energy per Si atom -12388.723246 kJ/mol
# Density = 2.142243 g / cm^3
# Si number density = 21.471295 Si / 1000 Ang^3
#
#
#
# Elastic Constant Matrix: (Units=GPa)
#
#
# Indices 1 2 3 4 5 6 
#
# 1 109.4902 33.4313 63.0801 0.0000 0.0000 0.0000
# 2 33.4313 109.4902 63.0802 0.0000 0.0000 0.0000
# 3 63.0801 63.0802 166.3608 0.0000 0.0000 0.0000
# 4 0.0000 0.0000 0.0000 32.2840 0.0000 0.0000
# 5 0.0000 0.0000 0.0000 0.0000 32.2840 0.0000
# 6 0.0000 0.0000 0.0000 0.0000 0.0000 26.5837
#
#
#
# Elastic Compliance Matrix: (Units=1/GPa)
#
#
# Indices 1 2 3 4 5 6 
#
# 1 0.011832 -0.001315 -0.003988 0.000000 0.000000 0.000000
# 2 -0.001315 0.011832 -0.003988 0.000000 0.000000 0.000000
# 3 -0.003988 -0.003988 0.009035 0.000000 0.000000 0.000000
# 4 0.000000 0.000000 0.000000 0.030975 0.000000 0.000000
# 5 0.000000 0.000000 0.000000 0.000000 0.030975 0.000000
# 6 0.000000 0.000000 0.000000 0.000000 0.000000 0.037617
#
#
# Mechanical properties :
#
#
# Convention : Reuss Voigt Hill
#
# Bulk Modulus (GPa) = 70.83177 78.28050 74.55613
# Shear Modulus (GPa) = 32.14298 33.28032 32.71165
#
# Velocity S-wave (km/s) = 3.87333 3.94126 3.90745
# Velocity P-wave (km/s) = 7.28452 7.56629 7.42674
#
# Compressibility (1/GPa) = 0.01411796
#
# Stress axis : x y z
#
# Youngs Moduli (GPa) = 84.51414 84.51413 110.67840
#
# Poissons Ratio (x) = 0.11117 0.44136
# Poissons Ratio (y) = 0.11117 0.44136
# Poissons Ratio (z) = 0.33702 0.33702
#
# Static dielectric constant tensor:
#      x y z
#    x 3.780250 0.000000 0.000000 
#    y 0.000000 3.780250 0.000000 
#    z 0.000000 0.000000 3.819590 
# 
# 
# High freq. dielectric constant tensor:
#      x y z
#    x 1.838170 0.000000 0.000000 
#    y 0.000000 1.838170 0.000000 
#    z 0.000000 0.000000 1.853360 
# 
# From -- ./inp_files/7242.got.cif
#   From: 2010.03.12/outbox.cif.g09.slc.cpg/sg97_4_cif.got.tgz:7242.got - 2010.04.08 20:59:42.
