data_PCOD8306695
_publ_section_title
;
Structure prediction by ZEFSAII (Michael W. Deem and Ramdas Pophale) SiO2 
 PCOD8306695
Probable space group: P 42 C M
;
_chemical_formula_sum "Si O2"
_cell_formula_units_Z 40
_cell_length_a 20.147334
_cell_length_b 20.147334
_cell_length_c 5.186275
_cell_angle_alpha 90.000000
_cell_angle_beta 90.000000
_cell_angle_gamma 90.000000
_cell_volume 2105.187166
_symmetry_space_group_name_H-M "P 42 C M"
_symmetry_group_IT_number 101
_symmetry_cell_setting 'tetragonal'
loop_
_space_group_symop_operation_xyz
x,y,z
-y,x,1/2+z
-x,-y,z
y,-x,1/2+z
-x,y,1/2+z
x,-y,1/2+z
-y,-x,z
y,x,z
loop_
_atom_site_type_symbol
_atom_site_label
_atom_site_fract_x
_atom_site_fract_y
_atom_site_fract_z
Si Si1 0.818952 0.542491 0.171620
Si Si2 0.427304 0.971300 0.708500
Si Si3 0.314810 0.204445 0.110952
Si Si4 0.147769 0.258171 0.617178
Si Si5 0.847040 0.042549 0.160412
O O1 0.803180 0.508597 0.443517
O O2 0.893878 0.568955 0.151713
O O3 0.773580 0.608278 0.142950
O O4 0.500000 0.000000 0.774595
O O5 0.389809 0.010896 0.477307
O O6 0.271217 0.271217 0.106654
O O7 0.294875 0.156326 0.345790
O O8 0.308895 0.160867 0.851409
O O9 0.199923 0.199923 0.651609
O O10 0.075007 0.225896 0.631664
O O11 0.904240 0.095761 0.109977
O O12 0.854668 0.014719 0.448464
#
# Coordination Sequence:
#
# PCOD8306695 Si02
#       5
#     8   8   8   8   8
#     4  12  21  33  55  81 109 145 178 211 270 324
#     4  10  16  30  46  63 100 138 168 198 238 308
#     4  10  21  38  58  79 106 140 186 226 263 313
#     4   9  19  38  57  72  98 142 179 220 274 316
#     4  11  22  36  56  76 106 137 174 233 290 345
#
# _framework density 19.000684
#
# number of rings (size 3 to 8) (size 9 to 14) (size 15 to 20)
#    0.000    1.600    4.000    3.000    0.000    4.400 
#    0.000    6.000    0.000    0.000    0.000    0.000 
#    0.000    2.400    0.000    0.000    0.000    0.000 
#
# Total GULP energy -495969.231781 kJ/mol
# GULP energy per Si atom -12399.230795 kJ/mol
# Density = 1.895744 g / cm^3
# Si number density = 19.000684 Si / 1000 Ang^3
#
#
#
# Elastic Constant Matrix: (Units=GPa)
#
#
# Indices 1 2 3 4 5 6 
#
# 1 63.3675 20.0757 9.4256 0.0000 0.0000 0.0000
# 2 20.0757 63.3675 9.4256 0.0000 0.0000 0.0000
# 3 9.4256 9.4256 115.9367 0.0000 0.0000 0.0000
# 4 0.0000 0.0000 0.0000 21.6452 0.0000 0.0000
# 5 0.0000 0.0000 0.0000 0.0000 21.6452 0.0000
# 6 0.0000 0.0000 0.0000 0.0000 0.0000 12.4860
#
#
#
# Elastic Compliance Matrix: (Units=1/GPa)
#
#
# Indices 1 2 3 4 5 6 
#
# 1 0.017654 -0.005445 -0.000993 0.000000 0.000000 0.000000
# 2 -0.005445 0.017654 -0.000993 0.000000 0.000000 0.000000
# 3 -0.000993 -0.000993 0.008787 0.000000 0.000000 0.000000
# 4 0.000000 0.000000 0.000000 0.046200 0.000000 0.000000
# 5 0.000000 0.000000 0.000000 0.000000 0.046200 0.000000
# 6 0.000000 0.000000 0.000000 0.000000 0.000000 0.080090
#
#
# Mechanical properties :
#
#
# Convention : Reuss Voigt Hill
#
# Bulk Modulus (GPa) = 34.20735 35.61394 34.91065
# Shear Modulus (GPa) = 20.73069 24.73827 22.73448
#
# Velocity S-wave (km/s) = 3.30669 3.61219 3.46281
# Velocity P-wave (km/s) = 5.71150 6.01510 5.86526
#
# Compressibility (1/GPa) = 0.02923348
#
# Stress axis : x y z
#
# Youngs Moduli (GPa) = 56.64518 56.64518 113.80733
#
# Poissons Ratio (x) = 0.30845 0.11296
# Poissons Ratio (y) = 0.30845 0.11296
# Poissons Ratio (z) = 0.05622 0.05622
#
# Static dielectric constant tensor:
#      x y z
#    x 3.365230 0.000000 0.000000 
#    y 0.000000 3.365230 0.000000 
#    z 0.000000 0.000000 3.926740 
# 
# 
# High freq. dielectric constant tensor:
#      x y z
#    x 1.708850 0.000000 0.000000 
#    y 0.000000 1.708850 0.000000 
#    z 0.000000 0.000000 1.770510 
# 
# From -- ./inp_files/91.got.cif
#   From: 2010.03.12/outbox.cif.g09.slc.cpg/sg101_1_cif.got.tgz:91.got - 2010.04.14 01:38:52.
