data_PCOD8306707
_publ_section_title
;
Structure prediction by ZEFSAII (Michael W. Deem and Ramdas Pophale) SiO2 
 PCOD8306707
Probable space group: P 42 C M
;
_chemical_formula_sum "Si O2"
_cell_formula_units_Z 64
_cell_length_a 25.953215
_cell_length_b 25.953215
_cell_length_c 5.218946
_cell_angle_alpha 90.000000
_cell_angle_beta 90.000000
_cell_angle_gamma 90.000000
_cell_volume 3515.322163
_symmetry_space_group_name_H-M "P 42 C M"
_symmetry_group_IT_number 101
_symmetry_cell_setting 'tetragonal'
loop_
_space_group_symop_operation_xyz
x,y,z
-y,x,1/2+z
-x,-y,z
y,-x,1/2+z
-x,y,1/2+z
x,-y,1/2+z
-y,-x,z
y,x,z
loop_
_atom_site_type_symbol
_atom_site_label
_atom_site_fract_x
_atom_site_fract_y
_atom_site_fract_z
Si Si1 0.920868 0.473481 0.919910
Si Si2 0.748715 0.033754 0.890549
Si Si3 0.217496 0.395118 0.872976
Si Si4 0.709823 0.480805 0.382046
Si Si5 0.852421 0.233598 0.893179
Si Si6 0.806715 0.278136 0.392148
Si Si7 0.189654 0.448696 0.363871
Si Si8 0.030969 0.368315 0.350224
O O1 0.946412 0.501963 0.674492
O O2 0.859853 0.484043 0.918305
O O3 0.926957 0.411716 0.911609
O O4 0.781541 0.086802 0.890040
O O5 0.689138 0.052658 0.890278
O O6 0.761959 0.999388 0.642666
O O7 0.275578 0.420206 0.903923
O O8 0.218699 0.334127 0.895046
O O9 0.196418 0.408703 0.594215
O O10 0.181943 0.416363 0.102630
O O11 0.678313 0.504570 0.622810
O O12 0.763501 0.511619 0.328219
O O13 0.819162 0.180839 0.895185
O O14 0.840643 0.267970 0.643933
O O15 0.841766 0.268209 0.143403
O O16 0.758364 0.241637 0.386613
O O17 0.985094 0.376035 0.554934
#
# Coordination Sequence:
#
# PCOD8306707 Si02
#       8
#     8   8   8   8   8   8   8   8
#     4  12  23  34  48  64  85 115 157 209 258 295
#     4  10  21  39  58  79 104 130 163 199 231 277
#     4  10  18  28  46  60  85 122 145 185 243 288
#     4   8  14  25  38  54  82 101 137 191 235 274
#     4  10  21  38  56  80 107 130 155 193 232 272
#     4  10  21  33  48  75 103 128 161 191 233 293
#     4  10  19  31  41  66  84 104 152 202 245 284
#     4  10  23  38  49  66  89 119 161 199 237 288
#
# _framework density 18.206012000000001
#
# number of rings (size 3 to 8) (size 9 to 14) (size 15 to 20)
#    0.000    2.000    0.000    5.250    3.500    1.500 
#    0.000    0.000    0.000    0.000    0.000    0.000 
#    0.000    1.500    0.000    0.000    0.000    0.000 
#
# Total GULP energy -793203.692057 kJ/mol
# GULP energy per Si atom -12393.807688 kJ/mol
# Density = 1.816457 g / cm^3
# Si number density = 18.206012 Si / 1000 Ang^3
#
#
#
# Elastic Constant Matrix: (Units=GPa)
#
#
# Indices 1 2 3 4 5 6 
#
# 1 55.8134 4.6117 20.3391 0.0000 0.0000 -0.0010
# 2 4.6117 55.8134 20.3391 0.0000 0.0000 0.0010
# 3 20.3391 20.3391 130.8912 0.0000 0.0000 0.0000
# 4 0.0000 0.0000 0.0000 12.9800 0.0000 0.0000
# 5 0.0000 0.0000 0.0000 0.0000 12.9800 0.0000
# 6 -0.0010 0.0010 0.0000 0.0000 0.0000 7.7486
#
#
#
# Elastic Compliance Matrix: (Units=1/GPa)
#
#
# Indices 1 2 3 4 5 6 
#
# 1 0.019007 -0.000524 -0.002872 0.000000 0.000000 0.000003
# 2 -0.000524 0.019007 -0.002872 0.000000 0.000000 -0.000003
# 3 -0.002872 -0.002872 0.008532 0.000000 0.000000 0.000000
# 4 0.000000 0.000000 0.000000 0.077041 0.000000 0.000000
# 5 0.000000 0.000000 0.000000 0.000000 0.077041 0.000000
# 6 0.000003 -0.000003 0.000000 0.000000 0.000000 0.129055
#
#
# Mechanical properties :
#
#
# Convention : Reuss Voigt Hill
#
# Bulk Modulus (GPa) = 29.40307 37.01088 33.20697
# Shear Modulus (GPa) = 14.14201 19.89028 17.01615
#
# Velocity S-wave (km/s) = 2.79010 3.30890 3.06051
# Velocity P-wave (km/s) = 5.15410 5.91367 5.54690
#
# Compressibility (1/GPa) = 0.03401005
#
# Stress axis : x y z
#
# Youngs Moduli (GPa) = 52.61297 52.61297 117.19897
#
# Poissons Ratio (x) = 0.02756 0.33660
# Poissons Ratio (y) = 0.02756 0.33660
# Poissons Ratio (z) = 0.15111 0.15111
#
# Static dielectric constant tensor:
#      x y z
#    x 2.991050 0.000000 0.000000 
#    y 0.000000 2.991050 0.000000 
#    z 0.000000 0.000000 4.319460 
# 
# 
# High freq. dielectric constant tensor:
#      x y z
#    x 1.660470 0.000000 0.000000 
#    y 0.000000 1.660470 0.000000 
#    z 0.000000 0.000000 1.746940 
# 
# From -- ./inp_files/213.got.cif
#   From: 2010.03.12/outbox.cif.g09.slc.cpg/sg101_1_cif.got.tgz:213.got - 2010.04.14 01:38:52.
