data_PCOD8306192
_publ_section_title
;
Structure prediction by ZEFSAII (Michael W. Deem and Ramdas Pophale) SiO2 
 PCOD8306192
Probable space group: I 41 2 2
;
_chemical_formula_sum "Si O2"
_cell_formula_units_Z 88
_cell_length_a 13.519395
_cell_length_b 13.519395
_cell_length_c 22.916995
_cell_angle_alpha 90.000000
_cell_angle_beta 90.000000
_cell_angle_gamma 90.000000
_cell_volume 4188.631788
_symmetry_space_group_name_H-M "I 41 2 2"
_symmetry_group_IT_number 98
_symmetry_cell_setting 'tetragonal'
loop_
_space_group_symop_operation_xyz
x,y,z
-y,1/2+x,1/4+z
-x,-y,z
y,1/2-x,1/4+z
x,1/2-y,1/4-z
-x,1/2+y,1/4-z
y,x,-z
-y,-x,-z
1/2+x,1/2+y,1/2+z
1/2-y,x,3/4+z
1/2-x,1/2-y,1/2+z
1/2+y,-x,3/4+z
1/2+x,-y,3/4-z
1/2-x,y,3/4-z
1/2+y,1/2+x,1/2-z
1/2-y,1/2-x,1/2-z
loop_
_atom_site_type_symbol
_atom_site_label
_atom_site_fract_x
_atom_site_fract_y
_atom_site_fract_z
Si Si1 0.577324 0.305376 0.567696
Si Si2 0.972595 0.607874 0.472390
Si Si3 0.904363 0.748828 0.256998
Si Si4 0.095177 0.676958 0.579737
Si Si5 0.463466 0.727186 0.388184
Si Si6 0.255306 0.744694 0.000000
O O1 0.542459 0.250000 0.625000
O O2 0.479804 0.321353 0.529357
O O3 0.636903 0.405779 0.580399
O O4 0.648773 0.231711 0.531534
O O5 0.855948 0.606548 0.479267
O O6 0.007292 0.694013 0.427506
O O7 0.000000 0.500000 0.446981
O O8 0.020445 0.621617 0.536645
O O9 0.796523 0.703478 0.250000
O O10 0.938135 0.750340 0.324596
O O11 0.037652 0.750000 0.625000
O O12 0.172104 0.601553 0.611307
O O13 0.157286 0.761047 0.545829
#
# Coordination Sequence:
#
# PCOD8306192 Si02
#       6
#    16  16  16  16  16   8
#     4  11  20  37  62  98 133 168 210 270 341 419
#     4  12  25  47  67  98 140 188 229 286 358 421
#     4  12  27  43  61  97 141 183 226 271 336 433
#     4  11  21  40  69 100 127 172 233 292 338 404
#     4  11  23  41  69  98 134 175 221 286 353 408
#     4  10  16  36  61 102 133 150 216 282 352 392
#
# _framework density 21.009246000000001
#
# number of rings (size 3 to 8) (size 9 to 14) (size 15 to 20)
#    0.000    0.727    5.455    5.455    5.091    0.727 
#    3.273    0.000    0.000    0.000    0.000    0.000 
#    0.000    0.000    0.000    0.000    0.000    0.000 
#
# Total GULP energy -545367.658576 kJ/mol
# GULP energy per Si atom -12394.719513 kJ/mol
# Density = 2.096143 g / cm^3
# Si number density = 21.009246 Si / 1000 Ang^3
#
#
#
# Elastic Constant Matrix: (Units=GPa)
#
#
# Indices 1 2 3 4 5 6 
#
# 1 85.1770 31.4610 31.9173 0.0000 0.0000 0.0000
# 2 31.4610 85.1747 31.9174 0.0000 0.0000 0.0000
# 3 31.9173 31.9174 110.9203 0.0000 0.0000 0.0000
# 4 0.0000 0.0000 0.0000 32.2225 0.0000 0.0000
# 5 0.0000 0.0000 0.0000 0.0000 32.2238 0.0000
# 6 0.0000 0.0000 0.0000 0.0000 0.0000 22.0123
#
#
#
# Elastic Compliance Matrix: (Units=1/GPa)
#
#
# Indices 1 2 3 4 5 6 
#
# 1 0.014396 -0.004220 -0.002928 0.000000 0.000000 0.000000
# 2 -0.004220 0.014397 -0.002928 0.000000 0.000000 0.000000
# 3 -0.002928 -0.002928 0.010701 0.000000 0.000000 0.000000
# 4 0.000000 0.000000 0.000000 0.031034 0.000000 0.000000
# 5 0.000000 0.000000 0.000000 0.000000 0.031033 0.000000
# 6 0.000000 0.000000 0.000000 0.000000 0.000000 0.045429
#
#
# Mechanical properties :
#
#
# Convention : Reuss Voigt Hill
#
# Bulk Modulus (GPa) = 51.70562 52.42927 52.06744
# Shear Modulus (GPa) = 28.80346 29.69013 29.24680
#
# Velocity S-wave (km/s) = 3.70670 3.76333 3.73512
# Velocity P-wave (km/s) = 6.55621 6.62518 6.59078
#
# Compressibility (1/GPa) = 0.01934026
#
# Stress axis : x y z
#
# Youngs Moduli (GPa) = 69.46224 69.46020 93.45206
#
# Poissons Ratio (x) = 0.29314 0.27364
# Poissons Ratio (y) = 0.29315 0.27365
# Poissons Ratio (z) = 0.20340 0.20340
#
# Static dielectric constant tensor:
#      x y z
#    x 3.653730 0.000000 0.000000 
#    y 0.000000 3.653730 0.000000 
#    z 0.000000 0.000000 4.159600 
# 
# 
# High freq. dielectric constant tensor:
#      x y z
#    x 1.801820 0.000000 0.000000 
#    y 0.000000 1.801820 0.000000 
#    z 0.000000 0.000000 1.835680 
# 
# From -- ./inp_files/8830.got.cif
#   From: 2010.03.12/outbox.cif.g09.slc.cpg/sg98_5_cif.got.tgz:8830.got - 2010.04.08 21:04:41.
