data_PCOD8306593
_publ_section_title
;
Structure prediction by ZEFSAII (Michael W. Deem and Ramdas Pophale) SiO2 
 PCOD8306593
Probable space group: P 4 M M
;
_chemical_formula_sum "Si O2"
_cell_formula_units_Z 56
_cell_length_a 13.314644
_cell_length_b 13.314644
_cell_length_c 17.926014
_cell_angle_alpha 90.000000
_cell_angle_beta 90.000000
_cell_angle_gamma 90.000000
_cell_volume 3177.919188
_symmetry_space_group_name_H-M "P 4 M M"
_symmetry_group_IT_number 99
_symmetry_cell_setting 'tetragonal'
loop_
_space_group_symop_operation_xyz
x,y,z
-y,x,z
-x,-y,z
y,-x,z
-x,y,z
x,-y,z
-y,-x,z
y,x,z
loop_
_atom_site_type_symbol
_atom_site_label
_atom_site_fract_x
_atom_site_fract_y
_atom_site_fract_z
Si Si1 0.388008 0.880959 0.193670
Si Si2 0.382973 0.778518 0.915136
Si Si3 0.882954 0.720863 0.044628
Si Si4 0.385055 0.115322 0.763713
Si Si5 0.616584 0.782123 0.477896
Si Si6 0.882049 0.720239 0.343680
Si Si7 0.721536 0.117696 0.611514
O O1 0.500000 0.834230 0.195045
O O2 0.330979 0.843109 0.120113
O O3 0.327930 0.844923 0.266271
O O4 0.395755 0.000000 0.192825
O O5 0.500000 0.755043 0.920286
O O6 0.324478 0.675523 0.931471
O O7 0.351930 0.818570 0.833919
O O8 0.354268 0.862043 0.976226
O O9 0.825550 0.825550 0.032631
O O10 0.000000 0.746168 0.048721
O O11 0.500000 0.136339 0.741587
O O12 0.316700 0.144580 0.693862
O O13 0.369625 0.000000 0.786308
O O14 0.500000 0.753710 0.475493
O O15 0.678821 0.678821 0.473734
O O16 0.643054 0.854572 0.409070
O O17 0.639372 0.842607 0.553411
O O18 0.825920 0.825920 0.355917
O O19 0.000000 0.742664 0.344238
O O20 0.827835 0.172166 0.597713
O O21 0.738435 0.000000 0.600036
#
# Coordination Sequence:
#
# PCOD8306593 Si02
#       7
#     8   8   8   8   8   8   8
#     4   9  17  30  49  71  95 126 164 204 243 283
#     4  10  20  33  50  72  98 129 165 205 248 294
#     4  10  20  33  50  73 100 130 165 204 247 297
#     4   9  17  30  50  74  97 124 161 204 248 293
#     4  10  21  36  54  76 100 127 162 204 250 300
#     4  10  20  33  50  74 103 135 171 208 247 292
#     4  10  20  33  50  73 101 133 168 204 242 287
#
# _framework density 17.621593000000001
#
# number of rings (size 3 to 8) (size 9 to 14) (size 15 to 20)
#    0.000    2.286    0.000    3.000    0.000    4.429 
#    0.000    0.000    0.000    5.143    0.000    4.000 
#    0.000   10.286    0.000    0.000    0.000    0.000 
#
# Total GULP energy -694540.319148 kJ/mol
# GULP energy per Si atom -12402.505699 kJ/mol
# Density = 1.758149 g / cm^3
# Si number density = 17.621593 Si / 1000 Ang^3
#
#
#
# Elastic Constant Matrix: (Units=GPa)
#
#
# Indices 1 2 3 4 5 6 
#
# 1 94.5836 41.6325 42.4042 0.0000 0.0000 0.0002
# 2 41.6325 94.5836 42.4042 0.0000 0.0000 -0.0002
# 3 42.4042 42.4042 111.2699 0.0000 0.0000 0.0000
# 4 0.0000 0.0000 0.0000 26.2701 0.0000 0.0000
# 5 0.0000 0.0000 0.0000 0.0000 26.2701 0.0000
# 6 0.0002 -0.0002 0.0000 0.0000 0.0000 15.9423
#
#
#
# Elastic Compliance Matrix: (Units=1/GPa)
#
#
# Indices 1 2 3 4 5 6 
#
# 1 0.014255 -0.004630 -0.003668 0.000000 0.000000 0.000000
# 2 -0.004630 0.014255 -0.003668 0.000000 0.000000 0.000000
# 3 -0.003668 -0.003668 0.011783 0.000000 0.000000 0.000000
# 4 0.000000 0.000000 0.000000 0.038066 0.000000 0.000000
# 5 0.000000 0.000000 0.000000 0.000000 0.038066 0.000000
# 6 0.000000 0.000000 0.000000 0.000000 0.000000 0.062726
#
#
# Mechanical properties :
#
#
# Convention : Reuss Voigt Hill
#
# Bulk Modulus (GPa) = 61.12177 61.47986 61.30081
# Shear Modulus (GPa) = 23.97646 25.29623 24.63635
#
# Velocity S-wave (km/s) = 3.69267 3.79294 3.74314
# Velocity P-wave (km/s) = 7.27613 7.35843 7.31740
#
# Compressibility (1/GPa) = 0.01636078
#
# Stress axis : x y z
#
# Youngs Moduli (GPa) = 70.14996 70.14996 84.86901
#
# Poissons Ratio (x) = 0.32481 0.31130
# Poissons Ratio (y) = 0.32481 0.31130
# Poissons Ratio (z) = 0.25731 0.25731
#
# Static dielectric constant tensor:
#      x y z
#    x 3.094640 0.000000 0.000000 
#    y 0.000000 3.094640 0.000000 
#    z 0.000000 0.000000 3.483070 
# 
# 
# High freq. dielectric constant tensor:
#      x y z
#    x 1.671780 0.000000 0.000000 
#    y 0.000000 1.671780 0.000000 
#    z 0.000000 0.000000 1.701130 
# 
# From -- ./inp_files/2148.got.cif
#   From: 2010.03.12/outbox.cif.g09.slc.cpg/sg99_cif.got.tgz:2148.got - 2010.04.08 21:11:30.
