data_PCOD8306134
_publ_section_title
;
Structure prediction by ZEFSAII (Michael W. Deem and Ramdas Pophale) SiO2 
 PCOD8306134
Probable space group: I 4 2 2 
;
_chemical_formula_sum "Si O2"
_cell_formula_units_Z 112
_cell_length_a 14.737420
_cell_length_b 14.737420
_cell_length_c 24.171379
_cell_angle_alpha 90.000000
_cell_angle_beta 90.000000
_cell_angle_gamma 90.000000
_cell_volume 5249.819229
_symmetry_space_group_name_H-M "I 4 2 2 "
_symmetry_group_IT_number 97
_symmetry_cell_setting 'tetragonal'
loop_
_space_group_symop_operation_xyz
x,y,z
-y,x,z
-x,-y,z
y,-x,z
x,-y,-z
-x,y,-z
y,x,-z
-y,-x,-z
1/2+x,1/2+y,1/2+z
1/2-y,1/2+x,1/2+z
1/2-x,1/2-y,1/2+z
1/2+y,1/2-x,1/2+z
1/2+x,1/2-y,1/2-z
1/2-x,1/2+y,1/2-z
1/2+y,1/2+x,1/2-z
1/2-y,1/2-x,1/2-z
loop_
_atom_site_type_symbol
_atom_site_label
_atom_site_fract_x
_atom_site_fract_y
_atom_site_fract_z
Si Si1 0.865732 0.063811 0.223878
Si Si2 0.698532 0.824324 0.427497
Si Si3 0.638486 0.093579 0.032653
Si Si4 0.699908 0.109466 0.297829
Si Si5 0.510416 0.103688 0.881169
Si Si6 0.389172 0.410133 0.935066
Si Si7 0.234639 0.146126 0.874975
O O1 0.798978 0.095813 0.272191
O O2 0.828416 0.082214 0.162149
O O3 0.957357 0.119923 0.231028
O O4 0.676791 0.833827 0.492844
O O5 0.803635 0.850373 0.415854
O O6 0.677925 0.721928 0.408351
O O7 0.628796 0.885928 0.392795
O O8 0.542790 0.118838 0.060933
O O9 0.712576 0.082321 0.081397
O O10 0.630582 0.000000 0.000000
O O11 0.625621 0.125621 0.250000
O O12 0.668904 0.022282 0.332269
O O13 0.703371 0.196951 0.336828
O O14 0.500000 0.000000 0.861637
O O15 0.486488 0.373266 0.912315
O O16 0.402971 0.402971 0.000000
#
# Coordination Sequence:
#
# PCOD8306134 Si02
#       7
#    16  16  16  16  16  16  16
#     4  10  23  45  74  97 127 168 213 281 350 401
#     4  12  24  36  64  95 131 184 222 266 324 394
#     4  11  23  41  62  92 138 183 221 266 320 392
#     4   9  22  44  66  94 130 160 210 279 330 404
#     4  11  24  40  63  96 134 176 219 264 330 396
#     4   9  20  35  52  79 120 171 226 267 313 370
#     4  10  24  41  66  99 128 168 224 274 326 392
#
# _framework density 21.334067999999998
#
# number of rings (size 3 to 8) (size 9 to 14) (size 15 to 20)
#    0.000    1.714    1.429    2.143   12.000    1.429 
#    0.000    0.000    0.000    0.000    0.000    0.000 
#    0.000    0.000    0.000    0.000    0.000    0.000 
#
# Total GULP energy -694421.832071 kJ/mol
# GULP energy per Si atom -12400.389858 kJ/mol
# Density = 2.128551 g / cm^3
# Si number density = 21.334068 Si / 1000 Ang^3
#
#
#
# Elastic Constant Matrix: (Units=GPa)
#
#
# Indices 1 2 3 4 5 6 
#
# 1 83.1640 27.1121 37.2705 0.0000 0.0000 0.0000
# 2 27.1121 83.1640 37.2705 0.0000 0.0000 0.0000
# 3 37.2705 37.2705 94.2004 0.0000 0.0000 0.0000
# 4 0.0000 0.0000 0.0000 33.7158 0.0000 0.0000
# 5 0.0000 0.0000 0.0000 0.0000 33.7158 0.0000
# 6 0.0000 0.0000 0.0000 0.0000 0.0000 24.7696
#
#
#
# Elastic Compliance Matrix: (Units=1/GPa)
#
#
# Indices 1 2 3 4 5 6 
#
# 1 0.015110 -0.002731 -0.004898 0.000000 0.000000 0.000000
# 2 -0.002731 0.015110 -0.004898 0.000000 0.000000 0.000000
# 3 -0.004898 -0.004898 0.014491 0.000000 0.000000 0.000000
# 4 0.000000 0.000000 0.000000 0.029660 0.000000 0.000000
# 5 0.000000 0.000000 0.000000 0.000000 0.029660 0.000000
# 6 0.000000 0.000000 0.000000 0.000000 0.000000 0.040372
#
#
# Mechanical properties :
#
#
# Convention : Reuss Voigt Hill
#
# Bulk Modulus (GPa) = 50.86988 51.53719 51.20354
# Shear Modulus (GPa) = 28.40795 29.03194 28.71995
#
# Velocity S-wave (km/s) = 3.65304 3.69294 3.67304
# Velocity P-wave (km/s) = 6.45671 6.51102 6.48392
#
# Compressibility (1/GPa) = 0.01965800
#
# Stress axis : x y z
#
# Youngs Moduli (GPa) = 66.18282 66.18282 69.00746
#
# Poissons Ratio (x) = 0.18074 0.33797
# Poissons Ratio (y) = 0.18074 0.33797
# Poissons Ratio (z) = 0.32414 0.32414
#
# Static dielectric constant tensor:
#      x y z
#    x 3.819040 0.000000 0.000000 
#    y 0.000000 3.819040 0.000000 
#    z 0.000000 0.000000 4.013150 
# 
# 
# High freq. dielectric constant tensor:
#      x y z
#    x 1.832180 0.000000 0.000000 
#    y 0.000000 1.832180 0.000000 
#    z 0.000000 0.000000 1.834520 
# 
# From -- ./inp_files/7288.got.cif
#   From: 2010.03.12/outbox.cif.g09.slc.cpg/sg97_4_cif.got.tgz:7288.got - 2010.04.08 20:59:42.
