data_PCOD8306924
_publ_section_title
;
Structure prediction by ZEFSAII (Michael W. Deem and Ramdas Pophale) SiO2 
 PCOD8306924
Probable space group: P 42 N M
;
_chemical_formula_sum "Si O2"
_cell_formula_units_Z 32
_cell_length_a 13.382987
_cell_length_b 13.382987
_cell_length_c 9.826019
_cell_angle_alpha 90.000000
_cell_angle_beta 90.000000
_cell_angle_gamma 90.000000
_cell_volume 1759.882658
_symmetry_space_group_name_H-M "P 42 N M"
_symmetry_group_IT_number 102
_symmetry_cell_setting 'tetragonal'
loop_
_space_group_symop_operation_xyz
x,y,z
1/2-y,1/2+x,1/2+z
-x,-y,z
1/2+y,1/2-x,1/2+z
1/2-x,1/2+y,1/2+z
1/2+x,1/2-y,1/2+z
-y,-x,z
y,x,z
loop_
_atom_site_type_symbol
_atom_site_label
_atom_site_fract_x
_atom_site_fract_y
_atom_site_fract_z
Si Si1 0.606356 0.947391 0.343900
Si Si2 0.254961 0.094391 0.105566
Si Si3 0.200230 0.354201 0.864336
Si Si4 0.377298 0.219886 0.564179
O O1 0.650426 0.895646 0.208184
O O2 0.594234 0.866414 0.460366
O O3 0.500000 0.000000 0.312033
O O4 0.687175 0.028786 0.398248
O O5 0.163338 0.163338 0.157072
O O6 0.219389 0.979275 0.097821
O O7 0.289098 0.125853 0.955161
O O8 0.314414 0.314414 0.888748
O O9 0.171558 0.337252 0.705135
O O10 0.295969 0.295969 0.501776
#
# Coordination Sequence:
#
# PCOD8306924 Si02
#       4
#     8   8   8   8
#     4  11  21  33  57  84 113 140 188 236 283 330
#     4  10  21  36  54  80 113 148 182 226 278 335
#     4   9  20  35  52  77 111 144 182 227 277 332
#     4  10  21  36  55  82 112 146 184 231 279 331
#
# _framework density 18.183029000000001
#
# number of rings (size 3 to 8) (size 9 to 14) (size 15 to 20)
#    0.000    2.000    2.500    0.750    7.000    0.500 
#    0.000    0.000    0.000    2.250    0.000    3.500 
#    0.000    0.000    0.000    0.000    0.000    0.000 
#
# Total GULP energy -396532.712817 kJ/mol
# GULP energy per Si atom -12391.647276 kJ/mol
# Density = 1.814164 g / cm^3
# Si number density = 18.183029 Si / 1000 Ang^3
#
#
#
# Elastic Constant Matrix: (Units=GPa)
#
#
# Indices 1 2 3 4 5 6 
#
# 1 94.3461 63.5058 40.6109 0.0000 0.0000 0.0000
# 2 63.5058 94.3461 40.6109 0.0000 0.0000 0.0000
# 3 40.6109 40.6109 78.4621 0.0000 0.0000 0.0000
# 4 0.0000 0.0000 0.0000 25.2051 0.0000 0.0000
# 5 0.0000 0.0000 0.0000 0.0000 25.2051 0.0000
# 6 0.0000 0.0000 0.0000 0.0000 0.0000 41.0208
#
#
#
# Elastic Compliance Matrix: (Units=1/GPa)
#
#
# Indices 1 2 3 4 5 6 
#
# 1 0.020530 -0.011895 -0.004469 0.000000 0.000000 0.000000
# 2 -0.011895 0.020530 -0.004469 0.000000 0.000000 0.000000
# 3 -0.004469 -0.004469 0.017371 0.000000 0.000000 0.000000
# 4 0.000000 0.000000 0.000000 0.039675 0.000000 0.000000
# 5 0.000000 0.000000 0.000000 0.000000 0.039675 0.000000
# 6 0.000000 0.000000 0.000000 0.000000 0.000000 0.024378
#
#
# Mechanical properties :
#
#
# Convention : Reuss Voigt Hill
#
# Bulk Modulus (GPa) = 59.65174 61.84549 60.74861
# Shear Modulus (GPa) = 23.87623 26.44797 25.16210
#
# Velocity S-wave (km/s) = 3.62761 3.81798 3.72401
# Velocity P-wave (km/s) = 7.10096 7.31591 7.20924
#
# Compressibility (1/GPa) = 0.01676397
#
# Stress axis : x y z
#
# Youngs Moduli (GPa) = 48.70946 48.70946 57.56596
#
# Poissons Ratio (x) = 0.57941 0.25727
# Poissons Ratio (y) = 0.57941 0.25727
# Poissons Ratio (z) = 0.21769 0.21769
#
# Static dielectric constant tensor:
#      x y z
#    x 3.455950 0.000000 0.000000 
#    y 0.000000 3.455950 0.000000 
#    z 0.000000 0.000000 3.424220 
# 
# 
# High freq. dielectric constant tensor:
#      x y z
#    x 1.694240 0.000000 0.000000 
#    y 0.000000 1.694240 0.000000 
#    z 0.000000 0.000000 1.709990 
# 
# From -- ./inp_files/774.got.cif
#   From: 2010.03.12/outbox.cif.g09.slc.cpg/sg102_1_cif.got.tgz:774.got - 2010.04.14 01:40:42.
