data_PCOD8306295
_publ_section_title
;
Structure prediction by ZEFSAII (Michael W. Deem and Ramdas Pophale) SiO2 
 PCOD8306295
Probable space group: I 41 2 2
;
_chemical_formula_sum "Si O2"
_cell_formula_units_Z 88
_cell_length_a 12.254522
_cell_length_b 12.254522
_cell_length_c 27.945263
_cell_angle_alpha 90.000000
_cell_angle_beta 90.000000
_cell_angle_gamma 90.000000
_cell_volume 4196.632628
_symmetry_space_group_name_H-M "I 41 2 2"
_symmetry_group_IT_number 98
_symmetry_cell_setting 'tetragonal'
loop_
_space_group_symop_operation_xyz
x,y,z
-y,1/2+x,1/4+z
-x,-y,z
y,1/2-x,1/4+z
x,1/2-y,1/4-z
-x,1/2+y,1/4-z
y,x,-z
-y,-x,-z
1/2+x,1/2+y,1/2+z
1/2-y,x,3/4+z
1/2-x,1/2-y,1/2+z
1/2+y,-x,3/4+z
1/2+x,-y,3/4-z
1/2-x,y,3/4-z
1/2+y,1/2+x,1/2-z
1/2-y,1/2-x,1/2-z
loop_
_atom_site_type_symbol
_atom_site_label
_atom_site_fract_x
_atom_site_fract_y
_atom_site_fract_z
Si Si1 0.276295 0.551684 0.428415
Si Si2 0.858049 0.834766 0.584486
Si Si3 0.500000 0.500000 0.861224
Si Si4 0.595516 0.873414 0.943200
Si Si5 0.974838 0.180103 0.714623
Si Si6 0.248262 0.748262 0.250000
Si Si7 0.000000 0.500000 0.359524
O O1 0.250000 0.589408 0.375000
O O2 0.199835 0.452880 0.446113
O O3 0.260177 0.652817 0.462189
O O4 0.402134 0.516506 0.427671
O O5 0.822184 0.750000 0.625000
O O6 0.750258 0.864482 0.555599
O O7 0.941923 0.775700 0.549285
O O8 0.906399 0.947214 0.605809
O O9 0.596233 0.451049 0.828458
O O10 0.524746 0.898054 0.895281
O O11 0.518871 0.888019 0.989649
O O12 0.863167 0.242364 0.723896
#
# Coordination Sequence:
#
# PCOD8306295 Si02
#       7
#    16  16   8  16  16   8   8
#     4  10  23  43  67 100 134 179 222 283 351 414
#     4  10  23  41  66  97 126 177 220 274 332 401
#     4  10  23  42  65  92 133 171 224 269 343 394
#     4  11  22  45  68  94 133 178 225 275 345 409
#     4  11  24  42  63  98 130 179 221 278 333 396
#     4  12  26  41  65 100 142 172 230 282 344 398
#     4  10  21  39  70 100 129 173 224 276 354 412
#
# _framework density 20.969194000000002
#
# number of rings (size 3 to 8) (size 9 to 14) (size 15 to 20)
#    0.000    1.455    0.000    6.000    5.091    2.545 
#    6.545    0.000    0.000    0.000    0.000    0.000 
#    0.000    0.000    0.000    0.000    0.000    0.000 
#
# Total GULP energy -545671.965116 kJ/mol
# GULP energy per Si atom -12401.635571 kJ/mol
# Density = 2.092147 g / cm^3
# Si number density = 20.969194 Si / 1000 Ang^3
#
#
#
# Elastic Constant Matrix: (Units=GPa)
#
#
# Indices 1 2 3 4 5 6 
#
# 1 143.1501 69.0360 44.0420 0.0000 0.0000 0.0000
# 2 69.0360 143.1501 44.0420 0.0000 0.0000 0.0000
# 3 44.0420 44.0420 63.2900 0.0000 0.0000 0.0000
# 4 0.0000 0.0000 0.0000 36.3010 0.0000 0.0000
# 5 0.0000 0.0000 0.0000 0.0000 36.3010 0.0000
# 6 0.0000 0.0000 0.0000 0.0000 0.0000 29.6988
#
#
#
# Elastic Compliance Matrix: (Units=1/GPa)
#
#
# Indices 1 2 3 4 5 6 
#
# 1 0.010060 -0.003433 -0.004612 0.000000 0.000000 0.000000
# 2 -0.003433 0.010060 -0.004612 0.000000 0.000000 0.000000
# 3 -0.004612 -0.004612 0.022219 0.000000 0.000000 0.000000
# 4 0.000000 0.000000 0.000000 0.027547 0.000000 0.000000
# 5 0.000000 0.000000 0.000000 0.000000 0.027547 0.000000
# 6 0.000000 0.000000 0.000000 0.000000 0.000000 0.033671
#
#
# Mechanical properties :
#
#
# Convention : Reuss Voigt Hill
#
# Bulk Modulus (GPa) = 58.73291 73.75889 66.24590
# Shear Modulus (GPa) = 30.84647 33.29150 32.06899
#
# Velocity S-wave (km/s) = 3.83957 3.98884 3.91492
# Velocity P-wave (km/s) = 6.90843 7.51437 7.21776
#
# Compressibility (1/GPa) = 0.01702623
#
# Stress axis : x y z
#
# Youngs Moduli (GPa) = 99.40345 99.40345 45.00704
#
# Poissons Ratio (x) = 0.34122 0.20756
# Poissons Ratio (y) = 0.34122 0.20756
# Poissons Ratio (z) = 0.45843 0.45843
#
# Static dielectric constant tensor:
#      x y z
#    x 4.050220 0.000000 0.000000 
#    y 0.000000 4.050220 0.000000 
#    z 0.000000 0.000000 3.746980 
# 
# 
# High freq. dielectric constant tensor:
#      x y z
#    x 1.828570 0.000000 0.000000 
#    y 0.000000 1.828570 0.000000 
#    z 0.000000 0.000000 1.823320 
# 
# From -- ./inp_files/11991.got.cif
#   From: 2010.03.12/outbox.cif.g09.slc.cpg/sg98_6_cif.got.tgz:11991.got - 2010.04.08 21:04:41.
