data_PCOD8306598
_publ_section_title
;
Structure prediction by ZEFSAII (Michael W. Deem and Ramdas Pophale) SiO2 
 PCOD8306598
Probable space group: P 4 M M
;
_chemical_formula_sum "Si O2"
_cell_formula_units_Z 56
_cell_length_a 13.260322
_cell_length_b 13.260322
_cell_length_c 17.955627
_cell_angle_alpha 90.000000
_cell_angle_beta 90.000000
_cell_angle_gamma 90.000000
_cell_volume 3157.248135
_symmetry_space_group_name_H-M "P 4 M M"
_symmetry_group_IT_number 99
_symmetry_cell_setting 'tetragonal'
loop_
_space_group_symop_operation_xyz
x,y,z
-y,x,z
-x,-y,z
y,-x,z
-x,y,z
x,-y,z
-y,-x,z
y,x,z
loop_
_atom_site_type_symbol
_atom_site_label
_atom_site_fract_x
_atom_site_fract_y
_atom_site_fract_z
Si Si1 0.115140 0.724486 0.596570
Si Si2 0.119585 0.389475 0.738972
Si Si3 0.617198 0.216772 0.020926
Si Si4 0.118460 0.720816 0.886992
Si Si5 0.117792 0.717049 0.159826
Si Si6 0.617135 0.217940 0.297517
Si Si7 0.719250 0.883357 0.429626
O O1 0.168378 0.831623 0.601885
O O2 0.159999 0.650033 0.659227
O O3 0.129478 0.677718 0.514054
O O4 0.000000 0.747998 0.614464
O O5 0.166974 0.500000 0.751666
O O6 0.153310 0.317067 0.805824
O O7 0.000000 0.397555 0.737667
O O8 0.500000 0.244537 0.025594
O O9 0.678676 0.321325 0.020651
O O10 0.647718 0.148264 0.090616
O O11 0.637632 0.152048 0.946817
O O12 0.173351 0.826650 0.903835
O O13 0.000000 0.740003 0.892403
O O14 0.177162 0.822839 0.157981
O O15 0.142012 0.655381 0.234322
O O16 0.000000 0.742450 0.156596
O O17 0.500000 0.242278 0.287021
O O18 0.676277 0.323724 0.292712
O O19 0.634168 0.163241 0.376520
O O20 0.824869 0.824869 0.417690
O O21 0.739507 0.000000 0.410529
#
# Coordination Sequence:
#
# PCOD8306598 Si02
#       7
#     8   8   8   8   8   8   8
#     4   9  17  29  45  67  96 127 159 196 238 288
#     4   9  17  29  45  65  90 122 160 200 241 285
#     4  10  21  36  54  77 103 132 169 210 250 293
#     4  10  20  33  50  73 100 130 165 204 247 298
#     4  10  21  36  54  78 106 135 168 203 241 290
#     4  10  21  36  53  74  99 127 163 206 250 297
#     4   9  18  31  47  70  99 130 165 203 243 291
#
# _framework density 17.736965999999999
#
# number of rings (size 3 to 8) (size 9 to 14) (size 15 to 20)
#    0.000    2.429    0.000    2.143    0.000    4.857 
#    0.000    2.857    0.000   10.286    0.000    0.000 
#    0.000    2.571    0.000    0.571    0.000    0.000 
#
# Total GULP energy -694386.519812 kJ/mol
# GULP energy per Si atom -12399.759282 kJ/mol
# Density = 1.769660 g / cm^3
# Si number density = 17.736966 Si / 1000 Ang^3
#
#
#
# Elastic Constant Matrix: (Units=GPa)
#
#
# Indices 1 2 3 4 5 6 
#
# 1 108.4998 45.9575 44.2922 0.0000 0.0000 -0.0006
# 2 45.9575 108.4998 44.2922 0.0000 0.0000 0.0006
# 3 44.2922 44.2922 120.7154 0.0000 0.0000 0.0000
# 4 0.0000 0.0000 0.0000 19.1341 0.0000 0.0000
# 5 0.0000 0.0000 0.0000 0.0000 19.1341 0.0000
# 6 -0.0006 0.0006 0.0000 0.0000 0.0000 11.8268
#
#
#
# Elastic Compliance Matrix: (Units=1/GPa)
#
#
# Indices 1 2 3 4 5 6 
#
# 1 0.012094 -0.003895 -0.003009 0.000000 0.000000 0.000001
# 2 -0.003895 0.012094 -0.003009 0.000000 0.000000 -0.000001
# 3 -0.003009 -0.003009 0.010492 0.000000 0.000000 0.000000
# 4 0.000000 0.000000 0.000000 0.052263 0.000000 0.000000
# 5 0.000000 0.000000 0.000000 0.000000 0.052263 0.000000
# 6 0.000001 -0.000001 0.000000 0.000000 0.000000 0.084554
#
#
# Mechanical properties :
#
#
# Convention : Reuss Voigt Hill
#
# Bulk Modulus (GPa) = 67.30899 67.42208 67.36554
# Shear Modulus (GPa) = 20.11784 23.56390 21.84087
#
# Velocity S-wave (km/s) = 3.37149 3.64884 3.51290
# Velocity P-wave (km/s) = 7.29292 7.47307 7.38355
#
# Compressibility (1/GPa) = 0.01485686
#
# Stress axis : x y z
#
# Youngs Moduli (GPa) = 82.68239 82.68239 95.31294
#
# Poissons Ratio (x) = 0.32202 0.28676
# Poissons Ratio (y) = 0.32202 0.28676
# Poissons Ratio (z) = 0.24876 0.24876
#
# Static dielectric constant tensor:
#      x y z
#    x 3.129440 0.000000 0.000000 
#    y 0.000000 3.129440 0.000000 
#    z 0.000000 0.000000 3.632020 
# 
# 
# High freq. dielectric constant tensor:
#      x y z
#    x 1.671210 0.000000 0.000000 
#    y 0.000000 1.671210 0.000000 
#    z 0.000000 0.000000 1.709550 
# 
# From -- ./inp_files/2126.got.cif
#   From: 2010.03.12/outbox.cif.g09.slc.cpg/sg99_cif.got.tgz:2126.got - 2010.04.08 21:11:30.
