data_PCOD8306459
_publ_section_title
;
Structure prediction by ZEFSAII (Michael W. Deem and Ramdas Pophale) SiO2 
 PCOD8306459
Probable space group: P 4 M M
;
_chemical_formula_sum "Si O2"
_cell_formula_units_Z 64
_cell_length_a 13.587960
_cell_length_b 13.587960
_cell_length_c 20.732523
_cell_angle_alpha 90.000000
_cell_angle_beta 90.000000
_cell_angle_gamma 90.000000
_cell_volume 3827.900807
_symmetry_space_group_name_H-M "P 4 M M"
_symmetry_group_IT_number 99
_symmetry_cell_setting 'tetragonal'
loop_
_space_group_symop_operation_xyz
x,y,z
-y,x,z
-x,-y,z
y,-x,z
-x,y,z
x,-y,z
-y,-x,z
y,x,z
loop_
_atom_site_type_symbol
_atom_site_label
_atom_site_fract_x
_atom_site_fract_y
_atom_site_fract_z
Si Si1 0.883178 0.609072 0.611990
Si Si2 0.223754 0.383804 0.845346
Si Si3 0.109757 0.383609 0.972344
Si Si4 0.274743 0.116254 0.736524
Si Si5 0.383380 0.890455 0.223813
Si Si6 0.890847 0.383066 0.470964
Si Si7 0.773750 0.383739 0.098259
Si Si8 0.383933 0.228510 0.348418
O O1 0.839180 0.500000 0.626033
O O2 0.849380 0.684374 0.667015
O O3 0.848170 0.647833 0.541417
O O4 0.000000 0.600712 0.610820
O O5 0.245214 0.500000 0.843601
O O6 0.327123 0.327123 0.836349
O O7 0.174864 0.348715 0.912114
O O8 0.147393 0.355726 0.789104
O O9 0.100976 0.500000 0.971675
O O10 0.000000 0.337472 0.968099
O O11 0.160615 0.348506 0.038121
O O12 0.171608 0.171608 0.749026
O O13 0.255917 0.000000 0.740495
O O14 0.500000 0.897466 0.222383
O O15 0.347054 0.829085 0.162323
O O16 0.348220 0.839304 0.289482
O O17 0.337798 0.000000 0.220955
O O18 0.897952 0.500000 0.467866
O O19 0.820579 0.344801 0.414359
O O20 0.000000 0.338376 0.460289
O O21 0.754493 0.500000 0.097694
O O22 0.667670 0.332331 0.094701
O O23 0.500000 0.244954 0.347872
O O24 0.335236 0.335236 0.341608
#
# Coordination Sequence:
#
# PCOD8306459 Si02
#       8
#     8   8   8   8   8   8   8   8
#     4   8  14  26  45  67  89 113 144 186 235 281
#     4  10  20  33  50  73  99 126 156 190 231 282
#     4   9  17  30  48  68  91 121 156 194 231 261
#     4  10  20  32  47  68  93 123 159 197 238 282
#     4   9  17  30  47  64  83 109 143 187 233 266
#     4   8  14  26  44  65  88 113 144 187 233 268
#     4  10  19  30  45  67  96 127 156 185 221 270
#     4  10  19  29  42  62  89 120 150 178 212 260
#
# _framework density 16.719345000000001
#
# number of rings (size 3 to 8) (size 9 to 14) (size 15 to 20)
#    0.000    2.750    0.000    3.000    0.000    5.250 
#    0.000    0.000    0.000    4.500    0.000    0.000 
#    0.000   31.500    0.000    0.000    0.000    0.000 
#
# Total GULP energy -793387.707218 kJ/mol
# GULP energy per Si atom -12396.682925 kJ/mol
# Density = 1.668129 g / cm^3
# Si number density = 16.719345 Si / 1000 Ang^3
#
#
#
# Elastic Constant Matrix: (Units=GPa)
#
#
# Indices 1 2 3 4 5 6 
#
# 1 71.8404 39.9484 38.8487 0.0000 0.0000 0.0002
# 2 39.9484 71.8404 38.8487 0.0000 0.0000 -0.0002
# 3 38.8487 38.8487 138.1569 0.0000 0.0000 0.0000
# 4 0.0000 0.0000 0.0000 16.0952 0.0000 0.0000
# 5 0.0000 0.0000 0.0000 0.0000 16.0952 0.0000
# 6 0.0002 -0.0002 0.0000 0.0000 0.0000 13.0100
#
#
#
# Elastic Compliance Matrix: (Units=1/GPa)
#
#
# Indices 1 2 3 4 5 6 
#
# 1 0.021237 -0.010119 -0.003126 0.000000 0.000000 -0.000001
# 2 -0.010119 0.021237 -0.003126 0.000000 0.000000 0.000001
# 3 -0.003126 -0.003126 0.008996 0.000000 0.000000 0.000000
# 4 0.000000 0.000000 0.000000 0.062130 0.000000 0.000000
# 5 0.000000 0.000000 0.000000 0.000000 0.062130 0.000000
# 6 -0.000001 0.000001 0.000000 0.000000 0.000000 0.076864
#
#
# Mechanical properties :
#
#
# Convention : Reuss Voigt Hill
#
# Bulk Modulus (GPa) = 53.39719 57.45879 55.42799
# Shear Modulus (GPa) = 17.14789 19.98620 18.56704
#
# Velocity S-wave (km/s) = 3.20602 3.46120 3.33605
# Velocity P-wave (km/s) = 6.76103 7.10031 6.93275
#
# Compressibility (1/GPa) = 0.01872758
#
# Stress axis : x y z
#
# Youngs Moduli (GPa) = 47.08734 47.08734 111.15559
#
# Poissons Ratio (x) = 0.47646 0.34752
# Poissons Ratio (y) = 0.47646 0.34752
# Poissons Ratio (z) = 0.14721 0.14721
#
# Static dielectric constant tensor:
#      x y z
#    x 2.893730 0.000000 0.000000 
#    y 0.000000 2.893730 0.000000 
#    z 0.000000 0.000000 3.555320 
# 
# 
# High freq. dielectric constant tensor:
#      x y z
#    x 1.616170 0.000000 0.000000 
#    y 0.000000 1.616170 0.000000 
#    z 0.000000 0.000000 1.668260 
# 
# From -- ./inp_files/2107.got.cif
#   From: 2010.03.12/outbox.cif.g09.slc.cpg/sg99_cif.got.tgz:2107.got - 2010.04.08 21:11:30.
