data_PCOD8306148
_publ_section_title
;
Structure prediction by ZEFSAII (Michael W. Deem and Ramdas Pophale) SiO2 
 PCOD8306148
Probable space group: I 4 2 2 
;
_chemical_formula_sum "Si O2"
_cell_formula_units_Z 64
_cell_length_a 12.486206
_cell_length_b 12.486206
_cell_length_c 19.244592
_cell_angle_alpha 90.000000
_cell_angle_beta 90.000000
_cell_angle_gamma 90.000000
_cell_volume 3000.334664
_symmetry_space_group_name_H-M "I 4 2 2 "
_symmetry_group_IT_number 97
_symmetry_cell_setting 'tetragonal'
loop_
_space_group_symop_operation_xyz
x,y,z
-y,x,z
-x,-y,z
y,-x,z
x,-y,-z
-x,y,-z
y,x,-z
-y,-x,-z
1/2+x,1/2+y,1/2+z
1/2-y,1/2+x,1/2+z
1/2-x,1/2-y,1/2+z
1/2+y,1/2-x,1/2+z
1/2+x,1/2-y,1/2-z
1/2-x,1/2+y,1/2-z
1/2+y,1/2+x,1/2-z
1/2-y,1/2-x,1/2-z
loop_
_atom_site_type_symbol
_atom_site_label
_atom_site_fract_x
_atom_site_fract_y
_atom_site_fract_z
Si Si1 0.042090 0.166255 0.358979
Si Si2 0.298124 0.124167 0.175521
Si Si3 0.251402 0.598091 0.715903
Si Si4 0.878256 0.486932 0.081831
O O1 0.051099 0.171508 0.275693
O O2 0.923023 0.128315 0.382764
O O3 0.068172 0.285068 0.390582
O O4 0.354898 0.145103 0.250000
O O5 0.189409 0.191308 0.170619
O O6 0.372159 0.161073 0.111429
O O7 0.276400 0.998439 0.164478
O O8 0.142943 0.642943 0.750000
O O9 0.000000 0.500000 0.111060
O O10 0.879379 0.500000 0.000000
#
# Coordination Sequence:
#
# PCOD8306148 Si02
#       4
#    16  16  16  16
#     4  11  21  39  65 100 139 173 218 282 347 415
#     4  11  22  37  62  97 131 176 218 277 345 391
#     4  11  20  34  61  95 138 166 217 276 335 402
#     4  11  25  44  63  90 134 187 232 278 339 411
#
# _framework density 21.330952
#
# number of rings (size 3 to 8) (size 9 to 14) (size 15 to 20)
#    0.000    1.000    5.000    3.000    0.000    1.500 
#    0.000    3.750    0.000    0.000    0.000    0.000 
#    0.000   24.000    0.000    0.000    0.000    0.000 
#
# Total GULP energy -396531.823608 kJ/mol
# GULP energy per Si atom -12391.619488 kJ/mol
# Density = 2.128240 g / cm^3
# Si number density = 21.330952 Si / 1000 Ang^3
#
#
#
# Elastic Constant Matrix: (Units=GPa)
#
#
# Indices 1 2 3 4 5 6 
#
# 1 125.0975 24.7433 30.9201 0.0000 0.0000 0.0000
# 2 24.7433 125.0980 30.9199 0.0000 0.0000 0.0000
# 3 30.9201 30.9199 80.9491 0.0000 0.0000 0.0000
# 4 0.0000 0.0000 0.0000 24.1848 0.0000 0.0000
# 5 0.0000 0.0000 0.0000 0.0000 24.1849 0.0000
# 6 0.0000 0.0000 0.0000 0.0000 0.0000 20.4426
#
#
#
# Elastic Compliance Matrix: (Units=1/GPa)
#
#
# Indices 1 2 3 4 5 6 
#
# 1 0.008944 -0.001021 -0.003026 0.000000 0.000000 0.000000
# 2 -0.001021 0.008944 -0.003026 0.000000 0.000000 0.000000
# 3 -0.003026 -0.003026 0.014665 0.000000 0.000000 0.000000
# 4 0.000000 0.000000 0.000000 0.041348 0.000000 0.000000
# 5 0.000000 0.000000 0.000000 0.000000 0.041348 0.000000
# 6 0.000000 0.000000 0.000000 0.000000 0.000000 0.048918
#
#
# Mechanical properties :
#
#
# Convention : Reuss Voigt Hill
#
# Bulk Modulus (GPa) = 54.33078 56.03458 55.18268
# Shear Modulus (GPa) = 27.10780 30.06653 28.58717
#
# Velocity S-wave (km/s) = 3.56872 3.75844 3.66481
# Velocity P-wave (km/s) = 6.51972 6.72017 6.62070
#
# Compressibility (1/GPa) = 0.01840577
#
# Stress axis : x y z
#
# Youngs Moduli (GPa) = 111.81059 111.81115 68.18825
#
# Poissons Ratio (x) = 0.11416 0.20635
# Poissons Ratio (y) = 0.11416 0.20635
# Poissons Ratio (z) = 0.33836 0.33836
#
# Static dielectric constant tensor:
#      x y z
#    x 4.121510 0.000000 0.000000 
#    y 0.000000 4.121510 0.000000 
#    z 0.000000 0.000000 3.328330 
# 
# 
# High freq. dielectric constant tensor:
#      x y z
#    x 1.852300 0.000000 0.000000 
#    y 0.000000 1.852300 0.000000 
#    z 0.000000 0.000000 1.776610 
# 
# From -- ./inp_files/6327.got.cif
#   From: 2010.03.12/outbox.cif.g09.slc.cpg/sg97_4_cif.got.tgz:6327.got - 2010.04.08 20:59:42.
