data_PCOD8306116
_publ_section_title
;
Structure prediction by ZEFSAII (Michael W. Deem and Ramdas Pophale) SiO2 
 PCOD8306116
Probable space group: I 4 2 2 
;
_chemical_formula_sum "Si O2"
_cell_formula_units_Z 96
_cell_length_a 26.153442
_cell_length_b 26.153442
_cell_length_c 7.702499
_cell_angle_alpha 90.000000
_cell_angle_beta 90.000000
_cell_angle_gamma 90.000000
_cell_volume 5268.528791
_symmetry_space_group_name_H-M "I 4 2 2 "
_symmetry_group_IT_number 97
_symmetry_cell_setting 'tetragonal'
loop_
_space_group_symop_operation_xyz
x,y,z
-y,x,z
-x,-y,z
y,-x,z
x,-y,-z
-x,y,-z
y,x,-z
-y,-x,-z
1/2+x,1/2+y,1/2+z
1/2-y,1/2+x,1/2+z
1/2-x,1/2-y,1/2+z
1/2+y,1/2-x,1/2+z
1/2+x,1/2-y,1/2-z
1/2-x,1/2+y,1/2-z
1/2+y,1/2+x,1/2-z
1/2-y,1/2-x,1/2-z
loop_
_atom_site_type_symbol
_atom_site_label
_atom_site_fract_x
_atom_site_fract_y
_atom_site_fract_z
Si Si1 0.860646 0.944194 0.450426
Si Si2 0.219809 0.795970 0.197898
Si Si3 0.738793 0.404564 0.609131
Si Si4 0.944963 0.861788 0.951057
Si Si5 0.754367 0.442642 0.958255
Si Si6 0.864581 0.719705 0.750411
O O1 0.901997 0.901997 0.500000
O O2 0.848199 0.940890 0.248756
O O3 0.806967 0.935103 0.545766
O O4 0.883077 0.000000 0.500000
O O5 0.275655 0.775655 0.250000
O O6 0.216346 0.856391 0.218350
O O7 0.173566 0.766956 0.296813
O O8 0.216654 0.783347 0.000000
O O9 0.691077 0.438987 0.553541
O O10 0.772334 0.432883 0.757836
O O11 0.772723 0.389844 0.441242
O O12 0.901891 0.901891 0.000000
O O13 0.000000 0.885481 0.000000
O O14 0.770794 0.500000 0.000000
O O15 0.782238 0.406417 0.098320
O O16 0.833398 0.666603 0.750000
#
# Coordination Sequence:
#
# PCOD8306116 Si02
#       6
#    16  16  16  16  16  16
#     4  11  23  39  55  79 104 141 193 250 305 355
#     4   9  20  33  51  81 110 142 187 235 292 341
#     4  11  23  36  58  78 112 153 191 240 294 348
#     4  12  23  40  58  79 107 142 197 252 308 356
#     4  11  24  38  56  83 113 155 198 236 288 351
#     4  10  22  38  57  85 116 145 192 242 290 355
#
# _framework density 18.221406999999999
#
# number of rings (size 3 to 8) (size 9 to 14) (size 15 to 20)
#    0.000    1.333    1.667    5.500    9.333    0.333 
#    0.000    1.667    0.000    0.000    0.000    0.000 
#    0.000    0.000    0.000   10.500    0.000    0.000 
#
# Total GULP energy -595056.798655 kJ/mol
# GULP energy per Si atom -12397.016639 kJ/mol
# Density = 1.817993 g / cm^3
# Si number density = 18.221407 Si / 1000 Ang^3
#
#
#
# Elastic Constant Matrix: (Units=GPa)
#
#
# Indices 1 2 3 4 5 6 
#
# 1 80.2761 27.2789 40.1864 0.0000 0.0000 0.0000
# 2 27.2789 80.2787 40.1905 0.0000 0.0000 0.0000
# 3 40.1864 40.1905 109.8310 0.0000 0.0000 0.0000
# 4 0.0000 0.0000 0.0000 26.7698 0.0000 0.0000
# 5 0.0000 0.0000 0.0000 0.0000 26.7708 0.0000
# 6 0.0000 0.0000 0.0000 0.0000 0.0000 12.9954
#
#
#
# Elastic Compliance Matrix: (Units=1/GPa)
#
#
# Indices 1 2 3 4 5 6 
#
# 1 0.015833 -0.003036 -0.004682 0.000000 0.000000 0.000000
# 2 -0.003036 0.015833 -0.004683 0.000000 0.000000 0.000000
# 3 -0.004682 -0.004683 0.012532 0.000000 0.000000 0.000000
# 4 0.000000 0.000000 0.000000 0.037356 0.000000 0.000000
# 5 0.000000 0.000000 0.000000 0.000000 0.037354 0.000000
# 6 0.000000 0.000000 0.000000 0.000000 0.000000 0.076951
#
#
# Mechanical properties :
#
#
# Convention : Reuss Voigt Hill
#
# Bulk Modulus (GPa) = 51.55933 53.96641 52.76287
# Shear Modulus (GPa) = 22.01445 24.15586 23.08515
#
# Velocity S-wave (km/s) = 3.47964 3.64495 3.56325
# Velocity P-wave (km/s) = 6.67093 6.88444 6.77852
#
# Compressibility (1/GPa) = 0.01939513
#
# Stress axis : x y z
#
# Youngs Moduli (GPa) = 63.16117 63.16081 79.79813
#
# Poissons Ratio (x) = 0.19175 0.37362
# Poissons Ratio (y) = 0.19175 0.37368
# Poissons Ratio (z) = 0.29573 0.29577
#
# Static dielectric constant tensor:
#      x y z
#    x 3.263650 0.000000 0.000000 
#    y 0.000000 3.263640 0.000000 
#    z 0.000000 0.000000 3.647100 
# 
# 
# High freq. dielectric constant tensor:
#      x y z
#    x 1.676990 0.000000 0.000000 
#    y 0.000000 1.676990 0.000000 
#    z 0.000000 0.000000 1.734260 
# 
# From -- ./inp_files/2459.got.cif
#   From: 2010.03.12/outbox.cif.g09.slc.cpg/sg97_2_cif.got.tgz:2459.got - 2010.04.08 20:59:42.
