data_PCOD8306158
_publ_section_title
;
Structure prediction by ZEFSAII (Michael W. Deem and Ramdas Pophale) SiO2 
 PCOD8306158
Probable space group: I 4 2 2 
;
_chemical_formula_sum "Si O2"
_cell_formula_units_Z 104
_cell_length_a 20.071237
_cell_length_b 20.071237
_cell_length_c 15.193192
_cell_angle_alpha 90.000000
_cell_angle_beta 90.000000
_cell_angle_gamma 90.000000
_cell_volume 6120.646598
_symmetry_space_group_name_H-M "I 4 2 2 "
_symmetry_group_IT_number 97
_symmetry_cell_setting 'tetragonal'
loop_
_space_group_symop_operation_xyz
x,y,z
-y,x,z
-x,-y,z
y,-x,z
x,-y,-z
-x,y,-z
y,x,-z
-y,-x,-z
1/2+x,1/2+y,1/2+z
1/2-y,1/2+x,1/2+z
1/2-x,1/2-y,1/2+z
1/2+y,1/2-x,1/2+z
1/2+x,1/2-y,1/2-z
1/2-x,1/2+y,1/2-z
1/2+y,1/2+x,1/2-z
1/2-y,1/2-x,1/2-z
loop_
_atom_site_type_symbol
_atom_site_label
_atom_site_fract_x
_atom_site_fract_y
_atom_site_fract_z
Si Si1 0.610431 0.500000 0.000000
Si Si2 0.212726 0.675166 0.496508
Si Si3 0.661995 0.226864 0.825300
Si Si4 0.165572 0.058604 0.673818
Si Si5 0.663688 0.223408 0.169342
Si Si6 0.073108 0.169240 0.753922
Si Si7 0.574970 0.322938 0.538248
O O1 0.565986 0.565986 0.000000
O O2 0.655535 0.513792 0.085551
O O3 0.266940 0.733061 0.500000
O O4 0.160155 0.687874 0.417693
O O5 0.168064 0.677052 0.583644
O O6 0.251482 0.605018 0.490489
O O7 0.672614 0.172614 0.750000
O O8 0.722569 0.278388 0.827604
O O9 0.594577 0.264754 0.799713
O O10 0.237281 0.094010 0.669756
O O11 0.106220 0.108208 0.700211
O O12 0.165515 0.006265 0.752922
O O13 0.672144 0.172144 0.250000
O O14 0.088950 0.171429 0.857138
O O15 0.500000 0.326545 0.500000
O O16 0.614295 0.385706 0.500000
#
# Coordination Sequence:
#
# PCOD8306158 Si02
#       7
#     8  16  16  16  16  16  16
#     4  11  22  38  48  74 108 156 195 220 252 312
#     4   9  18  32  52  74  99 131 170 222 273 316
#     4   9  16  32  50  74  97 131 174 218 272 317
#     4  11  23  35  54  76 110 147 185 219 262 317
#     4   9  20  32  53  74 100 134 175 227 279 325
#     4  11  22  35  53  75 107 146 181 219 260 318
#     4  11  23  36  53  74 105 141 182 222 261 315
#
# _framework density 16.991669000000002
#
# number of rings (size 3 to 8) (size 9 to 14) (size 15 to 20)
#    0.000    1.923    3.077    0.923   10.769    1.077 
#    0.000    1.538    0.000    0.000    0.000    0.000 
#    0.000    5.538    0.000    0.000    0.000    0.000 
#
# Total GULP energy -644289.571448 kJ/mol
# GULP energy per Si atom -12390.184066 kJ/mol
# Density = 1.695300 g / cm^3
# Si number density = 16.991669 Si / 1000 Ang^3
#
#
#
# Elastic Constant Matrix: (Units=GPa)
#
#
# Indices 1 2 3 4 5 6 
#
# 1 67.8605 62.5389 43.9572 0.0000 0.0000 0.0000
# 2 62.5389 67.8603 43.9567 0.0000 0.0000 0.0000
# 3 43.9572 43.9567 133.3919 0.0000 0.0000 0.0000
# 4 0.0000 0.0000 0.0000 25.3079 0.0000 0.0000
# 5 0.0000 0.0000 0.0000 0.0000 25.3082 0.0000
# 6 0.0000 0.0000 0.0000 0.0000 0.0000 44.5641
#
#
#
# Elastic Compliance Matrix: (Units=1/GPa)
#
#
# Indices 1 2 3 4 5 6 
#
# 1 0.098888 -0.089029 -0.003249 0.000000 0.000000 0.000000
# 2 -0.089029 0.098888 -0.003248 0.000000 0.000000 0.000000
# 3 -0.003249 -0.003248 0.009638 0.000000 0.000000 0.000000
# 4 0.000000 0.000000 0.000000 0.039513 0.000000 0.000000
# 5 0.000000 0.000000 0.000000 0.000000 0.039513 0.000000
# 6 0.000000 0.000000 0.000000 0.000000 0.000000 0.022440
#
#
# Mechanical properties :
#
#
# Convention : Reuss Voigt Hill
#
# Bulk Modulus (GPa) = 61.12249 63.33537 62.22893
# Shear Modulus (GPa) = 9.89340 26.94669 18.42005
#
# Velocity S-wave (km/s) = 2.41560 3.98663 3.29608
# Velocity P-wave (km/s) = 6.62045 7.65155 7.15460
#
# Compressibility (1/GPa) = 0.01636059
#
# Stress axis : x y z
#
# Youngs Moduli (GPa) = 10.11242 10.11246 103.75655
#
# Poissons Ratio (x) = 0.90030 0.33714
# Poissons Ratio (y) = 0.90030 0.33705
# Poissons Ratio (z) = 0.03286 0.03285
#
# Static dielectric constant tensor:
#      x y z
#    x 3.005390 0.000000 0.000000 
#    y 0.000000 3.005390 0.000000 
#    z 0.000000 0.000000 3.487390 
# 
# 
# High freq. dielectric constant tensor:
#      x y z
#    x 1.624540 0.000000 0.000000 
#    y 0.000000 1.624540 0.000000 
#    z 0.000000 0.000000 1.679640 
# 
# From -- ./inp_files/5026.got.cif
#   From: 2010.03.12/outbox.cif.g09.slc.cpg/sg97_3_cif.got.tgz:5026.got - 2010.04.08 20:59:42.
