data_PCOD8306595
_publ_section_title
;
Structure prediction by ZEFSAII (Michael W. Deem and Ramdas Pophale) SiO2 
 PCOD8306595
Probable space group: P 4 M M
;
_chemical_formula_sum "Si O2"
_cell_formula_units_Z 40
_cell_length_a 13.457904
_cell_length_b 13.457904
_cell_length_c 12.782025
_cell_angle_alpha 90.000000
_cell_angle_beta 90.000000
_cell_angle_gamma 90.000000
_cell_volume 2315.018760
_symmetry_space_group_name_H-M "P 4 M M"
_symmetry_group_IT_number 99
_symmetry_cell_setting 'tetragonal'
loop_
_space_group_symop_operation_xyz
x,y,z
-y,x,z
-x,-y,z
y,-x,z
-x,y,z
x,-y,z
-y,-x,z
y,x,z
loop_
_atom_site_type_symbol
_atom_site_label
_atom_site_fract_x
_atom_site_fract_y
_atom_site_fract_z
Si Si1 0.776527 0.614998 0.698900
Si Si2 0.613389 0.227729 0.463009
Si Si3 0.884162 0.720548 0.878458
Si Si4 0.617017 0.223343 0.061244
Si Si5 0.109245 0.382237 0.266375
O O1 0.758261 0.500000 0.727753
O O2 0.672061 0.672061 0.716042
O O3 0.815735 0.626799 0.579862
O O4 0.861130 0.662354 0.771245
O O5 0.500000 0.252571 0.437799
O O6 0.668370 0.331631 0.450908
O O7 0.655747 0.149907 0.378332
O O8 0.823409 0.823409 0.885251
O O9 0.000000 0.746726 0.882997
O O10 0.855973 0.647847 0.973514
O O11 0.500000 0.243169 0.055676
O O12 0.672145 0.327856 0.041678
O O13 0.652142 0.180648 0.172893
O O14 0.100859 0.500000 0.265873
O O15 0.000000 0.335171 0.250471
#
# Coordination Sequence:
#
# PCOD8306595 Si02
#       5
#     8   8   8   8   8
#     4   9  18  31  47  70  99 130 164 200 239 287
#     4   9  17  29  45  67  96 127 159 195 235 284
#     4  10  21  36  53  73  96 123 159 202 245 289
#     4  10  20  33  50  73 100 129 161 196 236 286
#     4   9  17  29  45  65  90 122 160 199 237 276
#
# _framework density 17.278479000000001
#
# number of rings (size 3 to 8) (size 9 to 14) (size 15 to 20)
#    0.000    2.600    0.000    1.800    0.000    4.000 
#    0.000    4.000    0.000    7.200    0.000    0.000 
#    0.000    3.600    0.000    0.800    0.000    0.000 
#
# Total GULP energy -495947.467580 kJ/mol
# GULP energy per Si atom -12398.686689 kJ/mol
# Density = 1.723915 g / cm^3
# Si number density = 17.278479 Si / 1000 Ang^3
#
#
#
# Elastic Constant Matrix: (Units=GPa)
#
#
# Indices 1 2 3 4 5 6 
#
# 1 96.7160 40.4828 44.7704 0.0000 0.0000 0.0002
# 2 40.4828 96.7160 44.7704 0.0000 0.0000 -0.0002
# 3 44.7704 44.7704 116.9714 0.0000 0.0000 0.0000
# 4 0.0000 0.0000 0.0000 21.9251 0.0000 0.0000
# 5 0.0000 0.0000 0.0000 0.0000 21.9251 0.0000
# 6 0.0002 -0.0002 0.0000 0.0000 0.0000 11.7483
#
#
#
# Elastic Compliance Matrix: (Units=1/GPa)
#
#
# Indices 1 2 3 4 5 6 
#
# 1 0.013749 -0.004034 -0.003719 0.000000 0.000000 0.000000
# 2 -0.004034 0.013749 -0.003719 0.000000 0.000000 0.000000
# 3 -0.003719 -0.003719 0.011396 0.000000 0.000000 0.000000
# 4 0.000000 0.000000 0.000000 0.045610 0.000000 0.000000
# 5 0.000000 0.000000 0.000000 0.000000 0.045610 0.000000
# 6 0.000000 0.000000 0.000000 0.000000 0.000000 0.085119
#
#
# Mechanical properties :
#
#
# Convention : Reuss Voigt Hill
#
# Bulk Modulus (GPa) = 62.68643 63.38338 63.03491
# Shear Modulus (GPa) = 20.53456 23.14502 21.83979
#
# Velocity S-wave (km/s) = 3.45113 3.66393 3.55912
# Velocity P-wave (km/s) = 7.22767 7.39339 7.31100
#
# Compressibility (1/GPa) = 0.01595242
#
# Stress axis : x y z
#
# Youngs Moduli (GPa) = 72.73071 72.73071 87.75265
#
# Poissons Ratio (x) = 0.29338 0.32632
# Poissons Ratio (y) = 0.29338 0.32632
# Poissons Ratio (z) = 0.27046 0.27046
#
# Static dielectric constant tensor:
#      x y z
#    x 3.067890 0.000000 0.000000 
#    y 0.000000 3.067890 0.000000 
#    z 0.000000 0.000000 3.551990 
# 
# 
# High freq. dielectric constant tensor:
#      x y z
#    x 1.648510 0.000000 0.000000 
#    y 0.000000 1.648510 0.000000 
#    z 0.000000 0.000000 1.689000 
# 
# From -- ./inp_files/1286.got.cif
#   From: 2010.03.12/outbox.cif.g09.slc.cpg/sg99_cif.got.tgz:1286.got - 2010.04.08 21:11:30.
