data_PCOD8306513
_publ_section_title
;
Structure prediction by ZEFSAII (Michael W. Deem and Ramdas Pophale) SiO2 
 PCOD8306513
Probable space group: P 4 M M
;
_chemical_formula_sum "Si O2"
_cell_formula_units_Z 56
_cell_length_a 20.171061
_cell_length_b 20.171061
_cell_length_c 7.890103
_cell_angle_alpha 90.000000
_cell_angle_beta 90.000000
_cell_angle_gamma 90.000000
_cell_volume 3210.259636
_symmetry_space_group_name_H-M "P 4 M M"
_symmetry_group_IT_number 99
_symmetry_cell_setting 'tetragonal'
loop_
_space_group_symop_operation_xyz
x,y,z
-y,x,z
-x,-y,z
y,-x,z
-x,y,z
x,-y,z
-y,-x,z
y,x,z
loop_
_atom_site_type_symbol
_atom_site_label
_atom_site_fract_x
_atom_site_fract_y
_atom_site_fract_z
Si Si1 0.672921 0.071771 0.441020
Si Si2 0.799601 0.575997 0.081099
Si Si3 0.244161 0.141767 0.862829
Si Si4 0.244210 0.349806 0.766003
Si Si5 0.922930 0.184454 0.549945
Si Si6 0.071676 0.353657 0.055166
Si Si7 0.422173 0.814243 0.469566
O O1 0.749438 0.095878 0.443844
O O2 0.649556 0.061406 0.252521
O O3 0.620635 0.121747 0.525843
O O4 0.668839 0.000000 0.536170
O O5 0.781436 0.500000 0.058919
O O6 0.875242 0.588534 0.017167
O O7 0.790110 0.597957 0.278670
O O8 0.753025 0.617194 0.953761
O O9 0.193685 0.193685 0.953019
O O10 0.297575 0.183588 0.753033
O O11 0.202196 0.092640 0.744624
O O12 0.281592 0.097824 0.000047
O O13 0.314087 0.314087 0.739892
O O14 0.239619 0.403680 0.613347
O O15 0.876789 0.123212 0.488082
O O16 0.000000 0.163966 0.529071
O O17 0.000000 0.369769 0.969714
O O18 0.500000 0.831052 0.475226
#
# Coordination Sequence:
#
# PCOD8306513 Si02
#       7
#     8   8   8   8   8   8   8
#     4   9  18  31  46  66  93 126 164 204 251 310
#     4   9  19  33  48  71 103 135 166 202 248 300
#     4   9  17  29  45  65  88 119 158 207 258 297
#     4  10  19  32  50  72  99 132 172 208 242 294
#     4  10  19  31  47  65  89 122 162 213 264 310
#     4   9  17  29  46  67  91 122 161 204 246 299
#     4  10  19  32  51  73 102 137 168 207 255 300
#
# _framework density 17.444072999999999
#
# number of rings (size 3 to 8) (size 9 to 14) (size 15 to 20)
#    0.000    2.571    1.429    0.857    0.000    1.857 
#    0.000    5.714    0.000    1.714    0.000    0.000 
#    0.000    8.000    0.000   12.571    0.000    0.571 
#
# Total GULP energy -693814.638196 kJ/mol
# GULP energy per Si atom -12389.547111 kJ/mol
# Density = 1.740437 g / cm^3
# Si number density = 17.444073 Si / 1000 Ang^3
#
#
#
# Elastic Constant Matrix: (Units=GPa)
#
#
# Indices 1 2 3 4 5 6 
#
# 1 80.6423 39.3694 24.6017 0.0000 0.0000 0.0001
# 2 39.3694 80.6423 24.6017 0.0000 0.0000 -0.0001
# 3 24.6017 24.6017 57.3872 0.0000 0.0000 0.0000
# 4 0.0000 0.0000 0.0000 21.4003 0.0000 0.0000
# 5 0.0000 0.0000 0.0000 0.0000 21.4003 0.0000
# 6 0.0001 -0.0001 0.0000 0.0000 0.0000 20.2633
#
#
#
# Elastic Compliance Matrix: (Units=1/GPa)
#
#
# Indices 1 2 3 4 5 6 
#
# 1 0.017169 -0.007060 -0.004334 0.000000 0.000000 0.000000
# 2 -0.007060 0.017169 -0.004334 0.000000 0.000000 0.000000
# 3 -0.004334 -0.004334 0.021141 0.000000 0.000000 0.000000
# 4 0.000000 0.000000 0.000000 0.046728 0.000000 0.000000
# 5 0.000000 0.000000 0.000000 0.000000 0.046728 0.000000
# 6 0.000000 0.000000 0.000000 0.000000 0.000000 0.049350
#
#
# Mechanical properties :
#
#
# Convention : Reuss Voigt Hill
#
# Bulk Modulus (GPa) = 41.62396 43.97970 42.80183
# Shear Modulus (GPa) = 21.03054 21.28607 21.15830
#
# Velocity S-wave (km/s) = 3.47594 3.49699 3.48648
# Velocity P-wave (km/s) = 6.32635 6.44762 6.38727
#
# Compressibility (1/GPa) = 0.02402463
#
# Stress axis : x y z
#
# Youngs Moduli (GPa) = 58.24400 58.24400 47.30080
#
# Poissons Ratio (x) = 0.41119 0.20499
# Poissons Ratio (y) = 0.41119 0.20499
# Poissons Ratio (z) = 0.25242 0.25242
#
# Static dielectric constant tensor:
#      x y z
#    x 3.282650 0.000000 0.000000 
#    y 0.000000 3.282650 0.000000 
#    z 0.000000 0.000000 3.135490 
# 
# 
# High freq. dielectric constant tensor:
#      x y z
#    x 1.656390 0.000000 0.000000 
#    y 0.000000 1.656390 0.000000 
#    z 0.000000 0.000000 1.666580 
# 
# From -- ./inp_files/1126.got.cif
#   From: 2010.03.12/outbox.cif.g09.slc.cpg/sg99_cif.got.tgz:1126.got - 2010.04.08 21:11:30.
