data_PCOD8306105
_publ_section_title
;
Structure prediction by ZEFSAII (Michael W. Deem and Ramdas Pophale) SiO2 
 PCOD8306105
Probable space group: I 4 2 2 
;
_chemical_formula_sum "Si O2"
_cell_formula_units_Z 96
_cell_length_a 14.938720
_cell_length_b 14.938720
_cell_length_c 20.630554
_cell_angle_alpha 90.000000
_cell_angle_beta 90.000000
_cell_angle_gamma 90.000000
_cell_volume 4604.024912
_symmetry_space_group_name_H-M "I 4 2 2 "
_symmetry_group_IT_number 97
_symmetry_cell_setting 'tetragonal'
loop_
_space_group_symop_operation_xyz
x,y,z
-y,x,z
-x,-y,z
y,-x,z
x,-y,-z
-x,y,-z
y,x,-z
-y,-x,-z
1/2+x,1/2+y,1/2+z
1/2-y,1/2+x,1/2+z
1/2-x,1/2-y,1/2+z
1/2+y,1/2-x,1/2+z
1/2+x,1/2-y,1/2-z
1/2-x,1/2+y,1/2-z
1/2+y,1/2+x,1/2-z
1/2-y,1/2-x,1/2-z
loop_
_atom_site_type_symbol
_atom_site_label
_atom_site_fract_x
_atom_site_fract_y
_atom_site_fract_z
Si Si1 0.752397 0.747603 0.750000
Si Si2 0.434827 0.233297 0.696575
Si Si3 0.595441 0.963437 0.114957
Si Si4 0.854081 0.990327 0.426093
Si Si5 0.538412 0.640327 0.588616
Si Si6 0.000000 0.289203 0.000000
Si Si7 0.779788 0.437765 0.182973
O O1 0.672218 0.759799 0.699186
O O2 0.739778 0.652961 0.786499
O O3 0.459098 0.146485 0.654278
O O4 0.464749 0.326084 0.662751
O O5 0.481753 0.224252 0.765958
O O6 0.587499 0.879782 0.162499
O O7 0.500000 0.000000 0.093429
O O8 0.649890 0.940586 0.048815
O O9 0.770005 0.975385 0.380009
O O10 0.918504 0.906702 0.411786
O O11 0.820146 0.000000 0.500000
O O12 0.437724 0.608009 0.573879
O O13 0.563931 0.724222 0.542600
#
# Coordination Sequence:
#
# PCOD8306105 Si02
#       7
#     8  16  16  16  16   8  16
#     4  12  24  40  66 102 132 174 230 282 346 418
#     4  11  23  40  65  94 133 172 217 283 342 402
#     4  11  24  43  63  88 132 179 225 273 336 403
#     4   9  20  40  65  94 132 174 221 282 348 408
#     4  10  21  39  65  94 131 171 213 269 341 406
#     4  10  23  39  62  90 120 172 226 273 319 392
#     4  12  23  42  66  98 134 174 229 282 342 413
#
# _framework density 20.851320000000001
#
# number of rings (size 3 to 8) (size 9 to 14) (size 15 to 20)
#    0.000    1.333    1.667    4.250    2.333    2.667 
#    0.000    6.667    0.000    0.000    0.000    0.000 
#    0.000    0.000    0.000    0.000    0.000    0.000 
#
# Total GULP energy -595037.264522 kJ/mol
# GULP energy per Si atom -12396.609678 kJ/mol
# Density = 2.080386 g / cm^3
# Si number density = 20.851320 Si / 1000 Ang^3
#
#
#
# Elastic Constant Matrix: (Units=GPa)
#
#
# Indices 1 2 3 4 5 6 
#
# 1 80.0160 43.6190 37.0546 0.0000 0.0000 0.0000
# 2 43.6190 80.0183 37.0561 0.0000 0.0000 0.0000
# 3 37.0546 37.0561 107.1907 0.0000 0.0000 0.0000
# 4 0.0000 0.0000 0.0000 33.4256 0.0000 0.0000
# 5 0.0000 0.0000 0.0000 0.0000 33.4250 0.0000
# 6 0.0000 0.0000 0.0000 0.0000 0.0000 20.8090
#
#
#
# Elastic Compliance Matrix: (Units=1/GPa)
#
#
# Indices 1 2 3 4 5 6 
#
# 1 0.018838 -0.008636 -0.003527 0.000000 0.000000 0.000000
# 2 -0.008636 0.018838 -0.003527 0.000000 0.000000 0.000000
# 3 -0.003527 -0.003527 0.011768 0.000000 0.000000 0.000000
# 4 0.000000 0.000000 0.000000 0.029917 0.000000 0.000000
# 5 0.000000 0.000000 0.000000 0.000000 0.029918 0.000000
# 6 0.000000 0.000000 0.000000 0.000000 0.000000 0.048056
#
#
# Mechanical properties :
#
#
# Convention : Reuss Voigt Hill
#
# Bulk Modulus (GPa) = 55.35647 55.85381 55.60514
# Shear Modulus (GPa) = 25.67582 27.49828 26.58705
#
# Velocity S-wave (km/s) = 3.51290 3.63544 3.57470
# Velocity P-wave (km/s) = 6.56200 6.66834 6.61538
#
# Compressibility (1/GPa) = 0.01806473
#
# Stress axis : x y z
#
# Youngs Moduli (GPa) = 53.08329 53.08432 84.97872
#
# Poissons Ratio (x) = 0.45842 0.29970
# Poissons Ratio (y) = 0.45841 0.29972
# Poissons Ratio (z) = 0.18721 0.18723
#
# Static dielectric constant tensor:
#      x y z
#    x 3.763020 0.000000 0.000000 
#    y 0.000000 3.763020 0.000000 
#    z 0.000000 0.000000 3.962770 
# 
# 
# High freq. dielectric constant tensor:
#      x y z
#    x 1.813480 0.000000 0.000000 
#    y 0.000000 1.813480 0.000000 
#    z 0.000000 0.000000 1.830270 
# 
# From -- ./inp_files/6674.got.cif
#   From: 2010.03.12/outbox.cif.g09.slc.cpg/sg97_4_cif.got.tgz:6674.got - 2010.04.08 20:59:42.
