data_PCOD8306965
_publ_section_title
;
Structure prediction by ZEFSAII (Michael W. Deem and Ramdas Pophale) SiO2 
 PCOD8306965
Probable space group: P 4 C C
;
_chemical_formula_sum "Si O2"
_cell_formula_units_Z 52
_cell_length_a 16.558663
_cell_length_b 16.558663
_cell_length_c 9.286793
_cell_angle_alpha 90.000000
_cell_angle_beta 90.000000
_cell_angle_gamma 90.000000
_cell_volume 2546.339461
_symmetry_space_group_name_H-M "P 4 C C"
_symmetry_group_IT_number 103
_symmetry_cell_setting 'tetragonal'
loop_
_space_group_symop_operation_xyz
x,y,z
-y,x,z
-x,-y,z
y,-x,z
-x,y,1/2+z
x,-y,1/2+z
-y,-x,1/2+z
y,x,1/2+z
loop_
_atom_site_type_symbol
_atom_site_label
_atom_site_fract_x
_atom_site_fract_y
_atom_site_fract_z
Si Si1 0.631560 0.882394 0.801210
Si Si2 0.997431 0.131219 0.429522
Si Si3 0.296308 0.584850 0.138465
Si Si4 0.704935 0.581933 0.289810
Si Si5 0.996442 0.243628 0.679360
Si Si6 0.370188 0.118306 0.120595
Si Si7 0.000000 0.500000 0.209148
O O1 0.600218 0.796833 0.743006
O O2 0.705791 0.914419 0.704932
O O3 0.558882 0.946722 0.807633
O O4 0.664840 0.869997 0.961276
O O5 0.998311 0.159535 0.264554
O O6 0.918971 0.078013 0.462343
O O7 0.994964 0.215528 0.514513
O O8 0.350675 0.652363 0.211706
O O9 0.320795 0.501917 0.216359
O O10 0.204906 0.606862 0.185188
O O11 0.307223 0.579537 0.964147
O O12 0.074513 0.299945 0.713109
O O13 0.448854 0.061187 0.110699
#
# Coordination Sequence:
#
# PCOD8306965 Si02
#       7
#     8   8   8   8   8   8   4
#     4  10  21  39  63  97 130 168 210 263 325 385
#     4  11  24  42  64  87 124 174 224 275 324 384
#     4  11  24  45  68 100 134 175 220 271 330 393
#     4  11  24  45  68 100 134 175 220 271 330 393
#     4  11  22  42  62  95 128 170 220 271 332 380
#     4  10  21  39  63  97 130 168 210 263 325 385
#     4  10  18  36  68  96 130 164 208 256 316 386
#
# _framework density 20.421472000000001
#
# number of rings (size 3 to 8) (size 9 to 14) (size 15 to 20)
#    0.000    1.385    3.077    2.308    0.000    4.000 
#    5.538    1.538    0.000    0.000    0.000    0.000 
#    0.000    0.000    0.000    0.000    0.000    0.000 
#
# Total GULP energy -644683.505567 kJ/mol
# GULP energy per Si atom -12397.759722 kJ/mol
# Density = 2.037499 g / cm^3
# Si number density = 20.421472 Si / 1000 Ang^3
#
#
#
# Elastic Constant Matrix: (Units=GPa)
#
#
# Indices 1 2 3 4 5 6 
#
# 1 126.1714 57.5283 32.5137 0.0000 0.0000 0.0000
# 2 57.5283 126.1714 32.5137 0.0000 0.0000 0.0000
# 3 32.5137 32.5137 77.0615 0.0000 0.0000 0.0000
# 4 0.0000 0.0000 0.0000 31.2024 0.0000 0.0000
# 5 0.0000 0.0000 0.0000 0.0000 31.2024 0.0000
# 6 0.0000 0.0000 0.0000 0.0000 0.0000 24.7040
#
#
#
# Elastic Compliance Matrix: (Units=1/GPa)
#
#
# Indices 1 2 3 4 5 6 
#
# 1 0.010484 -0.004084 -0.002700 0.000000 0.000000 0.000000
# 2 -0.004084 0.010484 -0.002700 0.000000 0.000000 0.000000
# 3 -0.002700 -0.002700 0.015255 0.000000 0.000000 0.000000
# 4 0.000000 0.000000 0.000000 0.032049 0.000000 0.000000
# 5 0.000000 0.000000 0.000000 0.000000 0.032049 0.000000
# 6 0.000000 0.000000 0.000000 0.000000 0.000000 0.040479
#
#
# Mechanical properties :
#
#
# Convention : Reuss Voigt Hill
#
# Bulk Modulus (GPa) = 57.95841 63.83509 60.89675
# Shear Modulus (GPa) = 30.20791 31.21168 30.70979
#
# Velocity S-wave (km/s) = 3.85024 3.91369 3.88209
# Velocity P-wave (km/s) = 6.94323 7.19370 7.06957
#
# Compressibility (1/GPa) = 0.01725375
#
# Stress axis : x y z
#
# Youngs Moduli (GPa) = 95.38548 95.38548 65.55208
#
# Poissons Ratio (x) = 0.38959 0.17699
# Poissons Ratio (y) = 0.38959 0.17699
# Poissons Ratio (z) = 0.25755 0.25755
#
# Static dielectric constant tensor:
#      x y z
#    x 3.690610 0.000000 0.000000 
#    y 0.000000 3.690610 0.000000 
#    z 0.000000 0.000000 3.538960 
# 
# 
# High freq. dielectric constant tensor:
#      x y z
#    x 1.803160 0.000000 0.000000 
#    y 0.000000 1.803160 0.000000 
#    z 0.000000 0.000000 1.793280 
# 
# From -- ./inp_files/315.got.cif
#   From: 2010.03.12/outbox.cif.g09.slc.cpg/sg103_cif.got.tgz:315.got - 2010.04.14 01:42:52.
