data_PCOD8306976
_publ_section_title
;
Structure prediction by ZEFSAII (Michael W. Deem and Ramdas Pophale) SiO2 
 PCOD8306976
Probable space group: P 4 C C
;
_chemical_formula_sum "Si O2"
_cell_formula_units_Z 48
_cell_length_a 14.260731
_cell_length_b 14.260731
_cell_length_c 14.325045
_cell_angle_alpha 90.000000
_cell_angle_beta 90.000000
_cell_angle_gamma 90.000000
_cell_volume 2913.262179
_symmetry_space_group_name_H-M "P 4 C C"
_symmetry_group_IT_number 103
_symmetry_cell_setting 'tetragonal'
loop_
_space_group_symop_operation_xyz
x,y,z
-y,x,z
-x,-y,z
y,-x,z
-x,y,1/2+z
x,-y,1/2+z
-y,-x,1/2+z
y,x,1/2+z
loop_
_atom_site_type_symbol
_atom_site_label
_atom_site_fract_x
_atom_site_fract_y
_atom_site_fract_z
Si Si1 0.216100 0.216100 0.604680
Si Si2 0.447341 0.645833 0.354680
Si Si3 0.592633 0.721516 0.655413
Si Si4 0.407367 0.278484 0.053946
Si Si5 0.124948 0.912952 0.962407
Si Si6 0.912952 0.875053 0.746953
O O1 0.322608 0.203429 0.643189
O O2 0.203428 0.322608 0.566171
O O3 0.202035 0.141239 0.522391
O O4 0.141239 0.202034 0.686969
O O5 0.381157 0.555754 0.354680
O O6 0.425722 0.708003 0.264526
O O7 0.425721 0.708005 0.444832
O O8 0.500000 0.760655 0.604679
O O9 0.623451 0.623451 0.604679
O O10 0.148812 0.896952 0.854680
O O11 0.022703 0.871878 0.987076
O O12 0.022703 0.871878 0.722284
#
# Coordination Sequence:
#
# PCOD8306976 Si02
#       6
#     8   8   8   8   8   8
#     4  10  20  29  53  74 108 136 166 206 252 306
#     4  11  18  28  50  66  92 137 174 226 266 283
#     4  10  21  33  45  73 105 135 178 213 246 294
#     4  10  21  33  45  73 105 135 178 213 246 294
#     4   9  18  34  57  83 104 122 157 213 271 318
#     4   9  18  34  57  83 104 122 157 213 271 318
#
# _framework density 16.476374
#
# number of rings (size 3 to 8) (size 9 to 14) (size 15 to 20)
#    1.000    1.167    3.333    2.000    2.333    1.667 
#    3.000    0.000    0.000    4.000    0.000    4.667 
#    0.000    0.000    0.000    0.000    0.000    0.000 
#
# Total GULP energy -595015.272701 kJ/mol
# GULP energy per Si atom -12396.151515 kJ/mol
# Density = 1.643887 g / cm^3
# Si number density = 16.476374 Si / 1000 Ang^3
#
#
#
# Elastic Constant Matrix: (Units=GPa)
#
#
# Indices 1 2 3 4 5 6 
#
# 1 70.3181 42.6789 49.5229 0.0000 0.0000 0.0000
# 2 42.6789 70.3181 49.5229 0.0000 0.0000 0.0000
# 3 49.5229 49.5229 136.4612 0.0000 0.0000 0.0000
# 4 0.0000 0.0000 0.0000 21.4463 0.0000 0.0000
# 5 0.0000 0.0000 0.0000 0.0000 21.4463 0.0000
# 6 0.0000 0.0000 0.0000 0.0000 0.0000 30.7484
#
#
#
# Elastic Compliance Matrix: (Units=1/GPa)
#
#
# Indices 1 2 3 4 5 6 
#
# 1 0.024579 -0.011601 -0.004710 0.000000 0.000000 0.000000
# 2 -0.011601 0.024579 -0.004710 0.000000 0.000000 0.000000
# 3 -0.004710 -0.004710 0.010747 0.000000 0.000000 0.000000
# 4 0.000000 0.000000 0.000000 0.046628 0.000000 0.000000
# 5 0.000000 0.000000 0.000000 0.000000 0.046628 0.000000
# 6 0.000000 0.000000 0.000000 0.000000 0.000000 0.032522
#
#
# Mechanical properties :
#
#
# Convention : Reuss Voigt Hill
#
# Bulk Modulus (GPa) = 55.98039 62.28297 59.13168
# Shear Modulus (GPa) = 21.39682 23.75307 22.57495
#
# Velocity S-wave (km/s) = 3.60757 3.80102 3.70556
# Velocity P-wave (km/s) = 7.16957 7.55957 7.36715
#
# Compressibility (1/GPa) = 0.01786340
#
# Stress axis : x y z
#
# Youngs Moduli (GPa) = 40.68461 40.68461 93.05275
#
# Poissons Ratio (x) = 0.47199 0.43827
# Poissons Ratio (y) = 0.47199 0.43827
# Poissons Ratio (z) = 0.19162 0.19162
#
# Static dielectric constant tensor:
#      x y z
#    x 2.848880 0.000000 0.000000 
#    y 0.000000 2.848880 0.000000 
#    z 0.000000 0.000000 3.175160 
# 
# 
# High freq. dielectric constant tensor:
#      x y z
#    x 1.607520 0.000000 0.000000 
#    y 0.000000 1.607520 0.000000 
#    z 0.000000 0.000000 1.656580 
# 
# From -- ./inp_files/854.got.cif
#   From: 2010.03.12/outbox.cif.g09.slc.cpg/sg103_cif.got.tgz:854.got - 2010.04.14 01:42:52.
