data_PCOD8306396
_publ_section_title
;
Structure prediction by ZEFSAII (Michael W. Deem and Ramdas Pophale) SiO2 
 PCOD8306396
Probable space group: I 41 2 2
;
_chemical_formula_sum "Si O2"
_cell_formula_units_Z 52
_cell_length_a 16.660783
_cell_length_b 16.660783
_cell_length_c 8.358439
_cell_angle_alpha 90.000000
_cell_angle_beta 90.000000
_cell_angle_gamma 90.000000
_cell_volume 2320.149625
_symmetry_space_group_name_H-M "I 41 2 2"
_symmetry_group_IT_number 98
_symmetry_cell_setting 'tetragonal'
loop_
_space_group_symop_operation_xyz
x,y,z
-y,1/2+x,1/4+z
-x,-y,z
y,1/2-x,1/4+z
x,1/2-y,1/4-z
-x,1/2+y,1/4-z
y,x,-z
-y,-x,-z
1/2+x,1/2+y,1/2+z
1/2-y,x,3/4+z
1/2-x,1/2-y,1/2+z
1/2+y,-x,3/4+z
1/2+x,-y,3/4-z
1/2-x,y,3/4-z
1/2+y,1/2+x,1/2-z
1/2-y,1/2-x,1/2-z
loop_
_atom_site_type_symbol
_atom_site_label
_atom_site_fract_x
_atom_site_fract_y
_atom_site_fract_z
Si Si1 0.500000 0.500000 0.000000
Si Si2 0.750000 0.952464 0.375000
Si Si3 0.665444 0.016649 0.086664
Si Si4 0.143096 0.165645 0.167622
Si Si5 0.853095 0.250000 0.125000
O O1 0.492979 0.571723 0.872891
O O2 0.709127 0.016359 0.257525
O O3 0.811777 0.893502 0.287359
O O4 0.696241 0.937667 0.998799
O O5 0.687383 0.093754 0.979086
O O6 0.189403 0.250000 0.125000
O O7 0.121822 0.121822 0.000000
O O8 0.799171 0.299171 0.250000
#
# Coordination Sequence:
#
# PCOD8306396 Si02
#       5
#     4   8  16  16   8
#     4  12  28  44  82 108 152 204 254 326 398 480
#     4  12  24  43  71 108 156 200 254 320 400 493
#     4  12  27  49  72 113 149 203 260 326 408 474
#     4  12  24  39  68 105 150 197 246 310 387 476
#     4  12  32  55  83 116 154 216 276 350 406 491
#
# _framework density 22.412345999999999
#
# number of rings (size 3 to 8) (size 9 to 14) (size 15 to 20)
#    0.000    0.000    7.692    0.000    8.615    2.462 
#    0.000    0.000    0.000    0.000    0.000    0.000 
#    0.000    0.000    0.000    0.000    0.000    0.000 
#
# Total GULP energy -322160.565973 kJ/mol
# GULP energy per Si atom -12390.790999 kJ/mol
# Density = 2.236133 g / cm^3
# Si number density = 22.412346 Si / 1000 Ang^3
#
#
#
# Elastic Constant Matrix: (Units=GPa)
#
#
# Indices 1 2 3 4 5 6 
#
# 1 118.2620 41.4877 66.0924 0.0000 0.0000 0.0000
# 2 41.4877 118.2620 66.0924 0.0000 0.0000 0.0000
# 3 66.0924 66.0924 178.2874 0.0000 0.0000 0.0000
# 4 0.0000 0.0000 0.0000 50.9957 0.0000 0.0000
# 5 0.0000 0.0000 0.0000 0.0000 50.9957 0.0000
# 6 0.0000 0.0000 0.0000 0.0000 0.0000 30.7975
#
#
#
# Elastic Compliance Matrix: (Units=1/GPa)
#
#
# Indices 1 2 3 4 5 6 
#
# 1 0.011027 -0.001998 -0.003347 0.000000 0.000000 0.000000
# 2 -0.001998 0.011027 -0.003347 0.000000 0.000000 0.000000
# 3 -0.003347 -0.003347 0.008091 0.000000 0.000000 0.000000
# 4 0.000000 0.000000 0.000000 0.019610 0.000000 0.000000
# 5 0.000000 0.000000 0.000000 0.000000 0.019610 0.000000
# 6 0.000000 0.000000 0.000000 0.000000 0.000000 0.032470
#
#
# Mechanical properties :
#
#
# Convention : Reuss Voigt Hill
#
# Bulk Modulus (GPa) = 78.36698 84.68404 81.52551
# Shear Modulus (GPa) = 40.49472 42.63371 41.56422
#
# Velocity S-wave (km/s) = 4.25526 4.36620 4.31109
# Velocity P-wave (km/s) = 7.69317 7.95518 7.82527
#
# Compressibility (1/GPa) = 0.01276048
#
# Stress axis : x y z
#
# Youngs Moduli (GPa) = 90.68357 90.68357 123.59925
#
# Poissons Ratio (x) = 0.18117 0.41372
# Poissons Ratio (y) = 0.18117 0.41372
# Poissons Ratio (z) = 0.30355 0.30355
#
# Static dielectric constant tensor:
#      x y z
#    x 4.073510 0.000000 0.000000 
#    y 0.000000 4.073510 0.000000 
#    z 0.000000 0.000000 4.954500 
# 
# 
# High freq. dielectric constant tensor:
#      x y z
#    x 1.875780 0.000000 0.000000 
#    y 0.000000 1.875780 0.000000 
#    z 0.000000 0.000000 1.917640 
# 
# From -- ./inp_files/2939.got.cif
#   From: 2010.03.12/outbox.cif.g09.slc.cpg/sg98_2_cif.got.tgz:2939.got - 2010.04.08 21:04:41.
