data_PCOD8306387
_publ_section_title
;
Structure prediction by ZEFSAII (Michael W. Deem and Ramdas Pophale) SiO2 
 PCOD8306387
Probable space group: I 41 2 2
;
_chemical_formula_sum "Si O2"
_cell_formula_units_Z 40
_cell_length_a 7.630340
_cell_length_b 7.630340
_cell_length_c 27.291889
_cell_angle_alpha 90.000000
_cell_angle_beta 90.000000
_cell_angle_gamma 90.000000
_cell_volume 1588.990777
_symmetry_space_group_name_H-M "I 41 2 2"
_symmetry_group_IT_number 98
_symmetry_cell_setting 'tetragonal'
loop_
_space_group_symop_operation_xyz
x,y,z
-y,1/2+x,1/4+z
-x,-y,z
y,1/2-x,1/4+z
x,1/2-y,1/4-z
-x,1/2+y,1/4-z
y,x,-z
-y,-x,-z
1/2+x,1/2+y,1/2+z
1/2-y,x,3/4+z
1/2-x,1/2-y,1/2+z
1/2+y,-x,3/4+z
1/2+x,-y,3/4-z
1/2-x,y,3/4-z
1/2+y,1/2+x,1/2-z
1/2-y,1/2-x,1/2-z
loop_
_atom_site_type_symbol
_atom_site_label
_atom_site_fract_x
_atom_site_fract_y
_atom_site_fract_z
Si Si1 0.719278 0.280723 0.500000
Si Si2 0.970307 0.798263 0.569155
Si Si3 0.803754 0.565903 0.429826
O O1 0.689659 0.442557 0.464081
O O2 0.901460 0.299746 0.531034
O O3 0.018454 0.750000 0.625000
O O4 0.767616 0.761586 0.556418
O O5 0.000000 0.000000 0.561182
O O6 0.750000 0.526725 0.375000
O O7 0.000000 0.500000 0.437518
#
# Coordination Sequence:
#
# PCOD8306387 Si02
#       3
#     8  16  16
#     4  12  25  50  79 112 148 201 256 321 364 462
#     4  11  25  48  75 106 150 199 250 311 389 455
#     4  11  26  49  72 109 152 198 255 311 391 452
#
# _framework density 25.173210999999998
#
# number of rings (size 3 to 8) (size 9 to 14) (size 15 to 20)
#    0.000    0.800    4.000    1.800    0.000    1.600 
#   14.400    0.000    0.000    0.000    0.000    0.000 
#    0.000    0.000    0.000    0.000    0.000    0.000 
#
# Total GULP energy -248015.906722 kJ/mol
# GULP energy per Si atom -12400.795336 kJ/mol
# Density = 2.511592 g / cm^3
# Si number density = 25.173211 Si / 1000 Ang^3
#
#
#
# Elastic Constant Matrix: (Units=GPa)
#
#
# Indices 1 2 3 4 5 6 
#
# 1 119.4907 54.0731 83.2270 0.0000 0.0000 0.0000
# 2 54.0731 119.4902 83.2274 0.0000 0.0000 0.0000
# 3 83.2270 83.2274 181.6723 0.0000 0.0000 0.0000
# 4 0.0000 0.0000 0.0000 58.3163 0.0000 0.0000
# 5 0.0000 0.0000 0.0000 0.0000 58.3158 0.0000
# 6 0.0000 0.0000 0.0000 0.0000 0.0000 20.0094
#
#
#
# Elastic Compliance Matrix: (Units=1/GPa)
#
#
# Indices 1 2 3 4 5 6 
#
# 1 0.012782 -0.002505 -0.004708 0.000000 0.000000 0.000000
# 2 -0.002505 0.012782 -0.004708 0.000000 0.000000 0.000000
# 3 -0.004708 -0.004708 0.009818 0.000000 0.000000 0.000000
# 4 0.000000 0.000000 0.000000 0.017148 0.000000 0.000000
# 5 0.000000 0.000000 0.000000 0.000000 0.017148 0.000000
# 6 0.000000 0.000000 0.000000 0.000000 0.000000 0.049977
#
#
# Mechanical properties :
#
#
# Convention : Reuss Voigt Hill
#
# Bulk Modulus (GPa) = 86.65787 95.74536 91.20162
# Shear Modulus (GPa) = 33.93475 40.67001 37.30238
#
# Velocity S-wave (km/s) = 3.67556 4.02382 3.85363
# Velocity P-wave (km/s) = 7.24654 7.72693 7.49059
#
# Compressibility (1/GPa) = 0.01153963
#
# Stress axis : x y z
#
# Youngs Moduli (GPa) = 78.23807 78.23727 101.85396
#
# Poissons Ratio (x) = 0.19598 0.47952
# Poissons Ratio (y) = 0.19598 0.47953
# Poissons Ratio (z) = 0.36834 0.36834
#
# Static dielectric constant tensor:
#      x y z
#    x 4.511500 0.000000 0.000000 
#    y 0.000000 4.511500 0.000000 
#    z 0.000000 0.000000 -23.044930 
# 
# 
# High freq. dielectric constant tensor:
#      x y z
#    x 2.007030 0.000000 0.000000 
#    y 0.000000 2.007030 0.000000 
#    z 0.000000 0.000000 2.032440 
# 
# From -- ./inp_files/11214.got.cif
#   From: 2010.03.12/outbox.cif.g09.slc.cpg/sg98_6_cif.got.tgz:11214.got - 2010.04.08 21:04:41.
