data_PCOD8306378
_publ_section_title
;
Structure prediction by ZEFSAII (Michael W. Deem and Ramdas Pophale) SiO2 
 PCOD8306378
Probable space group: I 41 2 2
;
_chemical_formula_sum "Si O2"
_cell_formula_units_Z 32
_cell_length_a 8.660556
_cell_length_b 8.660556
_cell_length_c 15.673136
_cell_angle_alpha 90.000000
_cell_angle_beta 90.000000
_cell_angle_gamma 90.000000
_cell_volume 1175.567174
_symmetry_space_group_name_H-M "I 41 2 2"
_symmetry_group_IT_number 98
_symmetry_cell_setting 'tetragonal'
loop_
_space_group_symop_operation_xyz
x,y,z
-y,1/2+x,1/4+z
-x,-y,z
y,1/2-x,1/4+z
x,1/2-y,1/4-z
-x,1/2+y,1/4-z
y,x,-z
-y,-x,-z
1/2+x,1/2+y,1/2+z
1/2-y,x,3/4+z
1/2-x,1/2-y,1/2+z
1/2+y,-x,3/4+z
1/2+x,-y,3/4-z
1/2-x,y,3/4-z
1/2+y,1/2+x,1/2-z
1/2-y,1/2-x,1/2-z
loop_
_atom_site_type_symbol
_atom_site_label
_atom_site_fract_x
_atom_site_fract_y
_atom_site_fract_z
Si Si1 0.880883 0.657063 0.044834
Si Si2 0.066958 0.656570 0.877944
O O1 0.948055 0.750000 0.125000
O O2 0.811796 0.495256 0.081516
O O3 0.737840 0.737840 0.000000
O O4 0.018791 0.644405 0.977561
O O5 0.250000 0.654104 0.875000
O O6 0.000000 0.500000 0.833869
#
# Coordination Sequence:
#
# PCOD8306378 Si02
#       2
#    16  16
#     4   9  20  43  73 107 152 197 245 309 375 442
#     4  11  23  41  73 115 155 200 253 307 370 443
#
# _framework density 27.220903
#
# number of rings (size 3 to 8) (size 9 to 14) (size 15 to 20)
#    0.000    2.000    0.000    4.500    0.000    7.000 
#    0.000   15.000    0.000   10.500    0.000   45.500 
#    0.000    0.000    0.000    0.000    0.000    0.000 
#
# Total GULP energy -198276.951149 kJ/mol
# GULP energy per Si atom -12392.309447 kJ/mol
# Density = 2.715895 g / cm^3
# Si number density = 27.220903 Si / 1000 Ang^3
#
#
#
# Elastic Constant Matrix: (Units=GPa)
#
#
# Indices 1 2 3 4 5 6 
#
# 1 181.2853 90.3648 81.1203 0.0000 0.0000 0.0000
# 2 90.3648 181.2853 81.1203 0.0000 0.0000 0.0000
# 3 81.1203 81.1203 197.9915 0.0000 0.0000 0.0000
# 4 0.0000 0.0000 0.0000 34.8887 0.0000 0.0000
# 5 0.0000 0.0000 0.0000 0.0000 34.8887 0.0000
# 6 0.0000 0.0000 0.0000 0.0000 0.0000 53.7090
#
#
#
# Elastic Compliance Matrix: (Units=1/GPa)
#
#
# Indices 1 2 3 4 5 6 
#
# 1 0.007936 -0.003062 -0.001997 0.000000 0.000000 0.000000
# 2 -0.003062 0.007936 -0.001997 0.000000 0.000000 0.000000
# 3 -0.001997 -0.001997 0.006687 0.000000 0.000000 0.000000
# 4 0.000000 0.000000 0.000000 0.028663 0.000000 0.000000
# 5 0.000000 0.000000 0.000000 0.000000 0.028663 0.000000
# 6 0.000000 0.000000 0.000000 0.000000 0.000000 0.018619
#
#
# Mechanical properties :
#
#
# Convention : Reuss Voigt Hill
#
# Bulk Modulus (GPa) = 118.38316 118.41922 118.40119
# Shear Modulus (GPa) = 43.31574 45.22773 44.27173
#
# Velocity S-wave (km/s) = 3.99340 4.08058 4.03722
# Velocity P-wave (km/s) = 8.05277 8.11166 8.08227
#
# Compressibility (1/GPa) = 0.00844715
#
# Stress axis : x y z
#
# Youngs Moduli (GPa) = 126.00446 126.00446 149.54305
#
# Poissons Ratio (x) = 0.38588 0.29862
# Poissons Ratio (y) = 0.38588 0.29862
# Poissons Ratio (z) = 0.25162 0.25162
#
# Static dielectric constant tensor:
#      x y z
#    x 5.390980 0.000000 0.000000 
#    y 0.000000 5.390980 0.000000 
#    z 0.000000 0.000000 3.875460 
# 
# 
# High freq. dielectric constant tensor:
#      x y z
#    x 2.104150 0.000000 0.000000 
#    y 0.000000 2.104150 0.000000 
#    z 0.000000 0.000000 2.116690 
# 
# From -- ./inp_files/8080.got.cif
#   From: 2010.03.12/outbox.cif.g09.slc.cpg/sg98_5_cif.got.tgz:8080.got - 2010.04.08 21:04:41.
