data_PCOD8306889
_publ_section_title
;
Structure prediction by ZEFSAII (Michael W. Deem and Ramdas Pophale) SiO2 
 PCOD8306889
Probable space group: P 42 N M
;
_chemical_formula_sum "Si O2"
_cell_formula_units_Z 48
_cell_length_a 10.482610
_cell_length_b 10.482610
_cell_length_c 22.751442
_cell_angle_alpha 90.000000
_cell_angle_beta 90.000000
_cell_angle_gamma 90.000000
_cell_volume 2500.044762
_symmetry_space_group_name_H-M "P 42 N M"
_symmetry_group_IT_number 102
_symmetry_cell_setting 'tetragonal'
loop_
_space_group_symop_operation_xyz
x,y,z
1/2-y,1/2+x,1/2+z
-x,-y,z
1/2+y,1/2-x,1/2+z
1/2-x,1/2+y,1/2+z
1/2+x,1/2-y,1/2+z
-y,-x,z
y,x,z
loop_
_atom_site_type_symbol
_atom_site_label
_atom_site_fract_x
_atom_site_fract_y
_atom_site_fract_z
Si Si1 0.622762 0.924029 0.027500
Si Si2 0.004938 0.204368 0.133624
Si Si3 0.496086 0.290928 0.423682
Si Si4 0.993159 0.207982 0.791766
Si Si5 0.200367 0.000227 0.577659
Si Si6 0.887926 0.675246 0.687041
O O1 0.573795 0.776452 0.025698
O O2 0.500000 0.000000 0.048381
O O3 0.736609 0.942779 0.073558
O O4 0.670229 0.975580 0.964871
O O5 0.883482 0.116519 0.117186
O O6 0.960167 0.314021 0.179801
O O7 0.117863 0.117863 0.161887
O O8 0.613015 0.386986 0.429745
O O9 0.365092 0.365092 0.440651
O O10 0.484951 0.235702 0.357592
O O11 0.101915 0.101915 0.790533
O O12 0.024580 0.322147 0.745691
O O13 0.858970 0.141031 0.774564
O O14 0.092333 0.907668 0.603516
O O15 0.301073 0.026056 0.629624
O O16 0.131340 0.131340 0.555073
O O17 0.789147 0.789147 0.692442
#
# Coordination Sequence:
#
# PCOD8306889 Si02
#       6
#     8   8   8   8   8   8
#     4  12  22  33  51  73 106 145 175 221 268 322
#     4  10  20  34  53  78 108 141 177 221 273 324
#     4   9  18  33  55  82 106 133 177 228 273 319
#     4   8  14  27  51  81 108 135 173 223 273 318
#     4  10  20  33  50  74 105 139 174 214 264 321
#     4   9  16  29  50  78 106 134 171 218 271 325
#
# _framework density 19.199656000000001
#
# number of rings (size 3 to 8) (size 9 to 14) (size 15 to 20)
#    0.000    2.333    1.667    3.500    0.000    4.000 
#    0.000    0.000    3.667    1.000    0.000    4.667 
#    0.000    0.000    0.000    0.000    0.000    0.167 
#
# Total GULP energy -594772.919988 kJ/mol
# GULP energy per Si atom -12391.102500 kJ/mol
# Density = 1.915596 g / cm^3
# Si number density = 19.199656 Si / 1000 Ang^3
#
#
#
# Elastic Constant Matrix: (Units=GPa)
#
#
# Indices 1 2 3 4 5 6 
#
# 1 86.9393 48.7340 51.1133 0.0000 0.0000 0.0001
# 2 48.7340 86.9393 51.1133 0.0000 0.0000 -0.0001
# 3 51.1133 51.1133 105.9803 0.0000 0.0000 0.0000
# 4 0.0000 0.0000 0.0000 16.1389 0.0000 0.0000
# 5 0.0000 0.0000 0.0000 0.0000 16.1389 0.0000
# 6 0.0001 -0.0001 0.0000 0.0000 0.0000 35.8354
#
#
#
# Elastic Compliance Matrix: (Units=1/GPa)
#
#
# Indices 1 2 3 4 5 6 
#
# 1 0.018876 -0.007298 -0.005584 0.000000 0.000000 0.000000
# 2 -0.007298 0.018876 -0.005584 0.000000 0.000000 0.000000
# 3 -0.005584 -0.005584 0.014822 0.000000 0.000000 0.000000
# 4 0.000000 0.000000 0.000000 0.061962 0.000000 0.000000
# 5 0.000000 0.000000 0.000000 0.000000 0.061962 0.000000
# 6 0.000000 0.000000 0.000000 0.000000 0.000000 0.027905
#
#
# Mechanical properties :
#
#
# Convention : Reuss Voigt Hill
#
# Bulk Modulus (GPa) = 63.93013 64.64225 64.28619
# Shear Modulus (GPa) = 20.27987 22.21587 21.24787
#
# Velocity S-wave (km/s) = 3.25354 3.40530 3.33029
# Velocity P-wave (km/s) = 6.89086 7.01448 6.95295
#
# Compressibility (1/GPa) = 0.01564208
#
# Stress axis : x y z
#
# Youngs Moduli (GPa) = 52.97678 52.97678 67.46755
#
# Poissons Ratio (x) = 0.38663 0.37674
# Poissons Ratio (y) = 0.38663 0.37674
# Poissons Ratio (z) = 0.29582 0.29582
#
# Static dielectric constant tensor:
#      x y z
#    x 3.601100 0.000000 0.000000 
#    y 0.000000 3.601100 0.000000 
#    z 0.000000 0.000000 3.490100 
# 
# 
# High freq. dielectric constant tensor:
#      x y z
#    x 1.742040 0.000000 0.000000 
#    y 0.000000 1.742040 0.000000 
#    z 0.000000 0.000000 1.712320 
# 
# From -- ./inp_files/3025.got.cif
#   From: 2010.03.12/outbox.cif.g09.slc.cpg/sg102_2_cif.got.tgz:3025.got - 2010.04.14 01:40:42.
