data_PCOD8306614
_publ_section_title
;
Structure prediction by ZEFSAII (Michael W. Deem and Ramdas Pophale) SiO2 
 PCOD8306614
Probable space group: P 4 M M
;
_chemical_formula_sum "Si O2"
_cell_formula_units_Z 64
_cell_length_a 13.649948
_cell_length_b 13.649948
_cell_length_c 20.368197
_cell_angle_alpha 90.000000
_cell_angle_beta 90.000000
_cell_angle_gamma 90.000000
_cell_volume 3795.024471
_symmetry_space_group_name_H-M "P 4 M M"
_symmetry_group_IT_number 99
_symmetry_cell_setting 'tetragonal'
loop_
_space_group_symop_operation_xyz
x,y,z
-y,x,z
-x,-y,z
y,-x,z
-x,y,z
x,-y,z
-y,-x,z
y,x,z
loop_
_atom_site_type_symbol
_atom_site_label
_atom_site_fract_x
_atom_site_fract_y
_atom_site_fract_z
Si Si1 0.113294 0.728408 0.229970
Si Si2 0.728408 0.113294 0.015919
Si Si3 0.111297 0.730204 0.865619
Si Si4 0.775150 0.386492 0.480587
Si Si5 0.386492 0.224851 0.765302
Si Si6 0.766782 0.389334 0.622945
Si Si7 0.111297 0.730205 0.380270
Si Si8 0.615025 0.224167 0.122945
O O1 0.169082 0.830918 0.216116
O O2 0.125645 0.695805 0.305356
O O3 0.160602 0.642303 0.186932
O O4 0.000000 0.743973 0.210924
O O5 0.830920 0.169081 0.029771
O O6 0.695802 0.125644 0.940533
O O7 0.743971 0.000000 0.034966
O O8 0.642306 0.160605 0.058958
O O9 0.173203 0.826798 0.849339
O O10 0.143467 0.641515 0.818717
O O11 0.000000 0.758261 0.851020
O O12 0.747600 0.500000 0.471424
O O13 0.676768 0.323233 0.469415
O O14 0.822191 0.365858 0.553872
O O15 0.856534 0.358486 0.427172
O O16 0.500000 0.252401 0.774466
O O17 0.323234 0.323234 0.776475
O O18 0.365857 0.177811 0.692017
O O19 0.734004 0.500000 0.622945
O O20 0.664521 0.335480 0.622944
O O21 0.173203 0.826798 0.396552
O O22 0.000000 0.758261 0.394869
O O23 0.500000 0.246966 0.122945
O O24 0.672639 0.327362 0.122947
#
# Coordination Sequence:
#
# PCOD8306614 Si02
#       8
#     8   8   8   8   8   8   8   8
#     4   9  18  32  50  73  98 122 150 185 227 275
#     4   9  18  32  50  73  98 122 150 185 227 275
#     4   9  18  32  49  69  93 121 153 189 228 270
#     4   9  17  29  45  66  92 120 151 187 227 273
#     4   9  17  29  45  66  92 120 151 187 227 273
#     4   8  14  25  41  61  86 116 148 184 227 272
#     4   9  18  32  49  69  93 121 153 189 228 270
#     4  10  21  36  52  70  94 124 159 196 228 262
#
# _framework density 16.864187999999999
#
# number of rings (size 3 to 8) (size 9 to 14) (size 15 to 20)
#    0.000    3.000    0.000    0.375    0.000    3.500 
#    0.000    8.125    0.000    4.500    0.000    7.000 
#    0.000    5.000    0.000    0.000    0.000    0.000 
#
# Total GULP energy -793113.068391 kJ/mol
# GULP energy per Si atom -12392.391694 kJ/mol
# Density = 1.682580 g / cm^3
# Si number density = 16.864188 Si / 1000 Ang^3
#
#
#
# Elastic Constant Matrix: (Units=GPa)
#
#
# Indices 1 2 3 4 5 6 
#
# 1 99.5935 38.9041 56.9078 0.0000 0.0000 -0.0006
# 2 38.9041 99.5935 56.9078 0.0000 0.0000 0.0006
# 3 56.9078 56.9078 113.2801 0.0000 0.0000 0.0000
# 4 0.0000 0.0000 0.0000 24.4146 0.0000 0.0000
# 5 0.0000 0.0000 0.0000 0.0000 24.4146 0.0000
# 6 -0.0006 0.0006 0.0000 0.0000 0.0000 11.6334
#
#
#
# Elastic Compliance Matrix: (Units=1/GPa)
#
#
# Indices 1 2 3 4 5 6 
#
# 1 0.014387 -0.002090 -0.006178 0.000000 0.000000 0.000001
# 2 -0.002090 0.014387 -0.006178 0.000000 0.000000 -0.000001
# 3 -0.006178 -0.006178 0.015034 0.000000 0.000000 0.000000
# 4 0.000000 0.000000 0.000000 0.040959 0.000000 0.000000
# 5 0.000000 0.000000 0.000000 0.000000 0.040959 0.000000
# 6 0.000001 -0.000001 0.000000 0.000000 0.000000 0.085959
#
#
# Mechanical properties :
#
#
# Convention : Reuss Voigt Hill
#
# Bulk Modulus (GPa) = 67.03234 68.65628 67.84431
# Shear Modulus (GPa) = 20.36250 22.74235 21.55243
#
# Velocity S-wave (km/s) = 3.47859 3.67626 3.57879
# Velocity P-wave (km/s) = 7.48123 7.66939 7.57589
#
# Compressibility (1/GPa) = 0.01491817
#
# Stress axis : x y z
#
# Youngs Moduli (GPa) = 69.50642 69.50642 66.51404
#
# Poissons Ratio (x) = 0.14528 0.41089
# Poissons Ratio (y) = 0.14528 0.41089
# Poissons Ratio (z) = 0.42938 0.42938
#
# Static dielectric constant tensor:
#      x y z
#    x 2.994240 0.000000 0.000000 
#    y 0.000000 2.994240 0.000000 
#    z 0.000000 0.000000 3.622460 
# 
# 
# High freq. dielectric constant tensor:
#      x y z
#    x 1.633160 0.000000 0.000000 
#    y 0.000000 1.633160 0.000000 
#    z 0.000000 0.000000 1.671130 
# 
# From -- ./inp_files/2294.got.cif
#   From: 2010.03.12/outbox.cif.g09.slc.cpg/sg99_cif.got.tgz:2294.got - 2010.04.08 21:11:30.
