data_PCOD8306332
_publ_section_title
;
Structure prediction by ZEFSAII (Michael W. Deem and Ramdas Pophale) SiO2 
 PCOD8306332
Probable space group: I 41 2 2
;
_chemical_formula_sum "Si O2"
_cell_formula_units_Z 40
_cell_length_a 9.516043
_cell_length_b 9.516043
_cell_length_c 18.805693
_cell_angle_alpha 90.000000
_cell_angle_beta 90.000000
_cell_angle_gamma 90.000000
_cell_volume 1702.950928
_symmetry_space_group_name_H-M "I 41 2 2"
_symmetry_group_IT_number 98
_symmetry_cell_setting 'tetragonal'
loop_
_space_group_symop_operation_xyz
x,y,z
-y,1/2+x,1/4+z
-x,-y,z
y,1/2-x,1/4+z
x,1/2-y,1/4-z
-x,1/2+y,1/4-z
y,x,-z
-y,-x,-z
1/2+x,1/2+y,1/2+z
1/2-y,x,3/4+z
1/2-x,1/2-y,1/2+z
1/2+y,-x,3/4+z
1/2+x,-y,3/4-z
1/2-x,y,3/4-z
1/2+y,1/2+x,1/2-z
1/2-y,1/2-x,1/2-z
loop_
_atom_site_type_symbol
_atom_site_label
_atom_site_fract_x
_atom_site_fract_y
_atom_site_fract_z
Si Si1 0.258008 0.758008 0.750000
Si Si2 0.247942 0.068034 0.794440
Si Si3 0.522415 0.844586 0.065169
O O1 0.399701 0.747698 0.703595
O O2 0.259953 0.621916 0.800350
O O3 0.250000 0.123549 0.875000
O O4 0.384492 0.115509 0.750000
O O5 0.361757 0.387354 0.743273
O O6 0.601220 0.750000 0.125000
O O7 0.500000 0.000000 0.097277
#
# Coordination Sequence:
#
# PCOD8306332 Si02
#       3
#     8  16  16
#     4  10  23  40  67  94 126 170 216 266 320 380
#     4  11  24  42  65  95 129 167 214 266 321 382
#     4  10  23  42  65  95 129 170 215 263 323 386
#
# _framework density 23.48864
#
# number of rings (size 3 to 8) (size 9 to 14) (size 15 to 20)
#    0.000    1.600    0.000    3.000    0.000   19.200 
#    0.000    0.000    0.000    0.000    0.000    0.000 
#    0.000    0.000    0.000    0.000    0.000    0.000 
#
# Total GULP energy -247933.054568 kJ/mol
# GULP energy per Si atom -12396.652728 kJ/mol
# Density = 2.343518 g / cm^3
# Si number density = 23.488640 Si / 1000 Ang^3
#
#
#
# Elastic Constant Matrix: (Units=GPa)
#
#
# Indices 1 2 3 4 5 6 
#
# 1 113.5306 57.7924 62.4302 0.0000 0.0000 0.0000
# 2 57.7924 113.5340 62.4302 0.0000 0.0000 0.0000
# 3 62.4302 62.4302 194.8466 0.0000 0.0000 0.0000
# 4 0.0000 0.0000 0.0000 18.9982 0.0000 0.0000
# 5 0.0000 0.0000 0.0000 0.0000 18.9994 0.0000
# 6 0.0000 0.0000 0.0000 0.0000 0.0000 39.8346
#
#
#
# Elastic Compliance Matrix: (Units=1/GPa)
#
#
# Indices 1 2 3 4 5 6 
#
# 1 0.012778 -0.005163 -0.002440 0.000000 0.000000 0.000000
# 2 -0.005163 0.012778 -0.002440 0.000000 0.000000 0.000000
# 3 -0.002440 -0.002440 0.006696 0.000000 0.000000 0.000000
# 4 0.000000 0.000000 0.000000 0.052637 0.000000 0.000000
# 5 0.000000 0.000000 0.000000 0.000000 0.052633 0.000000
# 6 0.000000 0.000000 0.000000 0.000000 0.000000 0.025104
#
#
# Mechanical properties :
#
#
# Convention : Reuss Voigt Hill
#
# Bulk Modulus (GPa) = 82.19471 87.46853 84.83162
# Shear Modulus (GPa) = 26.77153 31.51699 29.14426
#
# Velocity S-wave (km/s) = 3.37970 3.66703 3.52629
# Velocity P-wave (km/s) = 7.09219 7.43296 7.26458
#
# Compressibility (1/GPa) = 0.01216623
#
# Stress axis : x y z
#
# Youngs Moduli (GPa) = 78.25952 78.26239 149.34779
#
# Poissons Ratio (x) = 0.40404 0.36441
# Poissons Ratio (y) = 0.40403 0.36439
# Poissons Ratio (z) = 0.19095 0.19095
#
# Static dielectric constant tensor:
#      x y z
#    x 4.439070 0.000000 0.000000 
#    y 0.000000 4.439060 0.000000 
#    z 0.000000 0.000000 4.013120 
# 
# 
# High freq. dielectric constant tensor:
#      x y z
#    x 1.936760 0.000000 0.000000 
#    y 0.000000 1.936760 0.000000 
#    z 0.000000 0.000000 1.920300 
# 
# From -- ./inp_files/9485.got.cif
#   From: 2010.03.12/outbox.cif.g09.slc.cpg/sg98_5_cif.got.tgz:9485.got - 2010.04.08 21:04:41.
