data_PCOD8306385
_publ_section_title
;
Structure prediction by ZEFSAII (Michael W. Deem and Ramdas Pophale) SiO2 
 PCOD8306385
Probable space group: I 41 2 2
;
_chemical_formula_sum "Si O2"
_cell_formula_units_Z 48
_cell_length_a 8.838639
_cell_length_b 8.838639
_cell_length_c 26.768176
_cell_angle_alpha 90.000000
_cell_angle_beta 90.000000
_cell_angle_gamma 90.000000
_cell_volume 2091.171115
_symmetry_space_group_name_H-M "I 41 2 2"
_symmetry_group_IT_number 98
_symmetry_cell_setting 'tetragonal'
loop_
_space_group_symop_operation_xyz
x,y,z
-y,1/2+x,1/4+z
-x,-y,z
y,1/2-x,1/4+z
x,1/2-y,1/4-z
-x,1/2+y,1/4-z
y,x,-z
-y,-x,-z
1/2+x,1/2+y,1/2+z
1/2-y,x,3/4+z
1/2-x,1/2-y,1/2+z
1/2+y,-x,3/4+z
1/2+x,-y,3/4-z
1/2-x,y,3/4-z
1/2+y,1/2+x,1/2-z
1/2-y,1/2-x,1/2-z
loop_
_atom_site_type_symbol
_atom_site_label
_atom_site_fract_x
_atom_site_fract_y
_atom_site_fract_z
Si Si1 0.721903 0.448419 0.231151
Si Si2 0.931272 0.664452 0.874821
Si Si3 0.054861 0.279957 0.479729
O O1 0.879394 0.379394 0.250000
O O2 0.741922 0.504474 0.174596
O O3 0.681103 0.588890 0.266658
O O4 0.588202 0.322975 0.235695
O O5 0.750000 0.656706 0.875000
O O6 0.990239 0.763868 0.828204
O O7 0.000000 0.500000 0.869795
O O8 0.122098 0.122098 0.500000
#
# Coordination Sequence:
#
# PCOD8306385 Si02
#       3
#    16  16  16
#     4  11  26  49  71 111 152 187 251 309 375 441
#     4  12  25  47  78 108 145 201 256 307 378 456
#     4  11  24  46  73 111 144 195 249 305 374 447
#
# _framework density 22.953647
#
# number of rings (size 3 to 8) (size 9 to 14) (size 15 to 20)
#    0.000    0.667    6.667    0.000    9.333    0.667 
#   12.000    0.000    0.000    0.000    0.000    0.000 
#    0.000    0.000    0.000    0.000    0.000    0.000 
#
# Total GULP energy -297686.432426 kJ/mol
# GULP energy per Si atom -12403.601351 kJ/mol
# Density = 2.290140 g / cm^3
# Si number density = 22.953647 Si / 1000 Ang^3
#
#
#
# Elastic Constant Matrix: (Units=GPa)
#
#
# Indices 1 2 3 4 5 6 
#
# 1 59.1064 43.7093 65.6058 0.0000 0.0000 0.0000
# 2 43.7093 59.1064 65.6058 0.0000 0.0000 0.0000
# 3 65.6058 65.6058 218.2435 0.0000 0.0000 0.0000
# 4 0.0000 0.0000 0.0000 36.8783 0.0000 0.0000
# 5 0.0000 0.0000 0.0000 0.0000 36.8783 0.0000
# 6 0.0000 0.0000 0.0000 0.0000 0.0000 49.7919
#
#
#
# Elastic Compliance Matrix: (Units=1/GPa)
#
#
# Indices 1 2 3 4 5 6 
#
# 1 0.040364 -0.024584 -0.004744 0.000000 0.000000 0.000000
# 2 -0.024584 0.040364 -0.004744 0.000000 0.000000 0.000000
# 3 -0.004744 -0.004744 0.007434 0.000000 0.000000 0.000000
# 4 0.000000 0.000000 0.000000 0.027116 0.000000 0.000000
# 5 0.000000 0.000000 0.000000 0.000000 0.027116 0.000000
# 6 0.000000 0.000000 0.000000 0.000000 0.000000 0.020084
#
#
# Mechanical properties :
#
#
# Convention : Reuss Voigt Hill
#
# Bulk Modulus (GPa) = 49.95178 76.25536 63.10357
# Shear Modulus (GPa) = 21.07111 35.47873 28.27492
#
# Velocity S-wave (km/s) = 3.03311 3.93576 3.51355
# Velocity P-wave (km/s) = 5.83743 7.34488 6.63411
#
# Compressibility (1/GPa) = 0.02001931
#
# Stress axis : x y z
#
# Youngs Moduli (GPa) = 24.77484 24.77485 134.51850
#
# Poissons Ratio (x) = 0.60906 0.63809
# Poissons Ratio (y) = 0.60906 0.63809
# Poissons Ratio (z) = 0.11752 0.11752
#
# Static dielectric constant tensor:
#      x y z
#    x 4.220990 0.000000 0.000000 
#    y 0.000000 4.220990 0.000000 
#    z 0.000000 0.000000 4.497820 
# 
# 
# High freq. dielectric constant tensor:
#      x y z
#    x 1.907450 0.000000 0.000000 
#    y 0.000000 1.907450 0.000000 
#    z 0.000000 0.000000 1.912800 
# 
# From -- ./inp_files/11303.got.cif
#   From: 2010.03.12/outbox.cif.g09.slc.cpg/sg98_6_cif.got.tgz:11303.got - 2010.04.08 21:04:41.
