data_PCOD8306065
_publ_section_title
;
Structure prediction by ZEFSAII (Michael W. Deem and Ramdas Pophale) SiO2 
 PCOD8306065
Probable space group: I 4 2 2 
;
_chemical_formula_sum "Si O2"
_cell_formula_units_Z 64
_cell_length_a 18.082125
_cell_length_b 18.082125
_cell_length_c 7.482968
_cell_angle_alpha 90.000000
_cell_angle_beta 90.000000
_cell_angle_gamma 90.000000
_cell_volume 2446.655496
_symmetry_space_group_name_H-M "I 4 2 2 "
_symmetry_group_IT_number 97
_symmetry_cell_setting 'tetragonal'
loop_
_space_group_symop_operation_xyz
x,y,z
-y,x,z
-x,-y,z
y,-x,z
x,-y,-z
-x,y,-z
y,x,-z
-y,-x,-z
1/2+x,1/2+y,1/2+z
1/2-y,1/2+x,1/2+z
1/2-x,1/2-y,1/2+z
1/2+y,1/2-x,1/2+z
1/2+x,1/2-y,1/2-z
1/2-x,1/2+y,1/2-z
1/2+y,1/2+x,1/2-z
1/2-y,1/2-x,1/2-z
loop_
_atom_site_type_symbol
_atom_site_label
_atom_site_fract_x
_atom_site_fract_y
_atom_site_fract_z
Si Si1 0.422496 0.414587 0.709037
Si Si2 0.185727 0.584226 0.524612
Si Si3 0.290843 0.918907 0.423807
Si Si4 0.665706 0.719518 0.221808
O O1 0.504777 0.395829 0.785186
O O2 0.424598 0.424598 0.500000
O O3 0.368105 0.347252 0.758190
O O4 0.164046 0.500000 0.500000
O O5 0.107160 0.626109 0.528409
O O6 0.227720 0.589956 0.714667
O O7 0.238639 0.613866 0.367234
O O8 0.237681 0.859508 0.520148
O O9 0.277631 0.000000 0.500000
O O10 0.750948 0.749053 0.250000
#
# Coordination Sequence:
#
# PCOD8306065 Si02
#       4
#    16  16  16  16
#     4   9  20  39  72 109 140 187 238 286 355 428
#     4  10  20  33  56  89 127 179 227 290 355 416
#     4  10  20  33  54  91 129 174 235 284 351 429
#     4  10  21  39  67  96 138 179 226 287 351 423
#
# _framework density 26.158158
#
# number of rings (size 3 to 8) (size 9 to 14) (size 15 to 20)
#    0.000    2.250    2.500    0.750    3.500    0.500 
#    0.000    2.500   22.000    3.000    0.000   14.000 
#    0.000    0.000    0.000    0.000    0.000    0.000 
#
# Total GULP energy -396669.578604 kJ/mol
# GULP energy per Si atom -12395.924331 kJ/mol
# Density = 2.609862 g / cm^3
# Si number density = 26.158158 Si / 1000 Ang^3
#
#
#
# Elastic Constant Matrix: (Units=GPa)
#
#
# Indices 1 2 3 4 5 6 
#
# 1 157.5670 59.7910 3.6302 0.0000 0.0000 0.0000
# 2 59.7910 157.5678 3.6299 0.0000 0.0000 0.0000
# 3 3.6302 3.6299 116.6028 0.0000 0.0000 0.0000
# 4 0.0000 0.0000 0.0000 21.6457 0.0000 0.0000
# 5 0.0000 0.0000 0.0000 0.0000 21.6457 0.0000
# 6 0.0000 0.0000 0.0000 0.0000 0.0000 17.6916
#
#
#
# Elastic Compliance Matrix: (Units=1/GPa)
#
#
# Indices 1 2 3 4 5 6 
#
# 1 0.007416 -0.002811 -0.000143 0.000000 0.000000 0.000000
# 2 -0.002811 0.007416 -0.000143 0.000000 0.000000 0.000000
# 3 -0.000143 -0.000143 0.008585 0.000000 0.000000 0.000000
# 4 0.000000 0.000000 0.000000 0.046198 0.000000 0.000000
# 5 0.000000 0.000000 0.000000 0.000000 0.046199 0.000000
# 6 0.000000 0.000000 0.000000 0.000000 0.000000 0.056524
#
#
# Mechanical properties :
#
#
# Convention : Reuss Voigt Hill
#
# Bulk Modulus (GPa) = 58.06352 62.87107 60.46730
# Shear Modulus (GPa) = 27.13330 36.50903 31.82116
#
# Velocity S-wave (km/s) = 3.22418 3.73996 3.49161
# Velocity P-wave (km/s) = 6.00880 6.53735 6.27864
#
# Compressibility (1/GPa) = 0.01722252
#
# Stress axis : x y z
#
# Youngs Moduli (GPa) = 134.83502 134.83573 116.48155
#
# Poissons Ratio (x) = 0.37902 0.01670
# Poissons Ratio (y) = 0.37902 0.01670
# Poissons Ratio (z) = 0.01933 0.01933
#
# Static dielectric constant tensor:
#      x y z
#    x 4.906950 0.000000 0.000000 
#    y 0.000000 4.906940 0.000000 
#    z 0.000000 0.000000 5.114500 
# 
# 
# High freq. dielectric constant tensor:
#      x y z
#    x 2.051660 0.000000 0.000000 
#    y 0.000000 2.051660 0.000000 
#    z 0.000000 0.000000 2.066110 
# 
# From -- ./inp_files/2112.got.cif
#   From: 2010.03.12/outbox.cif.g09.slc.cpg/sg97_2_cif.got.tgz:2112.got - 2010.04.08 20:59:42.
