data_PCOD8306273
_publ_section_title
;
Structure prediction by ZEFSAII (Michael W. Deem and Ramdas Pophale) SiO2 
 PCOD8306273
Probable space group: I 41 2 2
;
_chemical_formula_sum "Si O2"
_cell_formula_units_Z 88
_cell_length_a 18.003996
_cell_length_b 18.003996
_cell_length_c 14.189253
_cell_angle_alpha 90.000000
_cell_angle_beta 90.000000
_cell_angle_gamma 90.000000
_cell_volume 4599.359408
_symmetry_space_group_name_H-M "I 41 2 2"
_symmetry_group_IT_number 98
_symmetry_cell_setting 'tetragonal'
loop_
_space_group_symop_operation_xyz
x,y,z
-y,1/2+x,1/4+z
-x,-y,z
y,1/2-x,1/4+z
x,1/2-y,1/4-z
-x,1/2+y,1/4-z
y,x,-z
-y,-x,-z
1/2+x,1/2+y,1/2+z
1/2-y,x,3/4+z
1/2-x,1/2-y,1/2+z
1/2+y,-x,3/4+z
1/2+x,-y,3/4-z
1/2-x,y,3/4-z
1/2+y,1/2+x,1/2-z
1/2-y,1/2-x,1/2-z
loop_
_atom_site_type_symbol
_atom_site_label
_atom_site_fract_x
_atom_site_fract_y
_atom_site_fract_z
Si Si1 0.057432 0.750000 0.625000
Si Si2 0.082345 0.374231 0.423461
Si Si3 0.408392 0.894303 0.359082
Si Si4 0.665606 0.665606 0.500000
Si Si5 0.681536 0.834327 0.088595
Si Si6 0.726519 0.981118 0.180973
Si Si7 0.000000 0.000000 0.739059
O O1 0.111775 0.821506 0.640135
O O2 0.002430 0.771505 0.540569
O O3 0.143755 0.381933 0.342263
O O4 0.109151 0.344050 0.525332
O O5 0.051243 0.455712 0.438377
O O6 0.022225 0.311204 0.391552
O O7 0.417139 0.917139 0.250000
O O8 0.454380 0.817849 0.376024
O O9 0.442648 0.957584 0.423512
O O10 0.751737 0.650419 0.516704
O O11 0.686425 0.750000 0.125000
O O12 0.687011 0.899108 0.169273
#
# Coordination Sequence:
#
# PCOD8306273 Si02
#       7
#     8  16  16   8  16  16   8
#     4  10  20  38  60  92 122 158 210 258 318 380
#     4  11  23  38  60  86 123 160 211 258 308 372
#     4  10  21  37  59  89 123 162 199 253 315 377
#     4  10  22  39  54  84 116 167 210 252 306 360
#     4  11  22  38  58  87 129 169 205 249 301 380
#     4  10  21  37  57  88 121 165 198 255 307 371
#     4  12  21  39  58  90 120 162 204 257 311 372
#
# _framework density 19.133099999999999
#
# number of rings (size 3 to 8) (size 9 to 14) (size 15 to 20)
#    0.000    1.455    3.636    3.000    1.273    0.364 
#    9.818    0.000    0.000    0.000   33.091    0.000 
#    0.000    0.000    0.000    0.000    0.000    0.000 
#
# Total GULP energy -545247.664021 kJ/mol
# GULP energy per Si atom -12391.992364 kJ/mol
# Density = 1.908955 g / cm^3
# Si number density = 19.133100 Si / 1000 Ang^3
#
#
#
# Elastic Constant Matrix: (Units=GPa)
#
#
# Indices 1 2 3 4 5 6 
#
# 1 119.7831 62.9911 37.8969 0.0000 0.0000 0.0000
# 2 62.9911 119.7831 37.8969 0.0000 0.0000 0.0000
# 3 37.8969 37.8969 65.7404 0.0000 0.0000 0.0000
# 4 0.0000 0.0000 0.0000 21.1264 0.0000 0.0000
# 5 0.0000 0.0000 0.0000 0.0000 21.1264 0.0000
# 6 0.0000 0.0000 0.0000 0.0000 0.0000 32.3810
#
#
#
# Elastic Compliance Matrix: (Units=1/GPa)
#
#
# Indices 1 2 3 4 5 6 
#
# 1 0.012399 -0.005209 -0.004145 0.000000 0.000000 0.000000
# 2 -0.005209 0.012399 -0.004145 0.000000 0.000000 0.000000
# 3 -0.004145 -0.004145 0.019990 0.000000 0.000000 0.000000
# 4 0.000000 0.000000 0.000000 0.047334 0.000000 0.000000
# 5 0.000000 0.000000 0.000000 0.000000 0.047334 0.000000
# 6 0.000000 0.000000 0.000000 0.000000 0.000000 0.030882
#
#
# Mechanical properties :
#
#
# Convention : Reuss Voigt Hill
#
# Bulk Modulus (GPa) = 56.20857 64.76406 60.48631
# Shear Modulus (GPa) = 24.59828 26.02820 25.31324
#
# Velocity S-wave (km/s) = 3.58947 3.69233 3.64126
# Velocity P-wave (km/s) = 6.82792 7.21806 7.02570
#
# Compressibility (1/GPa) = 0.01779088
#
# Stress axis : x y z
#
# Youngs Moduli (GPa) = 80.65132 80.65132 50.02510
#
# Poissons Ratio (x) = 0.42012 0.20734
# Poissons Ratio (y) = 0.42012 0.20734
# Poissons Ratio (z) = 0.33428 0.33428
#
# Static dielectric constant tensor:
#      x y z
#    x 3.693590 0.000000 0.000000 
#    y 0.000000 3.693590 0.000000 
#    z 0.000000 0.000000 3.505500 
# 
# 
# High freq. dielectric constant tensor:
#      x y z
#    x 1.736620 0.000000 0.000000 
#    y 0.000000 1.736620 0.000000 
#    z 0.000000 0.000000 1.732780 
# 
# From -- ./inp_files/6561.got.cif
#   From: 2010.03.12/outbox.cif.g09.slc.cpg/sg98_4_cif.got.tgz:6561.got - 2010.04.08 21:04:41.
