data_PCOD8306216
_publ_section_title
;
Structure prediction by ZEFSAII (Michael W. Deem and Ramdas Pophale) SiO2 
 PCOD8306216
Probable space group: I 41 2 2
;
_chemical_formula_sum "Si O2"
_cell_formula_units_Z 56
_cell_length_a 19.571676
_cell_length_b 19.571676
_cell_length_c 7.674624
_cell_angle_alpha 90.000000
_cell_angle_beta 90.000000
_cell_angle_gamma 90.000000
_cell_volume 2939.768572
_symmetry_space_group_name_H-M "I 41 2 2"
_symmetry_group_IT_number 98
_symmetry_cell_setting 'tetragonal'
loop_
_space_group_symop_operation_xyz
x,y,z
-y,1/2+x,1/4+z
-x,-y,z
y,1/2-x,1/4+z
x,1/2-y,1/4-z
-x,1/2+y,1/4-z
y,x,-z
-y,-x,-z
1/2+x,1/2+y,1/2+z
1/2-y,x,3/4+z
1/2-x,1/2-y,1/2+z
1/2+y,-x,3/4+z
1/2+x,-y,3/4-z
1/2-x,y,3/4-z
1/2+y,1/2+x,1/2-z
1/2-y,1/2-x,1/2-z
loop_
_atom_site_type_symbol
_atom_site_label
_atom_site_fract_x
_atom_site_fract_y
_atom_site_fract_z
Si Si1 0.034975 0.241704 0.432533
Si Si2 0.896173 0.603828 0.750000
Si Si3 0.391826 0.033271 0.597981
Si Si4 0.111564 0.888437 0.000000
Si Si5 0.564798 0.250000 0.625000
O O1 0.000819 0.250000 0.625000
O O2 0.979562 0.223266 0.288155
O O3 0.093170 0.183043 0.443360
O O4 0.065674 0.315776 0.378426
O O5 0.944954 0.580603 0.591132
O O6 0.439582 0.060419 0.750000
O O7 0.391337 0.950934 0.611830
O O8 0.184704 0.888639 0.908271
#
# Coordination Sequence:
#
# PCOD8306216 Si02
#       5
#    16   8  16   8   8
#     4   9  19  34  55  81 113 155 185 227 284 330
#     4  10  18  34  59  78 114 152 190 230 276 339
#     4  10  20  35  56  86 115 149 193 234 284 337
#     4  10  21  38  62  82 110 150 192 233 302 356
#     4  10  20  40  60  78 114 146 184 242 294 344
#
# _framework density 19.049116999999999
#
# number of rings (size 3 to 8) (size 9 to 14) (size 15 to 20)
#    0.000    2.286    0.000    3.857    0.000    0.000 
#    0.000   31.429   53.429    0.000    0.000    0.000 
#    0.000    0.000    0.000    0.000    0.000    0.000 
#
# Total GULP energy -346943.991950 kJ/mol
# GULP energy per Si atom -12390.856855 kJ/mol
# Density = 1.900576 g / cm^3
# Si number density = 19.049117 Si / 1000 Ang^3
#
#
#
# Elastic Constant Matrix: (Units=GPa)
#
#
# Indices 1 2 3 4 5 6 
#
# 1 126.4224 72.2787 59.5962 0.0000 0.0000 0.0000
# 2 72.2787 126.4232 59.5997 0.0000 0.0000 0.0000
# 3 59.5962 59.5997 120.6112 0.0000 0.0000 0.0000
# 4 0.0000 0.0000 0.0000 25.2632 0.0000 0.0000
# 5 0.0000 0.0000 0.0000 0.0000 25.2631 0.0000
# 6 0.0000 0.0000 0.0000 0.0000 0.0000 34.6940
#
#
#
# Elastic Compliance Matrix: (Units=1/GPa)
#
#
# Indices 1 2 3 4 5 6 
#
# 1 0.012811 -0.005658 -0.003534 0.000000 0.000000 0.000000
# 2 -0.005658 0.012811 -0.003535 0.000000 0.000000 0.000000
# 3 -0.003534 -0.003535 0.011784 0.000000 0.000000 0.000000
# 4 0.000000 0.000000 0.000000 0.039583 0.000000 0.000000
# 5 0.000000 0.000000 0.000000 0.000000 0.039583 0.000000
# 6 0.000000 0.000000 0.000000 0.000000 0.000000 0.028823
#
#
# Mechanical properties :
#
#
# Convention : Reuss Voigt Hill
#
# Bulk Modulus (GPa) = 83.66804 84.04511 83.85658
# Shear Modulus (GPa) = 28.59844 29.17621 28.88733
#
# Velocity S-wave (km/s) = 3.87887 3.91785 3.89841
# Velocity P-wave (km/s) = 8.00490 8.04252 8.02373
#
# Compressibility (1/GPa) = 0.01195200
#
# Stress axis : x y z
#
# Youngs Moduli (GPa) = 78.05848 78.05632 84.85990
#
# Poissons Ratio (x) = 0.44165 0.29991
# Poissons Ratio (y) = 0.44167 0.29997
# Poissons Ratio (z) = 0.27587 0.27592
#
# Static dielectric constant tensor:
#      x y z
#    x 3.490760 0.000000 0.000000 
#    y 0.000000 3.490740 0.000000 
#    z 0.000000 0.000000 3.798470 
# 
# 
# High freq. dielectric constant tensor:
#      x y z
#    x 1.729080 0.000000 0.000000 
#    y 0.000000 1.729070 0.000000 
#    z 0.000000 0.000000 1.753260 
# 
# From -- ./inp_files/3081.got.cif
#   From: 2010.03.12/outbox.cif.g09.slc.cpg/sg98_2_cif.got.tgz:3081.got - 2010.04.08 21:04:41.
