data_PCOD8306107
_publ_section_title
;
Structure prediction by ZEFSAII (Michael W. Deem and Ramdas Pophale) SiO2 
 PCOD8306107
Probable space group: I 4 2 2 
;
_chemical_formula_sum "Si O2"
_cell_formula_units_Z 116
_cell_length_a 17.492010
_cell_length_b 17.492010
_cell_length_c 18.563150
_cell_angle_alpha 90.000000
_cell_angle_beta 90.000000
_cell_angle_gamma 90.000000
_cell_volume 5679.774688
_symmetry_space_group_name_H-M "I 4 2 2 "
_symmetry_group_IT_number 97
_symmetry_cell_setting 'tetragonal'
loop_
_space_group_symop_operation_xyz
x,y,z
-y,x,z
-x,-y,z
y,-x,z
x,-y,-z
-x,y,-z
y,x,-z
-y,-x,-z
1/2+x,1/2+y,1/2+z
1/2-y,1/2+x,1/2+z
1/2-x,1/2-y,1/2+z
1/2+y,1/2-x,1/2+z
1/2+x,1/2-y,1/2-z
1/2-x,1/2+y,1/2-z
1/2+y,1/2+x,1/2-z
1/2-y,1/2-x,1/2-z
loop_
_atom_site_type_symbol
_atom_site_label
_atom_site_fract_x
_atom_site_fract_y
_atom_site_fract_z
Si Si1 0.618637 0.688043 0.162293
Si Si2 0.161474 0.655547 0.083260
Si Si3 0.885503 0.492830 0.874294
Si Si4 0.198544 0.111432 0.171896
Si Si5 0.939214 0.781648 0.165534
Si Si6 0.500000 0.000000 0.750000
Si Si7 0.847198 0.572293 0.450914
Si Si8 0.951226 0.220499 0.669723
O O1 0.641979 0.751320 0.104152
O O2 0.633824 0.714091 0.244680
O O3 0.528262 0.671107 0.159026
O O4 0.667115 0.614969 0.137956
O O5 0.111866 0.578823 0.095961
O O6 0.130316 0.724588 0.130289
O O7 0.148729 0.671778 0.998132
O O8 0.922794 0.498063 0.796031
O O9 0.932354 0.435466 0.925586
O O10 0.799908 0.459029 0.872234
O O11 0.125312 0.157375 0.142379
O O12 0.180055 0.022531 0.157023
O O13 0.927467 0.705722 0.119208
O O14 0.930750 0.758032 0.248490
O O15 0.826949 0.500000 0.500000
#
# Coordination Sequence:
#
# PCOD8306107 Si02
#       8
#    16  16  16  16  16   4  16  16
#     4   9  20  37  64  91 122 157 198 254 317 363
#     4  11  23  39  59  85 122 166 198 251 310 370
#     4  11  25  38  60  88 124 162 210 254 312 368
#     4  10  21  40  63  90 121 156 210 255 311 364
#     4  10  22  40  63  92 122 163 203 260 305 371
#     4  12  24  36  62  88 120 168 206 260 308 372
#     4  12  24  43  59  86 126 164 213 250 303 379
#     4   9  20  40  62  92 123 152 206 260 308 373
#
# _framework density 20.423344
#
# number of rings (size 3 to 8) (size 9 to 14) (size 15 to 20)
#    0.000    1.655    1.379    2.483    7.724    1.655 
#    0.000    2.759    0.000    0.000    0.000    0.000 
#    0.000    4.414    0.000    0.000    0.000    0.000 
#
# Total GULP energy -719105.381723 kJ/mol
# GULP energy per Si atom -12398.368650 kJ/mol
# Density = 2.037686 g / cm^3
# Si number density = 20.423344 Si / 1000 Ang^3
#
#
#
# Elastic Constant Matrix: (Units=GPa)
#
#
# Indices 1 2 3 4 5 6 
#
# 1 100.3363 56.9548 23.6431 0.0000 0.0000 0.0000
# 2 56.9548 100.3363 23.6431 0.0000 0.0000 0.0000
# 3 23.6431 23.6431 51.2108 0.0000 0.0000 0.0000
# 4 0.0000 0.0000 0.0000 22.3482 0.0000 0.0000
# 5 0.0000 0.0000 0.0000 0.0000 22.3482 0.0000
# 6 0.0000 0.0000 0.0000 0.0000 0.0000 33.9501
#
#
#
# Elastic Compliance Matrix: (Units=1/GPa)
#
#
# Indices 1 2 3 4 5 6 
#
# 1 0.015217 -0.007835 -0.003408 0.000000 0.000000 0.000000
# 2 -0.007835 0.015217 -0.003408 0.000000 0.000000 0.000000
# 3 -0.003408 -0.003408 0.022674 0.000000 0.000000 0.000000
# 4 0.000000 0.000000 0.000000 0.044746 0.000000 0.000000
# 5 0.000000 0.000000 0.000000 0.000000 0.044746 0.000000
# 6 0.000000 0.000000 0.000000 0.000000 0.000000 0.029455
#
#
# Mechanical properties :
#
#
# Convention : Reuss Voigt Hill
#
# Bulk Modulus (GPa) = 42.00677 51.15170 46.57923
# Shear Modulus (GPa) = 23.88999 25.57213 24.73106
#
# Velocity S-wave (km/s) = 3.42386 3.54235 3.48360
# Velocity P-wave (km/s) = 6.02022 6.46769 6.24796
#
# Compressibility (1/GPa) = 0.02380569
#
# Stress axis : x y z
#
# Youngs Moduli (GPa) = 65.71686 65.71686 44.10306
#
# Poissons Ratio (x) = 0.51486 0.15031
# Poissons Ratio (y) = 0.51486 0.15031
# Poissons Ratio (z) = 0.22398 0.22398
#
# Static dielectric constant tensor:
#      x y z
#    x 3.781910 0.000000 0.000000 
#    y 0.000000 3.781910 0.000000 
#    z 0.000000 0.000000 3.655960 
# 
# 
# High freq. dielectric constant tensor:
#      x y z
#    x 1.801450 0.000000 0.000000 
#    y 0.000000 1.801450 0.000000 
#    z 0.000000 0.000000 1.788120 
# 
# From -- ./inp_files/5912.got.cif
#   From: 2010.03.12/outbox.cif.g09.slc.cpg/sg97_3_cif.got.tgz:5912.got - 2010.04.08 20:59:42.
