data_PCOD8306322
_publ_section_title
;
Structure prediction by ZEFSAII (Michael W. Deem and Ramdas Pophale) SiO2 
 PCOD8306322
Probable space group: I 41 2 2
;
_chemical_formula_sum "Si O2"
_cell_formula_units_Z 72
_cell_length_a 17.664440
_cell_length_b 17.664440
_cell_length_c 10.399128
_cell_angle_alpha 90.000000
_cell_angle_beta 90.000000
_cell_angle_gamma 90.000000
_cell_volume 3244.865289
_symmetry_space_group_name_H-M "I 41 2 2"
_symmetry_group_IT_number 98
_symmetry_cell_setting 'tetragonal'
loop_
_space_group_symop_operation_xyz
x,y,z
-y,1/2+x,1/4+z
-x,-y,z
y,1/2-x,1/4+z
x,1/2-y,1/4-z
-x,1/2+y,1/4-z
y,x,-z
-y,-x,-z
1/2+x,1/2+y,1/2+z
1/2-y,x,3/4+z
1/2-x,1/2-y,1/2+z
1/2+y,-x,3/4+z
1/2+x,-y,3/4-z
1/2-x,y,3/4-z
1/2+y,1/2+x,1/2-z
1/2-y,1/2-x,1/2-z
loop_
_atom_site_type_symbol
_atom_site_label
_atom_site_fract_x
_atom_site_fract_y
_atom_site_fract_z
Si Si1 0.829081 0.410738 0.361352
Si Si2 0.056492 0.181064 0.533489
Si Si3 0.294481 0.294481 0.500000
Si Si4 0.536060 0.795417 0.825247
Si Si5 0.586201 0.025968 0.483144
O O1 0.750000 0.363860 0.375000
O O2 0.876561 0.376561 0.250000
O O3 0.800490 0.491572 0.308228
O O4 0.883310 0.412600 0.486827
O O5 0.084919 0.250000 0.625000
O O6 0.128832 0.128832 0.500000
O O7 0.015760 0.220151 0.409838
O O8 0.991289 0.129434 0.599687
O O9 0.266951 0.250000 0.625000
O O10 0.379989 0.280787 0.466072
O O11 0.523303 0.872541 0.906330
O O12 0.500000 0.000000 0.473688
#
# Coordination Sequence:
#
# PCOD8306322 Si02
#       5
#    16  16   8  16  16
#     4  10  22  43  67  91 125 169 227 295 359 432
#     4  10  24  41  64 100 147 188 237 301 369 447
#     4  12  28  38  63  96 136 196 243 288 352 436
#     4  10  23  41  64  94 136 183 236 297 353 434
#     4  10  22  41  69  98 131 181 239 298 363 435
#
# _framework density 22.188901000000001
#
# number of rings (size 3 to 8) (size 9 to 14) (size 15 to 20)
#    0.000    1.778    0.000    2.000   10.889    3.556 
#    0.000    5.556    0.000    0.000    0.000    0.000 
#    0.000    0.000    0.000    0.000    0.000    0.000 
#
# Total GULP energy -445982.766912 kJ/mol
# GULP energy per Si atom -12388.410192 kJ/mol
# Density = 2.213840 g / cm^3
# Si number density = 22.188901 Si / 1000 Ang^3
#
#
#
# Elastic Constant Matrix: (Units=GPa)
#
#
# Indices 1 2 3 4 5 6 
#
# 1 143.6553 46.9495 61.5473 0.0000 0.0000 0.0000
# 2 46.9495 143.6553 61.5473 0.0000 0.0000 0.0000
# 3 61.5473 61.5473 102.5685 0.0000 0.0000 0.0000
# 4 0.0000 0.0000 0.0000 31.8915 0.0000 0.0000
# 5 0.0000 0.0000 0.0000 0.0000 31.8915 0.0000
# 6 0.0000 0.0000 0.0000 0.0000 0.0000 40.1469
#
#
#
# Elastic Compliance Matrix: (Units=1/GPa)
#
#
# Indices 1 2 3 4 5 6 
#
# 1 0.009453 -0.000887 -0.005140 0.000000 0.000000 0.000000
# 2 -0.000887 0.009453 -0.005140 0.000000 0.000000 0.000000
# 3 -0.005140 -0.005140 0.015918 0.000000 0.000000 0.000000
# 4 0.000000 0.000000 0.000000 0.031356 0.000000 0.000000
# 5 0.000000 0.000000 0.000000 0.000000 0.031356 0.000000
# 6 0.000000 0.000000 0.000000 0.000000 0.000000 0.024909
#
#
# Mechanical properties :
#
#
# Convention : Reuss Voigt Hill
#
# Bulk Modulus (GPa) = 80.06483 81.10745 80.58614
# Shear Modulus (GPa) = 33.56952 35.44162 34.50557
#
# Velocity S-wave (km/s) = 3.89382 4.00092 3.94773
# Velocity P-wave (km/s) = 7.50849 7.61417 7.56152
#
# Compressibility (1/GPa) = 0.01248988
#
# Stress axis : x y z
#
# Youngs Moduli (GPa) = 105.78292 105.78292 62.82062
#
# Poissons Ratio (x) = 0.09386 0.32291
# Poissons Ratio (y) = 0.09386 0.32291
# Poissons Ratio (z) = 0.54374 0.54374
#
# Static dielectric constant tensor:
#      x y z
#    x 4.568470 0.000000 0.000000 
#    y 0.000000 4.568470 0.000000 
#    z 0.000000 0.000000 2.743550 
# 
# 
# High freq. dielectric constant tensor:
#      x y z
#    x 1.872280 0.000000 0.000000 
#    y 0.000000 1.872280 0.000000 
#    z 0.000000 0.000000 1.882980 
# 
# From -- ./inp_files/4977.got.cif
#   From: 2010.03.12/outbox.cif.g09.slc.cpg/sg98_3_cif.got.tgz:4977.got - 2010.04.08 21:04:41.
