data_PCOD8306709
_publ_section_title
;
Structure prediction by ZEFSAII (Michael W. Deem and Ramdas Pophale) SiO2 
 PCOD8306709
Probable space group: P 42 C M
;
_chemical_formula_sum "Si O2"
_cell_formula_units_Z 56
_cell_length_a 16.572582
_cell_length_b 16.572582
_cell_length_c 13.404005
_cell_angle_alpha 90.000000
_cell_angle_beta 90.000000
_cell_angle_gamma 90.000000
_cell_volume 3681.416329
_symmetry_space_group_name_H-M "P 42 C M"
_symmetry_group_IT_number 101
_symmetry_cell_setting 'tetragonal'
loop_
_space_group_symop_operation_xyz
x,y,z
-y,x,1/2+z
-x,-y,z
y,-x,1/2+z
-x,y,1/2+z
x,-y,1/2+z
-y,-x,z
y,x,z
loop_
_atom_site_type_symbol
_atom_site_label
_atom_site_fract_x
_atom_site_fract_y
_atom_site_fract_z
Si Si1 0.417769 0.091869 0.526560
Si Si2 0.269202 0.604310 0.019128
Si Si3 0.336230 0.468333 0.148163
Si Si4 0.074434 0.602085 0.593924
Si Si5 0.917817 0.451754 0.803762
Si Si6 0.234516 0.360754 0.010277
Si Si7 0.751597 0.490094 0.343168
O O1 0.387969 0.179202 0.567031
O O2 0.511304 0.085067 0.554134
O O3 0.404679 0.082546 0.407904
O O4 0.368101 0.017456 0.574503
O O5 0.306653 0.693348 0.015209
O O6 0.257766 0.570806 0.908176
O O7 0.331855 0.546575 0.077689
O O8 0.424645 0.424645 0.146943
O O9 0.316075 0.502211 0.258128
O O10 0.269304 0.405463 0.108594
O O11 0.090846 0.610609 0.711885
O O12 0.139216 0.652854 0.529272
O O13 0.841793 0.512947 0.797544
O O14 0.000000 0.500000 0.787073
O O15 0.272864 0.272864 0.997541
O O16 0.258502 0.411020 0.911453
#
# Coordination Sequence:
#
# PCOD8306709 Si02
#       7
#     8   8   8   8   8   8   8
#     4  10  18  29  44  68  88 109 144 182 226 275
#     4  10  20  33  45  63  88 117 153 195 231 264
#     4  10  19  31  46  62  83 118 160 196 227 262
#     4  11  17  29  46  67  89 111 143 182 227 275
#     4  11  16  24  45  68  87 112 141 178 224 276
#     4  10  19  31  45  66  91 117 150 192 231 270
#     4  10  18  31  45  63  86 117 154 190 228 265
#
# _framework density 15.211537999999999
#
# number of rings (size 3 to 8) (size 9 to 14) (size 15 to 20)
#    0.000    1.714    8.571    0.429    0.000    0.857 
#    0.000    0.000    0.000    2.571    0.000    0.000 
#    0.000    0.571    0.000    0.000    0.000    7.571 
#
# Total GULP energy -693902.217077 kJ/mol
# GULP energy per Si atom -12391.111019 kJ/mol
# Density = 1.517692 g / cm^3
# Si number density = 15.211538 Si / 1000 Ang^3
#
#
#
# Elastic Constant Matrix: (Units=GPa)
#
#
# Indices 1 2 3 4 5 6 
#
# 1 75.7619 46.9933 18.9028 0.0000 0.0000 0.0001
# 2 46.9933 75.7619 18.9028 0.0000 0.0000 -0.0001
# 3 18.9028 18.9028 85.1842 0.0000 0.0000 0.0000
# 4 0.0000 0.0000 0.0000 13.2784 0.0000 0.0000
# 5 0.0000 0.0000 0.0000 0.0000 13.2784 0.0000
# 6 0.0001 -0.0001 0.0000 0.0000 0.0000 13.1928
#
#
#
# Elastic Compliance Matrix: (Units=1/GPa)
#
#
# Indices 1 2 3 4 5 6 
#
# 1 0.021752 -0.013008 -0.001940 0.000000 0.000000 0.000000
# 2 -0.013008 0.021752 -0.001940 0.000000 0.000000 0.000000
# 3 -0.001940 -0.001940 0.012600 0.000000 0.000000 0.000000
# 4 0.000000 0.000000 0.000000 0.075310 0.000000 0.000000
# 5 0.000000 0.000000 0.000000 0.000000 0.075310 0.000000
# 6 0.000000 0.000000 0.000000 0.000000 0.000000 0.075799
#
#
# Mechanical properties :
#
#
# Convention : Reuss Voigt Hill
#
# Bulk Modulus (GPa) = 44.78902 45.14507 44.96705
# Shear Modulus (GPa) = 15.44432 18.07719 16.76076
#
# Velocity S-wave (km/s) = 3.18984 3.45104 3.32301
# Velocity P-wave (km/s) = 6.56314 6.75442 6.65947
#
# Compressibility (1/GPa) = 0.02232690
#
# Stress axis : x y z
#
# Youngs Moduli (GPa) = 45.97283 45.97283 79.36258
#
# Poissons Ratio (x) = 0.59802 0.15399
# Poissons Ratio (y) = 0.59802 0.15399
# Poissons Ratio (z) = 0.08920 0.08920
#
# Static dielectric constant tensor:
#      x y z
#    x 2.876680 0.000000 0.000000 
#    y 0.000000 2.876680 0.000000 
#    z 0.000000 0.000000 3.101770 
# 
# 
# High freq. dielectric constant tensor:
#      x y z
#    x 1.549090 0.000000 0.000000 
#    y 0.000000 1.549090 0.000000 
#    z 0.000000 0.000000 1.598100 
# 
# From -- ./inp_files/1389.got.cif
#   From: 2010.03.12/outbox.cif.g09.slc.cpg/sg101_1_cif.got.tgz:1389.got - 2010.04.14 01:38:52.
