data_PCOD8306182
_publ_section_title
;
Structure prediction by ZEFSAII (Michael W. Deem and Ramdas Pophale) SiO2 
 PCOD8306182
Probable space group: I 4 2 2 
;
_chemical_formula_sum "Si O2"
_cell_formula_units_Z 64
_cell_length_a 12.085641
_cell_length_b 12.085641
_cell_length_c 18.034486
_cell_angle_alpha 90.000000
_cell_angle_beta 90.000000
_cell_angle_gamma 90.000000
_cell_volume 2634.166050
_symmetry_space_group_name_H-M "I 4 2 2 "
_symmetry_group_IT_number 97
_symmetry_cell_setting 'tetragonal'
loop_
_space_group_symop_operation_xyz
x,y,z
-y,x,z
-x,-y,z
y,-x,z
x,-y,-z
-x,y,-z
y,x,-z
-y,-x,-z
1/2+x,1/2+y,1/2+z
1/2-y,1/2+x,1/2+z
1/2-x,1/2-y,1/2+z
1/2+y,1/2-x,1/2+z
1/2+x,1/2-y,1/2-z
1/2-x,1/2+y,1/2-z
1/2+y,1/2+x,1/2-z
1/2-y,1/2-x,1/2-z
loop_
_atom_site_type_symbol
_atom_site_label
_atom_site_fract_x
_atom_site_fract_y
_atom_site_fract_z
Si Si1 0.503869 0.177062 0.414258
Si Si2 0.206975 0.562981 0.137475
Si Si3 0.019107 0.179145 0.779310
Si Si4 0.347181 0.258403 0.922110
O O1 0.500000 0.211660 0.500000
O O2 0.418009 0.076888 0.394783
O O3 0.469581 0.280870 0.363959
O O4 0.630027 0.147573 0.397613
O O5 0.214504 0.525033 0.223620
O O6 0.272232 0.679157 0.137280
O O7 0.281122 0.479130 0.085388
O O8 0.119530 0.096514 0.764423
O O9 0.291016 0.291016 0.000000
#
# Coordination Sequence:
#
# PCOD8306182 Si02
#       4
#    16  16  16  16
#     4  12  27  46  74 111 159 207 262 327 392 479
#     4  12  25  49  77 111 156 204 262 325 399 475
#     4  11  25  47  76 112 156 210 265 329 396 473
#     4  12  26  46  78 112 153 204 255 334 396 471
#
# _framework density 24.296115
#
# number of rings (size 3 to 8) (size 9 to 14) (size 15 to 20)
#    0.000    0.250    5.000    3.750    0.000    2.500 
#    0.000    5.000    0.000    0.000    0.000    0.000 
#    0.000    0.000    0.000    0.000    0.000    0.000 
#
# Total GULP energy -396512.020302 kJ/mol
# GULP energy per Si atom -12391.000634 kJ/mol
# Density = 2.424082 g / cm^3
# Si number density = 24.296115 Si / 1000 Ang^3
#
#
#
# Elastic Constant Matrix: (Units=GPa)
#
#
# Indices 1 2 3 4 5 6 
#
# 1 126.6660 51.5986 54.4322 0.0000 0.0000 0.0000
# 2 51.5986 126.6660 54.4322 0.0000 0.0000 0.0000
# 3 54.4322 54.4322 180.7561 0.0000 0.0000 0.0000
# 4 0.0000 0.0000 0.0000 41.1885 0.0000 0.0000
# 5 0.0000 0.0000 0.0000 0.0000 41.1885 0.0000
# 6 0.0000 0.0000 0.0000 0.0000 0.0000 21.5862
#
#
#
# Elastic Compliance Matrix: (Units=1/GPa)
#
#
# Indices 1 2 3 4 5 6 
#
# 1 0.010098 -0.003224 -0.002070 0.000000 0.000000 0.000000
# 2 -0.003224 0.010098 -0.002070 0.000000 0.000000 0.000000
# 3 -0.002070 -0.002070 0.006779 0.000000 0.000000 0.000000
# 4 0.000000 0.000000 0.000000 0.024279 0.000000 0.000000
# 5 0.000000 0.000000 0.000000 0.000000 0.024279 0.000000
# 6 0.000000 0.000000 0.000000 0.000000 0.000000 0.046326
#
#
# Mechanical properties :
#
#
# Convention : Reuss Voigt Hill
#
# Bulk Modulus (GPa) = 81.65452 83.89042 82.77247
# Shear Modulus (GPa) = 35.54497 39.03431 37.28964
#
# Velocity S-wave (km/s) = 3.82905 4.01260 3.92190
# Velocity P-wave (km/s) = 7.29588 7.48807 7.39260
#
# Compressibility (1/GPa) = 0.01224672
#
# Stress axis : x y z
#
# Youngs Moduli (GPa) = 99.03400 99.03401 147.51492
#
# Poissons Ratio (x) = 0.31927 0.30534
# Poissons Ratio (y) = 0.31927 0.30534
# Poissons Ratio (z) = 0.20499 0.20499
#
# Static dielectric constant tensor:
#      x y z
#    x 4.651930 0.000000 0.000000 
#    y 0.000000 4.651930 0.000000 
#    z 0.000000 0.000000 4.242830 
# 
# 
# High freq. dielectric constant tensor:
#      x y z
#    x 1.968760 0.000000 0.000000 
#    y 0.000000 1.968760 0.000000 
#    z 0.000000 0.000000 1.966490 
# 
# From -- ./inp_files/6313.got.cif
#   From: 2010.03.12/outbox.cif.g09.slc.cpg/sg97_4_cif.got.tgz:6313.got - 2010.04.08 20:59:42.
