data_PCOD8306811
_publ_section_title
;
Structure prediction by ZEFSAII (Michael W. Deem and Ramdas Pophale) SiO2 
 PCOD8306811
Probable space group: P 42 C M
;
_chemical_formula_sum "Si O2"
_cell_formula_units_Z 48
_cell_length_a 12.978542
_cell_length_b 12.978542
_cell_length_c 17.250436
_cell_angle_alpha 90.000000
_cell_angle_beta 90.000000
_cell_angle_gamma 90.000000
_cell_volume 2905.707471
_symmetry_space_group_name_H-M "P 42 C M"
_symmetry_group_IT_number 101
_symmetry_cell_setting 'tetragonal'
loop_
_space_group_symop_operation_xyz
x,y,z
-y,x,1/2+z
-x,-y,z
y,-x,1/2+z
-x,y,1/2+z
x,-y,1/2+z
-y,-x,z
y,x,z
loop_
_atom_site_type_symbol
_atom_site_label
_atom_site_fract_x
_atom_site_fract_y
_atom_site_fract_z
Si Si1 0.215249 0.382466 0.320970
Si Si2 0.070408 0.763303 0.268866
Si Si3 0.288211 0.119886 0.177346
Si Si4 0.784752 0.382466 0.358559
Si Si5 0.929593 0.763303 0.410662
Si Si6 0.880114 0.711789 0.002183
O O1 0.323674 0.323674 0.325118
O O2 0.166901 0.373733 0.234817
O O3 0.237004 0.500000 0.339764
O O4 0.135760 0.335568 0.383143
O O5 0.144740 0.855261 0.242376
O O6 0.135760 0.664433 0.296386
O O7 0.999952 0.732036 0.196110
O O8 0.000000 0.802486 0.339764
O O9 0.181262 0.181262 0.189099
O O10 0.329708 0.129585 0.089764
O O11 0.676327 0.323674 0.354412
O O12 0.833101 0.373734 0.444712
O O13 0.855259 0.855259 0.437151
O O14 0.000048 0.732036 0.483419
O O15 0.818737 0.818737 0.990429
#
# Coordination Sequence:
#
# PCOD8306811 Si02
#       6
#     8   8   8   8   8   8
#     4   9  18  33  51  69  90 117 153 196 235 274
#     4   9  17  28  43  66  95 125 157 190 222 262
#     4   9  18  31  47  69  96 125 154 185 224 268
#     4   9  18  33  51  69  90 117 153 196 235 274
#     4   9  17  28  43  66  95 125 157 190 222 262
#     4   9  18  31  47  69  96 125 154 185 224 268
#
# _framework density 16.519213000000001
#
# number of rings (size 3 to 8) (size 9 to 14) (size 15 to 20)
#    0.000    3.000    0.000    3.000    0.000    9.333 
#    0.000    5.000    0.000    3.000    0.000    4.667 
#    0.000    0.000    0.000    0.000    0.000    0.000 
#
# Total GULP energy -595159.052451 kJ/mol
# GULP energy per Si atom -12399.146926 kJ/mol
# Density = 1.648161 g / cm^3
# Si number density = 16.519213 Si / 1000 Ang^3
#
#
#
# Elastic Constant Matrix: (Units=GPa)
#
#
# Indices 1 2 3 4 5 6 
#
# 1 116.5352 49.7350 50.0200 0.0000 0.0000 -0.0007
# 2 49.7350 116.5352 50.0200 0.0000 0.0000 0.0007
# 3 50.0200 50.0200 97.8361 0.0000 0.0000 0.0000
# 4 0.0000 0.0000 0.0000 17.1289 0.0000 0.0000
# 5 0.0000 0.0000 0.0000 0.0000 17.1289 0.0000
# 6 -0.0007 0.0007 0.0000 0.0000 0.0000 9.3083
#
#
#
# Elastic Compliance Matrix: (Units=1/GPa)
#
#
# Indices 1 2 3 4 5 6 
#
# 1 0.011828 -0.003142 -0.004441 0.000000 0.000000 0.000001
# 2 -0.003142 0.011828 -0.004441 0.000000 0.000000 -0.000001
# 3 -0.004441 -0.004441 0.014762 0.000000 0.000000 0.000000
# 4 0.000000 0.000000 0.000000 0.058381 0.000000 0.000000
# 5 0.000000 0.000000 0.000000 0.000000 0.058381 0.000000
# 6 0.000001 -0.000001 0.000000 0.000000 0.000000 0.107431
#
#
# Mechanical properties :
#
#
# Convention : Reuss Voigt Hill
#
# Bulk Modulus (GPa) = 69.58521 70.05074 69.81797
# Shear Modulus (GPa) = 17.15564 20.78865 18.97214
#
# Velocity S-wave (km/s) = 3.22611 3.55132 3.39261
# Velocity P-wave (km/s) = 7.48948 7.70152 7.59624
#
# Compressibility (1/GPa) = 0.01437087
#
# Stress axis : x y z
#
# Youngs Moduli (GPa) = 84.54391 84.54391 67.74046
#
# Poissons Ratio (x) = 0.26562 0.30084
# Poissons Ratio (y) = 0.26562 0.30084
# Poissons Ratio (z) = 0.37546 0.37546
#
# Static dielectric constant tensor:
#      x y z
#    x 2.963430 0.000000 0.000000 
#    y 0.000000 2.963430 0.000000 
#    z 0.000000 0.000000 3.119170 
# 
# 
# High freq. dielectric constant tensor:
#      x y z
#    x 1.625070 0.000000 0.000000 
#    y 0.000000 1.625070 0.000000 
#    z 0.000000 0.000000 1.624570 
# 
# From -- ./inp_files/2127.got.cif
#   From: 2010.03.12/outbox.cif.g09.slc.cpg/sg101_2_cif.got.tgz:2127.got - 2010.04.14 01:38:52.
