data_PCOD8306302
_publ_section_title
;
Structure prediction by ZEFSAII (Michael W. Deem and Ramdas Pophale) SiO2 
 PCOD8306302
Probable space group: I 41 2 2
;
_chemical_formula_sum "Si O2"
_cell_formula_units_Z 56
_cell_length_a 16.879822
_cell_length_b 16.879822
_cell_length_c 8.001550
_cell_angle_alpha 90.000000
_cell_angle_beta 90.000000
_cell_angle_gamma 90.000000
_cell_volume 2279.868765
_symmetry_space_group_name_H-M "I 41 2 2"
_symmetry_group_IT_number 98
_symmetry_cell_setting 'tetragonal'
loop_
_space_group_symop_operation_xyz
x,y,z
-y,1/2+x,1/4+z
-x,-y,z
y,1/2-x,1/4+z
x,1/2-y,1/4-z
-x,1/2+y,1/4-z
y,x,-z
-y,-x,-z
1/2+x,1/2+y,1/2+z
1/2-y,x,3/4+z
1/2-x,1/2-y,1/2+z
1/2+y,-x,3/4+z
1/2+x,-y,3/4-z
1/2-x,y,3/4-z
1/2+y,1/2+x,1/2-z
1/2-y,1/2-x,1/2-z
loop_
_atom_site_type_symbol
_atom_site_label
_atom_site_fract_x
_atom_site_fract_y
_atom_site_fract_z
Si Si1 0.600851 0.397679 0.810155
Si Si2 0.250000 0.651209 0.375000
Si Si3 0.809537 0.538195 0.113650
Si Si4 0.058405 0.144176 0.244627
O O1 0.595728 0.312295 0.719290
O O2 0.664838 0.454209 0.719700
O O3 0.507562 0.422451 0.797117
O O4 0.621933 0.378068 0.000000
O O5 0.291789 0.708212 0.500000
O O6 0.833558 0.539660 0.305032
O O7 0.854260 0.605006 0.002724
O O8 0.715061 0.554981 0.116201
#
# Coordination Sequence:
#
# PCOD8306302 Si02
#       4
#    16   8  16  16
#     4  12  25  41  65  98 137 181 233 294 366 450
#     4  12  24  40  62  92 130 170 216 278 354 434
#     4  10  22  42  69 100 135 182 236 293 362 440
#     4  10  21  41  70  99 134 181 234 292 359 440
#
# _framework density 24.562816999999999
#
# number of rings (size 3 to 8) (size 9 to 14) (size 15 to 20)
#    0.000    1.143    0.000    7.714    0.000    8.000 
#    0.000    0.000    0.000   34.286    0.000    0.000 
#    0.000    0.000    0.000    0.000    0.000    0.000 
#
# Total GULP energy -346898.613989 kJ/mol
# GULP energy per Si atom -12389.236214 kJ/mol
# Density = 2.450691 g / cm^3
# Si number density = 24.562817 Si / 1000 Ang^3
#
#
#
# Elastic Constant Matrix: (Units=GPa)
#
#
# Indices 1 2 3 4 5 6 
#
# 1 146.4739 55.2092 50.2247 0.0000 0.0000 0.0000
# 2 55.2092 146.4707 50.2166 0.0000 0.0000 0.0000
# 3 50.2247 50.2166 79.3020 0.0000 0.0000 0.0000
# 4 0.0000 0.0000 0.0000 43.1568 0.0000 0.0000
# 5 0.0000 0.0000 0.0000 0.0000 43.1579 0.0000
# 6 0.0000 0.0000 0.0000 0.0000 0.0000 43.6870
#
#
#
# Elastic Compliance Matrix: (Units=1/GPa)
#
#
# Indices 1 2 3 4 5 6 
#
# 1 0.009100 -0.001857 -0.004587 0.000000 0.000000 0.000000
# 2 -0.001857 0.009100 -0.004586 0.000000 0.000000 0.000000
# 3 -0.004587 -0.004586 0.018419 0.000000 0.000000 0.000000
# 4 0.000000 0.000000 0.000000 0.023171 0.000000 0.000000
# 5 0.000000 0.000000 0.000000 0.000000 0.023171 0.000000
# 6 0.000000 0.000000 0.000000 0.000000 0.000000 0.022890
#
#
# Mechanical properties :
#
#
# Convention : Reuss Voigt Hill
#
# Bulk Modulus (GPa) = 68.69085 75.94973 72.32029
# Shear Modulus (GPa) = 37.66055 40.44008 39.05031
#
# Velocity S-wave (km/s) = 3.91990 4.06198 3.99157
# Velocity P-wave (km/s) = 6.96517 7.27924 7.12394
#
# Compressibility (1/GPa) = 0.01455798
#
# Stress axis : x y z
#
# Youngs Moduli (GPa) = 109.88776 109.89448 54.29119
#
# Poissons Ratio (x) = 0.20412 0.24905
# Poissons Ratio (y) = 0.20411 0.24897
# Poissons Ratio (z) = 0.50409 0.50396
#
# Static dielectric constant tensor:
#      x y z
#    x 4.689730 0.000000 0.000000 
#    y 0.000000 4.689750 0.000000 
#    z 0.000000 0.000000 4.405800 
# 
# 
# High freq. dielectric constant tensor:
#      x y z
#    x 1.977470 0.000000 0.000000 
#    y 0.000000 1.977470 0.000000 
#    z 0.000000 0.000000 1.981090 
# 
# From -- ./inp_files/3012.got.cif
#   From: 2010.03.12/outbox.cif.g09.slc.cpg/sg98_2_cif.got.tgz:3012.got - 2010.04.08 21:04:41.
