data_PCOD8306995
_publ_section_title
;
Structure prediction by ZEFSAII (Michael W. Deem and Ramdas Pophale) SiO2 
 PCOD8306995
Probable space group: P 4 C C
;
_chemical_formula_sum "Si O2"
_cell_formula_units_Z 40
_cell_length_a 11.352438
_cell_length_b 11.352438
_cell_length_c 14.436215
_cell_angle_alpha 90.000000
_cell_angle_beta 90.000000
_cell_angle_gamma 90.000000
_cell_volume 1860.508330
_symmetry_space_group_name_H-M "P 4 C C"
_symmetry_group_IT_number 103
_symmetry_cell_setting 'tetragonal'
loop_
_space_group_symop_operation_xyz
x,y,z
-y,x,z
-x,-y,z
y,-x,z
-x,y,1/2+z
x,-y,1/2+z
-y,-x,1/2+z
y,x,1/2+z
loop_
_atom_site_type_symbol
_atom_site_label
_atom_site_fract_x
_atom_site_fract_y
_atom_site_fract_z
Si Si1 0.433030 0.879951 0.897450
Si Si2 0.500000 0.694341 0.255402
Si Si3 0.825384 0.936746 0.615830
Si Si4 0.936746 0.174616 0.394973
Si Si5 0.120049 0.566970 0.613353
O O1 0.500568 0.774643 0.846815
O O2 0.300022 0.891754 0.857931
O O3 0.500000 0.000000 0.875694
O O4 0.434924 0.849338 0.005402
O O5 0.383443 0.616557 0.255402
O O6 0.500568 0.774643 0.163988
O O7 0.823025 0.940035 0.505402
O O8 0.699978 0.891754 0.652872
O O9 0.929683 0.850663 0.651580
O O10 0.070317 0.149337 0.359223
O O11 0.000000 0.500000 0.635110
#
# Coordination Sequence:
#
# PCOD8306995 Si02
#       5
#     8   8   8   8   8
#     4  10  22  40  67  96 124 165 213 265 326 381
#     4  11  27  46  62  88 129 175 222 268 310 371
#     4   8  15  30  57  94 127 152 189 249 320 389
#     4   8  15  30  57  94 127 152 189 249 320 389
#     4  10  22  40  67  96 124 165 213 265 326 381
#
# _framework density 21.499503000000001
#
# number of rings (size 3 to 8) (size 9 to 14) (size 15 to 20)
#    0.000    2.600    0.000    1.800    5.600    1.600 
#    0.000    2.000    0.000    0.000    0.000    0.000 
#    0.000    0.000    0.000    0.000    0.000    0.000 
#
# Total GULP energy -496043.218034 kJ/mol
# GULP energy per Si atom -12401.080451 kJ/mol
# Density = 2.145057 g / cm^3
# Si number density = 21.499503 Si / 1000 Ang^3
#
#
#
# Elastic Constant Matrix: (Units=GPa)
#
#
# Indices 1 2 3 4 5 6 
#
# 1 147.6254 76.7350 57.9370 0.0000 0.0000 0.0000
# 2 76.7350 147.6254 57.9370 0.0000 0.0000 0.0000
# 3 57.9370 57.9370 54.6854 0.0000 0.0000 0.0000
# 4 0.0000 0.0000 0.0000 3.8841 0.0000 0.0000
# 5 0.0000 0.0000 0.0000 0.0000 3.8841 0.0000
# 6 0.0000 0.0000 0.0000 0.0000 0.0000 30.9749
#
#
#
# Elastic Compliance Matrix: (Units=1/GPa)
#
#
# Indices 1 2 3 4 5 6 
#
# 1 0.011975 -0.002132 -0.010428 0.000000 0.000000 0.000000
# 2 -0.002132 0.011975 -0.010428 0.000000 0.000000 0.000000
# 3 -0.010428 -0.010428 0.040383 0.000000 0.000000 0.000000
# 4 0.000000 0.000000 0.000000 0.257461 0.000000 0.000000
# 5 0.000000 0.000000 0.000000 0.000000 0.257461 0.000000
# 6 0.000000 0.000000 0.000000 0.000000 0.000000 0.032284
#
#
# Mechanical properties :
#
#
# Convention : Reuss Voigt Hill
#
# Bulk Modulus (GPa) = 54.47810 81.68381 68.08095
# Shear Modulus (GPa) = 7.53430 18.23711 12.88570
#
# Velocity S-wave (km/s) = 1.87404 2.91565 2.45082
# Velocity P-wave (km/s) = 5.48424 7.02926 6.30426
#
# Compressibility (1/GPa) = 0.01835600
#
# Stress axis : x y z
#
# Youngs Moduli (GPa) = 83.51039 83.51039 24.76311
#
# Poissons Ratio (x) = 0.17802 0.25823
# Poissons Ratio (y) = 0.17802 0.25823
# Poissons Ratio (z) = 0.87085 0.87085
#
# Static dielectric constant tensor:
#      x y z
#    x 4.106980 0.000000 0.000000 
#    y 0.000000 4.106980 0.000000 
#    z 0.000000 0.000000 3.573060 
# 
# 
# High freq. dielectric constant tensor:
#      x y z
#    x 1.847840 0.000000 0.000000 
#    y 0.000000 1.847840 0.000000 
#    z 0.000000 0.000000 1.830200 
# 
# From -- ./inp_files/798.got.cif
#   From: 2010.03.12/outbox.cif.g09.slc.cpg/sg103_cif.got.tgz:798.got - 2010.04.14 01:42:52.
