data_PCOD8306865
_publ_section_title
;
Structure prediction by ZEFSAII (Michael W. Deem and Ramdas Pophale) SiO2 
 PCOD8306865
Probable space group: P 42 N M
;
_chemical_formula_sum "Si O2"
_cell_formula_units_Z 64
_cell_length_a 19.630957
_cell_length_b 19.630957
_cell_length_c 9.716951
_cell_angle_alpha 90.000000
_cell_angle_beta 90.000000
_cell_angle_gamma 90.000000
_cell_volume 3744.664868
_symmetry_space_group_name_H-M "P 42 N M"
_symmetry_group_IT_number 102
_symmetry_cell_setting 'tetragonal'
loop_
_space_group_symop_operation_xyz
x,y,z
1/2-y,1/2+x,1/2+z
-x,-y,z
1/2+y,1/2-x,1/2+z
1/2-x,1/2+y,1/2+z
1/2+x,1/2-y,1/2+z
-y,-x,z
y,x,z
loop_
_atom_site_type_symbol
_atom_site_label
_atom_site_fract_x
_atom_site_fract_y
_atom_site_fract_z
Si Si1 0.339396 0.772917 0.776110
Si Si2 0.329524 0.780891 0.465450
Si Si3 0.175277 0.065798 0.998843
Si Si4 0.752005 0.638709 0.451313
Si Si5 0.544341 0.656851 0.298921
Si Si6 0.499661 0.608232 0.021278
Si Si7 0.706643 0.481735 0.785787
Si Si8 0.132126 0.752647 0.270259
O O1 0.297091 0.702910 0.800517
O O2 0.321450 0.802824 0.624913
O O3 0.320535 0.831489 0.884584
O O4 0.419864 0.760421 0.796259
O O5 0.276575 0.723426 0.422091
O O6 0.405655 0.749354 0.449205
O O7 0.312424 0.842053 0.359542
O O8 0.130404 0.130404 0.045358
O O9 0.139322 0.025513 0.876771
O O10 0.179854 0.015575 0.129460
O O11 0.693458 0.693458 0.432283
O O12 0.727600 0.572446 0.364348
O O13 0.767820 0.625131 0.610544
O O14 0.595375 0.595375 0.326692
O O15 0.525798 0.661618 0.137589
O O16 0.441547 0.558454 0.083462
O O17 0.563904 0.563904 0.969826
O O18 0.466897 0.646450 0.892473
O O19 0.735134 0.556012 0.825740
O O20 0.180333 0.819668 0.289666
#
# Coordination Sequence:
#
# PCOD8306865 Si02
#       8
#     8   8   8   8   8   8   8   8
#     4   9  18  33  52  71  98 132 164 206 257 306
#     4   8  17  31  49  72  97 130 167 208 254 295
#     4  10  19  33  51  73 105 139 171 206 249 304
#     4   9  18  32  49  70  97 131 168 208 251 293
#     4  10  20  33  48  71 103 139 177 207 245 300
#     4  10  21  33  44  65 102 144 177 204 238 293
#     4  11  20  32  50  76 103 128 169 212 259 303
#     4  10  19  32  51  76 104 131 166 213 257 300
#
# _framework density 17.090982
#
# number of rings (size 3 to 8) (size 9 to 14) (size 15 to 20)
#    0.000    2.375    1.250    2.625    1.750    2.250 
#    0.000    2.500    0.000    0.000    0.000    0.875 
#    0.000    0.000    0.000    0.000    0.000    0.000 
#
# Total GULP energy -793144.540817 kJ/mol
# GULP energy per Si atom -12392.883450 kJ/mol
# Density = 1.705208 g / cm^3
# Si number density = 17.090982 Si / 1000 Ang^3
#
#
#
# Elastic Constant Matrix: (Units=GPa)
#
#
# Indices 1 2 3 4 5 6 
#
# 1 64.2076 33.9382 46.3016 0.0000 0.0000 -0.0001
# 2 33.9382 64.2076 46.3016 0.0000 0.0000 0.0001
# 3 46.3016 46.3016 93.4764 0.0000 0.0000 0.0000
# 4 0.0000 0.0000 0.0000 29.7154 0.0000 0.0000
# 5 0.0000 0.0000 0.0000 0.0000 29.7154 0.0000
# 6 -0.0001 0.0001 0.0000 0.0000 0.0000 19.1255
#
#
#
# Elastic Compliance Matrix: (Units=1/GPa)
#
#
# Indices 1 2 3 4 5 6 
#
# 1 0.026083 -0.006954 -0.009475 0.000000 0.000000 0.000000
# 2 -0.006954 0.026083 -0.009475 0.000000 0.000000 0.000000
# 3 -0.009475 -0.009475 0.020084 0.000000 0.000000 0.000000
# 4 0.000000 0.000000 0.000000 0.033653 0.000000 0.000000
# 5 0.000000 0.000000 0.000000 0.000000 0.033653 0.000000
# 6 0.000000 0.000000 0.000000 0.000000 0.000000 0.052286
#
#
# Mechanical properties :
#
#
# Convention : Reuss Voigt Hill
#
# Bulk Modulus (GPa) = 48.91913 52.77492 50.84702
# Shear Modulus (GPa) = 19.96296 22.06793 21.01545
#
# Velocity S-wave (km/s) = 3.42137 3.59723 3.51040
# Velocity P-wave (km/s) = 6.65527 6.94257 6.80044
#
# Compressibility (1/GPa) = 0.02044190
#
# Stress axis : x y z
#
# Youngs Moduli (GPa) = 38.33941 38.33941 49.78965
#
# Poissons Ratio (x) = 0.26661 0.47176
# Poissons Ratio (y) = 0.26661 0.47176
# Poissons Ratio (z) = 0.36327 0.36327
#
# Static dielectric constant tensor:
#      x y z
#    x 3.068470 0.000000 0.000000 
#    y 0.000000 3.068470 0.000000 
#    z 0.000000 0.000000 3.245150 
# 
# 
# High freq. dielectric constant tensor:
#      x y z
#    x 1.633610 0.000000 0.000000 
#    y 0.000000 1.633610 0.000000 
#    z 0.000000 0.000000 1.669430 
# 
# From -- ./inp_files/1219.got.cif
#   From: 2010.03.12/outbox.cif.g09.slc.cpg/sg102_1_cif.got.tgz:1219.got - 2010.04.14 01:40:42.
