data_PCOD8306011
_publ_section_title
;
Structure prediction by ZEFSAII (Michael W. Deem and Ramdas Pophale) SiO2 
 PCOD8306011
Probable space group: P 43 21 2
;
_chemical_formula_sum "Si O2"
_cell_formula_units_Z 32
_cell_length_a 9.142204
_cell_length_b 9.142204
_cell_length_c 16.081627
_cell_angle_alpha 90.000000
_cell_angle_beta 90.000000
_cell_angle_gamma 90.000000
_cell_volume 1344.100680
_symmetry_space_group_name_H-M "P 43 21 2"
_symmetry_group_IT_number 96
_symmetry_cell_setting 'tetragonal'
loop_
_space_group_symop_operation_xyz
x,y,z
1/2-y,1/2+x,3/4+z
-x,-y,1/2+z
1/2+y,1/2-x,1/4+z
1/2+x,1/2-y,1/4-z
1/2-x,1/2+y,3/4-z
y,x,-z
-y,-x,1/2-z
loop_
_atom_site_type_symbol
_atom_site_label
_atom_site_fract_x
_atom_site_fract_y
_atom_site_fract_z
Si Si1 0.569900 0.380837 0.656601
Si Si2 0.072542 0.664272 0.551088
Si Si3 0.874988 0.243201 0.335559
Si Si4 0.907849 0.261197 0.866007
O O1 0.553436 0.446565 0.750000
O O2 0.684147 0.460285 0.593788
O O3 0.411680 0.376352 0.611748
O O4 0.638417 0.222367 0.665603
O O5 0.154070 0.802343 0.589460
O O6 0.191796 0.535598 0.553437
O O7 0.033229 0.696078 0.456513
O O8 0.918840 0.630458 0.598464
O O9 0.798775 0.201226 0.250000
#
# Coordination Sequence:
#
# PCOD8306011 Si02
#       4
#     8   8   8   8
#     4  12  29  50  77 112 154 197 254 314 382 454
#     4  12  27  48  77 108 148 199 253 306 377 453
#     4  12  27  47  77 107 148 200 251 308 379 450
#     4  12  29  49  77 111 154 196 255 315 383 456
#
# _framework density 23.807738000000001
#
# number of rings (size 3 to 8) (size 9 to 14) (size 15 to 20)
#    0.000    0.000    5.000    3.000   14.000    0.000 
#    0.000    0.000    0.000    0.000    0.000    0.000 
#    0.000    0.000    0.000    0.000    0.000    0.000 
#
# Total GULP energy -396841.763437 kJ/mol
# GULP energy per Si atom -12401.305107 kJ/mol
# Density = 2.375355 g / cm^3
# Si number density = 23.807738 Si / 1000 Ang^3
#
#
#
# Elastic Constant Matrix: (Units=GPa)
#
#
# Indices 1 2 3 4 5 6 
#
# 1 109.0063 7.6054 16.7893 0.0000 0.0000 0.0000
# 2 7.6054 109.0056 16.7892 0.0000 0.0000 0.0000
# 3 16.7893 16.7892 35.7664 0.0000 0.0000 0.0000
# 4 0.0000 0.0000 0.0000 36.3498 0.0000 0.0000
# 5 0.0000 0.0000 0.0000 0.0000 36.3499 0.0000
# 6 0.0000 0.0000 0.0000 0.0000 0.0000 44.1086
#
#
#
# Elastic Compliance Matrix: (Units=1/GPa)
#
#
# Indices 1 2 3 4 5 6 
#
# 1 0.009889 0.000027 -0.004655 0.000000 0.000000 0.000000
# 2 0.000027 0.009889 -0.004655 0.000000 0.000000 0.000000
# 3 -0.004655 -0.004655 0.032329 0.000000 0.000000 0.000000
# 4 0.000000 0.000000 0.000000 0.027510 0.000000 0.000000
# 5 0.000000 0.000000 0.000000 0.000000 0.027510 0.000000
# 6 0.000000 0.000000 0.000000 0.000000 0.000000 0.022671
#
#
# Mechanical properties :
#
#
# Convention : Reuss Voigt Hill
#
# Bulk Modulus (GPa) = 29.81313 37.34954 33.58133
# Shear Modulus (GPa) = 31.33928 37.53464 34.43696
#
# Velocity S-wave (km/s) = 3.63209 3.97492 3.80736
# Velocity P-wave (km/s) = 5.48990 6.06536 5.78479
#
# Compressibility (1/GPa) = 0.03354227
#
# Stress axis : x y z
#
# Youngs Moduli (GPa) = 101.12444 101.12385 30.93187
#
# Poissons Ratio (x) = -0.00273 0.14398
# Poissons Ratio (y) = -0.00273 0.14398
# Poissons Ratio (z) = 0.47069 0.47069
#
# Static dielectric constant tensor:
#      x y z
#    x 4.405530 0.000000 0.000000 
#    y 0.000000 4.405520 0.000000 
#    z 0.000000 0.000000 4.294030 
# 
# 
# High freq. dielectric constant tensor:
#      x y z
#    x 1.956200 0.000000 0.000000 
#    y 0.000000 1.956200 0.000000 
#    z 0.000000 0.000000 1.941790 
# 
# From -- ./inp_files/3320.got.cif
#   From: 2010.03.12/outbox.cif.g09.slc.cpg/sg96_2_cif.got.tgz:3320.got - 2010.04.08 20:56:49.
