data_PCOD8306379
_publ_section_title
;
Structure prediction by ZEFSAII (Michael W. Deem and Ramdas Pophale) SiO2 
 PCOD8306379
Probable space group: I 41 2 2
;
_chemical_formula_sum "Si O2"
_cell_formula_units_Z 32
_cell_length_a 17.240711
_cell_length_b 17.240711
_cell_length_c 4.876968
_cell_angle_alpha 90.000000
_cell_angle_beta 90.000000
_cell_angle_gamma 90.000000
_cell_volume 1449.640287
_symmetry_space_group_name_H-M "I 41 2 2"
_symmetry_group_IT_number 98
_symmetry_cell_setting 'tetragonal'
loop_
_space_group_symop_operation_xyz
x,y,z
-y,1/2+x,1/4+z
-x,-y,z
y,1/2-x,1/4+z
x,1/2-y,1/4-z
-x,1/2+y,1/4-z
y,x,-z
-y,-x,-z
1/2+x,1/2+y,1/2+z
1/2-y,x,3/4+z
1/2-x,1/2-y,1/2+z
1/2+y,-x,3/4+z
1/2+x,-y,3/4-z
1/2-x,y,3/4-z
1/2+y,1/2+x,1/2-z
1/2-y,1/2-x,1/2-z
loop_
_atom_site_type_symbol
_atom_site_label
_atom_site_fract_x
_atom_site_fract_y
_atom_site_fract_z
Si Si1 0.835815 0.910537 0.259485
Si Si2 0.302075 0.922594 0.629427
O O1 0.895882 0.895882 0.500000
O O2 0.750000 0.892380 0.375000
O O3 0.850077 0.001483 0.203118
O O4 0.855740 0.855740 0.000000
O O5 0.250000 0.891030 0.375000
O O6 0.354764 0.854764 0.750000
O O7 0.250000 0.953772 0.875000
#
# Coordination Sequence:
#
# PCOD8306379 Si02
#       2
#    16  16
#     4  11  23  42  65  93 131 172 217 269 322 381
#     4  11  24  44  68  97 132 168 214 269 322 385
#
# _framework density 22.074442999999999
#
# number of rings (size 3 to 8) (size 9 to 14) (size 15 to 20)
#    0.000    1.000    0.000    9.000    0.000    5.000 
#    0.000   10.000    0.000    0.000    0.000    0.000 
#    0.000    0.000    0.000    0.000    0.000    0.000 
#
# Total GULP energy -198364.978038 kJ/mol
# GULP energy per Si atom -12397.811127 kJ/mol
# Density = 2.202420 g / cm^3
# Si number density = 22.074443 Si / 1000 Ang^3
#
#
#
# Elastic Constant Matrix: (Units=GPa)
#
#
# Indices 1 2 3 4 5 6 
#
# 1 105.9580 96.1176 75.1963 0.0000 0.0000 0.0000
# 2 96.1176 105.9580 75.1963 0.0000 0.0000 0.0000
# 3 75.1963 75.1963 191.9619 0.0000 0.0000 0.0000
# 4 0.0000 0.0000 0.0000 52.4297 0.0000 0.0000
# 5 0.0000 0.0000 0.0000 0.0000 52.4297 0.0000
# 6 0.0000 0.0000 0.0000 0.0000 0.0000 1.0533
#
#
#
# Elastic Compliance Matrix: (Units=1/GPa)
#
#
# Indices 1 2 3 4 5 6 
#
# 1 0.054303 -0.047318 -0.002736 0.000000 0.000000 0.000000
# 2 -0.047318 0.054303 -0.002736 0.000000 0.000000 0.000000
# 3 -0.002736 -0.002736 0.007353 0.000000 0.000000 0.000000
# 4 0.000000 0.000000 0.000000 0.019073 0.000000 0.000000
# 5 0.000000 0.000000 0.000000 0.000000 0.019073 0.000000
# 6 0.000000 0.000000 0.000000 0.000000 0.000000 0.949418
#
#
# Mechanical properties :
#
#
# Convention : Reuss Voigt Hill
#
# Bulk Modulus (GPa) = 96.35513 99.65537 98.00525
# Shear Modulus (GPa) = 4.12349 31.67372 17.89860
#
# Velocity S-wave (km/s) = 1.36823 3.79206 2.85060
# Velocity P-wave (km/s) = 6.80007 8.02597 7.43831
#
# Compressibility (1/GPa) = 0.01037827
#
# Stress axis : x y z
#
# Youngs Moduli (GPa) = 18.41504 18.41504 135.99794
#
# Poissons Ratio (x) = 0.87137 0.37212
# Poissons Ratio (y) = 0.87137 0.37212
# Poissons Ratio (z) = 0.05039 0.05039
#
# Static dielectric constant tensor:
#      x y z
#    x 3.924640 0.000000 0.000000 
#    y 0.000000 3.924640 0.000000 
#    z 0.000000 0.000000 4.512600 
# 
# 
# High freq. dielectric constant tensor:
#      x y z
#    x 1.861890 0.000000 0.000000 
#    y 0.000000 1.861890 0.000000 
#    z 0.000000 0.000000 1.904610 
# 
# From -- ./inp_files/312.got.cif
#   From: 2010.03.12/outbox.cif.g09.slc.cpg/sg98_1_cif.got.tgz:312.got - 2010.04.08 21:04:41.
