data_PCOD8306131
_publ_section_title
;
Structure prediction by ZEFSAII (Michael W. Deem and Ramdas Pophale) SiO2 
 PCOD8306131
Probable space group: I 4 2 2 
;
_chemical_formula_sum "Si O2"
_cell_formula_units_Z 80
_cell_length_a 16.427467
_cell_length_b 16.427467
_cell_length_c 14.551886
_cell_angle_alpha 90.000000
_cell_angle_beta 90.000000
_cell_angle_gamma 90.000000
_cell_volume 3926.996287
_symmetry_space_group_name_H-M "I 4 2 2 "
_symmetry_group_IT_number 97
_symmetry_cell_setting 'tetragonal'
loop_
_space_group_symop_operation_xyz
x,y,z
-y,x,z
-x,-y,z
y,-x,z
x,-y,-z
-x,y,-z
y,x,-z
-y,-x,-z
1/2+x,1/2+y,1/2+z
1/2-y,1/2+x,1/2+z
1/2-x,1/2-y,1/2+z
1/2+y,1/2-x,1/2+z
1/2+x,1/2-y,1/2-z
1/2-x,1/2+y,1/2-z
1/2+y,1/2+x,1/2-z
1/2-y,1/2-x,1/2-z
loop_
_atom_site_type_symbol
_atom_site_label
_atom_site_fract_x
_atom_site_fract_y
_atom_site_fract_z
Si Si1 0.995326 0.871894 0.306787
Si Si2 0.310926 0.816442 0.386921
Si Si3 0.308438 0.500000 0.000000
Si Si4 0.294654 0.048081 0.748933
Si Si5 0.396641 0.896641 0.750000
Si Si6 0.154772 0.287803 0.581905
O O1 0.975296 0.865124 0.415184
O O2 0.006493 0.786084 0.254461
O O3 0.077044 0.917050 0.275034
O O4 0.300794 0.909361 0.351201
O O5 0.383386 0.779294 0.325957
O O6 0.337498 0.811092 0.493586
O O7 0.223643 0.771546 0.375748
O O8 0.258384 0.576892 0.040286
O O9 0.375174 0.992347 0.766278
O O10 0.350508 0.869344 0.659323
#
# Coordination Sequence:
#
# PCOD8306131 Si02
#       6
#    16  16   8  16   8  16
#     4  11  23  36  60  98 135 167 204 268 347 412
#     4  10  23  40  62  88 126 165 212 267 328 385
#     4  12  20  37  64  97 132 160 210 276 338 406
#     4  11  23  40  62  91 128 171 215 271 318 404
#     4  12  24  37  62  90 122 169 220 264 324 384
#     4  11  22  39  64  95 121 169 214 267 329 395
#
# _framework density 20.371804000000001
#
# number of rings (size 3 to 8) (size 9 to 14) (size 15 to 20)
#    0.000    1.000    4.000    3.000    5.600    3.200 
#    0.000    0.000    0.000    6.000    0.000    0.000 
#    0.000    0.000    0.000    0.000    0.000    0.000 
#
# Total GULP energy -495561.147590 kJ/mol
# GULP energy per Si atom -12389.028690 kJ/mol
# Density = 2.032544 g / cm^3
# Si number density = 20.371804 Si / 1000 Ang^3
#
#
#
# Elastic Constant Matrix: (Units=GPa)
#
#
# Indices 1 2 3 4 5 6 
#
# 1 94.0172 51.8144 27.4644 0.0000 0.0000 0.0000
# 2 51.8144 94.0172 27.4644 0.0000 0.0000 0.0000
# 3 27.4644 27.4644 82.1181 0.0000 0.0000 0.0000
# 4 0.0000 0.0000 0.0000 32.1148 0.0000 0.0000
# 5 0.0000 0.0000 0.0000 0.0000 32.1148 0.0000
# 6 0.0000 0.0000 0.0000 0.0000 0.0000 18.6698
#
#
#
# Elastic Compliance Matrix: (Units=1/GPa)
#
#
# Indices 1 2 3 4 5 6 
#
# 1 0.015770 -0.007925 -0.002624 0.000000 0.000000 0.000000
# 2 -0.007925 0.015770 -0.002624 0.000000 0.000000 0.000000
# 3 -0.002624 -0.002624 0.013933 0.000000 0.000000 0.000000
# 4 0.000000 0.000000 0.000000 0.031138 0.000000 0.000000
# 5 0.000000 0.000000 0.000000 0.000000 0.031138 0.000000
# 6 0.000000 0.000000 0.000000 0.000000 0.000000 0.053562
#
#
# Mechanical properties :
#
#
# Convention : Reuss Voigt Hill
#
# Bulk Modulus (GPa) = 52.27916 53.73762 53.00839
# Shear Modulus (GPa) = 25.76870 27.47382 26.62126
#
# Velocity S-wave (km/s) = 3.56043 3.67634 3.61885
# Velocity P-wave (km/s) = 6.52843 6.66756 6.59836
#
# Compressibility (1/GPa) = 0.01912808
#
# Stress axis : x y z
#
# Youngs Moduli (GPa) = 63.41019 63.41019 71.77340
#
# Poissons Ratio (x) = 0.50251 0.18833
# Poissons Ratio (y) = 0.50251 0.18833
# Poissons Ratio (z) = 0.16638 0.16638
#
# Static dielectric constant tensor:
#      x y z
#    x 3.785560 0.000000 0.000000 
#    y 0.000000 3.785560 0.000000 
#    z 0.000000 0.000000 4.053640 
# 
# 
# High freq. dielectric constant tensor:
#      x y z
#    x 1.795840 0.000000 0.000000 
#    y 0.000000 1.795840 0.000000 
#    z 0.000000 0.000000 1.786910 
# 
# From -- ./inp_files/4769.got.cif
#   From: 2010.03.12/outbox.cif.g09.slc.cpg/sg97_3_cif.got.tgz:4769.got - 2010.04.08 20:59:42.
