data_PCOD8306780
_publ_section_title
;
Structure prediction by ZEFSAII (Michael W. Deem and Ramdas Pophale) SiO2 
 PCOD8306780
Probable space group: P 42 C M
;
_chemical_formula_sum "Si O2"
_cell_formula_units_Z 48
_cell_length_a 16.517821
_cell_length_b 16.517821
_cell_length_c 9.898502
_cell_angle_alpha 90.000000
_cell_angle_beta 90.000000
_cell_angle_gamma 90.000000
_cell_volume 2700.691553
_symmetry_space_group_name_H-M "P 42 C M"
_symmetry_group_IT_number 101
_symmetry_cell_setting 'tetragonal'
loop_
_space_group_symop_operation_xyz
x,y,z
-y,x,1/2+z
-x,-y,z
y,-x,1/2+z
-x,y,1/2+z
x,-y,1/2+z
-y,-x,z
y,x,z
loop_
_atom_site_type_symbol
_atom_site_label
_atom_site_fract_x
_atom_site_fract_y
_atom_site_fract_z
Si Si1 0.553411 0.928909 0.382460
Si Si2 0.775153 0.909850 0.122454
Si Si3 0.224679 0.349079 0.090598
Si Si4 0.279478 0.018573 0.845630
Si Si5 0.168217 0.517847 0.141830
Si Si6 0.804105 0.324013 0.280230
O O1 0.545139 0.858595 0.492752
O O2 0.512108 0.903820 0.240322
O O3 0.500000 0.000000 0.444722
O O4 0.644974 0.959311 0.369901
O O5 0.855219 0.855219 0.110661
O O6 0.695576 0.854975 0.149078
O O7 0.783058 0.971673 0.247461
O O8 0.765797 0.960707 0.984524
O O9 0.305114 0.305114 0.146869
O O10 0.229525 0.442216 0.133452
O O11 0.221109 0.341036 0.931439
O O12 0.306400 0.100257 0.768622
O O13 0.216457 0.594912 0.198196
O O14 0.751781 0.248220 0.223279
#
# Coordination Sequence:
#
# PCOD8306780 Si02
#       6
#     8   8   8   8   8   8
#     4  12  22  30  54  90 120 144 175 226 291 345
#     4  10  21  37  58  82 112 151 191 232 285 343
#     4   9  18  35  55  79 114 153 183 218 279 344
#     4  11  20  36  57  83 115 150 188 233 286 343
#     4  12  20  35  53  88 116 147 184 227 281 339
#     4  10  21  36  56  79 112 153 186 227 283 340
#
# _framework density 17.773225
#
# number of rings (size 3 to 8) (size 9 to 14) (size 15 to 20)
#    0.000    1.333    5.000    4.000    0.000    0.000 
#    0.000    5.000    0.000    4.500    0.000    2.333 
#    0.000    0.000    0.000    0.000    0.000    0.000 
#
# Total GULP energy -595021.085406 kJ/mol
# GULP energy per Si atom -12396.272613 kJ/mol
# Density = 1.773277 g / cm^3
# Si number density = 17.773225 Si / 1000 Ang^3
#
#
#
# Elastic Constant Matrix: (Units=GPa)
#
#
# Indices 1 2 3 4 5 6 
#
# 1 81.4018 67.2899 49.7500 0.0000 0.0000 -0.0002
# 2 67.2899 81.4018 49.7500 0.0000 0.0000 0.0002
# 3 49.7500 49.7500 66.1199 0.0000 0.0000 0.0000
# 4 0.0000 0.0000 0.0000 6.9404 0.0000 0.0000
# 5 0.0000 0.0000 0.0000 0.0000 6.9404 0.0000
# 6 -0.0002 0.0002 0.0000 0.0000 0.0000 33.4565
#
#
#
# Elastic Compliance Matrix: (Units=1/GPa)
#
#
# Indices 1 2 3 4 5 6 
#
# 1 0.042204 -0.028658 -0.010192 0.000000 0.000000 0.000000
# 2 -0.028658 0.042204 -0.010192 0.000000 0.000000 0.000000
# 3 -0.010192 -0.010192 0.030461 0.000000 0.000000 0.000000
# 4 0.000000 0.000000 0.000000 0.144084 0.000000 0.000000
# 5 0.000000 0.000000 0.000000 0.000000 0.144084 0.000000
# 6 0.000000 0.000000 0.000000 0.000000 0.000000 0.029890
#
#
# Mechanical properties :
#
#
# Convention : Reuss Voigt Hill
#
# Bulk Modulus (GPa) = 59.57852 62.50039 61.03946
# Shear Modulus (GPa) = 9.31785 13.60970 11.46378
#
# Velocity S-wave (km/s) = 2.29216 2.77021 2.54245
# Velocity P-wave (km/s) = 6.37178 6.74343 6.56024
#
# Compressibility (1/GPa) = 0.01678457
#
# Stress axis : x y z
#
# Youngs Moduli (GPa) = 23.69462 23.69462 32.82870
#
# Poissons Ratio (x) = 0.67905 0.33459
# Poissons Ratio (y) = 0.67905 0.33459
# Poissons Ratio (z) = 0.24149 0.24149
#
# Static dielectric constant tensor:
#      x y z
#    x 3.384430 0.000000 0.000000 
#    y 0.000000 3.384430 0.000000 
#    z 0.000000 0.000000 3.271240 
# 
# 
# High freq. dielectric constant tensor:
#      x y z
#    x 1.669980 0.000000 0.000000 
#    y 0.000000 1.669980 0.000000 
#    z 0.000000 0.000000 1.689900 
# 
# From -- ./inp_files/669.got.cif
#   From: 2010.03.12/outbox.cif.g09.slc.cpg/sg101_1_cif.got.tgz:669.got - 2010.04.14 01:38:52.
