data_PCOD8306562
_publ_section_title
;
Structure prediction by ZEFSAII (Michael W. Deem and Ramdas Pophale) SiO2 
 PCOD8306562
Probable space group: P 4 M M
;
_chemical_formula_sum "Si O2"
_cell_formula_units_Z 56
_cell_length_a 13.778543
_cell_length_b 13.778543
_cell_length_c 17.972173
_cell_angle_alpha 90.000000
_cell_angle_beta 90.000000
_cell_angle_gamma 90.000000
_cell_volume 3411.985542
_symmetry_space_group_name_H-M "P 4 M M"
_symmetry_group_IT_number 99
_symmetry_cell_setting 'tetragonal'
loop_
_space_group_symop_operation_xyz
x,y,z
-y,x,z
-x,-y,z
y,-x,z
-x,y,z
x,-y,z
-y,-x,z
y,x,z
loop_
_atom_site_type_symbol
_atom_site_label
_atom_site_fract_x
_atom_site_fract_y
_atom_site_fract_z
Si Si1 0.730960 0.888099 0.550610
Si Si2 0.267398 0.110460 0.379247
Si Si3 0.614472 0.228001 0.664862
Si Si4 0.772296 0.386668 0.946862
Si Si5 0.892420 0.614890 0.807342
Si Si6 0.226858 0.387176 0.269405
Si Si7 0.390505 0.235423 0.107789
O O1 0.830868 0.830868 0.567820
O O2 0.701125 0.877164 0.464679
O O3 0.642413 0.842929 0.597107
O O4 0.747319 0.000000 0.572720
O O5 0.171018 0.171018 0.360464
O O6 0.356578 0.145984 0.328806
O O7 0.242764 0.000000 0.359961
O O8 0.500000 0.248394 0.663037
O O9 0.669162 0.330839 0.657855
O O10 0.649669 0.176361 0.740574
O O11 0.747673 0.500000 0.934155
O O12 0.672445 0.327556 0.937727
O O13 0.849066 0.349482 0.886000
O O14 0.820549 0.368264 0.029573
O O15 0.900350 0.500000 0.805613
O O16 0.000000 0.660433 0.798244
O O17 0.252327 0.500000 0.281413
O O18 0.325178 0.325178 0.281235
O O19 0.180649 0.367919 0.186093
O O20 0.500000 0.269003 0.107631
O O21 0.335960 0.335960 0.107252
#
# Coordination Sequence:
#
# PCOD8306562 Si02
#       7
#     8   8   8   8   8   8   8
#     4   9  18  32  50  72  95 119 149 185 226 271
#     4   9  18  32  49  69  92 117 147 186 231 276
#     4  10  20  33  49  69  93 121 153 188 226 269
#     4   9  16  26  41  62  88 116 146 180 219 265
#     4   9  17  29  44  61  83 113 147 181 217 257
#     4   9  17  29  44  63  89 120 154 191 229 270
#     4   8  14  24  38  57  83 115 148 183 221 260
#
# _framework density 16.412731000000001
#
# number of rings (size 3 to 8) (size 9 to 14) (size 15 to 20)
#    0.000    3.000    0.000    0.857    0.000    2.571 
#    0.000    6.429    0.000    5.143    0.000    4.000 
#    0.000    2.571    0.000    0.000    0.000    2.857 
#
# Total GULP energy -693871.282157 kJ/mol
# GULP energy per Si atom -12390.558610 kJ/mol
# Density = 1.637537 g / cm^3
# Si number density = 16.412731 Si / 1000 Ang^3
#
#
#
# Elastic Constant Matrix: (Units=GPa)
#
#
# Indices 1 2 3 4 5 6 
#
# 1 80.5376 33.7502 50.8029 0.0000 0.0000 0.0002
# 2 33.7502 80.5376 50.8029 0.0000 0.0000 -0.0002
# 3 50.8029 50.8029 113.9102 0.0000 0.0000 0.0000
# 4 0.0000 0.0000 0.0000 22.0666 0.0000 0.0000
# 5 0.0000 0.0000 0.0000 0.0000 22.0666 0.0000
# 6 0.0002 -0.0002 0.0000 0.0000 0.0000 10.7053
#
#
#
# Elastic Compliance Matrix: (Units=1/GPa)
#
#
# Indices 1 2 3 4 5 6 
#
# 1 0.017936 -0.003437 -0.006466 0.000000 0.000000 0.000000
# 2 -0.003437 0.017936 -0.006466 0.000000 0.000000 0.000000
# 3 -0.006466 -0.006466 0.014547 0.000000 0.000000 0.000000
# 4 0.000000 0.000000 0.000000 0.045317 0.000000 0.000000
# 5 0.000000 0.000000 0.000000 0.000000 0.045317 0.000000
# 6 0.000000 0.000000 0.000000 0.000000 0.000000 0.093412
#
#
# Mechanical properties :
#
#
# Convention : Reuss Voigt Hill
#
# Bulk Modulus (GPa) = 56.56493 60.63305 58.59899
# Shear Modulus (GPa) = 18.30848 20.27631 19.29240
#
# Velocity S-wave (km/s) = 3.34354 3.51864 3.43221
# Velocity P-wave (km/s) = 7.03168 7.31647 7.17549
#
# Compressibility (1/GPa) = 0.01767880
#
# Stress axis : x y z
#
# Youngs Moduli (GPa) = 55.75404 55.75404 68.74456
#
# Poissons Ratio (x) = 0.19165 0.44452
# Poissons Ratio (y) = 0.19165 0.44452
# Poissons Ratio (z) = 0.36052 0.36052
#
# Static dielectric constant tensor:
#      x y z
#    x 2.931210 0.000000 0.000000 
#    y 0.000000 2.931210 0.000000 
#    z 0.000000 0.000000 3.573360 
# 
# 
# High freq. dielectric constant tensor:
#      x y z
#    x 1.609290 0.000000 0.000000 
#    y 0.000000 1.609290 0.000000 
#    z 0.000000 0.000000 1.653740 
# 
# From -- ./inp_files/1766.got.cif
#   From: 2010.03.12/outbox.cif.g09.slc.cpg/sg99_cif.got.tgz:1766.got - 2010.04.08 21:11:30.
