data_PCOD8306167
_publ_section_title
;
Structure prediction by ZEFSAII (Michael W. Deem and Ramdas Pophale) SiO2 
 PCOD8306167
Probable space group: I 4 2 2 
;
_chemical_formula_sum "Si O2"
_cell_formula_units_Z 64
_cell_length_a 13.902884
_cell_length_b 13.902884
_cell_length_c 15.086044
_cell_angle_alpha 90.000000
_cell_angle_beta 90.000000
_cell_angle_gamma 90.000000
_cell_volume 2915.984213
_symmetry_space_group_name_H-M "I 4 2 2 "
_symmetry_group_IT_number 97
_symmetry_cell_setting 'tetragonal'
loop_
_space_group_symop_operation_xyz
x,y,z
-y,x,z
-x,-y,z
y,-x,z
x,-y,-z
-x,y,-z
y,x,-z
-y,-x,-z
1/2+x,1/2+y,1/2+z
1/2-y,1/2+x,1/2+z
1/2-x,1/2-y,1/2+z
1/2+y,1/2-x,1/2+z
1/2+x,1/2-y,1/2-z
1/2-x,1/2+y,1/2-z
1/2+y,1/2+x,1/2-z
1/2-y,1/2-x,1/2-z
loop_
_atom_site_type_symbol
_atom_site_label
_atom_site_fract_x
_atom_site_fract_y
_atom_site_fract_z
Si Si1 0.187491 0.377307 0.155017
Si Si2 0.112739 0.899264 0.395274
Si Si3 0.405466 0.064583 0.351617
Si Si4 0.268608 0.893855 0.996499
O O1 0.144940 0.355061 0.250000
O O2 0.298085 0.339877 0.146299
O O3 0.184111 0.491738 0.134921
O O4 0.116963 0.327107 0.086469
O O5 0.114529 0.885472 0.500000
O O6 0.008665 0.867740 0.362461
O O7 0.402634 0.097367 0.250000
O O8 0.387059 0.157349 0.413764
O O9 0.500000 0.000000 0.374248
O O10 0.184708 0.815293 0.000000
O O11 0.221465 0.000000 0.000000
#
# Coordination Sequence:
#
# PCOD8306167 Si02
#       4
#    16  16  16  16
#     4  12  24  41  68 106 137 178 239 298 369 444
#     4   9  21  42  66  98 139 182 229 297 376 439
#     4  11  22  46  74 102 141 180 231 313 376 435
#     4  12  27  45  69 100 140 194 245 299 371 444
#
# _framework density 21.947993
#
# number of rings (size 3 to 8) (size 9 to 14) (size 15 to 20)
#    0.000    1.000    5.000    2.250   10.500    1.250 
#    4.500    0.000    0.000    0.000    0.000    0.000 
#    0.000    0.000    0.000    0.000    0.000    0.000 
#
# Total GULP energy -396449.978965 kJ/mol
# GULP energy per Si atom -12389.061843 kJ/mol
# Density = 2.189804 g / cm^3
# Si number density = 21.947993 Si / 1000 Ang^3
#
#
#
# Elastic Constant Matrix: (Units=GPa)
#
#
# Indices 1 2 3 4 5 6 
#
# 1 137.4794 43.4182 57.2080 0.0000 0.0000 0.0000
# 2 43.4182 137.4806 57.2076 0.0000 0.0000 0.0000
# 3 57.2080 57.2076 122.3225 0.0000 0.0000 0.0000
# 4 0.0000 0.0000 0.0000 21.4435 0.0000 0.0000
# 5 0.0000 0.0000 0.0000 0.0000 21.4424 0.0000
# 6 0.0000 0.0000 0.0000 0.0000 0.0000 34.4224
#
#
#
# Elastic Compliance Matrix: (Units=1/GPa)
#
#
# Indices 1 2 3 4 5 6 
#
# 1 0.009241 -0.001391 -0.003671 0.000000 0.000000 0.000000
# 2 -0.001391 0.009241 -0.003671 0.000000 0.000000 0.000000
# 3 -0.003671 -0.003671 0.011609 0.000000 0.000000 0.000000
# 4 0.000000 0.000000 0.000000 0.046634 0.000000 0.000000
# 5 0.000000 0.000000 0.000000 0.000000 0.046636 0.000000
# 6 0.000000 0.000000 0.000000 0.000000 0.000000 0.029051
#
#
# Mechanical properties :
#
#
# Convention : Reuss Voigt Hill
#
# Bulk Modulus (GPa) = 79.21455 79.21667 79.21561
# Shear Modulus (GPa) = 28.72137 31.42492 30.07315
#
# Velocity S-wave (km/s) = 3.62140 3.78801 3.70564
# Velocity P-wave (km/s) = 7.32505 7.43661 7.38104
#
# Compressibility (1/GPa) = 0.01262394
#
# Stress axis : x y z
#
# Youngs Moduli (GPa) = 108.21665 108.21820 86.13940
#
# Poissons Ratio (x) = 0.15049 0.31625
# Poissons Ratio (y) = 0.15049 0.31624
# Poissons Ratio (z) = 0.39730 0.39730
#
# Static dielectric constant tensor:
#      x y z
#    x 4.239040 0.000000 0.000000 
#    y 0.000000 4.239060 0.000000 
#    z 0.000000 0.000000 3.861750 
# 
# 
# High freq. dielectric constant tensor:
#      x y z
#    x 1.869390 0.000000 0.000000 
#    y 0.000000 1.869390 0.000000 
#    z 0.000000 0.000000 1.847240 
# 
# From -- ./inp_files/4521.got.cif
#   From: 2010.03.12/outbox.cif.g09.slc.cpg/sg97_3_cif.got.tgz:4521.got - 2010.04.08 20:59:42.
