data_PCOD8306218
_publ_section_title
;
Structure prediction by ZEFSAII (Michael W. Deem and Ramdas Pophale) SiO2 
 PCOD8306218
Probable space group: I 41 2 2
;
_chemical_formula_sum "Si O2"
_cell_formula_units_Z 68
_cell_length_a 13.755087
_cell_length_b 13.755087
_cell_length_c 19.405782
_cell_angle_alpha 90.000000
_cell_angle_beta 90.000000
_cell_angle_gamma 90.000000
_cell_volume 3671.620885
_symmetry_space_group_name_H-M "I 41 2 2"
_symmetry_group_IT_number 98
_symmetry_cell_setting 'tetragonal'
loop_
_space_group_symop_operation_xyz
x,y,z
-y,1/2+x,1/4+z
-x,-y,z
y,1/2-x,1/4+z
x,1/2-y,1/4-z
-x,1/2+y,1/4-z
y,x,-z
-y,-x,-z
1/2+x,1/2+y,1/2+z
1/2-y,x,3/4+z
1/2-x,1/2-y,1/2+z
1/2+y,-x,3/4+z
1/2+x,-y,3/4-z
1/2-x,y,3/4-z
1/2+y,1/2+x,1/2-z
1/2-y,1/2-x,1/2-z
loop_
_atom_site_type_symbol
_atom_site_label
_atom_site_fract_x
_atom_site_fract_y
_atom_site_fract_z
Si Si1 0.000000 0.500000 0.585793
Si Si2 0.135070 0.504529 0.710511
Si Si3 0.065832 0.157241 0.767875
Si Si4 0.000000 0.500000 0.250000
Si Si5 0.219249 0.219249 0.000000
Si Si6 0.149793 0.435189 0.352334
O O1 0.096845 0.508862 0.632053
O O2 0.008999 0.403095 0.539963
O O3 0.087735 0.412266 0.750000
O O4 0.251321 0.499934 0.710111
O O5 0.102647 0.602647 0.750000
O O6 0.167560 0.197460 0.738947
O O7 0.080626 0.086489 0.833099
O O8 0.095662 0.503946 0.297581
O O9 0.178704 0.167612 0.931724
O O10 0.250000 0.488808 0.375000
#
# Coordination Sequence:
#
# PCOD8306218 Si02
#       6
#     8  16  16   4   8  16
#     4  10  22  32  54  88 114 144 188 234 280 340
#     4   9  20  35  50  84 117 147 184 220 285 352
#     4  11  18  34  55  85 116 146 183 232 282 332
#     4  10  18  36  52  78 122 152 160 252 288 310
#     4   9  18  31  55  86 115 140 176 238 285 326
#     4   9  19  31  52  86 110 141 191 222 284 346
#
# _framework density 18.520430999999999
#
# number of rings (size 3 to 8) (size 9 to 14) (size 15 to 20)
#    0.000    2.588    1.176    2.118    0.000    3.765 
#    0.000    0.000    0.000    0.000  119.294    0.000 
#    0.000    0.000    0.000    0.000    0.000    0.000 
#
# Total GULP energy -421547.161784 kJ/mol
# GULP energy per Si atom -12398.445935 kJ/mol
# Density = 1.847828 g / cm^3
# Si number density = 18.520431 Si / 1000 Ang^3
#
#
#
# Elastic Constant Matrix: (Units=GPa)
#
#
# Indices 1 2 3 4 5 6 
#
# 1 89.0674 64.2738 56.4635 0.0000 0.0000 0.0000
# 2 64.2738 89.0680 56.4633 0.0000 0.0000 0.0000
# 3 56.4635 56.4633 128.1324 0.0000 0.0000 0.0000
# 4 0.0000 0.0000 0.0000 23.4534 0.0000 0.0000
# 5 0.0000 0.0000 0.0000 0.0000 23.4539 0.0000
# 6 0.0000 0.0000 0.0000 0.0000 0.0000 23.2335
#
#
#
# Elastic Compliance Matrix: (Units=1/GPa)
#
#
# Indices 1 2 3 4 5 6 
#
# 1 0.024994 -0.015339 -0.004254 0.000000 0.000000 0.000000
# 2 -0.015339 0.024993 -0.004254 0.000000 0.000000 0.000000
# 3 -0.004254 -0.004254 0.011554 0.000000 0.000000 0.000000
# 4 0.000000 0.000000 0.000000 0.042638 0.000000 0.000000
# 5 0.000000 0.000000 0.000000 0.000000 0.042637 0.000000
# 6 0.000000 0.000000 0.000000 0.000000 0.000000 0.043041
#
#
# Mechanical properties :
#
#
# Convention : Reuss Voigt Hill
#
# Bulk Modulus (GPa) = 72.22632 73.40766 72.81699
# Shear Modulus (GPa) = 20.64688 22.63265 21.63976
#
# Velocity S-wave (km/s) = 3.34251 3.49956 3.42193
# Velocity P-wave (km/s) = 7.34706 7.48674 7.41723
#
# Compressibility (1/GPa) = 0.01384537
#
# Stress axis : x y z
#
# Youngs Moduli (GPa) = 40.01023 40.01066 86.55051
#
# Poissons Ratio (x) = 0.61372 0.36823
# Poissons Ratio (y) = 0.61372 0.36821
# Poissons Ratio (z) = 0.17022 0.17022
#
# Static dielectric constant tensor:
#      x y z
#    x 3.265580 0.000000 0.000000 
#    y 0.000000 3.265580 0.000000 
#    z 0.000000 0.000000 3.563750 
# 
# 
# High freq. dielectric constant tensor:
#      x y z
#    x 1.696400 0.000000 0.000000 
#    y 0.000000 1.696400 0.000000 
#    z 0.000000 0.000000 1.736200 
# 
# From -- ./inp_files/8667.got.cif
#   From: 2010.03.12/outbox.cif.g09.slc.cpg/sg98_5_cif.got.tgz:8667.got - 2010.04.08 21:04:41.
