data_PCOD8306918
_publ_section_title
;
Structure prediction by ZEFSAII (Michael W. Deem and Ramdas Pophale) SiO2 
 PCOD8306918
Probable space group: P 42 N M
;
_chemical_formula_sum "Si O2"
_cell_formula_units_Z 48
_cell_length_a 11.158416
_cell_length_b 11.158416
_cell_length_c 18.370687
_cell_angle_alpha 90.000000
_cell_angle_beta 90.000000
_cell_angle_gamma 90.000000
_cell_volume 2287.338787
_symmetry_space_group_name_H-M "P 42 N M"
_symmetry_group_IT_number 102
_symmetry_cell_setting 'tetragonal'
loop_
_space_group_symop_operation_xyz
x,y,z
1/2-y,1/2+x,1/2+z
-x,-y,z
1/2+y,1/2-x,1/2+z
1/2-x,1/2+y,1/2+z
1/2+x,1/2-y,1/2+z
-y,-x,z
y,x,z
loop_
_atom_site_type_symbol
_atom_site_label
_atom_site_fract_x
_atom_site_fract_y
_atom_site_fract_z
Si Si1 0.942194 0.753830 0.762740
Si Si2 0.246169 0.942196 0.262738
Si Si3 0.940241 0.247750 0.613960
Si Si4 0.747754 0.440236 0.613958
Si Si5 0.899532 0.399533 0.860411
Si Si6 0.153833 0.346168 0.523060
O O1 0.862614 0.862614 0.796269
O O2 0.861691 0.638308 0.746211
O O3 0.991968 0.797979 0.685535
O O4 0.047124 0.715845 0.818128
O O5 0.137384 0.862617 0.296265
O O6 0.202024 0.991971 0.185533
O O7 0.284155 0.047126 0.318126
O O8 0.864242 0.135759 0.581030
O O9 0.852505 0.352501 0.640340
O O10 0.026108 0.302502 0.552746
O O11 0.635765 0.364236 0.581027
O O12 0.802509 0.526102 0.552744
O O13 0.000000 0.500000 0.872973
O O14 0.852537 0.352540 0.936720
O O15 0.250005 0.250005 0.549042
#
# Coordination Sequence:
#
# PCOD8306918 Si02
#       6
#     8   8   8   8   8   8
#     4  10  20  37  64  95 126 164 214 268 319 379
#     4  10  20  37  64  95 126 164 214 268 319 379
#     4  11  23  40  66  95 125 167 220 270 319 380
#     4  11  23  40  66  95 125 167 220 270 319 380
#     4  10  22  40  62  90 126 173 212 257 320 388
#     4  12  26  42  62  92 134 171 212 266 325 389
#
# _framework density 20.985085000000002
#
# number of rings (size 3 to 8) (size 9 to 14) (size 15 to 20)
#    0.000    1.333    3.333    2.500    0.000    5.333 
#    0.000    3.333    0.000    0.000    0.000    0.000 
#    0.000    0.000    0.000    0.000    0.000    0.000 
#
# Total GULP energy -595277.994179 kJ/mol
# GULP energy per Si atom -12401.624879 kJ/mol
# Density = 2.093732 g / cm^3
# Si number density = 20.985085 Si / 1000 Ang^3
#
#
#
# Elastic Constant Matrix: (Units=GPa)
#
#
# Indices 1 2 3 4 5 6 
#
# 1 101.9259 69.3522 45.2187 0.0000 0.0000 -0.0003
# 2 69.3522 101.9259 45.2187 0.0000 0.0000 0.0003
# 3 45.2187 45.2187 116.2018 0.0000 0.0000 0.0000
# 4 0.0000 0.0000 0.0000 17.6442 0.0000 0.0000
# 5 0.0000 0.0000 0.0000 0.0000 17.6442 0.0000
# 6 -0.0003 0.0003 0.0000 0.0000 0.0000 44.4830
#
#
#
# Elastic Compliance Matrix: (Units=1/GPa)
#
#
# Indices 1 2 3 4 5 6 
#
# 1 0.019024 -0.011676 -0.002860 0.000000 0.000000 0.000000
# 2 -0.011676 0.019024 -0.002860 0.000000 0.000000 0.000000
# 3 -0.002860 -0.002860 0.010831 0.000000 0.000000 0.000000
# 4 0.000000 0.000000 0.000000 0.056676 0.000000 0.000000
# 5 0.000000 0.000000 0.000000 0.000000 0.056676 0.000000
# 6 0.000000 0.000000 0.000000 0.000000 0.000000 0.022481
#
#
# Mechanical properties :
#
#
# Convention : Reuss Voigt Hill
#
# Bulk Modulus (GPa) = 70.97338 71.07030 71.02184
# Shear Modulus (GPa) = 22.30175 26.63852 24.47013
#
# Velocity S-wave (km/s) = 3.26351 3.56673 3.41849
# Velocity P-wave (km/s) = 6.93505 7.13461 7.03554
#
# Compressibility (1/GPa) = 0.01408979
#
# Stress axis : x y z
#
# Youngs Moduli (GPa) = 52.56519 52.56519 92.32561
#
# Poissons Ratio (x) = 0.61373 0.26401
# Poissons Ratio (y) = 0.61373 0.26401
# Poissons Ratio (z) = 0.15031 0.15031
#
# Static dielectric constant tensor:
#      x y z
#    x 3.906430 0.000000 0.000000 
#    y 0.000000 3.906430 0.000000 
#    z 0.000000 0.000000 3.456410 
# 
# 
# High freq. dielectric constant tensor:
#      x y z
#    x 1.829600 0.000000 0.000000 
#    y 0.000000 1.829600 0.000000 
#    z 0.000000 0.000000 1.798460 
# 
# From -- ./inp_files/2742.got.cif
#   From: 2010.03.12/outbox.cif.g09.slc.cpg/sg102_2_cif.got.tgz:2742.got - 2010.04.14 01:40:42.
