data_PCOD8306566
_publ_section_title
;
Structure prediction by ZEFSAII (Michael W. Deem and Ramdas Pophale) SiO2 
 PCOD8306566
Probable space group: P 4 M M
;
_chemical_formula_sum "Si O2"
_cell_formula_units_Z 48
_cell_length_a 13.801590
_cell_length_b 13.801590
_cell_length_c 15.029935
_cell_angle_alpha 90.000000
_cell_angle_beta 90.000000
_cell_angle_gamma 90.000000
_cell_volume 2862.960433
_symmetry_space_group_name_H-M "P 4 M M"
_symmetry_group_IT_number 99
_symmetry_cell_setting 'tetragonal'
loop_
_space_group_symop_operation_xyz
x,y,z
-y,x,z
-x,-y,z
y,-x,z
-x,y,z
x,-y,z
-y,-x,z
y,x,z
loop_
_atom_site_type_symbol
_atom_site_label
_atom_site_fract_x
_atom_site_fract_y
_atom_site_fract_z
Si Si1 0.885361 0.607228 0.005890
Si Si2 0.114410 0.271794 0.835956
Si Si3 0.267100 0.888966 0.168038
Si Si4 0.110930 0.268642 0.369664
Si Si5 0.231410 0.388273 0.700081
Si Si6 0.766875 0.610175 0.494927
O O1 0.839174 0.500000 0.995572
O O2 0.851127 0.650689 0.100468
O O3 0.000000 0.598421 0.002716
O O4 0.850501 0.676276 0.926351
O O5 0.169045 0.169045 0.827977
O O6 0.142835 0.342445 0.754939
O O7 0.000000 0.251751 0.833412
O O8 0.168387 0.831613 0.151491
O O9 0.305446 0.874418 0.268448
O O10 0.241098 0.000000 0.148008
O O11 0.171375 0.171375 0.388617
O O12 0.144059 0.354429 0.434609
O O13 0.000000 0.242908 0.389346
O O14 0.247171 0.500000 0.727023
O O15 0.331277 0.331277 0.720699
O O16 0.202132 0.377865 0.597193
O O17 0.742465 0.500000 0.471323
O O18 0.670875 0.670875 0.472275
#
# Coordination Sequence:
#
# PCOD8306566 Si02
#       6
#     8   8   8   8   8   8
#     4   9  17  29  45  65  89 117 149 185 225 270
#     4  10  20  33  49  69  94 124 158 196 235 276
#     4   9  17  29  45  66  92 121 153 189 229 274
#     4   9  18  31  46  66  93 124 159 198 236 276
#     4   9  18  32  50  72  96 122 153 190 233 280
#     4   9  18  32  49  70  95 121 152 192 236 282
#
# _framework density 16.765861999999998
#
# number of rings (size 3 to 8) (size 9 to 14) (size 15 to 20)
#    0.000    2.833    0.000    1.000    0.000    3.500 
#    0.000    6.667    0.000    3.000    0.000    4.667 
#    0.000    3.000    0.000    0.667    0.000    0.333 
#
# Total GULP energy -595178.633100 kJ/mol
# GULP energy per Si atom -12399.554856 kJ/mol
# Density = 1.672770 g / cm^3
# Si number density = 16.765862 Si / 1000 Ang^3
#
#
#
# Elastic Constant Matrix: (Units=GPa)
#
#
# Indices 1 2 3 4 5 6 
#
# 1 99.6419 43.7574 53.0390 0.0000 0.0000 0.0002
# 2 43.7574 99.6419 53.0390 0.0000 0.0000 -0.0002
# 3 53.0390 53.0390 90.0117 0.0000 0.0000 0.0000
# 4 0.0000 0.0000 0.0000 26.1931 0.0000 0.0000
# 5 0.0000 0.0000 0.0000 0.0000 26.1931 0.0000
# 6 0.0002 -0.0002 0.0000 0.0000 0.0000 13.4352
#
#
#
# Elastic Compliance Matrix: (Units=1/GPa)
#
#
# Indices 1 2 3 4 5 6 
#
# 1 0.015128 -0.002766 -0.007284 0.000000 0.000000 0.000000
# 2 -0.002766 0.015128 -0.007284 0.000000 0.000000 0.000000
# 3 -0.007284 -0.007284 0.019694 0.000000 0.000000 0.000000
# 4 0.000000 0.000000 0.000000 0.038178 0.000000 0.000000
# 5 0.000000 0.000000 0.000000 0.000000 0.038178 0.000000
# 6 0.000000 0.000000 0.000000 0.000000 0.000000 0.074432
#
#
# Mechanical properties :
#
#
# Convention : Reuss Voigt Hill
#
# Bulk Modulus (GPa) = 65.44044 65.44068 65.44056
# Shear Modulus (GPa) = 20.79000 22.46162 21.62581
#
# Velocity S-wave (km/s) = 3.52521 3.66419 3.59537
# Velocity P-wave (km/s) = 7.46232 7.55107 7.50682
#
# Compressibility (1/GPa) = 0.01528107
#
# Stress axis : x y z
#
# Youngs Moduli (GPa) = 66.10267 66.10267 50.77679
#
# Poissons Ratio (x) = 0.18284 0.36987
# Poissons Ratio (y) = 0.18284 0.36987
# Poissons Ratio (z) = 0.48151 0.48151
#
# Static dielectric constant tensor:
#      x y z
#    x 3.081790 0.000000 0.000000 
#    y 0.000000 3.081790 0.000000 
#    z 0.000000 0.000000 3.335980 
# 
# 
# High freq. dielectric constant tensor:
#      x y z
#    x 1.634750 0.000000 0.000000 
#    y 0.000000 1.634750 0.000000 
#    z 0.000000 0.000000 1.656770 
# 
# From -- ./inp_files/1396.got.cif
#   From: 2010.03.12/outbox.cif.g09.slc.cpg/sg99_cif.got.tgz:1396.got - 2010.04.08 21:11:30.
