data_PCOD8306318
_publ_section_title
;
Structure prediction by ZEFSAII (Michael W. Deem and Ramdas Pophale) SiO2 
 PCOD8306318
Probable space group: I 41 2 2
;
_chemical_formula_sum "Si O2"
_cell_formula_units_Z 76
_cell_length_a 14.351698
_cell_length_b 14.351698
_cell_length_c 18.270154
_cell_angle_alpha 90.000000
_cell_angle_beta 90.000000
_cell_angle_gamma 90.000000
_cell_volume 3763.126192
_symmetry_space_group_name_H-M "I 41 2 2"
_symmetry_group_IT_number 98
_symmetry_cell_setting 'tetragonal'
loop_
_space_group_symop_operation_xyz
x,y,z
-y,1/2+x,1/4+z
-x,-y,z
y,1/2-x,1/4+z
x,1/2-y,1/4-z
-x,1/2+y,1/4-z
y,x,-z
-y,-x,-z
1/2+x,1/2+y,1/2+z
1/2-y,x,3/4+z
1/2-x,1/2-y,1/2+z
1/2+y,-x,3/4+z
1/2+x,-y,3/4-z
1/2-x,y,3/4-z
1/2+y,1/2+x,1/2-z
1/2-y,1/2-x,1/2-z
loop_
_atom_site_type_symbol
_atom_site_label
_atom_site_fract_x
_atom_site_fract_y
_atom_site_fract_z
Si Si1 0.189196 0.967746 0.082916
Si Si2 0.302253 0.689811 0.804503
Si Si3 0.314410 0.381733 0.227510
Si Si4 0.000000 0.500000 0.250000
Si Si5 0.512300 0.107891 0.985742
Si Si6 0.695561 0.750000 0.625000
O O1 0.215178 0.859095 0.074137
O O2 0.178917 0.992878 0.167772
O O3 0.275672 0.017552 0.043347
O O4 0.092854 0.999669 0.047371
O O5 0.250000 0.649098 0.875000
O O6 0.220042 0.720042 0.750000
O O7 0.371450 0.609150 0.776183
O O8 0.424443 0.371539 0.210989
O O9 0.303322 0.368447 0.315818
O O10 0.260614 0.312720 0.174803
O O11 0.500000 0.000000 0.960801
#
# Coordination Sequence:
#
# PCOD8306318 Si02
#       6
#    16  16  16   4  16   8
#     4  12  24  41  66 101 135 178 227 281 352 426
#     4  12  26  46  69  97 138 187 239 292 343 417
#     4  11  23  41  63  96 131 177 225 280 345 413
#     4  12  24  36  68 108 140 172 218 280 360 432
#     4  12  25  43  67  96 138 183 230 282 348 411
#     4  10  22  40  64  90 132 170 216 286 342 406
#
# _framework density 20.195976000000002
#
# number of rings (size 3 to 8) (size 9 to 14) (size 15 to 20)
#    0.000    0.421    8.421    1.263    1.474    0.000 
#    1.895    0.000    0.000    3.158    0.000    0.000 
#    0.000    0.000    0.000    0.000    0.000    0.000 
#
# Total GULP energy -470960.349507 kJ/mol
# GULP energy per Si atom -12393.693408 kJ/mol
# Density = 2.015001 g / cm^3
# Si number density = 20.195976 Si / 1000 Ang^3
#
#
#
# Elastic Constant Matrix: (Units=GPa)
#
#
# Indices 1 2 3 4 5 6 
#
# 1 108.3545 35.7359 41.7838 0.0000 0.0000 0.0000
# 2 35.7359 108.3545 41.7838 0.0000 0.0000 0.0000
# 3 41.7838 41.7838 114.1178 0.0000 0.0000 0.0000
# 4 0.0000 0.0000 0.0000 27.0388 0.0000 0.0000
# 5 0.0000 0.0000 0.0000 0.0000 27.0388 0.0000
# 6 0.0000 0.0000 0.0000 0.0000 0.0000 29.7231
#
#
#
# Elastic Compliance Matrix: (Units=1/GPa)
#
#
# Indices 1 2 3 4 5 6 
#
# 1 0.011291 -0.002480 -0.003226 0.000000 0.000000 0.000000
# 2 -0.002480 0.011291 -0.003226 0.000000 0.000000 0.000000
# 3 -0.003226 -0.003226 0.011125 0.000000 0.000000 0.000000
# 4 0.000000 0.000000 0.000000 0.036984 0.000000 0.000000
# 5 0.000000 0.000000 0.000000 0.000000 0.036984 0.000000
# 6 0.000000 0.000000 0.000000 0.000000 0.000000 0.033644
#
#
# Mechanical properties :
#
#
# Convention : Reuss Voigt Hill
#
# Bulk Modulus (GPa) = 63.11933 63.27041 63.19487
# Shear Modulus (GPa) = 30.40184 30.86171 30.63177
#
# Velocity S-wave (km/s) = 3.88408 3.91335 3.89874
# Velocity P-wave (km/s) = 7.17189 7.19828 7.18510
#
# Compressibility (1/GPa) = 0.01584301
#
# Stress axis : x y z
#
# Youngs Moduli (GPa) = 88.56719 88.56719 89.88461
#
# Poissons Ratio (x) = 0.21962 0.28998
# Poissons Ratio (y) = 0.21962 0.28998
# Poissons Ratio (z) = 0.28573 0.28573
#
# Static dielectric constant tensor:
#      x y z
#    x 3.825520 0.000000 0.000000 
#    y 0.000000 3.825520 0.000000 
#    z 0.000000 0.000000 3.674010 
# 
# 
# High freq. dielectric constant tensor:
#      x y z
#    x 1.793560 0.000000 0.000000 
#    y 0.000000 1.793560 0.000000 
#    z 0.000000 0.000000 1.784260 
# 
# From -- ./inp_files/8746.got.cif
#   From: 2010.03.12/outbox.cif.g09.slc.cpg/sg98_5_cif.got.tgz:8746.got - 2010.04.08 21:04:41.
