data_PCOD8306401
_publ_section_title
;
Structure prediction by ZEFSAII (Michael W. Deem and Ramdas Pophale) SiO2 
 PCOD8306401
Probable space group: I 41 2 2
;
_chemical_formula_sum "Si O2"
_cell_formula_units_Z 64
_cell_length_a 10.123934
_cell_length_b 10.123934
_cell_length_c 24.863649
_cell_angle_alpha 90.000000
_cell_angle_beta 90.000000
_cell_angle_gamma 90.000000
_cell_volume 2548.375826
_symmetry_space_group_name_H-M "I 41 2 2"
_symmetry_group_IT_number 98
_symmetry_cell_setting 'tetragonal'
loop_
_space_group_symop_operation_xyz
x,y,z
-y,1/2+x,1/4+z
-x,-y,z
y,1/2-x,1/4+z
x,1/2-y,1/4-z
-x,1/2+y,1/4-z
y,x,-z
-y,-x,-z
1/2+x,1/2+y,1/2+z
1/2-y,x,3/4+z
1/2-x,1/2-y,1/2+z
1/2+y,-x,3/4+z
1/2+x,-y,3/4-z
1/2-x,y,3/4-z
1/2+y,1/2+x,1/2-z
1/2-y,1/2-x,1/2-z
loop_
_atom_site_type_symbol
_atom_site_label
_atom_site_fract_x
_atom_site_fract_y
_atom_site_fract_z
Si Si1 0.024722 0.159460 0.933425
Si Si2 0.659559 0.340442 0.000000
Si Si3 0.386930 0.599451 0.116891
Si Si4 0.250000 0.056474 0.875000
Si Si5 0.645549 0.454462 0.269032
O O1 0.923836 0.244780 0.896056
O O2 0.163290 0.166498 0.904269
O O3 0.033524 0.231516 0.991493
O O4 0.000000 0.000000 0.937951
O O5 0.574938 0.378057 0.947504
O O6 0.643992 0.185585 0.009534
O O7 0.500000 0.500000 0.139637
O O8 0.431934 0.750000 0.125000
O O9 0.326885 0.960586 0.916974
O O10 0.500000 0.500000 0.255376
#
# Coordination Sequence:
#
# PCOD8306401 Si02
#       5
#    16   8  16   8  16
#     4  12  27  49  79 115 162 213 270 339 407 484
#     4  12  25  44  81 104 154 206 267 324 405 474
#     4  12  28  52  78 115 159 212 270 331 411 484
#     4  12  26  44  74 116 160 206 270 330 402 480
#     4  12  27  48  77 118 161 211 266 336 408 486
#
# _framework density 25.114037
#
# number of rings (size 3 to 8) (size 9 to 14) (size 15 to 20)
#    0.000    0.000    2.500    7.125    5.250    2.000 
#    0.000    5.000    0.000    0.000    0.000    0.000 
#    0.000    0.000    0.000    0.000    0.000    0.000 
#
# Total GULP energy -396417.860623 kJ/mol
# GULP energy per Si atom -12388.058144 kJ/mol
# Density = 2.505688 g / cm^3
# Si number density = 25.114037 Si / 1000 Ang^3
#
#
#
# Elastic Constant Matrix: (Units=GPa)
#
#
# Indices 1 2 3 4 5 6 
#
# 1 164.1098 71.9169 36.2619 0.0000 0.0000 0.0000
# 2 71.9169 164.1087 36.2619 0.0000 0.0000 0.0000
# 3 36.2619 36.2619 153.9772 0.0000 0.0000 0.0000
# 4 0.0000 0.0000 0.0000 28.5784 0.0000 0.0000
# 5 0.0000 0.0000 0.0000 0.0000 28.5783 0.0000
# 6 0.0000 0.0000 0.0000 0.0000 0.0000 37.9842
#
#
#
# Elastic Compliance Matrix: (Units=1/GPa)
#
#
# Indices 1 2 3 4 5 6 
#
# 1 0.007707 -0.003140 -0.001076 0.000000 0.000000 0.000000
# 2 -0.003140 0.007707 -0.001076 0.000000 0.000000 0.000000
# 3 -0.001076 -0.001076 0.007001 0.000000 0.000000 0.000000
# 4 0.000000 0.000000 0.000000 0.034991 0.000000 0.000000
# 5 0.000000 0.000000 0.000000 0.000000 0.034992 0.000000
# 6 0.000000 0.000000 0.000000 0.000000 0.000000 0.026327
#
#
# Mechanical properties :
#
#
# Convention : Reuss Voigt Hill
#
# Bulk Modulus (GPa) = 84.50743 85.67524 85.09134
# Shear Modulus (GPa) = 37.52304 41.54519 39.53411
#
# Velocity S-wave (km/s) = 3.86956 4.07167 3.97190
# Velocity P-wave (km/s) = 7.32715 7.50288 7.41554
#
# Compressibility (1/GPa) = 0.01183328
#
# Stress axis : x y z
#
# Youngs Moduli (GPa) = 129.75086 129.75002 142.83502
#
# Poissons Ratio (x) = 0.40739 0.15363
# Poissons Ratio (y) = 0.40739 0.15364
# Poissons Ratio (z) = 0.13956 0.13956
#
# Static dielectric constant tensor:
#      x y z
#    x 4.617850 0.000000 0.000000 
#    y 0.000000 4.617860 0.000000 
#    z 0.000000 0.000000 4.923710 
# 
# 
# High freq. dielectric constant tensor:
#      x y z
#    x 1.996850 0.000000 0.000000 
#    y 0.000000 1.996850 0.000000 
#    z 0.000000 0.000000 2.035440 
# 
# From -- ./inp_files/9882.got.cif
#   From: 2010.03.12/outbox.cif.g09.slc.cpg/sg98_5_cif.got.tgz:9882.got - 2010.04.08 21:04:41.
