data_PCOD8306186
_publ_section_title
;
Structure prediction by ZEFSAII (Michael W. Deem and Ramdas Pophale) SiO2 
 PCOD8306186
Probable space group: I 4 2 2 
;
_chemical_formula_sum "Si O2"
_cell_formula_units_Z 104
_cell_length_a 18.996741
_cell_length_b 18.996741
_cell_length_c 17.601322
_cell_angle_alpha 90.000000
_cell_angle_beta 90.000000
_cell_angle_gamma 90.000000
_cell_volume 6351.897646
_symmetry_space_group_name_H-M "I 4 2 2 "
_symmetry_group_IT_number 97
_symmetry_cell_setting 'tetragonal'
loop_
_space_group_symop_operation_xyz
x,y,z
-y,x,z
-x,-y,z
y,-x,z
x,-y,-z
-x,y,-z
y,x,-z
-y,-x,-z
1/2+x,1/2+y,1/2+z
1/2-y,1/2+x,1/2+z
1/2-x,1/2-y,1/2+z
1/2+y,1/2-x,1/2+z
1/2+x,1/2-y,1/2-z
1/2-x,1/2+y,1/2-z
1/2+y,1/2+x,1/2-z
1/2-y,1/2-x,1/2-z
loop_
_atom_site_type_symbol
_atom_site_label
_atom_site_fract_x
_atom_site_fract_y
_atom_site_fract_z
Si Si1 0.155080 0.734531 0.628683
Si Si2 0.769945 0.346496 0.124100
Si Si3 0.348957 0.237182 0.503015
Si Si4 0.123859 0.623859 0.250000
Si Si5 0.914057 0.502709 0.352902
Si Si6 0.305234 0.577896 0.998674
Si Si7 0.821783 0.500000 0.500000
Si Si8 0.627942 0.127942 0.250000
O O1 0.204489 0.799640 0.651617
O O2 0.199946 0.679124 0.579152
O O3 0.089736 0.760093 0.577608
O O4 0.124257 0.703009 0.706987
O O5 0.823128 0.301041 0.073236
O O6 0.806191 0.377942 0.198792
O O7 0.743283 0.411125 0.072632
O O8 0.317662 0.317662 0.500000
O O9 0.433676 0.231652 0.504325
O O10 0.121188 0.557206 0.303381
O O11 0.878837 0.495259 0.433783
O O12 0.885675 0.574084 0.317345
O O13 0.000000 0.500000 0.355365
O O14 0.335863 0.500000 0.000000
O O15 0.369524 0.630477 0.000000
#
# Coordination Sequence:
#
# PCOD8306186 Si02
#       8
#    16  16  16   8  16  16   8   8
#     4   9  19  34  52  75 100 129 173 216 256 302
#     4   9  19  34  52  75 100 129 173 216 256 302
#     4   9  18  34  54  76  99 128 176 218 244 307
#     4  12  20  34  50  72 106 140 164 218 252 284
#     4  12  25  36  46  76 115 141 179 204 236 316
#     4   9  19  34  51  75 101 132 174 215 257 322
#     4  12  21  40  56  71 102 154 172 196 272 309
#     4  12  20  34  50  72 106 140 164 218 252 284
#
# _framework density 16.373061
#
# number of rings (size 3 to 8) (size 9 to 14) (size 15 to 20)
#    0.000    1.846    4.615    2.538    2.154    0.154 
#    0.000    0.000    0.000    0.231    0.000    0.000 
#    0.000    0.000    0.000    0.000    0.000    0.000 
#
# Total GULP energy -644387.535622 kJ/mol
# GULP energy per Si atom -12392.067993 kJ/mol
# Density = 1.633580 g / cm^3
# Si number density = 16.373061 Si / 1000 Ang^3
#
#
#
# Elastic Constant Matrix: (Units=GPa)
#
#
# Indices 1 2 3 4 5 6 
#
# 1 86.3883 32.2957 29.4499 0.0000 0.0000 0.0000
# 2 32.2957 86.3866 29.4493 0.0000 0.0000 0.0000
# 3 29.4499 29.4493 80.9521 0.0000 0.0000 0.0000
# 4 0.0000 0.0000 0.0000 24.6758 0.0000 0.0000
# 5 0.0000 0.0000 0.0000 0.0000 24.6754 0.0000
# 6 0.0000 0.0000 0.0000 0.0000 0.0000 17.8215
#
#
#
# Elastic Compliance Matrix: (Units=1/GPa)
#
#
# Indices 1 2 3 4 5 6 
#
# 1 0.014384 -0.004102 -0.003741 0.000000 0.000000 0.000000
# 2 -0.004102 0.014385 -0.003741 0.000000 0.000000 0.000000
# 3 -0.003741 -0.003741 0.015075 0.000000 0.000000 0.000000
# 4 0.000000 0.000000 0.000000 0.040525 0.000000 0.000000
# 5 0.000000 0.000000 0.000000 0.000000 0.040526 0.000000
# 6 0.000000 0.000000 0.000000 0.000000 0.000000 0.056112
#
#
# Mechanical properties :
#
#
# Convention : Reuss Voigt Hill
#
# Bulk Modulus (GPa) = 48.36380 48.45742 48.41061
# Shear Modulus (GPa) = 23.68917 24.27001 23.97959
#
# Velocity S-wave (km/s) = 3.80786 3.85426 3.83113
# Velocity P-wave (km/s) = 6.99541 7.03329 7.01438
#
# Compressibility (1/GPa) = 0.02067662
#
# Stress axis : x y z
#
# Youngs Moduli (GPa) = 69.51935 69.51808 66.33707
#
# Poissons Ratio (x) = 0.28520 0.24814
# Poissons Ratio (y) = 0.28520 0.24814
# Poissons Ratio (z) = 0.26004 0.26003
#
# Static dielectric constant tensor:
#      x y z
#    x 3.089160 0.000000 0.000000 
#    y 0.000000 3.089160 0.000000 
#    z 0.000000 0.000000 3.092670 
# 
# 
# High freq. dielectric constant tensor:
#      x y z
#    x 1.617750 0.000000 0.000000 
#    y 0.000000 1.617750 0.000000 
#    z 0.000000 0.000000 1.640240 
# 
# From -- ./inp_files/5889.got.cif
#   From: 2010.03.12/outbox.cif.g09.slc.cpg/sg97_3_cif.got.tgz:5889.got - 2010.04.08 20:59:42.
