data_PCOD8306610
_publ_section_title
;
Structure prediction by ZEFSAII (Michael W. Deem and Ramdas Pophale) SiO2 
 PCOD8306610
Probable space group: P 4 M M
;
_chemical_formula_sum "Si O2"
_cell_formula_units_Z 40
_cell_length_a 16.364041
_cell_length_b 16.364041
_cell_length_c 7.448189
_cell_angle_alpha 90.000000
_cell_angle_beta 90.000000
_cell_angle_gamma 90.000000
_cell_volume 1994.489739
_symmetry_space_group_name_H-M "P 4 M M"
_symmetry_group_IT_number 99
_symmetry_cell_setting 'tetragonal'
loop_
_space_group_symop_operation_xyz
x,y,z
-y,x,z
-x,-y,z
y,-x,z
-x,y,z
x,-y,z
-y,-x,z
y,x,z
loop_
_atom_site_type_symbol
_atom_site_label
_atom_site_fract_x
_atom_site_fract_y
_atom_site_fract_z
Si Si1 0.500000 0.628390 0.314780
Si Si2 0.657448 0.094556 0.730641
Si Si3 0.200719 0.500000 0.385532
Si Si4 0.366317 0.500000 0.895059
Si Si5 0.500000 0.820243 0.778176
Si Si6 0.222829 0.092176 0.053482
Si Si7 0.319398 0.184384 0.354747
O O1 0.420231 0.579770 0.367528
O O2 0.500000 0.704945 0.444680
O O3 0.500000 0.651630 0.105947
O O4 0.582970 0.136419 0.844794
O O5 0.680670 0.145597 0.553146
O O6 0.637223 0.000000 0.683347
O O7 0.733527 0.100587 0.862790
O O8 0.151031 0.500000 0.568802
O O9 0.188438 0.586088 0.280311
O O10 0.419122 0.419122 0.842841
O O11 0.277346 0.500000 0.804022
O O12 0.137432 0.137432 0.038541
O O13 0.275739 0.125541 0.217071
O O14 0.202410 0.000000 0.101613
O O15 0.273046 0.273046 0.358789
#
# Coordination Sequence:
#
# PCOD8306610 Si02
#       7
#     4   8   4   4   4   8   8
#     4   9  18  32  48  68 100 143 187 232 279 323
#     4  10  21  38  58  83 116 150 187 234 287 342
#     4  10  21  34  50  79 111 145 187 236 276 322
#     4   9  20  35  50  73 106 146 190 234 281 332
#     4  10  22  35  54  80 110 146 191 235 280 335
#     4  10  22  39  61  87 112 145 185 230 289 350
#     4  10  21  37  58  85 117 153 194 235 282 338
#
# _framework density 20.055256
#
# number of rings (size 3 to 8) (size 9 to 14) (size 15 to 20)
#    0.000    2.200    0.000    2.700    2.800    5.000 
#    0.000    3.500    0.000    0.000    0.000    2.800 
#    0.000    0.000    0.000    0.000    0.000    0.000 
#
# Total GULP energy -495560.749492 kJ/mol
# GULP energy per Si atom -12389.018737 kJ/mol
# Density = 2.000961 g / cm^3
# Si number density = 20.055256 Si / 1000 Ang^3
#
#
#
# Elastic Constant Matrix: (Units=GPa)
#
#
# Indices 1 2 3 4 5 6 
#
# 1 154.9213 71.0195 25.9066 0.0000 0.0000 0.0001
# 2 71.0195 154.9213 25.9066 0.0000 0.0000 -0.0001
# 3 25.9066 25.9066 47.8238 0.0000 0.0000 0.0000
# 4 0.0000 0.0000 0.0000 19.8281 0.0000 0.0000
# 5 0.0000 0.0000 0.0000 0.0000 19.8281 0.0000
# 6 0.0001 -0.0001 0.0000 0.0000 0.0000 24.8208
#
#
#
# Elastic Compliance Matrix: (Units=1/GPa)
#
#
# Indices 1 2 3 4 5 6 
#
# 1 0.008486 -0.003432 -0.002738 0.000000 0.000000 0.000000
# 2 -0.003432 0.008486 -0.002738 0.000000 0.000000 0.000000
# 3 -0.002738 -0.002738 0.023876 0.000000 0.000000 0.000000
# 4 0.000000 0.000000 0.000000 0.050434 0.000000 0.000000
# 5 0.000000 0.000000 0.000000 0.000000 0.050434 0.000000
# 6 0.000000 0.000000 0.000000 0.000000 0.000000 0.040289
#
#
# Mechanical properties :
#
#
# Convention : Reuss Voigt Hill
#
# Bulk Modulus (GPa) = 43.41600 67.03686 55.22643
# Shear Modulus (GPa) = 24.09666 28.55098 26.32382
#
# Velocity S-wave (km/s) = 3.47005 3.77718 3.62686
# Velocity P-wave (km/s) = 6.14411 7.24716 6.71832
#
# Compressibility (1/GPa) = 0.02303299
#
# Stress axis : x y z
#
# Youngs Moduli (GPa) = 117.83815 117.83815 41.88281
#
# Poissons Ratio (x) = 0.40448 0.11466
# Poissons Ratio (y) = 0.40448 0.11466
# Poissons Ratio (z) = 0.32260 0.32260
#
# Static dielectric constant tensor:
#      x y z
#    x 3.816760 0.000000 0.000000 
#    y 0.000000 3.816760 0.000000 
#    z 0.000000 0.000000 3.442500 
# 
# 
# High freq. dielectric constant tensor:
#      x y z
#    x 1.787650 0.000000 0.000000 
#    y 0.000000 1.787650 0.000000 
#    z 0.000000 0.000000 1.775560 
# 
# From -- ./inp_files/833.got.cif
#   From: 2010.03.12/outbox.cif.g09.slc.cpg/sg99_cif.got.tgz:833.got - 2010.04.08 21:11:30.
