data_PCOD8306071
_publ_section_title
;
Structure prediction by ZEFSAII (Michael W. Deem and Ramdas Pophale) SiO2 
 PCOD8306071
Probable space group: I 4 2 2 
;
_chemical_formula_sum "Si O2"
_cell_formula_units_Z 44
_cell_length_a 7.990618
_cell_length_b 7.990618
_cell_length_c 32.060198
_cell_angle_alpha 90.000000
_cell_angle_beta 90.000000
_cell_angle_gamma 90.000000
_cell_volume 2047.042874
_symmetry_space_group_name_H-M "I 4 2 2 "
_symmetry_group_IT_number 97
_symmetry_cell_setting 'tetragonal'
loop_
_space_group_symop_operation_xyz
x,y,z
-y,x,z
-x,-y,z
y,-x,z
x,-y,-z
-x,y,-z
y,x,-z
-y,-x,-z
1/2+x,1/2+y,1/2+z
1/2-y,1/2+x,1/2+z
1/2-x,1/2-y,1/2+z
1/2+y,1/2-x,1/2+z
1/2+x,1/2-y,1/2-z
1/2-x,1/2+y,1/2-z
1/2+y,1/2+x,1/2-z
1/2-y,1/2-x,1/2-z
loop_
_atom_site_type_symbol
_atom_site_label
_atom_site_fract_x
_atom_site_fract_y
_atom_site_fract_z
Si Si1 0.000000 0.500000 0.359620
Si Si2 0.921976 0.265357 0.288852
Si Si3 0.234673 0.420241 0.430483
Si Si4 0.500000 0.000000 0.500000
O O1 0.895251 0.370802 0.331105
O O2 0.869944 0.604464 0.388057
O O3 0.886604 0.386604 0.250000
O O4 0.112777 0.205949 0.287437
O O5 0.387006 0.293230 0.432189
O O6 0.116576 0.384646 0.470362
#
# Coordination Sequence:
#
# PCOD8306071 Si02
#       4
#     8  16  16   4
#     4  11  21  37  59  86 118 150 193 245 301 357
#     4  11  23  39  60  86 120 161 205 254 304 359
#     4  10  21  37  59  85 113 148 189 235 289 353
#     4  10  20  34  58  82 110 142 182 230 276 336
#
# _framework density 21.494422
#
# number of rings (size 3 to 8) (size 9 to 14) (size 15 to 20)
#    0.000    1.455    0.000    6.000    0.000    1.455 
#    0.000    3.636    0.000   41.455    0.000    0.000 
#    0.000    0.000    0.000    0.000    0.000    0.000 
#
# Total GULP energy -272848.913853 kJ/mol
# GULP energy per Si atom -12402.223357 kJ/mol
# Density = 2.144550 g / cm^3
# Si number density = 21.494422 Si / 1000 Ang^3
#
#
#
# Elastic Constant Matrix: (Units=GPa)
#
#
# Indices 1 2 3 4 5 6 
#
# 1 87.5585 20.5601 48.9126 0.0000 0.0000 0.0000
# 2 20.5601 87.5585 48.9126 0.0000 0.0000 0.0000
# 3 48.9126 48.9126 179.1056 0.0000 0.0000 0.0000
# 4 0.0000 0.0000 0.0000 24.1564 0.0000 0.0000
# 5 0.0000 0.0000 0.0000 0.0000 24.1564 0.0000
# 6 0.0000 0.0000 0.0000 0.0000 0.0000 28.4366
#
#
#
# Elastic Compliance Matrix: (Units=1/GPa)
#
#
# Indices 1 2 3 4 5 6 
#
# 1 0.013605 -0.001321 -0.003355 0.000000 0.000000 0.000000
# 2 -0.001321 0.013605 -0.003355 0.000000 0.000000 0.000000
# 3 -0.003355 -0.003355 0.007416 0.000000 0.000000 0.000000
# 4 0.000000 0.000000 0.000000 0.041397 0.000000 0.000000
# 5 0.000000 0.000000 0.000000 0.000000 0.041397 0.000000
# 6 0.000000 0.000000 0.000000 0.000000 0.000000 0.035166
#
#
# Mechanical properties :
#
#
# Convention : Reuss Voigt Hill
#
# Bulk Modulus (GPa) = 53.86358 65.66593 59.76475
# Shear Modulus (GPa) = 28.59845 31.07236 29.83540
#
# Velocity S-wave (km/s) = 3.65157 3.80623 3.72970
# Velocity P-wave (km/s) = 6.54922 7.06633 6.81269
#
# Compressibility (1/GPa) = 0.01856542
#
# Stress axis : x y z
#
# Youngs Moduli (GPa) = 73.50166 73.50168 134.84963
#
# Poissons Ratio (x) = 0.09707 0.45240
# Poissons Ratio (y) = 0.09707 0.45240
# Poissons Ratio (z) = 0.24659 0.24659
#
# Static dielectric constant tensor:
#      x y z
#    x 3.772450 0.000000 0.000000 
#    y 0.000000 3.772450 0.000000 
#    z 0.000000 0.000000 4.045900 
# 
# 
# High freq. dielectric constant tensor:
#      x y z
#    x 1.837240 0.000000 0.000000 
#    y 0.000000 1.837240 0.000000 
#    z 0.000000 0.000000 1.863350 
# 
# From -- ./inp_files/7786.got.cif
#   From: 2010.03.12/outbox.cif.g09.slc.cpg/sg97_4_cif.got.tgz:7786.got - 2010.04.08 20:59:42.
