data_PCOD8306431
_publ_section_title
;
Structure prediction by ZEFSAII (Michael W. Deem and Ramdas Pophale) SiO2 
 PCOD8306431
Probable space group: P 4 M M
;
_chemical_formula_sum "Si O2"
_cell_formula_units_Z 64
_cell_length_a 13.901762
_cell_length_b 13.901762
_cell_length_c 20.921259
_cell_angle_alpha 90.000000
_cell_angle_beta 90.000000
_cell_angle_gamma 90.000000
_cell_volume 4043.221315
_symmetry_space_group_name_H-M "P 4 M M"
_symmetry_group_IT_number 99
_symmetry_cell_setting 'tetragonal'
loop_
_space_group_symop_operation_xyz
x,y,z
-y,x,z
-x,-y,z
y,-x,z
-x,y,z
x,-y,z
-y,-x,z
y,x,z
loop_
_atom_site_type_symbol
_atom_site_label
_atom_site_fract_x
_atom_site_fract_y
_atom_site_fract_z
Si Si1 0.112922 0.733328 0.814560
Si Si2 0.114003 0.393592 0.559521
Si Si3 0.613741 0.768586 0.303012
Si Si4 0.107962 0.385033 0.422868
Si Si5 0.613866 0.892398 0.181777
Si Si6 0.768835 0.612969 0.061712
Si Si7 0.608925 0.114205 0.697265
Si Si8 0.610505 0.890083 0.937769
O O1 0.163666 0.836335 0.817968
O O2 0.154891 0.675485 0.753594
O O3 0.139718 0.673455 0.877319
O O4 0.000000 0.752437 0.808847
O O5 0.158855 0.500000 0.561925
O O6 0.145923 0.343699 0.492236
O O7 0.144360 0.345150 0.627496
O O8 0.000000 0.401080 0.556266
O O9 0.500000 0.748958 0.302056
O O10 0.666085 0.666085 0.297399
O O11 0.649122 0.820401 0.367688
O O12 0.646926 0.836364 0.244978
O O13 0.105727 0.500000 0.426428
O O14 0.000000 0.347334 0.407642
O O15 0.500000 0.900602 0.180105
O O16 0.650093 0.835385 0.119596
O O17 0.658560 0.000000 0.182163
O O18 0.746782 0.500000 0.067520
O O19 0.667311 0.667311 0.063822
O O20 0.823181 0.639275 0.996649
O O21 0.500000 0.154263 0.704675
O O22 0.605177 0.000000 0.703143
O O23 0.500000 0.875475 0.918070
O O24 0.629570 0.000000 0.958365
#
# Coordination Sequence:
#
# PCOD8306431 Si02
#       8
#     8   8   8   8   8   8   8   8
#     4  10  19  29  41  58  82 111 141 171 204 248
#     4   7  10  18  35  58  80 101 126 161 211 261
#     4  10  19  29  41  59  85 115 144 171 200 242
#     4   8  13  23  40  60  81 105 133 170 215 252
#     4   9  17  30  47  64  81 103 134 174 214 241
#     4  10  19  30  45  66  93 121 144 165 192 235
#     4   8  13  23  40  60  80 102 130 168 214 257
#     4   9  17  30  48  67  84 104 135 179 225 254
#
# _framework density 15.828962000000001
#
# number of rings (size 3 to 8) (size 9 to 14) (size 15 to 20)
#    0.000    3.125    0.000    3.375    0.000    4.875 
#    0.000    0.625    0.000    2.250    0.000    0.000 
#    0.000   22.000    0.000    0.000    0.000    2.500 
#
# Total GULP energy -792951.192232 kJ/mol
# GULP energy per Si atom -12389.862379 kJ/mol
# Density = 1.579293 g / cm^3
# Si number density = 15.828962 Si / 1000 Ang^3
#
#
#
# Elastic Constant Matrix: (Units=GPa)
#
#
# Indices 1 2 3 4 5 6 
#
# 1 56.0668 37.4301 47.5915 0.0000 0.0000 0.0001
# 2 37.4301 56.0668 47.5915 0.0000 0.0000 -0.0001
# 3 47.5915 47.5915 152.2723 0.0000 0.0000 0.0000
# 4 0.0000 0.0000 0.0000 7.5250 0.0000 0.0000
# 5 0.0000 0.0000 0.0000 0.0000 7.5250 0.0000
# 6 0.0001 -0.0001 0.0000 0.0000 0.0000 17.9337
#
#
#
# Elastic Compliance Matrix: (Units=1/GPa)
#
#
# Indices 1 2 3 4 5 6 
#
# 1 0.034672 -0.018985 -0.004903 0.000000 0.000000 0.000000
# 2 -0.018985 0.034672 -0.004903 0.000000 0.000000 0.000000
# 3 -0.004903 -0.004903 0.009632 0.000000 0.000000 0.000000
# 4 0.000000 0.000000 0.000000 0.132890 0.000000 0.000000
# 5 0.000000 0.000000 0.000000 0.000000 0.132890 0.000000
# 6 0.000000 0.000000 0.000000 0.000000 0.000000 0.055761
#
#
# Mechanical properties :
#
#
# Convention : Reuss Voigt Hill
#
# Bulk Modulus (GPa) = 46.74160 58.84800 52.79480
# Shear Modulus (GPa) = 10.74735 15.38292 13.06514
#
# Velocity S-wave (km/s) = 2.60853 3.12079 2.87608
# Velocity P-wave (km/s) = 6.21818 7.08829 6.66745
#
# Compressibility (1/GPa) = 0.02139422
#
# Stress axis : x y z
#
# Youngs Moduli (GPa) = 28.84157 28.84157 103.82254
#
# Poissons Ratio (x) = 0.54757 0.50902
# Poissons Ratio (y) = 0.54757 0.50902
# Poissons Ratio (z) = 0.14140 0.14140
#
# Static dielectric constant tensor:
#      x y z
#    x 2.678510 0.000000 0.000000 
#    y 0.000000 2.678510 0.000000 
#    z 0.000000 0.000000 3.500210 
# 
# 
# High freq. dielectric constant tensor:
#      x y z
#    x 1.568510 0.000000 0.000000 
#    y 0.000000 1.568510 0.000000 
#    z 0.000000 0.000000 1.637390 
# 
# From -- ./inp_files/2255.got.cif
#   From: 2010.03.12/outbox.cif.g09.slc.cpg/sg99_cif.got.tgz:2255.got - 2010.04.08 21:11:30.
