data_PCOD8306264
_publ_section_title
;
Structure prediction by ZEFSAII (Michael W. Deem and Ramdas Pophale) SiO2 
 PCOD8306264
Probable space group: I 41 2 2
;
_chemical_formula_sum "Si O2"
_cell_formula_units_Z 72
_cell_length_a 10.381092
_cell_length_b 10.381092
_cell_length_c 30.499000
_cell_angle_alpha 90.000000
_cell_angle_beta 90.000000
_cell_angle_gamma 90.000000
_cell_volume 3286.787902
_symmetry_space_group_name_H-M "I 41 2 2"
_symmetry_group_IT_number 98
_symmetry_cell_setting 'tetragonal'
loop_
_space_group_symop_operation_xyz
x,y,z
-y,1/2+x,1/4+z
-x,-y,z
y,1/2-x,1/4+z
x,1/2-y,1/4-z
-x,1/2+y,1/4-z
y,x,-z
-y,-x,-z
1/2+x,1/2+y,1/2+z
1/2-y,x,3/4+z
1/2-x,1/2-y,1/2+z
1/2+y,-x,3/4+z
1/2+x,-y,3/4-z
1/2-x,y,3/4-z
1/2+y,1/2+x,1/2-z
1/2-y,1/2-x,1/2-z
loop_
_atom_site_type_symbol
_atom_site_label
_atom_site_fract_x
_atom_site_fract_y
_atom_site_fract_z
Si Si1 0.028161 0.146928 0.736136
Si Si2 0.310492 0.596814 0.331210
Si Si3 0.419082 0.376550 0.138740
Si Si4 0.745629 0.245629 0.250000
Si Si5 0.321894 0.396531 0.674239
O O1 0.897484 0.230845 0.729846
O O2 0.108367 0.132262 0.690853
O O3 0.115162 0.215947 0.773791
O O4 0.000000 0.000000 0.752874
O O5 0.250000 0.656004 0.375000
O O6 0.232448 0.651486 0.289101
O O7 0.301361 0.441763 0.333688
O O8 0.455373 0.643309 0.331186
O O9 0.500000 0.500000 0.125349
O O10 0.501239 0.250000 0.125000
O O11 0.290045 0.364766 0.109889
#
# Coordination Sequence:
#
# PCOD8306264 Si02
#       5
#    16  16  16   8  16
#     4  10  21  41  65 101 139 180 236 296 352 422
#     4  10  21  35  68  95 128 180 231 278 355 421
#     4  11  27  42  66  99 139 182 235 291 356 416
#     4  10  20  36  66 100 134 180 236 284 352 420
#     4  10  21  43  61  95 137 179 224 292 351 415
#
# _framework density 21.905887
#
# number of rings (size 3 to 8) (size 9 to 14) (size 15 to 20)
#    0.000    1.778    4.444    0.667   12.444    0.889 
#    0.000    1.111    0.000    2.667    0.000    0.000 
#    0.000    0.000    0.000    0.000    0.000    0.000 
#
# Total GULP energy -445979.034569 kJ/mol
# GULP energy per Si atom -12388.306516 kJ/mol
# Density = 2.185603 g / cm^3
# Si number density = 21.905887 Si / 1000 Ang^3
#
#
#
# Elastic Constant Matrix: (Units=GPa)
#
#
# Indices 1 2 3 4 5 6 
#
# 1 95.3391 35.4552 62.4952 0.0000 0.0000 0.0000
# 2 35.4552 95.3391 62.4952 0.0000 0.0000 0.0000
# 3 62.4952 62.4952 202.8889 0.0000 0.0000 0.0000
# 4 0.0000 0.0000 0.0000 36.0859 0.0000 0.0000
# 5 0.0000 0.0000 0.0000 0.0000 36.0859 0.0000
# 6 0.0000 0.0000 0.0000 0.0000 0.0000 20.4737
#
#
#
# Elastic Compliance Matrix: (Units=1/GPa)
#
#
# Indices 1 2 3 4 5 6 
#
# 1 0.013767 -0.002932 -0.003337 0.000000 0.000000 0.000000
# 2 -0.002932 0.013767 -0.003337 0.000000 0.000000 0.000000
# 3 -0.003337 -0.003337 0.006985 0.000000 0.000000 0.000000
# 4 0.000000 0.000000 0.000000 0.027712 0.000000 0.000000
# 5 0.000000 0.000000 0.000000 0.000000 0.027712 0.000000
# 6 0.000000 0.000000 0.000000 0.000000 0.000000 0.048843
#
#
# Mechanical properties :
#
#
# Convention : Reuss Voigt Hill
#
# Bulk Modulus (GPa) = 65.33841 79.38427 72.36134
# Shear Modulus (GPa) = 30.65591 34.07053 32.36322
#
# Velocity S-wave (km/s) = 3.74496 3.94803 3.84783
# Velocity P-wave (km/s) = 6.97075 7.55645 7.26950
#
# Compressibility (1/GPa) = 0.01530493
#
# Stress axis : x y z
#
# Youngs Moduli (GPa) = 72.63767 72.63767 143.16682
#
# Poissons Ratio (x) = 0.21297 0.47781
# Poissons Ratio (y) = 0.21297 0.47781
# Poissons Ratio (z) = 0.24242 0.24242
#
# Static dielectric constant tensor:
#      x y z
#    x 3.982370 0.000000 0.000000 
#    y 0.000000 3.982370 0.000000 
#    z 0.000000 0.000000 4.635270 
# 
# 
# High freq. dielectric constant tensor:
#      x y z
#    x 1.845550 0.000000 0.000000 
#    y 0.000000 1.845550 0.000000 
#    z 0.000000 0.000000 1.890830 
# 
# From -- ./inp_files/11673.got.cif
#   From: 2010.03.12/outbox.cif.g09.slc.cpg/sg98_6_cif.got.tgz:11673.got - 2010.04.08 21:04:41.
