data_PCOD8306736
_publ_section_title
;
Structure prediction by ZEFSAII (Michael W. Deem and Ramdas Pophale) SiO2 
 PCOD8306736
Probable space group: P 42 C M
;
_chemical_formula_sum "Si O2"
_cell_formula_units_Z 64
_cell_length_a 17.696193
_cell_length_b 17.696193
_cell_length_c 12.635283
_cell_angle_alpha 90.000000
_cell_angle_beta 90.000000
_cell_angle_gamma 90.000000
_cell_volume 3956.805165
_symmetry_space_group_name_H-M "P 42 C M"
_symmetry_group_IT_number 101
_symmetry_cell_setting 'tetragonal'
loop_
_space_group_symop_operation_xyz
x,y,z
-y,x,1/2+z
-x,-y,z
y,-x,1/2+z
-x,y,1/2+z
x,-y,1/2+z
-y,-x,z
y,x,z
loop_
_atom_site_type_symbol
_atom_site_label
_atom_site_fract_x
_atom_site_fract_y
_atom_site_fract_z
Si Si1 0.403139 0.819595 0.540090
Si Si2 0.664935 0.543996 0.127553
Si Si3 0.084454 0.595371 0.190856
Si Si4 0.330337 0.549111 0.316026
Si Si5 0.576529 0.088352 0.736651
Si Si6 0.328001 0.205320 0.827817
Si Si7 0.571126 0.311199 0.977387
Si Si8 0.143141 0.569446 0.969722
O O1 0.410079 0.735215 0.582880
O O2 0.378322 0.868017 0.643535
O O3 0.338131 0.820508 0.450208
O O4 0.478802 0.853729 0.485210
O O5 0.588281 0.588281 0.100720
O O6 0.674328 0.530425 0.252748
O O7 0.663287 0.453975 0.095234
O O8 0.110996 0.511167 0.221412
O O9 0.132843 0.660125 0.251360
O O10 0.997846 0.600944 0.223914
O O11 0.093516 0.606092 0.064013
O O12 0.412357 0.587644 0.310178
O O13 0.264340 0.608001 0.292131
O O14 0.316827 0.514599 0.431810
O O15 0.595961 0.109939 0.857315
O O16 0.245381 0.245381 0.813902
O O17 0.633233 0.366768 0.928406
O O18 0.604258 0.227209 0.975391
#
# Coordination Sequence:
#
# PCOD8306736 Si02
#       8
#     8   8   8   8   8   8   8   8
#     4  10  19  32  50  68  93 125 165 209 263 316
#     4  11  21  32  45  62  86 122 169 216 263 302
#     4  10  21  31  51  77  96 127 164 209 268 316
#     4  11  21  32  44  61  85 120 163 218 264 296
#     4  10  20  32  52  74 100 123 159 223 267 311
#     4  11  20  35  53  70  99 134 174 211 250 316
#     4  11  21  32  46  61  86 122 166 212 258 301
#     4  10  19  34  49  68  96 124 161 213 266 316
#
# _framework density 16.174666999999999
#
# number of rings (size 3 to 8) (size 9 to 14) (size 15 to 20)
#    0.000    1.500    3.750    4.500    1.750    4.750 
#    0.000    0.625    0.000    0.000    0.000    0.000 
#    0.000    0.000    0.000    0.000    0.000    9.375 
#
# Total GULP energy -792996.985494 kJ/mol
# GULP energy per Si atom -12390.577898 kJ/mol
# Density = 1.613785 g / cm^3
# Si number density = 16.174667 Si / 1000 Ang^3
#
#
#
# Elastic Constant Matrix: (Units=GPa)
#
#
# Indices 1 2 3 4 5 6 
#
# 1 61.1331 32.3054 38.3566 0.0000 0.0000 0.0001
# 2 32.3054 61.1331 38.3566 0.0000 0.0000 -0.0001
# 3 38.3566 38.3566 105.4061 0.0000 0.0000 0.0000
# 4 0.0000 0.0000 0.0000 16.2409 0.0000 0.0000
# 5 0.0000 0.0000 0.0000 0.0000 16.2409 0.0000
# 6 0.0001 -0.0001 0.0000 0.0000 0.0000 15.1325
#
#
#
# Elastic Compliance Matrix: (Units=1/GPa)
#
#
# Indices 1 2 3 4 5 6 
#
# 1 0.024975 -0.009714 -0.005554 0.000000 0.000000 0.000000
# 2 -0.009714 0.024975 -0.005554 0.000000 0.000000 0.000000
# 3 -0.005554 -0.005554 0.013529 0.000000 0.000000 0.000000
# 4 0.000000 0.000000 0.000000 0.061573 0.000000 0.000000
# 5 0.000000 0.000000 0.000000 0.000000 0.061573 0.000000
# 6 0.000000 0.000000 0.000000 0.000000 0.000000 0.066083
#
#
# Mechanical properties :
#
#
# Convention : Reuss Voigt Hill
#
# Bulk Modulus (GPa) = 45.79192 49.52331 47.65762
# Shear Modulus (GPa) = 16.57661 17.43309 17.00485
#
# Velocity S-wave (km/s) = 3.20480 3.28655 3.24593
# Velocity P-wave (km/s) = 6.48588 6.71463 6.60125
#
# Compressibility (1/GPa) = 0.02183791
#
# Stress axis : x y z
#
# Youngs Moduli (GPa) = 40.03949 40.03949 73.91520
#
# Poissons Ratio (x) = 0.38893 0.41050
# Poissons Ratio (y) = 0.38893 0.41050
# Poissons Ratio (z) = 0.22237 0.22237
#
# Static dielectric constant tensor:
#      x y z
#    x 2.771140 0.000000 0.000000 
#    y 0.000000 2.771140 0.000000 
#    z 0.000000 0.000000 3.355030 
# 
# 
# High freq. dielectric constant tensor:
#      x y z
#    x 1.577670 0.000000 0.000000 
#    y 0.000000 1.577670 0.000000 
#    z 0.000000 0.000000 1.654910 
# 
# From -- ./inp_files/1425.got.cif
#   From: 2010.03.12/outbox.cif.g09.slc.cpg/sg101_1_cif.got.tgz:1425.got - 2010.04.14 01:38:52.
