data_PCOD8306548
_publ_section_title
;
Structure prediction by ZEFSAII (Michael W. Deem and Ramdas Pophale) SiO2 
 PCOD8306548
Probable space group: P 4 M M
;
_chemical_formula_sum "Si O2"
_cell_formula_units_Z 64
_cell_length_a 13.583269
_cell_length_b 13.583269
_cell_length_c 20.700480
_cell_angle_alpha 90.000000
_cell_angle_beta 90.000000
_cell_angle_gamma 90.000000
_cell_volume 3819.346135
_symmetry_space_group_name_H-M "P 4 M M"
_symmetry_group_IT_number 99
_symmetry_cell_setting 'tetragonal'
loop_
_space_group_symop_operation_xyz
x,y,z
-y,x,z
-x,-y,z
y,-x,z
-x,y,z
x,-y,z
-y,-x,z
y,x,z
loop_
_atom_site_type_symbol
_atom_site_label
_atom_site_fract_x
_atom_site_fract_y
_atom_site_fract_z
Si Si1 0.721781 0.884136 0.888700
Si Si2 0.884932 0.721944 0.169591
Si Si3 0.615120 0.226472 0.276243
Si Si4 0.110802 0.267545 0.029200
Si Si5 0.269383 0.112564 0.524479
Si Si6 0.114664 0.725192 0.669542
Si Si7 0.222870 0.385071 0.778060
Si Si8 0.110977 0.615754 0.401439
O O1 0.824416 0.824416 0.878803
O O2 0.639801 0.843284 0.840319
O O3 0.741370 0.000000 0.875648
O O4 0.676634 0.865700 0.961428
O O5 0.822099 0.822099 0.180268
O O6 0.850122 0.638330 0.219052
O O7 0.866569 0.676128 0.096949
O O8 0.000000 0.745865 0.180995
O O9 0.500000 0.249309 0.277007
O O10 0.670978 0.329023 0.264855
O O11 0.652742 0.179685 0.343404
O O12 0.165243 0.165243 0.029946
O O13 0.000000 0.233233 0.028453
O O14 0.166818 0.166818 0.515865
O O15 0.313359 0.129916 0.596161
O O16 0.345076 0.150875 0.470196
O O17 0.243776 0.000000 0.513271
O O18 0.171642 0.828359 0.681340
O O19 0.159197 0.640885 0.714864
O O20 0.000000 0.743265 0.685470
O O21 0.248720 0.500000 0.777736
O O22 0.325169 0.325169 0.779119
O O23 0.113860 0.500000 0.405810
O O24 0.000000 0.652913 0.387946
#
# Coordination Sequence:
#
# PCOD8306548 Si02
#       8
#     8   8   8   8   8   8   8   8
#     4   9  17  29  46  70  99 128 156 184 217 261
#     4   9  17  29  46  69  96 125 155 185 220 264
#     4  10  20  33  49  67  87 115 151 192 238 282
#     4   8  14  25  41  63  93 125 154 184 216 255
#     4   9  17  29  45  66  94 125 154 183 213 251
#     4   9  18  31  47  70  98 127 158 188 220 261
#     4  10  21  36  52  69  89 115 150 193 238 281
#     4   9  17  29  46  68  91 115 146 184 226 272
#
# _framework density 16.756793999999999
#
# number of rings (size 3 to 8) (size 9 to 14) (size 15 to 20)
#    0.000    2.875    0.000    1.125    0.000    3.125 
#    0.000    5.625    0.000    4.500    0.000    1.750 
#    0.000    8.000    0.000    0.000    0.000    0.000 
#
# Total GULP energy -793016.537368 kJ/mol
# GULP energy per Si atom -12390.883396 kJ/mol
# Density = 1.671865 g / cm^3
# Si number density = 16.756794 Si / 1000 Ang^3
#
#
#
# Elastic Constant Matrix: (Units=GPa)
#
#
# Indices 1 2 3 4 5 6 
#
# 1 75.8888 32.6708 48.8188 0.0000 0.0000 0.0000
# 2 32.6708 75.8888 48.8188 0.0000 0.0000 0.0000
# 3 48.8188 48.8188 139.8504 0.0000 0.0000 0.0000
# 4 0.0000 0.0000 0.0000 21.6496 0.0000 0.0000
# 5 0.0000 0.0000 0.0000 0.0000 21.6496 0.0000
# 6 0.0000 0.0000 0.0000 0.0000 0.0000 13.9975
#
#
#
# Elastic Compliance Matrix: (Units=1/GPa)
#
#
# Indices 1 2 3 4 5 6 
#
# 1 0.018283 -0.004856 -0.004687 0.000000 0.000000 0.000000
# 2 -0.004856 0.018283 -0.004687 0.000000 0.000000 0.000000
# 3 -0.004687 -0.004687 0.010423 0.000000 0.000000 0.000000
# 4 0.000000 0.000000 0.000000 0.046190 0.000000 0.000000
# 5 0.000000 0.000000 0.000000 0.000000 0.046190 0.000000
# 6 0.000000 0.000000 0.000000 0.000000 0.000000 0.071441
#
#
# Mechanical properties :
#
#
# Convention : Reuss Voigt Hill
#
# Bulk Modulus (GPa) = 53.97074 61.36055 57.66565
# Shear Modulus (GPa) = 20.37106 22.21397 21.29252
#
# Velocity S-wave (km/s) = 3.49046 3.64492 3.56853
# Velocity P-wave (km/s) = 6.96582 7.37643 7.17406
#
# Compressibility (1/GPa) = 0.01852856
#
# Stress axis : x y z
#
# Youngs Moduli (GPa) = 54.69619 54.69619 95.94309
#
# Poissons Ratio (x) = 0.26559 0.44970
# Poissons Ratio (y) = 0.26559 0.44970
# Poissons Ratio (z) = 0.25637 0.25637
#
# Static dielectric constant tensor:
#      x y z
#    x 2.919630 0.000000 0.000000 
#    y 0.000000 2.919630 0.000000 
#    z 0.000000 0.000000 3.696240 
# 
# 
# High freq. dielectric constant tensor:
#      x y z
#    x 1.624390 0.000000 0.000000 
#    y 0.000000 1.624390 0.000000 
#    z 0.000000 0.000000 1.671880 
# 
# From -- ./inp_files/2244.got.cif
#   From: 2010.03.12/outbox.cif.g09.slc.cpg/sg99_cif.got.tgz:2244.got - 2010.04.08 21:11:30.
