data_PCOD8306796
_publ_section_title
;
Structure prediction by ZEFSAII (Michael W. Deem and Ramdas Pophale) SiO2 
 PCOD8306796
Probable space group: P 42 C M
;
_chemical_formula_sum "Si O2"
_cell_formula_units_Z 40
_cell_length_a 11.359294
_cell_length_b 11.359294
_cell_length_c 14.671977
_cell_angle_alpha 90.000000
_cell_angle_beta 90.000000
_cell_angle_gamma 90.000000
_cell_volume 1893.177427
_symmetry_space_group_name_H-M "P 42 C M"
_symmetry_group_IT_number 101
_symmetry_cell_setting 'tetragonal'
loop_
_space_group_symop_operation_xyz
x,y,z
-y,x,1/2+z
-x,-y,z
y,-x,1/2+z
-x,y,1/2+z
x,-y,1/2+z
-y,-x,z
y,x,z
loop_
_atom_site_type_symbol
_atom_site_label
_atom_site_fract_x
_atom_site_fract_y
_atom_site_fract_z
Si Si1 0.867951 0.677080 0.032540
Si Si2 0.397245 0.083118 0.221198
Si Si3 0.546191 0.732148 0.464145
Si Si4 0.506155 0.317403 0.258226
Si Si5 0.917581 0.730707 0.406854
O O1 0.789176 0.789176 0.053554
O O2 0.949499 0.657033 0.122528
O O3 0.781669 0.565118 0.019161
O O4 0.951614 0.711589 0.947183
O O5 0.464614 0.205241 0.202902
O O6 0.297159 0.084358 0.298571
O O7 0.500000 0.000000 0.256402
O O8 0.613154 0.613154 0.503268
O O9 0.497273 0.704485 0.365258
O O10 0.641157 0.835362 0.460710
O O11 0.639362 0.360639 0.233036
O O12 0.418913 0.418913 0.228811
O O13 0.863446 0.863446 0.418458
#
# Coordination Sequence:
#
# PCOD8306796 Si02
#       5
#     8   8   8   8   8
#     4  12  24  38  59  89 124 159 200 251 309 375
#     4  11  22  38  61  88 120 155 198 249 308 377
#     4   9  18  34  58  87 120 159 201 245 298 364
#     4   9  17  32  55  84 119 155 190 232 287 353
#     4  10  21  41  64  84 115 160 208 256 302 353
#
# _framework density 21.128502000000001
#
# number of rings (size 3 to 8) (size 9 to 14) (size 15 to 20)
#    0.000    1.800    0.000    7.800    0.000    2.400 
#    0.000    2.000    0.000    2.400    0.000    0.000 
#    0.000    0.000    0.000    0.000    0.000    0.000 
#
# Total GULP energy -495535.060563 kJ/mol
# GULP energy per Si atom -12388.376514 kJ/mol
# Density = 2.108041 g / cm^3
# Si number density = 21.128502 Si / 1000 Ang^3
#
#
#
# Elastic Constant Matrix: (Units=GPa)
#
#
# Indices 1 2 3 4 5 6 
#
# 1 83.2150 31.4169 31.7467 0.0000 0.0000 -0.0001
# 2 31.4169 83.2150 31.7467 0.0000 0.0000 0.0001
# 3 31.7467 31.7467 82.1671 0.0000 0.0000 0.0000
# 4 0.0000 0.0000 0.0000 23.4308 0.0000 0.0000
# 5 0.0000 0.0000 0.0000 0.0000 23.4308 0.0000
# 6 -0.0001 0.0001 0.0000 0.0000 0.0000 37.3777
#
#
#
# Elastic Compliance Matrix: (Units=1/GPa)
#
#
# Indices 1 2 3 4 5 6 
#
# 1 0.015202 -0.004103 -0.004288 0.000000 0.000000 0.000000
# 2 -0.004103 0.015202 -0.004288 0.000000 0.000000 0.000000
# 3 -0.004288 -0.004288 0.015484 0.000000 0.000000 0.000000
# 4 0.000000 0.000000 0.000000 0.042679 0.000000 0.000000
# 5 0.000000 0.000000 0.000000 0.000000 0.042679 0.000000
# 6 0.000000 0.000000 0.000000 0.000000 0.000000 0.026754
#
#
# Mechanical properties :
#
#
# Convention : Reuss Voigt Hill
#
# Bulk Modulus (GPa) = 48.71233 48.71308 48.71271
# Shear Modulus (GPa) = 26.28775 27.09366 26.69070
#
# Velocity S-wave (km/s) = 3.53113 3.58484 3.55809
# Velocity P-wave (km/s) = 6.30321 6.34354 6.32341
#
# Compressibility (1/GPa) = 0.02052868
#
# Stress axis : x y z
#
# Youngs Moduli (GPa) = 65.77972 65.77972 64.58286
#
# Poissons Ratio (x) = 0.26993 0.27695
# Poissons Ratio (y) = 0.26993 0.27695
# Poissons Ratio (z) = 0.28208 0.28208
#
# Static dielectric constant tensor:
#      x y z
#    x 3.868770 0.000000 0.000000 
#    y 0.000000 3.868770 0.000000 
#    z 0.000000 0.000000 3.609560 
# 
# 
# High freq. dielectric constant tensor:
#      x y z
#    x 1.820530 0.000000 0.000000 
#    y 0.000000 1.820530 0.000000 
#    z 0.000000 0.000000 1.822810 
# 
# From -- ./inp_files/1688.got.cif
#   From: 2010.03.12/outbox.cif.g09.slc.cpg/sg101_1_cif.got.tgz:1688.got - 2010.04.14 01:38:52.
