data_PCOD8306279
_publ_section_title
;
Structure prediction by ZEFSAII (Michael W. Deem and Ramdas Pophale) SiO2 
 PCOD8306279
Probable space group: I 41 2 2
;
_chemical_formula_sum "Si O2"
_cell_formula_units_Z 96
_cell_length_a 18.015190
_cell_length_b 18.015190
_cell_length_c 15.655177
_cell_angle_alpha 90.000000
_cell_angle_beta 90.000000
_cell_angle_gamma 90.000000
_cell_volume 5080.841837
_symmetry_space_group_name_H-M "I 41 2 2"
_symmetry_group_IT_number 98
_symmetry_cell_setting 'tetragonal'
loop_
_space_group_symop_operation_xyz
x,y,z
-y,1/2+x,1/4+z
-x,-y,z
y,1/2-x,1/4+z
x,1/2-y,1/4-z
-x,1/2+y,1/4-z
y,x,-z
-y,-x,-z
1/2+x,1/2+y,1/2+z
1/2-y,x,3/4+z
1/2-x,1/2-y,1/2+z
1/2+y,-x,3/4+z
1/2+x,-y,3/4-z
1/2-x,y,3/4-z
1/2+y,1/2+x,1/2-z
1/2-y,1/2-x,1/2-z
loop_
_atom_site_type_symbol
_atom_site_label
_atom_site_fract_x
_atom_site_fract_y
_atom_site_fract_z
Si Si1 0.380628 0.359675 0.307010
Si Si2 0.174492 0.783442 0.712492
Si Si3 0.819008 0.737032 0.927286
Si Si4 0.762060 0.070068 0.012408
Si Si5 0.043168 0.849398 0.822796
Si Si6 0.021200 0.858553 0.145068
O O1 0.329053 0.364655 0.222623
O O2 0.366802 0.285415 0.361435
O O3 0.464986 0.354800 0.273942
O O4 0.370121 0.432833 0.367534
O O5 0.143624 0.750000 0.625000
O O6 0.210111 0.710111 0.750000
O O7 0.239131 0.846315 0.710061
O O8 0.104188 0.810930 0.764702
O O9 0.750000 0.702030 0.875000
O O10 0.793017 0.793017 0.000000
O O11 0.818413 0.064654 0.932400
O O12 0.688119 0.027315 0.983160
O O13 0.801135 0.030557 0.091843
O O14 0.064884 0.934356 0.844462
#
# Coordination Sequence:
#
# PCOD8306279 Si02
#       6
#    16  16  16  16  16  16
#     4  11  22  37  58  82 116 149 190 245 295 356
#     4  11  21  37  59  83 118 158 201 249 286 343
#     4   9  21  38  59  81 102 142 195 239 290 343
#     4  10  21  35  54  85 116 156 196 232 291 361
#     4  11  22  35  54  84 117 156 196 232 292 351
#     4  10  22  34  55  83 123 154 185 238 299 363
#
# _framework density 18.894506
#
# number of rings (size 3 to 8) (size 9 to 14) (size 15 to 20)
#    0.000    1.667    1.667    3.000   11.667    0.667 
#    0.000    1.667    0.000    0.000    0.000    0.000 
#    0.000    0.000    0.000    0.000    0.000    0.000 
#
# Total GULP energy -594802.058971 kJ/mol
# GULP energy per Si atom -12391.709562 kJ/mol
# Density = 1.885150 g / cm^3
# Si number density = 18.894506 Si / 1000 Ang^3
#
#
#
# Elastic Constant Matrix: (Units=GPa)
#
#
# Indices 1 2 3 4 5 6 
#
# 1 109.3339 44.8317 35.2446 0.0000 0.0000 0.0000
# 2 44.8317 109.3339 35.2446 0.0000 0.0000 0.0000
# 3 35.2446 35.2446 73.7977 0.0000 0.0000 0.0000
# 4 0.0000 0.0000 0.0000 21.0965 0.0000 0.0000
# 5 0.0000 0.0000 0.0000 0.0000 21.0965 0.0000
# 6 0.0000 0.0000 0.0000 0.0000 0.0000 16.1544
#
#
#
# Elastic Compliance Matrix: (Units=1/GPa)
#
#
# Indices 1 2 3 4 5 6 
#
# 1 0.011901 -0.003602 -0.003963 0.000000 0.000000 0.000000
# 2 -0.003602 0.011901 -0.003963 0.000000 0.000000 0.000000
# 3 -0.003963 -0.003963 0.017336 0.000000 0.000000 0.000000
# 4 0.000000 0.000000 0.000000 0.047401 0.000000 0.000000
# 5 0.000000 0.000000 0.000000 0.000000 0.047401 0.000000
# 6 0.000000 0.000000 0.000000 0.000000 0.000000 0.061903
#
#
# Mechanical properties :
#
#
# Convention : Reuss Voigt Hill
#
# Bulk Modulus (GPa) = 55.30886 58.12303 56.71594
# Shear Modulus (GPa) = 22.03340 23.47911 22.75626
#
# Velocity S-wave (km/s) = 3.41857 3.52894 3.47419
# Velocity P-wave (km/s) = 6.70210 6.88718 6.79527
#
# Compressibility (1/GPa) = 0.01808029
#
# Stress axis : x y z
#
# Youngs Moduli (GPa) = 84.02651 84.02651 57.68282
#
# Poissons Ratio (x) = 0.30269 0.22862
# Poissons Ratio (y) = 0.30269 0.22862
# Poissons Ratio (z) = 0.33302 0.33302
#
# Static dielectric constant tensor:
#      x y z
#    x 3.474880 0.000000 0.000000 
#    y 0.000000 3.474880 0.000000 
#    z 0.000000 0.000000 3.220930 
# 
# 
# High freq. dielectric constant tensor:
#      x y z
#    x 1.733370 0.000000 0.000000 
#    y 0.000000 1.733370 0.000000 
#    z 0.000000 0.000000 1.716250 
# 
# From -- ./inp_files/7707.got.cif
#   From: 2010.03.12/outbox.cif.g09.slc.cpg/sg98_4_cif.got.tgz:7707.got - 2010.04.08 21:04:41.
