data_PCOD8306800
_publ_section_title
;
Structure prediction by ZEFSAII (Michael W. Deem and Ramdas Pophale) SiO2 
 PCOD8306800
Probable space group: P 42 C M
;
_chemical_formula_sum "Si O2"
_cell_formula_units_Z 56
_cell_length_a 14.912070
_cell_length_b 14.912070
_cell_length_c 12.168299
_cell_angle_alpha 90.000000
_cell_angle_beta 90.000000
_cell_angle_gamma 90.000000
_cell_volume 2705.862601
_symmetry_space_group_name_H-M "P 42 C M"
_symmetry_group_IT_number 101
_symmetry_cell_setting 'tetragonal'
loop_
_space_group_symop_operation_xyz
x,y,z
-y,x,1/2+z
-x,-y,z
y,-x,1/2+z
-x,y,1/2+z
x,-y,1/2+z
-y,-x,z
y,x,z
loop_
_atom_site_type_symbol
_atom_site_label
_atom_site_fract_x
_atom_site_fract_y
_atom_site_fract_z
Si Si1 0.929432 0.691892 0.587050
Si Si2 0.000081 0.142472 0.465887
Si Si3 0.389320 0.110680 0.023240
Si Si4 0.883266 0.262313 0.324226
Si Si5 0.616734 0.762312 0.222252
Si Si6 0.570568 0.191893 0.959427
Si Si7 0.642471 0.500080 0.580588
O O1 0.958070 0.794107 0.559923
O O2 0.912900 0.683545 0.716671
O O3 0.839126 0.660876 0.523236
O O4 0.007046 0.624152 0.550523
O O5 0.076939 0.076939 0.420648
O O6 0.966606 0.201328 0.363479
O O7 0.916369 0.083632 0.514013
O O8 0.356749 0.168426 0.127214
O O9 0.331575 0.143249 0.919265
O O10 0.492955 0.124155 0.995962
O O11 0.797064 0.202937 0.294979
O O12 0.702937 0.702937 0.251502
O O13 0.587096 0.816455 0.329805
O O14 0.533395 0.701326 0.182997
O O15 0.541931 0.294107 0.986555
O O16 0.583632 0.416369 0.532461
O O17 0.576937 0.576937 0.625827
#
# Coordination Sequence:
#
# PCOD8306800 Si02
#       7
#     8   8   8   8   8   8   8
#     4  11  24  41  61  96 126 167 215 263 317 377
#     4   9  20  40  63  92 129 166 208 259 320 385
#     4  10  24  42  62  88 129 172 209 254 323 384
#     4  10  22  40  64  93 126 164 211 261 317 380
#     4  10  22  40  64  93 126 164 211 261 317 380
#     4  11  24  41  61  96 126 167 215 263 317 377
#     4   9  20  40  63  92 129 166 208 259 320 385
#
# _framework density 20.695802
#
# number of rings (size 3 to 8) (size 9 to 14) (size 15 to 20)
#    0.000    2.000    0.000    1.714    8.000    4.571 
#    0.000    2.857    0.000    0.000    0.000    0.000 
#    0.000    0.000    0.000    0.000    0.000    0.000 
#
# Total GULP energy -694489.748396 kJ/mol
# GULP energy per Si atom -12401.602650 kJ/mol
# Density = 2.064870 g / cm^3
# Si number density = 20.695802 Si / 1000 Ang^3
#
#
#
# Elastic Constant Matrix: (Units=GPa)
#
#
# Indices 1 2 3 4 5 6 
#
# 1 86.1804 39.5314 42.0447 0.0000 0.0000 -0.0001
# 2 39.5314 86.1804 42.0447 0.0000 0.0000 0.0001
# 3 42.0447 42.0447 146.0005 0.0000 0.0000 0.0000
# 4 0.0000 0.0000 0.0000 23.9065 0.0000 0.0000
# 5 0.0000 0.0000 0.0000 0.0000 23.9065 0.0000
# 6 -0.0001 0.0001 0.0000 0.0000 0.0000 32.3506
#
#
#
# Elastic Compliance Matrix: (Units=1/GPa)
#
#
# Indices 1 2 3 4 5 6 
#
# 1 0.015645 -0.005792 -0.002837 0.000000 0.000000 0.000000
# 2 -0.005792 0.015645 -0.002837 0.000000 0.000000 0.000000
# 3 -0.002837 -0.002837 0.008483 0.000000 0.000000 0.000000
# 4 0.000000 0.000000 0.000000 0.041830 0.000000 0.000000
# 5 0.000000 0.000000 0.000000 0.000000 0.041830 0.000000
# 6 0.000000 0.000000 0.000000 0.000000 0.000000 0.030911
#
#
# Mechanical properties :
#
#
# Convention : Reuss Voigt Hill
#
# Bulk Modulus (GPa) = 59.38460 62.84479 61.11470
# Shear Modulus (GPa) = 27.33885 29.01541 28.17713
#
# Velocity S-wave (km/s) = 3.63848 3.74838 3.69384
# Velocity P-wave (km/s) = 6.81232 7.01183 6.91279
#
# Compressibility (1/GPa) = 0.01683938
#
# Stress axis : x y z
#
# Youngs Moduli (GPa) = 63.91967 63.91967 117.87647
#
# Poissons Ratio (x) = 0.37022 0.33445
# Poissons Ratio (y) = 0.37022 0.33445
# Poissons Ratio (z) = 0.18136 0.18136
#
# Static dielectric constant tensor:
#      x y z
#    x 3.883610 0.000000 0.000000 
#    y 0.000000 3.883610 0.000000 
#    z 0.000000 0.000000 3.466510 
# 
# 
# High freq. dielectric constant tensor:
#      x y z
#    x 1.817750 0.000000 0.000000 
#    y 0.000000 1.817750 0.000000 
#    z 0.000000 0.000000 1.793320 
# 
# From -- ./inp_files/1335.got.cif
#   From: 2010.03.12/outbox.cif.g09.slc.cpg/sg101_1_cif.got.tgz:1335.got - 2010.04.14 01:38:52.
