data_PCOD8306137
_publ_section_title
;
Structure prediction by ZEFSAII (Michael W. Deem and Ramdas Pophale) SiO2 
 PCOD8306137
Probable space group: I 4 2 2 
;
_chemical_formula_sum "Si O2"
_cell_formula_units_Z 88
_cell_length_a 11.982762
_cell_length_b 11.982762
_cell_length_c 29.017771
_cell_angle_alpha 90.000000
_cell_angle_beta 90.000000
_cell_angle_gamma 90.000000
_cell_volume 4166.562647
_symmetry_space_group_name_H-M "I 4 2 2 "
_symmetry_group_IT_number 97
_symmetry_cell_setting 'tetragonal'
loop_
_space_group_symop_operation_xyz
x,y,z
-y,x,z
-x,-y,z
y,-x,z
x,-y,-z
-x,y,-z
y,x,-z
-y,-x,-z
1/2+x,1/2+y,1/2+z
1/2-y,1/2+x,1/2+z
1/2-x,1/2-y,1/2+z
1/2+y,1/2-x,1/2+z
1/2+x,1/2-y,1/2-z
1/2-x,1/2+y,1/2-z
1/2+y,1/2+x,1/2-z
1/2-y,1/2-x,1/2-z
loop_
_atom_site_type_symbol
_atom_site_label
_atom_site_fract_x
_atom_site_fract_y
_atom_site_fract_z
Si Si1 0.865936 0.117695 0.446921
Si Si2 0.067925 0.826112 0.257662
Si Si3 0.511812 0.815447 0.553431
Si Si4 0.785053 0.205431 0.909706
Si Si5 0.000000 0.500000 0.378100
Si Si6 0.346338 0.830191 0.678416
O O1 0.850445 0.149556 0.500000
O O2 0.774775 0.177581 0.416755
O O3 0.989934 0.154142 0.434089
O O4 0.106133 0.765404 0.304772
O O5 0.087443 0.733259 0.218489
O O6 0.937442 0.856870 0.254730
O O7 0.500000 0.848566 0.500000
O O8 0.591201 0.710725 0.567734
O O9 0.386222 0.784988 0.563904
O O10 0.559534 0.914837 0.585968
O O11 0.774632 0.181705 0.855263
O O12 0.927734 0.418737 0.345642
#
# Coordination Sequence:
#
# PCOD8306137 Si02
#       6
#    16  16  16  16   8  16
#     4   9  19  36  58  86 122 167 217 275 341 398
#     4  10  24  44  71  99 132 171 215 281 344 429
#     4  11  24  43  64  94 135 182 233 281 337 398
#     4  11  25  40  65  96 130 181 226 288 337 407
#     4  10  25  41  64 102 130 180 216 279 329 404
#     4  10  25  43  67 100 131 177 220 275 351 407
#
# _framework density 21.120526999999999
#
# number of rings (size 3 to 8) (size 9 to 14) (size 15 to 20)
#    0.000    1.818    0.000    2.455   12.727    3.273 
#    0.000    2.727    0.000    0.000    0.000    0.000 
#    0.000    0.000    0.000    0.000    0.000    0.000 
#
# Total GULP energy -545079.586449 kJ/mol
# GULP energy per Si atom -12388.172419 kJ/mol
# Density = 2.107246 g / cm^3
# Si number density = 21.120527 Si / 1000 Ang^3
#
#
#
# Elastic Constant Matrix: (Units=GPa)
#
#
# Indices 1 2 3 4 5 6 
#
# 1 90.7361 57.9923 52.8452 0.0000 0.0000 0.0000
# 2 57.9923 90.7371 52.8439 0.0000 0.0000 0.0000
# 3 52.8452 52.8439 109.6238 0.0000 0.0000 0.0000
# 4 0.0000 0.0000 0.0000 31.9620 0.0000 0.0000
# 5 0.0000 0.0000 0.0000 0.0000 31.9620 0.0000
# 6 0.0000 0.0000 0.0000 0.0000 0.0000 29.3896
#
#
#
# Elastic Compliance Matrix: (Units=1/GPa)
#
#
# Indices 1 2 3 4 5 6 
#
# 1 0.020384 -0.010156 -0.004930 0.000000 0.000000 0.000000
# 2 -0.010156 0.020383 -0.004930 0.000000 0.000000 0.000000
# 3 -0.004930 -0.004930 0.013875 0.000000 0.000000 0.000000
# 4 0.000000 0.000000 0.000000 0.031287 0.000000 0.000000
# 5 0.000000 0.000000 0.000000 0.000000 0.031287 0.000000
# 6 0.000000 0.000000 0.000000 0.000000 0.000000 0.034026
#
#
# Mechanical properties :
#
#
# Convention : Reuss Voigt Hill
#
# Bulk Modulus (GPa) = 68.44989 68.71777 68.58383
# Shear Modulus (GPa) = 25.49150 27.15710 26.32430
#
# Velocity S-wave (km/s) = 3.47789 3.58972 3.53425
# Velocity P-wave (km/s) = 6.97189 7.05607 7.01410
#
# Compressibility (1/GPa) = 0.01460923
#
# Stress axis : x y z
#
# Youngs Moduli (GPa) = 49.05890 49.06063 72.07162
#
# Poissons Ratio (x) = 0.49828 0.35533
# Poissons Ratio (y) = 0.49826 0.35528
# Poissons Ratio (z) = 0.24187 0.24185
#
# Static dielectric constant tensor:
#      x y z
#    x 3.796200 0.000000 0.000000 
#    y 0.000000 3.796200 0.000000 
#    z 0.000000 0.000000 4.030760 
# 
# 
# High freq. dielectric constant tensor:
#      x y z
#    x 1.830700 0.000000 0.000000 
#    y 0.000000 1.830700 0.000000 
#    z 0.000000 0.000000 1.834710 
# 
# From -- ./inp_files/8057.got.cif
#   From: 2010.03.12/outbox.cif.g09.slc.cpg/sg97_5_cif.got.tgz:8057.got - 2010.04.08 20:59:42.
