data_PCOD8306074
_publ_section_title
;
Structure prediction by ZEFSAII (Michael W. Deem and Ramdas Pophale) SiO2 
 PCOD8306074
Probable space group: I 4 2 2 
;
_chemical_formula_sum "Si O2"
_cell_formula_units_Z 88
_cell_length_a 14.147626
_cell_length_b 14.147626
_cell_length_c 21.732809
_cell_angle_alpha 90.000000
_cell_angle_beta 90.000000
_cell_angle_gamma 90.000000
_cell_volume 4349.937371
_symmetry_space_group_name_H-M "I 4 2 2 "
_symmetry_group_IT_number 97
_symmetry_cell_setting 'tetragonal'
loop_
_space_group_symop_operation_xyz
x,y,z
-y,x,z
-x,-y,z
y,-x,z
x,-y,-z
-x,y,-z
y,x,-z
-y,-x,-z
1/2+x,1/2+y,1/2+z
1/2-y,1/2+x,1/2+z
1/2-x,1/2-y,1/2+z
1/2+y,1/2-x,1/2+z
1/2+x,1/2-y,1/2-z
1/2-x,1/2+y,1/2-z
1/2+y,1/2+x,1/2-z
1/2-y,1/2-x,1/2-z
loop_
_atom_site_type_symbol
_atom_site_label
_atom_site_fract_x
_atom_site_fract_y
_atom_site_fract_z
Si Si1 0.259370 0.000000 0.500000
Si Si2 0.320220 0.109189 0.997099
Si Si3 0.601219 0.385217 0.288041
Si Si4 0.195317 0.198110 0.898981
Si Si5 0.487696 0.344923 0.126647
Si Si6 0.754284 0.649299 0.799649
O O1 0.325492 0.910099 0.506591
O O2 0.189182 0.000901 0.442661
O O3 0.277982 0.138007 0.931113
O O4 0.244315 0.126750 0.050666
O O5 0.350485 0.000000 0.000000
O O6 0.631756 0.492565 0.273861
O O7 0.623757 0.364113 0.359111
O O8 0.663489 0.321166 0.242229
O O9 0.239666 0.279598 0.856748
O O10 0.584527 0.399054 0.140719
O O11 0.457463 0.257033 0.171546
O O12 0.842116 0.657885 0.750000
#
# Coordination Sequence:
#
# PCOD8306074 Si02
#       6
#     8  16  16  16  16  16
#     4  12  23  37  60  86 126 162 212 259 331 394
#     4  11  23  39  60  86 118 163 205 257 311 384
#     4  10  20  35  59  89 118 150 194 251 310 371
#     4  10  21  39  59  84 119 156 205 249 311 374
#     4  11  22  36  59  94 129 162 206 268 332 388
#     4  10  20  36  57  85 123 164 201 247 314 380
#
# _framework density 20.230177000000001
#
# number of rings (size 3 to 8) (size 9 to 14) (size 15 to 20)
#    0.000    1.455    1.818    4.091    2.545    2.182 
#    0.000    0.000    0.000    4.364    0.000    3.818 
#    0.000    0.000    0.000    0.000    0.000    0.000 
#
# Total GULP energy -545255.911440 kJ/mol
# GULP energy per Si atom -12392.179805 kJ/mol
# Density = 2.018413 g / cm^3
# Si number density = 20.230177 Si / 1000 Ang^3
#
#
#
# Elastic Constant Matrix: (Units=GPa)
#
#
# Indices 1 2 3 4 5 6 
#
# 1 48.8207 13.8669 5.5966 0.0000 0.0000 0.0000
# 2 13.8669 48.8216 5.5966 0.0000 0.0000 0.0000
# 3 5.5966 5.5966 92.4685 0.0000 0.0000 0.0000
# 4 0.0000 0.0000 0.0000 38.2284 0.0000 0.0000
# 5 0.0000 0.0000 0.0000 0.0000 38.2284 0.0000
# 6 0.0000 0.0000 0.0000 0.0000 0.0000 29.1682
#
#
#
# Elastic Compliance Matrix: (Units=1/GPa)
#
#
# Indices 1 2 3 4 5 6 
#
# 1 0.022368 -0.006241 -0.000976 0.000000 0.000000 0.000000
# 2 -0.006241 0.022367 -0.000976 0.000000 0.000000 0.000000
# 3 -0.000976 -0.000976 0.010933 0.000000 0.000000 0.000000
# 4 0.000000 0.000000 0.000000 0.026159 0.000000 0.000000
# 5 0.000000 0.000000 0.000000 0.000000 0.026159 0.000000
# 6 0.000000 0.000000 0.000000 0.000000 0.000000 0.034284
#
#
# Mechanical properties :
#
#
# Convention : Reuss Voigt Hill
#
# Bulk Modulus (GPa) = 25.45757 26.69234 26.07495
# Shear Modulus (GPa) = 29.11223 32.12837 30.62030
#
# Velocity S-wave (km/s) = 3.79760 3.98947 3.89472
# Velocity P-wave (km/s) = 5.64272 5.86891 5.75693
#
# Compressibility (1/GPa) = 0.03928105
#
# Stress axis : x y z
#
# Youngs Moduli (GPa) = 44.70725 44.70808 91.46920
#
# Poissons Ratio (x) = 0.27903 0.08928
# Poissons Ratio (y) = 0.27903 0.08928
# Poissons Ratio (z) = 0.04364 0.04364
#
# Static dielectric constant tensor:
#      x y z
#    x 3.671120 0.000000 0.000000 
#    y 0.000000 3.671120 0.000000 
#    z 0.000000 0.000000 4.070930 
# 
# 
# High freq. dielectric constant tensor:
#      x y z
#    x 1.774860 0.000000 0.000000 
#    y 0.000000 1.774860 0.000000 
#    z 0.000000 0.000000 1.822180 
# 
# From -- ./inp_files/6543.got.cif
#   From: 2010.03.12/outbox.cif.g09.slc.cpg/sg97_4_cif.got.tgz:6543.got - 2010.04.08 20:59:42.
