data_PCOD8306541
_publ_section_title
;
Structure prediction by ZEFSAII (Michael W. Deem and Ramdas Pophale) SiO2 
 PCOD8306541
Probable space group: P 4 M M
;
_chemical_formula_sum "Si O2"
_cell_formula_units_Z 64
_cell_length_a 13.601049
_cell_length_b 13.601049
_cell_length_c 20.729292
_cell_angle_alpha 90.000000
_cell_angle_beta 90.000000
_cell_angle_gamma 90.000000
_cell_volume 3834.681336
_symmetry_space_group_name_H-M "P 4 M M"
_symmetry_group_IT_number 99
_symmetry_cell_setting 'tetragonal'
loop_
_space_group_symop_operation_xyz
x,y,z
-y,x,z
-x,-y,z
y,-x,z
-x,y,z
x,-y,z
-y,-x,z
y,x,z
loop_
_atom_site_type_symbol
_atom_site_label
_atom_site_fract_x
_atom_site_fract_y
_atom_site_fract_z
Si Si1 0.886884 0.267963 0.268620
Si Si2 0.616678 0.108896 0.010866
Si Si3 0.729071 0.113015 0.410643
Si Si4 0.279126 0.883452 0.773604
Si Si5 0.383252 0.774825 0.885799
Si Si6 0.890015 0.615184 0.534380
Si Si7 0.224652 0.383264 0.660949
Si Si8 0.608222 0.883088 0.151128
O O1 0.838852 0.161149 0.268181
O O2 0.869563 0.318124 0.339184
O O3 0.838678 0.332068 0.211438
O O4 0.000000 0.250434 0.254050
O O5 0.500000 0.101224 0.015698
O O6 0.656249 0.144222 0.081327
O O7 0.658614 0.000000 0.993991
O O8 0.647348 0.186316 0.956404
O O9 0.830632 0.169369 0.418698
O O10 0.654805 0.149508 0.465925
O O11 0.755811 0.000000 0.420060
O O12 0.175411 0.824590 0.773645
O O13 0.344303 0.855371 0.835544
O O14 0.344458 0.855009 0.711887
O O15 0.257402 0.000000 0.773501
O O16 0.500000 0.760067 0.877787
O O17 0.329993 0.670008 0.874201
O O18 0.893065 0.500000 0.527818
O O19 0.816290 0.646585 0.590914
O O20 0.000000 0.655075 0.549685
O O21 0.240029 0.500000 0.669169
O O22 0.329481 0.329481 0.671578
O O23 0.500000 0.836476 0.156212
O O24 0.601873 0.000000 0.156881
#
# Coordination Sequence:
#
# PCOD8306541 Si02
#       8
#     8   8   8   8   8   8   8   8
#     4   9  17  27  39  57  81 111 144 175 212 259
#     4   8  14  26  44  64  85 110 142 182 226 269
#     4   9  17  28  41  58  82 111 143 179 216 258
#     4  10  21  36  54  76  99 123 153 188 227 271
#     4  10  20  32  47  69  95 124 158 192 227 268
#     4   9  17  29  46  67  88 112 144 182 226 272
#     4  10  20  33  50  72  97 126 158 190 225 265
#     4   8  14  25  41  61  84 108 137 178 225 267
#
# _framework density 16.689782999999998
#
# number of rings (size 3 to 8) (size 9 to 14) (size 15 to 20)
#    0.000    2.875    0.000    2.250    0.000    3.625 
#    0.000    3.750    0.000    2.250    0.000    1.750 
#    0.000    3.250    0.000    2.750    0.000    4.750 
#
# Total GULP energy -793106.041401 kJ/mol
# GULP energy per Si atom -12392.281897 kJ/mol
# Density = 1.665180 g / cm^3
# Si number density = 16.689783 Si / 1000 Ang^3
#
#
#
# Elastic Constant Matrix: (Units=GPa)
#
#
# Indices 1 2 3 4 5 6 
#
# 1 70.3400 36.6279 44.4959 0.0000 0.0000 -0.0002
# 2 36.6279 70.3400 44.4959 0.0000 0.0000 0.0002
# 3 44.4959 44.4959 136.4573 0.0000 0.0000 0.0000
# 4 0.0000 0.0000 0.0000 22.8007 0.0000 0.0000
# 5 0.0000 0.0000 0.0000 0.0000 22.8007 0.0000
# 6 -0.0002 0.0002 0.0000 0.0000 0.0000 16.5251
#
#
#
# Elastic Compliance Matrix: (Units=1/GPa)
#
#
# Indices 1 2 3 4 5 6 
#
# 1 0.021246 -0.008417 -0.004183 0.000000 0.000000 0.000000
# 2 -0.008417 0.021246 -0.004183 0.000000 0.000000 0.000000
# 3 -0.004183 -0.004183 0.010056 0.000000 0.000000 0.000000
# 4 0.000000 0.000000 0.000000 0.043858 0.000000 0.000000
# 5 0.000000 0.000000 0.000000 0.000000 0.043858 0.000000
# 6 0.000000 0.000000 0.000000 0.000000 0.000000 0.060514
#
#
# Mechanical properties :
#
#
# Convention : Reuss Voigt Hill
#
# Bulk Modulus (GPa) = 52.68371 58.70853 55.69612
# Shear Modulus (GPa) = 20.77506 22.52645 21.65076
#
# Velocity S-wave (km/s) = 3.53197 3.67783 3.60564
# Velocity P-wave (km/s) = 6.94752 7.29986 7.12587
#
# Compressibility (1/GPa) = 0.01898120
#
# Stress axis : x y z
#
# Youngs Moduli (GPa) = 47.06792 47.06792 99.43902
#
# Poissons Ratio (x) = 0.39617 0.41597
# Poissons Ratio (y) = 0.39617 0.41597
# Poissons Ratio (z) = 0.19689 0.19689
#
# Static dielectric constant tensor:
#      x y z
#    x 2.947060 0.000000 0.000000 
#    y 0.000000 2.947060 0.000000 
#    z 0.000000 0.000000 3.618000 
# 
# 
# High freq. dielectric constant tensor:
#      x y z
#    x 1.619310 0.000000 0.000000 
#    y 0.000000 1.619310 0.000000 
#    z 0.000000 0.000000 1.667740 
# 
# From -- ./inp_files/2262.got.cif
#   From: 2010.03.12/outbox.cif.g09.slc.cpg/sg99_cif.got.tgz:2262.got - 2010.04.08 21:11:30.
