data_PCOD8306650
_publ_section_title
;
Structure prediction by ZEFSAII (Michael W. Deem and Ramdas Pophale) SiO2 
 PCOD8306650
Probable space group: P 4 B M
;
_chemical_formula_sum "Si O2"
_cell_formula_units_Z 40
_cell_length_a 15.404483
_cell_length_b 15.404483
_cell_length_c 9.145268
_cell_angle_alpha 90.000000
_cell_angle_beta 90.000000
_cell_angle_gamma 90.000000
_cell_volume 2170.154688
_symmetry_space_group_name_H-M "P 4 B M"
_symmetry_group_IT_number 100
_symmetry_cell_setting 'tetragonal'
loop_
_space_group_symop_operation_xyz
x,y,z
-y,x,z
-x,-y,z
y,-x,z
1/2-x,1/2+y,z
1/2+x,1/2-y,z
1/2-y,1/2-x,z
1/2+y,1/2+x,z
loop_
_atom_site_type_symbol
_atom_site_label
_atom_site_fract_x
_atom_site_fract_y
_atom_site_fract_z
Si Si1 0.192051 0.549209 0.554330
Si Si2 0.549209 0.807949 0.213638
Si Si3 0.572943 0.072943 0.719066
Si Si4 0.543587 0.634490 0.052224
Si Si5 0.956413 0.134490 0.715744
Si Si6 0.572943 0.072943 0.048902
O O1 0.131466 0.631466 0.587662
O O2 0.194966 0.527549 0.383984
O O3 0.157480 0.463341 0.636620
O O4 0.287216 0.572367 0.612098
O O5 0.631466 0.868534 0.180307
O O6 0.572367 0.712784 0.155871
O O7 0.463341 0.842520 0.131348
O O8 0.500000 0.000000 0.717217
O O9 0.598860 0.098860 0.883984
O O10 0.445026 0.607390 0.086734
O O11 0.552398 0.663209 0.883984
O O12 0.054974 0.107390 0.681234
O O13 0.500000 0.000000 0.050751
#
# Coordination Sequence:
#
# PCOD8306650 Si02
#       6
#     8   8   4   8   8   4
#     4  10  20  34  53  80 112 142 175 218 268 321
#     4  10  20  34  53  80 112 142 175 218 268 321
#     4   9  17  31  53  77 103 139 177 214 261 312
#     4   9  19  37  58  78 103 139 183 225 265 314
#     4   9  19  37  58  78 103 139 183 225 265 314
#     4   9  17  31  53  77 103 139 177 214 261 312
#
# _framework density 18.431864999999998
#
# number of rings (size 3 to 8) (size 9 to 14) (size 15 to 20)
#    0.000    2.600    0.000    3.000    0.000    6.400 
#    3.600    2.000    0.000    0.000    0.000    0.000 
#    0.000    0.000    0.000    0.000    0.000    0.000 
#
# Total GULP energy -496096.998263 kJ/mol
# GULP energy per Si atom -12402.424957 kJ/mol
# Density = 1.838991 g / cm^3
# Si number density = 18.431865 Si / 1000 Ang^3
#
#
#
# Elastic Constant Matrix: (Units=GPa)
#
#
# Indices 1 2 3 4 5 6 
#
# 1 88.6157 27.3676 56.3666 0.0000 0.0000 0.0000
# 2 27.3676 88.6157 56.3666 0.0000 0.0000 0.0000
# 3 56.3666 56.3666 122.0335 0.0000 0.0000 0.0000
# 4 0.0000 0.0000 0.0000 29.9087 0.0000 0.0000
# 5 0.0000 0.0000 0.0000 0.0000 29.9087 0.0000
# 6 0.0000 0.0000 0.0000 0.0000 0.0000 13.5899
#
#
#
# Elastic Compliance Matrix: (Units=1/GPa)
#
#
# Indices 1 2 3 4 5 6 
#
# 1 0.015987 -0.000340 -0.007227 0.000000 0.000000 0.000000
# 2 -0.000340 0.015987 -0.007227 0.000000 0.000000 0.000000
# 3 -0.007227 -0.007227 0.014871 0.000000 0.000000 0.000000
# 4 0.000000 0.000000 0.000000 0.033435 0.000000 0.000000
# 5 0.000000 0.000000 0.000000 0.000000 0.033435 0.000000
# 6 0.000000 0.000000 0.000000 0.000000 0.000000 0.073584
#
#
# Mechanical properties :
#
#
# Convention : Reuss Voigt Hill
#
# Bulk Modulus (GPa) = 57.95241 64.38515 61.16878
# Shear Modulus (GPa) = 22.45790 25.29240 23.87515
#
# Velocity S-wave (km/s) = 3.49439 3.70835 3.60296
# Velocity P-wave (km/s) = 6.91308 7.30364 7.11104
#
# Compressibility (1/GPa) = 0.01725554
#
# Stress axis : x y z
#
# Youngs Moduli (GPa) = 62.55199 62.55199 67.24647
#
# Poissons Ratio (x) = 0.02129 0.48599
# Poissons Ratio (y) = 0.02129 0.48599
# Poissons Ratio (z) = 0.45206 0.45206
#
# Static dielectric constant tensor:
#      x y z
#    x 3.241360 0.000000 0.000000 
#    y 0.000000 3.241360 0.000000 
#    z 0.000000 0.000000 3.409880 
# 
# 
# High freq. dielectric constant tensor:
#      x y z
#    x 1.704010 0.000000 0.000000 
#    y 0.000000 1.704010 0.000000 
#    z 0.000000 0.000000 1.721660 
# 
# From -- ./inp_files/788.got.cif
#   From: 2010.03.12/outbox.cif.g09.slc.cpg/sg100_cif.got.tgz:788.got - 2010.04.14 01:37:57.
