data_PCOD8306020
_publ_section_title
;
Structure prediction by ZEFSAII (Michael W. Deem and Ramdas Pophale) SiO2 
 PCOD8306020
Probable space group: I 4 2 2 
;
_chemical_formula_sum "Si O2"
_cell_formula_units_Z 112
_cell_length_a 17.600166
_cell_length_b 17.600166
_cell_length_c 23.662906
_cell_angle_alpha 90.000000
_cell_angle_beta 90.000000
_cell_angle_gamma 90.000000
_cell_volume 7329.960030
_symmetry_space_group_name_H-M "I 4 2 2 "
_symmetry_group_IT_number 97
_symmetry_cell_setting 'tetragonal'
loop_
_space_group_symop_operation_xyz
x,y,z
-y,x,z
-x,-y,z
y,-x,z
x,-y,-z
-x,y,-z
y,x,-z
-y,-x,-z
1/2+x,1/2+y,1/2+z
1/2-y,1/2+x,1/2+z
1/2-x,1/2-y,1/2+z
1/2+y,1/2-x,1/2+z
1/2+x,1/2-y,1/2-z
1/2-x,1/2+y,1/2-z
1/2+y,1/2+x,1/2-z
1/2-y,1/2-x,1/2-z
loop_
_atom_site_type_symbol
_atom_site_label
_atom_site_fract_x
_atom_site_fract_y
_atom_site_fract_z
Si Si1 0.040722 0.116179 0.767753
Si Si2 0.589749 0.415761 0.565160
Si Si3 0.244599 0.372341 0.239347
Si Si4 0.875031 0.001876 0.435828
Si Si5 0.227899 0.321160 0.808736
Si Si6 0.980034 0.219250 0.329795
Si Si7 0.341453 0.325307 0.340326
O O1 0.046281 0.142874 0.702871
O O2 0.075370 0.180048 0.809370
O O3 0.954661 0.095623 0.780460
O O4 0.604902 0.503248 0.580826
O O5 0.602693 0.397308 0.500000
O O6 0.649614 0.364964 0.599259
O O7 0.159095 0.340906 0.250000
O O8 0.294129 0.314380 0.201538
O O9 0.241287 0.453015 0.207000
O O10 0.284482 0.375086 0.300908
O O11 0.926307 0.075812 0.425350
O O12 0.843483 0.000000 0.500000
O O13 0.803798 0.005365 0.392906
O O14 0.181600 0.318401 0.750000
O O15 0.225224 0.406552 0.833815
O O16 0.188584 0.260498 0.851049
#
# Coordination Sequence:
#
# PCOD8306020 Si02
#       7
#    16  16  16  16  16  16  16
#     4  11  18  22  39  76  97 114 149 178 223 287
#     4   9  18  30  45  68  99 129 149 177 228 291
#     4   9  19  31  44  68  96 123 154 192 246 280
#     4   9  18  29  42  66  99 127 150 186 238 288
#     4   9  18  30  42  68  96 123 157 191 240 282
#     4  12  17  30  49  64  92 130 158 196 232 284
#     4  10  17  29  42  63 102 124 152 190 225 280
#
# _framework density 15.279756000000001
#
# number of rings (size 3 to 8) (size 9 to 14) (size 15 to 20)
#    0.000    2.429    4.286    3.429    0.000    2.286 
#    0.000    0.000    9.429    0.429    0.000    0.000 
#    0.000    0.000    0.000    1.857    0.000    0.000 
#
# Total GULP energy -693821.695306 kJ/mol
# GULP energy per Si atom -12389.673130 kJ/mol
# Density = 1.524498 g / cm^3
# Si number density = 15.279756 Si / 1000 Ang^3
#
#
#
# Elastic Constant Matrix: (Units=GPa)
#
#
# Indices 1 2 3 4 5 6 
#
# 1 97.4386 30.0296 42.8364 0.0000 0.0000 0.0000
# 2 30.0296 97.4368 42.8364 0.0000 0.0000 0.0000
# 3 42.8364 42.8364 83.6679 0.0000 0.0000 0.0000
# 4 0.0000 0.0000 0.0000 22.8200 0.0000 0.0000
# 5 0.0000 0.0000 0.0000 0.0000 22.8199 0.0000
# 6 0.0000 0.0000 0.0000 0.0000 0.0000 10.3227
#
#
#
# Elastic Compliance Matrix: (Units=1/GPa)
#
#
# Indices 1 2 3 4 5 6 
#
# 1 0.013398 -0.001437 -0.006124 0.000000 0.000000 0.000000
# 2 -0.001437 0.013398 -0.006124 0.000000 0.000000 0.000000
# 3 -0.006124 -0.006124 0.018223 0.000000 0.000000 0.000000
# 4 0.000000 0.000000 0.000000 0.043821 0.000000 0.000000
# 5 0.000000 0.000000 0.000000 0.000000 0.043821 0.000000
# 6 0.000000 0.000000 0.000000 0.000000 0.000000 0.096874
#
#
# Mechanical properties :
#
#
# Convention : Reuss Voigt Hill
#
# Bulk Modulus (GPa) = 56.65920 56.66087 56.66004
# Shear Modulus (GPa) = 19.02674 22.04857 20.53765
#
# Velocity S-wave (km/s) = 3.53260 3.80279 3.67019
# Velocity P-wave (km/s) = 7.33490 7.51295 7.42446
#
# Compressibility (1/GPa) = 0.01764938
#
# Stress axis : x y z
#
# Youngs Moduli (GPa) = 74.63865 74.63685 54.87691
#
# Poissons Ratio (x) = 0.10725 0.33605
# Poissons Ratio (y) = 0.10725 0.33606
# Poissons Ratio (z) = 0.45707 0.45707
#
# Static dielectric constant tensor:
#      x y z
#    x 2.866320 0.000000 0.000000 
#    y 0.000000 2.866320 0.000000 
#    z 0.000000 0.000000 2.810350 
# 
# 
# High freq. dielectric constant tensor:
#      x y z
#    x 1.562070 0.000000 0.000000 
#    y 0.000000 1.562070 0.000000 
#    z 0.000000 0.000000 1.572630 
# 
# From -- ./inp_files/7356.got.cif
#   From: 2010.03.12/outbox.cif.g09.slc.cpg/sg97_4_cif.got.tgz:7356.got - 2010.04.08 20:59:42.
