data_PCOD8306717
_publ_section_title
;
Structure prediction by ZEFSAII (Michael W. Deem and Ramdas Pophale) SiO2 
 PCOD8306717
Probable space group: P 42 C M
;
_chemical_formula_sum "Si O2"
_cell_formula_units_Z 64
_cell_length_a 19.232807
_cell_length_b 19.232807
_cell_length_c 10.209255
_cell_angle_alpha 90.000000
_cell_angle_beta 90.000000
_cell_angle_gamma 90.000000
_cell_volume 3776.412257
_symmetry_space_group_name_H-M "P 42 C M"
_symmetry_group_IT_number 101
_symmetry_cell_setting 'tetragonal'
loop_
_space_group_symop_operation_xyz
x,y,z
-y,x,1/2+z
-x,-y,z
y,-x,1/2+z
-x,y,1/2+z
x,-y,1/2+z
-y,-x,z
y,x,z
loop_
_atom_site_type_symbol
_atom_site_label
_atom_site_fract_x
_atom_site_fract_y
_atom_site_fract_z
Si Si1 0.358855 0.756148 0.552240
Si Si2 0.298041 0.500261 0.633807
Si Si3 0.862235 0.253957 0.162936
Si Si4 0.068377 0.815979 0.398463
Si Si5 0.754811 0.639870 0.743078
Si Si6 0.087976 0.795402 0.899137
Si Si7 0.746747 0.862730 0.135327
Si Si8 0.497923 0.388034 0.883416
O O1 0.307449 0.692552 0.586888
O O2 0.430138 0.748317 0.633417
O O3 0.373179 0.758242 0.397649
O O4 0.327743 0.830079 0.598849
O O5 0.252269 0.433241 0.668908
O O6 0.327708 0.491597 0.488138
O O7 0.360026 0.508733 0.737371
O O8 0.800815 0.199186 0.161842
O O9 0.915785 0.233083 0.275583
O O10 0.827771 0.328460 0.192912
O O11 0.902562 0.254085 0.025169
O O12 0.112204 0.887797 0.395295
O O13 0.082640 0.770976 0.527129
O O14 0.986809 0.832975 0.396823
O O15 0.690006 0.690006 0.707855
O O16 0.142365 0.857636 0.899301
O O17 0.098560 0.745004 0.774705
O O18 0.799958 0.799958 0.137848
O O19 0.553199 0.446802 0.913091
O O20 0.420108 0.420108 0.895287
#
# Coordination Sequence:
#
# PCOD8306717 Si02
#       8
#     8   8   8   8   8   8   8   8
#     4  10  19  35  55  74 101 136 177 223 270 320
#     4  12  22  33  52  76  97 130 176 224 270 316
#     4   9  18  33  53  75 103 141 181 220 258 301
#     4  10  18  32  55  79 109 152 183 198 244 317
#     4  10  19  35  55  74 101 136 177 223 270 320
#     4  10  20  32  49  83 119 138 173 222 252 295
#     4   9  18  33  53  75 103 141 181 220 258 301
#     4  11  22  34  46  66 102 140 169 202 256 334
#
# _framework density 16.947303000000002
#
# number of rings (size 3 to 8) (size 9 to 14) (size 15 to 20)
#    0.000    1.875    2.500    3.000    0.000    2.250 
#    0.000    2.500    0.000    4.500    0.000    5.250 
#    0.000    0.000    0.000    0.000    0.000    0.000 
#
# Total GULP energy -793593.497543 kJ/mol
# GULP energy per Si atom -12399.898399 kJ/mol
# Density = 1.690873 g / cm^3
# Si number density = 16.947303 Si / 1000 Ang^3
#
#
#
# Elastic Constant Matrix: (Units=GPa)
#
#
# Indices 1 2 3 4 5 6 
#
# 1 79.2278 42.6801 35.3606 0.0000 0.0000 0.0002
# 2 42.6801 79.2278 35.3606 0.0000 0.0000 -0.0002
# 3 35.3606 35.3606 111.8745 0.0000 0.0000 0.0000
# 4 0.0000 0.0000 0.0000 20.7618 0.0000 0.0000
# 5 0.0000 0.0000 0.0000 0.0000 20.7618 0.0000
# 6 0.0002 -0.0002 0.0000 0.0000 0.0000 18.8298
#
#
#
# Elastic Compliance Matrix: (Units=1/GPa)
#
#
# Indices 1 2 3 4 5 6 
#
# 1 0.018703 -0.008658 -0.003175 0.000000 0.000000 0.000000
# 2 -0.008658 0.018703 -0.003175 0.000000 0.000000 0.000000
# 3 -0.003175 -0.003175 0.010946 0.000000 0.000000 0.000000
# 4 0.000000 0.000000 0.000000 0.048165 0.000000 0.000000
# 5 0.000000 0.000000 0.000000 0.000000 0.048165 0.000000
# 6 0.000000 0.000000 0.000000 0.000000 0.000000 0.053107
#
#
# Mechanical properties :
#
#
# Convention : Reuss Voigt Hill
#
# Bulk Modulus (GPa) = 54.53893 55.23696 54.88794
# Shear Modulus (GPa) = 21.37502 22.53261 21.95381
#
# Velocity S-wave (km/s) = 3.55528 3.65028 3.60309
# Velocity P-wave (km/s) = 7.00747 7.10142 7.05460
#
# Compressibility (1/GPa) = 0.01833553
#
# Stress axis : x y z
#
# Youngs Moduli (GPa) = 53.46702 53.46702 91.36119
#
# Poissons Ratio (x) = 0.46294 0.29006
# Poissons Ratio (y) = 0.46294 0.29006
# Poissons Ratio (z) = 0.16975 0.16975
#
# Static dielectric constant tensor:
#      x y z
#    x 3.064440 0.000000 0.000000 
#    y 0.000000 3.064440 0.000000 
#    z 0.000000 0.000000 3.454680 
# 
# 
# High freq. dielectric constant tensor:
#      x y z
#    x 1.632460 0.000000 0.000000 
#    y 0.000000 1.632460 0.000000 
#    z 0.000000 0.000000 1.669430 
# 
# From -- ./inp_files/833.got.cif
#   From: 2010.03.12/outbox.cif.g09.slc.cpg/sg101_1_cif.got.tgz:833.got - 2010.04.14 01:38:52.
