data_PCOD8306929
_publ_section_title
;
Structure prediction by ZEFSAII (Michael W. Deem and Ramdas Pophale) SiO2 
 PCOD8306929
Probable space group: P 42 N M
;
_chemical_formula_sum "Si O2"
_cell_formula_units_Z 52
_cell_length_a 13.948295
_cell_length_b 13.948295
_cell_length_c 13.883824
_cell_angle_alpha 90.000000
_cell_angle_beta 90.000000
_cell_angle_gamma 90.000000
_cell_volume 2701.166454
_symmetry_space_group_name_H-M "P 42 N M"
_symmetry_group_IT_number 102
_symmetry_cell_setting 'tetragonal'
loop_
_space_group_symop_operation_xyz
x,y,z
1/2-y,1/2+x,1/2+z
-x,-y,z
1/2+y,1/2-x,1/2+z
1/2-x,1/2+y,1/2+z
1/2+x,1/2-y,1/2+z
-y,-x,z
y,x,z
loop_
_atom_site_type_symbol
_atom_site_label
_atom_site_fract_x
_atom_site_fract_y
_atom_site_fract_z
Si Si1 0.902804 0.253334 0.426990
Si Si2 0.999904 0.842627 0.813552
Si Si3 0.597197 0.753334 0.142481
Si Si4 0.156716 0.529878 0.645029
Si Si5 0.500000 0.000000 0.784735
Si Si6 0.500097 0.342627 0.755920
Si Si7 0.470122 0.843284 0.424441
O O1 0.805830 0.194171 0.413287
O O2 0.944307 0.241464 0.534736
O O3 0.874626 0.361592 0.405176
O O4 0.984313 0.215469 0.354918
O O5 0.089958 0.910042 0.838928
O O6 0.015688 0.784532 0.714553
O O7 0.986622 0.768162 0.900647
O O8 0.904086 0.904086 0.800564
O O9 0.694172 0.694172 0.156183
O O10 0.625374 0.861592 0.164295
O O11 0.268162 0.513377 0.668823
O O12 0.139657 0.498807 0.534735
O O13 0.088652 0.467991 0.715800
O O14 0.411348 0.967991 0.853671
O O15 0.595917 0.404084 0.768908
O O16 0.410044 0.410044 0.730545
#
# Coordination Sequence:
#
# PCOD8306929 Si02
#       7
#     8   8   8   8   4   8   8
#     4   9  18  34  57  83 112 152 197 235 280 341
#     4  10  21  37  59  89 123 156 192 240 295 348
#     4   9  18  34  57  83 112 152 197 235 280 341
#     4  11  22  38  61  85 114 153 196 240 291 349
#     4  12  22  40  60  86 112 152 198 248 288 338
#     4  10  21  37  59  89 123 156 192 240 295 348
#     4  11  22  38  61  85 114 153 196 240 291 349
#
# _framework density 19.250944
#
# number of rings (size 3 to 8) (size 9 to 14) (size 15 to 20)
#    0.000    1.846    3.077    1.385    0.000    3.077 
#    0.000    4.615    0.000    0.000    0.000    0.000 
#    0.000    0.000    0.000    0.000    0.000    0.000 
#
# Total GULP energy -644841.448053 kJ/mol
# GULP energy per Si atom -12400.797078 kJ/mol
# Density = 1.920713 g / cm^3
# Si number density = 19.250944 Si / 1000 Ang^3
#
#
#
# Elastic Constant Matrix: (Units=GPa)
#
#
# Indices 1 2 3 4 5 6 
#
# 1 85.9395 21.1957 52.1103 0.0000 0.0000 0.0000
# 2 21.1957 85.9395 52.1103 0.0000 0.0000 0.0000
# 3 52.1103 52.1103 144.2918 0.0000 0.0000 0.0000
# 4 0.0000 0.0000 0.0000 28.6658 0.0000 0.0000
# 5 0.0000 0.0000 0.0000 0.0000 28.6658 0.0000
# 6 0.0000 0.0000 0.0000 0.0000 0.0000 19.4815
#
#
#
# Elastic Compliance Matrix: (Units=1/GPa)
#
#
# Indices 1 2 3 4 5 6 
#
# 1 0.014917 -0.000528 -0.005197 0.000000 0.000000 0.000000
# 2 -0.000528 0.014917 -0.005197 0.000000 0.000000 0.000000
# 3 -0.005197 -0.005197 0.010684 0.000000 0.000000 0.000000
# 4 0.000000 0.000000 0.000000 0.034885 0.000000 0.000000
# 5 0.000000 0.000000 0.000000 0.000000 0.034885 0.000000
# 6 0.000000 0.000000 0.000000 0.000000 0.000000 0.051331
#
#
# Mechanical properties :
#
#
# Convention : Reuss Voigt Hill
#
# Bulk Modulus (GPa) = 53.54495 63.00040 58.27267
# Shear Modulus (GPa) = 26.35925 28.07960 27.21942
#
# Velocity S-wave (km/s) = 3.70434 3.82332 3.76430
# Velocity P-wave (km/s) = 6.79491 7.23099 7.01634
#
# Compressibility (1/GPa) = 0.01867590
#
# Stress axis : x y z
#
# Youngs Moduli (GPa) = 67.03598 67.03598 93.59917
#
# Poissons Ratio (x) = 0.03540 0.48640
# Poissons Ratio (y) = 0.03540 0.48640
# Poissons Ratio (z) = 0.34836 0.34836
#
# Static dielectric constant tensor:
#      x y z
#    x 3.485360 0.000000 0.000000 
#    y 0.000000 3.485360 0.000000 
#    z 0.000000 0.000000 3.610980 
# 
# 
# High freq. dielectric constant tensor:
#      x y z
#    x 1.743460 0.000000 0.000000 
#    y 0.000000 1.743460 0.000000 
#    z 0.000000 0.000000 1.757510 
# 
# From -- ./inp_files/1825.got.cif
#   From: 2010.03.12/outbox.cif.g09.slc.cpg/sg102_1_cif.got.tgz:1825.got - 2010.04.14 01:40:42.
