data_PCOD8306072
_publ_section_title
;
Structure prediction by ZEFSAII (Michael W. Deem and Ramdas Pophale) SiO2 
 PCOD8306072
Probable space group: I 4 2 2 
;
_chemical_formula_sum "Si O2"
_cell_formula_units_Z 60
_cell_length_a 10.910287
_cell_length_b 10.910287
_cell_length_c 22.639673
_cell_angle_alpha 90.000000
_cell_angle_beta 90.000000
_cell_angle_gamma 90.000000
_cell_volume 2694.899041
_symmetry_space_group_name_H-M "I 4 2 2 "
_symmetry_group_IT_number 97
_symmetry_cell_setting 'tetragonal'
loop_
_space_group_symop_operation_xyz
x,y,z
-y,x,z
-x,-y,z
y,-x,z
x,-y,-z
-x,y,-z
y,x,-z
-y,-x,-z
1/2+x,1/2+y,1/2+z
1/2-y,1/2+x,1/2+z
1/2-x,1/2-y,1/2+z
1/2+y,1/2-x,1/2+z
1/2+x,1/2-y,1/2-z
1/2-x,1/2+y,1/2-z
1/2+y,1/2+x,1/2-z
1/2-y,1/2-x,1/2-z
loop_
_atom_site_type_symbol
_atom_site_label
_atom_site_fract_x
_atom_site_fract_y
_atom_site_fract_z
Si Si1 0.364576 0.649143 0.355633
Si Si2 0.500000 0.000000 0.500000
Si Si3 0.310592 0.810592 0.250000
Si Si4 0.785236 0.654981 0.053012
Si Si5 0.962602 0.806071 0.337106
O O1 0.328317 0.508785 0.361127
O O2 0.313139 0.692316 0.292526
O O3 0.303155 0.721816 0.409387
O O4 0.586023 0.906097 0.535665
O O5 0.308201 0.930061 0.293595
O O6 0.724193 0.548914 0.093513
O O7 0.693671 0.693671 0.000000
O O8 0.094933 0.856601 0.321969
#
# Coordination Sequence:
#
# PCOD8306072 Si02
#       5
#    16   4   8  16  16
#     4  10  21  38  60  85 117 160 205 249 306 373
#     4  12  24  40  64  94 128 164 212 260 312 378
#     4  10  20  34  58  86 114 148 196 256 308 363
#     4  11  23  40  61  88 124 161 202 257 312 365
#     4  10  21  38  60  85 117 160 205 249 306 373
#
# _framework density 22.264284
#
# number of rings (size 3 to 8) (size 9 to 14) (size 15 to 20)
#    0.000    1.600    0.000    4.800    0.000    4.267 
#    0.000    2.667    0.000   12.800    0.000    0.000 
#    0.000    0.000    0.000    0.000    0.000    0.000 
#
# Total GULP energy -371775.740619 kJ/mol
# GULP energy per Si atom -12392.524687 kJ/mol
# Density = 2.221361 g / cm^3
# Si number density = 22.264284 Si / 1000 Ang^3
#
#
#
# Elastic Constant Matrix: (Units=GPa)
#
#
# Indices 1 2 3 4 5 6 
#
# 1 50.1628 26.4639 23.9120 0.0000 0.0000 0.0000
# 2 26.4639 50.1628 23.9120 0.0000 0.0000 0.0000
# 3 23.9120 23.9120 134.0547 0.0000 0.0000 0.0000
# 4 0.0000 0.0000 0.0000 33.0459 0.0000 0.0000
# 5 0.0000 0.0000 0.0000 0.0000 33.0459 0.0000
# 6 0.0000 0.0000 0.0000 0.0000 0.0000 36.7828
#
#
#
# Elastic Compliance Matrix: (Units=1/GPa)
#
#
# Indices 1 2 3 4 5 6 
#
# 1 0.028441 -0.013755 -0.002619 0.000000 0.000000 0.000000
# 2 -0.013755 0.028441 -0.002619 0.000000 0.000000 0.000000
# 3 -0.002619 -0.002619 0.008394 0.000000 0.000000 0.000000
# 4 0.000000 0.000000 0.000000 0.030261 0.000000 0.000000
# 5 0.000000 0.000000 0.000000 0.000000 0.030261 0.000000
# 6 0.000000 0.000000 0.000000 0.000000 0.000000 0.027187
#
#
# Mechanical properties :
#
#
# Convention : Reuss Voigt Hill
#
# Bulk Modulus (GPa) = 36.64808 42.55066 39.59937
# Shear Modulus (GPa) = 24.99151 31.24777 28.11964
#
# Velocity S-wave (km/s) = 3.35400 3.75039 3.55772
# Velocity P-wave (km/s) = 5.61207 6.15686 5.89077
#
# Compressibility (1/GPa) = 0.02728656
#
# Stress axis : x y z
#
# Youngs Moduli (GPa) = 35.16102 35.16102 119.13082
#
# Poissons Ratio (x) = 0.48366 0.31206
# Poissons Ratio (y) = 0.48366 0.31206
# Poissons Ratio (z) = 0.09210 0.09210
#
# Static dielectric constant tensor:
#      x y z
#    x 3.934490 0.000000 0.000000 
#    y 0.000000 3.934490 0.000000 
#    z 0.000000 0.000000 4.240770 
# 
# 
# High freq. dielectric constant tensor:
#      x y z
#    x 1.870590 0.000000 0.000000 
#    y 0.000000 1.870590 0.000000 
#    z 0.000000 0.000000 1.895900 
# 
# From -- ./inp_files/6344.got.cif
#   From: 2010.03.12/outbox.cif.g09.slc.cpg/sg97_4_cif.got.tgz:6344.got - 2010.04.08 20:59:42.
