data_PCOD8306039
_publ_section_title
;
Structure prediction by ZEFSAII (Michael W. Deem and Ramdas Pophale) SiO2 
 PCOD8306039
Probable space group: I 4 2 2 
;
_chemical_formula_sum "Si O2"
_cell_formula_units_Z 48
_cell_length_a 13.388340
_cell_length_b 13.388340
_cell_length_c 13.616745
_cell_angle_alpha 90.000000
_cell_angle_beta 90.000000
_cell_angle_gamma 90.000000
_cell_volume 2440.769514
_symmetry_space_group_name_H-M "I 4 2 2 "
_symmetry_group_IT_number 97
_symmetry_cell_setting 'tetragonal'
loop_
_space_group_symop_operation_xyz
x,y,z
-y,x,z
-x,-y,z
y,-x,z
x,-y,-z
-x,y,-z
y,x,-z
-y,-x,-z
1/2+x,1/2+y,1/2+z
1/2-y,1/2+x,1/2+z
1/2-x,1/2-y,1/2+z
1/2+y,1/2-x,1/2+z
1/2+x,1/2-y,1/2-z
1/2-x,1/2+y,1/2-z
1/2+y,1/2+x,1/2-z
1/2-y,1/2-x,1/2-z
loop_
_atom_site_type_symbol
_atom_site_label
_atom_site_fract_x
_atom_site_fract_y
_atom_site_fract_z
Si Si1 0.185888 0.185888 0.000000
Si Si2 0.887675 0.394175 0.964997
Si Si3 0.868523 0.905902 0.798488
Si Si4 0.337340 0.837340 0.250000
O O1 0.304358 0.171970 0.018033
O O2 0.152795 0.114406 0.912264
O O3 0.888809 0.382843 0.846639
O O4 0.840261 0.500000 0.000000
O O5 0.000000 0.388240 0.000000
O O6 0.781701 0.852900 0.736259
O O7 0.976741 0.862391 0.773045
#
# Coordination Sequence:
#
# PCOD8306039 Si02
#       4
#     8  16  16   8
#     4  10  18  35  58  83 114 148 192 242 288 341
#     4  10  22  38  58  86 118 156 198 244 299 354
#     4  10  20  35  58  86 114 148 191 239 292 348
#     4  10  22  37  56  87 120 150 194 252 300 345
#
# _framework density 19.665929999999999
#
# number of rings (size 3 to 8) (size 9 to 14) (size 15 to 20)
#    0.000    2.000    0.000    5.000    0.000    9.333 
#    0.000    0.000    0.000    0.500    0.000    0.000 
#    0.000    0.000    0.000    0.000    0.000    0.000 
#
# Total GULP energy -297510.413382 kJ/mol
# GULP energy per Si atom -12396.267224 kJ/mol
# Density = 1.962117 g / cm^3
# Si number density = 19.665930 Si / 1000 Ang^3
#
#
#
# Elastic Constant Matrix: (Units=GPa)
#
#
# Indices 1 2 3 4 5 6 
#
# 1 148.0900 79.7696 31.5264 0.0000 0.0000 0.0000
# 2 79.7696 148.0900 31.5264 0.0000 0.0000 0.0000
# 3 31.5264 31.5264 93.7759 0.0000 0.0000 0.0000
# 4 0.0000 0.0000 0.0000 32.3061 0.0000 0.0000
# 5 0.0000 0.0000 0.0000 0.0000 32.3061 0.0000
# 6 0.0000 0.0000 0.0000 0.0000 0.0000 30.5619
#
#
#
# Elastic Compliance Matrix: (Units=1/GPa)
#
#
# Indices 1 2 3 4 5 6 
#
# 1 0.009738 -0.004899 -0.001627 0.000000 0.000000 0.000000
# 2 -0.004899 0.009738 -0.001627 0.000000 0.000000 0.000000
# 3 -0.001627 -0.001627 0.011758 0.000000 0.000000 0.000000
# 4 0.000000 0.000000 0.000000 0.030954 0.000000 0.000000
# 5 0.000000 0.000000 0.000000 0.000000 0.030954 0.000000
# 6 0.000000 0.000000 0.000000 0.000000 0.000000 0.032720
#
#
# Mechanical properties :
#
#
# Convention : Reuss Voigt Hill
#
# Bulk Modulus (GPa) = 66.98764 75.06676 71.02720
# Shear Modulus (GPa) = 33.98063 35.51039 34.74551
#
# Velocity S-wave (km/s) = 4.16130 4.25394 4.20788
# Velocity P-wave (km/s) = 7.56474 7.89822 7.73328
#
# Compressibility (1/GPa) = 0.01492813
#
# Stress axis : x y z
#
# Youngs Moduli (GPa) = 102.69192 102.69193 85.05194
#
# Poissons Ratio (x) = 0.50309 0.13836
# Poissons Ratio (y) = 0.50309 0.13836
# Poissons Ratio (z) = 0.16705 0.16706
#
# Static dielectric constant tensor:
#      x y z
#    x 3.985060 0.000000 0.000000 
#    y 0.000000 3.985060 0.000000 
#    z 0.000000 0.000000 3.500970 
# 
# 
# High freq. dielectric constant tensor:
#      x y z
#    x 1.774410 0.000000 0.000000 
#    y 0.000000 1.774410 0.000000 
#    z 0.000000 0.000000 1.744540 
# 
# From -- ./inp_files/4372.got.cif
#   From: 2010.03.12/outbox.cif.g09.slc.cpg/sg97_3_cif.got.tgz:4372.got - 2010.04.08 20:59:42.
