data_PCOD8306428
_publ_section_title
;
Structure prediction by ZEFSAII (Michael W. Deem and Ramdas Pophale) SiO2 
 PCOD8306428
Probable space group: P 4 M M
;
_chemical_formula_sum "Si O2"
_cell_formula_units_Z 56
_cell_length_a 13.721433
_cell_length_b 13.721433
_cell_length_c 18.129166
_cell_angle_alpha 90.000000
_cell_angle_beta 90.000000
_cell_angle_gamma 90.000000
_cell_volume 3413.318105
_symmetry_space_group_name_H-M "P 4 M M"
_symmetry_group_IT_number 99
_symmetry_cell_setting 'tetragonal'
loop_
_space_group_symop_operation_xyz
x,y,z
-y,x,z
-x,-y,z
y,-x,z
-x,y,z
x,-y,z
-y,-x,z
y,x,z
loop_
_atom_site_type_symbol
_atom_site_label
_atom_site_fract_x
_atom_site_fract_y
_atom_site_fract_z
Si Si1 0.884867 0.732949 0.784250
Si Si2 0.391949 0.115738 0.921035
Si Si3 0.384485 0.226693 0.223607
Si Si4 0.108047 0.615621 0.082470
Si Si5 0.273072 0.884382 0.344654
Si Si6 0.608593 0.884577 0.484966
Si Si7 0.884311 0.608802 0.647832
O O1 0.840926 0.840926 0.785121
O O2 0.845012 0.676475 0.856082
O O3 0.844042 0.678781 0.711497
O O4 0.000000 0.743551 0.784129
O O5 0.500000 0.160206 0.909518
O O6 0.398654 0.000000 0.916719
O O7 0.349111 0.145294 0.001661
O O8 0.500000 0.244778 0.229150
O O9 0.329214 0.329214 0.236178
O O10 0.351574 0.184327 0.144445
O O11 0.352273 0.147180 0.283914
O O12 0.099572 0.500000 0.080588
O O13 0.000000 0.658846 0.099678
O O14 0.170292 0.829709 0.331685
O O15 0.315292 0.849346 0.423515
O O16 0.255073 0.000000 0.340152
O O17 0.500000 0.842051 0.469389
O O18 0.644925 0.850842 0.566330
O O19 0.601632 0.000000 0.482262
O O20 0.844003 0.500000 0.661840
O O21 0.000000 0.607012 0.652410
#
# Coordination Sequence:
#
# PCOD8306428 Si02
#       7
#     8   8   8   8   8   8   8
#     4  10  19  28  39  57  83 116 149 178 212 258
#     4   8  14  26  44  64  84 106 137 181 227 262
#     4  10  20  32  47  68  92 119 151 185 224 271
#     4   8  14  26  45  67  88 109 136 175 222 269
#     4  10  20  32  47  68  93 122 155 188 222 262
#     4   8  14  26  45  66  85 107 137 175 219 262
#     4   8  14  26  44  63  81 103 136 181 226 257
#
# _framework density 16.406323
#
# number of rings (size 3 to 8) (size 9 to 14) (size 15 to 20)
#    0.000    3.143    0.000    3.000    0.000    4.714 
#    0.000    0.000    0.000    0.000    0.000    4.000 
#    0.000    8.000    0.000   10.571    0.000    0.857 
#
# Total GULP energy -693946.991853 kJ/mol
# GULP energy per Si atom -12391.910569 kJ/mol
# Density = 1.636898 g / cm^3
# Si number density = 16.406323 Si / 1000 Ang^3
#
#
#
# Elastic Constant Matrix: (Units=GPa)
#
#
# Indices 1 2 3 4 5 6 
#
# 1 61.0313 33.6775 41.0730 0.0000 0.0000 0.0000
# 2 33.6775 61.0313 41.0730 0.0000 0.0000 0.0000
# 3 41.0730 41.0730 132.3820 0.0000 0.0000 0.0000
# 4 0.0000 0.0000 0.0000 13.4245 0.0000 0.0000
# 5 0.0000 0.0000 0.0000 0.0000 13.4245 0.0000
# 6 0.0000 0.0000 0.0000 0.0000 0.0000 13.0143
#
#
#
# Elastic Compliance Matrix: (Units=1/GPa)
#
#
# Indices 1 2 3 4 5 6 
#
# 1 0.025502 -0.011056 -0.004482 0.000000 0.000000 0.000000
# 2 -0.011056 0.025502 -0.004482 0.000000 0.000000 0.000000
# 3 -0.004482 -0.004482 0.010335 0.000000 0.000000 0.000000
# 4 0.000000 0.000000 0.000000 0.074491 0.000000 0.000000
# 5 0.000000 0.000000 0.000000 0.000000 0.074491 0.000000
# 6 0.000000 0.000000 0.000000 0.000000 0.000000 0.076839
#
#
# Mechanical properties :
#
#
# Convention : Reuss Voigt Hill
#
# Bulk Modulus (GPa) = 46.95012 54.01017 50.48015
# Shear Modulus (GPa) = 14.95666 17.21408 16.08537
#
# Velocity S-wave (km/s) = 3.02261 3.24270 3.13459
# Velocity P-wave (km/s) = 6.39225 6.85653 6.62845
#
# Compressibility (1/GPa) = 0.02129920
#
# Stress axis : x y z
#
# Youngs Moduli (GPa) = 39.21248 39.21248 96.75734
#
# Poissons Ratio (x) = 0.43353 0.43368
# Poissons Ratio (y) = 0.43353 0.43368
# Poissons Ratio (z) = 0.17575 0.17575
#
# Static dielectric constant tensor:
#      x y z
#    x 2.786440 0.000000 0.000000 
#    y 0.000000 2.786440 0.000000 
#    z 0.000000 0.000000 3.632340 
# 
# 
# High freq. dielectric constant tensor:
#      x y z
#    x 1.596820 0.000000 0.000000 
#    y 0.000000 1.596820 0.000000 
#    z 0.000000 0.000000 1.655200 
# 
# From -- ./inp_files/2004.got.cif
#   From: 2010.03.12/outbox.cif.g09.slc.cpg/sg99_cif.got.tgz:2004.got - 2010.04.08 21:11:30.
