data_PCOD8306430
_publ_section_title
;
Structure prediction by ZEFSAII (Michael W. Deem and Ramdas Pophale) SiO2 
 PCOD8306430
Probable space group: P 4 M M
;
_chemical_formula_sum "Si O2"
_cell_formula_units_Z 64
_cell_length_a 13.932562
_cell_length_b 13.932562
_cell_length_c 20.731933
_cell_angle_alpha 90.000000
_cell_angle_beta 90.000000
_cell_angle_gamma 90.000000
_cell_volume 4024.405792
_symmetry_space_group_name_H-M "P 4 M M"
_symmetry_group_IT_number 99
_symmetry_cell_setting 'tetragonal'
loop_
_space_group_symop_operation_xyz
x,y,z
-y,x,z
-x,-y,z
y,-x,z
-x,y,z
x,-y,z
-y,-x,z
y,x,z
loop_
_atom_site_type_symbol
_atom_site_label
_atom_site_fract_x
_atom_site_fract_y
_atom_site_fract_z
Si Si1 0.113864 0.730087 0.628850
Si Si2 0.113421 0.733679 0.145871
Si Si3 0.392458 0.885159 0.026809
Si Si4 0.390743 0.762513 0.385177
Si Si5 0.392674 0.114439 0.750359
Si Si6 0.613802 0.895057 0.888635
Si Si7 0.231363 0.611921 0.531436
Si Si8 0.888607 0.389897 0.267443
O O1 0.168141 0.831860 0.621544
O O2 0.146506 0.682615 0.696315
O O3 0.145034 0.656333 0.573052
O O4 0.000000 0.748088 0.624649
O O5 0.162521 0.837480 0.148042
O O6 0.150735 0.678160 0.082521
O O7 0.147459 0.673119 0.207681
O O8 0.000000 0.749558 0.144865
O O9 0.500000 0.848242 0.042562
O O10 0.393365 0.000000 0.023674
O O11 0.356640 0.843776 0.956484
O O12 0.500000 0.735920 0.372541
O O13 0.335548 0.664453 0.373909
O O14 0.375344 0.802308 0.457435
O O15 0.354353 0.840549 0.333764
O O16 0.500000 0.152246 0.732910
O O17 0.358523 0.157048 0.820670
O O18 0.396232 0.000000 0.755360
O O19 0.500000 0.906805 0.889661
O O20 0.662718 0.000000 0.888116
O O21 0.247642 0.500000 0.548788
O O22 0.330902 0.669099 0.544750
O O23 0.863779 0.500000 0.251435
O O24 0.000000 0.375007 0.278715
#
# Coordination Sequence:
#
# PCOD8306430 Si02
#       8
#     8   8   8   8   8   8   8   8
#     4  10  20  32  45  62  85 115 152 191 227 262
#     4  10  19  29  41  57  79 109 142 174 209 249
#     4   8  13  23  40  60  80 101 128 167 212 251
#     4   9  17  29  45  66  92 117 138 162 196 245
#     4   8  13  23  41  63  83 103 130 167 212 258
#     4   7  10  18  35  59  82 101 124 159 206 255
#     4   9  18  31  47  69  94 118 144 173 209 257
#     4   9  17  29  45  64  83 104 135 176 217 250
#
# _framework density 15.90297
#
# number of rings (size 3 to 8) (size 9 to 14) (size 15 to 20)
#    0.000    3.250    0.000    2.625    0.000    3.250 
#    0.000    3.125    0.000    0.000    0.000    0.000 
#    0.000   10.250    0.000    0.000    0.000   29.000 
#
# Total GULP energy -792908.576305 kJ/mol
# GULP energy per Si atom -12389.196505 kJ/mol
# Density = 1.586677 g / cm^3
# Si number density = 15.902970 Si / 1000 Ang^3
#
#
#
# Elastic Constant Matrix: (Units=GPa)
#
#
# Indices 1 2 3 4 5 6 
#
# 1 58.9759 33.6966 48.2411 0.0000 0.0000 0.0004
# 2 33.6966 58.9759 48.2411 0.0000 0.0000 -0.0004
# 3 48.2411 48.2411 136.5159 0.0000 0.0000 0.0000
# 4 0.0000 0.0000 0.0000 16.4443 0.0000 0.0000
# 5 0.0000 0.0000 0.0000 0.0000 16.4443 0.0000
# 6 0.0004 -0.0004 0.0000 0.0000 0.0000 15.7002
#
#
#
# Elastic Compliance Matrix: (Units=1/GPa)
#
#
# Indices 1 2 3 4 5 6 
#
# 1 0.028315 -0.011243 -0.006032 0.000000 0.000000 -0.000001
# 2 -0.011243 0.028315 -0.006032 0.000000 0.000000 0.000001
# 3 -0.006032 -0.006032 0.011589 0.000000 0.000000 0.000000
# 4 0.000000 0.000000 0.000000 0.060811 0.000000 0.000000
# 5 0.000000 0.000000 0.000000 0.000000 0.060811 0.000000
# 6 -0.000001 0.000001 0.000000 0.000000 0.000000 0.063693
#
#
# Mechanical properties :
#
#
# Convention : Reuss Voigt Hill
#
# Bulk Modulus (GPa) = 46.29427 57.20281 51.74854
# Shear Modulus (GPa) = 16.26803 18.00368 17.13586
#
# Velocity S-wave (km/s) = 3.20184 3.36831 3.28613
# Velocity P-wave (km/s) = 6.54543 7.15370 6.85631
#
# Compressibility (1/GPa) = 0.02160095
#
# Stress axis : x y z
#
# Youngs Moduli (GPa) = 35.31745 35.31745 86.29174
#
# Poissons Ratio (x) = 0.39709 0.52055
# Poissons Ratio (y) = 0.39709 0.52055
# Poissons Ratio (z) = 0.21305 0.21305
#
# Static dielectric constant tensor:
#      x y z
#    x 2.728260 0.000000 0.000000 
#    y 0.000000 2.728260 0.000000 
#    z 0.000000 0.000000 3.556040 
# 
# 
# High freq. dielectric constant tensor:
#      x y z
#    x 1.577650 0.000000 0.000000 
#    y 0.000000 1.577650 0.000000 
#    z 0.000000 0.000000 1.635860 
# 
# From -- ./inp_files/2334.got.cif
#   From: 2010.03.12/outbox.cif.g09.slc.cpg/sg99_cif.got.tgz:2334.got - 2010.04.08 21:11:30.
