data_PCOD8306276
_publ_section_title
;
Structure prediction by ZEFSAII (Michael W. Deem and Ramdas Pophale) SiO2 
 PCOD8306276
Probable space group: I 41 2 2
;
_chemical_formula_sum "Si O2"
_cell_formula_units_Z 72
_cell_length_a 18.023657
_cell_length_b 18.023657
_cell_length_c 10.492869
_cell_angle_alpha 90.000000
_cell_angle_beta 90.000000
_cell_angle_gamma 90.000000
_cell_volume 3408.631701
_symmetry_space_group_name_H-M "I 41 2 2"
_symmetry_group_IT_number 98
_symmetry_cell_setting 'tetragonal'
loop_
_space_group_symop_operation_xyz
x,y,z
-y,1/2+x,1/4+z
-x,-y,z
y,1/2-x,1/4+z
x,1/2-y,1/4-z
-x,1/2+y,1/4-z
y,x,-z
-y,-x,-z
1/2+x,1/2+y,1/2+z
1/2-y,x,3/4+z
1/2-x,1/2-y,1/2+z
1/2+y,-x,3/4+z
1/2+x,-y,3/4-z
1/2-x,y,3/4-z
1/2+y,1/2+x,1/2-z
1/2-y,1/2-x,1/2-z
loop_
_atom_site_type_symbol
_atom_site_label
_atom_site_fract_x
_atom_site_fract_y
_atom_site_fract_z
Si Si1 0.515337 0.750000 0.625000
Si Si2 0.473206 0.332517 0.085145
Si Si3 0.390727 0.785624 0.819314
Si Si4 0.551521 0.872469 0.445243
Si Si5 0.884989 0.116750 0.686161
O O1 0.462325 0.790621 0.727707
O O2 0.567650 0.810430 0.554109
O O3 0.457905 0.250000 0.125000
O O4 0.437140 0.386927 0.192864
O O5 0.560451 0.354746 0.073922
O O6 0.440967 0.337062 0.944344
O O7 0.318762 0.818762 0.750000
O O8 0.372377 0.700407 0.852693
O O9 0.408357 0.831778 0.945037
O O10 0.468764 0.903360 0.469896
#
# Coordination Sequence:
#
# PCOD8306276 Si02
#       5
#     8  16  16  16  16
#     4  10  20  40  66  90 126 170 210 282 332 390
#     4  11  23  41  62  92 120 163 215 267 316 388
#     4  11  19  36  59  87 132 165 212 256 314 388
#     4  10  22  41  67  84 126 161 208 267 328 384
#     4  11  22  36  60  90 126 175 210 258 317 393
#
# _framework density 21.122845000000002
#
# number of rings (size 3 to 8) (size 9 to 14) (size 15 to 20)
#    0.000    1.333    4.444    4.000    0.000    3.556 
#    0.000    6.667    9.778    0.000    0.000    0.000 
#    0.000    0.000    0.000    0.000    0.000    0.000 
#
# Total GULP energy -446287.159415 kJ/mol
# GULP energy per Si atom -12396.865539 kJ/mol
# Density = 2.107477 g / cm^3
# Si number density = 21.122845 Si / 1000 Ang^3
#
#
#
# Elastic Constant Matrix: (Units=GPa)
#
#
# Indices 1 2 3 4 5 6 
#
# 1 111.5315 64.4251 31.1268 0.0000 0.0000 0.0000
# 2 64.4251 111.5315 31.1268 0.0000 0.0000 0.0000
# 3 31.1268 31.1268 59.0104 0.0000 0.0000 0.0000
# 4 0.0000 0.0000 0.0000 39.4901 0.0000 0.0000
# 5 0.0000 0.0000 0.0000 0.0000 39.4901 0.0000
# 6 0.0000 0.0000 0.0000 0.0000 0.0000 20.1372
#
#
#
# Elastic Compliance Matrix: (Units=1/GPa)
#
#
# Indices 1 2 3 4 5 6 
#
# 1 0.014108 -0.007121 -0.003686 0.000000 0.000000 0.000000
# 2 -0.007121 0.014108 -0.003686 0.000000 0.000000 0.000000
# 3 -0.003686 -0.003686 0.020834 0.000000 0.000000 0.000000
# 4 0.000000 0.000000 0.000000 0.025323 0.000000 0.000000
# 5 0.000000 0.000000 0.000000 0.000000 0.025323 0.000000
# 6 0.000000 0.000000 0.000000 0.000000 0.000000 0.049659
#
#
# Mechanical properties :
#
#
# Convention : Reuss Voigt Hill
#
# Bulk Modulus (GPa) = 49.83480 59.49229 54.66355
# Shear Modulus (GPa) = 27.02301 30.18314 28.60307
#
# Velocity S-wave (km/s) = 3.58065 3.78422 3.68384
# Velocity P-wave (km/s) = 6.38269 6.87894 6.63546
#
# Compressibility (1/GPa) = 0.02006630
#
# Stress axis : x y z
#
# Youngs Moduli (GPa) = 70.88243 70.88243 47.99778
#
# Poissons Ratio (x) = 0.50473 0.17690
# Poissons Ratio (y) = 0.50473 0.17690
# Poissons Ratio (z) = 0.26124 0.26124
#
# Static dielectric constant tensor:
#      x y z
#    x 3.872190 0.000000 0.000000 
#    y 0.000000 3.872190 0.000000 
#    z 0.000000 0.000000 4.000460 
# 
# 
# High freq. dielectric constant tensor:
#      x y z
#    x 1.815320 0.000000 0.000000 
#    y 0.000000 1.815320 0.000000 
#    z 0.000000 0.000000 1.836520 
# 
# From -- ./inp_files/4966.got.cif
#   From: 2010.03.12/outbox.cif.g09.slc.cpg/sg98_3_cif.got.tgz:4966.got - 2010.04.08 21:04:41.
