data_PCOD8306710
_publ_section_title
;
Structure prediction by ZEFSAII (Michael W. Deem and Ramdas Pophale) SiO2 
 PCOD8306710
Probable space group: P 42 C M
;
_chemical_formula_sum "Si O2"
_cell_formula_units_Z 56
_cell_length_a 12.158999
_cell_length_b 12.158999
_cell_length_c 22.283845
_cell_angle_alpha 90.000000
_cell_angle_beta 90.000000
_cell_angle_gamma 90.000000
_cell_volume 3294.471649
_symmetry_space_group_name_H-M "P 42 C M"
_symmetry_group_IT_number 101
_symmetry_cell_setting 'tetragonal'
loop_
_space_group_symop_operation_xyz
x,y,z
-y,x,1/2+z
-x,-y,z
y,-x,1/2+z
-x,y,1/2+z
x,-y,1/2+z
-y,-x,z
y,x,z
loop_
_atom_site_type_symbol
_atom_site_label
_atom_site_fract_x
_atom_site_fract_y
_atom_site_fract_z
Si Si1 0.739011 0.441290 0.560850
Si Si2 0.320466 0.497889 0.927752
Si Si3 0.382606 0.945164 0.615172
Si Si4 0.176008 0.651582 0.126264
Si Si5 0.879832 0.293808 0.258912
Si Si6 0.873121 0.497481 0.336049
Si Si7 0.309810 0.873403 0.742524
O O1 0.639142 0.360859 0.581409
O O2 0.713084 0.492943 0.497079
O O3 0.857546 0.378061 0.560188
O O4 0.762356 0.538094 0.608795
O O5 0.397085 0.602916 0.917167
O O6 0.386762 0.386762 0.909715
O O7 0.209114 0.515946 0.891106
O O8 0.341290 0.876844 0.672600
O O9 0.500000 0.000000 0.631749
O O10 0.317775 0.056395 0.596878
O O11 0.250530 0.749471 0.102885
O O12 0.159755 0.649160 0.197570
O O13 0.820105 0.179896 0.271294
O O14 0.847825 0.377156 0.311195
O O15 0.007749 0.262592 0.259836
O O16 0.848123 0.585323 0.283969
O O17 0.000000 0.500000 0.358166
O O18 0.218336 0.781665 0.754283
#
# Coordination Sequence:
#
# PCOD8306710 Si02
#       7
#     8   8   8   8   8   8   8
#     4  10  19  31  48  68  91 120 153 189 228 271
#     4  10  21  35  49  67  93 122 152 190 234 276
#     4   9  17  30  47  68  95 123 152 185 224 270
#     4   9  17  30  48  69  95 123 150 184 224 268
#     4   9  18  32  48  68  95 125 154 184 224 272
#     4  10  19  32  50  70  92 120 155 191 227 270
#     4  10  18  29  48  72  96 121 151 189 227 266
#
# _framework density 16.998173999999999
#
# number of rings (size 3 to 8) (size 9 to 14) (size 15 to 20)
#    0.000    2.429    0.000    4.714    0.000    2.857 
#    0.000    0.714    0.000    3.000    0.000    0.000 
#    0.000    5.714    0.000    0.000    0.000    0.000 
#
# Total GULP energy -693817.529767 kJ/mol
# GULP energy per Si atom -12389.598746 kJ/mol
# Density = 1.695949 g / cm^3
# Si number density = 16.998174 Si / 1000 Ang^3
#
#
#
# Elastic Constant Matrix: (Units=GPa)
#
#
# Indices 1 2 3 4 5 6 
#
# 1 81.4692 44.5050 25.1448 0.0000 0.0000 -0.0006
# 2 44.5050 81.4692 25.1448 0.0000 0.0000 0.0006
# 3 25.1448 25.1448 35.3744 0.0000 0.0000 0.0000
# 4 0.0000 0.0000 0.0000 22.8594 0.0000 0.0000
# 5 0.0000 0.0000 0.0000 0.0000 22.8594 0.0000
# 6 -0.0006 0.0006 0.0000 0.0000 0.0000 30.1736
#
#
#
# Elastic Compliance Matrix: (Units=1/GPa)
#
#
# Indices 1 2 3 4 5 6 
#
# 1 0.019068 -0.007985 -0.007878 0.000000 0.000000 0.000001
# 2 -0.007985 0.019068 -0.007878 0.000000 0.000000 -0.000001
# 3 -0.007878 -0.007878 0.039469 0.000000 0.000000 0.000000
# 4 0.000000 0.000000 0.000000 0.043746 0.000000 0.000000
# 5 0.000000 0.000000 0.000000 0.000000 0.043746 0.000000
# 6 0.000001 -0.000001 0.000000 0.000000 0.000000 0.033142
#
#
# Mechanical properties :
#
#
# Convention : Reuss Voigt Hill
#
# Bulk Modulus (GPa) = 33.19755 43.10022 38.14888
# Shear Modulus (GPa) = 19.54948 22.07970 20.81459
#
# Velocity S-wave (km/s) = 3.39498 3.60800 3.50311
# Velocity P-wave (km/s) = 5.91103 6.53970 6.23330
#
# Compressibility (1/GPa) = 0.03012271
#
# Stress axis : x y z
#
# Youngs Moduli (GPa) = 52.44353 52.44353 25.33644
#
# Poissons Ratio (x) = 0.41876 0.19960
# Poissons Ratio (y) = 0.41876 0.19960
# Poissons Ratio (z) = 0.41315 0.41315
#
# Static dielectric constant tensor:
#      x y z
#    x 3.513600 0.000000 0.000000 
#    y 0.000000 3.513600 0.000000 
#    z 0.000000 0.000000 2.929620 
# 
# 
# High freq. dielectric constant tensor:
#      x y z
#    x 1.660960 0.000000 0.000000 
#    y 0.000000 1.660960 0.000000 
#    z 0.000000 0.000000 1.630490 
# 
# From -- ./inp_files/2548.got.cif
#   From: 2010.03.12/outbox.cif.g09.slc.cpg/sg101_2_cif.got.tgz:2548.got - 2010.04.14 01:38:52.
