data_PCOD8306721
_publ_section_title
;
Structure prediction by ZEFSAII (Michael W. Deem and Ramdas Pophale) SiO2 
 PCOD8306721
Probable space group: P 42 C M
;
_chemical_formula_sum "Si O2"
_cell_formula_units_Z 48
_cell_length_a 11.516254
_cell_length_b 11.516254
_cell_length_c 18.015370
_cell_angle_alpha 90.000000
_cell_angle_beta 90.000000
_cell_angle_gamma 90.000000
_cell_volume 2389.272344
_symmetry_space_group_name_H-M "P 42 C M"
_symmetry_group_IT_number 101
_symmetry_cell_setting 'tetragonal'
loop_
_space_group_symop_operation_xyz
x,y,z
-y,x,1/2+z
-x,-y,z
y,-x,1/2+z
-x,y,1/2+z
x,-y,1/2+z
-y,-x,z
y,x,z
loop_
_atom_site_type_symbol
_atom_site_label
_atom_site_fract_x
_atom_site_fract_y
_atom_site_fract_z
Si Si1 0.739095 0.446115 0.134800
Si Si2 0.866043 0.678221 0.107948
Si Si3 0.983160 0.638716 0.263006
Si Si4 0.291682 0.893245 0.041451
Si Si5 0.778303 0.402038 0.299219
Si Si6 0.373996 0.188694 0.385960
O O1 0.611283 0.388718 0.112715
O O2 0.778233 0.567881 0.096505
O O3 0.836960 0.352729 0.113337
O O4 0.741704 0.468336 0.223166
O O5 0.793020 0.793020 0.099872
O O6 0.930008 0.680883 0.186531
O O7 0.967652 0.693879 0.046589
O O8 0.112886 0.683342 0.280978
O O9 0.000000 0.500000 0.261411
O O10 0.901653 0.684601 0.329092
O O11 0.158811 0.841190 0.036327
O O12 0.363945 0.855761 0.969427
O O13 0.675200 0.324801 0.329817
O O14 0.801062 0.491194 0.365556
O O15 0.313130 0.313130 0.377038
#
# Coordination Sequence:
#
# PCOD8306721 Si02
#       6
#     8   8   8   8   8   8
#     4  10  20  37  60  89 126 163 201 251 304 370
#     4  12  22  35  61  92 123 162 211 256 313 381
#     4  10  18  34  57  84 119 158 201 242 288 364
#     4  10  22  41  62  85 118 163 213 261 311 367
#     4  10  20  35  60  91 122 157 198 242 298 365
#     4  10  21  38  61  88 117 156 201 251 308 361
#
# _framework density 20.0898
#
# number of rings (size 3 to 8) (size 9 to 14) (size 15 to 20)
#    0.000    1.667    5.000    1.000    0.000    5.000 
#    0.000    5.000    0.000    5.500    0.000    0.000 
#    0.000    0.000    0.000    0.000    0.000    0.000 
#
# Total GULP energy -594628.341678 kJ/mol
# GULP energy per Si atom -12388.090452 kJ/mol
# Density = 2.004407 g / cm^3
# Si number density = 20.089800 Si / 1000 Ang^3
#
#
#
# Elastic Constant Matrix: (Units=GPa)
#
#
# Indices 1 2 3 4 5 6 
#
# 1 103.4126 75.1503 42.5297 0.0000 0.0000 0.0001
# 2 75.1503 103.4126 42.5297 0.0000 0.0000 -0.0001
# 3 42.5297 42.5297 69.8460 0.0000 0.0000 0.0000
# 4 0.0000 0.0000 0.0000 25.7107 0.0000 0.0000
# 5 0.0000 0.0000 0.0000 0.0000 25.7107 0.0000
# 6 0.0001 -0.0001 0.0000 0.0000 0.0000 27.5358
#
#
#
# Elastic Compliance Matrix: (Units=1/GPa)
#
#
# Indices 1 2 3 4 5 6 
#
# 1 0.021636 -0.013747 -0.004803 0.000000 0.000000 0.000000
# 2 -0.013747 0.021636 -0.004803 0.000000 0.000000 0.000000
# 3 -0.004803 -0.004803 0.020167 0.000000 0.000000 0.000000
# 4 0.000000 0.000000 0.000000 0.038894 0.000000 0.000000
# 5 0.000000 0.000000 0.000000 0.000000 0.038894 0.000000
# 6 0.000000 0.000000 0.000000 0.000000 0.000000 0.036316
#
#
# Mechanical properties :
#
#
# Convention : Reuss Voigt Hill
#
# Bulk Modulus (GPa) = 59.77175 66.34340 63.05757
# Shear Modulus (GPa) = 21.75546 23.55552 22.65549
#
# Velocity S-wave (km/s) = 3.29433 3.42791 3.36178
# Velocity P-wave (km/s) = 6.65485 6.98302 6.82091
#
# Compressibility (1/GPa) = 0.01673031
#
# Stress axis : x y z
#
# Youngs Moduli (GPa) = 46.22008 46.22008 49.58676
#
# Poissons Ratio (x) = 0.63540 0.23818
# Poissons Ratio (y) = 0.63540 0.23818
# Poissons Ratio (z) = 0.22201 0.22201
#
# Static dielectric constant tensor:
#      x y z
#    x 3.910760 0.000000 0.000000 
#    y 0.000000 3.910760 0.000000 
#    z 0.000000 0.000000 3.531990 
# 
# 
# High freq. dielectric constant tensor:
#      x y z
#    x 1.772540 0.000000 0.000000 
#    y 0.000000 1.772540 0.000000 
#    z 0.000000 0.000000 1.777390 
# 
# From -- ./inp_files/2123.got.cif
#   From: 2010.03.12/outbox.cif.g09.slc.cpg/sg101_2_cif.got.tgz:2123.got - 2010.04.14 01:38:52.
