data_PCOD8306546
_publ_section_title
;
Structure prediction by ZEFSAII (Michael W. Deem and Ramdas Pophale) SiO2 
 PCOD8306546
Probable space group: P 4 M M
;
_chemical_formula_sum "Si O2"
_cell_formula_units_Z 64
_cell_length_a 13.308722
_cell_length_b 13.308722
_cell_length_c 20.712465
_cell_angle_alpha 90.000000
_cell_angle_beta 90.000000
_cell_angle_gamma 90.000000
_cell_volume 3668.634909
_symmetry_space_group_name_H-M "P 4 M M"
_symmetry_group_IT_number 99
_symmetry_cell_setting 'tetragonal'
loop_
_space_group_symop_operation_xyz
x,y,z
-y,x,z
-x,-y,z
y,-x,z
-x,y,z
x,-y,z
-y,-x,z
y,x,z
loop_
_atom_site_type_symbol
_atom_site_label
_atom_site_fract_x
_atom_site_fract_y
_atom_site_fract_z
Si Si1 0.270152 0.114102 0.012950
Si Si2 0.117933 0.717535 0.636421
Si Si3 0.782903 0.382689 0.516162
Si Si4 0.880693 0.611490 0.132719
Si Si5 0.881096 0.387721 0.273538
Si Si6 0.881472 0.278282 0.400463
Si Si7 0.280665 0.883464 0.869417
Si Si8 0.781600 0.617068 0.755609
O O1 0.160024 0.160024 0.009697
O O2 0.330983 0.166789 0.071385
O O3 0.253138 0.000000 0.030684
O O4 0.322403 0.128388 0.942877
O O5 0.176393 0.823608 0.634499
O O6 0.149591 0.648112 0.576839
O O7 0.143114 0.656579 0.700999
O O8 0.000000 0.741195 0.633496
O O9 0.756401 0.500000 0.519661
O O10 0.678253 0.321748 0.515506
O O11 0.848404 0.361039 0.452494
O O12 0.836401 0.500000 0.129627
O O13 0.850481 0.657599 0.202960
O O14 0.000000 0.608570 0.125632
O O15 0.835775 0.500000 0.281917
O O16 0.843045 0.315945 0.330519
O O17 0.000000 0.396171 0.278011
O O18 0.827671 0.172330 0.415510
O O19 0.000000 0.260189 0.403640
O O20 0.176086 0.823915 0.858592
O O21 0.366124 0.837030 0.823839
O O22 0.260119 0.000000 0.853037
O O23 0.758282 0.500000 0.746152
O O24 0.675768 0.675768 0.752078
#
# Coordination Sequence:
#
# PCOD8306546 Si02
#       8
#     8   8   8   8   8   8   8   8
#     4   9  17  28  42  62  90 122 154 188 226 273
#     4  10  21  36  54  78 106 135 168 202 236 278
#     4  10  21  36  54  77 102 128 162 203 246 292
#     4   8  14  25  41  61  84 111 147 191 235 276
#     4   8  14  26  44  63  83 111 149 193 238 280
#     4  10  20  32  47  69  96 127 163 200 239 286
#     4   9  18  31  46  67  94 124 160 199 239 285
#     4  10  21  36  53  74  99 126 159 199 242 290
#
# _framework density 17.445181000000002
#
# number of rings (size 3 to 8) (size 9 to 14) (size 15 to 20)
#    0.000    2.750    0.000    2.250    0.000    4.750 
#    0.000    2.500    0.000    6.750    0.000    3.500 
#    0.000    0.250    0.000    2.750    0.000    4.750 
#
# Total GULP energy -793207.649931 kJ/mol
# GULP energy per Si atom -12393.869530 kJ/mol
# Density = 1.740547 g / cm^3
# Si number density = 17.445181 Si / 1000 Ang^3
#
#
#
# Elastic Constant Matrix: (Units=GPa)
#
#
# Indices 1 2 3 4 5 6 
#
# 1 92.2699 39.3067 43.8863 0.0000 0.0000 -0.0004
# 2 39.3067 92.2699 43.8863 0.0000 0.0000 0.0004
# 3 43.8863 43.8863 131.8924 0.0000 0.0000 0.0000
# 4 0.0000 0.0000 0.0000 23.7376 0.0000 0.0000
# 5 0.0000 0.0000 0.0000 0.0000 23.7376 0.0000
# 6 -0.0004 0.0004 0.0000 0.0000 0.0000 10.8354
#
#
#
# Elastic Compliance Matrix: (Units=1/GPa)
#
#
# Indices 1 2 3 4 5 6 
#
# 1 0.014325 -0.004556 -0.003250 0.000000 0.000000 0.000001
# 2 -0.004556 0.014325 -0.003250 0.000000 0.000000 -0.000001
# 3 -0.003250 -0.003250 0.009745 0.000000 0.000000 0.000000
# 4 0.000000 0.000000 0.000000 0.042127 0.000000 0.000000
# 5 0.000000 0.000000 0.000000 0.000000 0.042127 0.000000
# 6 0.000001 -0.000001 0.000000 0.000000 0.000000 0.092290
#
#
# Mechanical properties :
#
#
# Convention : Reuss Voigt Hill
#
# Bulk Modulus (GPa) = 61.42375 63.39896 62.41136
# Shear Modulus (GPa) = 20.62027 24.28565 22.45296
#
# Velocity S-wave (km/s) = 3.44176 3.73515 3.59145
# Velocity P-wave (km/s) = 7.14705 7.41772 7.28364
#
# Compressibility (1/GPa) = 0.01628035
#
# Stress axis : x y z
#
# Youngs Moduli (GPa) = 69.80935 69.80935 102.61656
#
# Poissons Ratio (x) = 0.31807 0.33354
# Poissons Ratio (y) = 0.31807 0.33354
# Poissons Ratio (z) = 0.22691 0.22691
#
# Static dielectric constant tensor:
#      x y z
#    x 3.036700 0.000000 0.000000 
#    y 0.000000 3.036700 0.000000 
#    z 0.000000 0.000000 3.721270 
# 
# 
# High freq. dielectric constant tensor:
#      x y z
#    x 1.650730 0.000000 0.000000 
#    y 0.000000 1.650730 0.000000 
#    z 0.000000 0.000000 1.701030 
# 
# From -- ./inp_files/2297.got.cif
#   From: 2010.03.12/outbox.cif.g09.slc.cpg/sg99_cif.got.tgz:2297.got - 2010.04.08 21:11:30.
