data_PCOD8306873
_publ_section_title
;
Structure prediction by ZEFSAII (Michael W. Deem and Ramdas Pophale) SiO2 
 PCOD8306873
Probable space group: P 42 N M
;
_chemical_formula_sum "Si O2"
_cell_formula_units_Z 48
_cell_length_a 12.878379
_cell_length_b 12.878379
_cell_length_c 16.905360
_cell_angle_alpha 90.000000
_cell_angle_beta 90.000000
_cell_angle_gamma 90.000000
_cell_volume 2803.798682
_symmetry_space_group_name_H-M "P 42 N M"
_symmetry_group_IT_number 102
_symmetry_cell_setting 'tetragonal'
loop_
_space_group_symop_operation_xyz
x,y,z
1/2-y,1/2+x,1/2+z
-x,-y,z
1/2+y,1/2-x,1/2+z
1/2-x,1/2+y,1/2+z
1/2+x,1/2-y,1/2+z
-y,-x,z
y,x,z
loop_
_atom_site_type_symbol
_atom_site_label
_atom_site_fract_x
_atom_site_fract_y
_atom_site_fract_z
Si Si1 0.113694 0.279046 0.250000
Si Si2 0.559178 0.896253 0.117207
Si Si3 0.576032 0.742940 0.348223
Si Si4 0.423968 0.742940 0.206333
Si Si5 0.113694 0.720955 0.304554
Si Si6 0.396253 0.059179 0.937347
O O1 0.171494 0.171494 0.236880
O O2 0.114235 0.337051 0.166857
O O3 0.167964 0.348246 0.316768
O O4 0.000000 0.250078 0.277277
O O5 0.487141 0.794094 0.132949
O O6 0.500000 0.000000 0.145038
O O7 0.594721 0.905278 0.027277
O O8 0.642456 0.642456 0.376954
O O9 0.500000 0.707317 0.277278
O O10 0.512859 0.794094 0.421606
O O11 0.357545 0.642456 0.177601
O O12 0.348245 0.832035 0.237786
O O13 0.171493 0.828508 0.317675
O O14 0.114235 0.662950 0.387697
O O15 0.500000 0.000000 0.909516
#
# Coordination Sequence:
#
# PCOD8306873 Si02
#       6
#     8   8   8   8   8   8
#     4  10  19  33  53  75 101 137 177 217 259 310
#     4  10  19  33  54  78 107 140 176 216 263 316
#     4   9  18  32  54  79 104 136 176 219 261 303
#     4   9  18  32  54  79 104 136 176 219 261 303
#     4  10  19  33  53  75 101 137 177 217 259 310
#     4  10  19  33  54  78 107 140 176 216 263 316
#
# _framework density 17.119631999999999
#
# number of rings (size 3 to 8) (size 9 to 14) (size 15 to 20)
#    0.000    2.333    3.333    0.000    0.000    1.333 
#    0.000    5.000    0.000    0.000    0.000    0.000 
#    0.000    0.000    0.000    0.000    0.000    0.000 
#
# Total GULP energy -595086.659827 kJ/mol
# GULP energy per Si atom -12397.638746 kJ/mol
# Density = 1.708067 g / cm^3
# Si number density = 17.119632 Si / 1000 Ang^3
#
#
#
# Elastic Constant Matrix: (Units=GPa)
#
#
# Indices 1 2 3 4 5 6 
#
# 1 117.4752 82.1747 54.7618 0.0000 0.0000 0.0003
# 2 82.1747 117.4752 54.7618 0.0000 0.0000 -0.0003
# 3 54.7618 54.7618 89.6606 0.0000 0.0000 0.0000
# 4 0.0000 0.0000 0.0000 19.0402 0.0000 0.0000
# 5 0.0000 0.0000 0.0000 0.0000 19.0402 0.0000
# 6 0.0003 -0.0003 0.0000 0.0000 0.0000 38.9921
#
#
#
# Elastic Compliance Matrix: (Units=1/GPa)
#
#
# Indices 1 2 3 4 5 6 
#
# 1 0.017930 -0.010398 -0.004601 0.000000 0.000000 0.000000
# 2 -0.010398 0.017930 -0.004601 0.000000 0.000000 0.000000
# 3 -0.004601 -0.004601 0.016773 0.000000 0.000000 0.000000
# 4 0.000000 0.000000 0.000000 0.052520 0.000000 0.000000
# 5 0.000000 0.000000 0.000000 0.000000 0.052520 0.000000
# 6 0.000000 0.000000 0.000000 0.000000 0.000000 0.025646
#
#
# Mechanical properties :
#
#
# Convention : Reuss Voigt Hill
#
# Bulk Modulus (GPa) = 74.42929 78.66753 76.54841
# Shear Modulus (GPa) = 22.02666 24.27535 23.15101
#
# Velocity S-wave (km/s) = 3.59086 3.76970 3.68136
# Velocity P-wave (km/s) = 7.79504 8.06219 7.92974
#
# Compressibility (1/GPa) = 0.01343557
#
# Stress axis : x y z
#
# Youngs Moduli (GPa) = 55.77124 55.77124 59.61951
#
# Poissons Ratio (x) = 0.57990 0.27429
# Poissons Ratio (y) = 0.57990 0.27429
# Poissons Ratio (z) = 0.25658 0.25658
#
# Static dielectric constant tensor:
#      x y z
#    x 3.391090 0.000000 0.000000 
#    y 0.000000 3.391090 0.000000 
#    z 0.000000 0.000000 2.911840 
# 
# 
# High freq. dielectric constant tensor:
#      x y z
#    x 1.661820 0.000000 0.000000 
#    y 0.000000 1.661820 0.000000 
#    z 0.000000 0.000000 1.637420 
# 
# From -- ./inp_files/2701.got.cif
#   From: 2010.03.12/outbox.cif.g09.slc.cpg/sg102_2_cif.got.tgz:2701.got - 2010.04.14 01:40:42.
