data_PCOD8306967
_publ_section_title
;
Structure prediction by ZEFSAII (Michael W. Deem and Ramdas Pophale) SiO2 
 PCOD8306967
Probable space group: P 4 C C
;
_chemical_formula_sum "Si O2"
_cell_formula_units_Z 48
_cell_length_a 17.729638
_cell_length_b 17.729638
_cell_length_c 9.077660
_cell_angle_alpha 90.000000
_cell_angle_beta 90.000000
_cell_angle_gamma 90.000000
_cell_volume 2853.472222
_symmetry_space_group_name_H-M "P 4 C C"
_symmetry_group_IT_number 103
_symmetry_cell_setting 'tetragonal'
loop_
_space_group_symop_operation_xyz
x,y,z
-y,x,z
-x,-y,z
y,-x,z
-x,y,1/2+z
x,-y,1/2+z
-y,-x,1/2+z
y,x,1/2+z
loop_
_atom_site_type_symbol
_atom_site_label
_atom_site_fract_x
_atom_site_fract_y
_atom_site_fract_z
Si Si1 0.919725 0.421689 0.791090
Si Si2 0.330768 0.569282 0.775495
Si Si3 0.204503 0.305651 0.950457
Si Si4 0.795497 0.694349 0.274614
Si Si5 0.569282 0.330768 0.949575
Si Si6 0.578311 0.919725 0.433981
O O1 0.866274 0.352048 0.841107
O O2 0.923143 0.429684 0.612535
O O3 0.889571 0.500000 0.862535
O O4 0.000000 0.402876 0.862535
O O5 0.273232 0.637277 0.766653
O O6 0.353310 0.542474 0.612535
O O7 0.405672 0.594328 0.862535
O O8 0.292748 0.500000 0.862535
O O9 0.230523 0.230523 0.862535
O O10 0.133726 0.352048 0.883964
O O11 0.182714 0.276792 0.112535
O O12 0.273232 0.362723 0.958417
#
# Coordination Sequence:
#
# PCOD8306967 Si02
#       6
#     8   8   8   8   8   8
#     4  10  19  31  47  70  96 125 157 191 230 275
#     4  10  19  31  44  59  78 104 138 179 221 262
#     4   9  19  32  47  66  89 116 149 184 223 268
#     4   9  19  32  47  66  89 116 149 184 223 268
#     4  10  19  31  44  59  78 104 138 179 221 262
#     4  10  19  31  47  70  96 125 157 191 230 275
#
# _framework density 16.821611000000001
#
# number of rings (size 3 to 8) (size 9 to 14) (size 15 to 20)
#    0.000    2.333    0.000    4.000    0.000    4.333 
#    0.000    1.667    0.000    0.000    0.000    0.000 
#    0.000    0.667    0.000    7.333    0.000    5.333 
#
# Total GULP energy -594742.182389 kJ/mol
# GULP energy per Si atom -12390.462133 kJ/mol
# Density = 1.678332 g / cm^3
# Si number density = 16.821611 Si / 1000 Ang^3
#
#
#
# Elastic Constant Matrix: (Units=GPa)
#
#
# Indices 1 2 3 4 5 6 
#
# 1 76.0118 38.3729 37.5855 0.0000 0.0000 0.0000
# 2 38.3729 76.0118 37.5855 0.0000 0.0000 0.0000
# 3 37.5855 37.5855 108.6429 0.0000 0.0000 0.0000
# 4 0.0000 0.0000 0.0000 21.3453 0.0000 0.0000
# 5 0.0000 0.0000 0.0000 0.0000 21.3453 0.0000
# 6 0.0000 0.0000 0.0000 0.0000 0.0000 36.4461
#
#
#
# Elastic Compliance Matrix: (Units=1/GPa)
#
#
# Indices 1 2 3 4 5 6 
#
# 1 0.018942 -0.007627 -0.003914 0.000000 0.000000 0.000000
# 2 -0.007627 0.018942 -0.003914 0.000000 0.000000 0.000000
# 3 -0.003914 -0.003914 0.011913 0.000000 0.000000 0.000000
# 4 0.000000 0.000000 0.000000 0.046849 0.000000 0.000000
# 5 0.000000 0.000000 0.000000 0.000000 0.046849 0.000000
# 6 0.000000 0.000000 0.000000 0.000000 0.000000 0.027438
#
#
# Mechanical properties :
#
#
# Convention : Reuss Voigt Hill
#
# Bulk Modulus (GPa) = 52.95222 54.19492 53.57357
# Shear Modulus (GPa) = 24.02259 25.63552 24.82906
#
# Velocity S-wave (km/s) = 3.78309 3.90803 3.84607
# Velocity P-wave (km/s) = 7.11543 7.25610 7.18611
#
# Compressibility (1/GPa) = 0.01888495
#
# Stress axis : x y z
#
# Youngs Moduli (GPa) = 52.79395 52.79395 83.94266
#
# Poissons Ratio (x) = 0.40264 0.32859
# Poissons Ratio (y) = 0.40264 0.32859
# Poissons Ratio (z) = 0.20666 0.20666
#
# Static dielectric constant tensor:
#      x y z
#    x 3.037660 0.000000 0.000000 
#    y 0.000000 3.037660 0.000000 
#    z 0.000000 0.000000 3.705340 
# 
# 
# High freq. dielectric constant tensor:
#      x y z
#    x 1.621100 0.000000 0.000000 
#    y 0.000000 1.621100 0.000000 
#    z 0.000000 0.000000 1.664130 
# 
# From -- ./inp_files/257.got.cif
#   From: 2010.03.12/outbox.cif.g09.slc.cpg/sg103_cif.got.tgz:257.got - 2010.04.14 01:42:52.
