data_PCOD8306784
_publ_section_title
;
Structure prediction by ZEFSAII (Michael W. Deem and Ramdas Pophale) SiO2 
 PCOD8306784
Probable space group: P 42 C M
;
_chemical_formula_sum "Si O2"
_cell_formula_units_Z 56
_cell_length_a 16.207676
_cell_length_b 16.207676
_cell_length_c 11.017997
_cell_angle_alpha 90.000000
_cell_angle_beta 90.000000
_cell_angle_gamma 90.000000
_cell_volume 2894.303984
_symmetry_space_group_name_H-M "P 42 C M"
_symmetry_group_IT_number 101
_symmetry_cell_setting 'tetragonal'
loop_
_space_group_symop_operation_xyz
x,y,z
-y,x,1/2+z
-x,-y,z
y,-x,1/2+z
-x,y,1/2+z
x,-y,1/2+z
-y,-x,z
y,x,z
loop_
_atom_site_type_symbol
_atom_site_label
_atom_site_fract_x
_atom_site_fract_y
_atom_site_fract_z
Si Si1 0.207075 0.340851 0.375000
Si Si2 0.702344 0.435194 0.512049
Si Si3 0.792925 0.659149 0.649093
Si Si4 0.834944 0.303358 0.512048
Si Si5 0.094685 0.771508 0.281967
Si Si6 0.228492 0.905317 0.742130
Si Si7 0.255838 0.500001 0.262048
O O1 0.291749 0.291749 0.345421
O O2 0.205294 0.373548 0.512047
O O3 0.130429 0.278870 0.356819
O O4 0.200821 0.418181 0.283427
O O5 0.631414 0.368587 0.512050
O O6 0.794051 0.394261 0.512049
O O7 0.691638 0.488637 0.387357
O O8 0.691638 0.488638 0.636740
O O9 0.708250 0.708250 0.678671
O O10 0.869570 0.721132 0.667276
O O11 0.799180 0.581820 0.740667
O O12 0.760427 0.239574 0.512049
O O13 0.892721 0.288891 0.396099
O O14 0.892723 0.288890 0.627996
O O15 0.141959 0.858042 0.300151
O O16 0.000001 0.793304 0.262048
O O17 0.141959 0.858042 0.723948
#
# Coordination Sequence:
#
# PCOD8306784 Si02
#       7
#     8   8   8   8   8   8   8
#     4  10  21  37  58  84 114 153 197 237 285 347
#     4  11  22  38  62  89 118 158 205 248 292 348
#     4  10  21  37  58  84 114 153 197 237 285 347
#     4   9  18  36  58  81 108 148 200 239 278 337
#     4  10  21  37  59  85 116 152 191 239 293 350
#     4  10  21  37  59  85 116 152 191 239 293 350
#     4  12  20  36  63  91 114 152 200 248 292 347
#
# _framework density 19.348347
#
# number of rings (size 3 to 8) (size 9 to 14) (size 15 to 20)
#    0.000    1.714    4.286    0.857    2.000    0.286 
#    0.000    0.714    0.000   16.286    0.000    0.000 
#    0.000    0.000    0.000    0.000    0.000    0.000 
#
# Total GULP energy -694121.465757 kJ/mol
# GULP energy per Si atom -12395.026174 kJ/mol
# Density = 1.930431 g / cm^3
# Si number density = 19.348347 Si / 1000 Ang^3
#
#
#
# Elastic Constant Matrix: (Units=GPa)
#
#
# Indices 1 2 3 4 5 6 
#
# 1 94.5605 32.3485 38.4080 0.0000 0.0000 0.0005
# 2 32.3485 94.5605 38.4080 0.0000 0.0000 -0.0005
# 3 38.4080 38.4080 132.4072 0.0000 0.0000 0.0000
# 4 0.0000 0.0000 0.0000 24.5488 0.0000 0.0000
# 5 0.0000 0.0000 0.0000 0.0000 24.5488 0.0000
# 6 0.0005 -0.0005 0.0000 0.0000 0.0000 13.6489
#
#
#
# Elastic Compliance Matrix: (Units=1/GPa)
#
#
# Indices 1 2 3 4 5 6 
#
# 1 0.012816 -0.003258 -0.002772 0.000000 0.000000 -0.000001
# 2 -0.003258 0.012816 -0.002772 0.000000 0.000000 0.000001
# 3 -0.002772 -0.002772 0.009161 0.000000 0.000000 0.000000
# 4 0.000000 0.000000 0.000000 0.040735 0.000000 0.000000
# 5 0.000000 0.000000 0.000000 0.000000 0.040735 0.000000
# 6 -0.000001 0.000001 0.000000 0.000000 0.000000 0.073266
#
#
# Mechanical properties :
#
#
# Convention : Reuss Voigt Hill
#
# Bulk Modulus (GPa) = 58.18487 59.98414 59.08451
# Shear Modulus (GPa) = 23.48915 26.70688 25.09802
#
# Velocity S-wave (km/s) = 3.48805 3.71929 3.60553
# Velocity P-wave (km/s) = 6.80878 7.03660 6.92363
#
# Compressibility (1/GPa) = 0.01718660
#
# Stress axis : x y z
#
# Youngs Moduli (GPa) = 78.02785 78.02785 109.15943
#
# Poissons Ratio (x) = 0.25423 0.30264
# Poissons Ratio (y) = 0.25423 0.30264
# Poissons Ratio (z) = 0.21633 0.21633
#
# Static dielectric constant tensor:
#      x y z
#    x 3.280900 0.000000 0.000000 
#    y 0.000000 3.280900 0.000000 
#    z 0.000000 0.000000 3.944130 
# 
# 
# High freq. dielectric constant tensor:
#      x y z
#    x 1.726160 0.000000 0.000000 
#    y 0.000000 1.726160 0.000000 
#    z 0.000000 0.000000 1.777770 
# 
# From -- ./inp_files/1346.got.cif
#   From: 2010.03.12/outbox.cif.g09.slc.cpg/sg101_1_cif.got.tgz:1346.got - 2010.04.14 01:38:52.
