data_PCOD8306587
_publ_section_title
;
Structure prediction by ZEFSAII (Michael W. Deem and Ramdas Pophale) SiO2 
 PCOD8306587
Probable space group: P 4 M M
;
_chemical_formula_sum "Si O2"
_cell_formula_units_Z 64
_cell_length_a 13.487948
_cell_length_b 13.487948
_cell_length_c 20.373878
_cell_angle_alpha 90.000000
_cell_angle_beta 90.000000
_cell_angle_gamma 90.000000
_cell_volume 3706.512483
_symmetry_space_group_name_H-M "P 4 M M"
_symmetry_group_IT_number 99
_symmetry_cell_setting 'tetragonal'
loop_
_space_group_symop_operation_xyz
x,y,z
-y,x,z
-x,-y,z
y,-x,z
-x,y,z
x,-y,z
-y,-x,z
y,x,z
loop_
_atom_site_type_symbol
_atom_site_label
_atom_site_fract_x
_atom_site_fract_y
_atom_site_fract_z
Si Si1 0.886815 0.728210 0.043060
Si Si2 0.386541 0.886518 0.549319
Si Si3 0.384406 0.221460 0.302787
Si Si4 0.223751 0.384314 0.681443
Si Si5 0.883823 0.723811 0.416898
Si Si6 0.390880 0.117589 0.919886
Si Si7 0.275689 0.116155 0.791950
Si Si8 0.723997 0.114712 0.191111
O O1 0.831680 0.831680 0.035038
O O2 0.873076 0.685146 0.116423
O O3 0.000000 0.753237 0.027541
O O4 0.845042 0.650067 0.990142
O O5 0.500000 0.868606 0.528306
O O6 0.356611 0.818091 0.610098
O O7 0.317590 0.857847 0.488528
O O8 0.369900 0.000000 0.570482
O O9 0.500000 0.247250 0.305060
O O10 0.324672 0.324672 0.304861
O O11 0.356269 0.152625 0.364169
O O12 0.360915 0.160557 0.236717
O O13 0.246724 0.500000 0.687994
O O14 0.325836 0.325836 0.693386
O O15 0.142004 0.354018 0.735117
O O16 0.827996 0.827996 0.406301
O O17 0.000000 0.742889 0.407552
O O18 0.500000 0.164384 0.910511
O O19 0.320536 0.153036 0.861044
O O20 0.398674 0.000000 0.918905
O O21 0.172312 0.172312 0.779723
O O22 0.253178 0.000000 0.791174
O O23 0.827720 0.172281 0.202394
O O24 0.743009 0.000000 0.208793
#
# Coordination Sequence:
#
# PCOD8306587 Si02
#       8
#     8   8   8   8   8   8   8   8
#     4   9  17  29  45  67  96 127 159 195 235 281
#     4   9  17  30  50  74  97 124 161 203 245 288
#     4  10  21  36  53  73  96 122 156 199 245 293
#     4  10  20  33  50  72  98 129 165 204 244 285
#     4  10  20  33  50  73 101 132 165 199 235 279
#     4   9  17  29  45  65  90 121 157 195 233 275
#     4  10  20  33  50  72  97 125 158 197 242 293
#     4   9  18  31  47  70  99 130 164 200 238 283
#
# _framework density 17.266905000000001
#
# number of rings (size 3 to 8) (size 9 to 14) (size 15 to 20)
#    0.000    2.500    0.000    2.250    0.000    4.000 
#    0.000    2.500    0.000    4.500    0.000    3.500 
#    0.000    2.250    0.000    0.500    0.000    0.000 
#
# Total GULP energy -793624.916810 kJ/mol
# GULP energy per Si atom -12400.389325 kJ/mol
# Density = 1.722760 g / cm^3
# Si number density = 17.266905 Si / 1000 Ang^3
#
#
#
# Elastic Constant Matrix: (Units=GPa)
#
#
# Indices 1 2 3 4 5 6 
#
# 1 95.4332 42.2907 48.1947 0.0000 0.0000 0.0001
# 2 42.2907 95.4332 48.1947 0.0000 0.0000 -0.0001
# 3 48.1947 48.1947 109.6565 0.0000 0.0000 0.0000
# 4 0.0000 0.0000 0.0000 25.3320 0.0000 0.0000
# 5 0.0000 0.0000 0.0000 0.0000 25.3320 0.0000
# 6 0.0001 -0.0001 0.0000 0.0000 0.0000 15.1571
#
#
#
# Elastic Compliance Matrix: (Units=1/GPa)
#
#
# Indices 1 2 3 4 5 6 
#
# 1 0.014652 -0.004165 -0.004609 0.000000 0.000000 0.000000
# 2 -0.004165 0.014652 -0.004609 0.000000 0.000000 0.000000
# 3 -0.004609 -0.004609 0.013171 0.000000 0.000000 0.000000
# 4 0.000000 0.000000 0.000000 0.039476 0.000000 0.000000
# 5 0.000000 0.000000 0.000000 0.000000 0.039476 0.000000
# 6 0.000000 0.000000 0.000000 0.000000 0.000000 0.065976
#
#
# Mechanical properties :
#
#
# Convention : Reuss Voigt Hill
#
# Bulk Modulus (GPa) = 63.66115 64.20922 63.93518
# Shear Modulus (GPa) = 22.78898 23.95373 23.37136
#
# Velocity S-wave (km/s) = 3.63686 3.72864 3.68303
# Velocity P-wave (km/s) = 7.38814 7.47021 7.42929
#
# Compressibility (1/GPa) = 0.01570817
#
# Stress axis : x y z
#
# Youngs Moduli (GPa) = 68.25036 68.25036 75.92631
#
# Poissons Ratio (x) = 0.28429 0.34994
# Poissons Ratio (y) = 0.28429 0.34994
# Poissons Ratio (z) = 0.31456 0.31456
#
# Static dielectric constant tensor:
#      x y z
#    x 3.064630 0.000000 0.000000 
#    y 0.000000 3.064630 0.000000 
#    z 0.000000 0.000000 3.455370 
# 
# 
# High freq. dielectric constant tensor:
#      x y z
#    x 1.653750 0.000000 0.000000 
#    y 0.000000 1.653750 0.000000 
#    z 0.000000 0.000000 1.685470 
# 
# From -- ./inp_files/2307.got.cif
#   From: 2010.03.12/outbox.cif.g09.slc.cpg/sg99_cif.got.tgz:2307.got - 2010.04.08 21:11:30.
