data_PCOD8306417
_publ_section_title
;
Structure prediction by ZEFSAII (Michael W. Deem and Ramdas Pophale) SiO2 
 PCOD8306417
Probable space group: P 4 M M
;
_chemical_formula_sum "Si O2"
_cell_formula_units_Z 48
_cell_length_a 19.098855
_cell_length_b 19.098855
_cell_length_c 7.749277
_cell_angle_alpha 90.000000
_cell_angle_beta 90.000000
_cell_angle_gamma 90.000000
_cell_volume 2826.674807
_symmetry_space_group_name_H-M "P 4 M M"
_symmetry_group_IT_number 99
_symmetry_cell_setting 'tetragonal'
loop_
_space_group_symop_operation_xyz
x,y,z
-y,x,z
-x,-y,z
y,-x,z
-x,y,z
x,-y,z
-y,-x,z
y,x,z
loop_
_atom_site_type_symbol
_atom_site_label
_atom_site_fract_x
_atom_site_fract_y
_atom_site_fract_z
Si Si1 0.870539 0.755023 0.423970
Si Si2 0.759735 0.353323 0.392026
Si Si3 0.420187 0.304468 0.085274
Si Si4 0.768084 0.653936 0.774495
Si Si5 0.922086 0.296696 0.768357
Si Si6 0.189531 0.923964 0.073380
O O1 0.808257 0.808257 0.469227
O O2 0.837945 0.678699 0.378084
O O3 0.918740 0.749231 0.593535
O O4 0.916321 0.780309 0.265040
O O5 0.707488 0.292513 0.332159
O O6 0.745511 0.415052 0.254967
O O7 0.745560 0.378076 0.588728
O O8 0.500000 0.327736 0.061930
O O9 0.375175 0.375175 0.101366
O O10 0.397311 0.258959 0.921102
O O11 0.731621 0.731621 0.794486
O O12 0.853093 0.654472 0.779583
O O13 0.000000 0.334072 0.768970
O O14 0.916249 0.250677 0.937735
O O15 0.132093 0.867908 0.026397
O O16 0.154170 0.000000 0.061399
#
# Coordination Sequence:
#
# PCOD8306417 Si02
#       6
#     8   8   8   8   8   8
#     4   9  16  28  46  66  89 117 151 194 242 290
#     4   8  15  28  47  69  91 116 148 188 231 274
#     4  10  20  33  51  75 101 129 160 192 228 274
#     4   9  17  31  50  71  96 127 163 200 237 282
#     4  10  18  28  46  71  94 117 152 202 252 287
#     4  10  19  28  39  57  84 119 156 194 238 288
#
# _framework density 16.981083000000002
#
# number of rings (size 3 to 8) (size 9 to 14) (size 15 to 20)
#    0.000    2.667    0.000    4.000    0.000    3.667 
#    0.000    0.000    0.000    0.500    0.000    7.000 
#    0.000    0.000    0.000    0.000    0.000    0.000 
#
# Total GULP energy -594703.928193 kJ/mol
# GULP energy per Si atom -12389.665171 kJ/mol
# Density = 1.694243 g / cm^3
# Si number density = 16.981083 Si / 1000 Ang^3
#
#
#
# Elastic Constant Matrix: (Units=GPa)
#
#
# Indices 1 2 3 4 5 6 
#
# 1 64.0730 17.5751 11.0939 0.0000 0.0000 0.0001
# 2 17.5751 64.0730 11.0939 0.0000 0.0000 -0.0001
# 3 11.0939 11.0939 53.4613 0.0000 0.0000 0.0000
# 4 0.0000 0.0000 0.0000 56.9731 0.0000 0.0000
# 5 0.0000 0.0000 0.0000 0.0000 56.9731 0.0000
# 6 0.0001 -0.0001 0.0000 0.0000 0.0000 12.8754
#
#
#
# Elastic Compliance Matrix: (Units=1/GPa)
#
#
# Indices 1 2 3 4 5 6 
#
# 1 0.017243 -0.004263 -0.002693 0.000000 0.000000 0.000000
# 2 -0.004263 0.017243 -0.002693 0.000000 0.000000 0.000000
# 3 -0.002693 -0.002693 0.019823 0.000000 0.000000 0.000000
# 4 0.000000 0.000000 0.000000 0.017552 0.000000 0.000000
# 5 0.000000 0.000000 0.000000 0.000000 0.017552 0.000000
# 6 0.000000 0.000000 0.000000 0.000000 0.000000 0.077667
#
#
# Mechanical properties :
#
#
# Convention : Reuss Voigt Hill
#
# Bulk Modulus (GPa) = 28.56450 29.01477 28.78964
# Shear Modulus (GPa) = 25.24608 34.82063 30.03336
#
# Velocity S-wave (km/s) = 3.85998 4.53322 4.21008
# Velocity P-wave (km/s) = 6.06002 6.67261 6.37368
#
# Compressibility (1/GPa) = 0.03500849
#
# Stress axis : x y z
#
# Youngs Moduli (GPa) = 57.99466 57.99466 50.44652
#
# Poissons Ratio (x) = 0.24725 0.13587
# Poissons Ratio (y) = 0.24725 0.13587
# Poissons Ratio (z) = 0.15620 0.15620
#
# Static dielectric constant tensor:
#      x y z
#    x 2.846910 0.000000 0.000000 
#    y 0.000000 2.846910 0.000000 
#    z 0.000000 0.000000 3.449980 
# 
# 
# High freq. dielectric constant tensor:
#      x y z
#    x 1.623920 0.000000 0.000000 
#    y 0.000000 1.623920 0.000000 
#    z 0.000000 0.000000 1.681640 
# 
# From -- ./inp_files/945.got.cif
#   From: 2010.03.12/outbox.cif.g09.slc.cpg/sg99_cif.got.tgz:945.got - 2010.04.08 21:11:30.
