data_PCOD8306584
_publ_section_title
;
Structure prediction by ZEFSAII (Michael W. Deem and Ramdas Pophale) SiO2 
 PCOD8306584
Probable space group: P 4 M M
;
_chemical_formula_sum "Si O2"
_cell_formula_units_Z 64
_cell_length_a 13.534272
_cell_length_b 13.534272
_cell_length_c 20.931824
_cell_angle_alpha 90.000000
_cell_angle_beta 90.000000
_cell_angle_gamma 90.000000
_cell_volume 3834.218648
_symmetry_space_group_name_H-M "P 4 M M"
_symmetry_group_IT_number 99
_symmetry_cell_setting 'tetragonal'
loop_
_space_group_symop_operation_xyz
x,y,z
-y,x,z
-x,-y,z
y,-x,z
-x,y,z
x,-y,z
-y,-x,z
y,x,z
loop_
_atom_site_type_symbol
_atom_site_label
_atom_site_fract_x
_atom_site_fract_y
_atom_site_fract_z
Si Si1 0.884956 0.725195 0.406310
Si Si2 0.615916 0.110535 0.805534
Si Si3 0.274806 0.115043 0.681116
Si Si4 0.223915 0.617079 0.931425
Si Si5 0.728837 0.112625 0.543713
Si Si6 0.776087 0.382921 0.156000
Si Si7 0.889465 0.615915 0.281892
Si Si8 0.720180 0.116556 0.043712
O O1 0.828707 0.828707 0.401322
O O2 0.863499 0.672601 0.476231
O O3 0.847654 0.654974 0.349408
O O4 0.000000 0.748299 0.398262
O O5 0.500000 0.106977 0.799943
O O6 0.654973 0.152345 0.738018
O O7 0.648171 0.183078 0.862158
O O8 0.656818 0.000000 0.819373
O O9 0.171294 0.171294 0.686105
O O10 0.327400 0.136500 0.611195
O O11 0.251700 0.000000 0.689164
O O12 0.239993 0.500000 0.938672
O O13 0.329044 0.670957 0.942481
O O14 0.143917 0.654595 0.982322
O O15 0.831623 0.168378 0.543714
O O16 0.760142 0.000000 0.543713
O O17 0.760008 0.500000 0.148753
O O18 0.670959 0.329042 0.144944
O O19 0.816923 0.351831 0.225267
O O20 0.856085 0.345405 0.105103
O O21 0.893023 0.500000 0.287485
O O22 0.000000 0.656818 0.268053
O O23 0.823860 0.176141 0.043713
O O24 0.743455 0.000000 0.043711
#
# Coordination Sequence:
#
# PCOD8306584 Si02
#       8
#     8   8   8   8   8   8   8   8
#     4   9  16  26  40  58  82 110 140 176 216 260
#     4   9  17  29  45  64  85 112 147 184 222 265
#     4   9  16  26  40  58  82 110 140 176 216 260
#     4  10  20  33  50  72  96 123 155 190 229 272
#     4   8  14  23  35  53  77 107 140 172 211 257
#     4  10  20  33  50  72  96 123 155 190 229 272
#     4   9  17  29  45  64  85 112 147 184 222 265
#     4  10  21  36  54  76 100 126 157 190 224 264
#
# _framework density 16.691797000000001
#
# number of rings (size 3 to 8) (size 9 to 14) (size 15 to 20)
#    0.000    2.750    0.000    1.875    0.000    2.750 
#    0.000    3.125    0.000    6.000    0.000    3.500 
#    0.000    0.000    0.000    0.000    0.000   75.000 
#
# Total GULP energy -792880.739768 kJ/mol
# GULP energy per Si atom -12388.761559 kJ/mol
# Density = 1.665381 g / cm^3
# Si number density = 16.691797 Si / 1000 Ang^3
#
#
#
# Elastic Constant Matrix: (Units=GPa)
#
#
# Indices 1 2 3 4 5 6 
#
# 1 58.1861 33.6449 42.4473 0.0000 0.0000 0.0000
# 2 33.6449 58.1861 42.4473 0.0000 0.0000 0.0000
# 3 42.4473 42.4473 151.6715 0.0000 0.0000 0.0000
# 4 0.0000 0.0000 0.0000 22.9266 0.0000 0.0000
# 5 0.0000 0.0000 0.0000 0.0000 22.9266 0.0000
# 6 0.0000 0.0000 0.0000 0.0000 0.0000 17.2482
#
#
#
# Elastic Compliance Matrix: (Units=1/GPa)
#
#
# Indices 1 2 3 4 5 6 
#
# 1 0.027719 -0.013029 -0.004111 0.000000 0.000000 0.000000
# 2 -0.013029 0.027719 -0.004111 0.000000 0.000000 0.000000
# 3 -0.004111 -0.004111 0.008894 0.000000 0.000000 0.000000
# 4 0.000000 0.000000 0.000000 0.043617 0.000000 0.000000
# 5 0.000000 0.000000 0.000000 0.000000 0.043617 0.000000
# 6 0.000000 0.000000 0.000000 0.000000 0.000000 0.057977
#
#
# Mechanical properties :
#
#
# Convention : Reuss Voigt Hill
#
# Bulk Modulus (GPa) = 45.80878 56.12475 50.96677
# Shear Modulus (GPa) = 19.28093 22.58722 20.93407
#
# Velocity S-wave (km/s) = 3.40238 3.68257 3.54524
# Velocity P-wave (km/s) = 6.55274 7.19575 6.88176
#
# Compressibility (1/GPa) = 0.02182988
#
# Stress axis : x y z
#
# Youngs Moduli (GPa) = 36.07632 36.07632 112.43037
#
# Poissons Ratio (x) = 0.47003 0.46223
# Poissons Ratio (y) = 0.47003 0.46223
# Poissons Ratio (z) = 0.14832 0.14832
#
# Static dielectric constant tensor:
#      x y z
#    x 2.935520 0.000000 0.000000 
#    y 0.000000 2.935520 0.000000 
#    z 0.000000 0.000000 3.761520 
# 
# 
# High freq. dielectric constant tensor:
#      x y z
#    x 1.620200 0.000000 0.000000 
#    y 0.000000 1.620200 0.000000 
#    z 0.000000 0.000000 1.673930 
# 
# From -- ./inp_files/2265.got.cif
#   From: 2010.03.12/outbox.cif.g09.slc.cpg/sg99_cif.got.tgz:2265.got - 2010.04.08 21:11:30.
