data_PCOD8306968
_publ_section_title
;
Structure prediction by ZEFSAII (Michael W. Deem and Ramdas Pophale) SiO2 
 PCOD8306968
Probable space group: P 4 C C
;
_chemical_formula_sum "Si O2"
_cell_formula_units_Z 40
_cell_length_a 19.387157
_cell_length_b 19.387157
_cell_length_c 5.208249
_cell_angle_alpha 90.000000
_cell_angle_beta 90.000000
_cell_angle_gamma 90.000000
_cell_volume 1957.582138
_symmetry_space_group_name_H-M "P 4 C C"
_symmetry_group_IT_number 103
_symmetry_cell_setting 'tetragonal'
loop_
_space_group_symop_operation_xyz
x,y,z
-y,x,z
-x,-y,z
y,-x,z
-x,y,1/2+z
x,-y,1/2+z
-y,-x,1/2+z
y,x,1/2+z
loop_
_atom_site_type_symbol
_atom_site_label
_atom_site_fract_x
_atom_site_fract_y
_atom_site_fract_z
Si Si1 0.044811 0.678512 0.431930
Si Si2 0.787820 0.158043 0.875052
Si Si3 0.746882 0.524257 0.658800
Si Si4 0.466571 0.897812 0.051663
Si Si5 0.326533 0.274211 0.324683
O O1 0.087120 0.749629 0.446788
O O2 0.095012 0.613889 0.485447
O O3 0.985549 0.675895 0.645676
O O4 0.827689 0.156704 0.602167
O O5 0.731408 0.216788 0.839017
O O6 0.705973 0.516499 0.387253
O O7 0.817233 0.485491 0.567797
O O8 0.761248 0.602571 0.738770
O O9 0.487650 0.932872 0.322831
O O10 0.331399 0.308944 0.605540
#
# Coordination Sequence:
#
# PCOD8306968 Si02
#       5
#     8   8   8   8   8
#     4  12  25  39  57  85 121 155 196 240 275 333
#     4  10  21  38  59  80 108 149 192 235 290 339
#     4  10  19  32  52  75 106 145 184 230 286 339
#     4  10  21  35  52  73 110 159 200 227 265 318
#     4  10  20  34  54  80 109 144 192 249 296 335
#
# _framework density 20.433371000000001
#
# number of rings (size 3 to 8) (size 9 to 14) (size 15 to 20)
#    0.000    1.600    0.000    6.000    0.000   12.000 
#    0.000    0.000    0.000    0.000    0.000    0.000 
#    0.000   56.000    0.000    0.000    0.000    0.000 
#
# Total GULP energy -495576.337372 kJ/mol
# GULP energy per Si atom -12389.408434 kJ/mol
# Density = 2.038686 g / cm^3
# Si number density = 20.433371 Si / 1000 Ang^3
#
#
#
# Elastic Constant Matrix: (Units=GPa)
#
#
# Indices 1 2 3 4 5 6 
#
# 1 48.2883 24.1905 18.0853 0.0000 0.0000 0.0000
# 2 24.1905 48.2883 18.0853 0.0000 0.0000 0.0000
# 3 18.0853 18.0853 175.7919 0.0000 0.0000 0.0000
# 4 0.0000 0.0000 0.0000 24.9304 0.0000 0.0000
# 5 0.0000 0.0000 0.0000 0.0000 24.9304 0.0000
# 6 0.0000 0.0000 0.0000 0.0000 0.0000 28.2241
#
#
#
# Elastic Compliance Matrix: (Units=1/GPa)
#
#
# Indices 1 2 3 4 5 6 
#
# 1 0.028021 -0.013477 -0.001496 0.000000 0.000000 0.000000
# 2 -0.013477 0.028021 -0.001496 0.000000 0.000000 0.000000
# 3 -0.001496 -0.001496 0.005996 0.000000 0.000000 0.000000
# 4 0.000000 0.000000 0.000000 0.040112 0.000000 0.000000
# 5 0.000000 0.000000 0.000000 0.000000 0.040112 0.000000
# 6 0.000000 0.000000 0.000000 0.000000 0.000000 0.035431
#
#
# Mechanical properties :
#
#
# Convention : Reuss Voigt Hill
#
# Bulk Modulus (GPa) = 34.36535 43.67672 39.02103
# Shear Modulus (GPa) = 22.69324 29.75082 26.22203
#
# Velocity S-wave (km/s) = 3.33618 3.81989 3.58620
# Velocity P-wave (km/s) = 5.62982 6.39351 6.02378
#
# Compressibility (1/GPa) = 0.02909908
#
# Stress axis : x y z
#
# Youngs Moduli (GPa) = 35.68800 35.68800 166.76645
#
# Poissons Ratio (x) = 0.48096 0.24952
# Poissons Ratio (y) = 0.48096 0.24952
# Poissons Ratio (z) = 0.05340 0.05340
#
# Static dielectric constant tensor:
#      x y z
#    x 3.401540 0.000000 0.000000 
#    y 0.000000 3.401540 0.000000 
#    z 0.000000 0.000000 5.040390 
# 
# 
# High freq. dielectric constant tensor:
#      x y z
#    x 1.756650 0.000000 0.000000 
#    y 0.000000 1.756650 0.000000 
#    z 0.000000 0.000000 1.846200 
# 
# From -- ./inp_files/21.got.cif
#   From: 2010.03.12/outbox.cif.g09.slc.cpg/sg103_cif.got.tgz:21.got - 2010.04.14 01:42:52.
