data_PCOD8306017
_publ_section_title
;
Structure prediction by ZEFSAII (Michael W. Deem and Ramdas Pophale) SiO2 
 PCOD8306017
Probable space group: I 4 2 2 
;
_chemical_formula_sum "Si O2"
_cell_formula_units_Z 72
_cell_length_a 20.296718
_cell_length_b 20.296718
_cell_length_c 9.105794
_cell_angle_alpha 90.000000
_cell_angle_beta 90.000000
_cell_angle_gamma 90.000000
_cell_volume 3751.193408
_symmetry_space_group_name_H-M "I 4 2 2 "
_symmetry_group_IT_number 97
_symmetry_cell_setting 'tetragonal'
loop_
_space_group_symop_operation_xyz
x,y,z
-y,x,z
-x,-y,z
y,-x,z
x,-y,-z
-x,y,-z
y,x,-z
-y,-x,-z
1/2+x,1/2+y,1/2+z
1/2-y,1/2+x,1/2+z
1/2-x,1/2-y,1/2+z
1/2+y,1/2-x,1/2+z
1/2+x,1/2-y,1/2-z
1/2-x,1/2+y,1/2-z
1/2+y,1/2+x,1/2-z
1/2-y,1/2-x,1/2-z
loop_
_atom_site_type_symbol
_atom_site_label
_atom_site_fract_x
_atom_site_fract_y
_atom_site_fract_z
Si Si1 0.055571 0.912265 0.315202
Si Si2 0.106837 0.893164 0.000000
Si Si3 0.197265 0.294717 0.578464
Si Si4 0.773951 0.065029 0.596209
Si Si5 0.750875 0.568129 0.563991
O O1 0.063539 0.913379 0.139616
O O2 0.088179 0.850497 0.397978
O O3 0.979228 0.910100 0.366896
O O4 0.091301 0.815734 0.979851
O O5 0.255112 0.255112 0.500000
O O6 0.212363 0.287638 0.750000
O O7 0.125749 0.267595 0.530816
O O8 0.198168 0.372178 0.536386
O O9 0.756300 0.051803 0.764715
O O10 0.759950 0.000000 0.500000
O O11 0.778817 0.500000 0.500000
#
# Coordination Sequence:
#
# PCOD8306017 Si02
#       5
#    16   8  16  16  16
#     4  10  20  31  47  74 110 153 195 228 271 331
#     4  10  16  31  52  78 106 144 192 239 276 316
#     4  10  22  39  59  87 118 153 195 244 294 348
#     4  10  23  37  55  83 119 152 186 240 299 342
#     4  10  20  37  61  84 112 149 198 240 283 347
#
# _framework density 19.193891000000001
#
# number of rings (size 3 to 8) (size 9 to 14) (size 15 to 20)
#    0.000    2.000    1.111    3.333    3.111    2.667 
#    0.000    1.111    0.000    0.667    0.000    4.667 
#    0.000    0.000    0.000    0.000    0.000    0.000 
#
# Total GULP energy -446130.626174 kJ/mol
# GULP energy per Si atom -12392.517394 kJ/mol
# Density = 1.915020 g / cm^3
# Si number density = 19.193891 Si / 1000 Ang^3
#
#
#
# Elastic Constant Matrix: (Units=GPa)
#
#
# Indices 1 2 3 4 5 6 
#
# 1 132.1801 80.2615 51.0574 0.0000 0.0000 0.0000
# 2 80.2615 132.1800 51.0572 0.0000 0.0000 0.0000
# 3 51.0574 51.0572 60.1860 0.0000 0.0000 0.0000
# 4 0.0000 0.0000 0.0000 25.5974 0.0000 0.0000
# 5 0.0000 0.0000 0.0000 0.0000 25.5975 0.0000
# 6 0.0000 0.0000 0.0000 0.0000 0.0000 31.0521
#
#
#
# Elastic Compliance Matrix: (Units=1/GPa)
#
#
# Indices 1 2 3 4 5 6 
#
# 1 0.013605 -0.005656 -0.006743 0.000000 0.000000 0.000000
# 2 -0.005656 0.013605 -0.006743 0.000000 0.000000 0.000000
# 3 -0.006743 -0.006743 0.028055 0.000000 0.000000 0.000000
# 4 0.000000 0.000000 0.000000 0.039067 0.000000 0.000000
# 5 0.000000 0.000000 0.000000 0.000000 0.039066 0.000000
# 6 0.000000 0.000000 0.000000 0.000000 0.000000 0.032204
#
#
# Mechanical properties :
#
#
# Convention : Reuss Voigt Hill
#
# Bulk Modulus (GPa) = 58.88987 76.58871 67.73929
# Shear Modulus (GPa) = 23.86129 25.92740 24.89434
#
# Velocity S-wave (km/s) = 3.52969 3.67933 3.60529
# Velocity P-wave (km/s) = 6.88184 7.61835 7.25944
#
# Compressibility (1/GPa) = 0.01698085
#
# Stress axis : x y z
#
# Youngs Moduli (GPa) = 73.50478 73.50498 35.64422
#
# Poissons Ratio (x) = 0.41577 0.24034
# Poissons Ratio (y) = 0.41577 0.24033
# Poissons Ratio (z) = 0.49562 0.49561
#
# Static dielectric constant tensor:
#      x y z
#    x 3.545620 0.000000 0.000000 
#    y 0.000000 3.545640 0.000000 
#    z 0.000000 0.000000 3.587650 
# 
# 
# High freq. dielectric constant tensor:
#      x y z
#    x 1.730930 0.000000 0.000000 
#    y 0.000000 1.730930 0.000000 
#    z 0.000000 0.000000 1.759310 
# 
# From -- ./inp_files/2262.got.cif
#   From: 2010.03.12/outbox.cif.g09.slc.cpg/sg97_2_cif.got.tgz:2262.got - 2010.04.08 20:59:42.
