data_PCOD8306247
_publ_section_title
;
Structure prediction by ZEFSAII (Michael W. Deem and Ramdas Pophale) SiO2 
 PCOD8306247
Probable space group: I 41 2 2
;
_chemical_formula_sum "Si O2"
_cell_formula_units_Z 108
_cell_length_a 15.352514
_cell_length_b 15.352514
_cell_length_c 23.732521
_cell_angle_alpha 90.000000
_cell_angle_beta 90.000000
_cell_angle_gamma 90.000000
_cell_volume 5593.747751
_symmetry_space_group_name_H-M "I 41 2 2"
_symmetry_group_IT_number 98
_symmetry_cell_setting 'tetragonal'
loop_
_space_group_symop_operation_xyz
x,y,z
-y,1/2+x,1/4+z
-x,-y,z
y,1/2-x,1/4+z
x,1/2-y,1/4-z
-x,1/2+y,1/4-z
y,x,-z
-y,-x,-z
1/2+x,1/2+y,1/2+z
1/2-y,x,3/4+z
1/2-x,1/2-y,1/2+z
1/2+y,-x,3/4+z
1/2+x,-y,3/4-z
1/2-x,y,3/4-z
1/2+y,1/2+x,1/2-z
1/2-y,1/2-x,1/2-z
loop_
_atom_site_type_symbol
_atom_site_label
_atom_site_fract_x
_atom_site_fract_y
_atom_site_fract_z
Si Si1 0.500000 0.500000 0.375352
Si Si2 0.406358 0.325457 0.736006
Si Si3 0.054914 0.914886 0.300540
Si Si4 0.500000 0.500000 0.000000
Si Si5 0.355348 0.403553 0.437283
Si Si6 0.845267 0.491229 0.045118
Si Si7 0.844286 0.492290 0.661968
Si Si8 0.778443 0.655988 0.601590
O O1 0.414796 0.480164 0.412663
O O2 0.538017 0.421098 0.337837
O O3 0.500358 0.349457 0.761200
O O4 0.422826 0.248709 0.690230
O O5 0.355214 0.404638 0.707499
O O6 0.340866 0.296600 0.785092
O O7 0.140607 0.944066 0.265760
O O8 0.075279 0.871460 0.361681
O O9 0.000000 0.000000 0.314662
O O10 0.503005 0.413815 0.961896
O O11 0.388159 0.388159 0.500000
O O12 0.370947 0.322941 0.394383
O O13 0.749530 0.462775 0.064808
O O14 0.839082 0.587906 0.634233
O O15 0.800369 0.750000 0.625000
#
# Coordination Sequence:
#
# PCOD8306247 Si02
#       8
#     8  16  16   4  16  16  16  16
#     4  12  21  35  56  88 123 165 210 240 290 398
#     4   9  19  34  57  88 129 161 192 246 317 381
#     4   9  18  40  62  85 125 162 198 247 306 370
#     4  12  28  42  64  92 122 160 224 270 320 368
#     4  10  21  35  52  86 129 162 192 250 312 374
#     4  11  21  38  64  91 118 167 214 252 319 381
#     4  11  23  41  61  90 125 162 206 266 315 379
#     4  10  20  33  58  92 128 155 191 254 323 389
#
# _framework density 19.307269999999999
#
# number of rings (size 3 to 8) (size 9 to 14) (size 15 to 20)
#    0.000    1.778    4.444    1.111    2.074    0.000 
#    0.000    0.741    0.000    3.556    0.000    0.000 
#    0.000    0.000    0.000    0.000    0.000    0.000 
#
# Total GULP energy -669303.180499 kJ/mol
# GULP energy per Si atom -12394.503343 kJ/mol
# Density = 1.926333 g / cm^3
# Si number density = 19.307270 Si / 1000 Ang^3
#
#
#
# Elastic Constant Matrix: (Units=GPa)
#
#
# Indices 1 2 3 4 5 6 
#
# 1 104.6551 42.3718 60.1101 0.0000 0.0000 0.0000
# 2 42.3718 104.6551 60.1102 0.0000 0.0000 0.0000
# 3 60.1101 60.1102 124.6518 0.0000 0.0000 0.0000
# 4 0.0000 0.0000 0.0000 34.5657 0.0000 0.0000
# 5 0.0000 0.0000 0.0000 0.0000 34.5657 0.0000
# 6 0.0000 0.0000 0.0000 0.0000 0.0000 19.1409
#
#
#
# Elastic Compliance Matrix: (Units=1/GPa)
#
#
# Indices 1 2 3 4 5 6 
#
# 1 0.013642 -0.002413 -0.005415 0.000000 0.000000 0.000000
# 2 -0.002413 0.013642 -0.005415 0.000000 0.000000 0.000000
# 3 -0.005415 -0.005415 0.013245 0.000000 0.000000 0.000000
# 4 0.000000 0.000000 0.000000 0.028930 0.000000 0.000000
# 5 0.000000 0.000000 0.000000 0.000000 0.028930 0.000000
# 6 0.000000 0.000000 0.000000 0.000000 0.000000 0.052244
#
#
# Mechanical properties :
#
#
# Convention : Reuss Voigt Hill
#
# Bulk Modulus (GPa) = 71.20861 73.23845 72.22353
# Shear Modulus (GPa) = 27.50242 29.07911 28.29077
#
# Velocity S-wave (km/s) = 3.77830 3.88509 3.83206
# Velocity P-wave (km/s) = 7.48304 7.62500 7.55435
#
# Compressibility (1/GPa) = 0.01404325
#
# Stress axis : x y z
#
# Youngs Moduli (GPa) = 73.30074 73.30074 75.50113
#
# Poissons Ratio (x) = 0.17689 0.40884
# Poissons Ratio (y) = 0.17689 0.40884
# Poissons Ratio (z) = 0.39692 0.39692
#
# Static dielectric constant tensor:
#      x y z
#    x 3.470840 0.000000 0.000000 
#    y 0.000000 3.470840 0.000000 
#    z 0.000000 0.000000 3.816260 
# 
# 
# High freq. dielectric constant tensor:
#      x y z
#    x 1.728570 0.000000 0.000000 
#    y 0.000000 1.728570 0.000000 
#    z 0.000000 0.000000 1.778590 
# 
# From -- ./inp_files/10143.got.cif
#   From: 2010.03.12/outbox.cif.g09.slc.cpg/sg98_6_cif.got.tgz:10143.got - 2010.04.08 21:04:41.
