data_PCOD8306305
_publ_section_title
;
Structure prediction by ZEFSAII (Michael W. Deem and Ramdas Pophale) SiO2 
 PCOD8306305
Probable space group: I 41 2 2
;
_chemical_formula_sum "Si O2"
_cell_formula_units_Z 64
_cell_length_a 9.996158
_cell_length_b 9.996158
_cell_length_c 28.835913
_cell_angle_alpha 90.000000
_cell_angle_beta 90.000000
_cell_angle_gamma 90.000000
_cell_volume 2881.375974
_symmetry_space_group_name_H-M "I 41 2 2"
_symmetry_group_IT_number 98
_symmetry_cell_setting 'tetragonal'
loop_
_space_group_symop_operation_xyz
x,y,z
-y,1/2+x,1/4+z
-x,-y,z
y,1/2-x,1/4+z
x,1/2-y,1/4-z
-x,1/2+y,1/4-z
y,x,-z
-y,-x,-z
1/2+x,1/2+y,1/2+z
1/2-y,x,3/4+z
1/2-x,1/2-y,1/2+z
1/2+y,-x,3/4+z
1/2+x,-y,3/4-z
1/2-x,y,3/4-z
1/2+y,1/2+x,1/2-z
1/2-y,1/2-x,1/2-z
loop_
_atom_site_type_symbol
_atom_site_label
_atom_site_fract_x
_atom_site_fract_y
_atom_site_fract_z
Si Si1 0.258488 0.211539 0.451188
Si Si2 0.351108 0.470027 0.336420
Si Si3 0.946474 0.145704 0.660771
Si Si4 0.045050 0.745907 0.987853
O O1 0.184438 0.184438 0.500000
O O2 0.175315 0.310909 0.418074
O O3 0.403575 0.276804 0.463480
O O4 0.267381 0.072626 0.425836
O O5 0.500000 0.500000 0.354713
O O6 0.250000 0.530545 0.375000
O O7 0.335295 0.533702 0.285734
O O8 0.875896 0.250000 0.625000
O O9 0.845651 0.131078 0.703411
O O10 0.000000 0.000000 0.642382
O O11 0.114722 0.885279 0.000000
#
# Coordination Sequence:
#
# PCOD8306305 Si02
#       4
#    16  16  16  16
#     4   9  19  39  67  89 129 178 225 273 352 415
#     4  11  24  40  65  99 135 179 233 287 344 424
#     4  10  21  43  66  95 132 180 231 284 348 420
#     4  10  22  40  65  96 137 174 224 293 355 413
#
# _framework density 22.211611000000001
#
# number of rings (size 3 to 8) (size 9 to 14) (size 15 to 20)
#    0.000    2.000    0.000    4.500    3.500    4.500 
#   13.500    0.000    0.000    0.000    0.000    0.000 
#    0.000    0.000    0.000    0.000    0.000    0.000 
#
# Total GULP energy -396646.563367 kJ/mol
# GULP energy per Si atom -12395.205105 kJ/mol
# Density = 2.216106 g / cm^3
# Si number density = 22.211611 Si / 1000 Ang^3
#
#
#
# Elastic Constant Matrix: (Units=GPa)
#
#
# Indices 1 2 3 4 5 6 
#
# 1 82.5690 35.1791 31.0465 0.0000 0.0000 0.0000
# 2 35.1791 82.5664 31.0463 0.0000 0.0000 0.0000
# 3 31.0465 31.0463 102.9377 0.0000 0.0000 0.0000
# 4 0.0000 0.0000 0.0000 28.2450 0.0000 0.0000
# 5 0.0000 0.0000 0.0000 0.0000 28.2455 0.0000
# 6 0.0000 0.0000 0.0000 0.0000 0.0000 39.0053
#
#
#
# Elastic Compliance Matrix: (Units=1/GPa)
#
#
# Indices 1 2 3 4 5 6 
#
# 1 0.015600 -0.005502 -0.003046 0.000000 0.000000 0.000000
# 2 -0.005502 0.015601 -0.003046 0.000000 0.000000 0.000000
# 3 -0.003046 -0.003046 0.011552 0.000000 0.000000 0.000000
# 4 0.000000 0.000000 0.000000 0.035405 0.000000 0.000000
# 5 0.000000 0.000000 0.000000 0.000000 0.035404 0.000000
# 6 0.000000 0.000000 0.000000 0.000000 0.000000 0.025638
#
#
# Mechanical properties :
#
#
# Convention : Reuss Voigt Hill
#
# Bulk Modulus (GPa) = 51.10812 51.40189 51.25501
# Shear Modulus (GPa) = 29.60194 30.48590 30.04392
#
# Velocity S-wave (km/s) = 3.65461 3.70877 3.68179
# Velocity P-wave (km/s) = 6.39279 6.44454 6.41872
#
# Compressibility (1/GPa) = 0.01956636
#
# Stress axis : x y z
#
# Youngs Moduli (GPa) = 64.10127 64.09911 86.56557
#
# Poissons Ratio (x) = 0.35264 0.26367
# Poissons Ratio (y) = 0.35266 0.26368
# Poissons Ratio (z) = 0.19524 0.19524
#
# Static dielectric constant tensor:
#      x y z
#    x 3.893360 0.000000 0.000000 
#    y 0.000000 3.893360 0.000000 
#    z 0.000000 0.000000 4.471720 
# 
# 
# High freq. dielectric constant tensor:
#      x y z
#    x 1.863240 0.000000 0.000000 
#    y 0.000000 1.863240 0.000000 
#    z 0.000000 0.000000 1.887330 
# 
# From -- ./inp_files/10656.got.cif
#   From: 2010.03.12/outbox.cif.g09.slc.cpg/sg98_6_cif.got.tgz:10656.got - 2010.04.08 21:04:41.
