data_PCOD8306949
_publ_section_title
;
Structure prediction by ZEFSAII (Michael W. Deem and Ramdas Pophale) SiO2 
 PCOD8306949
Probable space group: P 42 N M
;
_chemical_formula_sum "Si O2"
_cell_formula_units_Z 64
_cell_length_a 13.063673
_cell_length_b 13.063673
_cell_length_c 22.680345
_cell_angle_alpha 90.000000
_cell_angle_beta 90.000000
_cell_angle_gamma 90.000000
_cell_volume 3870.617523
_symmetry_space_group_name_H-M "P 42 N M"
_symmetry_group_IT_number 102
_symmetry_cell_setting 'tetragonal'
loop_
_space_group_symop_operation_xyz
x,y,z
1/2-y,1/2+x,1/2+z
-x,-y,z
1/2+y,1/2-x,1/2+z
1/2-x,1/2+y,1/2+z
1/2+x,1/2-y,1/2+z
-y,-x,z
y,x,z
loop_
_atom_site_type_symbol
_atom_site_label
_atom_site_fract_x
_atom_site_fract_y
_atom_site_fract_z
Si Si1 0.693744 0.866123 0.309020
Si Si2 0.885180 0.282652 0.694700
Si Si3 0.835059 0.006516 0.248050
Si Si4 0.366123 0.806256 0.939322
Si Si5 0.614820 0.782652 0.553642
Si Si6 0.835058 0.006516 0.500292
Si Si7 0.736363 0.429413 0.119627
Si Si8 0.570587 0.263638 0.628715
O O1 0.783875 0.783875 0.307384
O O2 0.610708 0.832834 0.260159
O O3 0.643487 0.872687 0.374171
O O4 0.742999 0.976746 0.292455
O O5 0.824939 0.175062 0.696234
O O6 0.830740 0.359664 0.649261
O O7 0.002308 0.266915 0.675726
O O8 0.881175 0.118826 0.263071
O O9 0.794835 0.006426 0.181119
O O10 0.922871 0.922871 0.254316
O O11 0.283875 0.716126 0.940960
O O12 0.476746 0.757001 0.955887
O O13 0.332835 0.889292 0.988183
O O14 0.675061 0.675061 0.552108
O O15 0.669260 0.859663 0.599081
O O16 0.497692 0.766913 0.572616
O O17 0.881176 0.118825 0.485272
O O18 0.794833 0.006427 0.567223
O O19 0.922870 0.922870 0.494028
O O20 0.641278 0.358723 0.138326
O O21 0.641278 0.358723 0.610015
#
# Coordination Sequence:
#
# PCOD8306949 Si02
#       8
#     8   8   8   8   8   8   8   8
#     4   8  14  24  37  56  85 117 145 174 207 245
#     4   9  17  28  43  64  88 114 144 177 215 258
#     4   8  13  21  35  57  83 108 135 172 219 264
#     4   8  14  24  37  56  85 117 145 174 207 245
#     4   9  17  28  43  64  88 114 144 177 215 258
#     4   8  13  21  35  57  83 108 135 172 219 264
#     4   9  17  28  42  63  88 111 140 178 220 263
#     4   9  17  28  42  63  88 111 140 178 220 263
#
# _framework density 16.534829999999999
#
# number of rings (size 3 to 8) (size 9 to 14) (size 15 to 20)
#    0.000    3.500    0.000    3.750    0.000    2.500 
#    0.000    2.500    0.000    0.750    0.000   17.500 
#    0.000    8.000    0.000    0.000    0.000    0.000 
#
# Total GULP energy -793068.912060 kJ/mol
# GULP energy per Si atom -12391.701751 kJ/mol
# Density = 1.649720 g / cm^3
# Si number density = 16.534830 Si / 1000 Ang^3
#
#
#
# Elastic Constant Matrix: (Units=GPa)
#
#
# Indices 1 2 3 4 5 6 
#
# 1 60.4317 24.8557 49.5436 0.0000 0.0000 -0.0001
# 2 24.8557 60.4317 49.5436 0.0000 0.0000 0.0001
# 3 49.5436 49.5436 126.2694 0.0000 0.0000 0.0000
# 4 0.0000 0.0000 0.0000 16.5172 0.0000 0.0000
# 5 0.0000 0.0000 0.0000 0.0000 16.5172 0.0000
# 6 -0.0001 0.0001 0.0000 0.0000 0.0000 19.9548
#
#
#
# Elastic Compliance Matrix: (Units=1/GPa)
#
#
# Indices 1 2 3 4 5 6 
#
# 1 0.024828 -0.003281 -0.008454 0.000000 0.000000 0.000000
# 2 -0.003281 0.024828 -0.008454 0.000000 0.000000 0.000000
# 3 -0.008454 -0.008454 0.014554 0.000000 0.000000 0.000000
# 4 0.000000 0.000000 0.000000 0.060543 0.000000 0.000000
# 5 0.000000 0.000000 0.000000 0.000000 0.060543 0.000000
# 6 0.000000 0.000000 0.000000 0.000000 0.000000 0.050113
#
#
# Mechanical properties :
#
#
# Convention : Reuss Voigt Hill
#
# Bulk Modulus (GPa) = 41.96190 55.00207 48.48198
# Shear Modulus (GPa) = 17.62222 18.81048 18.21635
#
# Velocity S-wave (km/s) = 3.26814 3.37653 3.32278
# Velocity P-wave (km/s) = 6.29873 6.96691 6.64123
#
# Compressibility (1/GPa) = 0.02383114
#
# Stress axis : x y z
#
# Youngs Moduli (GPa) = 40.27683 40.27683 68.70950
#
# Poissons Ratio (x) = 0.13214 0.58090
# Poissons Ratio (y) = 0.13214 0.58090
# Poissons Ratio (z) = 0.34052 0.34052
#
# Static dielectric constant tensor:
#      x y z
#    x 2.881470 0.000000 0.000000 
#    y 0.000000 2.881470 0.000000 
#    z 0.000000 0.000000 3.216000 
# 
# 
# High freq. dielectric constant tensor:
#      x y z
#    x 1.607260 0.000000 0.000000 
#    y 0.000000 1.607260 0.000000 
#    z 0.000000 0.000000 1.624320 
# 
# From -- ./inp_files/3449.got.cif
#   From: 2010.03.12/outbox.cif.g09.slc.cpg/sg102_2_cif.got.tgz:3449.got - 2010.04.14 01:40:42.
