data_PCOD8306824
_publ_section_title
;
Structure prediction by ZEFSAII (Michael W. Deem and Ramdas Pophale) SiO2 
 PCOD8306824
Probable space group: P 42 N M
;
_chemical_formula_sum "Si O2"
_cell_formula_units_Z 56
_cell_length_a 12.257930
_cell_length_b 12.257930
_cell_length_c 19.752034
_cell_angle_alpha 90.000000
_cell_angle_beta 90.000000
_cell_angle_gamma 90.000000
_cell_volume 2967.878368
_symmetry_space_group_name_H-M "P 42 N M"
_symmetry_group_IT_number 102
_symmetry_cell_setting 'tetragonal'
loop_
_space_group_symop_operation_xyz
x,y,z
1/2-y,1/2+x,1/2+z
-x,-y,z
1/2+y,1/2-x,1/2+z
1/2-x,1/2+y,1/2+z
1/2+x,1/2-y,1/2+z
-y,-x,z
y,x,z
loop_
_atom_site_type_symbol
_atom_site_label
_atom_site_fract_x
_atom_site_fract_y
_atom_site_fract_z
Si Si1 0.653337 0.836355 0.222310
Si Si2 0.170688 0.007084 0.754380
Si Si3 0.795169 0.612398 0.948545
Si Si4 0.669722 0.501243 0.539235
Si Si5 0.568879 0.108070 0.580568
Si Si6 0.500772 0.244745 0.400656
Si Si7 0.791968 0.390294 0.868125
O O1 0.739519 0.739519 0.224774
O O2 0.529795 0.786105 0.222849
O O3 0.658631 0.898773 0.152505
O O4 0.676981 0.911930 0.288413
O O5 0.079916 0.920084 0.733442
O O6 0.183804 0.008015 0.834329
O O7 0.127064 0.127064 0.730206
O O8 0.687737 0.687737 0.950292
O O9 0.766700 0.501723 0.908304
O O10 0.892323 0.669705 0.908104
O O11 0.832729 0.590023 0.026805
O O12 0.612491 0.387510 0.563331
O O13 0.602825 0.602825 0.570570
O O14 0.796860 0.511222 0.555719
O O15 0.664170 0.506101 0.458337
O O16 0.500000 0.000000 0.589954
O O17 0.394356 0.167998 0.402962
O O18 0.684886 0.315115 0.873793
#
# Coordination Sequence:
#
# PCOD8306824 Si02
#       7
#     8   8   8   8   8   8   8
#     4   9  19  36  55  75 106 149 192 235 287 346
#     4   9  16  27  47  76 107 137 173 220 275 335
#     4  11  22  36  56  81 113 149 186 232 283 344
#     4  10  19  32  53  79 106 136 175 225 277 331
#     4  11  22  37  56  80 110 148 191 236 291 348
#     4  10  17  30  52  80 108 134 171 222 279 330
#     4  10  21  37  58  82 110 147 188 233 284 341
#
# _framework density 18.868697999999998
#
# number of rings (size 3 to 8) (size 9 to 14) (size 15 to 20)
#    0.000    2.000    0.000    7.714    0.000    3.714 
#    0.000    2.143    0.000    2.571    0.000    0.000 
#    0.000    0.000    0.000    0.000    0.000    0.000 
#
# Total GULP energy -693754.823213 kJ/mol
# GULP energy per Si atom -12388.478986 kJ/mol
# Density = 1.882575 g / cm^3
# Si number density = 18.868698 Si / 1000 Ang^3
#
#
#
# Elastic Constant Matrix: (Units=GPa)
#
#
# Indices 1 2 3 4 5 6 
#
# 1 82.7871 26.4381 23.8183 0.0000 0.0000 0.0000
# 2 26.4381 82.7871 23.8183 0.0000 0.0000 0.0000
# 3 23.8183 23.8183 81.9723 0.0000 0.0000 0.0000
# 4 0.0000 0.0000 0.0000 7.2330 0.0000 0.0000
# 5 0.0000 0.0000 0.0000 0.0000 7.2330 0.0000
# 6 0.0000 0.0000 0.0000 0.0000 0.0000 22.3295
#
#
#
# Elastic Compliance Matrix: (Units=1/GPa)
#
#
# Indices 1 2 3 4 5 6 
#
# 1 0.014115 -0.003631 -0.003046 0.000000 0.000000 0.000000
# 2 -0.003631 0.014115 -0.003046 0.000000 0.000000 0.000000
# 3 -0.003046 -0.003046 0.013970 0.000000 0.000000 0.000000
# 4 0.000000 0.000000 0.000000 0.138256 0.000000 0.000000
# 5 0.000000 0.000000 0.000000 0.000000 0.138256 0.000000
# 6 0.000000 0.000000 0.000000 0.000000 0.000000 0.044784
#
#
# Mechanical properties :
#
#
# Convention : Reuss Voigt Hill
#
# Bulk Modulus (GPa) = 43.95149 43.96623 43.95886
# Shear Modulus (GPa) = 12.80318 18.92385 15.86352
#
# Velocity S-wave (km/s) = 2.60771 3.17033 2.90268
# Velocity P-wave (km/s) = 5.69304 6.06243 5.88064
#
# Compressibility (1/GPa) = 0.02275235
#
# Stress axis : x y z
#
# Youngs Moduli (GPa) = 70.84526 70.84526 71.58435
#
# Poissons Ratio (x) = 0.25726 0.21807
# Poissons Ratio (y) = 0.25726 0.21807
# Poissons Ratio (z) = 0.21581 0.21581
#
# Static dielectric constant tensor:
#      x y z
#    x 3.486150 0.000000 0.000000 
#    y 0.000000 3.486150 0.000000 
#    z 0.000000 0.000000 3.482700 
# 
# 
# High freq. dielectric constant tensor:
#      x y z
#    x 1.726880 0.000000 0.000000 
#    y 0.000000 1.726880 0.000000 
#    z 0.000000 0.000000 1.723290 
# 
# From -- ./inp_files/3111.got.cif
#   From: 2010.03.12/outbox.cif.g09.slc.cpg/sg102_2_cif.got.tgz:3111.got - 2010.04.14 01:40:42.
