data_PCOD8306437
_publ_section_title
;
Structure prediction by ZEFSAII (Michael W. Deem and Ramdas Pophale) SiO2 
 PCOD8306437
Probable space group: P 4 M M
;
_chemical_formula_sum "Si O2"
_cell_formula_units_Z 64
_cell_length_a 14.125453
_cell_length_b 14.125453
_cell_length_c 20.540085
_cell_angle_alpha 90.000000
_cell_angle_beta 90.000000
_cell_angle_gamma 90.000000
_cell_volume 4098.330757
_symmetry_space_group_name_H-M "P 4 M M"
_symmetry_group_IT_number 99
_symmetry_cell_setting 'tetragonal'
loop_
_space_group_symop_operation_xyz
x,y,z
-y,x,z
-x,-y,z
y,-x,z
-x,y,z
x,-y,z
-y,-x,z
y,x,z
loop_
_atom_site_type_symbol
_atom_site_label
_atom_site_fract_x
_atom_site_fract_y
_atom_site_fract_z
Si Si1 0.887601 0.734137 0.734380
Si Si2 0.260483 0.108188 0.352205
Si Si3 0.235271 0.388092 0.113237
Si Si4 0.111874 0.394557 0.614198
Si Si5 0.394890 0.887738 0.852500
Si Si6 0.263150 0.890711 0.498864
Si Si7 0.390463 0.108280 0.235066
Si Si8 0.387775 0.105187 0.996376
O O1 0.834830 0.834830 0.730618
O O2 0.854157 0.669352 0.674279
O O3 0.852797 0.679948 0.799210
O O4 0.000000 0.753677 0.733753
O O5 0.165091 0.165091 0.339826
O O6 0.300217 0.124766 0.425184
O O7 0.339122 0.141389 0.300928
O O8 0.232562 0.000000 0.341242
O O9 0.254604 0.500000 0.110536
O O10 0.336034 0.336034 0.116013
O O11 0.174035 0.358499 0.175772
O O12 0.178153 0.350545 0.050293
O O13 0.156910 0.500000 0.618584
O O14 0.144402 0.346230 0.546693
O O15 0.000000 0.403965 0.616658
O O16 0.500000 0.845659 0.837869
O O17 0.359334 0.856912 0.924480
O O18 0.402747 0.000000 0.850154
O O19 0.168050 0.831951 0.512459
O O20 0.237139 0.000000 0.512412
O O21 0.500000 0.120717 0.249955
O O22 0.366225 0.000000 0.216446
O O23 0.500000 0.097489 0.001264
O O24 0.344864 0.000000 0.008953
#
# Coordination Sequence:
#
# PCOD8306437 Si02
#       8
#     8   8   8   8   8   8   8   8
#     4  10  19  29  42  61  86 115 143 169 199 240
#     4   9  17  28  42  61  86 114 141 168 198 237
#     4  10  19  29  42  60  83 111 139 168 205 250
#     4   9  17  29  44  60  79 104 135 173 212 242
#     4   8  14  26  44  64  85 108 135 171 212 246
#     4   9  17  28  42  62  88 116 142 166 195 237
#     4   9  17  29  45  63  81 103 135 176 219 255
#     4   8  14  26  44  64  84 105 133 172 213 248
#
# _framework density 15.616114
#
# number of rings (size 3 to 8) (size 9 to 14) (size 15 to 20)
#    0.000    3.000    0.000    2.250    0.000    4.500 
#    0.000    3.750    0.000    2.250    0.000    0.000 
#    0.000   14.000    0.000    9.750    0.000    0.875 
#
# Total GULP energy -793327.867646 kJ/mol
# GULP energy per Si atom -12395.747932 kJ/mol
# Density = 1.558057 g / cm^3
# Si number density = 15.616114 Si / 1000 Ang^3
#
#
#
# Elastic Constant Matrix: (Units=GPa)
#
#
# Indices 1 2 3 4 5 6 
#
# 1 64.4203 40.4592 52.4771 0.0000 0.0000 0.0002
# 2 40.4592 64.4203 52.4771 0.0000 0.0000 -0.0002
# 3 52.4771 52.4771 131.7373 0.0000 0.0000 0.0000
# 4 0.0000 0.0000 0.0000 18.8066 0.0000 0.0000
# 5 0.0000 0.0000 0.0000 0.0000 18.8066 0.0000
# 6 0.0002 -0.0002 0.0000 0.0000 0.0000 18.3360
#
#
#
# Elastic Compliance Matrix: (Units=1/GPa)
#
#
# Indices 1 2 3 4 5 6 
#
# 1 0.028795 -0.012940 -0.006316 0.000000 0.000000 0.000000
# 2 -0.012940 0.028795 -0.006316 0.000000 0.000000 0.000000
# 3 -0.006316 -0.006316 0.012623 0.000000 0.000000 0.000000
# 4 0.000000 0.000000 0.000000 0.053173 0.000000 0.000000
# 5 0.000000 0.000000 0.000000 0.000000 0.053173 0.000000
# 6 0.000000 0.000000 0.000000 0.000000 0.000000 0.054537
#
#
# Mechanical properties :
#
#
# Convention : Reuss Voigt Hill
#
# Bulk Modulus (GPa) = 52.43972 61.26717 56.85344
# Shear Modulus (GPa) = 17.32538 18.86749 18.09643
#
# Velocity S-wave (km/s) = 3.33446 3.47970 3.40785
# Velocity P-wave (km/s) = 6.96263 7.44734 7.20906
#
# Compressibility (1/GPa) = 0.01906952
#
# Stress axis : x y z
#
# Youngs Moduli (GPa) = 34.72863 34.72863 79.22291
#
# Poissons Ratio (x) = 0.44938 0.50036
# Poissons Ratio (y) = 0.44938 0.50036
# Poissons Ratio (z) = 0.21934 0.21934
#
# Static dielectric constant tensor:
#      x y z
#    x 2.799930 0.000000 0.000000 
#    y 0.000000 2.799930 0.000000 
#    z 0.000000 0.000000 3.360580 
# 
# 
# High freq. dielectric constant tensor:
#      x y z
#    x 1.571990 0.000000 0.000000 
#    y 0.000000 1.571990 0.000000 
#    z 0.000000 0.000000 1.619040 
# 
# From -- ./inp_files/2086.got.cif
#   From: 2010.03.12/outbox.cif.g09.slc.cpg/sg99_cif.got.tgz:2086.got - 2010.04.08 21:11:30.
