data_PCOD8306293
_publ_section_title
;
Structure prediction by ZEFSAII (Michael W. Deem and Ramdas Pophale) SiO2 
 PCOD8306293
Probable space group: I 41 2 2
;
_chemical_formula_sum "Si O2"
_cell_formula_units_Z 80
_cell_length_a 17.432771
_cell_length_b 17.432771
_cell_length_c 13.598106
_cell_angle_alpha 90.000000
_cell_angle_beta 90.000000
_cell_angle_gamma 90.000000
_cell_volume 4132.484875
_symmetry_space_group_name_H-M "I 41 2 2"
_symmetry_group_IT_number 98
_symmetry_cell_setting 'tetragonal'
loop_
_space_group_symop_operation_xyz
x,y,z
-y,1/2+x,1/4+z
-x,-y,z
y,1/2-x,1/4+z
x,1/2-y,1/4-z
-x,1/2+y,1/4-z
y,x,-z
-y,-x,-z
1/2+x,1/2+y,1/2+z
1/2-y,x,3/4+z
1/2-x,1/2-y,1/2+z
1/2+y,-x,3/4+z
1/2+x,-y,3/4-z
1/2-x,y,3/4-z
1/2+y,1/2+x,1/2-z
1/2-y,1/2-x,1/2-z
loop_
_atom_site_type_symbol
_atom_site_label
_atom_site_fract_x
_atom_site_fract_y
_atom_site_fract_z
Si Si1 0.007995 0.684183 0.052196
Si Si2 0.305162 0.067281 0.140460
Si Si3 0.548688 0.664264 0.106777
Si Si4 0.418198 0.530527 0.729428
Si Si5 0.105838 0.136992 0.886658
O O1 0.038202 0.750000 0.125000
O O2 0.920759 0.661620 0.079733
O O3 0.071878 0.617474 0.057933
O O4 0.000406 0.711238 0.938677
O O5 0.338198 0.029225 0.240846
O O6 0.375400 0.120317 0.106177
O O7 0.225540 0.116061 0.149606
O O8 0.571026 0.750000 0.125000
O O9 0.477248 0.636894 0.174694
O O10 0.500000 0.500000 0.766234
O O11 0.386660 0.482224 0.636650
O O12 0.125904 0.125904 0.000000
#
# Coordination Sequence:
#
# PCOD8306293 Si02
#       5
#    16  16  16  16  16
#     4  11  22  38  56  87 122 155 205 256 306 369
#     4  11  21  35  57  89 119 162 197 242 308 374
#     4  11  21  38  58  85 128 156 203 246 303 377
#     4  10  21  39  58  86 121 157 211 256 304 363
#     4  11  21  37  59  84 125 159 202 241 306 372
#
# _framework density 19.358813000000001
#
# number of rings (size 3 to 8) (size 9 to 14) (size 15 to 20)
#    0.000    1.200    8.000    0.000    0.000    5.200 
#    3.600    0.000    0.000    0.000    0.000    4.200 
#    0.000    0.000    0.000    0.000    0.000    0.000 
#
# Total GULP energy -495593.562508 kJ/mol
# GULP energy per Si atom -12389.839063 kJ/mol
# Density = 1.931475 g / cm^3
# Si number density = 19.358813 Si / 1000 Ang^3
#
#
#
# Elastic Constant Matrix: (Units=GPa)
#
#
# Indices 1 2 3 4 5 6 
#
# 1 78.5280 40.0999 35.3814 0.0000 0.0000 0.0000
# 2 40.0999 78.5280 35.3814 0.0000 0.0000 0.0000
# 3 35.3814 35.3814 123.0608 0.0000 0.0000 0.0000
# 4 0.0000 0.0000 0.0000 15.9006 0.0000 0.0000
# 5 0.0000 0.0000 0.0000 0.0000 15.9006 0.0000
# 6 0.0000 0.0000 0.0000 0.0000 0.0000 9.1415
#
#
#
# Elastic Compliance Matrix: (Units=1/GPa)
#
#
# Indices 1 2 3 4 5 6 
#
# 1 0.018099 -0.007924 -0.002925 0.000000 0.000000 0.000000
# 2 -0.007924 0.018099 -0.002925 0.000000 0.000000 0.000000
# 3 -0.002925 -0.002925 0.009808 0.000000 0.000000 0.000000
# 4 0.000000 0.000000 0.000000 0.062891 0.000000 0.000000
# 5 0.000000 0.000000 0.000000 0.000000 0.062891 0.000000
# 6 0.000000 0.000000 0.000000 0.000000 0.000000 0.109392
#
#
# Mechanical properties :
#
#
# Convention : Reuss Voigt Hill
#
# Bulk Modulus (GPa) = 54.18220 55.76026 54.97123
# Shear Modulus (GPa) = 15.87908 19.47215 17.67561
#
# Velocity S-wave (km/s) = 2.86711 3.17496 3.02495
# Velocity P-wave (km/s) = 6.24576 6.50435 6.37637
#
# Compressibility (1/GPa) = 0.01845625
#
# Stress axis : x y z
#
# Youngs Moduli (GPa) = 55.25266 55.25266 101.95535
#
# Poissons Ratio (x) = 0.43782 0.29826
# Poissons Ratio (y) = 0.43782 0.29826
# Poissons Ratio (z) = 0.16163 0.16163
#
# Static dielectric constant tensor:
#      x y z
#    x 3.489780 0.000000 0.000000 
#    y 0.000000 3.489780 0.000000 
#    z 0.000000 0.000000 4.309000 
# 
# 
# High freq. dielectric constant tensor:
#      x y z
#    x 1.723710 0.000000 0.000000 
#    y 0.000000 1.723710 0.000000 
#    z 0.000000 0.000000 1.778880 
# 
# From -- ./inp_files/6418.got.cif
#   From: 2010.03.12/outbox.cif.g09.slc.cpg/sg98_4_cif.got.tgz:6418.got - 2010.04.08 21:04:41.
