data_PCOD8306370
_publ_section_title
;
Structure prediction by ZEFSAII (Michael W. Deem and Ramdas Pophale) SiO2 
 PCOD8306370
Probable space group: I 41 2 2
;
_chemical_formula_sum "Si O2"
_cell_formula_units_Z 48
_cell_length_a 9.644570
_cell_length_b 9.644570
_cell_length_c 24.442641
_cell_angle_alpha 90.000000
_cell_angle_beta 90.000000
_cell_angle_gamma 90.000000
_cell_volume 2273.598993
_symmetry_space_group_name_H-M "I 41 2 2"
_symmetry_group_IT_number 98
_symmetry_cell_setting 'tetragonal'
loop_
_space_group_symop_operation_xyz
x,y,z
-y,1/2+x,1/4+z
-x,-y,z
y,1/2-x,1/4+z
x,1/2-y,1/4-z
-x,1/2+y,1/4-z
y,x,-z
-y,-x,-z
1/2+x,1/2+y,1/2+z
1/2-y,x,3/4+z
1/2-x,1/2-y,1/2+z
1/2+y,-x,3/4+z
1/2+x,-y,3/4-z
1/2-x,y,3/4-z
1/2+y,1/2+x,1/2-z
1/2-y,1/2-x,1/2-z
loop_
_atom_site_type_symbol
_atom_site_label
_atom_site_fract_x
_atom_site_fract_y
_atom_site_fract_z
Si Si1 0.774869 0.997591 0.012629
Si Si2 0.880673 0.088326 0.835869
Si Si3 0.866502 0.411529 0.625648
O O1 0.707752 0.022104 0.071990
O O2 0.849461 0.849461 0.000000
O O3 0.646783 0.012196 0.971191
O O4 0.880438 0.119562 0.000000
O O5 0.750000 0.087500 0.875000
O O6 0.926728 0.248705 0.827346
O O7 0.000000 0.000000 0.866341
O O8 0.911805 0.250000 0.625000
O O9 0.000000 0.500000 0.641792
#
# Coordination Sequence:
#
# PCOD8306370 Si02
#       3
#    16  16  16
#     4  11  21  40  67  93 120 161 214 261 304 362
#     4  11  22  39  65  93 122 162 214 259 309 367
#     4  11  24  41  60  91 131 163 200 255 317 367
#
# _framework density 21.111903000000002
#
# number of rings (size 3 to 8) (size 9 to 14) (size 15 to 20)
#    0.000    1.000    6.667    3.000    0.000    4.000 
#    0.000    3.333    0.000    0.000    0.000    0.000 
#    0.000    0.000    0.000    0.000    0.000    0.000 
#
# Total GULP energy -297345.161326 kJ/mol
# GULP energy per Si atom -12389.381722 kJ/mol
# Density = 2.106385 g / cm^3
# Si number density = 21.111903 Si / 1000 Ang^3
#
#
#
# Elastic Constant Matrix: (Units=GPa)
#
#
# Indices 1 2 3 4 5 6 
#
# 1 131.9861 105.8799 23.7127 0.0000 0.0000 0.0000
# 2 105.8799 131.9863 23.7128 0.0000 0.0000 0.0000
# 3 23.7127 23.7128 68.0375 0.0000 0.0000 0.0000
# 4 0.0000 0.0000 0.0000 15.4393 0.0000 0.0000
# 5 0.0000 0.0000 0.0000 0.0000 15.4394 0.0000
# 6 0.0000 0.0000 0.0000 0.0000 0.0000 52.6030
#
#
#
# Elastic Compliance Matrix: (Units=1/GPa)
#
#
# Indices 1 2 3 4 5 6 
#
# 1 0.021411 -0.016893 -0.001575 0.000000 0.000000 0.000000
# 2 -0.016893 0.021411 -0.001575 0.000000 0.000000 0.000000
# 3 -0.001575 -0.001575 0.015795 0.000000 0.000000 0.000000
# 4 0.000000 0.000000 0.000000 0.064770 0.000000 0.000000
# 5 0.000000 0.000000 0.000000 0.000000 0.064769 0.000000
# 6 0.000000 0.000000 0.000000 0.000000 0.000000 0.019010
#
#
# Mechanical properties :
#
#
# Convention : Reuss Voigt Hill
#
# Bulk Modulus (GPa) = 53.95830 70.95785 62.45808
# Shear Modulus (GPa) = 19.72925 28.60997 24.16961
#
# Velocity S-wave (km/s) = 3.06029 3.68524 3.38721
# Velocity P-wave (km/s) = 6.17259 7.19662 6.70419
#
# Compressibility (1/GPa) = 0.01853283
#
# Stress axis : x y z
#
# Youngs Moduli (GPa) = 46.70397 46.70401 63.30968
#
# Poissons Ratio (x) = 0.78899 0.09969
# Poissons Ratio (y) = 0.78899 0.09969
# Poissons Ratio (z) = 0.07354 0.07354
#
# Static dielectric constant tensor:
#      x y z
#    x 4.445700 0.000000 0.000000 
#    y 0.000000 4.445690 0.000000 
#    z 0.000000 0.000000 4.000530 
# 
# 
# High freq. dielectric constant tensor:
#      x y z
#    x 1.834360 0.000000 0.000000 
#    y 0.000000 1.834360 0.000000 
#    z 0.000000 0.000000 1.806490 
# 
# From -- ./inp_files/11311.got.cif
#   From: 2010.03.12/outbox.cif.g09.slc.cpg/sg98_6_cif.got.tgz:11311.got - 2010.04.08 21:04:41.
