data_PCOD8306340
_publ_section_title
;
Structure prediction by ZEFSAII (Michael W. Deem and Ramdas Pophale) SiO2 
 PCOD8306340
Probable space group: I 41 2 2
;
_chemical_formula_sum "Si O2"
_cell_formula_units_Z 72
_cell_length_a 14.658764
_cell_length_b 14.658764
_cell_length_c 15.763897
_cell_angle_alpha 90.000000
_cell_angle_beta 90.000000
_cell_angle_gamma 90.000000
_cell_volume 3387.336130
_symmetry_space_group_name_H-M "I 41 2 2"
_symmetry_group_IT_number 98
_symmetry_cell_setting 'tetragonal'
loop_
_space_group_symop_operation_xyz
x,y,z
-y,1/2+x,1/4+z
-x,-y,z
y,1/2-x,1/4+z
x,1/2-y,1/4-z
-x,1/2+y,1/4-z
y,x,-z
-y,-x,-z
1/2+x,1/2+y,1/2+z
1/2-y,x,3/4+z
1/2-x,1/2-y,1/2+z
1/2+y,-x,3/4+z
1/2+x,-y,3/4-z
1/2-x,y,3/4-z
1/2+y,1/2+x,1/2-z
1/2-y,1/2-x,1/2-z
loop_
_atom_site_type_symbol
_atom_site_label
_atom_site_fract_x
_atom_site_fract_y
_atom_site_fract_z
Si Si1 0.500000 0.000000 0.897219
Si Si2 0.464489 0.155406 0.021379
Si Si3 0.259856 0.384714 0.274695
Si Si4 0.138892 0.501607 0.784211
Si Si5 0.557837 0.322213 0.554703
O O1 0.591599 0.000729 0.841898
O O2 0.512293 0.089878 0.954256
O O3 0.491960 0.258705 0.999641
O O4 0.500535 0.131790 0.114435
O O5 0.356671 0.140059 0.014219
O O6 0.250000 0.397579 0.375000
O O7 0.197340 0.302661 0.250000
O O8 0.227006 0.484531 0.241050
O O9 0.095968 0.595968 0.750000
O O10 0.084579 0.415422 0.750000
O O11 0.593820 0.250000 0.625000
O O12 0.644336 0.355665 0.500000
#
# Coordination Sequence:
#
# PCOD8306340 Si02
#       5
#     8  16  16  16  16
#     4  12  21  44  69  98 132 182 230 286 347 406
#     4  11  24  40  71  98 135 183 232 282 346 408
#     4  11  23  40  64 105 134 174 230 291 351 411
#     4  10  23  44  66 101 139 178 222 282 343 416
#     4  11  24  44  68  99 136 182 228 286 354 417
#
# _framework density 21.255641000000001
#
# number of rings (size 3 to 8) (size 9 to 14) (size 15 to 20)
#    0.000    1.111    4.444    3.667    6.222    0.000 
#    4.000    1.111    0.000    1.333    0.000    0.000 
#    0.000    0.000    0.000    0.000    0.000    0.000 
#
# Total GULP energy -446295.103066 kJ/mol
# GULP energy per Si atom -12397.086196 kJ/mol
# Density = 2.120726 g / cm^3
# Si number density = 21.255641 Si / 1000 Ang^3
#
#
#
# Elastic Constant Matrix: (Units=GPa)
#
#
# Indices 1 2 3 4 5 6 
#
# 1 150.2046 71.9040 44.5674 0.0000 0.0000 0.0000
# 2 71.9040 150.2088 44.5654 0.0000 0.0000 0.0000
# 3 44.5674 44.5654 63.5609 0.0000 0.0000 0.0000
# 4 0.0000 0.0000 0.0000 27.9129 0.0000 0.0000
# 5 0.0000 0.0000 0.0000 0.0000 27.9154 0.0000
# 6 0.0000 0.0000 0.0000 0.0000 0.0000 42.1696
#
#
#
# Elastic Compliance Matrix: (Units=1/GPa)
#
#
# Indices 1 2 3 4 5 6 
#
# 1 0.009518 -0.003253 -0.004393 0.000000 0.000000 0.000000
# 2 -0.003253 0.009518 -0.004392 0.000000 0.000000 0.000000
# 3 -0.004393 -0.004392 0.021893 0.000000 0.000000 0.000000
# 4 0.000000 0.000000 0.000000 0.035826 0.000000 0.000000
# 5 0.000000 0.000000 0.000000 0.000000 0.035823 0.000000
# 6 0.000000 0.000000 0.000000 0.000000 0.000000 0.023714
#
#
# Mechanical properties :
#
#
# Convention : Reuss Voigt Hill
#
# Bulk Modulus (GPa) = 59.34032 76.22755 67.78393
# Shear Modulus (GPa) = 30.12307 33.12875 31.62591
#
# Velocity S-wave (km/s) = 3.76863 3.95218 3.86149
# Velocity P-wave (km/s) = 6.84944 7.53435 7.20004
#
# Compressibility (1/GPa) = 0.01685195
#
# Stress axis : x y z
#
# Youngs Moduli (GPa) = 105.06071 105.06692 45.67644
#
# Poissons Ratio (x) = 0.34177 0.20067
# Poissons Ratio (y) = 0.34175 0.20063
# Poissons Ratio (z) = 0.46156 0.46150
#
# Static dielectric constant tensor:
#      x y z
#    x 3.829140 0.000000 0.000000 
#    y 0.000000 3.829130 0.000000 
#    z 0.000000 0.000000 33.669010 
# 
# 
# High freq. dielectric constant tensor:
#      x y z
#    x 1.840330 0.000000 0.000000 
#    y 0.000000 1.840330 0.000000 
#    z 0.000000 0.000000 1.829660 
# 
# From -- ./inp_files/7520.got.cif
#   From: 2010.03.12/outbox.cif.g09.slc.cpg/sg98_4_cif.got.tgz:7520.got - 2010.04.08 21:04:41.
