data_PCOD8306406
_publ_section_title
;
Structure prediction by ZEFSAII (Michael W. Deem and Ramdas Pophale) SiO2 
 PCOD8306406
Probable space group: I 41 2 2
;
_chemical_formula_sum "Si O2"
_cell_formula_units_Z 40
_cell_length_a 9.133750
_cell_length_b 9.133750
_cell_length_c 18.458295
_cell_angle_alpha 90.000000
_cell_angle_beta 90.000000
_cell_angle_gamma 90.000000
_cell_volume 1539.890442
_symmetry_space_group_name_H-M "I 41 2 2"
_symmetry_group_IT_number 98
_symmetry_cell_setting 'tetragonal'
loop_
_space_group_symop_operation_xyz
x,y,z
-y,1/2+x,1/4+z
-x,-y,z
y,1/2-x,1/4+z
x,1/2-y,1/4-z
-x,1/2+y,1/4-z
y,x,-z
-y,-x,-z
1/2+x,1/2+y,1/2+z
1/2-y,x,3/4+z
1/2-x,1/2-y,1/2+z
1/2+y,-x,3/4+z
1/2+x,-y,3/4-z
1/2-x,y,3/4-z
1/2+y,1/2+x,1/2-z
1/2-y,1/2-x,1/2-z
loop_
_atom_site_type_symbol
_atom_site_label
_atom_site_fract_x
_atom_site_fract_y
_atom_site_fract_z
Si Si1 0.475049 0.655888 0.380945
Si Si2 0.652377 0.750000 0.125000
Si Si3 0.394904 0.684857 0.228937
O O1 0.500000 0.500000 0.422776
O O2 0.619118 0.740787 0.353130
O O3 0.397682 0.602006 0.306034
O O4 0.379999 0.765867 0.429160
O O5 0.551138 0.687219 0.189565
O O6 0.352121 0.852121 0.250000
#
# Coordination Sequence:
#
# PCOD8306406 Si02
#       3
#    16   8  16
#     4  12  28  50  79 122 165 218 274 351 421 502
#     4  12  26  48  84 114 164 220 274 340 426 498
#     4  12  26  50  81 116 165 216 276 343 416 505
#
# _framework density 25.975877000000001
#
# number of rings (size 3 to 8) (size 9 to 14) (size 15 to 20)
#    0.000    0.000    4.000    4.800    5.600    2.400 
#    0.000    0.000    0.000    0.000    0.000    0.000 
#    0.000    0.000    0.000    0.000    0.000    0.000 
#
# Total GULP energy -247767.240080 kJ/mol
# GULP energy per Si atom -12388.362004 kJ/mol
# Density = 2.591675 g / cm^3
# Si number density = 25.975877 Si / 1000 Ang^3
#
#
#
# Elastic Constant Matrix: (Units=GPa)
#
#
# Indices 1 2 3 4 5 6 
#
# 1 152.1296 61.2479 45.0451 0.0000 0.0000 0.0000
# 2 61.2479 152.1296 45.0451 0.0000 0.0000 0.0000
# 3 45.0451 45.0451 162.4226 0.0000 0.0000 0.0000
# 4 0.0000 0.0000 0.0000 20.8706 0.0000 0.0000
# 5 0.0000 0.0000 0.0000 0.0000 20.8706 0.0000
# 6 0.0000 0.0000 0.0000 0.0000 0.0000 51.4952
#
#
#
# Elastic Compliance Matrix: (Units=1/GPa)
#
#
# Indices 1 2 3 4 5 6 
#
# 1 0.008156 -0.002848 -0.001472 0.000000 0.000000 0.000000
# 2 -0.002848 0.008156 -0.001472 0.000000 0.000000 0.000000
# 3 -0.001472 -0.001472 0.006973 0.000000 0.000000 0.000000
# 4 0.000000 0.000000 0.000000 0.047914 0.000000 0.000000
# 5 0.000000 0.000000 0.000000 0.000000 0.047914 0.000000
# 6 0.000000 0.000000 0.000000 0.000000 0.000000 0.019419
#
#
# Mechanical properties :
#
#
# Convention : Reuss Voigt Hill
#
# Bulk Modulus (GPa) = 85.46253 85.48421 85.47337
# Shear Modulus (GPa) = 32.46408 39.67022 36.06715
#
# Velocity S-wave (km/s) = 3.53906 3.91217 3.73028
# Velocity P-wave (km/s) = 7.04784 7.30666 7.17842
#
# Compressibility (1/GPa) = 0.01170103
#
# Stress axis : x y z
#
# Youngs Moduli (GPa) = 122.61380 122.61380 143.40417
#
# Poissons Ratio (x) = 0.34916 0.21111
# Poissons Ratio (y) = 0.34916 0.21111
# Poissons Ratio (z) = 0.18050 0.18050
#
# Static dielectric constant tensor:
#      x y z
#    x 4.929130 0.000000 0.000000 
#    y 0.000000 4.929130 0.000000 
#    z 0.000000 0.000000 4.760840 
# 
# 
# High freq. dielectric constant tensor:
#      x y z
#    x 2.047640 0.000000 0.000000 
#    y 0.000000 2.047640 0.000000 
#    z 0.000000 0.000000 2.046270 
# 
# From -- ./inp_files/9489.got.cif
#   From: 2010.03.12/outbox.cif.g09.slc.cpg/sg98_5_cif.got.tgz:9489.got - 2010.04.08 21:04:41.
