data_PCOD8306434
_publ_section_title
;
Structure prediction by ZEFSAII (Michael W. Deem and Ramdas Pophale) SiO2 
 PCOD8306434
Probable space group: P 4 M M
;
_chemical_formula_sum "Si O2"
_cell_formula_units_Z 56
_cell_length_a 13.695122
_cell_length_b 13.695122
_cell_length_c 18.251894
_cell_angle_alpha 90.000000
_cell_angle_beta 90.000000
_cell_angle_gamma 90.000000
_cell_volume 3423.258922
_symmetry_space_group_name_H-M "P 4 M M"
_symmetry_group_IT_number 99
_symmetry_cell_setting 'tetragonal'
loop_
_space_group_symop_operation_xyz
x,y,z
-y,x,z
-x,-y,z
y,-x,z
-x,y,z
x,-y,z
-y,-x,z
y,x,z
loop_
_atom_site_type_symbol
_atom_site_label
_atom_site_fract_x
_atom_site_fract_y
_atom_site_fract_z
Si Si1 0.116463 0.390945 0.010340
Si Si2 0.731523 0.114581 0.461261
Si Si3 0.226074 0.614751 0.748969
Si Si4 0.115456 0.726969 0.869532
Si Si5 0.893007 0.616002 0.167286
Si Si6 0.883021 0.390646 0.324071
Si Si7 0.386895 0.110724 0.603676
O O1 0.155369 0.500000 0.991397
O O2 0.159681 0.355316 0.090036
O O3 0.000000 0.394673 0.015919
O O4 0.149044 0.316019 0.947806
O O5 0.837608 0.162393 0.466009
O O6 0.677601 0.155452 0.389029
O O7 0.670319 0.145892 0.532192
O O8 0.747008 0.000000 0.457099
O O9 0.246352 0.500000 0.758452
O O10 0.327918 0.672083 0.759100
O O11 0.146823 0.648792 0.808508
O O12 0.181854 0.640135 0.669947
O O13 0.170029 0.829972 0.857305
O O14 0.000000 0.745276 0.864698
O O15 0.903800 0.500000 0.168749
O O16 0.841468 0.647212 0.244363
O O17 0.000000 0.664940 0.166494
O O18 0.845203 0.500000 0.340132
O O19 0.000000 0.390524 0.321252
O O20 0.500000 0.116803 0.583652
O O21 0.358071 0.000000 0.625497
#
# Coordination Sequence:
#
# PCOD8306434 Si02
#       7
#     8   8   8   8   8   8   8
#     4   8  13  23  41  63  84 106 135 174 220 267
#     4  10  19  29  41  58  83 115 148 180 213 252
#     4  10  20  33  50  72  96 120 145 175 215 266
#     4  10  20  32  46  65  89 119 156 194 229 264
#     4   7  10  18  35  59  82 102 128 168 219 267
#     4   8  13  23  40  60  80 102 133 177 225 263
#     4   9  17  30  49  70  88 108 139 180 222 260
#
# _framework density 16.358682000000002
#
# number of rings (size 3 to 8) (size 9 to 14) (size 15 to 20)
#    0.000    3.143    0.000    3.429    0.000    3.571 
#    0.000    0.714    0.000    0.000    0.000    2.000 
#    0.000    8.286    0.000    0.000    0.000   33.143 
#
# Total GULP energy -693799.758549 kJ/mol
# GULP energy per Si atom -12389.281403 kJ/mol
# Density = 1.632145 g / cm^3
# Si number density = 16.358682 Si / 1000 Ang^3
#
#
#
# Elastic Constant Matrix: (Units=GPa)
#
#
# Indices 1 2 3 4 5 6 
#
# 1 56.4431 32.8624 42.9251 0.0000 0.0000 -0.0002
# 2 32.8624 56.4431 42.9251 0.0000 0.0000 0.0002
# 3 42.9251 42.9251 140.0788 0.0000 0.0000 0.0000
# 4 0.0000 0.0000 0.0000 10.7401 0.0000 0.0000
# 5 0.0000 0.0000 0.0000 0.0000 10.7401 0.0000
# 6 -0.0002 0.0002 0.0000 0.0000 0.0000 13.9721
#
#
#
# Elastic Compliance Matrix: (Units=1/GPa)
#
#
# Indices 1 2 3 4 5 6 
#
# 1 0.029141 -0.013267 -0.004864 0.000000 0.000000 0.000001
# 2 -0.013267 0.029141 -0.004864 0.000000 0.000000 -0.000001
# 3 -0.004864 -0.004864 0.010120 0.000000 0.000000 0.000000
# 4 0.000000 0.000000 0.000000 0.093109 0.000000 0.000000
# 5 0.000000 0.000000 0.000000 0.000000 0.093109 0.000000
# 6 0.000001 -0.000001 0.000000 0.000000 0.000000 0.071571
#
#
# Mechanical properties :
#
#
# Convention : Reuss Voigt Hill
#
# Bulk Modulus (GPa) = 44.62255 54.48780 49.55517
# Shear Modulus (GPa) = 13.16999 16.04062 14.60531
#
# Velocity S-wave (km/s) = 2.84047 3.13478 2.99125
# Velocity P-wave (km/s) = 6.17207 6.81784 6.50298
#
# Compressibility (1/GPa) = 0.02241020
#
# Stress axis : x y z
#
# Youngs Moduli (GPa) = 34.31646 34.31646 98.81448
#
# Poissons Ratio (x) = 0.45528 0.48065
# Poissons Ratio (y) = 0.45528 0.48065
# Poissons Ratio (z) = 0.16692 0.16692
#
# Static dielectric constant tensor:
#      x y z
#    x 2.729360 0.000000 0.000000 
#    y 0.000000 2.729360 0.000000 
#    z 0.000000 0.000000 3.601990 
# 
# 
# High freq. dielectric constant tensor:
#      x y z
#    x 1.592700 0.000000 0.000000 
#    y 0.000000 1.592700 0.000000 
#    z 0.000000 0.000000 1.658210 
# 
# From -- ./inp_files/2157.got.cif
#   From: 2010.03.12/outbox.cif.g09.slc.cpg/sg99_cif.got.tgz:2157.got - 2010.04.08 21:11:30.
