data_PCOD8306863
_publ_section_title
;
Structure prediction by ZEFSAII (Michael W. Deem and Ramdas Pophale) SiO2 
 PCOD8306863
Probable space group: P 42 N M
;
_chemical_formula_sum "Si O2"
_cell_formula_units_Z 48
_cell_length_a 15.965616
_cell_length_b 15.965616
_cell_length_c 11.325440
_cell_angle_alpha 90.000000
_cell_angle_beta 90.000000
_cell_angle_gamma 90.000000
_cell_volume 2886.864784
_symmetry_space_group_name_H-M "P 42 N M"
_symmetry_group_IT_number 102
_symmetry_cell_setting 'tetragonal'
loop_
_space_group_symop_operation_xyz
x,y,z
1/2-y,1/2+x,1/2+z
-x,-y,z
1/2+y,1/2-x,1/2+z
1/2-x,1/2+y,1/2+z
1/2+x,1/2-y,1/2+z
-y,-x,z
y,x,z
loop_
_atom_site_type_symbol
_atom_site_label
_atom_site_fract_x
_atom_site_fract_y
_atom_site_fract_z
Si Si1 0.971785 0.297298 0.189690
Si Si2 0.635704 0.501035 0.541412
Si Si3 0.402857 0.730052 0.358830
Si Si4 0.630736 0.950347 0.422093
Si Si5 0.654005 0.209869 0.125629
Si Si6 0.961260 0.611063 0.973886
O O1 0.871832 0.310441 0.194033
O O2 0.992986 0.204144 0.144793
O O3 0.018726 0.313448 0.312912
O O4 0.008444 0.366849 0.103666
O O5 0.571158 0.428843 0.579587
O O6 0.589600 0.589600 0.526429
O O7 0.677736 0.480808 0.413674
O O8 0.316297 0.683704 0.392549
O O9 0.407764 0.740926 0.216790
O O10 0.400318 0.820263 0.418808
O O11 0.690099 0.895839 0.506361
O O12 0.544746 0.899404 0.389956
O O13 0.595190 0.029776 0.492520
O O14 0.732396 0.267605 0.089617
#
# Coordination Sequence:
#
# PCOD8306863 Si02
#       6
#     8   8   8   8   8   8
#     4  10  19  32  51  74 102 136 165 210 257 310
#     4   9  18  33  54  76  96 128 175 218 251 295
#     4   9  17  32  53  73  99 134 171 209 253 306
#     4  10  20  30  50  75 103 136 166 211 255 306
#     4  10  20  33  50  75 105 137 169 207 258 311
#     4   9  19  31  48  74 100 130 174 209 248 301
#
# _framework density 16.627033000000001
#
# number of rings (size 3 to 8) (size 9 to 14) (size 15 to 20)
#    0.000    2.500    1.667    0.500    2.333    2.000 
#    0.000    0.000    0.000    3.000    0.000    2.333 
#    0.000    0.000    0.000    0.000    0.000    0.000 
#
# Total GULP energy -594796.297161 kJ/mol
# GULP energy per Si atom -12391.589524 kJ/mol
# Density = 1.658919 g / cm^3
# Si number density = 16.627033 Si / 1000 Ang^3
#
#
#
# Elastic Constant Matrix: (Units=GPa)
#
#
# Indices 1 2 3 4 5 6 
#
# 1 99.7065 55.4415 56.8860 0.0000 0.0000 0.0000
# 2 55.4415 99.7065 56.8860 0.0000 0.0000 0.0000
# 3 56.8860 56.8860 95.3583 0.0000 0.0000 0.0000
# 4 0.0000 0.0000 0.0000 23.7578 0.0000 0.0000
# 5 0.0000 0.0000 0.0000 0.0000 23.7578 0.0000
# 6 0.0000 0.0000 0.0000 0.0000 0.0000 27.7384
#
#
#
# Elastic Compliance Matrix: (Units=1/GPa)
#
#
# Indices 1 2 3 4 5 6 
#
# 1 0.017024 -0.005567 -0.006835 0.000000 0.000000 0.000000
# 2 -0.005567 0.017024 -0.006835 0.000000 0.000000 0.000000
# 3 -0.006835 -0.006835 0.018642 0.000000 0.000000 0.000000
# 4 0.000000 0.000000 0.000000 0.042091 0.000000 0.000000
# 5 0.000000 0.000000 0.000000 0.000000 0.042091 0.000000
# 6 0.000000 0.000000 0.000000 0.000000 0.000000 0.036051
#
#
# Mechanical properties :
#
#
# Convention : Reuss Voigt Hill
#
# Bulk Modulus (GPa) = 70.33952 70.35536 70.34744
# Shear Modulus (GPa) = 23.13343 23.42133 23.27738
#
# Velocity S-wave (km/s) = 3.73408 3.75724 3.74568
# Velocity P-wave (km/s) = 7.80944 7.82484 7.81714
#
# Compressibility (1/GPa) = 0.01421676
#
# Stress axis : x y z
#
# Youngs Moduli (GPa) = 58.73897 58.73897 53.64301
#
# Poissons Ratio (x) = 0.32698 0.36666
# Poissons Ratio (y) = 0.32698 0.36666
# Poissons Ratio (z) = 0.40149 0.40149
#
# Static dielectric constant tensor:
#      x y z
#    x 3.245260 0.000000 0.000000 
#    y 0.000000 3.245260 0.000000 
#    z 0.000000 0.000000 2.955030 
# 
# 
# High freq. dielectric constant tensor:
#      x y z
#    x 1.643580 0.000000 0.000000 
#    y 0.000000 1.643580 0.000000 
#    z 0.000000 0.000000 1.621020 
# 
# From -- ./inp_files/1760.got.cif
#   From: 2010.03.12/outbox.cif.g09.slc.cpg/sg102_1_cif.got.tgz:1760.got - 2010.04.14 01:40:42.
