data_PCOD8306420
_publ_section_title
;
Structure prediction by ZEFSAII (Michael W. Deem and Ramdas Pophale) SiO2 
 PCOD8306420
Probable space group: P 4 M M
;
_chemical_formula_sum "Si O2"
_cell_formula_units_Z 64
_cell_length_a 21.226497
_cell_length_b 21.226497
_cell_length_c 10.125542
_cell_angle_alpha 90.000000
_cell_angle_beta 90.000000
_cell_angle_gamma 90.000000
_cell_volume 4562.206477
_symmetry_space_group_name_H-M "P 4 M M"
_symmetry_group_IT_number 99
_symmetry_cell_setting 'tetragonal'
loop_
_space_group_symop_operation_xyz
x,y,z
-y,x,z
-x,-y,z
y,-x,z
-x,y,z
x,-y,z
-y,-x,z
y,x,z
loop_
_atom_site_type_symbol
_atom_site_label
_atom_site_fract_x
_atom_site_fract_y
_atom_site_fract_z
Si Si1 0.231639 0.134017 0.538170
Si Si2 0.927137 0.430252 0.889780
Si Si3 0.650274 0.073408 0.421402
Si Si4 0.336918 0.072152 0.123145
Si Si5 0.425609 0.148775 0.633670
Si Si6 0.315950 0.781728 0.727491
Si Si7 0.173647 0.927701 0.774684
Si Si8 0.153140 0.255107 0.958511
O O1 0.180884 0.180884 0.466054
O O2 0.278172 0.098455 0.438031
O O3 0.271410 0.175149 0.639458
O O4 0.193723 0.081949 0.622219
O O5 0.903049 0.500000 0.923391
O O6 0.894933 0.406278 0.756305
O O7 0.000000 0.428811 0.856469
O O8 0.910606 0.389605 0.016431
O O9 0.633967 0.082977 0.267690
O O10 0.599273 0.114092 0.502352
O O11 0.645684 0.000000 0.462853
O O12 0.281105 0.121282 0.092480
O O13 0.313471 0.000000 0.109104
O O14 0.500000 0.162680 0.619850
O O15 0.387048 0.213449 0.667150
O O16 0.290727 0.709274 0.720934
O O17 0.308780 0.807813 0.877624
O O18 0.109869 0.890132 0.806162
O O19 0.160439 0.000000 0.804110
O O20 0.229668 0.903561 0.868180
O O21 0.199675 0.199675 0.002476
#
# Coordination Sequence:
#
# PCOD8306420 Si02
#       8
#     8   8   8   8   8   8   8   8
#     4   8  15  27  41  56  74  99 132 167 208 254
#     4   9  17  28  41  56  76 105 139 170 197 233
#     4  10  20  29  39  58  83 109 137 175 216 246
#     4  10  19  29  40  57  80 106 138 172 209 247
#     4  10  18  29  45  63  83 109 142 170 196 241
#     4   8  14  26  43  63  83 100 126 168 206 234
#     4   9  16  25  39  57  75  97 125 163 212 261
#     4   9  16  27  42  59  77 100 133 169 209 252
#
# _framework density 14.028299000000001
#
# number of rings (size 3 to 8) (size 9 to 14) (size 15 to 20)
#    0.000    2.875    1.250    2.625    0.000    1.875 
#    0.000    1.250    0.000    0.000    0.000    0.000 
#    0.000    0.250    0.000   23.250    0.000    0.000 
#
# Total GULP energy -793012.313953 kJ/mol
# GULP energy per Si atom -12390.817406 kJ/mol
# Density = 1.399637 g / cm^3
# Si number density = 14.028299 Si / 1000 Ang^3
#
#
#
# Elastic Constant Matrix: (Units=GPa)
#
#
# Indices 1 2 3 4 5 6 
#
# 1 71.1219 34.9722 29.0033 0.0000 0.0000 -0.0001
# 2 34.9722 71.1219 29.0033 0.0000 0.0000 0.0001
# 3 29.0033 29.0033 71.0152 0.0000 0.0000 0.0000
# 4 0.0000 0.0000 0.0000 14.5600 0.0000 0.0000
# 5 0.0000 0.0000 0.0000 0.0000 14.5600 0.0000
# 6 -0.0001 0.0001 0.0000 0.0000 0.0000 15.0391
#
#
#
# Elastic Compliance Matrix: (Units=1/GPa)
#
#
# Indices 1 2 3 4 5 6 
#
# 1 0.019899 -0.007764 -0.004956 0.000000 0.000000 0.000000
# 2 -0.007764 0.019899 -0.004956 0.000000 0.000000 0.000000
# 3 -0.004956 -0.004956 0.018130 0.000000 0.000000 0.000000
# 4 0.000000 0.000000 0.000000 0.068681 0.000000 0.000000
# 5 0.000000 0.000000 0.000000 0.000000 0.068681 0.000000
# 6 0.000000 0.000000 0.000000 0.000000 0.000000 0.066493
#
#
# Mechanical properties :
#
#
# Convention : Reuss Voigt Hill
#
# Bulk Modulus (GPa) = 44.29529 44.35738 44.32634
# Shear Modulus (GPa) = 16.41168 16.85052 16.63110
#
# Velocity S-wave (km/s) = 3.42409 3.46956 3.44690
# Velocity P-wave (km/s) = 6.87581 6.90935 6.89260
#
# Compressibility (1/GPa) = 0.02257576
#
# Stress axis : x y z
#
# Youngs Moduli (GPa) = 50.25360 50.25360 55.15779
#
# Poissons Ratio (x) = 0.39015 0.27337
# Poissons Ratio (y) = 0.39015 0.27337
# Poissons Ratio (z) = 0.24907 0.24907
#
# Static dielectric constant tensor:
#      x y z
#    x 2.780880 0.000000 0.000000 
#    y 0.000000 2.780880 0.000000 
#    z 0.000000 0.000000 2.669260 
# 
# 
# High freq. dielectric constant tensor:
#      x y z
#    x 1.516760 0.000000 0.000000 
#    y 0.000000 1.516760 0.000000 
#    z 0.000000 0.000000 1.524710 
# 
# From -- ./inp_files/1166.got.cif
#   From: 2010.03.12/outbox.cif.g09.slc.cpg/sg99_cif.got.tgz:1166.got - 2010.04.08 21:11:30.
