data_PCOD8306200
_publ_section_title
;
Structure prediction by ZEFSAII (Michael W. Deem and Ramdas Pophale) SiO2 
 PCOD8306200
Probable space group: I 41 2 2
;
_chemical_formula_sum "Si O2"
_cell_formula_units_Z 96
_cell_length_a 24.797829
_cell_length_b 24.797829
_cell_length_c 9.081430
_cell_angle_alpha 90.000000
_cell_angle_beta 90.000000
_cell_angle_gamma 90.000000
_cell_volume 5584.464847
_symmetry_space_group_name_H-M "I 41 2 2"
_symmetry_group_IT_number 98
_symmetry_cell_setting 'tetragonal'
loop_
_space_group_symop_operation_xyz
x,y,z
-y,1/2+x,1/4+z
-x,-y,z
y,1/2-x,1/4+z
x,1/2-y,1/4-z
-x,1/2+y,1/4-z
y,x,-z
-y,-x,-z
1/2+x,1/2+y,1/2+z
1/2-y,x,3/4+z
1/2-x,1/2-y,1/2+z
1/2+y,-x,3/4+z
1/2+x,-y,3/4-z
1/2-x,y,3/4-z
1/2+y,1/2+x,1/2-z
1/2-y,1/2-x,1/2-z
loop_
_atom_site_type_symbol
_atom_site_label
_atom_site_fract_x
_atom_site_fract_y
_atom_site_fract_z
Si Si1 0.435891 0.139078 0.670826
Si Si2 0.840087 0.634937 0.589948
Si Si3 0.708833 0.143222 0.648077
Si Si4 0.869816 0.167339 0.351903
Si Si5 0.286517 0.357500 0.590982
Si Si6 0.046437 0.689133 0.135112
O O1 0.416773 0.083228 0.750000
O O2 0.417439 0.139629 0.499820
O O3 0.407685 0.189449 0.750838
O O4 0.499992 0.146758 0.679317
O O5 0.867330 0.632671 0.750000
O O6 0.776222 0.635528 0.607339
O O7 0.857385 0.689033 0.504765
O O8 0.695070 0.195070 0.750000
O O9 0.771369 0.145205 0.608958
O O10 0.676429 0.141719 0.497748
O O11 0.690037 0.091162 0.739251
O O12 0.869299 0.130701 0.500000
O O13 0.927502 0.167934 0.268626
O O14 0.303212 0.303212 0.500000
O O15 0.022720 0.750000 0.125000
#
# Coordination Sequence:
#
# PCOD8306200 Si02
#       6
#    16  16  16  16  16  16
#     4   9  18  33  50  66  85 119 167 211 246 282
#     4  10  18  26  39  62  89 114 146 191 244 298
#     4   9  18  30  48  74 104 139 168 186 218 272
#     4  10  19  30  47  77 109 134 158 188 229 279
#     4   9  17  27  40  59  85 118 152 187 232 294
#     4   9  17  32  52  70  95 131 166 200 238 283
#
# _framework density 17.190546000000001
#
# number of rings (size 3 to 8) (size 9 to 14) (size 15 to 20)
#    0.000    3.000    0.000    5.500    0.000    4.000 
#    0.000    3.333    0.000   10.500    0.000    1.167 
#    0.000    0.000    0.000    0.000    0.000    0.000 
#
# Total GULP energy -594918.037948 kJ/mol
# GULP energy per Si atom -12394.125791 kJ/mol
# Density = 1.715142 g / cm^3
# Si number density = 17.190546 Si / 1000 Ang^3
#
#
#
# Elastic Constant Matrix: (Units=GPa)
#
#
# Indices 1 2 3 4 5 6 
#
# 1 74.7540 31.4831 26.9120 0.0000 0.0000 0.0000
# 2 31.4831 74.7559 26.9131 0.0000 0.0000 0.0000
# 3 26.9120 26.9131 121.7608 0.0000 0.0000 0.0000
# 4 0.0000 0.0000 0.0000 8.2097 0.0000 0.0000
# 5 0.0000 0.0000 0.0000 0.0000 8.2098 0.0000
# 6 0.0000 0.0000 0.0000 0.0000 0.0000 20.9936
#
#
#
# Elastic Compliance Matrix: (Units=1/GPa)
#
#
# Indices 1 2 3 4 5 6 
#
# 1 0.016855 -0.006255 -0.002343 0.000000 0.000000 0.000000
# 2 -0.006255 0.016855 -0.002343 0.000000 0.000000 0.000000
# 3 -0.002343 -0.002343 0.009249 0.000000 0.000000 0.000000
# 4 0.000000 0.000000 0.000000 0.121808 0.000000 0.000000
# 5 0.000000 0.000000 0.000000 0.000000 0.121806 0.000000
# 6 0.000000 0.000000 0.000000 0.000000 0.000000 0.047634
#
#
# Mechanical properties :
#
#
# Convention : Reuss Voigt Hill
#
# Bulk Modulus (GPa) = 47.44570 49.09854 48.27212
# Shear Modulus (GPa) = 13.76985 19.88011 16.82498
#
# Velocity S-wave (km/s) = 2.83329 3.40436 3.13187
# Velocity P-wave (km/s) = 6.19380 6.63899 6.42026
#
# Compressibility (1/GPa) = 0.02107673
#
# Stress axis : x y z
#
# Youngs Moduli (GPa) = 59.32982 59.33097 108.12564
#
# Poissons Ratio (x) = 0.37111 0.25332
# Poissons Ratio (y) = 0.37110 0.25333
# Poissons Ratio (z) = 0.13900 0.13901
#
# Static dielectric constant tensor:
#      x y z
#    x 2.986880 0.000000 0.000000 
#    y 0.000000 2.986880 0.000000 
#    z 0.000000 0.000000 4.538800 
# 
# 
# High freq. dielectric constant tensor:
#      x y z
#    x 1.637690 0.000000 0.000000 
#    y 0.000000 1.637690 0.000000 
#    z 0.000000 0.000000 1.670400 
# 
# From -- ./inp_files/3850.got.cif
#   From: 2010.03.12/outbox.cif.g09.slc.cpg/sg98_2_cif.got.tgz:3850.got - 2010.04.08 21:04:41.
