data_PCOD8306260
_publ_section_title
;
Structure prediction by ZEFSAII (Michael W. Deem and Ramdas Pophale) SiO2 
 PCOD8306260
Probable space group: I 41 2 2
;
_chemical_formula_sum "Si O2"
_cell_formula_units_Z 72
_cell_length_a 14.252728
_cell_length_b 14.252728
_cell_length_c 18.612294
_cell_angle_alpha 90.000000
_cell_angle_beta 90.000000
_cell_angle_gamma 90.000000
_cell_volume 3780.906158
_symmetry_space_group_name_H-M "I 41 2 2"
_symmetry_group_IT_number 98
_symmetry_cell_setting 'tetragonal'
loop_
_space_group_symop_operation_xyz
x,y,z
-y,1/2+x,1/4+z
-x,-y,z
y,1/2-x,1/4+z
x,1/2-y,1/4-z
-x,1/2+y,1/4-z
y,x,-z
-y,-x,-z
1/2+x,1/2+y,1/2+z
1/2-y,x,3/4+z
1/2-x,1/2-y,1/2+z
1/2+y,-x,3/4+z
1/2+x,-y,3/4-z
1/2-x,y,3/4-z
1/2+y,1/2+x,1/2-z
1/2-y,1/2-x,1/2-z
loop_
_atom_site_type_symbol
_atom_site_label
_atom_site_fract_x
_atom_site_fract_y
_atom_site_fract_z
Si Si1 0.841006 0.653562 0.011093
Si Si2 0.767137 0.149301 0.796402
Si Si3 0.523230 0.674838 0.480151
Si Si4 0.602396 0.474533 0.669293
Si Si5 0.750000 0.778834 0.375000
O O1 0.881864 0.550145 0.017558
O O2 0.788572 0.672862 0.087301
O O3 0.914250 0.735257 0.995657
O O4 0.780035 0.652509 0.939023
O O5 0.750000 0.186306 0.875000
O O6 0.741892 0.241892 0.750000
O O7 0.874504 0.113385 0.790402
O O8 0.690740 0.066925 0.780948
O O9 0.580101 0.580101 0.500000
O O10 0.486162 0.672993 0.398029
O O11 0.500000 0.500000 0.638614
#
# Coordination Sequence:
#
# PCOD8306260 Si02
#       5
#    16  16  16  16   8
#     4  11  20  37  60  91 125 164 206 265 317 381
#     4  12  26  43  62  88 130 173 214 263 322 384
#     4  12  23  37  64  98 130 161 200 262 335 388
#     4  12  24  40  64  93 128 169 215 260 323 394
#     4  10  20  36  60  90 128 158 204 264 330 366
#
# _framework density 19.043054999999999
#
# number of rings (size 3 to 8) (size 9 to 14) (size 15 to 20)
#    0.000    0.444    8.889    1.333    1.556    0.000 
#    2.000    0.000    0.000    0.000    0.000    1.556 
#    0.000    0.000    0.000    0.000    0.000    0.000 
#
# Total GULP energy -446006.194766 kJ/mol
# GULP energy per Si atom -12389.060966 kJ/mol
# Density = 1.899971 g / cm^3
# Si number density = 19.043055 Si / 1000 Ang^3
#
#
#
# Elastic Constant Matrix: (Units=GPa)
#
#
# Indices 1 2 3 4 5 6 
#
# 1 93.7762 49.0302 48.5632 0.0000 0.0000 0.0000
# 2 49.0302 93.7762 48.5632 0.0000 0.0000 0.0000
# 3 48.5632 48.5632 109.9220 0.0000 0.0000 0.0000
# 4 0.0000 0.0000 0.0000 -51.5058 0.0000 0.0000
# 5 0.0000 0.0000 0.0000 0.0000 -51.5058 0.0000
# 6 0.0000 0.0000 0.0000 0.0000 0.0000 30.9955
#
#
#
# Elastic Compliance Matrix: (Units=1/GPa)
#
#
# Indices 1 2 3 4 5 6 
#
# 1 0.016179 -0.006169 -0.004423 0.000000 0.000000 0.000000
# 2 -0.006169 0.016179 -0.004423 0.000000 0.000000 0.000000
# 3 -0.004423 -0.004423 0.013005 0.000000 0.000000 0.000000
# 4 0.000000 0.000000 0.000000 -0.019415 0.000000 0.000000
# 5 0.000000 0.000000 0.000000 0.000000 -0.019415 0.000000
# 6 0.000000 0.000000 0.000000 0.000000 0.000000 0.032263
#
#
# Mechanical properties :
#
#
# Convention : Reuss Voigt Hill
#
# Bulk Modulus (GPa) = 65.20757 65.53197 65.36977
# Shear Modulus (GPa) = 67.62583 -4.31539 31.65522
#
# Velocity S-wave (km/s) = 5.96567 -1.50700 4.08155
# Velocity P-wave (km/s) = 9.04261 5.60885 7.52422
#
# Compressibility (1/GPa) = 0.01533564
#
# Stress axis : x y z
#
# Youngs Moduli (GPa) = 61.80706 61.80706 76.89280
#
# Poissons Ratio (x) = 0.38129 0.34006
# Poissons Ratio (y) = 0.38129 0.34006
# Poissons Ratio (z) = 0.27335 0.27335
#
# Static dielectric constant tensor:
#      x y z
#    x 4.259950 0.000000 0.000000 
#    y 0.000000 4.259950 0.000000 
#    z 0.000000 0.000000 4.086440 
# 
# 
# High freq. dielectric constant tensor:
#      x y z
#    x 1.732520 0.000000 0.000000 
#    y 0.000000 1.732520 0.000000 
#    z 0.000000 0.000000 1.744460 
# 
# From -- ./inp_files/7480.got.cif
#   From: 2010.03.12/outbox.cif.g09.slc.cpg/sg98_4_cif.got.tgz:7480.got - 2010.04.08 21:04:41.
