data_PCOD8306728
_publ_section_title
;
Structure prediction by ZEFSAII (Michael W. Deem and Ramdas Pophale) SiO2 
 PCOD8306728
Probable space group: P 42 C M
;
_chemical_formula_sum "Si O2"
_cell_formula_units_Z 56
_cell_length_a 12.225907
_cell_length_b 12.225907
_cell_length_c 19.891638
_cell_angle_alpha 90.000000
_cell_angle_beta 90.000000
_cell_angle_gamma 90.000000
_cell_volume 2973.258868
_symmetry_space_group_name_H-M "P 42 C M"
_symmetry_group_IT_number 101
_symmetry_cell_setting 'tetragonal'
loop_
_space_group_symop_operation_xyz
x,y,z
-y,x,1/2+z
-x,-y,z
y,-x,1/2+z
-x,y,1/2+z
x,-y,1/2+z
-y,-x,z
y,x,z
loop_
_atom_site_type_symbol
_atom_site_label
_atom_site_fract_x
_atom_site_fract_y
_atom_site_fract_z
Si Si1 0.810000 0.366597 0.356040
Si Si2 0.998810 0.629835 0.107310
Si Si3 0.500001 0.670224 0.531385
Si Si4 0.400137 0.224310 0.158923
Si Si5 0.629835 0.998809 0.455457
Si Si6 0.633402 0.190002 0.206727
Si Si7 0.224312 0.599862 0.903844
O O1 0.698084 0.301917 0.371295
O O2 0.897344 0.329487 0.412405
O O3 0.854461 0.337319 0.281383
O O4 0.786339 0.496909 0.354374
O O5 0.889424 0.665334 0.148041
O O6 0.000000 0.500000 0.103833
O O7 0.102659 0.670512 0.150362
O O8 0.000001 0.679422 0.031384
O O9 0.406186 0.593814 0.498483
O O10 0.593816 0.593816 0.564288
O O11 0.448693 0.747770 0.586343
O O12 0.551308 0.747767 0.476423
O O13 0.316838 0.316838 0.186039
O O14 0.503091 0.213661 0.208393
O O15 0.500000 0.000000 0.458934
O O16 0.665334 0.889422 0.414726
O O17 0.698082 0.301919 0.191472
O O18 0.316839 0.683162 0.876727
#
# Coordination Sequence:
#
# PCOD8306728 Si02
#       7
#     8   8   8   8   8   8   8
#     4  10  21  36  53  73 102 141 176 206 249 310
#     4   9  18  32  51  75 102 135 175 217 258 302
#     4   9  16  26  43  70 106 142 169 201 254 314
#     4  10  19  30  48  76 105 132 169 219 267 305
#     4   9  18  32  51  75 102 135 175 217 258 302
#     4  10  21  36  53  73 102 141 176 206 249 310
#     4  10  19  30  48  76 105 132 169 219 267 305
#
# _framework density 18.834553
#
# number of rings (size 3 to 8) (size 9 to 14) (size 15 to 20)
#    0.000    2.429    0.000    4.286    0.000   10.857 
#    0.000    1.429    0.000    0.857    0.000    4.000 
#    0.000    0.000    0.000    0.000    0.000    0.000 
#
# Total GULP energy -694085.950036 kJ/mol
# GULP energy per Si atom -12394.391965 kJ/mol
# Density = 1.879168 g / cm^3
# Si number density = 18.834553 Si / 1000 Ang^3
#
#
#
# Elastic Constant Matrix: (Units=GPa)
#
#
# Indices 1 2 3 4 5 6 
#
# 1 79.8609 33.4448 33.8675 0.0000 0.0000 0.0003
# 2 33.4448 79.8609 33.8675 0.0000 0.0000 -0.0003
# 3 33.8675 33.8675 101.9235 0.0000 0.0000 0.0000
# 4 0.0000 0.0000 0.0000 22.4724 0.0000 0.0000
# 5 0.0000 0.0000 0.0000 0.0000 22.4724 0.0000
# 6 0.0003 -0.0003 0.0000 0.0000 0.0000 8.1902
#
#
#
# Elastic Compliance Matrix: (Units=1/GPa)
#
#
# Indices 1 2 3 4 5 6 
#
# 1 0.016279 -0.005265 -0.003660 0.000000 0.000000 -0.000001
# 2 -0.005265 0.016279 -0.003660 0.000000 0.000000 0.000001
# 3 -0.003660 -0.003660 0.012243 0.000000 0.000000 0.000000
# 4 0.000000 0.000000 0.000000 0.044499 0.000000 0.000000
# 5 0.000000 0.000000 0.000000 0.000000 0.044499 0.000000
# 6 -0.000001 0.000001 0.000000 0.000000 0.000000 0.122098
#
#
# Mechanical properties :
#
#
# Convention : Reuss Voigt Hill
#
# Bulk Modulus (GPa) = 50.93771 51.55611 51.24691
# Shear Modulus (GPa) = 17.38467 21.32470 19.35469
#
# Velocity S-wave (km/s) = 3.04142 3.36849 3.20912
# Velocity P-wave (km/s) = 6.27990 6.52392 6.40307
#
# Compressibility (1/GPa) = 0.01963182
#
# Stress axis : x y z
#
# Youngs Moduli (GPa) = 61.42950 61.42950 81.67723
#
# Poissons Ratio (x) = 0.32345 0.29890
# Poissons Ratio (y) = 0.32345 0.29890
# Poissons Ratio (z) = 0.22481 0.22481
#
# Static dielectric constant tensor:
#      x y z
#    x 3.505970 0.000000 0.000000 
#    y 0.000000 3.505970 0.000000 
#    z 0.000000 0.000000 3.403940 
# 
# 
# High freq. dielectric constant tensor:
#      x y z
#    x 1.708620 0.000000 0.000000 
#    y 0.000000 1.708620 0.000000 
#    z 0.000000 0.000000 1.729290 
# 
# From -- ./inp_files/2523.got.cif
#   From: 2010.03.12/outbox.cif.g09.slc.cpg/sg101_2_cif.got.tgz:2523.got - 2010.04.14 01:38:52.
