data_PCOD8306601
_publ_section_title
;
Structure prediction by ZEFSAII (Michael W. Deem and Ramdas Pophale) SiO2 
 PCOD8306601
Probable space group: P 4 M M
;
_chemical_formula_sum "Si O2"
_cell_formula_units_Z 64
_cell_length_a 13.457750
_cell_length_b 13.457750
_cell_length_c 20.913487
_cell_angle_alpha 90.000000
_cell_angle_beta 90.000000
_cell_angle_gamma 90.000000
_cell_volume 3787.663277
_symmetry_space_group_name_H-M "P 4 M M"
_symmetry_group_IT_number 99
_symmetry_cell_setting 'tetragonal'
loop_
_space_group_symop_operation_xyz
x,y,z
-y,x,z
-x,-y,z
y,-x,z
-x,y,z
x,-y,z
-y,-x,z
y,x,z
loop_
_atom_site_type_symbol
_atom_site_label
_atom_site_fract_x
_atom_site_fract_y
_atom_site_fract_z
Si Si1 0.383454 0.780826 0.021680
Si Si2 0.722970 0.882558 0.134950
Si Si3 0.882413 0.609314 0.260812
Si Si4 0.272190 0.887648 0.521679
Si Si5 0.884244 0.722681 0.659597
Si Si6 0.277320 0.884243 0.383762
Si Si7 0.882557 0.277031 0.908409
Si Si8 0.390686 0.882413 0.782546
O O1 0.500000 0.755489 0.021680
O O2 0.322541 0.677460 0.021681
O O3 0.357339 0.847041 0.083274
O O4 0.357338 0.847039 0.960085
O O5 0.828360 0.828360 0.123339
O O6 0.682087 0.849626 0.204056
O O7 0.740533 0.000000 0.129037
O O8 0.835644 0.500000 0.250175
O O9 0.843529 0.649505 0.329030
O O10 0.000000 0.600673 0.261608
O O11 0.170510 0.829491 0.521678
O O12 0.329448 0.865817 0.589139
O O13 0.329449 0.865818 0.454220
O O14 0.237165 0.000000 0.521679
O O15 0.826704 0.826704 0.664155
O O16 0.843528 0.649507 0.714329
O O17 0.000000 0.746363 0.670923
O O18 0.173299 0.826702 0.379204
O O19 0.253637 0.000000 0.372436
O O20 0.828360 0.171641 0.920018
O O21 0.849626 0.317914 0.839303
O O22 0.000000 0.259469 0.914323
O O23 0.500000 0.835644 0.793183
O O24 0.399327 0.000000 0.781749
#
# Coordination Sequence:
#
# PCOD8306601 Si02
#       8
#     8   8   8   8   8   8   8   8
#     4  10  21  36  54  76 100 128 165 206 244 280
#     4  10  20  33  50  73  99 127 159 193 232 282
#     4   9  17  29  44  61  83 114 151 188 224 264
#     4   8  14  23  35  53  79 111 144 178 217 263
#     4   9  16  26  40  59  84 113 145 181 222 270
#     4   9  16  26  40  59  84 113 145 181 222 270
#     4  10  20  33  50  73  99 127 159 193 232 282
#     4   9  17  29  44  61  83 114 151 188 224 264
#
# _framework density 16.89696
#
# number of rings (size 3 to 8) (size 9 to 14) (size 15 to 20)
#    0.000    2.750    0.000    1.875    0.000    2.750 
#    0.000    3.125    0.000   10.500    0.000    0.000 
#    0.000    4.500    0.000    0.000    0.000   28.000 
#
# Total GULP energy -792955.838058 kJ/mol
# GULP energy per Si atom -12389.934970 kJ/mol
# Density = 1.685850 g / cm^3
# Si number density = 16.896960 Si / 1000 Ang^3
#
#
#
# Elastic Constant Matrix: (Units=GPa)
#
#
# Indices 1 2 3 4 5 6 
#
# 1 75.7486 33.1927 38.2050 0.0000 0.0000 0.0004
# 2 33.1927 75.7486 38.2050 0.0000 0.0000 -0.0004
# 3 38.2050 38.2050 144.0497 0.0000 0.0000 0.0000
# 4 0.0000 0.0000 0.0000 15.8388 0.0000 0.0000
# 5 0.0000 0.0000 0.0000 0.0000 15.8388 0.0000
# 6 0.0004 -0.0004 0.0000 0.0000 0.0000 9.7783
#
#
#
# Elastic Compliance Matrix: (Units=1/GPa)
#
#
# Indices 1 2 3 4 5 6 
#
# 1 0.017388 -0.006111 -0.002991 0.000000 0.000000 -0.000001
# 2 -0.006111 0.017388 -0.002991 0.000000 0.000000 0.000001
# 3 -0.002991 -0.002991 0.008529 0.000000 0.000000 0.000000
# 4 0.000000 0.000000 0.000000 0.063136 0.000000 0.000000
# 5 0.000000 0.000000 0.000000 0.000000 0.063136 0.000000
# 6 -0.000001 0.000001 0.000000 0.000000 0.000000 0.102267
#
#
# Mechanical properties :
#
#
# Convention : Reuss Voigt Hill
#
# Bulk Modulus (GPa) = 52.30404 57.19474 54.74939
# Shear Modulus (GPa) = 16.53433 20.68748 18.61090
#
# Velocity S-wave (km/s) = 3.13155 3.50284 3.32239
# Velocity P-wave (km/s) = 6.64059 7.09101 6.86949
#
# Compressibility (1/GPa) = 0.01911898
#
# Stress axis : x y z
#
# Youngs Moduli (GPa) = 57.51169 57.51169 117.25317
#
# Poissons Ratio (x) = 0.35144 0.35069
# Poissons Ratio (y) = 0.35144 0.35069
# Poissons Ratio (z) = 0.17201 0.17201
#
# Static dielectric constant tensor:
#      x y z
#    x 2.933110 0.000000 0.000000 
#    y 0.000000 2.933110 0.000000 
#    z 0.000000 0.000000 3.769280 
# 
# 
# High freq. dielectric constant tensor:
#      x y z
#    x 1.620960 0.000000 0.000000 
#    y 0.000000 1.620960 0.000000 
#    z 0.000000 0.000000 1.683560 
# 
# From -- ./inp_files/2282.got.cif
#   From: 2010.03.12/outbox.cif.g09.slc.cpg/sg99_cif.got.tgz:2282.got - 2010.04.08 21:11:30.
