data_PCOD8306474
_publ_section_title
;
Structure prediction by ZEFSAII (Michael W. Deem and Ramdas Pophale) SiO2 
 PCOD8306474
Probable space group: P 4 M M
;
_chemical_formula_sum "Si O2"
_cell_formula_units_Z 64
_cell_length_a 14.317777
_cell_length_b 14.317777
_cell_length_c 20.287387
_cell_angle_alpha 90.000000
_cell_angle_beta 90.000000
_cell_angle_gamma 90.000000
_cell_volume 4158.888737
_symmetry_space_group_name_H-M "P 4 M M"
_symmetry_group_IT_number 99
_symmetry_cell_setting 'tetragonal'
loop_
_space_group_symop_operation_xyz
x,y,z
-y,x,z
-x,-y,z
y,-x,z
-x,y,z
x,-y,z
-y,-x,z
y,x,z
loop_
_atom_site_type_symbol
_atom_site_label
_atom_site_fract_x
_atom_site_fract_y
_atom_site_fract_z
Si Si1 0.260159 0.107733 0.004830
Si Si2 0.107776 0.393659 0.648224
Si Si3 0.604585 0.110117 0.890591
Si Si4 0.606777 0.242442 0.531892
Si Si5 0.392499 0.892432 0.268744
Si Si6 0.257210 0.893040 0.154410
Si Si7 0.265031 0.889400 0.771031
Si Si8 0.757794 0.392542 0.383485
O O1 0.168869 0.168869 0.988322
O O2 0.293552 0.122661 0.079958
O O3 0.232586 0.000000 0.991082
O O4 0.346683 0.139204 0.959281
O O5 0.131343 0.500000 0.670401
O O6 0.161376 0.364433 0.582111
O O7 0.135809 0.322739 0.705693
O O8 0.000000 0.384264 0.630484
O O9 0.500000 0.154629 0.887044
O O10 0.670030 0.145007 0.831184
O O11 0.594224 0.000000 0.885219
O O12 0.500000 0.272471 0.541304
O O13 0.665936 0.334065 0.547575
O O14 0.624927 0.204995 0.457732
O O15 0.500000 0.872833 0.253075
O O16 0.337368 0.858677 0.204035
O O17 0.358086 0.837087 0.333128
O O18 0.373397 0.000000 0.284511
O O19 0.163421 0.836580 0.168397
O O20 0.230965 0.000000 0.166920
O O21 0.168106 0.831895 0.771760
O O22 0.241569 0.000000 0.775453
O O23 0.732631 0.500000 0.371735
O O24 0.663380 0.336621 0.369723
#
# Coordination Sequence:
#
# PCOD8306474 Si02
#       8
#     8   8   8   8   8   8   8   8
#     4   9  17  28  42  62  87 113 140 169 202 243
#     4   9  17  29  45  64  85 110 140 173 208 243
#     4   9  17  29  44  61  82 108 137 169 203 237
#     4   9  17  28  42  61  84 109 137 169 206 249
#     4   9  17  28  42  60  81 106 137 172 211 252
#     4   9  17  28  42  60  83 111 140 170 204 242
#     4  10  19  30  45  64  87 114 141 170 204 243
#     4   9  17  28  42  60  82 108 136 168 207 250
#
# _framework density 15.388726
#
# number of rings (size 3 to 8) (size 9 to 14) (size 15 to 20)
#    0.000    2.875    0.000    1.500    0.000    3.125 
#    0.000    7.500    0.000    2.250    0.000    0.000 
#    0.000   11.000    0.000   32.500    0.000    1.375 
#
# Total GULP energy -793446.856563 kJ/mol
# GULP energy per Si atom -12397.607134 kJ/mol
# Density = 1.535370 g / cm^3
# Si number density = 15.388726 Si / 1000 Ang^3
#
#
#
# Elastic Constant Matrix: (Units=GPa)
#
#
# Indices 1 2 3 4 5 6 
#
# 1 73.3615 48.1559 60.6788 0.0000 0.0000 0.0004
# 2 48.1559 73.3615 60.6788 0.0000 0.0000 -0.0004
# 3 60.6788 60.6788 119.6000 0.0000 0.0000 0.0000
# 4 0.0000 0.0000 0.0000 24.7581 0.0000 0.0000
# 5 0.0000 0.0000 0.0000 0.0000 24.7581 0.0000
# 6 0.0004 -0.0004 0.0000 0.0000 0.0000 22.0300
#
#
#
# Elastic Compliance Matrix: (Units=1/GPa)
#
#
# Indices 1 2 3 4 5 6 
#
# 1 0.028178 -0.011496 -0.008463 0.000000 0.000000 -0.000001
# 2 -0.011496 0.028178 -0.008463 0.000000 0.000000 0.000001
# 3 -0.008463 -0.008463 0.016949 0.000000 0.000000 0.000000
# 4 0.000000 0.000000 0.000000 0.040391 0.000000 0.000000
# 5 0.000000 0.000000 0.000000 0.000000 0.040391 0.000000
# 6 -0.000001 0.000001 0.000000 0.000000 0.000000 0.045393
#
#
# Mechanical properties :
#
#
# Convention : Reuss Voigt Hill
#
# Bulk Modulus (GPa) = 60.75860 67.26113 64.00987
# Shear Modulus (GPa) = 19.09781 20.76320 19.93051
#
# Velocity S-wave (km/s) = 3.52664 3.67720 3.60271
# Velocity P-wave (km/s) = 7.49341 7.86333 7.68060
#
# Compressibility (1/GPa) = 0.01645858
#
# Stress axis : x y z
#
# Youngs Moduli (GPa) = 35.48921 35.48921 59.00091
#
# Poissons Ratio (x) = 0.40799 0.49934
# Poissons Ratio (y) = 0.40799 0.49934
# Poissons Ratio (z) = 0.30036 0.30036
#
# Static dielectric constant tensor:
#      x y z
#    x 2.880590 0.000000 0.000000 
#    y 0.000000 2.880590 0.000000 
#    z 0.000000 0.000000 3.155680 
# 
# 
# High freq. dielectric constant tensor:
#      x y z
#    x 1.576100 0.000000 0.000000 
#    y 0.000000 1.576100 0.000000 
#    z 0.000000 0.000000 1.603060 
# 
# From -- ./inp_files/2040.got.cif
#   From: 2010.03.12/outbox.cif.g09.slc.cpg/sg99_cif.got.tgz:2040.got - 2010.04.08 21:11:30.
