data_PCOD8306738
_publ_section_title
;
Structure prediction by ZEFSAII (Michael W. Deem and Ramdas Pophale) SiO2 
 PCOD8306738
Probable space group: P 42 C M
;
_chemical_formula_sum "Si O2"
_cell_formula_units_Z 64
_cell_length_a 14.282058
_cell_length_b 14.282058
_cell_length_c 17.607564
_cell_angle_alpha 90.000000
_cell_angle_beta 90.000000
_cell_angle_gamma 90.000000
_cell_volume 3591.541264
_symmetry_space_group_name_H-M "P 42 C M"
_symmetry_group_IT_number 101
_symmetry_cell_setting 'tetragonal'
loop_
_space_group_symop_operation_xyz
x,y,z
-y,x,1/2+z
-x,-y,z
y,-x,1/2+z
-x,y,1/2+z
x,-y,1/2+z
-y,-x,z
y,x,z
loop_
_atom_site_type_symbol
_atom_site_label
_atom_site_fract_x
_atom_site_fract_y
_atom_site_fract_z
Si Si1 0.379632 0.771998 0.236160
Si Si2 0.965312 0.604065 0.653202
Si Si3 0.861243 0.718201 0.975929
Si Si4 0.771998 0.620369 0.389518
Si Si5 0.861244 0.718202 0.149748
Si Si6 0.270499 0.416101 0.904251
Si Si7 0.270498 0.416100 0.221426
Si Si8 0.965312 0.604065 0.472476
O O1 0.291359 0.708642 0.212753
O O2 0.368658 0.871714 0.196784
O O3 0.388582 0.784278 0.326656
O O4 0.473880 0.721629 0.206395
O O5 0.949894 0.609494 0.562839
O O6 0.000000 0.500000 0.676156
O O7 0.039667 0.682683 0.682989
O O8 0.811417 0.811417 0.937527
O O9 0.877730 0.742152 0.062839
O O10 0.960333 0.682683 0.942689
O O11 0.788835 0.631564 0.971094
O O12 0.708643 0.708643 0.412925
O O13 0.721629 0.526121 0.419282
O O14 0.784278 0.611419 0.299021
O O15 0.871715 0.631343 0.428894
O O16 0.811418 0.811418 0.188150
O O17 0.788836 0.631565 0.154584
O O18 0.376078 0.376078 0.900992
O O19 0.376077 0.376077 0.224686
O O20 0.000000 0.500000 0.449521
#
# Coordination Sequence:
#
# PCOD8306738 Si02
#       8
#     8   8   8   8   8   8   8   8
#     4  10  20  32  47  71 102 133 165 204 252 298
#     4  10  19  32  50  74  99 127 166 210 254 298
#     4   9  17  31  51  71  95 128 164 204 248 295
#     4  10  20  32  47  71 102 133 165 204 252 298
#     4   9  17  31  51  71  95 128 164 204 248 295
#     4   9  18  32  48  71 101 131 167 201 240 302
#     4   9  18  32  48  71 101 131 167 201 240 302
#     4  10  19  32  50  74  99 127 166 210 254 298
#
# _framework density 17.819647
#
# number of rings (size 3 to 8) (size 9 to 14) (size 15 to 20)
#    0.000    2.500    2.500    0.000    0.000    2.000 
#    0.000    2.500    0.000    0.750    0.000    8.750 
#    0.000    6.000    0.000    0.250    0.000    0.000 
#
# Total GULP energy -792903.353329 kJ/mol
# GULP energy per Si atom -12389.114896 kJ/mol
# Density = 1.777909 g / cm^3
# Si number density = 17.819647 Si / 1000 Ang^3
#
#
#
# Elastic Constant Matrix: (Units=GPa)
#
#
# Indices 1 2 3 4 5 6 
#
# 1 137.9323 81.9273 25.5433 0.0000 0.0000 -0.0002
# 2 81.9273 137.9323 25.5433 0.0000 0.0000 0.0002
# 3 25.5433 25.5433 15.7403 0.0000 0.0000 0.0000
# 4 0.0000 0.0000 0.0000 20.3423 0.0000 0.0000
# 5 0.0000 0.0000 0.0000 0.0000 20.3423 0.0000
# 6 -0.0002 0.0002 0.0000 0.0000 0.0000 32.3807
#
#
#
# Elastic Compliance Matrix: (Units=1/GPa)
#
#
# Indices 1 2 3 4 5 6 
#
# 1 0.012579 -0.005277 -0.011849 0.000000 0.000000 0.000000
# 2 -0.005277 0.012579 -0.011849 0.000000 0.000000 0.000000
# 3 -0.011849 -0.011849 0.101988 0.000000 0.000000 0.000000
# 4 0.000000 0.000000 0.000000 0.049159 0.000000 0.000000
# 5 0.000000 0.000000 0.000000 0.000000 0.049159 0.000000
# 6 0.000000 0.000000 0.000000 0.000000 0.000000 0.030883
#
#
# Mechanical properties :
#
#
# Convention : Reuss Voigt Hill
#
# Bulk Modulus (GPa) = 14.45179 61.95917 38.20548
# Shear Modulus (GPa) = 14.82093 25.18578 20.00335
#
# Velocity S-wave (km/s) = 2.88708 3.76356 3.35407
# Velocity P-wave (km/s) = 4.38649 7.33018 6.04040
#
# Compressibility (1/GPa) = 0.06919559
#
# Stress axis : x y z
#
# Youngs Moduli (GPa) = 79.50030 79.50030 9.80504
#
# Poissons Ratio (x) = 0.41952 0.11618
# Poissons Ratio (y) = 0.41952 0.11618
# Poissons Ratio (z) = 0.94200 0.94200
#
# Static dielectric constant tensor:
#      x y z
#    x 3.404230 0.000000 0.000000 
#    y 0.000000 3.404230 0.000000 
#    z 0.000000 0.000000 3.172550 
# 
# 
# High freq. dielectric constant tensor:
#      x y z
#    x 1.679740 0.000000 0.000000 
#    y 0.000000 1.679740 0.000000 
#    z 0.000000 0.000000 1.671160 
# 
# From -- ./inp_files/2296.got.cif
#   From: 2010.03.12/outbox.cif.g09.slc.cpg/sg101_2_cif.got.tgz:2296.got - 2010.04.14 01:38:52.
