data_PCOD8306132
_publ_section_title
;
Structure prediction by ZEFSAII (Michael W. Deem and Ramdas Pophale) SiO2 
 PCOD8306132
Probable space group: I 4 2 2 
;
_chemical_formula_sum "Si O2"
_cell_formula_units_Z 88
_cell_length_a 11.370801
_cell_length_b 11.370801
_cell_length_c 30.478865
_cell_angle_alpha 90.000000
_cell_angle_beta 90.000000
_cell_angle_gamma 90.000000
_cell_volume 3940.768367
_symmetry_space_group_name_H-M "I 4 2 2 "
_symmetry_group_IT_number 97
_symmetry_cell_setting 'tetragonal'
loop_
_space_group_symop_operation_xyz
x,y,z
-y,x,z
-x,-y,z
y,-x,z
x,-y,-z
-x,y,-z
y,x,-z
-y,-x,-z
1/2+x,1/2+y,1/2+z
1/2-y,1/2+x,1/2+z
1/2-x,1/2-y,1/2+z
1/2+y,1/2-x,1/2+z
1/2+x,1/2-y,1/2-z
1/2-x,1/2+y,1/2-z
1/2+y,1/2+x,1/2-z
1/2-y,1/2-x,1/2-z
loop_
_atom_site_type_symbol
_atom_site_label
_atom_site_fract_x
_atom_site_fract_y
_atom_site_fract_z
Si Si1 0.491513 0.132870 0.893876
Si Si2 0.750871 0.144775 0.913602
Si Si3 0.951098 0.191794 0.682478
Si Si4 0.869575 0.141704 0.177119
Si Si5 0.795833 0.579959 0.456995
Si Si6 0.295040 0.204961 0.750000
O O1 0.616457 0.184486 0.908683
O O2 0.433290 0.224807 0.860049
O O3 0.420547 0.126662 0.939635
O O4 0.500000 0.000000 0.873315
O O5 0.819458 0.179457 0.869837
O O6 0.808089 0.207880 0.956882
O O7 0.760283 0.005427 0.920272
O O8 0.920632 0.274652 0.724828
O O9 0.083550 0.141882 0.683401
O O10 0.805707 0.220361 0.213512
O O11 0.006636 0.164504 0.183318
O O12 0.810572 0.500000 0.500000
#
# Coordination Sequence:
#
# PCOD8306132 Si02
#       6
#    16  16  16  16  16   8
#     4  10  23  41  69  98 138 184 236 287 355 424
#     4  11  22  41  68  97 137 182 225 282 348 423
#     4  11  24  46  69  99 141 187 245 302 361 431
#     4  11  23  41  66  94 134 177 224 284 354 415
#     4  11  23  41  66 103 142 182 227 284 350 421
#     4  12  24  38  65  97 134 180 228 288 358 431
#
# _framework density 22.330670000000001
#
# number of rings (size 3 to 8) (size 9 to 14) (size 15 to 20)
#    0.000    1.091    1.818    4.909    2.545    5.091 
#    3.273    0.909    0.000    0.000    0.000    0.000 
#    0.000   32.727    0.000    0.000    0.000    0.000 
#
# Total GULP energy -545220.820138 kJ/mol
# GULP energy per Si atom -12391.382276 kJ/mol
# Density = 2.227984 g / cm^3
# Si number density = 22.330670 Si / 1000 Ang^3
#
#
#
# Elastic Constant Matrix: (Units=GPa)
#
#
# Indices 1 2 3 4 5 6 
#
# 1 106.4648 70.2219 55.3862 0.0000 0.0000 0.0000
# 2 70.2219 106.4647 55.3862 0.0000 0.0000 0.0000
# 3 55.3862 55.3862 138.8253 0.0000 0.0000 0.0000
# 4 0.0000 0.0000 0.0000 33.1866 0.0000 0.0000
# 5 0.0000 0.0000 0.0000 0.0000 33.1868 0.0000
# 6 0.0000 0.0000 0.0000 0.0000 0.0000 36.7248
#
#
#
# Elastic Compliance Matrix: (Units=1/GPa)
#
#
# Indices 1 2 3 4 5 6 
#
# 1 0.017570 -0.010022 -0.003011 0.000000 0.000000 0.000000
# 2 -0.010022 0.017570 -0.003011 0.000000 0.000000 0.000000
# 3 -0.003011 -0.003011 0.009606 0.000000 0.000000 0.000000
# 4 0.000000 0.000000 0.000000 0.030133 0.000000 0.000000
# 5 0.000000 0.000000 0.000000 0.000000 0.030132 0.000000
# 6 0.000000 0.000000 0.000000 0.000000 0.000000 0.027230
#
#
# Mechanical properties :
#
#
# Convention : Reuss Voigt Hill
#
# Bulk Modulus (GPa) = 79.01165 79.30482 79.15824
# Shear Modulus (GPa) = 29.66520 32.00367 30.83444
#
# Velocity S-wave (km/s) = 3.64875 3.78983 3.71996
# Velocity P-wave (km/s) = 7.29455 7.39874 7.34683
#
# Compressibility (1/GPa) = 0.01265636
#
# Stress axis : x y z
#
# Youngs Moduli (GPa) = 56.91650 56.91639 104.10133
#
# Poissons Ratio (x) = 0.57042 0.31347
# Poissons Ratio (y) = 0.57042 0.31347
# Poissons Ratio (z) = 0.17139 0.17139
#
# Static dielectric constant tensor:
#      x y z
#    x 4.087700 0.000000 0.000000 
#    y 0.000000 4.087710 0.000000 
#    z 0.000000 0.000000 4.033470 
# 
# 
# High freq. dielectric constant tensor:
#      x y z
#    x 1.880240 0.000000 0.000000 
#    y 0.000000 1.880240 0.000000 
#    z 0.000000 0.000000 1.878710 
# 
# From -- ./inp_files/8087.got.cif
#   From: 2010.03.12/outbox.cif.g09.slc.cpg/sg97_5_cif.got.tgz:8087.got - 2010.04.08 20:59:42.
