data_PCOD8306252
_publ_section_title
;
Structure prediction by ZEFSAII (Michael W. Deem and Ramdas Pophale) SiO2 
 PCOD8306252
Probable space group: I 41 2 2
;
_chemical_formula_sum "Si O2"
_cell_formula_units_Z 56
_cell_length_a 10.566507
_cell_length_b 10.566507
_cell_length_c 24.514290
_cell_angle_alpha 90.000000
_cell_angle_beta 90.000000
_cell_angle_gamma 90.000000
_cell_volume 2737.046713
_symmetry_space_group_name_H-M "I 41 2 2"
_symmetry_group_IT_number 98
_symmetry_cell_setting 'tetragonal'
loop_
_space_group_symop_operation_xyz
x,y,z
-y,1/2+x,1/4+z
-x,-y,z
y,1/2-x,1/4+z
x,1/2-y,1/4-z
-x,1/2+y,1/4-z
y,x,-z
-y,-x,-z
1/2+x,1/2+y,1/2+z
1/2-y,x,3/4+z
1/2-x,1/2-y,1/2+z
1/2+y,-x,3/4+z
1/2+x,-y,3/4-z
1/2-x,y,3/4-z
1/2+y,1/2+x,1/2-z
1/2-y,1/2-x,1/2-z
loop_
_atom_site_type_symbol
_atom_site_label
_atom_site_fract_x
_atom_site_fract_y
_atom_site_fract_z
Si Si1 0.224278 0.224278 0.500000
Si Si2 0.000000 0.000000 0.906337
Si Si3 0.893650 0.747021 0.392447
Si Si4 0.361501 0.638499 0.500000
Si Si5 0.492300 0.355417 0.792347
O O1 0.109770 0.211877 0.456147
O O2 0.365796 0.217084 0.476209
O O3 0.938017 0.897382 0.866109
O O4 0.106358 0.942072 0.946028
O O5 0.750000 0.763306 0.375000
O O6 0.988002 0.839622 0.358417
O O7 0.387081 0.785528 0.485024
O O8 0.500000 0.500000 0.774759
#
# Coordination Sequence:
#
# PCOD8306252 Si02
#       5
#     8   8  16   8  16
#     4  10  20  35  59  84 114 156 198 239 303 356
#     4   9  16  30  58  90 118 140 184 255 318 344
#     4   9  18  33  55  85 116 152 188 240 298 362
#     4   9  16  32  56  91 118 144 184 247 306 361
#     4  10  20  35  62  86 120 154 193 244 305 359
#
# _framework density 20.460007999999998
#
# number of rings (size 3 to 8) (size 9 to 14) (size 15 to 20)
#    0.000    2.571    0.000    5.143    2.000    0.000 
#    0.000    0.714   18.857    0.000    0.000    0.000 
#    0.000    0.000    0.000    0.000    0.000    0.000 
#
# Total GULP energy -346906.374734 kJ/mol
# GULP energy per Si atom -12389.513383 kJ/mol
# Density = 2.041344 g / cm^3
# Si number density = 20.460008 Si / 1000 Ang^3
#
#
#
# Elastic Constant Matrix: (Units=GPa)
#
#
# Indices 1 2 3 4 5 6 
#
# 1 95.2375 48.7690 40.5783 0.0000 0.0000 0.0000
# 2 48.7690 95.2375 40.5783 0.0000 0.0000 0.0000
# 3 40.5783 40.5783 133.0865 0.0000 0.0000 0.0000
# 4 0.0000 0.0000 0.0000 23.3016 0.0000 0.0000
# 5 0.0000 0.0000 0.0000 0.0000 23.3016 0.0000
# 6 0.0000 0.0000 0.0000 0.0000 0.0000 24.5612
#
#
#
# Elastic Compliance Matrix: (Units=1/GPa)
#
#
# Indices 1 2 3 4 5 6 
#
# 1 0.014952 -0.006568 -0.002557 0.000000 0.000000 0.000000
# 2 -0.006568 0.014952 -0.002557 0.000000 0.000000 0.000000
# 3 -0.002557 -0.002557 0.009073 0.000000 0.000000 0.000000
# 4 0.000000 0.000000 0.000000 0.042915 0.000000 0.000000
# 5 0.000000 0.000000 0.000000 0.000000 0.042915 0.000000
# 6 0.000000 0.000000 0.000000 0.000000 0.000000 0.040715
#
#
# Mechanical properties :
#
#
# Convention : Reuss Voigt Hill
#
# Bulk Modulus (GPa) = 64.03503 64.82365 64.42934
# Shear Modulus (GPa) = 25.76124 27.14196 26.45160
#
# Velocity S-wave (km/s) = 3.55223 3.64618 3.59951
# Velocity P-wave (km/s) = 6.94191 7.03407 6.98814
#
# Compressibility (1/GPa) = 0.01561645
#
# Stress axis : x y z
#
# Youngs Moduli (GPa) = 66.87874 66.87874 110.21809
#
# Poissons Ratio (x) = 0.43923 0.28178
# Poissons Ratio (y) = 0.43923 0.28178
# Poissons Ratio (z) = 0.17098 0.17098
#
# Static dielectric constant tensor:
#      x y z
#    x 3.431500 0.000000 0.000000 
#    y 0.000000 3.431500 0.000000 
#    z 0.000000 0.000000 4.609540 
# 
# 
# High freq. dielectric constant tensor:
#      x y z
#    x 1.769210 0.000000 0.000000 
#    y 0.000000 1.769210 0.000000 
#    z 0.000000 0.000000 1.812370 
# 
# From -- ./inp_files/9749.got.cif
#   From: 2010.03.12/outbox.cif.g09.slc.cpg/sg98_5_cif.got.tgz:9749.got - 2010.04.08 21:04:41.
