data_PCOD8306441
_publ_section_title
;
Structure prediction by ZEFSAII (Michael W. Deem and Ramdas Pophale) SiO2 
 PCOD8306441
Probable space group: P 4 M M
;
_chemical_formula_sum "Si O2"
_cell_formula_units_Z 64
_cell_length_a 14.109552
_cell_length_b 14.109552
_cell_length_c 20.277849
_cell_angle_alpha 90.000000
_cell_angle_beta 90.000000
_cell_angle_gamma 90.000000
_cell_volume 4036.903181
_symmetry_space_group_name_H-M "P 4 M M"
_symmetry_group_IT_number 99
_symmetry_cell_setting 'tetragonal'
loop_
_space_group_symop_operation_xyz
x,y,z
-y,x,z
-x,-y,z
y,-x,z
-x,y,z
x,-y,z
-y,-x,z
y,x,z
loop_
_atom_site_type_symbol
_atom_site_label
_atom_site_fract_x
_atom_site_fract_y
_atom_site_fract_z
Si Si1 0.112512 0.395523 0.429280
Si Si2 0.890499 0.735479 0.690003
Si Si3 0.765790 0.387553 0.164369
Si Si4 0.894673 0.388038 0.043031
Si Si5 0.238595 0.391709 0.927657
Si Si6 0.741514 0.891942 0.540265
Si Si7 0.894689 0.612701 0.284503
Si Si8 0.236361 0.390569 0.776369
O O1 0.157392 0.500000 0.437574
O O2 0.154127 0.331732 0.488310
O O3 0.138726 0.352464 0.357235
O O4 0.000000 0.402647 0.435346
O O5 0.832164 0.832164 0.703492
O O6 0.880120 0.701680 0.614299
O O7 0.850347 0.649924 0.733854
O O8 0.000000 0.754768 0.708271
O O9 0.746686 0.500000 0.163246
O O10 0.664829 0.335172 0.160875
O O11 0.830265 0.353225 0.103477
O O12 0.819808 0.353450 0.230241
O O13 0.904342 0.500000 0.046753
O O14 0.000000 0.342529 0.047381
O O15 0.847171 0.356668 0.974022
O O16 0.265587 0.500000 0.943599
O O17 0.332173 0.332173 0.943551
O O18 0.205767 0.379152 0.852395
O O19 0.841920 0.841920 0.533041
O O20 0.761007 0.000000 0.522234
O O21 0.900711 0.500000 0.285603
O O22 0.000000 0.652614 0.267629
O O23 0.254540 0.500000 0.757926
O O24 0.333120 0.333120 0.761503
#
# Coordination Sequence:
#
# PCOD8306441 Si02
#       8
#     8   8   8   8   8   8   8   8
#     4   8  14  25  41  61  84 108 136 172 211 249
#     4   9  18  31  45  63  87 114 147 186 226 270
#     4  10  19  29  42  61  85 112 141 172 207 251
#     4   9  17  29  44  61  82 108 138 173 209 241
#     4   9  17  29  45  66  92 119 144 170 203 247
#     4   9  17  28  42  61  85 112 140 171 210 257
#     4   8  14  26  43  61  82 108 138 174 212 246
#     4   9  18  31  46  66  92 120 150 182 215 256
#
# _framework density 15.853738
#
# number of rings (size 3 to 8) (size 9 to 14) (size 15 to 20)
#    0.000    3.125    0.000    1.500    0.000    3.875 
#    0.000    5.000    0.000    2.250    0.000    0.000 
#    0.000   12.000    0.000    0.250    0.000    0.125 
#
# Total GULP energy -793306.247294 kJ/mol
# GULP energy per Si atom -12395.410114 kJ/mol
# Density = 1.581765 g / cm^3
# Si number density = 15.853738 Si / 1000 Ang^3
#
#
#
# Elastic Constant Matrix: (Units=GPa)
#
#
# Indices 1 2 3 4 5 6 
#
# 1 79.2570 40.9599 51.7449 0.0000 0.0000 0.0002
# 2 40.9599 79.2570 51.7449 0.0000 0.0000 -0.0002
# 3 51.7449 51.7449 104.2149 0.0000 0.0000 0.0000
# 4 0.0000 0.0000 0.0000 22.0340 0.0000 0.0000
# 5 0.0000 0.0000 0.0000 0.0000 22.0340 0.0000
# 6 0.0002 -0.0002 0.0000 0.0000 0.0000 15.2861
#
#
#
# Elastic Compliance Matrix: (Units=1/GPa)
#
#
# Indices 1 2 3 4 5 6 
#
# 1 0.020320 -0.005792 -0.007214 0.000000 0.000000 0.000000
# 2 -0.005792 0.020320 -0.007214 0.000000 0.000000 0.000000
# 3 -0.007214 -0.007214 0.016759 0.000000 0.000000 0.000000
# 4 0.000000 0.000000 0.000000 0.045384 0.000000 0.000000
# 5 0.000000 0.000000 0.000000 0.000000 0.045384 0.000000
# 6 0.000000 0.000000 0.000000 0.000000 0.000000 0.065419
#
#
# Mechanical properties :
#
#
# Convention : Reuss Voigt Hill
#
# Bulk Modulus (GPa) = 58.95863 61.29204 60.12534
# Shear Modulus (GPa) = 19.25463 19.75609 19.50536
#
# Velocity S-wave (km/s) = 3.48877 3.53391 3.51141
# Velocity P-wave (km/s) = 7.31427 7.44286 7.37885
#
# Compressibility (1/GPa) = 0.01696104
#
# Stress axis : x y z
#
# Youngs Moduli (GPa) = 49.21292 49.21292 59.66989
#
# Poissons Ratio (x) = 0.28503 0.43043
# Poissons Ratio (y) = 0.28503 0.43043
# Poissons Ratio (z) = 0.35500 0.35500
#
# Static dielectric constant tensor:
#      x y z
#    x 2.887410 0.000000 0.000000 
#    y 0.000000 2.887410 0.000000 
#    z 0.000000 0.000000 3.314550 
# 
# 
# High freq. dielectric constant tensor:
#      x y z
#    x 1.584560 0.000000 0.000000 
#    y 0.000000 1.584560 0.000000 
#    z 0.000000 0.000000 1.623990 
# 
# From -- ./inp_files/2080.got.cif
#   From: 2010.03.12/outbox.cif.g09.slc.cpg/sg99_cif.got.tgz:2080.got - 2010.04.08 21:11:30.
