data_PCOD8306839
_publ_section_title
;
Structure prediction by ZEFSAII (Michael W. Deem and Ramdas Pophale) SiO2 
 PCOD8306839
Probable space group: P 42 N M
;
_chemical_formula_sum "Si O2"
_cell_formula_units_Z 32
_cell_length_a 10.557577
_cell_length_b 10.557577
_cell_length_c 15.692675
_cell_angle_alpha 90.000000
_cell_angle_beta 90.000000
_cell_angle_gamma 90.000000
_cell_volume 1749.143722
_symmetry_space_group_name_H-M "P 42 N M"
_symmetry_group_IT_number 102
_symmetry_cell_setting 'tetragonal'
loop_
_space_group_symop_operation_xyz
x,y,z
1/2-y,1/2+x,1/2+z
-x,-y,z
1/2+y,1/2-x,1/2+z
1/2-x,1/2+y,1/2+z
1/2+x,1/2-y,1/2+z
-y,-x,z
y,x,z
loop_
_atom_site_type_symbol
_atom_site_label
_atom_site_fract_x
_atom_site_fract_y
_atom_site_fract_z
Si Si1 0.478543 0.803996 0.727250
Si Si2 0.789538 0.789538 0.899277
Si Si3 0.404315 0.404315 0.149843
Si Si4 0.710463 0.289538 0.591548
Si Si5 0.978543 0.696004 0.763575
Si Si6 0.404315 0.404315 0.840981
O O1 0.414269 0.764530 0.638000
O O2 0.608064 0.881130 0.709417
O O3 0.506948 0.680920 0.781505
O O4 0.381130 0.891936 0.781408
O O5 0.914270 0.735470 0.852824
O O6 0.680971 0.680971 0.902892
O O7 0.826229 0.826229 0.995412
O O8 0.500000 0.500000 0.099642
O O9 0.319029 0.319029 0.087932
O O10 0.319080 0.493052 0.209319
O O11 0.500000 0.500000 0.891183
#
# Coordination Sequence:
#
# PCOD8306839 Si02
#       6
#     8   4   4   4   8   4
#     4   9  18  34  54  78 104 145 183 210 258 325
#     4  10  20  34  56  84 110 133 176 232 272 301
#     4  10  18  33  55  79 104 146 181 215 258 331
#     4  10  20  34  56  84 110 133 176 232 272 301
#     4   9  18  34  54  78 104 145 183 210 258 325
#     4  10  18  33  55  79 104 146 181 215 258 331
#
# _framework density 18.294664999999998
#
# number of rings (size 3 to 8) (size 9 to 14) (size 15 to 20)
#    0.000    2.500    2.500    0.000    0.000    0.500 
#    0.000   22.500    0.000    0.000    0.000    0.000 
#    0.000    0.000    0.000    0.000    0.000    0.000 
#
# Total GULP energy -396572.839159 kJ/mol
# GULP energy per Si atom -12392.901224 kJ/mol
# Density = 1.825303 g / cm^3
# Si number density = 18.294665 Si / 1000 Ang^3
#
#
#
# Elastic Constant Matrix: (Units=GPa)
#
#
# Indices 1 2 3 4 5 6 
#
# 1 74.5237 49.7445 31.4721 0.0000 0.0000 0.0000
# 2 49.7445 74.5237 31.4721 0.0000 0.0000 0.0000
# 3 31.4721 31.4721 104.1238 0.0000 0.0000 0.0000
# 4 0.0000 0.0000 0.0000 14.5976 0.0000 0.0000
# 5 0.0000 0.0000 0.0000 0.0000 14.5976 0.0000
# 6 0.0000 0.0000 0.0000 0.0000 0.0000 40.4755
#
#
#
# Elastic Compliance Matrix: (Units=1/GPa)
#
#
# Indices 1 2 3 4 5 6 
#
# 1 0.024929 -0.015427 -0.002872 0.000000 0.000000 0.000000
# 2 -0.015427 0.024929 -0.002872 0.000000 0.000000 0.000000
# 3 -0.002872 -0.002872 0.011340 0.000000 0.000000 0.000000
# 4 0.000000 0.000000 0.000000 0.068504 0.000000 0.000000
# 5 0.000000 0.000000 0.000000 0.000000 0.068504 0.000000
# 6 0.000000 0.000000 0.000000 0.000000 0.000000 0.024706
#
#
# Mechanical properties :
#
#
# Convention : Reuss Voigt Hill
#
# Bulk Modulus (GPa) = 53.03406 53.17206 53.10306
# Shear Modulus (GPa) = 18.41343 23.29965 20.85654
#
# Velocity S-wave (km/s) = 3.17597 3.57259 3.38010
# Velocity P-wave (km/s) = 6.51926 6.79303 6.65755
#
# Compressibility (1/GPa) = 0.01885581
#
# Stress axis : x y z
#
# Youngs Moduli (GPa) = 40.11380 40.11380 88.18259
#
# Poissons Ratio (x) = 0.61885 0.25326
# Poissons Ratio (y) = 0.61885 0.25326
# Poissons Ratio (z) = 0.11521 0.11521
#
# Static dielectric constant tensor:
#      x y z
#    x 3.630410 0.000000 0.000000 
#    y 0.000000 3.630410 0.000000 
#    z 0.000000 0.000000 2.784420 
# 
# 
# High freq. dielectric constant tensor:
#      x y z
#    x 1.729350 0.000000 0.000000 
#    y 0.000000 1.729350 0.000000 
#    z 0.000000 0.000000 1.649020 
# 
# From -- ./inp_files/1548.got.cif
#   From: 2010.03.12/outbox.cif.g09.slc.cpg/sg102_1_cif.got.tgz:1548.got - 2010.04.14 01:40:42.
