data_PCOD8306819
_publ_section_title
;
Structure prediction by ZEFSAII (Michael W. Deem and Ramdas Pophale) SiO2 
 PCOD8306819
Probable space group: P 42 N M
;
_chemical_formula_sum "Si O2"
_cell_formula_units_Z 64
_cell_length_a 18.587525
_cell_length_b 18.587525
_cell_length_c 10.737855
_cell_angle_alpha 90.000000
_cell_angle_beta 90.000000
_cell_angle_gamma 90.000000
_cell_volume 3709.886871
_symmetry_space_group_name_H-M "P 42 N M"
_symmetry_group_IT_number 102
_symmetry_cell_setting 'tetragonal'
loop_
_space_group_symop_operation_xyz
x,y,z
1/2-y,1/2+x,1/2+z
-x,-y,z
1/2+y,1/2-x,1/2+z
1/2-x,1/2+y,1/2+z
1/2+x,1/2-y,1/2+z
-y,-x,z
y,x,z
loop_
_atom_site_type_symbol
_atom_site_label
_atom_site_fract_x
_atom_site_fract_y
_atom_site_fract_z
Si Si1 0.895856 0.576220 0.108760
Si Si2 0.531799 0.184833 0.776919
Si Si3 0.576220 0.104144 0.009547
Si Si4 0.873722 0.304251 0.205087
Si Si5 0.031799 0.684833 0.841388
Si Si6 0.419874 0.305786 0.513632
Si Si7 0.080126 0.194215 0.104675
Si Si8 0.304252 0.126278 0.913220
O O1 0.959541 0.617176 0.182126
O O2 0.830001 0.562976 0.204857
O O3 0.925474 0.500000 0.059154
O O4 0.866708 0.624718 0.997356
O O5 0.562975 0.169999 0.913450
O O6 0.447466 0.198189 0.783133
O O7 0.575082 0.253476 0.723522
O O8 0.617176 0.040459 0.936181
O O9 0.624718 0.133293 0.120951
O O10 0.809915 0.309915 0.309153
O O11 0.871965 0.232899 0.120885
O O12 0.075082 0.753476 0.894785
O O13 0.947466 0.698189 0.835173
O O14 0.379023 0.379023 0.475892
O O15 0.500000 0.324990 0.559154
O O16 0.120977 0.120977 0.142414
O O17 0.128034 0.232899 0.997422
#
# Coordination Sequence:
#
# PCOD8306819 Si02
#       8
#     8   8   8   8   8   8   8   8
#     4  10  17  28  43  64  97 137 172 194 218 277
#     4   9  19  31  42  68  99 131 166 202 239 268
#     4  10  17  28  43  64  97 137 172 194 218 277
#     4  10  18  30  45  69 101 132 160 202 238 283
#     4   9  19  31  42  68  99 131 166 202 239 268
#     4   9  19  35  54  72  95 120 154 204 254 296
#     4   9  19  35  54  72  95 120 154 204 254 296
#     4  10  18  30  45  69 101 132 160 202 238 283
#
# _framework density 17.251200000000001
#
# number of rings (size 3 to 8) (size 9 to 14) (size 15 to 20)
#    0.000    2.500    2.500    2.250    0.000    2.750 
#    0.000   10.000    0.000    0.000    0.000    0.000 
#    0.000    0.000    0.000    0.000    0.000    0.000 
#
# Total GULP energy -793159.045282 kJ/mol
# GULP energy per Si atom -12393.110083 kJ/mol
# Density = 1.721194 g / cm^3
# Si number density = 17.251200 Si / 1000 Ang^3
#
#
#
# Elastic Constant Matrix: (Units=GPa)
#
#
# Indices 1 2 3 4 5 6 
#
# 1 62.4134 41.0684 13.6338 0.0000 0.0000 0.0000
# 2 41.0684 62.4134 13.6338 0.0000 0.0000 0.0000
# 3 13.6338 13.6338 46.9261 0.0000 0.0000 0.0000
# 4 0.0000 0.0000 0.0000 13.2445 0.0000 0.0000
# 5 0.0000 0.0000 0.0000 0.0000 13.2445 0.0000
# 6 0.0000 0.0000 0.0000 0.0000 0.0000 25.7431
#
#
#
# Elastic Compliance Matrix: (Units=1/GPa)
#
#
# Indices 1 2 3 4 5 6 
#
# 1 0.028657 -0.018192 -0.003040 0.000000 0.000000 0.000000
# 2 -0.018192 0.028657 -0.003040 0.000000 0.000000 0.000000
# 3 -0.003040 -0.003040 0.023077 0.000000 0.000000 0.000000
# 4 0.000000 0.000000 0.000000 0.075503 0.000000 0.000000
# 5 0.000000 0.000000 0.000000 0.000000 0.075503 0.000000
# 6 0.000000 0.000000 0.000000 0.000000 0.000000 0.038845
#
#
# Mechanical properties :
#
#
# Convention : Reuss Voigt Hill
#
# Bulk Modulus (GPa) = 31.40248 34.26944 32.83596
# Shear Modulus (GPa) = 15.17894 17.34087 16.25991
#
# Velocity S-wave (km/s) = 2.96949 3.17392 3.07341
# Velocity P-wave (km/s) = 5.47720 5.77406 5.62759
#
# Compressibility (1/GPa) = 0.03184462
#
# Stress axis : x y z
#
# Youngs Moduli (GPa) = 34.89540 34.89540 43.33356
#
# Poissons Ratio (x) = 0.63483 0.13175
# Poissons Ratio (y) = 0.63483 0.13175
# Poissons Ratio (z) = 0.10610 0.10610
#
# Static dielectric constant tensor:
#      x y z
#    x 2.921810 0.000000 0.000000 
#    y 0.000000 2.921810 0.000000 
#    z 0.000000 0.000000 3.311110 
# 
# 
# High freq. dielectric constant tensor:
#      x y z
#    x 1.641090 0.000000 0.000000 
#    y 0.000000 1.641090 0.000000 
#    z 0.000000 0.000000 1.668700 
# 
# From -- ./inp_files/1935.got.cif
#   From: 2010.03.12/outbox.cif.g09.slc.cpg/sg102_1_cif.got.tgz:1935.got - 2010.04.14 01:40:42.
