data_PCOD8306735
_publ_section_title
;
Structure prediction by ZEFSAII (Michael W. Deem and Ramdas Pophale) SiO2 
 PCOD8306735
Probable space group: P 42 C M
;
_chemical_formula_sum "Si O2"
_cell_formula_units_Z 64
_cell_length_a 12.611956
_cell_length_b 12.611956
_cell_length_c 22.824459
_cell_angle_alpha 90.000000
_cell_angle_beta 90.000000
_cell_angle_gamma 90.000000
_cell_volume 3630.491182
_symmetry_space_group_name_H-M "P 42 C M"
_symmetry_group_IT_number 101
_symmetry_cell_setting 'tetragonal'
loop_
_space_group_symop_operation_xyz
x,y,z
-y,x,1/2+z
-x,-y,z
y,-x,1/2+z
-x,y,1/2+z
x,-y,1/2+z
-y,-x,z
y,x,z
loop_
_atom_site_type_symbol
_atom_site_label
_atom_site_fract_x
_atom_site_fract_y
_atom_site_fract_z
Si Si1 0.506744 0.672044 0.846440
Si Si2 0.184216 0.362573 0.411324
Si Si3 0.064512 0.391882 0.530654
Si Si4 0.883621 0.550808 0.652417
Si Si5 0.067228 0.239845 0.708910
Si Si6 0.001063 0.174967 0.084783
Si Si7 0.894618 0.271690 0.800241
Si Si8 0.424084 0.258382 0.231161
O O1 0.414746 0.585255 0.846049
O O2 0.619555 0.619555 0.863600
O O3 0.475677 0.763035 0.893394
O O4 0.513351 0.719333 0.780611
O O5 0.273334 0.273334 0.410249
O O6 0.134649 0.368797 0.474720
O O7 0.094744 0.331121 0.363116
O O8 0.141106 0.414623 0.585846
O O9 0.997316 0.284316 0.546432
O O10 0.000000 0.500000 0.518289
O O11 0.874639 0.651001 0.694585
O O12 0.792848 0.470656 0.672443
O O13 0.000000 0.500000 0.656629
O O14 0.152363 0.152363 0.723464
O O15 0.993866 0.204941 0.653761
O O16 0.006481 0.256112 0.769670
O O17 0.894239 0.105761 0.071990
O O18 0.105393 0.105393 0.069318
O O19 0.843724 0.156277 0.810001
O O20 0.821476 0.339643 0.757810
O O21 0.366930 0.366930 0.211624
#
# Coordination Sequence:
#
# PCOD8306735 Si02
#       8
#     8   8   8   8   8   8   8   8
#     4   8  15  30  52  75  98 128 172 219 256 303
#     4   9  18  35  55  72  97 142 187 218 259 315
#     4  10  21  36  51  76 109 142 182 224 268 318
#     4  10  19  34  51  73 105 144 173 208 263 323
#     4  10  19  31  50  81 113 135 165 216 277 329
#     4   9  18  34  58  82 105 142 186 225 267 320
#     4   9  17  31  52  77 100 130 174 213 258 318
#     4   9  17  31  53  77 100 132 173 213 261 319
#
# _framework density 17.628468000000002
#
# number of rings (size 3 to 8) (size 9 to 14) (size 15 to 20)
#    0.000    2.750    1.250    2.250    0.000    1.750 
#    4.500    1.875    0.000    0.750    0.000    0.000 
#    0.000    0.000    0.000    0.000    0.000    0.000 
#
# Total GULP energy -793089.888790 kJ/mol
# GULP energy per Si atom -12392.029512 kJ/mol
# Density = 1.758834 g / cm^3
# Si number density = 17.628468 Si / 1000 Ang^3
#
#
#
# Elastic Constant Matrix: (Units=GPa)
#
#
# Indices 1 2 3 4 5 6 
#
# 1 80.7742 35.7003 53.3582 0.0000 0.0000 -0.0001
# 2 35.7003 80.7742 53.3582 0.0000 0.0000 0.0001
# 3 53.3582 53.3582 125.2951 0.0000 0.0000 0.0000
# 4 0.0000 0.0000 0.0000 24.1509 0.0000 0.0000
# 5 0.0000 0.0000 0.0000 0.0000 24.1509 0.0000
# 6 -0.0001 0.0001 0.0000 0.0000 0.0000 25.7878
#
#
#
# Elastic Compliance Matrix: (Units=1/GPa)
#
#
# Indices 1 2 3 4 5 6 
#
# 1 0.018132 -0.004053 -0.005996 0.000000 0.000000 0.000000
# 2 -0.004053 0.018132 -0.005996 0.000000 0.000000 0.000000
# 3 -0.005996 -0.005996 0.013088 0.000000 0.000000 0.000000
# 4 0.000000 0.000000 0.000000 0.041406 0.000000 0.000000
# 5 0.000000 0.000000 0.000000 0.000000 0.041406 0.000000
# 6 0.000000 0.000000 0.000000 0.000000 0.000000 0.038778
#
#
# Mechanical properties :
#
#
# Convention : Reuss Voigt Hill
#
# Bulk Modulus (GPa) = 57.92732 63.51963 60.72347
# Shear Modulus (GPa) = 23.94788 24.44640 24.19714
#
# Velocity S-wave (km/s) = 3.68975 3.72796 3.70890
# Velocity P-wave (km/s) = 7.14729 7.39195 7.27065
#
# Compressibility (1/GPa) = 0.01726301
#
# Stress axis : x y z
#
# Youngs Moduli (GPa) = 55.15006 55.15006 76.40717
#
# Poissons Ratio (x) = 0.22355 0.45811
# Poissons Ratio (y) = 0.22355 0.45811
# Poissons Ratio (z) = 0.33066 0.33066
#
# Static dielectric constant tensor:
#      x y z
#    x 3.266700 0.000000 0.000000 
#    y 0.000000 3.266700 0.000000 
#    z 0.000000 0.000000 3.257370 
# 
# 
# High freq. dielectric constant tensor:
#      x y z
#    x 1.669530 0.000000 0.000000 
#    y 0.000000 1.669530 0.000000 
#    z 0.000000 0.000000 1.669120 
# 
# From -- ./inp_files/2754.got.cif
#   From: 2010.03.12/outbox.cif.g09.slc.cpg/sg101_2_cif.got.tgz:2754.got - 2010.04.14 01:38:52.
