data_PCOD8306740
_publ_section_title
;
Structure prediction by ZEFSAII (Michael W. Deem and Ramdas Pophale) SiO2 
 PCOD8306740
Probable space group: P 42 C M
;
_chemical_formula_sum "Si O2"
_cell_formula_units_Z 64
_cell_length_a 12.063754
_cell_length_b 12.063754
_cell_length_c 22.487787
_cell_angle_alpha 90.000000
_cell_angle_beta 90.000000
_cell_angle_gamma 90.000000
_cell_volume 3272.741204
_symmetry_space_group_name_H-M "P 42 C M"
_symmetry_group_IT_number 101
_symmetry_cell_setting 'tetragonal'
loop_
_space_group_symop_operation_xyz
x,y,z
-y,x,1/2+z
-x,-y,z
y,-x,1/2+z
-x,y,1/2+z
x,-y,1/2+z
-y,-x,z
y,x,z
loop_
_atom_site_type_symbol
_atom_site_label
_atom_site_fract_x
_atom_site_fract_y
_atom_site_fract_z
Si Si1 0.068612 0.752073 0.396350
Si Si2 0.858335 0.672920 0.095636
Si Si3 0.251988 0.080730 0.650990
Si Si4 0.206075 0.380854 0.288844
Si Si5 0.557272 0.880795 0.970796
Si Si6 0.871011 0.513575 0.689476
Si Si7 0.161992 0.658046 0.920859
Si Si8 0.794143 0.029401 0.771096
O O1 0.136646 0.863355 0.416734
O O2 0.138180 0.642602 0.415594
O O3 0.950582 0.731601 0.430447
O O4 0.049719 0.758920 0.325640
O O5 0.768040 0.768040 0.103285
O O6 0.831027 0.574367 0.140691
O O7 0.980065 0.724414 0.106122
O O8 0.853507 0.622447 0.030268
O O9 0.165585 0.165585 0.620043
O O10 0.363543 0.149733 0.665155
O O11 0.194654 0.041771 0.711984
O O12 0.330414 0.330414 0.288762
O O13 0.199631 0.493865 0.250301
O O14 0.160291 0.395295 0.355096
O O15 0.122546 0.296403 0.255858
O O16 0.445552 0.808510 0.963789
O O17 0.500000 0.000000 0.969074
O O18 0.000000 0.500000 0.704826
O O19 0.261749 0.738252 0.931459
O O20 0.910747 0.089254 0.787408
#
# Coordination Sequence:
#
# PCOD8306740 Si02
#       8
#     8   8   8   8   8   8   8   8
#     4  10  20  33  53  84 120 159 195 234 283 345
#     4  11  22  40  63  85 109 149 196 242 288 341
#     4  11  23  36  55  87 121 152 184 233 298 352
#     4   9  16  30  54  85 115 149 192 238 283 333
#     4  10  21  38  59  82 116 152 198 243 287 343
#     4  10  19  32  56  83 114 150 194 234 276 336
#     4   9  20  35  57  86 117 153 193 242 298 343
#     4  10  19  32  52  83 120 155 191 234 287 343
#
# _framework density 19.555471000000001
#
# number of rings (size 3 to 8) (size 9 to 14) (size 15 to 20)
#    0.000    2.000    2.500    3.750    1.750    3.000 
#    0.000    6.250    0.000    8.250    0.000    3.500 
#    0.000    0.000    0.000    0.000    0.000    0.000 
#
# Total GULP energy -792961.953325 kJ/mol
# GULP energy per Si atom -12390.030521 kJ/mol
# Density = 1.951096 g / cm^3
# Si number density = 19.555471 Si / 1000 Ang^3
#
#
#
# Elastic Constant Matrix: (Units=GPa)
#
#
# Indices 1 2 3 4 5 6 
#
# 1 88.3927 66.3562 42.2844 0.0000 0.0000 0.0004
# 2 66.3562 88.3927 42.2844 0.0000 0.0000 -0.0004
# 3 42.2844 42.2844 61.4651 0.0000 0.0000 0.0000
# 4 0.0000 0.0000 0.0000 22.3427 0.0000 0.0000
# 5 0.0000 0.0000 0.0000 0.0000 22.3427 0.0000
# 6 0.0004 -0.0004 0.0000 0.0000 0.0000 21.4566
#
#
#
# Elastic Compliance Matrix: (Units=1/GPa)
#
#
# Indices 1 2 3 4 5 6 
#
# 1 0.027867 -0.017512 -0.007124 0.000000 0.000000 -0.000001
# 2 -0.017512 0.027867 -0.007124 0.000000 0.000000 0.000001
# 3 -0.007124 -0.007124 0.026071 0.000000 0.000000 0.000000
# 4 0.000000 0.000000 0.000000 0.044757 0.000000 0.000000
# 5 0.000000 0.000000 0.000000 0.000000 0.044757 0.000000
# 6 -0.000001 0.000001 0.000000 0.000000 0.000000 0.046606
#
#
# Mechanical properties :
#
#
# Convention : Reuss Voigt Hill
#
# Bulk Modulus (GPa) = 54.68615 60.01118 57.34867
# Shear Modulus (GPa) = 17.38888 19.05010 18.21949
#
# Velocity S-wave (km/s) = 2.98519 3.12453 3.05566
# Velocity P-wave (km/s) = 6.31721 6.61598 6.46832
#
# Compressibility (1/GPa) = 0.01828617
#
# Stress axis : x y z
#
# Youngs Moduli (GPa) = 35.88451 35.88451 38.35704
#
# Poissons Ratio (x) = 0.62841 0.27325
# Poissons Ratio (y) = 0.62841 0.27325
# Poissons Ratio (z) = 0.25563 0.25563
#
# Static dielectric constant tensor:
#      x y z
#    x 3.712410 0.000000 0.000000 
#    y 0.000000 3.712410 0.000000 
#    z 0.000000 0.000000 3.486380 
# 
# 
# High freq. dielectric constant tensor:
#      x y z
#    x 1.746370 0.000000 0.000000 
#    y 0.000000 1.746370 0.000000 
#    z 0.000000 0.000000 1.753240 
# 
# From -- ./inp_files/2814.got.cif
#   From: 2010.03.12/outbox.cif.g09.slc.cpg/sg101_2_cif.got.tgz:2814.got - 2010.04.14 01:38:52.
