data_PCOD8306604
_publ_section_title
;
Structure prediction by ZEFSAII (Michael W. Deem and Ramdas Pophale) SiO2 
 PCOD8306604
Probable space group: P 4 M M
;
_chemical_formula_sum "Si O2"
_cell_formula_units_Z 64
_cell_length_a 17.803144
_cell_length_b 17.803144
_cell_length_c 10.939914
_cell_angle_alpha 90.000000
_cell_angle_beta 90.000000
_cell_angle_gamma 90.000000
_cell_volume 3467.426925
_symmetry_space_group_name_H-M "P 4 M M"
_symmetry_group_IT_number 99
_symmetry_cell_setting 'tetragonal'
loop_
_space_group_symop_operation_xyz
x,y,z
-y,x,z
-x,-y,z
y,-x,z
-x,y,z
x,-y,z
-y,-x,z
y,x,z
loop_
_atom_site_type_symbol
_atom_site_label
_atom_site_fract_x
_atom_site_fract_y
_atom_site_fract_z
Si Si1 0.136042 0.415417 0.895140
Si Si2 0.291551 0.587501 0.522186
Si Si3 0.200123 0.916476 0.013156
Si Si4 0.089956 0.790627 0.516850
Si Si5 0.913189 0.274516 0.770952
Si Si6 0.350811 0.915645 0.147893
Si Si7 0.687484 0.810346 0.355629
Si Si8 0.583747 0.295843 0.804070
O O1 0.115136 0.500000 0.857726
O O2 0.099542 0.363133 0.790960
O O3 0.225620 0.403130 0.893383
O O4 0.104735 0.399850 0.029804
O O5 0.299405 0.500000 0.485060
O O6 0.370991 0.629010 0.495281
O O7 0.224565 0.626342 0.447161
O O8 0.270439 0.597295 0.664360
O O9 0.131836 0.868165 0.064975
O O10 0.231041 0.878905 0.887810
O O11 0.169953 0.000000 0.988467
O O12 0.263321 0.917043 0.115627
O O13 0.126396 0.873605 0.503130
O O14 0.120072 0.755912 0.644678
O O15 0.122173 0.734841 0.415348
O O16 0.000000 0.796791 0.504970
O O17 0.000000 0.256982 0.768033
O O18 0.360776 0.850139 0.248325
O O19 0.374624 0.000000 0.192506
O O20 0.744557 0.744557 0.309855
O O21 0.500000 0.328424 0.818262
O O22 0.639847 0.360154 0.847469
#
# Coordination Sequence:
#
# PCOD8306604 Si02
#       8
#     8   8   8   8   8   8   8   8
#     4  10  20  33  51  75 100 127 163 207 250 296
#     4   9  18  33  54  81 111 141 173 209 251 301
#     4   9  17  29  45  66  92 121 156 199 247 301
#     4  10  20  34  53  76 103 136 174 216 262 311
#     4   9  18  31  47  69  97 128 160 197 246 302
#     4  10  21  35  50  69  95 129 169 212 258 306
#     4  10  20  34  53  75 100 135 176 217 260 305
#     4   9  18  32  51  77 106 133 161 195 238 290
#
# _framework density 18.457488999999999
#
# number of rings (size 3 to 8) (size 9 to 14) (size 15 to 20)
#    0.000    2.500    0.000    3.000    0.000    6.000 
#    0.000    1.250    0.000    4.125    0.000    1.750 
#    0.000    2.000    0.000    0.000    0.000    0.000 
#
# Total GULP energy -793308.031201 kJ/mol
# GULP energy per Si atom -12395.437988 kJ/mol
# Density = 1.841548 g / cm^3
# Si number density = 18.457489 Si / 1000 Ang^3
#
#
#
# Elastic Constant Matrix: (Units=GPa)
#
#
# Indices 1 2 3 4 5 6 
#
# 1 89.3595 36.1662 19.9966 0.0000 0.0000 -0.0006
# 2 36.1662 89.3595 19.9966 0.0000 0.0000 0.0006
# 3 19.9966 19.9966 37.9813 0.0000 0.0000 0.0000
# 4 0.0000 0.0000 0.0000 22.8441 0.0000 0.0000
# 5 0.0000 0.0000 0.0000 0.0000 22.8441 0.0000
# 6 -0.0006 0.0006 0.0000 0.0000 0.0000 26.8865
#
#
#
# Elastic Compliance Matrix: (Units=1/GPa)
#
#
# Indices 1 2 3 4 5 6 
#
# 1 0.014186 -0.004614 -0.005040 0.000000 0.000000 0.000000
# 2 -0.004614 0.014186 -0.005040 0.000000 0.000000 0.000000
# 3 -0.005040 -0.005040 0.031635 0.000000 0.000000 0.000000
# 4 0.000000 0.000000 0.000000 0.043775 0.000000 0.000000
# 5 0.000000 0.000000 0.000000 0.000000 0.043775 0.000000
# 6 0.000000 0.000000 0.000000 0.000000 0.000000 0.037193
#
#
# Mechanical properties :
#
#
# Convention : Reuss Voigt Hill
#
# Bulk Modulus (GPa) = 32.65709 41.00211 36.82960
# Shear Modulus (GPa) = 22.28733 23.88434 23.08583
#
# Velocity S-wave (km/s) = 3.47867 3.60115 3.54044
# Velocity P-wave (km/s) = 5.81949 6.28917 6.05888
#
# Compressibility (1/GPa) = 0.03062122
#
# Stress axis : x y z
#
# Youngs Moduli (GPa) = 70.49328 70.49328 31.61026
#
# Poissons Ratio (x) = 0.32523 0.15930
# Poissons Ratio (y) = 0.32523 0.15930
# Poissons Ratio (z) = 0.35526 0.35526
#
# Static dielectric constant tensor:
#      x y z
#    x 3.365120 0.000000 0.000000 
#    y 0.000000 3.365120 0.000000 
#    z 0.000000 0.000000 3.350060 
# 
# 
# High freq. dielectric constant tensor:
#      x y z
#    x 1.713880 0.000000 0.000000 
#    y 0.000000 1.713880 0.000000 
#    z 0.000000 0.000000 1.699480 
# 
# From -- ./inp_files/1603.got.cif
#   From: 2010.03.12/outbox.cif.g09.slc.cpg/sg99_cif.got.tgz:1603.got - 2010.04.08 21:11:30.
