data_PCOD8306000
_publ_section_title
;
Structure prediction by ZEFSAII (Michael W. Deem and Ramdas Pophale) SiO2 
 PCOD8306000
Probable space group: P 43 21 2
;
_chemical_formula_sum "Si O2"
_cell_formula_units_Z 56
_cell_length_a 11.227177
_cell_length_b 11.227177
_cell_length_c 20.884747
_cell_angle_alpha 90.000000
_cell_angle_beta 90.000000
_cell_angle_gamma 90.000000
_cell_volume 2632.511988
_symmetry_space_group_name_H-M "P 43 21 2"
_symmetry_group_IT_number 96
_symmetry_cell_setting 'tetragonal'
loop_
_space_group_symop_operation_xyz
x,y,z
1/2-y,1/2+x,3/4+z
-x,-y,1/2+z
1/2+y,1/2-x,1/4+z
1/2+x,1/2-y,1/4-z
1/2-x,1/2+y,3/4-z
y,x,-z
-y,-x,1/2-z
loop_
_atom_site_type_symbol
_atom_site_label
_atom_site_fract_x
_atom_site_fract_y
_atom_site_fract_z
Si Si1 0.243599 0.860284 0.659419
Si Si2 0.231984 0.870501 0.517070
Si Si3 0.283364 0.603327 0.511522
Si Si4 0.942375 0.057626 0.250000
Si Si5 0.459698 0.933478 0.448224
Si Si6 0.418952 0.718801 0.844738
Si Si7 0.058626 0.433329 0.686153
Si Si8 0.022746 0.022746 0.000000
O O1 0.269403 0.910493 0.588475
O O2 0.110015 0.882799 0.685501
O O3 0.256906 0.719702 0.665809
O O4 0.334906 0.936283 0.702767
O O5 0.217130 0.729199 0.522252
O O6 0.116843 0.949123 0.502125
O O7 0.327703 0.883205 0.460037
O O8 0.420298 0.593860 0.492220
O O9 0.275927 0.539846 0.580986
O O10 0.208283 0.551844 0.451554
O O11 0.475876 0.019053 0.507869
O O12 0.463841 0.005267 0.382496
O O13 0.505668 0.811111 0.808227
O O14 0.433005 0.587669 0.814517
#
# Coordination Sequence:
#
# PCOD8306000 Si02
#       8
#     8   8   8   4   8   8   8   4
#     4  11  24  41  71 105 136 177 238 298 365 419
#     4  11  25  44  68 101 140 187 234 300 359 432
#     4  11  25  44  68 101 140 187 234 300 359 432
#     4  12  23  44  69 100 140 184 242 294 353 428
#     4  12  24  45  71 101 142 186 233 292 366 441
#     4  11  24  41  71 105 136 177 238 298 365 419
#     4  12  24  45  71 101 142 186 233 292 366 441
#     4  12  23  44  69 100 140 184 242 294 353 428
#
# _framework density 21.272456999999999
#
# number of rings (size 3 to 8) (size 9 to 14) (size 15 to 20)
#    0.000    0.571    5.714    3.000    0.000    2.286 
#    0.000    0.714    0.000    0.000    0.000    0.000 
#    0.000    0.000    0.000    0.000    0.000    0.000 
#
# Total GULP energy -693865.895302 kJ/mol
# GULP energy per Si atom -12390.462416 kJ/mol
# Density = 2.122404 g / cm^3
# Si number density = 21.272457 Si / 1000 Ang^3
#
#
#
# Elastic Constant Matrix: (Units=GPa)
#
#
# Indices 1 2 3 4 5 6 
#
# 1 95.8996 18.6031 27.3380 0.0000 0.0000 0.0000
# 2 18.6031 95.8993 27.3382 0.0000 0.0000 0.0000
# 3 27.3380 27.3382 112.3871 0.0000 0.0000 0.0000
# 4 0.0000 0.0000 0.0000 26.4887 0.0000 0.0000
# 5 0.0000 0.0000 0.0000 0.0000 26.4884 0.0000
# 6 0.0000 0.0000 0.0000 0.0000 0.0000 30.4537
#
#
#
# Elastic Compliance Matrix: (Units=1/GPa)
#
#
# Indices 1 2 3 4 5 6 
#
# 1 0.011409 -0.001528 -0.002404 0.000000 0.000000 0.000000
# 2 -0.001528 0.011409 -0.002404 0.000000 0.000000 0.000000
# 3 -0.002404 -0.002404 0.010067 0.000000 0.000000 0.000000
# 4 0.000000 0.000000 0.000000 0.037752 0.000000 0.000000
# 5 0.000000 0.000000 0.000000 0.000000 0.037752 0.000000
# 6 0.000000 0.000000 0.000000 0.000000 0.000000 0.032837
#
#
# Mechanical properties :
#
#
# Convention : Reuss Voigt Hill
#
# Bulk Modulus (GPa) = 49.46784 50.08271 49.77528
# Shear Modulus (GPa) = 31.12642 32.07996 31.60319
#
# Velocity S-wave (km/s) = 3.82936 3.88758 3.85858
# Velocity P-wave (km/s) = 6.54652 6.61404 6.58037
#
# Compressibility (1/GPa) = 0.02021515
#
# Stress axis : x y z
#
# Youngs Moduli (GPa) = 87.64883 87.64839 99.33285
#
# Poissons Ratio (x) = 0.13393 0.23875
# Poissons Ratio (y) = 0.13393 0.23876
# Poissons Ratio (z) = 0.21067 0.21067
#
# Static dielectric constant tensor:
#      x y z
#    x 3.788950 0.000000 0.000000 
#    y 0.000000 3.788960 0.000000 
#    z 0.000000 0.000000 4.360370 
# 
# 
# High freq. dielectric constant tensor:
#      x y z
#    x 1.829930 0.000000 0.000000 
#    y 0.000000 1.829930 0.000000 
#    z 0.000000 0.000000 1.846000 
# 
# From -- ./inp_files/3591.got.cif
#   From: 2010.03.12/outbox.cif.g09.slc.cpg/sg96_2_cif.got.tgz:3591.got - 2010.04.08 20:56:49.
