data_PCOD8306040
_publ_section_title
;
Structure prediction by ZEFSAII (Michael W. Deem and Ramdas Pophale) SiO2 
 PCOD8306040
Probable space group: I 4 2 2 
;
_chemical_formula_sum "Si O2"
_cell_formula_units_Z 56
_cell_length_a 16.622786
_cell_length_b 16.622786
_cell_length_c 9.101829
_cell_angle_alpha 90.000000
_cell_angle_beta 90.000000
_cell_angle_gamma 90.000000
_cell_volume 2514.990215
_symmetry_space_group_name_H-M "I 4 2 2 "
_symmetry_group_IT_number 97
_symmetry_cell_setting 'tetragonal'
loop_
_space_group_symop_operation_xyz
x,y,z
-y,x,z
-x,-y,z
y,-x,z
x,-y,-z
-x,y,-z
y,x,-z
-y,-x,-z
1/2+x,1/2+y,1/2+z
1/2-y,1/2+x,1/2+z
1/2-x,1/2-y,1/2+z
1/2+y,1/2-x,1/2+z
1/2+x,1/2-y,1/2-z
1/2-x,1/2+y,1/2-z
1/2+y,1/2+x,1/2-z
1/2-y,1/2-x,1/2-z
loop_
_atom_site_type_symbol
_atom_site_label
_atom_site_fract_x
_atom_site_fract_y
_atom_site_fract_z
Si Si1 0.567838 0.392450 0.682386
Si Si2 0.872550 0.127451 0.500000
Si Si3 0.916610 0.302814 0.438419
Si Si4 0.078259 0.722980 0.098076
O O1 0.609980 0.474332 0.629642
O O2 0.574571 0.395278 0.858906
O O3 0.610180 0.315854 0.604169
O O4 0.891795 0.221556 0.524808
O O5 0.937787 0.295287 0.267864
O O6 0.839313 0.358251 0.468357
O O7 0.000000 0.339177 0.500000
O O8 0.000000 0.712597 0.000000
#
# Coordination Sequence:
#
# PCOD8306040 Si02
#       4
#    16   8  16  16
#     4  10  20  35  59  90 124 162 204 253 317 388
#     4  10  18  35  62  90 120 155 206 262 312 380
#     4  10  22  41  64  91 123 166 216 265 324 391
#     4  10  23  41  61  90 127 163 212 272 327 387
#
# _framework density 22.266489
#
# number of rings (size 3 to 8) (size 9 to 14) (size 15 to 20)
#    0.000    2.000    0.000    4.286    0.000    6.286 
#    0.000   10.000    0.000    0.000    0.000    0.000 
#    0.000    0.000    0.000    0.000    0.000    0.000 
#
# Total GULP energy -346880.998880 kJ/mol
# GULP energy per Si atom -12388.607103 kJ/mol
# Density = 2.221581 g / cm^3
# Si number density = 22.266489 Si / 1000 Ang^3
#
#
#
# Elastic Constant Matrix: (Units=GPa)
#
#
# Indices 1 2 3 4 5 6 
#
# 1 144.5844 82.6972 49.5098 0.0000 0.0000 0.0000
# 2 82.6972 144.5852 49.5102 0.0000 0.0000 0.0000
# 3 49.5098 49.5102 59.5507 0.0000 0.0000 0.0000
# 4 0.0000 0.0000 0.0000 35.4578 0.0000 0.0000
# 5 0.0000 0.0000 0.0000 0.0000 35.4578 0.0000
# 6 0.0000 0.0000 0.0000 0.0000 0.0000 38.4747
#
#
#
# Elastic Compliance Matrix: (Units=1/GPa)
#
#
# Indices 1 2 3 4 5 6 
#
# 1 0.011528 -0.004630 -0.005735 0.000000 0.000000 0.000000
# 2 -0.004630 0.011528 -0.005735 0.000000 0.000000 0.000000
# 3 -0.005735 -0.005735 0.026329 0.000000 0.000000 0.000000
# 4 0.000000 0.000000 0.000000 0.028203 0.000000 0.000000
# 5 0.000000 0.000000 0.000000 0.000000 0.028203 0.000000
# 6 0.000000 0.000000 0.000000 0.000000 0.000000 0.025991
#
#
# Mechanical properties :
#
#
# Convention : Reuss Voigt Hill
#
# Bulk Modulus (GPa) = 58.19150 79.12828 68.65989
# Shear Modulus (GPa) = 29.46171 33.01162 31.23667
#
# Velocity S-wave (km/s) = 3.64145 3.85459 3.74953
# Velocity P-wave (km/s) = 6.62352 7.44477 7.04612
#
# Compressibility (1/GPa) = 0.01718464
#
# Stress axis : x y z
#
# Youngs Moduli (GPa) = 86.74189 86.74205 37.98071
#
# Poissons Ratio (x) = 0.40160 0.21783
# Poissons Ratio (y) = 0.40160 0.21784
# Poissons Ratio (z) = 0.49750 0.49751
#
# Static dielectric constant tensor:
#      x y z
#    x 4.172130 0.000000 0.000000 
#    y 0.000000 4.172100 0.000000 
#    z 0.000000 0.000000 4.101490 
# 
# 
# High freq. dielectric constant tensor:
#      x y z
#    x 1.871970 0.000000 0.000000 
#    y 0.000000 1.871970 0.000000 
#    z 0.000000 0.000000 1.894720 
# 
# From -- ./inp_files/1878.got.cif
#   From: 2010.03.12/outbox.cif.g09.slc.cpg/sg97_1_cif.got.tgz:1878.got - 2010.04.08 20:59:42.
