data_PCOD8306851
_publ_section_title
;
Structure prediction by ZEFSAII (Michael W. Deem and Ramdas Pophale) SiO2 
 PCOD8306851
Probable space group: P 42 N M
;
_chemical_formula_sum "Si O2"
_cell_formula_units_Z 64
_cell_length_a 12.094027
_cell_length_b 12.094027
_cell_length_c 27.911213
_cell_angle_alpha 90.000000
_cell_angle_beta 90.000000
_cell_angle_gamma 90.000000
_cell_volume 4082.447220
_symmetry_space_group_name_H-M "P 42 N M"
_symmetry_group_IT_number 102
_symmetry_cell_setting 'tetragonal'
loop_
_space_group_symop_operation_xyz
x,y,z
1/2-y,1/2+x,1/2+z
-x,-y,z
1/2+y,1/2-x,1/2+z
1/2-x,1/2+y,1/2+z
1/2+x,1/2-y,1/2+z
-y,-x,z
y,x,z
loop_
_atom_site_type_symbol
_atom_site_label
_atom_site_fract_x
_atom_site_fract_y
_atom_site_fract_z
Si Si1 0.110192 0.712282 0.983430
Si Si2 0.360764 0.818649 0.490347
Si Si3 0.212281 0.389808 0.093452
Si Si4 0.000260 0.179041 0.344259
Si Si5 0.486284 0.874345 0.916807
Si Si6 0.318649 0.139236 0.586534
Si Si7 0.820960 0.999741 0.232622
Si Si8 0.374345 0.013716 0.160075
O O1 0.170837 0.829164 0.977448
O O2 0.143423 0.634604 0.939130
O O3 0.980139 0.736790 0.983547
O O4 0.145722 0.651052 0.031769
O O5 0.270069 0.729932 0.474559
O O6 0.348951 0.854278 0.545113
O O7 0.346056 0.925376 0.457547
O O8 0.329162 0.329162 0.099433
O O9 0.236789 0.519861 0.093334
O O10 0.134603 0.356578 0.137752
O O11 0.106106 0.106106 0.359595
O O12 0.006178 0.207534 0.288441
O O13 0.998368 0.293881 0.372151
O O14 0.889157 0.110844 0.356014
O O15 0.500000 0.000000 0.898440
O O16 0.229930 0.229930 0.602323
O O17 0.425375 0.153943 0.619335
O O18 0.893897 0.893897 0.217287
O O19 0.706120 0.001632 0.204731
O O20 0.889155 0.110846 0.220868
O O21 0.500000 0.000000 0.178442
#
# Coordination Sequence:
#
# PCOD8306851 Si02
#       8
#     8   8   8   8   8   8   8   8
#     4  10  19  31  46  64  91 123 156 194 231 271
#     4  10  19  31  46  64  91 123 156 194 231 271
#     4  10  19  31  46  64  91 123 156 194 231 271
#     4   9  18  33  51  71  97 124 153 195 241 283
#     4  10  19  30  50  70  93 124 155 196 230 280
#     4  10  19  31  46  64  91 123 156 194 231 271
#     4   9  18  33  51  71  97 124 153 195 241 283
#     4  10  19  30  50  70  93 124 155 196 230 280
#
# _framework density 15.676871
#
# number of rings (size 3 to 8) (size 9 to 14) (size 15 to 20)
#    0.000    2.250    2.500    2.250    0.000    1.000 
#    0.000    0.000    0.000    0.000    0.000    0.000 
#    0.000    0.000    0.000   46.500    0.000    0.000 
#
# Total GULP energy -793671.935316 kJ/mol
# GULP energy per Si atom -12401.123989 kJ/mol
# Density = 1.564119 g / cm^3
# Si number density = 15.676871 Si / 1000 Ang^3
#
#
#
# Elastic Constant Matrix: (Units=GPa)
#
#
# Indices 1 2 3 4 5 6 
#
# 1 66.5346 23.5048 22.7172 0.0000 0.0000 0.0001
# 2 23.5048 66.5346 22.7172 0.0000 0.0000 -0.0001
# 3 22.7172 22.7172 56.0641 0.0000 0.0000 0.0000
# 4 0.0000 0.0000 0.0000 26.2872 0.0000 0.0000
# 5 0.0000 0.0000 0.0000 0.0000 26.2872 0.0000
# 6 0.0001 -0.0001 0.0000 0.0000 0.0000 21.7535
#
#
#
# Elastic Compliance Matrix: (Units=1/GPa)
#
#
# Indices 1 2 3 4 5 6 
#
# 1 0.018600 -0.004639 -0.005657 0.000000 0.000000 0.000000
# 2 -0.004639 0.018600 -0.005657 0.000000 0.000000 0.000000
# 3 -0.005657 -0.005657 0.022421 0.000000 0.000000 0.000000
# 4 0.000000 0.000000 0.000000 0.038041 0.000000 0.000000
# 5 0.000000 0.000000 0.000000 0.000000 0.038041 0.000000
# 6 0.000000 0.000000 0.000000 0.000000 0.000000 0.045970
#
#
# Mechanical properties :
#
#
# Convention : Reuss Voigt Hill
#
# Bulk Modulus (GPa) = 36.08156 36.33462 36.20809
# Shear Modulus (GPa) = 22.43979 22.87855 22.65917
#
# Velocity S-wave (km/s) = 3.78748 3.82433 3.80595
# Velocity P-wave (km/s) = 6.49557 6.53668 6.51616
#
# Compressibility (1/GPa) = 0.02771498
#
# Stress axis : x y z
#
# Youngs Moduli (GPa) = 53.76280 53.76280 44.60093
#
# Poissons Ratio (x) = 0.24943 0.25230
# Poissons Ratio (y) = 0.24943 0.25230
# Poissons Ratio (z) = 0.30413 0.30413
#
# Static dielectric constant tensor:
#      x y z
#    x 2.988540 0.000000 0.000000 
#    y 0.000000 2.988540 0.000000 
#    z 0.000000 0.000000 2.803270 
# 
# 
# High freq. dielectric constant tensor:
#      x y z
#    x 1.604240 0.000000 0.000000 
#    y 0.000000 1.604240 0.000000 
#    z 0.000000 0.000000 1.588630 
# 
# From -- ./inp_files/3400.got.cif
#   From: 2010.03.12/outbox.cif.g09.slc.cpg/sg102_2_cif.got.tgz:3400.got - 2010.04.14 01:40:42.
