data_PCOD8306199
_publ_section_title
;
Structure prediction by ZEFSAII (Michael W. Deem and Ramdas Pophale) SiO2 
 PCOD8306199
Probable space group: I 41 2 2
;
_chemical_formula_sum "Si O2"
_cell_formula_units_Z 72
_cell_length_a 10.751779
_cell_length_b 10.751779
_cell_length_c 32.877895
_cell_angle_alpha 90.000000
_cell_angle_beta 90.000000
_cell_angle_gamma 90.000000
_cell_volume 3800.709375
_symmetry_space_group_name_H-M "I 41 2 2"
_symmetry_group_IT_number 98
_symmetry_cell_setting 'tetragonal'
loop_
_space_group_symop_operation_xyz
x,y,z
-y,1/2+x,1/4+z
-x,-y,z
y,1/2-x,1/4+z
x,1/2-y,1/4-z
-x,1/2+y,1/4-z
y,x,-z
-y,-x,-z
1/2+x,1/2+y,1/2+z
1/2-y,x,3/4+z
1/2-x,1/2-y,1/2+z
1/2+y,-x,3/4+z
1/2+x,-y,3/4-z
1/2-x,y,3/4-z
1/2+y,1/2+x,1/2-z
1/2-y,1/2-x,1/2-z
loop_
_atom_site_type_symbol
_atom_site_label
_atom_site_fract_x
_atom_site_fract_y
_atom_site_fract_z
Si Si1 0.752482 0.364784 0.287502
Si Si2 0.125674 0.706226 0.898431
Si Si3 0.376506 0.183560 0.515293
Si Si4 0.498435 0.860543 0.916628
Si Si5 0.500000 0.500000 0.203193
O O1 0.772063 0.272063 0.250000
O O2 0.843725 0.326420 0.323957
O O3 0.775831 0.506746 0.273295
O O4 0.610335 0.351488 0.300319
O O5 0.250000 0.662896 0.875000
O O6 0.018526 0.755252 0.867819
O O7 0.079637 0.590230 0.924476
O O8 0.260793 0.260793 0.500000
O O9 0.408869 0.079848 0.481609
O O10 0.335626 0.124223 0.558410
O O11 0.500000 0.000000 0.897553
#
# Coordination Sequence:
#
# PCOD8306199 Si02
#       5
#    16  16  16  16   8
#     4  10  17  37  61  84 113 156 207 245 300 366
#     4  10  22  36  62  87 118 165 203 250 309 355
#     4  11  22  37  63  90 122 161 201 251 309 368
#     4   9  19  38  58  83 122 160 196 253 307 353
#     4  12  22  42  58  88 129 158 201 262 298 368
#
# _framework density 18.943833999999999
#
# number of rings (size 3 to 8) (size 9 to 14) (size 15 to 20)
#    0.000    1.778    5.556    0.000    0.000    4.000 
#    0.000    2.222    0.000    5.333    0.000    0.000 
#    0.000    0.000    0.000    0.000    0.000    0.000 
#
# Total GULP energy -446307.885104 kJ/mol
# GULP energy per Si atom -12397.441253 kJ/mol
# Density = 1.890072 g / cm^3
# Si number density = 18.943834 Si / 1000 Ang^3
#
#
#
# Elastic Constant Matrix: (Units=GPa)
#
#
# Indices 1 2 3 4 5 6 
#
# 1 88.9334 63.0523 50.7353 0.0000 0.0000 0.0000
# 2 63.0523 88.9334 50.7353 0.0000 0.0000 0.0000
# 3 50.7353 50.7353 101.9689 0.0000 0.0000 0.0000
# 4 0.0000 0.0000 0.0000 28.5762 0.0000 0.0000
# 5 0.0000 0.0000 0.0000 0.0000 28.5762 0.0000
# 6 0.0000 0.0000 0.0000 0.0000 0.0000 34.7301
#
#
#
# Elastic Compliance Matrix: (Units=1/GPa)
#
#
# Indices 1 2 3 4 5 6 
#
# 1 0.024245 -0.014393 -0.004902 0.000000 0.000000 0.000000
# 2 -0.014393 0.024245 -0.004902 0.000000 0.000000 0.000000
# 3 -0.004902 -0.004902 0.014685 0.000000 0.000000 0.000000
# 4 0.000000 0.000000 0.000000 0.034994 0.000000 0.000000
# 5 0.000000 0.000000 0.000000 0.000000 0.034994 0.000000
# 6 0.000000 0.000000 0.000000 0.000000 0.000000 0.028793
#
#
# Mechanical properties :
#
#
# Convention : Reuss Voigt Hill
#
# Bulk Modulus (GPa) = 67.65275 67.65350 67.65312
# Shear Modulus (GPa) = 23.22568 26.06402 24.64485
#
# Velocity S-wave (km/s) = 3.50527 3.71328 3.61077
# Velocity P-wave (km/s) = 7.22304 7.36035 7.29202
#
# Compressibility (1/GPa) = 0.01478137
#
# Stress axis : x y z
#
# Youngs Moduli (GPa) = 41.24510 41.24509 68.09636
#
# Poissons Ratio (x) = 0.59364 0.33382
# Poissons Ratio (y) = 0.59364 0.33382
# Poissons Ratio (z) = 0.20219 0.20219
#
# Static dielectric constant tensor:
#      x y z
#    x 3.491020 0.000000 0.000000 
#    y 0.000000 3.491020 0.000000 
#    z 0.000000 0.000000 3.721990 
# 
# 
# High freq. dielectric constant tensor:
#      x y z
#    x 1.723060 0.000000 0.000000 
#    y 0.000000 1.723060 0.000000 
#    z 0.000000 0.000000 1.752510 
# 
# From -- ./inp_files/11665.got.cif
#   From: 2010.03.12/outbox.cif.g09.slc.cpg/sg98_6_cif.got.tgz:11665.got - 2010.04.08 21:04:41.
