data_PCOD8306470
_publ_section_title
;
Structure prediction by ZEFSAII (Michael W. Deem and Ramdas Pophale) SiO2 
 PCOD8306470
Probable space group: P 4 M M
;
_chemical_formula_sum "Si O2"
_cell_formula_units_Z 64
_cell_length_a 14.077996
_cell_length_b 14.077996
_cell_length_c 20.768345
_cell_angle_alpha 90.000000
_cell_angle_beta 90.000000
_cell_angle_gamma 90.000000
_cell_volume 4116.077701
_symmetry_space_group_name_H-M "P 4 M M"
_symmetry_group_IT_number 99
_symmetry_cell_setting 'tetragonal'
loop_
_space_group_symop_operation_xyz
x,y,z
-y,x,z
-x,-y,z
y,-x,z
-x,y,z
x,-y,z
-y,-x,z
y,x,z
loop_
_atom_site_type_symbol
_atom_site_label
_atom_site_fract_x
_atom_site_fract_y
_atom_site_fract_z
Si Si1 0.608789 0.891348 0.559800
Si Si2 0.612455 0.894086 0.801654
Si Si3 0.232283 0.388906 0.919260
Si Si4 0.388550 0.233490 0.683235
Si Si5 0.389487 0.765646 0.198035
Si Si6 0.888769 0.265635 0.437337
Si Si7 0.607395 0.240757 0.058889
Si Si8 0.608594 0.889290 0.317277
O O1 0.500000 0.877375 0.538081
O O2 0.635041 0.823985 0.618797
O O3 0.674453 0.862736 0.500342
O O4 0.626273 0.000000 0.581338
O O5 0.500000 0.902019 0.798339
O O6 0.645423 0.846507 0.868525
O O7 0.648517 0.830376 0.742426
O O8 0.656920 0.000000 0.797394
O O9 0.257774 0.500000 0.908560
O O10 0.328448 0.328448 0.909352
O O11 0.186467 0.370978 0.991171
O O12 0.500000 0.257075 0.689277
O O13 0.332754 0.332754 0.682829
O O14 0.500000 0.740389 0.206471
O O15 0.331335 0.668666 0.206592
O O16 0.369580 0.813245 0.126665
O O17 0.356158 0.839876 0.251819
O O18 0.833582 0.166419 0.438630
O O19 0.854881 0.326570 0.376091
O O20 0.000000 0.242256 0.434054
O O21 0.500000 0.272840 0.059350
O O22 0.660577 0.339424 0.058140
O O23 0.500000 0.862930 0.333965
O O24 0.620148 0.000000 0.305224
#
# Coordination Sequence:
#
# PCOD8306470 Si02
#       8
#     8   8   8   8   8   8   8   8
#     4   9  17  30  48  68  88 111 141 175 206 236
#     4   9  17  29  43  58  78 106 139 173 206 237
#     4   9  16  26  40  59  84 111 138 168 202 244
#     4  10  19  30  45  65  89 115 141 169 201 240
#     4   9  16  26  40  58  81 108 137 169 204 243
#     4  10  19  30  45  64  86 111 138 170 209 252
#     4   8  14  23  35  53  78 108 138 166 198 237
#     4   9  17  29  44  61  80 104 137 175 212 250
#
# _framework density 15.548783999999999
#
# number of rings (size 3 to 8) (size 9 to 14) (size 15 to 20)
#    0.000    2.875    0.000    1.875    0.000    3.625 
#    0.000    3.125    0.000    6.000    0.000    0.000 
#    0.000   20.000    0.000    0.000    0.000   29.000 
#
# Total GULP energy -793053.845838 kJ/mol
# GULP energy per Si atom -12391.466341 kJ/mol
# Density = 1.551339 g / cm^3
# Si number density = 15.548784 Si / 1000 Ang^3
#
#
#
# Elastic Constant Matrix: (Units=GPa)
#
#
# Indices 1 2 3 4 5 6 
#
# 1 61.4089 38.9248 53.6566 0.0000 0.0000 -0.0002
# 2 38.9248 61.4089 53.6566 0.0000 0.0000 0.0002
# 3 53.6566 53.6566 148.2040 0.0000 0.0000 0.0000
# 4 0.0000 0.0000 0.0000 22.0116 0.0000 0.0000
# 5 0.0000 0.0000 0.0000 0.0000 22.0116 0.0000
# 6 -0.0002 0.0002 0.0000 0.0000 0.0000 19.9030
#
#
#
# Elastic Compliance Matrix: (Units=1/GPa)
#
#
# Indices 1 2 3 4 5 6 
#
# 1 0.030370 -0.014105 -0.005889 0.000000 0.000000 0.000000
# 2 -0.014105 0.030370 -0.005889 0.000000 0.000000 0.000000
# 3 -0.005889 -0.005889 0.011011 0.000000 0.000000 0.000000
# 4 0.000000 0.000000 0.000000 0.045431 0.000000 0.000000
# 5 0.000000 0.000000 0.000000 0.000000 0.045431 0.000000
# 6 0.000000 0.000000 0.000000 0.000000 0.000000 0.050244
#
#
# Mechanical properties :
#
#
# Convention : Reuss Voigt Hill
#
# Bulk Modulus (GPa) = 50.03312 62.61089 56.32200
# Shear Modulus (GPa) = 18.43080 21.10416 19.76748
#
# Velocity S-wave (km/s) = 3.44663 3.68813 3.56943
# Velocity P-wave (km/s) = 6.93448 7.64796 7.29994
#
# Compressibility (1/GPa) = 0.01998676
#
# Stress axis : x y z
#
# Youngs Moduli (GPa) = 32.92675 32.92675 90.81492
#
# Poissons Ratio (x) = 0.46444 0.53478
# Poissons Ratio (y) = 0.46444 0.53478
# Poissons Ratio (z) = 0.19390 0.19390
#
# Static dielectric constant tensor:
#      x y z
#    x 2.775570 0.000000 0.000000 
#    y 0.000000 2.775570 0.000000 
#    z 0.000000 0.000000 3.411260 
# 
# 
# High freq. dielectric constant tensor:
#      x y z
#    x 1.571210 0.000000 0.000000 
#    y 0.000000 1.571210 0.000000 
#    z 0.000000 0.000000 1.622010 
# 
# From -- ./inp_files/2084.got.cif
#   From: 2010.03.12/outbox.cif.g09.slc.cpg/sg99_cif.got.tgz:2084.got - 2010.04.08 21:11:30.
