data_PCOD8306212
_publ_section_title
;
Structure prediction by ZEFSAII (Michael W. Deem and Ramdas Pophale) SiO2 
 PCOD8306212
Probable space group: I 41 2 2
;
_chemical_formula_sum "Si O2"
_cell_formula_units_Z 96
_cell_length_a 17.167542
_cell_length_b 17.167542
_cell_length_c 19.279813
_cell_angle_alpha 90.000000
_cell_angle_beta 90.000000
_cell_angle_gamma 90.000000
_cell_volume 5682.233214
_symmetry_space_group_name_H-M "I 41 2 2"
_symmetry_group_IT_number 98
_symmetry_cell_setting 'tetragonal'
loop_
_space_group_symop_operation_xyz
x,y,z
-y,1/2+x,1/4+z
-x,-y,z
y,1/2-x,1/4+z
x,1/2-y,1/4-z
-x,1/2+y,1/4-z
y,x,-z
-y,-x,-z
1/2+x,1/2+y,1/2+z
1/2-y,x,3/4+z
1/2-x,1/2-y,1/2+z
1/2+y,-x,3/4+z
1/2+x,-y,3/4-z
1/2-x,y,3/4-z
1/2+y,1/2+x,1/2-z
1/2-y,1/2-x,1/2-z
loop_
_atom_site_type_symbol
_atom_site_label
_atom_site_fract_x
_atom_site_fract_y
_atom_site_fract_z
Si Si1 0.599517 0.562740 0.275291
Si Si2 0.602630 0.320889 0.436604
Si Si3 0.868141 0.829687 0.098109
Si Si4 0.183794 0.721076 0.551233
Si Si5 0.884531 0.066930 0.214908
Si Si6 0.241792 0.437782 0.214548
O O1 0.635782 0.566481 0.351740
O O2 0.582245 0.472801 0.263728
O O3 0.526137 0.622125 0.269928
O O4 0.667634 0.586668 0.221271
O O5 0.618929 0.381072 0.500000
O O6 0.674515 0.262262 0.429560
O O7 0.588878 0.368186 0.365310
O O8 0.529446 0.266340 0.453220
O O9 0.830376 0.750000 0.125000
O O10 0.795361 0.889085 0.098007
O O11 0.914252 0.813308 0.028130
O O12 0.149529 0.750000 0.625000
O O13 0.207696 0.792305 0.500000
O O14 0.115822 0.671660 0.514688
#
# Coordination Sequence:
#
# PCOD8306212 Si02
#       6
#    16  16  16  16  16  16
#     4  10  20  33  51  75 109 143 182 219 274 328
#     4  11  21  32  53  79 111 145 184 225 269 333
#     4   9  18  31  50  73 103 140 180 215 267 323
#     4  11  22  37  56  81 110 146 182 222 272 327
#     4  11  21  35  52  80 108 145 183 226 270 332
#     4  10  18  33  49  74 107 145 173 224 268 323
#
# _framework density 16.894766000000001
#
# number of rings (size 3 to 8) (size 9 to 14) (size 15 to 20)
#    0.000    1.667    5.000    1.000    0.000    0.000 
#    0.000    0.833    0.000    0.000    0.000    7.000 
#    0.000    0.000    0.000    0.000    0.000    0.000 
#
# Total GULP energy -594764.040962 kJ/mol
# GULP energy per Si atom -12390.917520 kJ/mol
# Density = 1.685631 g / cm^3
# Si number density = 16.894766 Si / 1000 Ang^3
#
#
#
# Elastic Constant Matrix: (Units=GPa)
#
#
# Indices 1 2 3 4 5 6 
#
# 1 82.9281 28.0237 32.3214 0.0000 0.0000 0.0000
# 2 28.0237 82.9269 32.3212 0.0000 0.0000 0.0000
# 3 32.3214 32.3212 80.9866 0.0000 0.0000 0.0000
# 4 0.0000 0.0000 0.0000 22.0403 0.0000 0.0000
# 5 0.0000 0.0000 0.0000 0.0000 22.0405 0.0000
# 6 0.0000 0.0000 0.0000 0.0000 0.0000 30.0602
#
#
#
# Elastic Compliance Matrix: (Units=1/GPa)
#
#
# Indices 1 2 3 4 5 6 
#
# 1 0.014979 -0.003235 -0.004687 0.000000 0.000000 0.000000
# 2 -0.003235 0.014979 -0.004687 0.000000 0.000000 0.000000
# 3 -0.004687 -0.004687 0.016089 0.000000 0.000000 0.000000
# 4 0.000000 0.000000 0.000000 0.045371 0.000000 0.000000
# 5 0.000000 0.000000 0.000000 0.000000 0.045371 0.000000
# 6 0.000000 0.000000 0.000000 0.000000 0.000000 0.033267
#
#
# Mechanical properties :
#
#
# Convention : Reuss Voigt Hill
#
# Bulk Modulus (GPa) = 48.01078 48.01937 48.01508
# Shear Modulus (GPa) = 24.72612 25.10654 24.91633
#
# Velocity S-wave (km/s) = 3.82977 3.85912 3.84447
# Velocity P-wave (km/s) = 6.93076 6.95280 6.94179
#
# Compressibility (1/GPa) = 0.02082865
#
# Stress axis : x y z
#
# Youngs Moduli (GPa) = 66.76220 66.76123 62.15545
#
# Poissons Ratio (x) = 0.21597 0.29131
# Poissons Ratio (y) = 0.21598 0.29131
# Poissons Ratio (z) = 0.31290 0.31290
#
# Static dielectric constant tensor:
#      x y z
#    x 3.270370 0.000000 0.000000 
#    y 0.000000 3.270380 0.000000 
#    z 0.000000 0.000000 3.130500 
# 
# 
# High freq. dielectric constant tensor:
#      x y z
#    x 1.647610 0.000000 0.000000 
#    y 0.000000 1.647610 0.000000 
#    z 0.000000 0.000000 1.634700 
# 
# From -- ./inp_files/7700.got.cif
#   From: 2010.03.12/outbox.cif.g09.slc.cpg/sg98_4_cif.got.tgz:7700.got - 2010.04.08 21:04:41.
