data_PCOD8306063
_publ_section_title
;
Structure prediction by ZEFSAII (Michael W. Deem and Ramdas Pophale) SiO2 
 PCOD8306063
Probable space group: I 4 2 2 
;
_chemical_formula_sum "Si O2"
_cell_formula_units_Z 88
_cell_length_a 31.676468
_cell_length_b 31.676468
_cell_length_c 5.034292
_cell_angle_alpha 90.000000
_cell_angle_beta 90.000000
_cell_angle_gamma 90.000000
_cell_volume 5051.401670
_symmetry_space_group_name_H-M "I 4 2 2 "
_symmetry_group_IT_number 97
_symmetry_cell_setting 'tetragonal'
loop_
_space_group_symop_operation_xyz
x,y,z
-y,x,z
-x,-y,z
y,-x,z
x,-y,-z
-x,y,-z
y,x,-z
-y,-x,-z
1/2+x,1/2+y,1/2+z
1/2-y,1/2+x,1/2+z
1/2-x,1/2-y,1/2+z
1/2+y,1/2-x,1/2+z
1/2+x,1/2-y,1/2-z
1/2-x,1/2+y,1/2-z
1/2+y,1/2+x,1/2-z
1/2-y,1/2-x,1/2-z
loop_
_atom_site_type_symbol
_atom_site_label
_atom_site_fract_x
_atom_site_fract_y
_atom_site_fract_z
Si Si1 0.718085 0.922393 0.793525
Si Si2 0.000000 0.271478 0.500000
Si Si3 0.697317 0.869751 0.278149
Si Si4 0.543691 0.290588 0.610230
Si Si5 0.847642 0.115049 0.740758
Si Si6 0.277975 0.315951 0.757771
O O1 0.701500 0.969092 0.695743
O O2 0.709059 0.887338 0.569730
O O3 0.695548 0.907573 0.063531
O O4 0.767969 0.928670 0.874310
O O5 0.966203 0.244016 0.335305
O O6 0.651324 0.848677 0.250000
O O7 0.731124 0.833386 0.211899
O O8 0.500000 0.308954 0.500000
O O9 0.567639 0.330355 0.734844
O O10 0.880747 0.119254 0.500000
O O11 0.807154 0.143882 0.686470
O O12 0.872725 0.127276 0.000000
O O13 0.290637 0.290637 0.500000
O O14 0.282692 0.282692 0.000000
#
# Coordination Sequence:
#
# PCOD8306063 Si02
#       6
#    16   8  16  16  16  16
#     4  11  21  37  54  77 100 129 189 220 283 314
#     4  10  20  36  62  78 102 132 173 251 260 330
#     4  12  24  36  52  71 107 143 181 233 267 318
#     4  10  21  34  59  81 104 137 176 235 274 334
#     4  10  21  32  50  74 106 139 169 214 278 326
#     4  10  20  32  49  67  92 135 188 229 259 302
#
# _framework density 17.420909000000002
#
# number of rings (size 3 to 8) (size 9 to 14) (size 15 to 20)
#    0.000    1.455    3.636    1.636   10.182    0.727 
#    0.000    0.000    0.000    0.000    0.000    0.000 
#    0.000    0.364    1.091    0.000    0.000   12.727 
#
# Total GULP energy -545304.027414 kJ/mol
# GULP energy per Si atom -12393.273350 kJ/mol
# Density = 1.738126 g / cm^3
# Si number density = 17.420909 Si / 1000 Ang^3
#
#
#
# Elastic Constant Matrix: (Units=GPa)
#
#
# Indices 1 2 3 4 5 6 
#
# 1 71.6953 47.5043 38.1314 0.0000 0.0000 0.0000
# 2 47.5043 71.6913 38.1257 0.0000 0.0000 0.0000
# 3 38.1314 38.1257 91.3801 0.0000 0.0000 0.0000
# 4 0.0000 0.0000 0.0000 19.9005 0.0000 0.0000
# 5 0.0000 0.0000 0.0000 0.0000 19.9048 0.0000
# 6 0.0000 0.0000 0.0000 0.0000 0.0000 22.5656
#
#
#
# Elastic Compliance Matrix: (Units=1/GPa)
#
#
# Indices 1 2 3 4 5 6 
#
# 1 0.026393 -0.014948 -0.004777 0.000000 0.000000 0.000000
# 2 -0.014948 0.026393 -0.004774 0.000000 0.000000 0.000000
# 3 -0.004777 -0.004774 0.014928 0.000000 0.000000 0.000000
# 4 0.000000 0.000000 0.000000 0.050250 0.000000 0.000000
# 5 0.000000 0.000000 0.000000 0.000000 0.050239 0.000000
# 6 0.000000 0.000000 0.000000 0.000000 0.000000 0.044315
#
#
# Mechanical properties :
#
#
# Convention : Reuss Voigt Hill
#
# Bulk Modulus (GPa) = 53.42963 53.58773 53.50868
# Shear Modulus (GPa) = 18.67383 19.87453 19.27418
#
# Velocity S-wave (km/s) = 3.27757 3.38130 3.32984
# Velocity P-wave (km/s) = 6.71265 6.78761 6.75023
#
# Compressibility (1/GPa) = 0.01871621
#
# Stress axis : x y z
#
# Youngs Moduli (GPa) = 37.88894 37.88948 66.98723
#
# Poissons Ratio (x) = 0.56639 0.31997
# Poissons Ratio (y) = 0.56638 0.31978
# Poissons Ratio (z) = 0.18098 0.18088
#
# Static dielectric constant tensor:
#      x y z
#    x 3.107620 0.000000 0.000000 
#    y 0.000000 3.107630 0.000000 
#    z 0.000000 0.000000 3.619510 
# 
# 
# High freq. dielectric constant tensor:
#      x y z
#    x 1.636790 0.000000 0.000000 
#    y 0.000000 1.636790 0.000000 
#    z 0.000000 0.000000 1.703680 
# 
# From -- ./inp_files/1081.got.cif
#   From: 2010.03.12/outbox.cif.g09.slc.cpg/sg97_1_cif.got.tgz:1081.got - 2010.04.08 20:59:42.
