data_PCOD8306456
_publ_section_title
;
Structure prediction by ZEFSAII (Michael W. Deem and Ramdas Pophale) SiO2 
 PCOD8306456
Probable space group: P 4 M M
;
_chemical_formula_sum "Si O2"
_cell_formula_units_Z 64
_cell_length_a 14.101366
_cell_length_b 14.101366
_cell_length_c 20.613547
_cell_angle_alpha 90.000000
_cell_angle_beta 90.000000
_cell_angle_gamma 90.000000
_cell_volume 4098.973376
_symmetry_space_group_name_H-M "P 4 M M"
_symmetry_group_IT_number 99
_symmetry_cell_setting 'tetragonal'
loop_
_space_group_symop_operation_xyz
x,y,z
-y,x,z
-x,-y,z
y,-x,z
-x,y,z
x,-y,z
-y,-x,z
y,x,z
loop_
_atom_site_type_symbol
_atom_site_label
_atom_site_fract_x
_atom_site_fract_y
_atom_site_fract_z
Si Si1 0.111962 0.606583 0.206950
Si Si2 0.110068 0.392133 0.963385
Si Si3 0.112743 0.394621 0.447287
Si Si4 0.104604 0.387485 0.589789
Si Si5 0.732541 0.887787 0.086069
Si Si6 0.761629 0.391607 0.845431
Si Si7 0.887580 0.733027 0.328561
Si Si8 0.390828 0.760305 0.700555
O O1 0.156257 0.500000 0.206999
O O2 0.146442 0.665188 0.144546
O O3 0.143493 0.663100 0.270866
O O4 0.000000 0.596710 0.205071
O O5 0.136830 0.500000 0.983075
O O6 0.159926 0.359662 0.897117
O O7 0.000000 0.383427 0.949122
O O8 0.140635 0.322237 0.020733
O O9 0.152775 0.500000 0.430429
O O10 0.147662 0.361534 0.518849
O O11 0.146025 0.318416 0.394455
O O12 0.000000 0.401039 0.448173
O O13 0.097527 0.500000 0.595940
O O14 0.168641 0.345790 0.647626
O O15 0.000000 0.342647 0.597758
O O16 0.832021 0.832021 0.089230
O O17 0.754815 0.000000 0.089988
O O18 0.732256 0.500000 0.855597
O O19 0.666924 0.333077 0.857553
O O20 0.803202 0.375633 0.772832
O O21 0.832649 0.832649 0.322114
O O22 0.000000 0.754756 0.327196
O O23 0.500000 0.741132 0.685261
O O24 0.340633 0.659368 0.694564
#
# Coordination Sequence:
#
# PCOD8306456 Si02
#       8
#     8   8   8   8   8   8   8   8
#     4   9  17  30  47  64  82 105 135 173 210 237
#     4   9  17  29  45  64  84 107 137 175 217 251
#     4   8  14  26  43  61  81 105 135 175 217 248
#     4   8  14  25  41  60  81 104 132 170 215 255
#     4  10  19  30  45  65  90 118 143 167 198 240
#     4   9  17  28  41  58  81 108 138 171 206 248
#     4  10  19  29  42  62  88 116 143 169 200 243
#     4   9  17  27  39  57  81 109 138 167 202 247
#
# _framework density 15.613664999999999
#
# number of rings (size 3 to 8) (size 9 to 14) (size 15 to 20)
#    0.000    3.000    0.000    2.250    0.000    4.500 
#    0.000    3.750    0.000    2.250    0.000    0.000 
#    0.000   20.000    0.000    2.750    0.000    4.750 
#
# Total GULP energy -793260.225758 kJ/mol
# GULP energy per Si atom -12394.691027 kJ/mol
# Density = 1.557813 g / cm^3
# Si number density = 15.613665 Si / 1000 Ang^3
#
#
#
# Elastic Constant Matrix: (Units=GPa)
#
#
# Indices 1 2 3 4 5 6 
#
# 1 62.4641 39.2689 50.8537 0.0000 0.0000 0.0000
# 2 39.2689 62.4641 50.8537 0.0000 0.0000 0.0000
# 3 50.8537 50.8537 135.1206 0.0000 0.0000 0.0000
# 4 0.0000 0.0000 0.0000 18.3416 0.0000 0.0000
# 5 0.0000 0.0000 0.0000 0.0000 18.3416 0.0000
# 6 0.0000 0.0000 0.0000 0.0000 0.0000 19.1505
#
#
#
# Elastic Compliance Matrix: (Units=1/GPa)
#
#
# Indices 1 2 3 4 5 6 
#
# 1 0.029436 -0.013676 -0.005931 0.000000 0.000000 0.000000
# 2 -0.013676 0.029436 -0.005931 0.000000 0.000000 0.000000
# 3 -0.005931 -0.005931 0.011865 0.000000 0.000000 0.000000
# 4 0.000000 0.000000 0.000000 0.054521 0.000000 0.000000
# 5 0.000000 0.000000 0.000000 0.000000 0.054521 0.000000
# 6 0.000000 0.000000 0.000000 0.000000 0.000000 0.052218
#
#
# Mechanical properties :
#
#
# Convention : Reuss Voigt Hill
#
# Bulk Modulus (GPa) = 50.86648 60.22237 55.54443
# Shear Modulus (GPa) = 17.26356 19.10490 18.18423
#
# Velocity S-wave (km/s) = 3.32877 3.50180 3.41638
# Velocity P-wave (km/s) = 6.88645 7.41648 7.15637
#
# Compressibility (1/GPa) = 0.01965931
#
# Stress axis : x y z
#
# Youngs Moduli (GPa) = 33.97226 33.97226 84.27961
#
# Poissons Ratio (x) = 0.46462 0.49987
# Poissons Ratio (y) = 0.46462 0.49987
# Poissons Ratio (z) = 0.20149 0.20149
#
# Static dielectric constant tensor:
#      x y z
#    x 2.810060 0.000000 0.000000 
#    y 0.000000 2.810060 0.000000 
#    z 0.000000 0.000000 3.350260 
# 
# 
# High freq. dielectric constant tensor:
#      x y z
#    x 1.572770 0.000000 0.000000 
#    y 0.000000 1.572770 0.000000 
#    z 0.000000 0.000000 1.619260 
# 
# From -- ./inp_files/2077.got.cif
#   From: 2010.03.12/outbox.cif.g09.slc.cpg/sg99_cif.got.tgz:2077.got - 2010.04.08 21:11:30.
