data_PCOD8306635
_publ_section_title
;
Structure prediction by ZEFSAII (Michael W. Deem and Ramdas Pophale) SiO2 
 PCOD8306635
Probable space group: P 4 B M
;
_chemical_formula_sum "Si O2"
_cell_formula_units_Z 32
_cell_length_a 16.323009
_cell_length_b 16.323009
_cell_length_c 7.150561
_cell_angle_alpha 90.000000
_cell_angle_beta 90.000000
_cell_angle_gamma 90.000000
_cell_volume 1905.199926
_symmetry_space_group_name_H-M "P 4 B M"
_symmetry_group_IT_number 100
_symmetry_cell_setting 'tetragonal'
loop_
_space_group_symop_operation_xyz
x,y,z
-y,x,z
-x,-y,z
y,-x,z
1/2-x,1/2+y,z
1/2+x,1/2-y,z
1/2-y,1/2-x,z
1/2+y,1/2+x,z
loop_
_atom_site_type_symbol
_atom_site_label
_atom_site_fract_x
_atom_site_fract_y
_atom_site_fract_z
Si Si1 0.213639 0.576618 0.976830
Si Si2 0.286361 0.076619 0.550558
Si Si3 0.561482 0.199120 0.263693
Si Si4 0.328006 0.308143 0.263691
O O1 0.135817 0.635817 0.992089
O O2 0.238042 0.558729 0.763694
O O3 0.189324 0.492196 0.076902
O O4 0.292153 0.617005 0.079288
O O5 0.364188 0.135813 0.535302
O O6 0.207850 0.117014 0.448105
O O7 0.310672 0.992198 0.450482
O O8 0.628547 0.128547 0.263700
O O9 0.600912 0.290505 0.263691
O O10 0.252653 0.247347 0.263675
#
# Coordination Sequence:
#
# PCOD8306635 Si02
#       4
#     8   8   8   8
#     4   9  18  32  48  67  95 128 155 184 229 279
#     4   9  18  32  48  67  95 128 155 184 229 279
#     4  10  19  30  48  74  97 118 152 194 230 270
#     4   8  16  31  48  66  90 121 157 194 226 262
#
# _framework density 16.796137999999999
#
# number of rings (size 3 to 8) (size 9 to 14) (size 15 to 20)
#    0.000    3.000    0.000    2.250    0.000    5.000 
#    0.000    7.500    0.000   12.000    0.000   14.000 
#    0.000    0.000    0.000    0.000    0.000    0.000 
#
# Total GULP energy -396695.139023 kJ/mol
# GULP energy per Si atom -12396.723094 kJ/mol
# Density = 1.675791 g / cm^3
# Si number density = 16.796138 Si / 1000 Ang^3
#
#
#
# Elastic Constant Matrix: (Units=GPa)
#
#
# Indices 1 2 3 4 5 6 
#
# 1 59.9953 51.2256 54.3262 0.0000 0.0000 -0.0003
# 2 51.2256 59.9953 54.3262 0.0000 0.0000 0.0003
# 3 54.3262 54.3262 180.5597 0.0000 0.0000 0.0000
# 4 0.0000 0.0000 0.0000 12.7199 0.0000 0.0000
# 5 0.0000 0.0000 0.0000 0.0000 12.7199 0.0000
# 6 -0.0003 0.0003 0.0000 0.0000 0.0000 22.0785
#
#
#
# Elastic Compliance Matrix: (Units=1/GPa)
#
#
# Indices 1 2 3 4 5 6 
#
# 1 0.063381 -0.050647 -0.003831 0.000000 0.000000 0.000001
# 2 -0.050647 0.063381 -0.003831 0.000000 0.000000 -0.000001
# 3 -0.003831 -0.003831 0.007844 0.000000 0.000000 0.000000
# 4 0.000000 0.000000 0.000000 0.078617 0.000000 0.000000
# 5 0.000000 0.000000 0.000000 0.000000 0.078617 0.000000
# 6 0.000001 -0.000001 0.000000 0.000000 0.000000 0.045293
#
#
# Mechanical properties :
#
#
# Convention : Reuss Voigt Hill
#
# Bulk Modulus (GPa) = 55.59751 68.92293 62.26022
# Shear Modulus (GPa) = 10.87547 18.88179 14.87863
#
# Velocity S-wave (km/s) = 2.54736 3.35651 2.97953
# Velocity P-wave (km/s) = 6.46725 7.49304 6.99896
#
# Compressibility (1/GPa) = 0.01798642
#
# Stress axis : x y z
#
# Youngs Moduli (GPa) = 15.77748 15.77748 127.48809
#
# Poissons Ratio (x) = 0.79909 0.48845
# Poissons Ratio (y) = 0.79909 0.48845
# Poissons Ratio (z) = 0.06045 0.06045
#
# Static dielectric constant tensor:
#      x y z
#    x 3.150720 0.000000 0.000000 
#    y 0.000000 3.150720 0.000000 
#    z 0.000000 0.000000 3.393340 
# 
# 
# High freq. dielectric constant tensor:
#      x y z
#    x 1.632990 0.000000 0.000000 
#    y 0.000000 1.632990 0.000000 
#    z 0.000000 0.000000 1.654660 
# 
# From -- ./inp_files/269.got.cif
#   From: 2010.03.12/outbox.cif.g09.slc.cpg/sg100_cif.got.tgz:269.got - 2010.04.14 01:37:57.
