data_PCOD8306023
_publ_section_title
;
Structure prediction by ZEFSAII (Michael W. Deem and Ramdas Pophale) SiO2 
 PCOD8306023
Probable space group: I 4 2 2 
;
_chemical_formula_sum "Si O2"
_cell_formula_units_Z 120
_cell_length_a 20.256348
_cell_length_b 20.256348
_cell_length_c 15.851081
_cell_angle_alpha 90.000000
_cell_angle_beta 90.000000
_cell_angle_gamma 90.000000
_cell_volume 6504.009759
_symmetry_space_group_name_H-M "I 4 2 2 "
_symmetry_group_IT_number 97
_symmetry_cell_setting 'tetragonal'
loop_
_space_group_symop_operation_xyz
x,y,z
-y,x,z
-x,-y,z
y,-x,z
x,-y,-z
-x,y,-z
y,x,-z
-y,-x,-z
1/2+x,1/2+y,1/2+z
1/2-y,1/2+x,1/2+z
1/2-x,1/2-y,1/2+z
1/2+y,1/2-x,1/2+z
1/2+x,1/2-y,1/2-z
1/2-x,1/2+y,1/2-z
1/2+y,1/2+x,1/2-z
1/2-y,1/2-x,1/2-z
loop_
_atom_site_type_symbol
_atom_site_label
_atom_site_fract_x
_atom_site_fract_y
_atom_site_fract_z
Si Si1 0.396414 0.522921 0.359587
Si Si2 0.422521 0.685026 0.122836
Si Si3 0.232685 0.341782 0.998391
Si Si4 0.763348 0.141207 0.053272
Si Si5 0.703014 0.500000 0.500000
Si Si6 0.152766 0.265574 0.692495
Si Si7 0.155522 0.753562 0.755905
Si Si8 0.940942 0.842853 0.681933
O O1 0.422192 0.450186 0.381143
O O2 0.336367 0.533053 0.422574
O O3 0.382118 0.529571 0.260567
O O4 0.403398 0.731911 0.044116
O O5 0.412174 0.728985 0.207852
O O6 0.499845 0.668208 0.115447
O O7 0.380386 0.616820 0.129753
O O8 0.167620 0.311781 0.042891
O O9 0.282770 0.282770 0.000000
O O10 0.211848 0.359288 0.903357
O O11 0.756348 0.063183 0.033093
O O12 0.783936 0.150131 0.150979
O O13 0.818786 0.181215 0.000000
O O14 0.170049 0.329952 0.750000
O O15 0.212624 0.213501 0.699648
O O16 0.086427 0.226643 0.719752
O O17 0.175454 0.675454 0.750000
#
# Coordination Sequence:
#
# PCOD8306023 Si02
#       8
#    16  16  16  16   8  16  16  16
#     4  11  22  37  51  72 117 166 204 232 275 340
#     4  11  22  36  56  83 115 156 201 239 291 344
#     4  11  19  38  57  80 108 147 189 247 299 344
#     4  11  22  34  56  78 113 152 189 240 297 344
#     4  12  26  33  50  86 114 153 204 244 290 348
#     4  10  21  35  58  81 104 140 191 240 295 342
#     4  10  17  35  54  76 104 144 193 232 288 345
#     4  11  22  35  57  82 114 157 201 244 289 350
#
# _framework density 18.450156
#
# number of rings (size 3 to 8) (size 9 to 14) (size 15 to 20)
#    0.000    1.200    5.333    4.400    7.467    1.333 
#    0.000    0.000    0.000    0.000    0.000    0.000 
#    0.000    4.800    0.000    0.000    0.000    0.000 
#
# Total GULP energy -743414.798166 kJ/mol
# GULP energy per Si atom -12390.246636 kJ/mol
# Density = 1.840816 g / cm^3
# Si number density = 18.450156 Si / 1000 Ang^3
#
#
#
# Elastic Constant Matrix: (Units=GPa)
#
#
# Indices 1 2 3 4 5 6 
#
# 1 73.7071 52.3013 23.7418 0.0000 0.0000 0.0000
# 2 52.3013 73.7066 23.7418 0.0000 0.0000 0.0000
# 3 23.7418 23.7418 110.2119 0.0000 0.0000 0.0000
# 4 0.0000 0.0000 0.0000 21.7841 0.0000 0.0000
# 5 0.0000 0.0000 0.0000 0.0000 21.7841 0.0000
# 6 0.0000 0.0000 0.0000 0.0000 0.0000 -166.2508
#
#
#
# Elastic Compliance Matrix: (Units=1/GPa)
#
#
# Indices 1 2 3 4 5 6 
#
# 1 0.027677 -0.019040 -0.001861 0.000000 0.000000 0.000000
# 2 -0.019040 0.027677 -0.001861 0.000000 0.000000 0.000000
# 3 -0.001861 -0.001861 0.009875 0.000000 0.000000 0.000000
# 4 0.000000 0.000000 0.000000 0.045905 0.000000 0.000000
# 5 0.000000 0.000000 0.000000 0.000000 0.045905 0.000000
# 6 0.000000 0.000000 0.000000 0.000000 0.000000 -0.006015
#
#
# Mechanical properties :
#
#
# Convention : Reuss Voigt Hill
#
# Bulk Modulus (GPa) = 50.74370 50.79949 50.77159
# Shear Modulus (GPa) = 24.61658 -14.01382 5.30138
#
# Velocity S-wave (km/s) = 3.65666 -2.75898 1.69694
# Velocity P-wave (km/s) = 6.73729 4.17658 5.60513
#
# Compressibility (1/GPa) = 0.01970688
#
# Stress axis : x y z
#
# Youngs Moduli (GPa) = 36.13126 36.13099 101.26523
#
# Poissons Ratio (x) = 0.68793 0.18841
# Poissons Ratio (y) = 0.68793 0.18842
# Poissons Ratio (z) = 0.06723 0.06723
#
# Static dielectric constant tensor:
#      x y z
#    x 3.499200 0.000000 0.000000 
#    y 0.000000 3.499200 0.000000 
#    z 0.000000 0.000000 3.742370 
# 
# 
# High freq. dielectric constant tensor:
#      x y z
#    x 1.683420 0.000000 0.000000 
#    y 0.000000 1.683420 0.000000 
#    z 0.000000 0.000000 1.732290 
# 
# From -- ./inp_files/5074.got.cif
#   From: 2010.03.12/outbox.cif.g09.slc.cpg/sg97_3_cif.got.tgz:5074.got - 2010.04.08 20:59:42.
