data_PCOD8306897
_publ_section_title
;
Structure prediction by ZEFSAII (Michael W. Deem and Ramdas Pophale) SiO2 
 PCOD8306897
Probable space group: P 42 N M
;
_chemical_formula_sum "Si O2"
_cell_formula_units_Z 64
_cell_length_a 11.642503
_cell_length_b 11.642503
_cell_length_c 23.126271
_cell_angle_alpha 90.000000
_cell_angle_beta 90.000000
_cell_angle_gamma 90.000000
_cell_volume 3134.716916
_symmetry_space_group_name_H-M "P 42 N M"
_symmetry_group_IT_number 102
_symmetry_cell_setting 'tetragonal'
loop_
_space_group_symop_operation_xyz
x,y,z
1/2-y,1/2+x,1/2+z
-x,-y,z
1/2+y,1/2-x,1/2+z
1/2-x,1/2+y,1/2+z
1/2+x,1/2-y,1/2+z
-y,-x,z
y,x,z
loop_
_atom_site_type_symbol
_atom_site_label
_atom_site_fract_x
_atom_site_fract_y
_atom_site_fract_z
Si Si1 0.547489 0.734855 0.618410
Si Si2 0.184549 0.998525 0.724094
Si Si3 0.815872 0.995865 0.367516
Si Si4 0.454102 0.871497 0.303582
Si Si5 0.841716 0.339401 0.548252
Si Si6 0.238414 0.578343 0.102411
Si Si7 0.237290 0.946757 0.247433
Si Si8 0.101201 0.417836 0.927749
O O1 0.605867 0.605867 0.610307
O O2 0.438566 0.767120 0.579320
O O3 0.645121 0.823188 0.601459
O O4 0.499520 0.757136 0.683921
O O5 0.099520 0.099520 0.744839
O O6 0.274131 0.965829 0.775446
O O7 0.252532 0.031650 0.666842
O O8 0.116406 0.883595 0.709585
O O9 0.882339 0.117662 0.367169
O O10 0.776092 0.964764 0.301509
O O11 0.708423 0.001971 0.410020
O O12 0.895396 0.895396 0.392037
O O13 0.337940 0.859478 0.266028
O O14 0.435547 0.843981 0.371337
O O15 0.500000 0.000000 0.295125
O O16 0.780005 0.219996 0.560798
O O17 0.834226 0.368363 0.480166
O O18 0.974900 0.313766 0.563844
O O19 0.361897 0.638104 0.082891
O O20 0.119746 0.880254 0.239856
O O21 0.000000 0.500000 0.949188
#
# Coordination Sequence:
#
# PCOD8306897 Si02
#       8
#     8   8   8   8   8   8   8   8
#     4  10  21  38  63  89 119 166 207 246 300 362
#     4  10  20  35  57  87 122 155 190 238 296 358
#     4   9  18  34  60  92 120 146 185 248 313 360
#     4  10  20  34  58  88 115 149 193 238 291 350
#     4  12  26  41  61  89 120 161 206 257 308 356
#     4  10  21  39  62  91 123 158 202 250 308 370
#     4   9  17  32  56  85 116 152 191 231 291 361
#     4  10  22  42  60  82 114 158 204 244 294 357
#
# _framework density 20.416516000000001
#
# number of rings (size 3 to 8) (size 9 to 14) (size 15 to 20)
#    0.000    2.000    1.250    2.250    1.750    3.500 
#    0.000    8.125    0.000    0.000    0.000    0.000 
#    0.000    0.000    0.000    0.000    0.000    0.000 
#
# Total GULP energy -792890.776339 kJ/mol
# GULP energy per Si atom -12388.918380 kJ/mol
# Density = 2.037005 g / cm^3
# Si number density = 20.416516 Si / 1000 Ang^3
#
#
#
# Elastic Constant Matrix: (Units=GPa)
#
#
# Indices 1 2 3 4 5 6 
#
# 1 79.1164 23.8058 32.4030 0.0000 0.0000 0.0002
# 2 23.8058 79.1164 32.4030 0.0000 0.0000 -0.0002
# 3 32.4030 32.4030 119.8937 0.0000 0.0000 0.0000
# 4 0.0000 0.0000 0.0000 16.1290 0.0000 0.0000
# 5 0.0000 0.0000 0.0000 0.0000 16.1290 0.0000
# 6 0.0002 -0.0002 0.0000 0.0000 0.0000 24.8917
#
#
#
# Elastic Compliance Matrix: (Units=1/GPa)
#
#
# Indices 1 2 3 4 5 6 
#
# 1 0.014894 -0.003186 -0.003164 0.000000 0.000000 0.000000
# 2 -0.003186 0.014894 -0.003164 0.000000 0.000000 0.000000
# 3 -0.003164 -0.003164 0.010051 0.000000 0.000000 0.000000
# 4 0.000000 0.000000 0.000000 0.062000 0.000000 0.000000
# 5 0.000000 0.000000 0.000000 0.000000 0.062000 0.000000
# 6 0.000000 0.000000 0.000000 0.000000 0.000000 0.040174
#
#
# Mechanical properties :
#
#
# Convention : Reuss Voigt Hill
#
# Bulk Modulus (GPa) = 48.05225 50.59446 49.32336
# Shear Modulus (GPa) = 21.74107 24.06426 22.90267
#
# Velocity S-wave (km/s) = 3.26678 3.43690 3.35292
# Velocity P-wave (km/s) = 6.14949 6.37061 6.26102
#
# Compressibility (1/GPa) = 0.02081068
#
# Stress axis : x y z
#
# Youngs Moduli (GPa) = 67.14049 67.14049 99.49090
#
# Poissons Ratio (x) = 0.21388 0.31483
# Poissons Ratio (y) = 0.21388 0.31483
# Poissons Ratio (z) = 0.21246 0.21246
#
# Static dielectric constant tensor:
#      x y z
#    x 3.734300 0.000000 0.000000 
#    y 0.000000 3.734300 0.000000 
#    z 0.000000 0.000000 3.791480 
# 
# 
# High freq. dielectric constant tensor:
#      x y z
#    x 1.788960 0.000000 0.000000 
#    y 0.000000 1.788960 0.000000 
#    z 0.000000 0.000000 1.794460 
# 
# From -- ./inp_files/3438.got.cif
#   From: 2010.03.12/outbox.cif.g09.slc.cpg/sg102_2_cif.got.tgz:3438.got - 2010.04.14 01:40:42.
