data_PCOD8306944
_publ_section_title
;
Structure prediction by ZEFSAII (Michael W. Deem and Ramdas Pophale) SiO2 
 PCOD8306944
Probable space group: P 42 N M
;
_chemical_formula_sum "Si O2"
_cell_formula_units_Z 40
_cell_length_a 14.496002
_cell_length_b 14.496002
_cell_length_c 9.072704
_cell_angle_alpha 90.000000
_cell_angle_beta 90.000000
_cell_angle_gamma 90.000000
_cell_volume 1906.484254
_symmetry_space_group_name_H-M "P 42 N M"
_symmetry_group_IT_number 102
_symmetry_cell_setting 'tetragonal'
loop_
_space_group_symop_operation_xyz
x,y,z
1/2-y,1/2+x,1/2+z
-x,-y,z
1/2+y,1/2-x,1/2+z
1/2-x,1/2+y,1/2+z
1/2+x,1/2-y,1/2+z
-y,-x,z
y,x,z
loop_
_atom_site_type_symbol
_atom_site_label
_atom_site_fract_x
_atom_site_fract_y
_atom_site_fract_z
Si Si1 0.254920 0.975125 0.402260
Si Si2 0.813609 0.332007 0.962058
Si Si3 0.923026 0.076975 0.223786
Si Si4 0.558847 0.763863 0.226882
Si Si5 0.424936 0.424936 0.378467
Si Si6 0.924227 0.422058 0.205664
O O1 0.175087 0.950481 0.289792
O O2 0.247854 0.917725 0.554357
O O3 0.357289 0.959520 0.336833
O O4 0.244611 0.082242 0.444684
O O5 0.754670 0.245331 0.025545
O O6 0.850715 0.308202 0.799576
O O7 0.900965 0.356500 0.066132
O O8 0.909343 0.090658 0.051090
O O9 0.000000 0.000000 0.261056
O O10 0.537188 0.668076 0.306415
O O11 0.470747 0.829272 0.252518
O O12 0.500000 0.500000 0.343304
O O13 0.000000 0.500000 0.164182
#
# Coordination Sequence:
#
# PCOD8306944 Si02
#       6
#     8   8   4   8   4   8
#     4  11  25  42  69 101 138 182 232 286 352 416
#     4  11  24  43  69  98 139 186 231 288 351 414
#     4  11  25  47  71  99 135 186 233 290 351 423
#     4  11  24  40  67  98 137 179 226 288 343 413
#     4  11  25  47  69  95 135 186 235 290 353 417
#     4  11  25  43  68 103 141 183 232 288 351 417
#
# _framework density 20.981028999999999
#
# number of rings (size 3 to 8) (size 9 to 14) (size 15 to 20)
#    0.000    1.000    3.000    2.400    7.000    6.400 
#    0.000    0.000    0.000    0.000    0.000    0.000 
#    0.000    0.000    0.000    0.000    0.000    0.000 
#
# Total GULP energy -496047.300735 kJ/mol
# GULP energy per Si atom -12401.182518 kJ/mol
# Density = 2.093327 g / cm^3
# Si number density = 20.981029 Si / 1000 Ang^3
#
#
#
# Elastic Constant Matrix: (Units=GPa)
#
#
# Indices 1 2 3 4 5 6 
#
# 1 122.7762 54.5924 61.3468 0.0000 0.0000 -0.0003
# 2 54.5924 122.7762 61.3468 0.0000 0.0000 0.0003
# 3 61.3468 61.3468 130.7111 0.0000 0.0000 0.0000
# 4 0.0000 0.0000 0.0000 36.0365 0.0000 0.0000
# 5 0.0000 0.0000 0.0000 0.0000 36.0365 0.0000
# 6 -0.0003 0.0003 0.0000 0.0000 0.0000 40.7900
#
#
#
# Elastic Compliance Matrix: (Units=1/GPa)
#
#
# Indices 1 2 3 4 5 6 
#
# 1 0.011507 -0.003159 -0.003918 0.000000 0.000000 0.000000
# 2 -0.003159 0.011507 -0.003918 0.000000 0.000000 0.000000
# 3 -0.003918 -0.003918 0.011328 0.000000 0.000000 0.000000
# 4 0.000000 0.000000 0.000000 0.027750 0.000000 0.000000
# 5 0.000000 0.000000 0.000000 0.000000 0.027750 0.000000
# 6 0.000000 0.000000 0.000000 0.000000 0.000000 0.024516
#
#
# Mechanical properties :
#
#
# Convention : Reuss Voigt Hill
#
# Bulk Modulus (GPa) = 80.95600 81.20392 81.07996
# Shear Modulus (GPa) = 35.59583 35.83774 35.71679
#
# Velocity S-wave (km/s) = 4.12342 4.13740 4.13042
# Velocity P-wave (km/s) = 7.83193 7.84931 7.84063
#
# Compressibility (1/GPa) = 0.01235239
#
# Stress axis : x y z
#
# Youngs Moduli (GPa) = 86.90150 86.90150 88.27483
#
# Poissons Ratio (x) = 0.27452 0.34587
# Poissons Ratio (y) = 0.27452 0.34587
# Poissons Ratio (z) = 0.34049 0.34049
#
# Static dielectric constant tensor:
#      x y z
#    x 3.937410 0.000000 0.000000 
#    y 0.000000 3.937410 0.000000 
#    z 0.000000 0.000000 3.917280 
# 
# 
# High freq. dielectric constant tensor:
#      x y z
#    x 1.827290 0.000000 0.000000 
#    y 0.000000 1.827290 0.000000 
#    z 0.000000 0.000000 1.827720 
# 
# From -- ./inp_files/949.got.cif
#   From: 2010.03.12/outbox.cif.g09.slc.cpg/sg102_1_cif.got.tgz:949.got - 2010.04.14 01:40:42.
