data_PCOD8306771
_publ_section_title
;
Structure prediction by ZEFSAII (Michael W. Deem and Ramdas Pophale) SiO2 
 PCOD8306771
Probable space group: P 42 C M
;
_chemical_formula_sum "Si O2"
_cell_formula_units_Z 64
_cell_length_a 11.953856
_cell_length_b 11.953856
_cell_length_c 22.795796
_cell_angle_alpha 90.000000
_cell_angle_beta 90.000000
_cell_angle_gamma 90.000000
_cell_volume 3257.397821
_symmetry_space_group_name_H-M "P 42 C M"
_symmetry_group_IT_number 101
_symmetry_cell_setting 'tetragonal'
loop_
_space_group_symop_operation_xyz
x,y,z
-y,x,1/2+z
-x,-y,z
y,-x,1/2+z
-x,y,1/2+z
x,-y,1/2+z
-y,-x,z
y,x,z
loop_
_atom_site_type_symbol
_atom_site_label
_atom_site_fract_x
_atom_site_fract_y
_atom_site_fract_z
Si Si1 0.164910 0.347154 0.633950
Si Si2 0.874942 0.543742 0.061956
Si Si3 0.258781 0.076561 0.839025
Si Si4 0.434639 0.115410 0.929249
Si Si5 0.321652 0.500947 0.354021
Si Si6 0.074012 0.748387 0.635959
Si Si7 0.831958 0.547149 0.758705
Si Si8 0.122643 0.703701 0.768291
O O1 0.269119 0.269119 0.644090
O O2 0.195437 0.434513 0.581949
O O3 0.155640 0.427169 0.690489
O O4 0.056757 0.268746 0.619083
O O5 0.854791 0.650228 0.104173
O O6 0.000000 0.500000 0.068874
O O7 0.843281 0.577675 0.995927
O O8 0.143764 0.143764 0.833699
O O9 0.310020 0.094476 0.903866
O O10 0.348804 0.115607 0.791693
O O11 0.237462 0.948125 0.820853
O O12 0.501691 0.208733 0.892440
O O13 0.500000 0.000000 0.924962
O O14 0.402536 0.597465 0.378719
O O15 0.380820 0.380820 0.358840
O O16 0.292747 0.529089 0.285718
O O17 0.131792 0.868209 0.617353
O O18 0.077234 0.741168 0.705596
O O19 0.892702 0.429606 0.772639
O O20 0.250262 0.749739 0.775528
#
# Coordination Sequence:
#
# PCOD8306771 Si02
#       8
#     8   8   8   8   8   8   8   8
#     4  11  21  35  58  86 116 150 189 242 294 339
#     4   9  20  38  59  84 113 150 201 240 273 331
#     4  11  22  35  57  88 116 148 189 233 287 343
#     4  10  20  37  60  85 112 151 196 239 280 332
#     4  10  21  36  55  80 111 147 186 233 290 346
#     4  10  21  36  56  83 116 155 193 231 282 341
#     4  11  19  34  55  79 113 150 191 233 280 342
#     4  11  22  35  56  84 116 153 187 233 287 337
#
# _framework density 19.647586
#
# number of rings (size 3 to 8) (size 9 to 14) (size 15 to 20)
#    0.000    1.625    2.500    4.500    0.000    2.000 
#    0.000    1.250    0.000    4.125    0.000    5.250 
#    0.000    0.000    0.000    0.000    0.000    0.000 
#
# Total GULP energy -792960.515570 kJ/mol
# GULP energy per Si atom -12390.008056 kJ/mol
# Density = 1.960287 g / cm^3
# Si number density = 19.647586 Si / 1000 Ang^3
#
#
#
# Elastic Constant Matrix: (Units=GPa)
#
#
# Indices 1 2 3 4 5 6 
#
# 1 82.4061 30.9112 30.1955 0.0000 0.0000 -0.0001
# 2 30.9112 82.4061 30.1955 0.0000 0.0000 0.0001
# 3 30.1955 30.1955 100.8261 0.0000 0.0000 0.0000
# 4 0.0000 0.0000 0.0000 13.8639 0.0000 0.0000
# 5 0.0000 0.0000 0.0000 0.0000 13.8639 0.0000
# 6 -0.0001 0.0001 0.0000 0.0000 0.0000 34.1151
#
#
#
# Elastic Compliance Matrix: (Units=1/GPa)
#
#
# Indices 1 2 3 4 5 6 
#
# 1 0.014960 -0.004459 -0.003145 0.000000 0.000000 0.000000
# 2 -0.004459 0.014960 -0.003145 0.000000 0.000000 0.000000
# 3 -0.003145 -0.003145 0.011802 0.000000 0.000000 0.000000
# 4 0.000000 0.000000 0.000000 0.072130 0.000000 0.000000
# 5 0.000000 0.000000 0.000000 0.000000 0.072130 0.000000
# 6 0.000000 0.000000 0.000000 0.000000 0.000000 0.029313
#
#
# Mechanical properties :
#
#
# Convention : Reuss Voigt Hill
#
# Bulk Modulus (GPa) = 49.44604 49.80473 49.62539
# Shear Modulus (GPa) = 20.53114 23.99101 22.26107
#
# Velocity S-wave (km/s) = 3.23611 3.49817 3.36969
# Velocity P-wave (km/s) = 6.25974 6.45913 6.36021
#
# Compressibility (1/GPa) = 0.02022407
#
# Stress axis : x y z
#
# Youngs Moduli (GPa) = 66.84467 66.84467 84.73387
#
# Poissons Ratio (x) = 0.29808 0.26647
# Poissons Ratio (y) = 0.29808 0.26647
# Poissons Ratio (z) = 0.21021 0.21021
#
# Static dielectric constant tensor:
#      x y z
#    x 3.677530 0.000000 0.000000 
#    y 0.000000 3.677530 0.000000 
#    z 0.000000 0.000000 3.691670 
# 
# 
# High freq. dielectric constant tensor:
#      x y z
#    x 1.759300 0.000000 0.000000 
#    y 0.000000 1.759300 0.000000 
#    z 0.000000 0.000000 1.752940 
# 
# From -- ./inp_files/2800.got.cif
#   From: 2010.03.12/outbox.cif.g09.slc.cpg/sg101_2_cif.got.tgz:2800.got - 2010.04.14 01:38:52.
