data_PCOD8306259
_publ_section_title
;
Structure prediction by ZEFSAII (Michael W. Deem and Ramdas Pophale) SiO2 
 PCOD8306259
Probable space group: I 41 2 2
;
_chemical_formula_sum "Si O2"
_cell_formula_units_Z 64
_cell_length_a 23.770475
_cell_length_b 23.770475
_cell_length_c 5.496467
_cell_angle_alpha 90.000000
_cell_angle_beta 90.000000
_cell_angle_gamma 90.000000
_cell_volume 3105.698879
_symmetry_space_group_name_H-M "I 41 2 2"
_symmetry_group_IT_number 98
_symmetry_cell_setting 'tetragonal'
loop_
_space_group_symop_operation_xyz
x,y,z
-y,1/2+x,1/4+z
-x,-y,z
y,1/2-x,1/4+z
x,1/2-y,1/4-z
-x,1/2+y,1/4-z
y,x,-z
-y,-x,-z
1/2+x,1/2+y,1/2+z
1/2-y,x,3/4+z
1/2-x,1/2-y,1/2+z
1/2+y,-x,3/4+z
1/2+x,-y,3/4-z
1/2-x,y,3/4-z
1/2+y,1/2+x,1/2-z
1/2-y,1/2-x,1/2-z
loop_
_atom_site_type_symbol
_atom_site_label
_atom_site_fract_x
_atom_site_fract_y
_atom_site_fract_z
Si Si1 0.750000 0.038514 0.875000
Si Si2 0.954608 0.694571 0.496475
Si Si3 0.515997 0.597202 0.888153
Si Si4 0.889551 0.889551 0.000000
Si Si5 0.097711 0.859296 0.257424
O O1 0.794868 0.076548 0.732137
O O2 0.711884 0.001006 0.699013
O O3 0.932623 0.750000 0.625000
O O4 0.983285 0.648246 0.668656
O O5 0.895893 0.668639 0.395155
O O6 0.555848 0.612129 0.666776
O O7 0.452576 0.594265 0.785563
O O8 0.537758 0.537758 0.000000
O O9 0.136281 0.863720 0.500000
O O10 0.129253 0.870748 0.000000
#
# Coordination Sequence:
#
# PCOD8306259 Si02
#       5
#     8  16  16   8  16
#     4  12  24  44  68  94 140 178 234 292 352 406
#     4  11  19  36  66  92 135 186 230 285 334 410
#     4  10  22  38  59  94 144 177 213 272 347 417
#     4  10  20  36  59 100 134 176 232 272 346 410
#     4  12  27  44  67 102 134 183 237 285 348 420
#
# _framework density 20.607278999999998
#
# number of rings (size 3 to 8) (size 9 to 14) (size 15 to 20)
#    0.000    1.000    5.000    1.500    3.500    0.500 
#    0.000    0.000    0.000    1.500    0.000    0.000 
#  423.750    0.000    0.000    0.000    0.000    0.000 
#
# Total GULP energy -396546.965037 kJ/mol
# GULP energy per Si atom -12392.092657 kJ/mol
# Density = 2.056038 g / cm^3
# Si number density = 20.607279 Si / 1000 Ang^3
#
#
#
# Elastic Constant Matrix: (Units=GPa)
#
#
# Indices 1 2 3 4 5 6 
#
# 1 107.8319 19.7651 43.3221 0.0000 0.0000 0.0000
# 2 19.7651 107.8292 43.3221 0.0000 0.0000 0.0000
# 3 43.3221 43.3221 136.3593 0.0000 0.0000 0.0000
# 4 0.0000 0.0000 0.0000 49.0128 0.0000 0.0000
# 5 0.0000 0.0000 0.0000 0.0000 49.0151 0.0000
# 6 0.0000 0.0000 0.0000 0.0000 0.0000 27.2573
#
#
#
# Elastic Compliance Matrix: (Units=1/GPa)
#
#
# Indices 1 2 3 4 5 6 
#
# 1 0.010674 -0.000681 -0.003175 0.000000 0.000000 0.000000
# 2 -0.000681 0.010674 -0.003175 0.000000 0.000000 0.000000
# 3 -0.003175 -0.003175 0.009351 0.000000 0.000000 0.000000
# 4 0.000000 0.000000 0.000000 0.020403 0.000000 0.000000
# 5 0.000000 0.000000 0.000000 0.000000 0.020402 0.000000
# 6 0.000000 0.000000 0.000000 0.000000 0.000000 0.036687
#
#
# Mechanical properties :
#
#
# Convention : Reuss Voigt Hill
#
# Bulk Modulus (GPa) = 60.10437 62.75989 61.43213
# Shear Modulus (GPa) = 39.12397 41.43112 40.27755
#
# Velocity S-wave (km/s) = 4.36196 4.48873 4.42580
# Velocity P-wave (km/s) = 7.38910 7.57537 7.48282
#
# Compressibility (1/GPa) = 0.01663772
#
# Stress axis : x y z
#
# Youngs Moduli (GPa) = 93.68530 93.68270 106.94134
#
# Poissons Ratio (x) = 0.06380 0.33952
# Poissons Ratio (y) = 0.06380 0.33953
# Poissons Ratio (z) = 0.29744 0.29744
#
# Static dielectric constant tensor:
#      x y z
#    x 3.655640 0.000000 0.000000 
#    y 0.000000 3.655640 0.000000 
#    z 0.000000 0.000000 4.150250 
# 
# 
# High freq. dielectric constant tensor:
#      x y z
#    x 1.789280 0.000000 0.000000 
#    y 0.000000 1.789280 0.000000 
#    z 0.000000 0.000000 1.831360 
# 
# From -- ./inp_files/1406.got.cif
#   From: 2010.03.12/outbox.cif.g09.slc.cpg/sg98_1_cif.got.tgz:1406.got - 2010.04.08 21:04:41.
