data_PCOD8306853
_publ_section_title
;
Structure prediction by ZEFSAII (Michael W. Deem and Ramdas Pophale) SiO2 
 PCOD8306853
Probable space group: P 42 N M
;
_chemical_formula_sum "Si O2"
_cell_formula_units_Z 64
_cell_length_a 19.979173
_cell_length_b 19.979173
_cell_length_c 9.005562
_cell_angle_alpha 90.000000
_cell_angle_beta 90.000000
_cell_angle_gamma 90.000000
_cell_volume 3594.726353
_symmetry_space_group_name_H-M "P 42 N M"
_symmetry_group_IT_number 102
_symmetry_cell_setting 'tetragonal'
loop_
_space_group_symop_operation_xyz
x,y,z
1/2-y,1/2+x,1/2+z
-x,-y,z
1/2+y,1/2-x,1/2+z
1/2-x,1/2+y,1/2+z
1/2+x,1/2-y,1/2+z
-y,-x,z
y,x,z
loop_
_atom_site_type_symbol
_atom_site_label
_atom_site_fract_x
_atom_site_fract_y
_atom_site_fract_z
Si Si1 0.391145 0.501103 0.537210
Si Si2 0.432060 0.838241 0.497214
Si Si3 0.697695 0.412432 0.023623
Si Si4 0.023949 0.573474 0.182469
Si Si5 0.332906 0.946759 0.427513
Si Si6 0.495782 0.392200 0.202177
Si Si7 0.551228 0.175377 0.169297
Si Si8 0.766096 0.978626 0.232381
O O1 0.426472 0.573529 0.558355
O O2 0.443782 0.443782 0.578027
O O3 0.364237 0.492346 0.369666
O O4 0.328716 0.491836 0.645307
O O5 0.480389 0.897945 0.548207
O O6 0.357534 0.870282 0.463502
O O7 0.460685 0.809582 0.342876
O O8 0.434999 0.780730 0.621235
O O9 0.651455 0.348546 0.052582
O O10 0.666039 0.480857 0.091467
O O11 0.768819 0.398307 0.103112
O O12 0.708555 0.423873 0.849821
O O13 0.012159 0.609244 0.340942
O O14 0.102121 0.582000 0.141702
O O15 0.000000 0.500000 0.213486
O O16 0.317773 0.980394 0.585420
O O17 0.269483 0.957614 0.314986
O O18 0.548421 0.451580 0.198724
O O19 0.423342 0.423342 0.154655
#
# Coordination Sequence:
#
# PCOD8306853 Si02
#       8
#     8   8   8   8   8   8   8   8
#     4   9  17  31  54  81 105 133 174 225 275 318
#     4  10  20  33  51  75 108 138 174 218 267 314
#     4  10  20  34  50  73 107 141 177 222 267 316
#     4  10  19  30  51  77 111 135 167 217 275 314
#     4   9  20  32  47  76 107 138 172 213 269 318
#     4   8  15  29  51  78 104 131 169 218 271 322
#     4  10  20  30  50  77 103 137 173 213 263 316
#     4  10  20  33  50  76 107 139 178 219 270 324
#
# _framework density 17.803858999999999
#
# number of rings (size 3 to 8) (size 9 to 14) (size 15 to 20)
#    0.000    2.500    1.250    1.875    3.500    1.500 
#    0.000    1.875    0.000    8.250    0.000   14.000 
#    0.000    0.000    0.000    0.000    0.000    0.000 
#
# Total GULP energy -793024.444160 kJ/mol
# GULP energy per Si atom -12391.006940 kJ/mol
# Density = 1.776334 g / cm^3
# Si number density = 17.803859 Si / 1000 Ang^3
#
#
#
# Elastic Constant Matrix: (Units=GPa)
#
#
# Indices 1 2 3 4 5 6 
#
# 1 86.6908 35.0297 41.0335 0.0000 0.0000 -0.0001
# 2 35.0297 86.6908 41.0335 0.0000 0.0000 0.0001
# 3 41.0335 41.0335 118.3644 0.0000 0.0000 0.0000
# 4 0.0000 0.0000 0.0000 24.3445 0.0000 0.0000
# 5 0.0000 0.0000 0.0000 0.0000 24.3445 0.0000
# 6 -0.0001 0.0001 0.0000 0.0000 0.0000 19.3848
#
#
#
# Elastic Compliance Matrix: (Units=1/GPa)
#
#
# Indices 1 2 3 4 5 6 
#
# 1 0.015039 -0.004318 -0.003717 0.000000 0.000000 0.000000
# 2 -0.004318 0.015039 -0.003717 0.000000 0.000000 0.000000
# 3 -0.003717 -0.003717 0.011026 0.000000 0.000000 0.000000
# 4 0.000000 0.000000 0.000000 0.041077 0.000000 0.000000
# 5 0.000000 0.000000 0.000000 0.000000 0.041077 0.000000
# 6 0.000000 0.000000 0.000000 0.000000 0.000000 0.051587
#
#
# Mechanical properties :
#
#
# Convention : Reuss Voigt Hill
#
# Bulk Modulus (GPa) = 56.81422 58.43768 57.62595
# Shear Modulus (GPa) = 24.48402 25.25804 24.87103
#
# Velocity S-wave (km/s) = 3.71240 3.77063 3.74163
# Velocity P-wave (km/s) = 7.09622 7.20077 7.14869
#
# Compressibility (1/GPa) = 0.01760123
#
# Stress axis : x y z
#
# Youngs Moduli (GPa) = 66.49278 66.49278 90.69860
#
# Poissons Ratio (x) = 0.28710 0.33711
# Poissons Ratio (y) = 0.28710 0.33711
# Poissons Ratio (z) = 0.24714 0.24714
#
# Static dielectric constant tensor:
#      x y z
#    x 3.334500 0.000000 0.000000 
#    y 0.000000 3.334500 0.000000 
#    z 0.000000 0.000000 3.511110 
# 
# 
# High freq. dielectric constant tensor:
#      x y z
#    x 1.666110 0.000000 0.000000 
#    y 0.000000 1.666110 0.000000 
#    z 0.000000 0.000000 1.707520 
# 
# From -- ./inp_files/1208.got.cif
#   From: 2010.03.12/outbox.cif.g09.slc.cpg/sg102_1_cif.got.tgz:1208.got - 2010.04.14 01:40:42.
