data_PCOD8306642
_publ_section_title
;
Structure prediction by ZEFSAII (Michael W. Deem and Ramdas Pophale) SiO2 
 PCOD8306642
Probable space group: P 4 B M
;
_chemical_formula_sum "Si O2"
_cell_formula_units_Z 40
_cell_length_a 14.769249
_cell_length_b 14.769249
_cell_length_c 9.393477
_cell_angle_alpha 90.000000
_cell_angle_beta 90.000000
_cell_angle_gamma 90.000000
_cell_volume 2049.005864
_symmetry_space_group_name_H-M "P 4 B M"
_symmetry_group_IT_number 100
_symmetry_cell_setting 'tetragonal'
loop_
_space_group_symop_operation_xyz
x,y,z
-y,x,z
-x,-y,z
y,-x,z
1/2-x,1/2+y,z
1/2+x,1/2-y,z
1/2-y,1/2-x,z
1/2+y,1/2+x,z
loop_
_atom_site_type_symbol
_atom_site_label
_atom_site_fract_x
_atom_site_fract_y
_atom_site_fract_z
Si Si1 0.478840 0.172125 0.460360
Si Si2 0.260635 0.904667 0.219290
Si Si3 0.239366 0.404667 0.701429
Si Si4 0.972218 0.850784 0.960361
Si Si5 0.183325 0.165701 0.460360
O O1 0.413212 0.086789 0.460360
O O2 0.537257 0.169497 0.316042
O O3 0.537257 0.169498 0.604679
O O4 0.429794 0.268741 0.460359
O O5 0.318417 0.818417 0.160178
O O6 0.175628 0.875555 0.317506
O O7 0.216363 0.962760 0.093957
O O8 0.181583 0.318418 0.760540
O O9 0.283637 0.462759 0.826764
O O10 0.324373 0.375556 0.603214
O O11 0.071950 0.894861 0.960360
O O12 0.252149 0.247852 0.460361
#
# Coordination Sequence:
#
# PCOD8306642 Si02
#       5
#     8   8   8   8   8
#     4  10  19  34  58  84 109 139 179 224 266 316
#     4  10  20  35  55  79 111 146 178 218 269 323
#     4  10  20  35  55  79 111 146 178 218 269 323
#     4  11  23  38  56  79 107 141 184 229 268 309
#     4   8  16  31  52  78 106 141 180 213 256 313
#
# _framework density 19.521663
#
# number of rings (size 3 to 8) (size 9 to 14) (size 15 to 20)
#    0.000    2.200    0.000    4.800    0.000    1.600 
#    0.000    3.000    0.000   12.000    0.000    0.000 
#    0.000    0.000    0.000    0.000    0.000    0.000 
#
# Total GULP energy -495806.233275 kJ/mol
# GULP energy per Si atom -12395.155832 kJ/mol
# Density = 1.947723 g / cm^3
# Si number density = 19.521663 Si / 1000 Ang^3
#
#
#
# Elastic Constant Matrix: (Units=GPa)
#
#
# Indices 1 2 3 4 5 6 
#
# 1 79.1851 31.2128 34.2356 0.0000 0.0000 -0.0001
# 2 31.2128 79.1851 34.2356 0.0000 0.0000 0.0001
# 3 34.2356 34.2356 122.0232 0.0000 0.0000 0.0000
# 4 0.0000 0.0000 0.0000 10.1794 0.0000 0.0000
# 5 0.0000 0.0000 0.0000 0.0000 10.1794 0.0000
# 6 -0.0001 0.0001 0.0000 0.0000 0.0000 46.1974
#
#
#
# Elastic Compliance Matrix: (Units=1/GPa)
#
#
# Indices 1 2 3 4 5 6 
#
# 1 0.015906 -0.004939 -0.003077 0.000000 0.000000 0.000000
# 2 -0.004939 0.015906 -0.003077 0.000000 0.000000 0.000000
# 3 -0.003077 -0.003077 0.009922 0.000000 0.000000 0.000000
# 4 0.000000 0.000000 0.000000 0.098238 0.000000 0.000000
# 5 0.000000 0.000000 0.000000 0.000000 0.098238 0.000000
# 6 0.000000 0.000000 0.000000 0.000000 0.000000 0.021646
#
#
# Mechanical properties :
#
#
# Convention : Reuss Voigt Hill
#
# Bulk Modulus (GPa) = 51.15795 53.30683 52.23239
# Shear Modulus (GPa) = 17.32761 25.35853 21.34307
#
# Velocity S-wave (km/s) = 2.98251 3.60807 3.31010
# Velocity P-wave (km/s) = 6.17439 6.68755 6.43609
#
# Compressibility (1/GPa) = 0.01954731
#
# Stress axis : x y z
#
# Youngs Moduli (GPa) = 62.86969 62.86969 100.78951
#
# Poissons Ratio (x) = 0.31054 0.31011
# Poissons Ratio (y) = 0.31054 0.31011
# Poissons Ratio (z) = 0.19344 0.19344
#
# Static dielectric constant tensor:
#      x y z
#    x 3.555330 0.000000 0.000000 
#    y 0.000000 3.555330 0.000000 
#    z 0.000000 0.000000 3.472570 
# 
# 
# High freq. dielectric constant tensor:
#      x y z
#    x 1.757970 0.000000 0.000000 
#    y 0.000000 1.757970 0.000000 
#    z 0.000000 0.000000 1.754930 
# 
# From -- ./inp_files/768.got.cif
#   From: 2010.03.12/outbox.cif.g09.slc.cpg/sg100_cif.got.tgz:768.got - 2010.04.14 01:37:57.
