data_PCOD8306937
_publ_section_title
;
Structure prediction by ZEFSAII (Michael W. Deem and Ramdas Pophale) SiO2 
 PCOD8306937
Probable space group: P 42 N M
;
_chemical_formula_sum "Si O2"
_cell_formula_units_Z 52
_cell_length_a 18.495886
_cell_length_b 18.495886
_cell_length_c 7.533015
_cell_angle_alpha 90.000000
_cell_angle_beta 90.000000
_cell_angle_gamma 90.000000
_cell_volume 2577.027851
_symmetry_space_group_name_H-M "P 42 N M"
_symmetry_group_IT_number 102
_symmetry_cell_setting 'tetragonal'
loop_
_space_group_symop_operation_xyz
x,y,z
1/2-y,1/2+x,1/2+z
-x,-y,z
1/2+y,1/2-x,1/2+z
1/2-x,1/2+y,1/2+z
1/2+x,1/2-y,1/2+z
-y,-x,z
y,x,z
loop_
_atom_site_type_symbol
_atom_site_label
_atom_site_fract_x
_atom_site_fract_y
_atom_site_fract_z
Si Si1 0.968542 0.285213 0.528210
Si Si2 0.186231 0.186231 0.932257
Si Si3 0.338485 0.122686 0.933675
Si Si4 0.602268 0.397733 0.727665
Si Si5 0.330043 0.448906 0.727656
Si Si6 0.377313 0.838484 0.021641
Si Si7 0.785211 0.531459 0.427100
Si Si8 0.686228 0.313773 0.023076
O O1 0.906387 0.345556 0.538272
O O2 0.947229 0.218981 0.403129
O O3 0.982233 0.255322 0.727655
O O4 0.041562 0.322461 0.455114
O O5 0.269495 0.172174 0.977187
O O6 0.168067 0.168067 0.727668
O O7 0.135732 0.135732 0.050185
O O8 0.358334 0.124197 0.727657
O O9 0.322462 0.041560 0.000197
O O10 0.616497 0.483007 0.727660
O O11 0.635728 0.364273 0.905156
O O12 0.376033 0.376033 0.727658
O O13 0.281023 0.447231 0.552178
O O14 0.327827 0.769491 0.978138
O O15 0.345552 0.906383 0.917041
#
# Coordination Sequence:
#
# PCOD8306937 Si02
#       8
#     8   4   8   4   8   8   8   4
#     4  11  25  42  66  97 135 174 219 270 331 390
#     4  10  22  39  65  95 128 166 225 273 325 385
#     4  10  22  41  64  95 131 173 219 273 324 391
#     4  12  23  44  76  90 128 184 214 265 336 398
#     4  12  27  46  66 100 135 169 223 279 322 395
#     4  10  22  41  64  95 131 173 219 273 324 391
#     4  11  25  42  66  97 135 174 219 270 331 390
#     4  10  22  39  65  95 128 166 225 273 325 385
#
# _framework density 20.178286
#
# number of rings (size 3 to 8) (size 9 to 14) (size 15 to 20)
#    0.000    1.231    4.615    0.231    6.462    1.231 
#    0.000    3.077    0.000    2.769    0.000    0.000 
#    0.000    0.000    0.000    0.000    0.000    0.000 
#
# Total GULP energy -645051.556281 kJ/mol
# GULP energy per Si atom -12404.837621 kJ/mol
# Density = 2.013236 g / cm^3
# Si number density = 20.178286 Si / 1000 Ang^3
#
#
#
# Elastic Constant Matrix: (Units=GPa)
#
#
# Indices 1 2 3 4 5 6 
#
# 1 117.4808 107.8566 39.9409 0.0000 0.0000 0.0030
# 2 107.8566 117.4808 39.9409 0.0000 0.0000 -0.0030
# 3 39.9409 39.9409 91.0154 0.0000 0.0000 0.0000
# 4 0.0000 0.0000 0.0000 12.4273 0.0000 0.0000
# 5 0.0000 0.0000 0.0000 0.0000 12.4273 0.0000
# 6 0.0030 -0.0030 0.0000 0.0000 0.0000 45.6997
#
#
#
# Elastic Compliance Matrix: (Units=1/GPa)
#
#
# Indices 1 2 3 4 5 6 
#
# 1 0.054580 -0.049325 -0.002306 0.000000 0.000000 -0.000007
# 2 -0.049325 0.054580 -0.002306 0.000000 0.000000 0.000007
# 3 -0.002306 -0.002306 0.013011 0.000000 0.000000 0.000000
# 4 0.000000 0.000000 0.000000 0.080468 0.000000 0.000000
# 5 0.000000 0.000000 0.000000 0.000000 0.080468 0.000000
# 6 -0.000007 0.000007 0.000000 0.000000 0.000000 0.021882
#
#
# Mechanical properties :
#
#
# Convention : Reuss Voigt Hill
#
# Bulk Modulus (GPa) = 69.94467 77.93931 73.94199
# Shear Modulus (GPa) = 11.97230 23.32676 17.64953
#
# Velocity S-wave (km/s) = 2.43847 3.40374 2.96071
# Velocity P-wave (km/s) = 6.53198 7.35910 6.95784
#
# Compressibility (1/GPa) = 0.01429702
#
# Stress axis : x y z
#
# Youngs Moduli (GPa) = 18.32164 18.32164 76.85645
#
# Poissons Ratio (x) = 0.90371 0.17725
# Poissons Ratio (y) = 0.90371 0.17725
# Poissons Ratio (z) = 0.04225 0.04225
#
# Static dielectric constant tensor:
#      x y z
#    x 3.721910 0.000000 0.000000 
#    y 0.000000 3.721910 0.000000 
#    z 0.000000 0.000000 3.674720 
# 
# 
# High freq. dielectric constant tensor:
#      x y z
#    x 1.789380 0.000000 0.000000 
#    y 0.000000 1.789380 0.000000 
#    z 0.000000 0.000000 1.796610 
# 
# From -- ./inp_files/1141.got.cif
#   From: 2010.03.12/outbox.cif.g09.slc.cpg/sg102_1_cif.got.tgz:1141.got - 2010.04.14 01:40:42.
