data_PCOD8306697
_publ_section_title
;
Structure prediction by ZEFSAII (Michael W. Deem and Ramdas Pophale) SiO2 
 PCOD8306697
Probable space group: P 42 C M
;
_chemical_formula_sum "Si O2"
_cell_formula_units_Z 48
_cell_length_a 22.408961
_cell_length_b 22.408961
_cell_length_c 5.247516
_cell_angle_alpha 90.000000
_cell_angle_beta 90.000000
_cell_angle_gamma 90.000000
_cell_volume 2635.100680
_symmetry_space_group_name_H-M "P 42 C M"
_symmetry_group_IT_number 101
_symmetry_cell_setting 'tetragonal'
loop_
_space_group_symop_operation_xyz
x,y,z
-y,x,1/2+z
-x,-y,z
y,-x,1/2+z
-x,y,1/2+z
x,-y,1/2+z
-y,-x,z
y,x,z
loop_
_atom_site_type_symbol
_atom_site_label
_atom_site_fract_x
_atom_site_fract_y
_atom_site_fract_z
Si Si1 0.335298 0.764211 0.400850
Si Si2 0.873203 0.521558 0.390571
Si Si3 0.257726 0.470195 0.908025
Si Si4 0.868139 0.036003 0.891094
Si Si5 0.036407 0.728322 0.891900
Si Si6 0.158781 0.341223 0.396897
O O1 0.286409 0.713592 0.367859
O O2 0.399470 0.731883 0.404812
O O3 0.323083 0.798936 0.663279
O O4 0.329965 0.808868 0.163718
O O5 0.909700 0.503884 0.646606
O O6 0.812892 0.482370 0.414852
O O7 0.859655 0.590538 0.367927
O O8 0.287604 0.499411 0.159375
O O9 0.900350 0.099651 0.891797
O O10 0.798321 0.049021 0.891198
O O11 0.887861 0.000153 0.640696
O O12 0.100003 0.697812 0.887044
O O13 0.999209 0.708415 0.643942
#
# Coordination Sequence:
#
# PCOD8306697 Si02
#       6
#     8   8   8   8   8   8
#     4  12  23  33  51  90 121 141 181 238 285 339
#     4  10  16  30  55  79  96 141 197 220 271 333
#     4  10  16  32  52  73 105 152 188 215 272 343
#     4  10  21  37  58  82 107 135 173 219 268 326
#     4  10  23  42  59  79 108 151 189 220 271 341
#     4  12  21  37  59  79 110 156 184 233 278 335
#
# _framework density 18.215623000000001
#
# number of rings (size 3 to 8) (size 9 to 14) (size 15 to 20)
#    0.000    1.333    6.667    2.000    0.000    2.333 
#    0.000    0.000    0.000    3.000    0.000    0.000 
#    0.000    2.000    0.000    0.000    0.000    0.000 
#
# Total GULP energy -595118.991262 kJ/mol
# GULP energy per Si atom -12398.312318 kJ/mol
# Density = 1.817416 g / cm^3
# Si number density = 18.215623 Si / 1000 Ang^3
#
#
#
# Elastic Constant Matrix: (Units=GPa)
#
#
# Indices 1 2 3 4 5 6 
#
# 1 59.9189 37.3857 17.4318 0.0000 0.0000 0.0025
# 2 37.3857 59.9189 17.4318 0.0000 0.0000 -0.0025
# 3 17.4318 17.4318 148.3645 0.0000 0.0000 0.0000
# 4 0.0000 0.0000 0.0000 9.9472 0.0000 0.0000
# 5 0.0000 0.0000 0.0000 0.0000 9.9472 0.0000
# 6 0.0025 -0.0025 0.0000 0.0000 0.0000 -1.3621
#
#
#
# Elastic Compliance Matrix: (Units=1/GPa)
#
#
# Indices 1 2 3 4 5 6 
#
# 1 0.027554 -0.016825 -0.001261 0.000000 0.000000 0.000081
# 2 -0.016825 0.027554 -0.001261 0.000000 0.000000 -0.000081
# 3 -0.001261 -0.001261 0.007036 0.000000 0.000000 0.000000
# 4 0.000000 0.000000 0.000000 0.100531 0.000000 0.000000
# 5 0.000000 0.000000 0.000000 0.000000 0.100531 0.000000
# 6 0.000081 -0.000081 0.000000 0.000000 0.000000 -0.734141
#
#
# Mechanical properties :
#
#
# Convention : Reuss Voigt Hill
#
# Bulk Modulus (GPa) = 42.64119 45.85565 44.24842
# Shear Modulus (GPa) = -11.78062 16.77000 2.49469
#
# Velocity S-wave (km/s) = -2.54585 3.03749 1.17154
# Velocity P-wave (km/s) = 3.84943 6.12620 5.11607
#
# Compressibility (1/GPa) = 0.02345150
#
# Stress axis : x y z
#
# Youngs Moduli (GPa) = 36.29266 36.29266 142.11887
#
# Poissons Ratio (x) = 0.61063 0.17915
# Poissons Ratio (y) = 0.61063 0.17915
# Poissons Ratio (z) = 0.04575 0.04575
#
# Static dielectric constant tensor:
#      x y z
#    x 3.743770 0.000000 0.000000 
#    y 0.000000 3.743770 0.000000 
#    z 0.000000 0.000000 6.076250 
# 
# 
# High freq. dielectric constant tensor:
#      x y z
#    x 1.681050 0.000000 0.000000 
#    y 0.000000 1.681050 0.000000 
#    z 0.000000 0.000000 1.745540 
# 
# From -- ./inp_files/133.got.cif
#   From: 2010.03.12/outbox.cif.g09.slc.cpg/sg101_1_cif.got.tgz:133.got - 2010.04.14 01:38:52.
