data_PCOD8306128
_publ_section_title
;
Structure prediction by ZEFSAII (Michael W. Deem and Ramdas Pophale) SiO2 
 PCOD8306128
Probable space group: I 4 2 2 
;
_chemical_formula_sum "Si O2"
_cell_formula_units_Z 112
_cell_length_a 14.206018
_cell_length_b 14.206018
_cell_length_c 25.852609
_cell_angle_alpha 90.000000
_cell_angle_beta 90.000000
_cell_angle_gamma 90.000000
_cell_volume 5217.339515
_symmetry_space_group_name_H-M "I 4 2 2 "
_symmetry_group_IT_number 97
_symmetry_cell_setting 'tetragonal'
loop_
_space_group_symop_operation_xyz
x,y,z
-y,x,z
-x,-y,z
y,-x,z
x,-y,-z
-x,y,-z
y,x,-z
-y,-x,-z
1/2+x,1/2+y,1/2+z
1/2-y,1/2+x,1/2+z
1/2-x,1/2-y,1/2+z
1/2+y,1/2-x,1/2+z
1/2+x,1/2-y,1/2-z
1/2-x,1/2+y,1/2-z
1/2+y,1/2+x,1/2-z
1/2-y,1/2-x,1/2-z
loop_
_atom_site_type_symbol
_atom_site_label
_atom_site_fract_x
_atom_site_fract_y
_atom_site_fract_z
Si Si1 0.647763 0.454915 0.644263
Si Si2 0.789024 0.676330 0.896221
Si Si3 0.393441 0.603459 0.060899
Si Si4 0.787237 0.138540 0.050996
Si Si5 0.611580 0.238009 0.782914
Si Si6 0.602703 0.110146 0.991219
Si Si7 0.746029 0.598693 0.253792
O O1 0.615667 0.561120 0.653019
O O2 0.690345 0.454501 0.584927
O O3 0.726702 0.426779 0.686300
O O4 0.680631 0.670567 0.912851
O O5 0.811275 0.786031 0.904001
O O6 0.799215 0.637837 0.839384
O O7 0.862877 0.622138 0.932271
O O8 0.369254 0.497514 0.079071
O O9 0.385667 0.614334 0.000000
O O10 0.853774 0.146226 0.000000
O O11 0.680242 0.150883 0.030819
O O12 0.651921 0.151921 0.750000
O O13 0.661799 0.337479 0.769766
O O14 0.498925 0.247602 0.777989
O O15 0.500000 0.155333 0.000000
O O16 0.601519 0.000000 0.000000
O O17 0.844292 0.655709 0.250000
#
# Coordination Sequence:
#
# PCOD8306128 Si02
#       7
#    16  16  16  16  16  16  16
#     4  11  24  43  72  99 131 182 226 292 375 428
#     4  11  24  39  65  94 130 173 216 274 337 398
#     4   9  19  34  56  90 129 166 205 253 317 392
#     4  10  23  39  65  96 131 175 224 283 343 416
#     4  11  26  45  69 102 141 177 240 295 347 424
#     4  10  24  42  63  93 133 181 225 269 331 409
#     4  11  24  46  73 101 137 184 234 296 361 426
#
# _framework density 21.466878999999999
#
# number of rings (size 3 to 8) (size 9 to 14) (size 15 to 20)
#    0.000    1.571    1.429    3.429   10.000    1.714 
#    0.000    2.143    0.000    0.000    0.000    0.000 
#    0.000    0.000    0.000    0.000    0.000    0.000 
#
# Total GULP energy -694066.520019 kJ/mol
# GULP energy per Si atom -12394.045000 kJ/mol
# Density = 2.141802 g / cm^3
# Si number density = 21.466879 Si / 1000 Ang^3
#
#
#
# Elastic Constant Matrix: (Units=GPa)
#
#
# Indices 1 2 3 4 5 6 
#
# 1 88.2143 25.2255 46.4075 0.0000 0.0000 0.0000
# 2 25.2255 88.2161 46.4070 0.0000 0.0000 0.0000
# 3 46.4075 46.4070 144.3317 0.0000 0.0000 0.0000
# 4 0.0000 0.0000 0.0000 27.1133 0.0000 0.0000
# 5 0.0000 0.0000 0.0000 0.0000 27.1135 0.0000
# 6 0.0000 0.0000 0.0000 0.0000 0.0000 30.2987
#
#
#
# Elastic Compliance Matrix: (Units=1/GPa)
#
#
# Indices 1 2 3 4 5 6 
#
# 1 0.013919 -0.001957 -0.003846 0.000000 0.000000 0.000000
# 2 -0.001957 0.013919 -0.003846 0.000000 0.000000 0.000000
# 3 -0.003846 -0.003846 0.009402 0.000000 0.000000 0.000000
# 4 0.000000 0.000000 0.000000 0.036882 0.000000 0.000000
# 5 0.000000 0.000000 0.000000 0.000000 0.036882 0.000000
# 6 0.000000 0.000000 0.000000 0.000000 0.000000 0.033005
#
#
# Mechanical properties :
#
#
# Convention : Reuss Voigt Hill
#
# Bulk Modulus (GPa) = 55.73772 61.87136 58.80454
# Shear Modulus (GPa) = 29.53563 30.41991 29.97777
#
# Velocity S-wave (km/s) = 3.71330 3.76847 3.74099
# Velocity P-wave (km/s) = 6.66376 6.91517 6.79062
#
# Compressibility (1/GPa) = 0.01794117
#
# Stress axis : x y z
#
# Youngs Moduli (GPa) = 71.84414 71.84623 106.36234
#
# Poissons Ratio (x) = 0.14059 0.40910
# Poissons Ratio (y) = 0.14058 0.40908
# Poissons Ratio (z) = 0.27633 0.27633
#
# Static dielectric constant tensor:
#      x y z
#    x 4.005110 0.000000 0.000000 
#    y 0.000000 4.005080 0.000000 
#    z 0.000000 0.000000 2.928680 
# 
# 
# High freq. dielectric constant tensor:
#      x y z
#    x 1.846530 0.000000 0.000000 
#    y 0.000000 1.846530 0.000000 
#    z 0.000000 0.000000 1.839640 
# 
# From -- ./inp_files/7243.got.cif
#   From: 2010.03.12/outbox.cif.g09.slc.cpg/sg97_4_cif.got.tgz:7243.got - 2010.04.08 20:59:42.
