data_PCOD8306686
_publ_section_title
;
Structure prediction by ZEFSAII (Michael W. Deem and Ramdas Pophale) SiO2 
 PCOD8306686
Probable space group: P 4 B M
;
_chemical_formula_sum "Si O2"
_cell_formula_units_Z 48
_cell_length_a 14.976238
_cell_length_b 14.976238
_cell_length_c 11.173362
_cell_angle_alpha 90.000000
_cell_angle_beta 90.000000
_cell_angle_gamma 90.000000
_cell_volume 2506.047716
_symmetry_space_group_name_H-M "P 4 B M"
_symmetry_group_IT_number 100
_symmetry_cell_setting 'tetragonal'
loop_
_space_group_symop_operation_xyz
x,y,z
-y,x,z
-x,-y,z
y,-x,z
1/2-x,1/2+y,z
1/2+x,1/2-y,z
1/2-y,1/2-x,z
1/2+y,1/2+x,z
loop_
_atom_site_type_symbol
_atom_site_label
_atom_site_fract_x
_atom_site_fract_y
_atom_site_fract_z
Si Si1 0.177796 0.829294 0.915190
Si Si2 0.008630 0.759672 0.801588
Si Si3 0.069217 0.569217 0.803588
Si Si4 0.889739 0.898906 0.161425
Si Si5 0.740329 0.491371 0.521260
Si Si6 0.930783 0.430783 0.519261
Si Si7 0.677795 0.670707 0.407660
O O1 0.245047 0.745047 0.899788
O O2 0.225440 0.919312 0.875205
O O3 0.090045 0.825866 0.830804
O O4 0.145136 0.839038 0.050366
O O5 0.986386 0.762112 0.661424
O O6 0.043608 0.665725 0.850498
O O7 0.067032 0.567032 0.661424
O O8 0.000000 0.500000 0.859912
O O9 0.839038 0.854863 0.272483
O O10 0.994587 0.875575 0.161426
O O11 0.834275 0.456392 0.472350
O O12 0.725440 0.580690 0.447645
O O13 0.674134 0.409956 0.492043
O O14 0.000000 0.500000 0.462937
O O15 0.745045 0.754956 0.423063
#
# Coordination Sequence:
#
# PCOD8306686 Si02
#       7
#     8   8   4   8   8   4   8
#     4  12  24  42  66  92 127 167 213 264 314 372
#     4  11  23  38  62  95 130 167 205 254 316 380
#     4   9  18  36  58  85 125 168 206 242 298 377
#     4  11  23  44  68  88 117 165 216 264 320 370
#     4  11  23  38  62  95 130 167 205 254 316 380
#     4   9  18  36  58  85 125 168 206 242 298 377
#     4  12  24  42  66  92 127 167 213 264 314 372
#
# _framework density 19.153666999999999
#
# number of rings (size 3 to 8) (size 9 to 14) (size 15 to 20)
#    0.000    1.000    5.000    2.500    0.000    4.000 
#    0.000    1.667    0.000    0.000    0.000    7.000 
#    0.000    0.000    0.000    0.000    0.000    0.000 
#
# Total GULP energy -595152.308996 kJ/mol
# GULP energy per Si atom -12399.006437 kJ/mol
# Density = 1.911007 g / cm^3
# Si number density = 19.153667 Si / 1000 Ang^3
#
#
#
# Elastic Constant Matrix: (Units=GPa)
#
#
# Indices 1 2 3 4 5 6 
#
# 1 90.3644 19.9043 19.5145 0.0000 0.0000 0.0000
# 2 19.9043 90.3644 19.5145 0.0000 0.0000 0.0000
# 3 19.5145 19.5145 50.9667 0.0000 0.0000 0.0000
# 4 0.0000 0.0000 0.0000 23.7246 0.0000 0.0000
# 5 0.0000 0.0000 0.0000 0.0000 23.7246 0.0000
# 6 0.0000 0.0000 0.0000 0.0000 0.0000 39.1853
#
#
#
# Elastic Compliance Matrix: (Units=1/GPa)
#
#
# Indices 1 2 3 4 5 6 
#
# 1 0.012341 -0.001851 -0.004017 0.000000 0.000000 0.000000
# 2 -0.001851 0.012341 -0.004017 0.000000 0.000000 0.000000
# 3 -0.004017 -0.004017 0.022697 0.000000 0.000000 0.000000
# 4 0.000000 0.000000 0.000000 0.042150 0.000000 0.000000
# 5 0.000000 0.000000 0.000000 0.000000 0.042150 0.000000
# 6 0.000000 0.000000 0.000000 0.000000 0.000000 0.025520
#
#
# Mechanical properties :
#
#
# Convention : Reuss Voigt Hill
#
# Bulk Modulus (GPa) = 36.21780 38.84025 37.52902
# Shear Modulus (GPa) = 26.85689 28.84439 27.85064
#
# Velocity S-wave (km/s) = 3.74863 3.88486 3.81735
# Velocity P-wave (km/s) = 6.13893 6.35965 6.25026
#
# Compressibility (1/GPa) = 0.02761074
#
# Stress axis : x y z
#
# Youngs Moduli (GPa) = 81.02792 81.02792 44.05966
#
# Poissons Ratio (x) = 0.14998 0.17697
# Poissons Ratio (y) = 0.14998 0.17697
# Poissons Ratio (z) = 0.32546 0.32546
#
# Static dielectric constant tensor:
#      x y z
#    x 3.732300 0.000000 0.000000 
#    y 0.000000 3.732300 0.000000 
#    z 0.000000 0.000000 3.312830 
# 
# 
# High freq. dielectric constant tensor:
#      x y z
#    x 1.759160 0.000000 0.000000 
#    y 0.000000 1.759160 0.000000 
#    z 0.000000 0.000000 1.732070 
# 
# From -- ./inp_files/1289.got.cif
#   From: 2010.03.12/outbox.cif.g09.slc.cpg/sg100_cif.got.tgz:1289.got - 2010.04.14 01:37:57.
