data_PCOD8306623
_publ_section_title
;
Structure prediction by ZEFSAII (Michael W. Deem and Ramdas Pophale) SiO2 
 PCOD8306623
Probable space group: P 4 B M
;
_chemical_formula_sum "Si O2"
_cell_formula_units_Z 56
_cell_length_a 16.228296
_cell_length_b 16.228296
_cell_length_c 12.986597
_cell_angle_alpha 90.000000
_cell_angle_beta 90.000000
_cell_angle_gamma 90.000000
_cell_volume 3420.118902
_symmetry_space_group_name_H-M "P 4 B M"
_symmetry_group_IT_number 100
_symmetry_cell_setting 'tetragonal'
loop_
_space_group_symop_operation_xyz
x,y,z
-y,x,z
-x,-y,z
y,-x,z
1/2-x,1/2+y,z
1/2+x,1/2-y,z
1/2-y,1/2-x,z
1/2+y,1/2+x,z
loop_
_atom_site_type_symbol
_atom_site_label
_atom_site_fract_x
_atom_site_fract_y
_atom_site_fract_z
Si Si1 0.504182 0.133952 0.542550
Si Si2 0.118772 0.059150 0.807805
Si Si3 0.928867 0.290975 0.123829
Si Si4 0.366508 0.996001 0.928419
Si Si5 0.209024 0.571132 0.733010
Si Si6 0.881228 0.940850 0.049033
Si Si7 0.495819 0.866049 0.314288
O O1 0.593787 0.093787 0.565526
O O2 0.480803 0.201379 0.627656
O O3 0.503767 0.174588 0.428419
O O4 0.438199 0.061802 0.548192
O O5 0.195713 0.097429 0.745239
O O6 0.036869 0.108786 0.777430
O O7 0.135684 0.068113 0.928419
O O8 0.847201 0.347201 0.123077
O O9 0.902571 0.195713 0.111599
O O10 0.980803 0.298621 0.229182
O O11 0.990414 0.312607 0.030334
O O12 0.441028 0.058973 0.928416
O O13 0.312605 0.009584 0.826505
O O14 0.403264 0.903264 0.928420
O O15 0.152798 0.652798 0.733764
O O16 0.963131 0.891214 0.079407
O O17 0.406214 0.906214 0.291312
O O18 0.561803 0.938198 0.308644
#
# Coordination Sequence:
#
# PCOD8306623 Si02
#       7
#     8   8   8   8   8   8   8
#     4   8  14  25  42  65  93 126 159 183 214 273
#     4   9  18  33  50  64  86 124 163 190 220 274
#     4  10  17  27  46  69  94 119 147 191 238 273
#     4   9  16  24  36  61  96 124 139 164 222 288
#     4  10  17  27  46  69  94 119 147 191 238 273
#     4   9  18  33  50  64  86 124 163 190 220 274
#     4   8  14  25  42  65  93 126 159 183 214 273
#
# _framework density 16.373701000000001
#
# number of rings (size 3 to 8) (size 9 to 14) (size 15 to 20)
#    0.000    3.000    1.429    2.571    0.000    3.429 
#    0.000    2.857    0.000    1.714    0.000    6.000 
#    0.000    0.000    0.000    0.000    0.000    0.000 
#
# Total GULP energy -694066.099421 kJ/mol
# GULP energy per Si atom -12394.037490 kJ/mol
# Density = 1.633643 g / cm^3
# Si number density = 16.373701 Si / 1000 Ang^3
#
#
#
# Elastic Constant Matrix: (Units=GPa)
#
#
# Indices 1 2 3 4 5 6 
#
# 1 67.8485 17.4691 28.4220 0.0000 0.0000 0.0000
# 2 17.4691 67.8485 28.4220 0.0000 0.0000 0.0000
# 3 28.4220 28.4220 96.5997 0.0000 0.0000 0.0000
# 4 0.0000 0.0000 0.0000 17.2315 0.0000 0.0000
# 5 0.0000 0.0000 0.0000 0.0000 17.2315 0.0000
# 6 0.0000 0.0000 0.0000 0.0000 0.0000 11.4842
#
#
#
# Elastic Compliance Matrix: (Units=1/GPa)
#
#
# Indices 1 2 3 4 5 6 
#
# 1 0.017214 -0.002635 -0.004289 0.000000 0.000000 0.000000
# 2 -0.002635 0.017214 -0.004289 0.000000 0.000000 0.000000
# 3 -0.004289 -0.004289 0.012876 0.000000 0.000000 0.000000
# 4 0.000000 0.000000 0.000000 0.058033 0.000000 0.000000
# 5 0.000000 0.000000 0.000000 0.000000 0.058033 0.000000
# 6 0.000000 0.000000 0.000000 0.000000 0.000000 0.087076
#
#
# Mechanical properties :
#
#
# Convention : Reuss Voigt Hill
#
# Bulk Modulus (GPa) = 40.19948 42.32480 41.26214
# Shear Modulus (GPa) = 17.78304 19.72170 18.75237
#
# Velocity S-wave (km/s) = 3.29914 3.47432 3.38786
# Velocity P-wave (km/s) = 6.25436 6.48073 6.36855
#
# Compressibility (1/GPa) = 0.02487595
#
# Stress axis : x y z
#
# Youngs Moduli (GPa) = 58.09193 58.09193 77.66314
#
# Poissons Ratio (x) = 0.15309 0.33313
# Poissons Ratio (y) = 0.15309 0.33313
# Poissons Ratio (z) = 0.24918 0.24918
#
# Static dielectric constant tensor:
#      x y z
#    x 2.903370 0.000000 0.000000 
#    y 0.000000 2.903370 0.000000 
#    z 0.000000 0.000000 3.233360 
# 
# 
# High freq. dielectric constant tensor:
#      x y z
#    x 1.604030 0.000000 0.000000 
#    y 0.000000 1.604030 0.000000 
#    z 0.000000 0.000000 1.621800 
# 
# From -- ./inp_files/1346.got.cif
#   From: 2010.03.12/outbox.cif.g09.slc.cpg/sg100_cif.got.tgz:1346.got - 2010.04.14 01:37:57.
