data_PCOD8306660
_publ_section_title
;
Structure prediction by ZEFSAII (Michael W. Deem and Ramdas Pophale) SiO2 
 PCOD8306660
Probable space group: P 4 B M
;
_chemical_formula_sum "Si O2"
_cell_formula_units_Z 64
_cell_length_a 16.847468
_cell_length_b 16.847468
_cell_length_c 12.111987
_cell_angle_alpha 90.000000
_cell_angle_beta 90.000000
_cell_angle_gamma 90.000000
_cell_volume 3437.832210
_symmetry_space_group_name_H-M "P 4 B M"
_symmetry_group_IT_number 100
_symmetry_cell_setting 'tetragonal'
loop_
_space_group_symop_operation_xyz
x,y,z
-y,x,z
-x,-y,z
y,-x,z
1/2-x,1/2+y,z
1/2+x,1/2-y,z
1/2-y,1/2-x,z
1/2+y,1/2+x,z
loop_
_atom_site_type_symbol
_atom_site_label
_atom_site_fract_x
_atom_site_fract_y
_atom_site_fract_z
Si Si1 0.273070 0.904345 0.783990
Si Si2 0.951246 0.324322 0.925793
Si Si3 0.327083 0.306168 0.933438
Si Si4 0.548752 0.824327 0.397924
Si Si5 0.095659 0.273069 0.539716
Si Si6 0.344463 0.715640 0.161858
Si Si7 0.327087 0.306164 0.390274
Si Si8 0.022777 0.347138 0.161860
O O1 0.329958 0.829958 0.771762
O O2 0.192049 0.874791 0.843636
O O3 0.251711 0.937480 0.661853
O O4 0.320557 0.969024 0.855302
O O5 0.896316 0.396316 0.881807
O O6 0.907156 0.240579 0.905037
O O7 0.967691 0.340144 0.054563
O O8 0.252946 0.247054 0.939675
O O9 0.338443 0.348576 0.052391
O O10 0.603680 0.896321 0.441919
O O11 0.469017 0.820561 0.468404
O O12 0.592842 0.740584 0.418684
O O13 0.532317 0.840152 0.269153
O O14 0.170050 0.329951 0.551949
O O15 0.125209 0.192047 0.480070
O O16 0.261357 0.761357 0.161851
O O17 0.348565 0.661548 0.271318
O O18 0.416772 0.775532 0.161875
O O19 0.252948 0.247052 0.384035
O O20 0.068682 0.431319 0.161856
#
# Coordination Sequence:
#
# PCOD8306660 Si02
#       8
#     8   8   8   8   8   8   8   8
#     4  10  21  37  55  76 106 146 186 224 273 326
#     4  11  22  34  54  85 114 141 179 224 273 331
#     4   9  18  34  54  76 104 139 182 227 264 313
#     4  11  22  34  54  85 114 141 179 224 273 331
#     4  10  21  37  55  76 106 146 186 224 273 326
#     4   9  15  29  54  76 100 137 176 211 257 313
#     4   9  18  34  54  76 104 139 182 227 264 313
#     4  11  20  32  53  83 119 150 176 210 265 337
#
# _framework density 18.616382999999999
#
# number of rings (size 3 to 8) (size 9 to 14) (size 15 to 20)
#    0.000    2.000    2.500    1.875    0.000    6.000 
#    0.000    3.750    0.000    0.750    0.000    3.500 
#    0.000    0.000    0.000    0.000    0.000    0.000 
#
# Total GULP energy -793405.604024 kJ/mol
# GULP energy per Si atom -12396.962563 kJ/mol
# Density = 1.857401 g / cm^3
# Si number density = 18.616383 Si / 1000 Ang^3
#
#
#
# Elastic Constant Matrix: (Units=GPa)
#
#
# Indices 1 2 3 4 5 6 
#
# 1 37.1638 40.4002 27.0675 0.0000 0.0000 0.0017
# 2 40.4002 37.1638 27.0675 0.0000 0.0000 -0.0017
# 3 27.0675 27.0675 125.5794 0.0000 0.0000 0.0000
# 4 0.0000 0.0000 0.0000 14.6707 0.0000 0.0000
# 5 0.0000 0.0000 0.0000 0.0000 14.6707 0.0000
# 6 0.0017 -0.0017 0.0000 0.0000 0.0000 25.6525
#
#
#
# Elastic Compliance Matrix: (Units=1/GPa)
#
#
# Indices 1 2 3 4 5 6 
#
# 1 -0.146908 0.162083 -0.003271 0.000000 0.000000 0.000020
# 2 0.162083 -0.146908 -0.003271 0.000000 0.000000 -0.000020
# 3 -0.003271 -0.003271 0.009373 0.000000 0.000000 0.000000
# 4 0.000000 0.000000 0.000000 0.068163 0.000000 0.000000
# 5 0.000000 0.000000 0.000000 0.000000 0.068163 0.000000
# 6 0.000020 -0.000020 0.000000 0.000000 0.000000 0.038983
#
#
# Mechanical properties :
#
#
# Convention : Reuss Voigt Hill
#
# Bulk Modulus (GPa) = 37.53703 43.21970 40.37837
# Shear Modulus (GPa) = -12.15551 18.02360 2.93404
#
# Velocity S-wave (km/s) = -2.55805 3.11490 1.25677
# Velocity P-wave (km/s) = 3.38856 6.01691 4.88290
#
# Compressibility (1/GPa) = 0.02664036
#
# Stress axis : x y z
#
# Youngs Moduli (GPa) = -6.80700 -6.80700 106.68804
#
# Poissons Ratio (x) = 1.10330 0.34897
# Poissons Ratio (y) = 1.10330 0.34897
# Poissons Ratio (z) = -0.02227 -0.02227
#
# Static dielectric constant tensor:
#      x y z
#    x 3.232710 0.000000 0.000000 
#    y 0.000000 3.232710 0.000000 
#    z 0.000000 0.000000 3.775960 
# 
# 
# High freq. dielectric constant tensor:
#      x y z
#    x 1.698390 0.000000 0.000000 
#    y 0.000000 1.698390 0.000000 
#    z 0.000000 0.000000 1.731960 
# 
# From -- ./inp_files/1389.got.cif
#   From: 2010.03.12/outbox.cif.g09.slc.cpg/sg100_cif.got.tgz:1389.got - 2010.04.14 01:37:57.
