data_PCOD8306638
_publ_section_title
;
Structure prediction by ZEFSAII (Michael W. Deem and Ramdas Pophale) SiO2 
 PCOD8306638
Probable space group: P 4 B M
;
_chemical_formula_sum "Si O2"
_cell_formula_units_Z 48
_cell_length_a 14.953265
_cell_length_b 14.953265
_cell_length_c 12.101270
_cell_angle_alpha 90.000000
_cell_angle_beta 90.000000
_cell_angle_gamma 90.000000
_cell_volume 2705.845596
_symmetry_space_group_name_H-M "P 4 B M"
_symmetry_group_IT_number 100
_symmetry_cell_setting 'tetragonal'
loop_
_space_group_symop_operation_xyz
x,y,z
-y,x,z
-x,-y,z
y,-x,z
1/2-x,1/2+y,z
1/2+x,1/2-y,z
1/2-y,1/2-x,z
1/2+y,1/2+x,z
loop_
_atom_site_type_symbol
_atom_site_label
_atom_site_fract_x
_atom_site_fract_y
_atom_site_fract_z
Si Si1 0.089810 0.882311 0.102250
Si Si2 0.096028 0.745334 0.924369
Si Si3 0.461731 0.358845 0.475837
Si Si4 0.358845 0.538270 0.728657
Si Si5 0.856760 0.504831 0.102245
Si Si6 0.903975 0.254669 0.280126
O O1 0.127300 0.832782 0.211327
O O2 0.982446 0.875992 0.102252
O O3 0.127298 0.832786 0.993169
O O4 0.179494 0.679494 0.910231
O O5 0.060687 0.773863 0.804352
O O6 0.014528 0.700107 0.991814
O O7 0.561533 0.392496 0.450669
O O8 0.453266 0.327414 0.602247
O O9 0.439317 0.273862 0.400142
O O10 0.392495 0.438468 0.753825
O O11 0.892718 0.607283 0.102243
O O12 0.799894 0.485475 0.212678
O O13 0.940114 0.440114 0.102247
O O14 0.820512 0.320512 0.294267
#
# Coordination Sequence:
#
# PCOD8306638 Si02
#       6
#     8   8   8   8   8   8
#     4  10  19  32  50  69  94 129 166 201 240 292
#     4  10  19  31  49  74 102 127 157 201 246 284
#     4   9  18  34  54  72  93 125 163 199 239 291
#     4   9  18  34  54  72  93 125 163 199 239 291
#     4   8  16  32  50  67  93 132 167 188 220 279
#     4  10  19  31  49  74 102 127 157 201 246 284
#
# _framework density 17.739371999999999
#
# number of rings (size 3 to 8) (size 9 to 14) (size 15 to 20)
#    0.000    2.667    0.000    4.500    0.000    3.333 
#    0.000   15.000    0.000    3.000    0.000    4.667 
#    0.000    0.000    0.000    0.000    0.000    0.000 
#
# Total GULP energy -595025.399255 kJ/mol
# GULP energy per Si atom -12396.362484 kJ/mol
# Density = 1.769900 g / cm^3
# Si number density = 17.739372 Si / 1000 Ang^3
#
#
#
# Elastic Constant Matrix: (Units=GPa)
#
#
# Indices 1 2 3 4 5 6 
#
# 1 85.5624 51.2677 62.7258 0.0000 0.0000 0.0002
# 2 51.2677 85.5624 62.7258 0.0000 0.0000 -0.0002
# 3 62.7258 62.7258 143.7048 0.0000 0.0000 0.0000
# 4 0.0000 0.0000 0.0000 24.9801 0.0000 0.0000
# 5 0.0000 0.0000 0.0000 0.0000 24.9801 0.0000
# 6 0.0002 -0.0002 0.0000 0.0000 0.0000 23.6444
#
#
#
# Elastic Compliance Matrix: (Units=1/GPa)
#
#
# Indices 1 2 3 4 5 6 
#
# 1 0.020672 -0.008487 -0.005318 0.000000 0.000000 0.000000
# 2 -0.008487 0.020672 -0.005318 0.000000 0.000000 0.000000
# 3 -0.005318 -0.005318 0.011602 0.000000 0.000000 0.000000
# 4 0.000000 0.000000 0.000000 0.040032 0.000000 0.000000
# 5 0.000000 0.000000 0.000000 0.000000 0.040032 0.000000
# 6 0.000000 0.000000 0.000000 0.000000 0.000000 0.042293
#
#
# Mechanical properties :
#
#
# Convention : Reuss Voigt Hill
#
# Bulk Modulus (GPa) = 68.04155 74.25198 71.14676
# Shear Modulus (GPa) = 22.88862 23.92829 23.40845
#
# Velocity S-wave (km/s) = 3.59593 3.67669 3.63654
# Velocity P-wave (km/s) = 7.46194 7.74417 7.60436
#
# Compressibility (1/GPa) = 0.01469690
#
# Stress axis : x y z
#
# Youngs Moduli (GPa) = 48.37521 48.37521 86.19515
#
# Poissons Ratio (x) = 0.41057 0.45842
# Poissons Ratio (y) = 0.41057 0.45842
# Poissons Ratio (z) = 0.25728 0.25728
#
# Static dielectric constant tensor:
#      x y z
#    x 3.292070 0.000000 0.000000 
#    y 0.000000 3.292070 0.000000 
#    z 0.000000 0.000000 3.289450 
# 
# 
# High freq. dielectric constant tensor:
#      x y z
#    x 1.674920 0.000000 0.000000 
#    y 0.000000 1.674920 0.000000 
#    z 0.000000 0.000000 1.686140 
# 
# From -- ./inp_files/1250.got.cif
#   From: 2010.03.12/outbox.cif.g09.slc.cpg/sg100_cif.got.tgz:1250.got - 2010.04.14 01:37:57.
