data_PCOD8306920
_publ_section_title
;
Structure prediction by ZEFSAII (Michael W. Deem and Ramdas Pophale) SiO2 
 PCOD8306920
Probable space group: P 42 N M
;
_chemical_formula_sum "Si O2"
_cell_formula_units_Z 64
_cell_length_a 24.438209
_cell_length_b 24.438209
_cell_length_c 6.537735
_cell_angle_alpha 90.000000
_cell_angle_beta 90.000000
_cell_angle_gamma 90.000000
_cell_volume 3904.505710
_symmetry_space_group_name_H-M "P 42 N M"
_symmetry_group_IT_number 102
_symmetry_cell_setting 'tetragonal'
loop_
_space_group_symop_operation_xyz
x,y,z
1/2-y,1/2+x,1/2+z
-x,-y,z
1/2+y,1/2-x,1/2+z
1/2-x,1/2+y,1/2+z
1/2+x,1/2-y,1/2+z
-y,-x,z
y,x,z
loop_
_atom_site_type_symbol
_atom_site_label
_atom_site_fract_x
_atom_site_fract_y
_atom_site_fract_z
Si Si1 0.120987 0.695459 0.564110
Si Si2 0.942653 0.720994 0.229074
Si Si3 0.379025 0.804532 0.340580
Si Si4 0.550826 0.873035 0.352750
Si Si5 0.050817 0.373030 0.551942
Si Si6 0.442640 0.220987 0.675621
Si Si7 0.840234 0.248597 0.925869
Si Si8 0.340249 0.748583 0.978826
O O1 0.176088 0.676077 0.452344
O O2 0.102323 0.648393 0.721541
O O3 0.072698 0.705377 0.406207
O O4 0.136077 0.749772 0.694391
O O5 0.960593 0.669603 0.369553
O O6 0.891645 0.753957 0.324092
O O7 0.000008 0.755103 0.202346
O O8 0.927313 0.705384 0.998490
O O9 0.397688 0.851600 0.183156
O O10 0.363939 0.750217 0.210303
O O11 0.500004 0.882399 0.202343
O O12 0.569045 0.930961 0.452345
O O13 0.539416 0.830402 0.535142
O O14 0.391630 0.253945 0.580602
O O15 0.806358 0.193643 0.963477
O O16 0.802569 0.302583 0.952346
O O17 0.306373 0.693628 0.941229
#
# Coordination Sequence:
#
# PCOD8306920 Si02
#       8
#     8   8   8   8   8   8   8   8
#     4  11  18  32  52  71  95 130 170 210 262 310
#     4  11  20  33  54  73  97 134 174 210 255 313
#     4  11  18  32  52  71  95 130 170 210 262 310
#     4  11  21  32  50  71  93 124 174 229 266 309
#     4  11  21  32  50  71  93 124 174 229 266 309
#     4  11  20  33  54  73  97 134 174 210 255 313
#     4  10  21  33  48  77 108 133 169 214 258 312
#     4  10  21  33  48  77 108 133 169 214 258 312
#
# _framework density 16.391318999999999
#
# number of rings (size 3 to 8) (size 9 to 14) (size 15 to 20)
#    0.000    1.250    7.500    1.500    0.000    1.500 
#    0.000    0.000    0.000   15.000    0.000    0.000 
#    0.000    0.500    0.000    0.500    0.000    0.000 
#
# Total GULP energy -793068.329885 kJ/mol
# GULP energy per Si atom -12391.692654 kJ/mol
# Density = 1.635401 g / cm^3
# Si number density = 16.391319 Si / 1000 Ang^3
#
#
#
# Elastic Constant Matrix: (Units=GPa)
#
#
# Indices 1 2 3 4 5 6 
#
# 1 87.4439 50.6907 38.3034 0.0000 0.0000 -0.0001
# 2 50.6907 87.4439 38.3034 0.0000 0.0000 0.0001
# 3 38.3034 38.3034 105.9926 0.0000 0.0000 0.0000
# 4 0.0000 0.0000 0.0000 18.6889 0.0000 0.0000
# 5 0.0000 0.0000 0.0000 0.0000 18.6889 0.0000
# 6 -0.0001 0.0001 0.0000 0.0000 0.0000 18.9266
#
#
#
# Elastic Compliance Matrix: (Units=1/GPa)
#
#
# Indices 1 2 3 4 5 6 
#
# 1 0.018131 -0.009077 -0.003272 0.000000 0.000000 0.000000
# 2 -0.009077 0.018131 -0.003272 0.000000 0.000000 0.000000
# 3 -0.003272 -0.003272 0.011799 0.000000 0.000000 0.000000
# 4 0.000000 0.000000 0.000000 0.053508 0.000000 0.000000
# 5 0.000000 0.000000 0.000000 0.000000 0.053508 0.000000
# 6 0.000000 0.000000 0.000000 0.000000 0.000000 0.052836
#
#
# Mechanical properties :
#
#
# Convention : Reuss Voigt Hill
#
# Bulk Modulus (GPa) = 59.45443 59.49727 59.47585
# Shear Modulus (GPa) = 20.42808 21.49977 20.96393
#
# Velocity S-wave (km/s) = 3.53409 3.62561 3.58014
# Velocity P-wave (km/s) = 7.28036 7.34190 7.31120
#
# Compressibility (1/GPa) = 0.01681961
#
# Stress axis : x y z
#
# Youngs Moduli (GPa) = 55.15366 55.15366 84.75034
#
# Poissons Ratio (x) = 0.50065 0.27729
# Poissons Ratio (y) = 0.50065 0.27729
# Poissons Ratio (z) = 0.18045 0.18045
#
# Static dielectric constant tensor:
#      x y z
#    x 2.849950 0.000000 0.000000 
#    y 0.000000 2.849950 0.000000 
#    z 0.000000 0.000000 3.525530 
# 
# 
# High freq. dielectric constant tensor:
#      x y z
#    x 1.593060 0.000000 0.000000 
#    y 0.000000 1.593060 0.000000 
#    z 0.000000 0.000000 1.663120 
# 
# From -- ./inp_files/446.got.cif
#   From: 2010.03.12/outbox.cif.g09.slc.cpg/sg102_1_cif.got.tgz:446.got - 2010.04.14 01:40:42.
