data_PCOD8306669
_publ_section_title
;
Structure prediction by ZEFSAII (Michael W. Deem and Ramdas Pophale) SiO2 
 PCOD8306669
Probable space group: P 4 B M
;
_chemical_formula_sum "Si O2"
_cell_formula_units_Z 40
_cell_length_a 16.299757
_cell_length_b 16.299757
_cell_length_c 6.677243
_cell_angle_alpha 90.000000
_cell_angle_beta 90.000000
_cell_angle_gamma 90.000000
_cell_volume 1774.023797
_symmetry_space_group_name_H-M "P 4 B M"
_symmetry_group_IT_number 100
_symmetry_cell_setting 'tetragonal'
loop_
_space_group_symop_operation_xyz
x,y,z
-y,x,z
-x,-y,z
y,-x,z
1/2-x,1/2+y,z
1/2+x,1/2-y,z
1/2-y,1/2-x,z
1/2+y,1/2+x,z
loop_
_atom_site_type_symbol
_atom_site_label
_atom_site_fract_x
_atom_site_fract_y
_atom_site_fract_z
Si Si1 0.912099 0.281728 0.568740
Si Si2 0.350809 0.723961 0.514216
Si Si3 0.743100 0.542865 0.883870
Si Si4 0.126434 0.956059 0.232071
Si Si5 0.369010 0.999489 0.217007
O O1 0.862676 0.362676 0.638536
O O2 0.849798 0.212946 0.495318
O O3 0.974265 0.305945 0.390467
O O4 0.960170 0.243928 0.755179
O O5 0.306050 0.806050 0.429229
O O6 0.377737 0.744129 0.741017
O O7 0.429498 0.700147 0.380318
O O8 0.657767 0.549398 0.004638
O O9 0.820934 0.539749 0.030278
O O10 0.049741 0.897058 0.273943
O O11 0.421321 0.078680 0.144361
O O12 0.430298 0.930298 0.303969
#
# Coordination Sequence:
#
# PCOD8306669 Si02
#       5
#     8   8   8   8   8
#     4  10  23  43  65  92 128 166 206 257 317 377
#     4  11  24  41  63  92 125 163 209 261 315 375
#     4  12  22  38  64  94 125 162 208 260 314 375
#     4  11  25  44  65  91 126 169 215 263 315 373
#     4  10  22  40  63  93 129 167 207 256 317 383
#
# _framework density 22.547609999999999
#
# number of rings (size 3 to 8) (size 9 to 14) (size 15 to 20)
#    0.000    1.200    0.000    6.000    0.000    4.800 
#    0.000    9.000    0.000    0.000    0.000    0.000 
#    0.000    0.000    0.000    0.000    0.000    0.000 
#
# Total GULP energy -495985.339000 kJ/mol
# GULP energy per Si atom -12399.633475 kJ/mol
# Density = 2.249629 g / cm^3
# Si number density = 22.547610 Si / 1000 Ang^3
#
#
#
# Elastic Constant Matrix: (Units=GPa)
#
#
# Indices 1 2 3 4 5 6 
#
# 1 108.7284 83.8997 62.6508 0.0000 0.0000 -0.0001
# 2 83.8997 108.7284 62.6508 0.0000 0.0000 0.0001
# 3 62.6508 62.6508 129.7889 0.0000 0.0000 0.0000
# 4 0.0000 0.0000 0.0000 43.3326 0.0000 0.0000
# 5 0.0000 0.0000 0.0000 0.0000 43.3326 0.0000
# 6 -0.0001 0.0001 0.0000 0.0000 0.0000 48.6722
#
#
#
# Elastic Compliance Matrix: (Units=1/GPa)
#
#
# Indices 1 2 3 4 5 6 
#
# 1 0.023922 -0.016354 -0.003653 0.000000 0.000000 0.000000
# 2 -0.016354 0.023922 -0.003653 0.000000 0.000000 0.000000
# 3 -0.003653 -0.003653 0.011231 0.000000 0.000000 0.000000
# 4 0.000000 0.000000 0.000000 0.023077 0.000000 0.000000
# 5 0.000000 0.000000 0.000000 0.000000 0.023077 0.000000
# 6 0.000000 0.000000 0.000000 0.000000 0.000000 0.020546
#
#
# Mechanical properties :
#
#
# Convention : Reuss Voigt Hill
#
# Bulk Modulus (GPa) = 85.07199 85.07203 85.07201
# Shear Modulus (GPa) = 28.24641 36.27043 32.25842
#
# Velocity S-wave (km/s) = 3.54325 4.01511 3.78654
# Velocity P-wave (km/s) = 7.38589 7.70108 7.54513
#
# Compressibility (1/GPa) = 0.01175475
#
# Stress axis : x y z
#
# Youngs Moduli (GPa) = 41.80297 41.80297 89.03561
#
# Poissons Ratio (x) = 0.68365 0.32524
# Poissons Ratio (y) = 0.68365 0.32524
# Poissons Ratio (z) = 0.15270 0.15270
#
# Static dielectric constant tensor:
#      x y z
#    x 4.196870 0.000000 0.000000 
#    y 0.000000 4.196870 0.000000 
#    z 0.000000 0.000000 3.820750 
# 
# 
# High freq. dielectric constant tensor:
#      x y z
#    x 1.908330 0.000000 0.000000 
#    y 0.000000 1.908330 0.000000 
#    z 0.000000 0.000000 1.871350 
# 
# From -- ./inp_files/309.got.cif
#   From: 2010.03.12/outbox.cif.g09.slc.cpg/sg100_cif.got.tgz:309.got - 2010.04.14 01:37:57.
