data_PCOD8306674
_publ_section_title
;
Structure prediction by ZEFSAII (Michael W. Deem and Ramdas Pophale) SiO2 
 PCOD8306674
Probable space group: P 4 B M
;
_chemical_formula_sum "Si O2"
_cell_formula_units_Z 64
_cell_length_a 15.750522
_cell_length_b 15.750522
_cell_length_c 14.059527
_cell_angle_alpha 90.000000
_cell_angle_beta 90.000000
_cell_angle_gamma 90.000000
_cell_volume 3487.872601
_symmetry_space_group_name_H-M "P 4 B M"
_symmetry_group_IT_number 100
_symmetry_cell_setting 'tetragonal'
loop_
_space_group_symop_operation_xyz
x,y,z
-y,x,z
-x,-y,z
y,-x,z
1/2-x,1/2+y,z
1/2+x,1/2-y,z
1/2-y,1/2-x,z
1/2+y,1/2+x,z
loop_
_atom_site_type_symbol
_atom_site_label
_atom_site_fract_x
_atom_site_fract_y
_atom_site_fract_z
Si Si1 0.834885 0.807006 0.482890
Si Si2 0.669324 0.029714 0.488503
Si Si3 0.969719 0.134410 0.990769
Si Si4 0.400395 0.234922 0.130635
Si Si5 0.400396 0.234920 0.628633
Si Si6 0.192993 0.834881 0.276375
Si Si7 0.029713 0.330680 0.270766
Si Si8 0.865591 0.969719 0.768498
O O1 0.757579 0.742422 0.478075
O O2 0.920299 0.756659 0.506562
O O3 0.815798 0.875873 0.563306
O O4 0.843635 0.852105 0.379633
O O5 0.588084 0.088084 0.508755
O O6 0.665264 0.995574 0.379635
O O7 0.669097 0.954706 0.565131
O O8 0.951221 0.223893 0.042976
O O9 0.063270 0.100323 0.017872
O O10 0.965313 0.154257 0.879634
O O11 0.318315 0.181685 0.093640
O O12 0.375877 0.315806 0.195958
O O13 0.454704 0.169101 0.194140
O O14 0.318317 0.181684 0.665629
O O15 0.451222 0.276108 0.716291
O O16 0.257555 0.757555 0.281180
O O17 0.243355 0.920285 0.252706
O O18 0.088071 0.411930 0.250514
O O19 0.936730 0.899677 0.741395
#
# Coordination Sequence:
#
# PCOD8306674 Si02
#       8
#     8   8   8   8   8   8   8   8
#     4   8  15  28  44  64  93 129 168 206 239 271
#     4   9  18  32  48  68 100 140 174 202 236 284
#     4   9  19  37  58  76  95 122 159 205 255 302
#     4  11  20  29  48  76 103 130 163 204 246 292
#     4  11  20  29  48  76 103 130 163 204 246 292
#     4   8  15  28  44  64  93 129 168 206 239 271
#     4   9  18  32  48  68 100 140 174 202 236 284
#     4   9  19  37  58  76  95 122 159 205 255 302
#
# _framework density 18.349292999999999
#
# number of rings (size 3 to 8) (size 9 to 14) (size 15 to 20)
#    0.000    2.750    0.000    4.500    0.000    2.500 
#    0.000    1.250    0.000    2.250    0.000   12.250 
#    0.000    0.000    0.000    0.000    0.000    0.000 
#
# Total GULP energy -793257.965843 kJ/mol
# GULP energy per Si atom -12394.655716 kJ/mol
# Density = 1.830753 g / cm^3
# Si number density = 18.349293 Si / 1000 Ang^3
#
#
#
# Elastic Constant Matrix: (Units=GPa)
#
#
# Indices 1 2 3 4 5 6 
#
# 1 64.4280 23.9035 38.2199 0.0000 0.0000 0.0001
# 2 23.9035 64.4280 38.2199 0.0000 0.0000 -0.0001
# 3 38.2199 38.2199 77.4844 0.0000 0.0000 0.0000
# 4 0.0000 0.0000 0.0000 24.3579 0.0000 0.0000
# 5 0.0000 0.0000 0.0000 0.0000 24.3579 0.0000
# 6 0.0001 -0.0001 0.0000 0.0000 0.0000 25.7830
#
#
#
# Elastic Compliance Matrix: (Units=1/GPa)
#
#
# Indices 1 2 3 4 5 6 
#
# 1 0.022214 -0.002462 -0.009743 0.000000 0.000000 0.000000
# 2 -0.002462 0.022214 -0.009743 0.000000 0.000000 0.000000
# 3 -0.009743 -0.009743 0.022518 0.000000 0.000000 0.000000
# 4 0.000000 0.000000 0.000000 0.041054 0.000000 0.000000
# 5 0.000000 0.000000 0.000000 0.000000 0.041054 0.000000
# 6 0.000000 0.000000 0.000000 0.000000 0.000000 0.038785
#
#
# Mechanical properties :
#
#
# Convention : Reuss Voigt Hill
#
# Bulk Modulus (GPa) = 43.38379 45.22524 44.30451
# Shear Modulus (GPa) = 20.88380 21.96625 21.42503
#
# Velocity S-wave (km/s) = 3.37727 3.46369 3.42075
# Velocity P-wave (km/s) = 6.23719 6.37939 6.30869
#
# Compressibility (1/GPa) = 0.02305009
#
# Stress axis : x y z
#
# Youngs Moduli (GPa) = 45.01582 45.01582 44.40978
#
# Poissons Ratio (x) = 0.11083 0.43269
# Poissons Ratio (y) = 0.11083 0.43269
# Poissons Ratio (z) = 0.43859 0.43859
#
# Static dielectric constant tensor:
#      x y z
#    x 3.232690 0.000000 0.000000 
#    y 0.000000 3.232690 0.000000 
#    z 0.000000 0.000000 3.732800 
# 
# 
# High freq. dielectric constant tensor:
#      x y z
#    x 1.699890 0.000000 0.000000 
#    y 0.000000 1.699890 0.000000 
#    z 0.000000 0.000000 1.696150 
# 
# From -- ./inp_files/1380.got.cif
#   From: 2010.03.12/outbox.cif.g09.slc.cpg/sg100_cif.got.tgz:1380.got - 2010.04.14 01:37:57.
