data_PCOD8306449
_publ_section_title
;
Structure prediction by ZEFSAII (Michael W. Deem and Ramdas Pophale) SiO2 
 PCOD8306449
Probable space group: P 4 M M
;
_chemical_formula_sum "Si O2"
_cell_formula_units_Z 56
_cell_length_a 13.978113
_cell_length_b 13.978113
_cell_length_c 17.827319
_cell_angle_alpha 90.000000
_cell_angle_beta 90.000000
_cell_angle_gamma 90.000000
_cell_volume 3483.237841
_symmetry_space_group_name_H-M "P 4 M M"
_symmetry_group_IT_number 99
_symmetry_cell_setting 'tetragonal'
loop_
_space_group_symop_operation_xyz
x,y,z
-y,x,z
-x,-y,z
y,-x,z
-x,y,z
x,-y,z
-y,-x,z
y,x,z
loop_
_atom_site_type_symbol
_atom_site_label
_atom_site_fract_x
_atom_site_fract_y
_atom_site_fract_z
Si Si1 0.387504 0.230326 0.159650
Si Si2 0.888888 0.267603 0.048046
Si Si3 0.108647 0.609792 0.305253
Si Si4 0.394006 0.113563 0.750117
Si Si5 0.887958 0.265433 0.449064
Si Si6 0.886652 0.392989 0.584410
Si Si7 0.259761 0.108752 0.878178
O O1 0.500000 0.251027 0.148941
O O2 0.330467 0.330467 0.154743
O O3 0.353099 0.156822 0.095857
O O4 0.365062 0.180864 0.238765
O O5 0.831683 0.168318 0.062442
O O6 0.000000 0.250981 0.069976
O O7 0.879760 0.301980 0.961815
O O8 0.118701 0.500000 0.330153
O O9 0.136935 0.673347 0.375952
O O10 0.000000 0.631198 0.278766
O O11 0.500000 0.156256 0.759997
O O12 0.354572 0.142150 0.667448
O O13 0.330148 0.156916 0.817081
O O14 0.398155 0.000000 0.757681
O O15 0.836238 0.163763 0.443589
O O16 0.846515 0.322083 0.521148
O O17 0.000000 0.244626 0.456302
O O18 0.845023 0.500000 0.572233
O O19 0.000000 0.398239 0.576686
O O20 0.157283 0.157283 0.872593
O O21 0.240939 0.000000 0.856918
#
# Coordination Sequence:
#
# PCOD8306449 Si02
#       7
#     8   8   8   8   8   8   8
#     4  10  20  33  49  69  93 119 147 182 224 271
#     4   9  18  31  46  66  91 119 153 190 226 265
#     4   9  17  30  49  70  88 109 142 183 223 259
#     4   8  14  25  41  60  81 106 138 178 221 257
#     4  10  19  29  42  61  87 118 147 175 209 252
#     4   8  14  26  43  60  78 103 139 183 224 254
#     4   9  17  28  42  62  89 119 148 177 210 252
#
# _framework density 16.076996000000001
#
# number of rings (size 3 to 8) (size 9 to 14) (size 15 to 20)
#    0.000    3.000    0.000    2.143    0.000    4.286 
#    0.000    2.857    0.000    0.000    0.000    6.000 
#    0.000    2.857    0.000    6.286    0.000    1.714 
#
# Total GULP energy -694119.513903 kJ/mol
# GULP energy per Si atom -12394.991320 kJ/mol
# Density = 1.604040 g / cm^3
# Si number density = 16.076996 Si / 1000 Ang^3
#
#
#
# Elastic Constant Matrix: (Units=GPa)
#
#
# Indices 1 2 3 4 5 6 
#
# 1 77.4169 43.6111 55.0135 0.0000 0.0000 -0.0002
# 2 43.6111 77.4169 55.0135 0.0000 0.0000 0.0002
# 3 55.0135 55.0135 115.2262 0.0000 0.0000 0.0000
# 4 0.0000 0.0000 0.0000 22.4232 0.0000 0.0000
# 5 0.0000 0.0000 0.0000 0.0000 22.4232 0.0000
# 6 -0.0002 0.0002 0.0000 0.0000 0.0000 15.1558
#
#
#
# Elastic Compliance Matrix: (Units=1/GPa)
#
#
# Indices 1 2 3 4 5 6 
#
# 1 0.022090 -0.007491 -0.006970 0.000000 0.000000 0.000000
# 2 -0.007491 0.022090 -0.006970 0.000000 0.000000 0.000000
# 3 -0.006970 -0.006970 0.015334 0.000000 0.000000 0.000000
# 4 0.000000 0.000000 0.000000 0.044597 0.000000 0.000000
# 5 0.000000 0.000000 0.000000 0.000000 0.044597 0.000000
# 6 0.000000 0.000000 0.000000 0.000000 0.000000 0.065982
#
#
# Mechanical properties :
#
#
# Convention : Reuss Voigt Hill
#
# Bulk Modulus (GPa) = 60.05360 64.14848 62.10104
# Shear Modulus (GPa) = 19.00403 19.76189 19.38296
#
# Velocity S-wave (km/s) = 3.44184 3.50980 3.47599
# Velocity P-wave (km/s) = 7.29588 7.51082 7.40413
#
# Compressibility (1/GPa) = 0.01665179
#
# Stress axis : x y z
#
# Youngs Moduli (GPa) = 45.26943 45.26943 65.21319
#
# Poissons Ratio (x) = 0.33910 0.45455
# Poissons Ratio (y) = 0.33910 0.45455
# Poissons Ratio (z) = 0.31554 0.31554
#
# Static dielectric constant tensor:
#      x y z
#    x 2.895710 0.000000 0.000000 
#    y 0.000000 2.895710 0.000000 
#    z 0.000000 0.000000 3.307180 
# 
# 
# High freq. dielectric constant tensor:
#      x y z
#    x 1.595400 0.000000 0.000000 
#    y 0.000000 1.595400 0.000000 
#    z 0.000000 0.000000 1.634340 
# 
# From -- ./inp_files/1831.got.cif
#   From: 2010.03.12/outbox.cif.g09.slc.cpg/sg99_cif.got.tgz:1831.got - 2010.04.08 21:11:30.
