data_PCOD8306395
_publ_section_title
;
Structure prediction by ZEFSAII (Michael W. Deem and Ramdas Pophale) SiO2 
 PCOD8306395
Probable space group: I 41 2 2
;
_chemical_formula_sum "Si O2"
_cell_formula_units_Z 48
_cell_length_a 20.322844
_cell_length_b 20.322844
_cell_length_c 5.326066
_cell_angle_alpha 90.000000
_cell_angle_beta 90.000000
_cell_angle_gamma 90.000000
_cell_volume 2199.761065
_symmetry_space_group_name_H-M "I 41 2 2"
_symmetry_group_IT_number 98
_symmetry_cell_setting 'tetragonal'
loop_
_space_group_symop_operation_xyz
x,y,z
-y,1/2+x,1/4+z
-x,-y,z
y,1/2-x,1/4+z
x,1/2-y,1/4-z
-x,1/2+y,1/4-z
y,x,-z
-y,-x,-z
1/2+x,1/2+y,1/2+z
1/2-y,x,3/4+z
1/2-x,1/2-y,1/2+z
1/2+y,-x,3/4+z
1/2+x,-y,3/4-z
1/2-x,y,3/4-z
1/2+y,1/2+x,1/2-z
1/2-y,1/2-x,1/2-z
loop_
_atom_site_type_symbol
_atom_site_label
_atom_site_fract_x
_atom_site_fract_y
_atom_site_fract_z
Si Si1 0.573619 0.073619 0.250000
Si Si2 0.250000 0.500744 0.375000
Si Si3 0.558134 0.614749 0.760097
Si Si4 0.614332 0.195691 0.942842
O O1 0.508255 0.076013 0.417433
O O2 0.634270 0.079120 0.434237
O O3 0.308290 0.453864 0.282515
O O4 0.232137 0.550579 0.156722
O O5 0.585119 0.585119 0.500000
O O6 0.607278 0.607278 0.000000
O O7 0.670516 0.170516 0.750000
O O8 0.648889 0.250000 0.125000
#
# Coordination Sequence:
#
# PCOD8306395 Si02
#       4
#     8   8  16  16
#     4  12  25  42  76 108 146 196 258 324 381 460
#     4  12  26  46  76 104 156 198 256 312 386 478
#     4  12  28  46  75 115 150 198 255 324 401 459
#     4  12  23  44  76 106 152 214 257 309 375 453
#
# _framework density 21.820550999999998
#
# number of rings (size 3 to 8) (size 9 to 14) (size 15 to 20)
#    0.000    0.000    6.667    2.500    0.000    4.000 
#    0.000    0.000   51.333    2.000    0.000    0.000 
#    0.000    0.000    0.000    0.000    0.000    0.000 
#
# Total GULP energy -297425.843644 kJ/mol
# GULP energy per Si atom -12392.743485 kJ/mol
# Density = 2.177089 g / cm^3
# Si number density = 21.820551 Si / 1000 Ang^3
#
#
#
# Elastic Constant Matrix: (Units=GPa)
#
#
# Indices 1 2 3 4 5 6 
#
# 1 148.5910 73.7905 80.2314 0.0000 0.0000 0.0000
# 2 73.7905 148.5910 80.2314 0.0000 0.0000 0.0000
# 3 80.2314 80.2314 178.7248 0.0000 0.0000 0.0000
# 4 0.0000 0.0000 0.0000 57.9114 0.0000 0.0000
# 5 0.0000 0.0000 0.0000 0.0000 57.9114 0.0000
# 6 0.0000 0.0000 0.0000 0.0000 0.0000 10.8605
#
#
#
# Elastic Compliance Matrix: (Units=1/GPa)
#
#
# Indices 1 2 3 4 5 6 
#
# 1 0.010010 -0.003359 -0.002986 0.000000 0.000000 0.000000
# 2 -0.003359 0.010010 -0.002986 0.000000 0.000000 0.000000
# 3 -0.002986 -0.002986 0.008276 0.000000 0.000000 0.000000
# 4 0.000000 0.000000 0.000000 0.017268 0.000000 0.000000
# 5 0.000000 0.000000 0.000000 0.000000 0.017268 0.000000
# 6 0.000000 0.000000 0.000000 0.000000 0.000000 0.092076
#
#
# Mechanical properties :
#
#
# Convention : Reuss Voigt Hill
#
# Bulk Modulus (GPa) = 103.78665 104.93482 104.36073
# Shear Modulus (GPa) = 28.28364 41.44691 34.86527
#
# Velocity S-wave (km/s) = 3.60417 4.36299 4.00161
# Velocity P-wave (km/s) = 8.06146 8.57760 8.32353
#
# Compressibility (1/GPa) = 0.00963515
#
# Stress axis : x y z
#
# Youngs Moduli (GPa) = 99.89946 99.89946 120.83256
#
# Poissons Ratio (x) = 0.33555 0.36078
# Poissons Ratio (y) = 0.33555 0.36078
# Poissons Ratio (z) = 0.29828 0.29828
#
# Static dielectric constant tensor:
#      x y z
#    x 8.295740 0.000000 0.000000 
#    y 0.000000 8.295750 0.000000 
#    z 0.000000 0.000000 4.516710 
# 
# 
# High freq. dielectric constant tensor:
#      x y z
#    x 1.853870 0.000000 0.000000 
#    y 0.000000 1.853870 0.000000 
#    z 0.000000 0.000000 1.884260 
# 
# From -- ./inp_files/860.got.cif
#   From: 2010.03.12/outbox.cif.g09.slc.cpg/sg98_1_cif.got.tgz:860.got - 2010.04.08 21:04:41.
