data_PCOD8306315
_publ_section_title
;
Structure prediction by ZEFSAII (Michael W. Deem and Ramdas Pophale) SiO2 
 PCOD8306315
Probable space group: I 41 2 2
;
_chemical_formula_sum "Si O2"
_cell_formula_units_Z 56
_cell_length_a 16.635438
_cell_length_b 16.635438
_cell_length_c 9.397105
_cell_angle_alpha 90.000000
_cell_angle_beta 90.000000
_cell_angle_gamma 90.000000
_cell_volume 2600.534140
_symmetry_space_group_name_H-M "I 41 2 2"
_symmetry_group_IT_number 98
_symmetry_cell_setting 'tetragonal'
loop_
_space_group_symop_operation_xyz
x,y,z
-y,1/2+x,1/4+z
-x,-y,z
y,1/2-x,1/4+z
x,1/2-y,1/4-z
-x,1/2+y,1/4-z
y,x,-z
-y,-x,-z
1/2+x,1/2+y,1/2+z
1/2-y,x,3/4+z
1/2-x,1/2-y,1/2+z
1/2+y,-x,3/4+z
1/2+x,-y,3/4-z
1/2-x,y,3/4-z
1/2+y,1/2+x,1/2-z
1/2-y,1/2-x,1/2-z
loop_
_atom_site_type_symbol
_atom_site_label
_atom_site_fract_x
_atom_site_fract_y
_atom_site_fract_z
Si Si1 0.165324 0.250000 0.625000
Si Si2 0.070026 0.627917 0.402361
Si Si3 0.921822 0.588407 0.590425
Si Si4 0.540148 0.292118 0.769156
O O1 0.224087 0.275913 0.750000
O O2 0.105284 0.320027 0.579949
O O3 0.084226 0.584226 0.250000
O O4 0.055248 0.723752 0.388513
O O5 0.150600 0.618266 0.498409
O O6 0.998519 0.581122 0.485574
O O7 0.941972 0.558029 0.750000
O O8 0.845868 0.536778 0.546314
O O9 0.516665 0.250000 0.625000
#
# Coordination Sequence:
#
# PCOD8306315 Si02
#       4
#     8  16  16  16
#     4  10  22  38  62  98 140 174 214 270 336 410
#     4  10  22  43  68  96 134 175 232 277 336 408
#     4  11  23  42  66  97 135 173 219 279 343 409
#     4  10  23  40  67  94 131 176 229 281 332 401
#
# _framework density 21.534039
#
# number of rings (size 3 to 8) (size 9 to 14) (size 15 to 20)
#    0.000    1.714    0.000    4.286    2.000   10.286 
#    0.000    0.000   72.286    0.000    0.000    0.000 
#    0.000    0.000    0.000    0.000    0.000    0.000 
#
# Total GULP energy -347024.656224 kJ/mol
# GULP energy per Si atom -12393.737722 kJ/mol
# Density = 2.148503 g / cm^3
# Si number density = 21.534039 Si / 1000 Ang^3
#
#
#
# Elastic Constant Matrix: (Units=GPa)
#
#
# Indices 1 2 3 4 5 6 
#
# 1 132.1485 85.6270 57.3943 0.0000 0.0000 0.0000
# 2 85.6270 132.1509 57.3938 0.0000 0.0000 0.0000
# 3 57.3943 57.3938 87.0270 0.0000 0.0000 0.0000
# 4 0.0000 0.0000 0.0000 33.9573 0.0000 0.0000
# 5 0.0000 0.0000 0.0000 0.0000 33.9592 0.0000
# 6 0.0000 0.0000 0.0000 0.0000 0.0000 32.2036
#
#
#
# Elastic Compliance Matrix: (Units=1/GPa)
#
#
# Indices 1 2 3 4 5 6 
#
# 1 0.014267 -0.007228 -0.004642 0.000000 0.000000 0.000000
# 2 -0.007228 0.014266 -0.004642 0.000000 0.000000 0.000000
# 3 -0.004642 -0.004642 0.017613 0.000000 0.000000 0.000000
# 4 0.000000 0.000000 0.000000 0.029449 0.000000 0.000000
# 5 0.000000 0.000000 0.000000 0.000000 0.029447 0.000000
# 6 0.000000 0.000000 0.000000 0.000000 0.000000 0.031052
#
#
# Mechanical properties :
#
#
# Convention : Reuss Voigt Hill
#
# Bulk Modulus (GPa) = 76.20311 83.57294 79.88803
# Shear Modulus (GPa) = 28.81957 30.08479 29.45218
#
# Velocity S-wave (km/s) = 3.66228 3.74181 3.70226
# Velocity P-wave (km/s) = 7.30392 7.58697 7.44679
#
# Compressibility (1/GPa) = 0.01312282
#
# Stress axis : x y z
#
# Youngs Moduli (GPa) = 70.09213 70.09433 56.77513
#
# Poissons Ratio (x) = 0.50665 0.26356
# Poissons Ratio (y) = 0.50664 0.26353
# Poissons Ratio (z) = 0.32538 0.32536
#
# Static dielectric constant tensor:
#      x y z
#    x 3.996350 0.000000 0.000000 
#    y 0.000000 3.996300 0.000000 
#    z 0.000000 0.000000 4.829480 
# 
# 
# High freq. dielectric constant tensor:
#      x y z
#    x 1.856300 0.000000 0.000000 
#    y 0.000000 1.856300 0.000000 
#    z 0.000000 0.000000 1.843480 
# 
# From -- ./inp_files/3028.got.cif
#   From: 2010.03.12/outbox.cif.g09.slc.cpg/sg98_2_cif.got.tgz:3028.got - 2010.04.08 21:04:41.
