data_PCOD8306515
_publ_section_title
;
Structure prediction by ZEFSAII (Michael W. Deem and Ramdas Pophale) SiO2 
 PCOD8306515
Probable space group: P 4 M M
;
_chemical_formula_sum "Si O2"
_cell_formula_units_Z 48
_cell_length_a 17.643730
_cell_length_b 17.643730
_cell_length_c 8.674626
_cell_angle_alpha 90.000000
_cell_angle_beta 90.000000
_cell_angle_gamma 90.000000
_cell_volume 2700.421555
_symmetry_space_group_name_H-M "P 4 M M"
_symmetry_group_IT_number 99
_symmetry_cell_setting 'tetragonal'
loop_
_space_group_symop_operation_xyz
x,y,z
-y,x,z
-x,-y,z
y,-x,z
-x,y,z
x,-y,z
-y,-x,z
y,x,z
loop_
_atom_site_type_symbol
_atom_site_label
_atom_site_fract_x
_atom_site_fract_y
_atom_site_fract_z
Si Si1 0.786854 0.911496 0.789380
Si Si2 0.301909 0.818261 0.034063
Si Si3 0.915773 0.640651 0.611061
Si Si4 0.414965 0.221162 0.783253
Si Si5 0.586917 0.855990 0.298902
Si Si6 0.298812 0.416537 0.472226
O O1 0.863113 0.863113 0.759085
O O2 0.744498 0.883087 0.943881
O O3 0.729678 0.897984 0.645114
O O4 0.808784 0.000000 0.807863
O O5 0.241871 0.758130 0.107752
O O6 0.355533 0.769495 0.920412
O O7 0.355874 0.860998 0.155255
O O8 0.863194 0.586090 0.712048
O O9 0.909348 0.622352 0.430101
O O10 0.000000 0.622174 0.667029
O O11 0.500000 0.237411 0.843965
O O12 0.391631 0.277189 0.645279
O O13 0.500000 0.880832 0.256861
O O14 0.586400 0.770699 0.357020
O O15 0.333977 0.500000 0.476583
O O16 0.361123 0.361123 0.403398
#
# Coordination Sequence:
#
# PCOD8306515 Si02
#       6
#     8   8   8   8   8   8
#     4   9  19  35  54  76  99 125 159 198 241 288
#     4  10  19  31  48  68  94 127 161 198 238 282
#     4   9  18  32  49  70  96 124 154 187 229 283
#     4   9  17  29  46  66  89 119 155 196 238 283
#     4  10  20  31  46  70  98 128 161 196 232 276
#     4   9  17  29  44  63  87 116 154 197 240 284
#
# _framework density 17.775002000000001
#
# number of rings (size 3 to 8) (size 9 to 14) (size 15 to 20)
#    0.000    2.667    0.000    3.000    0.000    7.000 
#    0.000    0.000    0.000    3.000    0.000    0.000 
#    0.000   14.667    0.000    0.000    0.000    0.000 
#
# Total GULP energy -594933.057669 kJ/mol
# GULP energy per Si atom -12394.438701 kJ/mol
# Density = 1.773455 g / cm^3
# Si number density = 17.775002 Si / 1000 Ang^3
#
#
#
# Elastic Constant Matrix: (Units=GPa)
#
#
# Indices 1 2 3 4 5 6 
#
# 1 81.7751 45.7800 16.0529 0.0000 0.0000 0.0001
# 2 45.7800 81.7751 16.0529 0.0000 0.0000 -0.0001
# 3 16.0529 16.0529 53.5794 0.0000 0.0000 0.0000
# 4 0.0000 0.0000 0.0000 18.5757 0.0000 0.0000
# 5 0.0000 0.0000 0.0000 0.0000 18.5757 0.0000
# 6 0.0001 -0.0001 0.0000 0.0000 0.0000 24.1442
#
#
#
# Elastic Compliance Matrix: (Units=1/GPa)
#
#
# Indices 1 2 3 4 5 6 
#
# 1 0.018130 -0.009651 -0.002540 0.000000 0.000000 0.000000
# 2 -0.009651 0.018130 -0.002540 0.000000 0.000000 0.000000
# 3 -0.002540 -0.002540 0.020186 0.000000 0.000000 0.000000
# 4 0.000000 0.000000 0.000000 0.053834 0.000000 0.000000
# 5 0.000000 0.000000 0.000000 0.000000 0.053834 0.000000
# 6 0.000000 0.000000 0.000000 0.000000 0.000000 0.041418
#
#
# Mechanical properties :
#
#
# Convention : Reuss Voigt Hill
#
# Bulk Modulus (GPa) = 37.06069 41.43346 39.24707
# Shear Modulus (GPa) = 20.49258 21.54203 21.01730
#
# Velocity S-wave (km/s) = 3.39910 3.48505 3.44235
# Velocity P-wave (km/s) = 6.02498 6.28925 6.15853
#
# Compressibility (1/GPa) = 0.02698277
#
# Stress axis : x y z
#
# Youngs Moduli (GPa) = 55.15600 55.15600 49.53881
#
# Poissons Ratio (x) = 0.53232 0.12585
# Poissons Ratio (y) = 0.53232 0.12585
# Poissons Ratio (z) = 0.14012 0.14012
#
# Static dielectric constant tensor:
#      x y z
#    x 3.264500 0.000000 0.000000 
#    y 0.000000 3.264500 0.000000 
#    z 0.000000 0.000000 3.157490 
# 
# 
# High freq. dielectric constant tensor:
#      x y z
#    x 1.682460 0.000000 0.000000 
#    y 0.000000 1.682460 0.000000 
#    z 0.000000 0.000000 1.668680 
# 
# From -- ./inp_files/912.got.cif
#   From: 2010.03.12/outbox.cif.g09.slc.cpg/sg99_cif.got.tgz:912.got - 2010.04.08 21:11:30.
