data_PCOD8306051
_publ_section_title
;
Structure prediction by ZEFSAII (Michael W. Deem and Ramdas Pophale) SiO2 
 PCOD8306051
Probable space group: I 4 2 2 
;
_chemical_formula_sum "Si O2"
_cell_formula_units_Z 104
_cell_length_a 17.577758
_cell_length_b 17.577758
_cell_length_c 18.541420
_cell_angle_alpha 90.000000
_cell_angle_beta 90.000000
_cell_angle_gamma 90.000000
_cell_volume 5728.883013
_symmetry_space_group_name_H-M "I 4 2 2 "
_symmetry_group_IT_number 97
_symmetry_cell_setting 'tetragonal'
loop_
_space_group_symop_operation_xyz
x,y,z
-y,x,z
-x,-y,z
y,-x,z
x,-y,-z
-x,y,-z
y,x,-z
-y,-x,-z
1/2+x,1/2+y,1/2+z
1/2-y,1/2+x,1/2+z
1/2-x,1/2-y,1/2+z
1/2+y,1/2-x,1/2+z
1/2+x,1/2-y,1/2-z
1/2-x,1/2+y,1/2-z
1/2+y,1/2+x,1/2-z
1/2-y,1/2-x,1/2-z
loop_
_atom_site_type_symbol
_atom_site_label
_atom_site_fract_x
_atom_site_fract_y
_atom_site_fract_z
Si Si1 0.847718 0.157549 0.646884
Si Si2 0.884068 0.266098 0.240459
Si Si3 0.221830 0.000000 0.000000
Si Si4 0.410280 0.589721 0.000000
Si Si5 0.964871 0.743318 0.152422
Si Si6 0.839574 0.160427 0.000000
Si Si7 0.803276 0.248394 0.857111
Si Si8 0.383919 0.546493 0.734709
O O1 0.780984 0.106573 0.685006
O O2 0.868486 0.123507 0.569636
O O3 0.814868 0.241998 0.639494
O O4 0.925180 0.162128 0.694644
O O5 0.851114 0.351114 0.250000
O O6 0.822109 0.218199 0.194744
O O7 0.966971 0.279093 0.205558
O O8 0.274979 0.987012 0.069984
O O9 0.169948 0.927929 0.981272
O O10 0.393984 0.500000 0.000000
O O11 0.881338 0.708380 0.169524
O O12 0.945243 0.834198 0.162012
O O13 0.815059 0.215154 0.935915
O O14 0.401734 0.457889 0.736679
#
# Coordination Sequence:
#
# PCOD8306051 Si02
#       8
#    16  16   8   8  16   8  16  16
#     4  11  21  37  54  79 111 151 187 234 280 341
#     4  10  20  35  55  81 114 148 192 235 280 339
#     4  10  22  29  48  70 116 148 177 218 262 338
#     4  11  25  40  57  84 119 150 185 235 294 354
#     4  11  19  36  51  83 112 152 185 229 281 331
#     4  10  19  35  45  72 107 149 181 222 270 326
#     4  10  20  33  56  78 112 146 192 232 277 336
#     4  11  21  32  52  79 113 149 176 212 275 347
#
# _framework density 18.153627
#
# number of rings (size 3 to 8) (size 9 to 14) (size 15 to 20)
#    0.000    1.462    4.615    1.385    2.154    1.385 
#    0.000    0.000    0.000    0.000    0.000    2.154 
#    0.000    4.923    0.000    0.000    0.000    0.000 
#
# Total GULP energy -644225.750616 kJ/mol
# GULP energy per Si atom -12388.956743 kJ/mol
# Density = 1.811231 g / cm^3
# Si number density = 18.153627 Si / 1000 Ang^3
#
#
#
# Elastic Constant Matrix: (Units=GPa)
#
#
# Indices 1 2 3 4 5 6 
#
# 1 90.9931 42.9692 36.8016 0.0000 0.0000 0.0000
# 2 42.9692 90.9915 36.8013 0.0000 0.0000 0.0000
# 3 36.8016 36.8013 106.5224 0.0000 0.0000 0.0000
# 4 0.0000 0.0000 0.0000 25.0257 0.0000 0.0000
# 5 0.0000 0.0000 0.0000 0.0000 25.0259 0.0000
# 6 0.0000 0.0000 0.0000 0.0000 0.0000 12.3499
#
#
#
# Elastic Compliance Matrix: (Units=1/GPa)
#
#
# Indices 1 2 3 4 5 6 
#
# 1 0.015018 -0.005805 -0.003183 0.000000 0.000000 0.000000
# 2 -0.005805 0.015019 -0.003183 0.000000 0.000000 0.000000
# 3 -0.003183 -0.003183 0.011587 0.000000 0.000000 0.000000
# 4 0.000000 0.000000 0.000000 0.039959 0.000000 0.000000
# 5 0.000000 0.000000 0.000000 0.000000 0.039959 0.000000
# 6 0.000000 0.000000 0.000000 0.000000 0.000000 0.080972
#
#
# Mechanical properties :
#
#
# Convention : Reuss Voigt Hill
#
# Bulk Modulus (GPa) = 57.86373 57.96122 57.91248
# Shear Modulus (GPa) = 21.49460 23.94265 22.71863
#
# Velocity S-wave (km/s) = 3.44472 3.63559 3.54144
# Velocity P-wave (km/s) = 6.91123 7.04421 6.97804
#
# Compressibility (1/GPa) = 0.01728198
#
# Stress axis : x y z
#
# Youngs Moduli (GPa) = 66.58502 66.58374 86.30246
#
# Poissons Ratio (x) = 0.38650 0.27471
# Poissons Ratio (y) = 0.38651 0.27472
# Poissons Ratio (z) = 0.21195 0.21195
#
# Static dielectric constant tensor:
#      x y z
#    x 3.424480 0.000000 0.000000 
#    y 0.000000 3.424500 0.000000 
#    z 0.000000 0.000000 3.544490 
# 
# 
# High freq. dielectric constant tensor:
#      x y z
#    x 1.688700 0.000000 0.000000 
#    y 0.000000 1.688700 0.000000 
#    z 0.000000 0.000000 1.712920 
# 
# From -- ./inp_files/5900.got.cif
#   From: 2010.03.12/outbox.cif.g09.slc.cpg/sg97_3_cif.got.tgz:5900.got - 2010.04.08 20:59:42.
