data_PCOD8306882
_publ_section_title
;
Structure prediction by ZEFSAII (Michael W. Deem and Ramdas Pophale) SiO2 
 PCOD8306882
Probable space group: P 42 N M
;
_chemical_formula_sum "Si O2"
_cell_formula_units_Z 48
_cell_length_a 11.423883
_cell_length_b 11.423883
_cell_length_c 19.306205
_cell_angle_alpha 90.000000
_cell_angle_beta 90.000000
_cell_angle_gamma 90.000000
_cell_volume 2519.558268
_symmetry_space_group_name_H-M "P 42 N M"
_symmetry_group_IT_number 102
_symmetry_cell_setting 'tetragonal'
loop_
_space_group_symop_operation_xyz
x,y,z
1/2-y,1/2+x,1/2+z
-x,-y,z
1/2+y,1/2-x,1/2+z
1/2-x,1/2+y,1/2+z
1/2+x,1/2-y,1/2+z
-y,-x,z
y,x,z
loop_
_atom_site_type_symbol
_atom_site_label
_atom_site_fract_x
_atom_site_fract_y
_atom_site_fract_z
Si Si1 0.094405 0.094405 0.941890
Si Si2 0.905595 0.905595 0.341092
Si Si3 0.717500 0.282501 0.718204
Si Si4 0.321638 0.030668 0.865959
Si Si5 0.030667 0.321638 0.417025
Si Si6 0.138956 0.483821 0.217775
Si Si7 0.217498 0.217498 0.064780
Si Si8 0.361044 0.983819 0.565209
O O1 0.193326 0.033275 0.896396
O O2 0.141491 0.141491 0.013592
O O3 0.000000 0.000000 0.962786
O O4 0.858508 0.858508 0.269392
O O5 0.966725 0.806674 0.386587
O O6 0.000000 0.000000 0.320197
O O7 0.853146 0.313265 0.729235
O O8 0.679396 0.320605 0.641492
O O9 0.401307 0.126298 0.904626
O O10 0.373703 0.901308 0.878358
O O11 0.312697 0.057592 0.783207
O O12 0.057590 0.312696 0.499777
O O13 0.182233 0.528856 0.141492
O O14 0.000000 0.500000 0.220950
O O15 0.353144 0.186734 0.053749
O O16 0.500000 0.000000 0.562033
#
# Coordination Sequence:
#
# PCOD8306882 Si02
#       8
#     4   4   4   8   8   8   4   8
#     4  12  26  35  59  92 122 151 197 248 288 349
#     4  12  26  35  59  92 122 151 197 248 288 349
#     4  10  20  37  60  85 118 154 190 245 298 354
#     4  11  21  40  62  86 115 157 193 243 297 348
#     4  11  21  40  62  86 115 157 193 243 297 348
#     4  10  19  35  61  87 111 151 200 240 294 359
#     4  10  20  37  60  85 118 154 190 245 298 354
#     4  10  19  35  61  87 111 151 200 240 294 359
#
# _framework density 19.050958000000001
#
# number of rings (size 3 to 8) (size 9 to 14) (size 15 to 20)
#    0.000    1.333    6.667    0.000    4.667    0.333 
#    0.000    0.833    0.000    1.000    0.000    0.000 
#    0.000    0.000    0.000    0.000    0.000    0.000 
#
# Total GULP energy -594859.061789 kJ/mol
# GULP energy per Si atom -12392.897121 kJ/mol
# Density = 1.900760 g / cm^3
# Si number density = 19.050958 Si / 1000 Ang^3
#
#
#
# Elastic Constant Matrix: (Units=GPa)
#
#
# Indices 1 2 3 4 5 6 
#
# 1 58.2860 15.8128 8.7008 0.0000 0.0000 0.0001
# 2 15.8128 58.2860 8.7008 0.0000 0.0000 -0.0001
# 3 8.7008 8.7008 168.5972 0.0000 0.0000 0.0000
# 4 0.0000 0.0000 0.0000 23.6688 0.0000 0.0000
# 5 0.0000 0.0000 0.0000 0.0000 23.6688 0.0000
# 6 0.0001 -0.0001 0.0000 0.0000 0.0000 29.0903
#
#
#
# Elastic Compliance Matrix: (Units=1/GPa)
#
#
# Indices 1 2 3 4 5 6 
#
# 1 0.018603 -0.004942 -0.000705 0.000000 0.000000 0.000000
# 2 -0.004942 0.018603 -0.000705 0.000000 0.000000 0.000000
# 3 -0.000705 -0.000705 0.006004 0.000000 0.000000 0.000000
# 4 0.000000 0.000000 0.000000 0.042250 0.000000 0.000000
# 5 0.000000 0.000000 0.000000 0.000000 0.042250 0.000000
# 6 0.000000 0.000000 0.000000 0.000000 0.000000 0.034376
#
#
# Mechanical properties :
#
#
# Convention : Reuss Voigt Hill
#
# Bulk Modulus (GPa) = 32.78027 39.06645 35.92336
# Shear Modulus (GPa) = 27.03339 32.08256 29.55798
#
# Velocity S-wave (km/s) = 3.77105 4.10816 3.94321
# Velocity P-wave (km/s) = 6.01707 6.56151 6.29518
#
# Compressibility (1/GPa) = 0.03050616
#
# Stress axis : x y z
#
# Youngs Moduli (GPa) = 53.75577 53.75577 166.55382
#
# Poissons Ratio (x) = 0.26564 0.11742
# Poissons Ratio (y) = 0.26564 0.11742
# Poissons Ratio (z) = 0.03790 0.03790
#
# Static dielectric constant tensor:
#      x y z
#    x 3.380140 0.000000 0.000000 
#    y 0.000000 3.380140 0.000000 
#    z 0.000000 0.000000 4.161850 
# 
# 
# High freq. dielectric constant tensor:
#      x y z
#    x 1.718810 0.000000 0.000000 
#    y 0.000000 1.718810 0.000000 
#    z 0.000000 0.000000 1.776410 
# 
# From -- ./inp_files/3085.got.cif
#   From: 2010.03.12/outbox.cif.g09.slc.cpg/sg102_2_cif.got.tgz:3085.got - 2010.04.14 01:40:42.
