data_PCOD8306606
_publ_section_title
;
Structure prediction by ZEFSAII (Michael W. Deem and Ramdas Pophale) SiO2 
 PCOD8306606
Probable space group: P 4 M M
;
_chemical_formula_sum "Si O2"
_cell_formula_units_Z 64
_cell_length_a 23.001059
_cell_length_b 23.001059
_cell_length_c 5.669702
_cell_angle_alpha 90.000000
_cell_angle_beta 90.000000
_cell_angle_gamma 90.000000
_cell_volume 2999.548558
_symmetry_space_group_name_H-M "P 4 M M"
_symmetry_group_IT_number 99
_symmetry_cell_setting 'tetragonal'
loop_
_space_group_symop_operation_xyz
x,y,z
-y,x,z
-x,-y,z
y,-x,z
-x,y,z
x,-y,z
-y,-x,z
y,x,z
loop_
_atom_site_type_symbol
_atom_site_label
_atom_site_fract_x
_atom_site_fract_y
_atom_site_fract_z
Si Si1 0.930813 0.838741 0.802750
Si Si2 0.235220 0.436500 0.517631
Si Si3 0.565907 0.341099 0.849845
Si Si4 0.215739 0.066758 0.299517
Si Si5 0.647718 0.260149 0.133070
Si Si6 0.935836 0.331369 0.524148
Si Si7 0.376388 0.845697 0.849997
Si Si8 0.566110 0.935936 0.191471
O O1 0.902776 0.902776 0.808654
O O2 0.909533 0.809081 0.553914
O O3 0.000000 0.844628 0.806753
O O4 0.907734 0.806271 0.045948
O O5 0.226812 0.500000 0.396420
O O6 0.299957 0.434194 0.622992
O O7 0.182968 0.428592 0.701063
O O8 0.227434 0.381084 0.351356
O O9 0.500000 0.354818 0.932822
O O10 0.598566 0.401435 0.788064
O O11 0.600278 0.307593 0.054046
O O12 0.285436 0.077710 0.314325
O O13 0.198582 0.000000 0.290445
O O14 0.708335 0.291666 0.195635
O O15 0.660909 0.208659 0.949644
O O16 0.885814 0.328778 0.720163
O O17 0.936284 0.396936 0.430399
O O18 0.000000 0.315853 0.632443
O O19 0.410704 0.884412 0.033966
O O20 0.500000 0.923347 0.263749
O O21 0.571984 0.000000 0.068729
#
# Coordination Sequence:
#
# PCOD8306606 Si02
#       8
#     8   8   8   8   8   8   8   8
#     4  10  20  37  62  94 129 165 207 260 317 374
#     4  10  20  35  56  80 108 145 188 231 280 346
#     4   9  18  32  52  78 105 137 178 224 278 338
#     4   9  20  37  61  88 121 165 214 254 295 366
#     4  10  21  37  55  76 107 148 191 236 285 340
#     4  10  22  39  61  83 111 154 198 240 293 359
#     4  11  22  36  58  85 114 147 189 239 297 354
#     4  10  22  39  60  90 124 152 185 238 305 371
#
# _framework density 21.336542999999999
#
# number of rings (size 3 to 8) (size 9 to 14) (size 15 to 20)
#    0.000    2.125    0.000    2.625    1.750    4.250 
#    0.000    2.500    0.000    2.250    0.000    1.750 
#    0.000    0.000    0.000    0.000    0.000    0.000 
#
# Total GULP energy -792859.588211 kJ/mol
# GULP energy per Si atom -12388.431066 kJ/mol
# Density = 2.128798 g / cm^3
# Si number density = 21.336543 Si / 1000 Ang^3
#
#
#
# Elastic Constant Matrix: (Units=GPa)
#
#
# Indices 1 2 3 4 5 6 
#
# 1 90.5920 35.0483 21.3586 0.0000 0.0000 0.0005
# 2 35.0483 90.5920 21.3586 0.0000 0.0000 -0.0005
# 3 21.3586 21.3586 91.2844 0.0000 0.0000 0.0000
# 4 0.0000 0.0000 0.0000 24.9863 0.0000 0.0000
# 5 0.0000 0.0000 0.0000 0.0000 24.9863 0.0000
# 6 0.0005 -0.0005 0.0000 0.0000 0.0000 6.7244
#
#
#
# Elastic Compliance Matrix: (Units=1/GPa)
#
#
# Indices 1 2 3 4 5 6 
#
# 1 0.013325 -0.004678 -0.002023 0.000000 0.000000 -0.000001
# 2 -0.004678 0.013325 -0.002023 0.000000 0.000000 0.000001
# 3 -0.002023 -0.002023 0.011902 0.000000 0.000000 0.000000
# 4 0.000000 0.000000 0.000000 0.040022 0.000000 0.000000
# 5 0.000000 0.000000 0.000000 0.000000 0.040022 0.000000
# 6 -0.000001 0.000001 0.000000 0.000000 0.000000 0.148711
#
#
# Mechanical properties :
#
#
# Convention : Reuss Voigt Hill
#
# Bulk Modulus (GPa) = 47.38699 47.55550 47.47125
# Shear Modulus (GPa) = 17.13550 24.31958 20.72754
#
# Velocity S-wave (km/s) = 2.83699 3.37977 3.12020
# Velocity P-wave (km/s) = 5.74359 6.12920 5.93953
#
# Compressibility (1/GPa) = 0.02110284
#
# Stress axis : x y z
#
# Youngs Moduli (GPa) = 75.04417 75.04417 84.02252
#
# Poissons Ratio (x) = 0.35108 0.17000
# Poissons Ratio (y) = 0.35108 0.17000
# Poissons Ratio (z) = 0.15183 0.15183
#
# Static dielectric constant tensor:
#      x y z
#    x 3.861940 0.000000 0.000000 
#    y 0.000000 3.861940 0.000000 
#    z 0.000000 0.000000 3.913320 
# 
# 
# High freq. dielectric constant tensor:
#      x y z
#    x 1.831130 0.000000 0.000000 
#    y 0.000000 1.831130 0.000000 
#    z 0.000000 0.000000 1.826740 
# 
# From -- ./inp_files/527.got.cif
#   From: 2010.03.12/outbox.cif.g09.slc.cpg/sg99_cif.got.tgz:527.got - 2010.04.08 21:11:30.
