data_PCOD8306225
_publ_section_title
;
Structure prediction by ZEFSAII (Michael W. Deem and Ramdas Pophale) SiO2 
 PCOD8306225
Probable space group: I 41 2 2
;
_chemical_formula_sum "Si O2"
_cell_formula_units_Z 72
_cell_length_a 19.822155
_cell_length_b 19.822155
_cell_length_c 10.172252
_cell_angle_alpha 90.000000
_cell_angle_beta 90.000000
_cell_angle_gamma 90.000000
_cell_volume 3996.859170
_symmetry_space_group_name_H-M "I 41 2 2"
_symmetry_group_IT_number 98
_symmetry_cell_setting 'tetragonal'
loop_
_space_group_symop_operation_xyz
x,y,z
-y,1/2+x,1/4+z
-x,-y,z
y,1/2-x,1/4+z
x,1/2-y,1/4-z
-x,1/2+y,1/4-z
y,x,-z
-y,-x,-z
1/2+x,1/2+y,1/2+z
1/2-y,x,3/4+z
1/2-x,1/2-y,1/2+z
1/2+y,-x,3/4+z
1/2+x,-y,3/4-z
1/2-x,y,3/4-z
1/2+y,1/2+x,1/2-z
1/2-y,1/2-x,1/2-z
loop_
_atom_site_type_symbol
_atom_site_label
_atom_site_fract_x
_atom_site_fract_y
_atom_site_fract_z
Si Si1 0.442337 0.250000 0.625000
Si Si2 0.471373 0.390142 0.898603
Si Si3 0.740749 0.969773 0.591562
Si Si4 0.750000 0.423153 0.875000
Si Si5 0.382356 0.882356 0.250000
Si Si6 0.892050 0.893032 0.854228
O O1 0.490119 0.260270 0.496929
O O2 0.390797 0.188634 0.605892
O O3 0.440807 0.316248 0.937701
O O4 0.552475 0.384114 0.904572
O O5 0.448375 0.415082 0.753858
O O6 0.445697 0.445697 0.000000
O O7 0.681919 0.915768 0.563578
O O8 0.726038 0.033173 0.499719
O O9 0.685007 0.378909 0.911913
O O10 0.916812 0.916812 0.000000
#
# Coordination Sequence:
#
# PCOD8306225 Si02
#       6
#     8  16  16   8   8  16
#     4   8  16  28  46  70 106 148 180 204 234 282
#     4  10  19  31  50  76 106 136 171 209 244 292
#     4   9  17  30  48  72 102 140 173 205 247 287
#     4  10  20  36  60  76  92 122 164 210 264 322
#     4  10  21  36  58  80  98 126 162 212 271 320
#     4   9  16  29  48  71 104 142 176 205 239 282
#
# _framework density 18.014144000000002
#
# number of rings (size 3 to 8) (size 9 to 14) (size 15 to 20)
#    0.000    2.667    0.000    3.000    0.000    0.000 
#    0.000    5.556    0.000   65.333    0.000    0.000 
#    0.000    0.000    0.000    0.000    0.000    0.000 
#
# Total GULP energy -445998.553693 kJ/mol
# GULP energy per Si atom -12388.848714 kJ/mol
# Density = 1.797314 g / cm^3
# Si number density = 18.014144 Si / 1000 Ang^3
#
#
#
# Elastic Constant Matrix: (Units=GPa)
#
#
# Indices 1 2 3 4 5 6 
#
# 1 99.9257 49.3818 59.9705 0.0000 0.0000 0.0000
# 2 49.3818 99.9257 59.9705 0.0000 0.0000 0.0000
# 3 59.9705 59.9705 130.8323 0.0000 0.0000 0.0000
# 4 0.0000 0.0000 0.0000 23.3680 0.0000 0.0000
# 5 0.0000 0.0000 0.0000 0.0000 23.3680 0.0000
# 6 0.0000 0.0000 0.0000 0.0000 0.0000 25.7240
#
#
#
# Elastic Compliance Matrix: (Units=1/GPa)
#
#
# Indices 1 2 3 4 5 6 
#
# 1 0.015193 -0.004592 -0.004859 0.000000 0.000000 0.000000
# 2 -0.004592 0.015193 -0.004859 0.000000 0.000000 0.000000
# 3 -0.004859 -0.004859 0.012098 0.000000 0.000000 0.000000
# 4 0.000000 0.000000 0.000000 0.042794 0.000000 0.000000
# 5 0.000000 0.000000 0.000000 0.000000 0.042794 0.000000
# 6 0.000000 0.000000 0.000000 0.000000 0.000000 0.038874
#
#
# Mechanical properties :
#
#
# Convention : Reuss Voigt Hill
#
# Bulk Modulus (GPa) = 72.13345 74.36990 73.25167
# Shear Modulus (GPa) = 24.97658 25.24938 25.11298
#
# Velocity S-wave (km/s) = 3.72761 3.74791 3.73778
# Velocity P-wave (km/s) = 7.65874 7.75261 7.70582
#
# Compressibility (1/GPa) = 0.01386319
#
# Stress axis : x y z
#
# Youngs Moduli (GPa) = 65.81990 65.81990 82.65706
#
# Poissons Ratio (x) = 0.30223 0.40166
# Poissons Ratio (y) = 0.30223 0.40166
# Poissons Ratio (z) = 0.31984 0.31984
#
# Static dielectric constant tensor:
#      x y z
#    x 3.233350 0.000000 0.000000 
#    y 0.000000 3.233350 0.000000 
#    z 0.000000 0.000000 3.750060 
# 
# 
# High freq. dielectric constant tensor:
#      x y z
#    x 1.676620 0.000000 0.000000 
#    y 0.000000 1.676620 0.000000 
#    z 0.000000 0.000000 1.712170 
# 
# From -- ./inp_files/3491.got.cif
#   From: 2010.03.12/outbox.cif.g09.slc.cpg/sg98_2_cif.got.tgz:3491.got - 2010.04.08 21:04:41.
