data_PCOD8306175
_publ_section_title
;
Structure prediction by ZEFSAII (Michael W. Deem and Ramdas Pophale) SiO2 
 PCOD8306175
Probable space group: I 4 2 2 
;
_chemical_formula_sum "Si O2"
_cell_formula_units_Z 96
_cell_length_a 13.889143
_cell_length_b 13.889143
_cell_length_c 23.581426
_cell_angle_alpha 90.000000
_cell_angle_beta 90.000000
_cell_angle_gamma 90.000000
_cell_volume 4549.052643
_symmetry_space_group_name_H-M "I 4 2 2 "
_symmetry_group_IT_number 97
_symmetry_cell_setting 'tetragonal'
loop_
_space_group_symop_operation_xyz
x,y,z
-y,x,z
-x,-y,z
y,-x,z
x,-y,-z
-x,y,-z
y,x,-z
-y,-x,-z
1/2+x,1/2+y,1/2+z
1/2-y,1/2+x,1/2+z
1/2-x,1/2-y,1/2+z
1/2+y,1/2-x,1/2+z
1/2+x,1/2-y,1/2-z
1/2-x,1/2+y,1/2-z
1/2+y,1/2+x,1/2-z
1/2-y,1/2-x,1/2-z
loop_
_atom_site_type_symbol
_atom_site_label
_atom_site_fract_x
_atom_site_fract_y
_atom_site_fract_z
Si Si1 0.326209 0.273488 0.396330
Si Si2 0.184511 0.608182 0.190989
Si Si3 0.475194 0.657026 0.740935
Si Si4 0.529665 0.246629 0.370823
Si Si5 0.226454 0.500000 0.000000
Si Si6 0.596282 0.962382 0.605737
Si Si7 0.294144 0.705857 0.000000
O O1 0.291509 0.204387 0.344955
O O2 0.438008 0.248869 0.414694
O O3 0.325585 0.387540 0.381175
O O4 0.250077 0.262171 0.446828
O O5 0.135343 0.635343 0.250000
O O6 0.281790 0.547131 0.202689
O O7 0.116288 0.536505 0.156508
O O8 0.390731 0.579147 0.740154
O O9 0.472306 0.729550 0.687371
O O10 0.583485 0.144391 0.368960
O O11 0.172042 0.465563 0.055854
O O12 0.286882 0.593581 0.014901
O O13 0.500000 0.000000 0.575982
#
# Coordination Sequence:
#
# PCOD8306175 Si02
#       7
#    16  16  16  16   8  16   8
#     4  12  26  45  72 105 143 189 247 302 371 440
#     4  12  24  44  66 106 146 181 245 302 366 441
#     4  11  24  42  66  96 139 194 238 291 362 442
#     4  12  23  44  71 101 143 194 238 305 367 442
#     4  12  25  47  74 104 146 186 244 300 370 436
#     4  12  24  42  72 104 139 190 239 304 369 434
#     4  12  26  49  76 107 146 190 244 304 368 442
#
# _framework density 21.103294000000002
#
# number of rings (size 3 to 8) (size 9 to 14) (size 15 to 20)
#    0.000    0.167    8.333    0.250    2.333    3.500 
#    0.000    0.000    0.000    1.000    0.000    0.000 
#    0.000    0.000    0.000    0.000    0.000    0.000 
#
# Total GULP energy -594891.735168 kJ/mol
# GULP energy per Si atom -12393.577816 kJ/mol
# Density = 2.105526 g / cm^3
# Si number density = 21.103294 Si / 1000 Ang^3
#
#
#
# Elastic Constant Matrix: (Units=GPa)
#
#
# Indices 1 2 3 4 5 6 
#
# 1 132.1124 31.6658 36.7601 0.0000 0.0000 0.0000
# 2 31.6658 132.1118 36.7602 0.0000 0.0000 0.0000
# 3 36.7601 36.7602 85.8695 0.0000 0.0000 0.0000
# 4 0.0000 0.0000 0.0000 33.5950 0.0000 0.0000
# 5 0.0000 0.0000 0.0000 0.0000 33.5953 0.0000
# 6 0.0000 0.0000 0.0000 0.0000 0.0000 34.2653
#
#
#
# Elastic Compliance Matrix: (Units=1/GPa)
#
#
# Indices 1 2 3 4 5 6 
#
# 1 0.008757 -0.001199 -0.003236 0.000000 0.000000 0.000000
# 2 -0.001199 0.008757 -0.003236 0.000000 0.000000 0.000000
# 3 -0.003236 -0.003236 0.014416 0.000000 0.000000 0.000000
# 4 0.000000 0.000000 0.000000 0.029766 0.000000 0.000000
# 5 0.000000 0.000000 0.000000 0.000000 0.029766 0.000000
# 6 0.000000 0.000000 0.000000 0.000000 0.000000 0.029184
#
#
# Mechanical properties :
#
#
# Convention : Reuss Voigt Hill
#
# Bulk Modulus (GPa) = 60.27764 62.27397 61.27581
# Shear Modulus (GPa) = 35.33166 36.61830 35.97498
#
# Velocity S-wave (km/s) = 4.09617 4.17008 4.13329
# Velocity P-wave (km/s) = 7.14119 7.26356 7.20264
#
# Compressibility (1/GPa) = 0.01658990
#
# Stress axis : x y z
#
# Youngs Moduli (GPa) = 114.19536 114.19464 69.36774
#
# Poissons Ratio (x) = 0.13688 0.22445
# Poissons Ratio (y) = 0.13688 0.22445
# Poissons Ratio (z) = 0.36950 0.36950
#
# Static dielectric constant tensor:
#      x y z
#    x 3.992480 0.000000 0.000000 
#    y 0.000000 3.992490 0.000000 
#    z 0.000000 0.000000 3.668620 
# 
# 
# High freq. dielectric constant tensor:
#      x y z
#    x 1.841110 0.000000 0.000000 
#    y 0.000000 1.841110 0.000000 
#    z 0.000000 0.000000 1.811410 
# 
# From -- ./inp_files/6665.got.cif
#   From: 2010.03.12/outbox.cif.g09.slc.cpg/sg97_4_cif.got.tgz:6665.got - 2010.04.08 20:59:42.
