data_PCOD8306813
_publ_section_title
;
Structure prediction by ZEFSAII (Michael W. Deem and Ramdas Pophale) SiO2 
 PCOD8306813
Probable space group: P 42 C M
;
_chemical_formula_sum "Si O2"
_cell_formula_units_Z 48
_cell_length_a 12.667655
_cell_length_b 12.667655
_cell_length_c 17.741306
_cell_angle_alpha 90.000000
_cell_angle_beta 90.000000
_cell_angle_gamma 90.000000
_cell_volume 2846.938205
_symmetry_space_group_name_H-M "P 42 C M"
_symmetry_group_IT_number 101
_symmetry_cell_setting 'tetragonal'
loop_
_space_group_symop_operation_xyz
x,y,z
-y,x,1/2+z
-x,-y,z
y,-x,1/2+z
-x,y,1/2+z
x,-y,1/2+z
-y,-x,z
y,x,z
loop_
_atom_site_type_symbol
_atom_site_label
_atom_site_fract_x
_atom_site_fract_y
_atom_site_fract_z
Si Si1 0.319509 0.144804 0.825550
Si Si2 0.819508 0.355197 0.158924
Si Si3 0.655623 0.040098 0.017594
Si Si4 0.497587 0.331559 0.077383
Si Si5 0.168442 0.997588 0.907092
Si Si6 0.540098 0.155623 0.466881
O O1 0.248897 0.248897 0.831937
O O2 0.367352 0.132649 0.742237
O O3 0.417346 0.158353 0.881996
O O4 0.251326 0.039986 0.844824
O O5 0.748896 0.251105 0.152536
O O6 0.917346 0.341648 0.102479
O O7 0.751325 0.460015 0.139651
O O8 0.771591 0.043377 0.981422
O O9 0.579569 0.112730 0.965762
O O10 0.612729 0.920431 0.018713
O O11 0.592835 0.407166 0.051457
O O12 0.401176 0.401176 0.111320
O O13 0.456623 0.271592 0.003053
O O14 0.098825 0.901176 0.873155
O O15 0.092834 0.092834 0.933018
#
# Coordination Sequence:
#
# PCOD8306813 Si02
#       6
#     8   8   8   8   8   8
#     4   9  17  30  49  71  95 122 150 185 230 274
#     4   9  17  30  49  71  95 122 150 185 230 274
#     4   9  17  30  47  68  92 121 155 186 223 269
#     4   9  17  30  48  68  90 119 155 192 228 269
#     4   9  17  30  48  68  90 119 155 192 228 269
#     4   9  17  30  47  68  92 121 155 186 223 269
#
# _framework density 16.860220000000002
#
# number of rings (size 3 to 8) (size 9 to 14) (size 15 to 20)
#    0.000    3.000    0.000    1.000    0.000    1.333 
#    0.000   15.000    0.000    8.000    0.000    0.000 
#    0.000    0.000    0.000    0.000    0.000    0.000 
#
# Total GULP energy -595062.426191 kJ/mol
# GULP energy per Si atom -12397.133879 kJ/mol
# Density = 1.682185 g / cm^3
# Si number density = 16.860220 Si / 1000 Ang^3
#
#
#
# Elastic Constant Matrix: (Units=GPa)
#
#
# Indices 1 2 3 4 5 6 
#
# 1 82.1552 35.8381 57.4149 0.0000 0.0000 0.0002
# 2 35.8381 82.1552 57.4149 0.0000 0.0000 -0.0002
# 3 57.4149 57.4149 149.3911 0.0000 0.0000 0.0000
# 4 0.0000 0.0000 0.0000 20.9084 0.0000 0.0000
# 5 0.0000 0.0000 0.0000 0.0000 20.9084 0.0000
# 6 0.0002 -0.0002 0.0000 0.0000 0.0000 15.5055
#
#
#
# Elastic Compliance Matrix: (Units=1/GPa)
#
#
# Indices 1 2 3 4 5 6 
#
# 1 0.017565 -0.004026 -0.005203 0.000000 0.000000 0.000000
# 2 -0.004026 0.017565 -0.005203 0.000000 0.000000 0.000000
# 3 -0.005203 -0.005203 0.010693 0.000000 0.000000 0.000000
# 4 0.000000 0.000000 0.000000 0.047828 0.000000 0.000000
# 5 0.000000 0.000000 0.000000 0.000000 0.047828 0.000000
# 6 0.000000 0.000000 0.000000 0.000000 0.000000 0.064493
#
#
# Mechanical properties :
#
#
# Convention : Reuss Voigt Hill
#
# Bulk Modulus (GPa) = 58.96990 68.33748 63.65369
# Shear Modulus (GPa) = 20.79101 22.33337 21.56219
#
# Velocity S-wave (km/s) = 3.51542 3.64348 3.58002
# Velocity P-wave (km/s) = 7.17839 7.63673 7.41111
#
# Compressibility (1/GPa) = 0.01695780
#
# Stress axis : x y z
#
# Youngs Moduli (GPa) = 56.93273 56.93273 93.51552
#
# Poissons Ratio (x) = 0.22919 0.48659
# Poissons Ratio (y) = 0.22919 0.48659
# Poissons Ratio (z) = 0.29624 0.29624
#
# Static dielectric constant tensor:
#      x y z
#    x 3.273800 0.000000 0.000000 
#    y 0.000000 3.273800 0.000000 
#    z 0.000000 0.000000 2.998850 
# 
# 
# High freq. dielectric constant tensor:
#      x y z
#    x 1.653770 0.000000 0.000000 
#    y 0.000000 1.653770 0.000000 
#    z 0.000000 0.000000 1.620380 
# 
# From -- ./inp_files/2142.got.cif
#   From: 2010.03.12/outbox.cif.g09.slc.cpg/sg101_2_cif.got.tgz:2142.got - 2010.04.14 01:38:52.
