data_PCOD8306789
_publ_section_title
;
Structure prediction by ZEFSAII (Michael W. Deem and Ramdas Pophale) SiO2 
 PCOD8306789
Probable space group: P 42 C M
;
_chemical_formula_sum "Si O2"
_cell_formula_units_Z 56
_cell_length_a 14.047246
_cell_length_b 14.047246
_cell_length_c 13.554949
_cell_angle_alpha 90.000000
_cell_angle_beta 90.000000
_cell_angle_gamma 90.000000
_cell_volume 2674.731941
_symmetry_space_group_name_H-M "P 42 C M"
_symmetry_group_IT_number 101
_symmetry_cell_setting 'tetragonal'
loop_
_space_group_symop_operation_xyz
x,y,z
-y,x,1/2+z
-x,-y,z
y,-x,1/2+z
-x,y,1/2+z
x,-y,1/2+z
-y,-x,z
y,x,z
loop_
_atom_site_type_symbol
_atom_site_label
_atom_site_fract_x
_atom_site_fract_y
_atom_site_fract_z
Si Si1 0.147124 0.303756 0.610470
Si Si2 0.058818 0.325380 0.195243
Si Si3 0.496138 0.348982 0.564414
Si Si4 0.917811 0.765078 0.403661
Si Si5 0.751703 0.591523 0.896718
Si Si6 0.883366 0.267587 0.487832
Si Si7 0.189070 0.497088 0.695072
O O1 0.218183 0.218183 0.645993
O O2 0.125384 0.294154 0.494670
O O3 0.189893 0.408377 0.618177
O O4 0.054964 0.311567 0.683572
O O5 0.097992 0.286466 0.299000
O O6 0.096192 0.434881 0.187835
O O7 0.101386 0.265100 0.105118
O O8 0.558500 0.441501 0.559828
O O9 0.386182 0.386182 0.578256
O O10 0.507653 0.294237 0.460711
O O11 0.542832 0.286623 0.654173
O O12 0.869370 0.869370 0.399055
O O13 0.028602 0.772280 0.425533
O O14 0.674298 0.674298 0.871020
O O15 0.845742 0.629564 0.953897
O O16 0.797550 0.541893 0.803266
O O17 0.802184 0.197817 0.456522
#
# Coordination Sequence:
#
# PCOD8306789 Si02
#       7
#     8   8   8   8   8   8   8
#     4  10  23  43  62  88 129 171 207 258 326 391
#     4  11  23  39  64  95 127 160 212 271 320 385
#     4  10  22  39  58  87 125 164 212 267 322 384
#     4  10  23  40  62  93 125 162 210 263 322 384
#     4  10  21  38  60  89 124 168 216 264 324 388
#     4  10  21  41  64  87 125 168 208 260 323 385
#     4  12  23  38  63  93 119 168 215 262 319 381
#
# _framework density 20.936677
#
# number of rings (size 3 to 8) (size 9 to 14) (size 15 to 20)
#    0.000    1.571    1.429    3.000    2.000    3.143 
#    0.000    2.857    0.000    2.571    0.000    0.000 
#    0.000    0.000    0.000    0.000    0.000    0.000 
#
# Total GULP energy -693767.006425 kJ/mol
# GULP energy per Si atom -12388.696543 kJ/mol
# Density = 2.088902 g / cm^3
# Si number density = 20.936677 Si / 1000 Ang^3
#
#
#
# Elastic Constant Matrix: (Units=GPa)
#
#
# Indices 1 2 3 4 5 6 
#
# 1 108.2531 48.3879 42.4438 0.0000 0.0000 0.0010
# 2 48.3879 108.2531 42.4438 0.0000 0.0000 -0.0010
# 3 42.4438 42.4438 117.3292 0.0000 0.0000 0.0000
# 4 0.0000 0.0000 0.0000 28.3543 0.0000 0.0000
# 5 0.0000 0.0000 0.0000 0.0000 28.3543 0.0000
# 6 0.0010 -0.0010 0.0000 0.0000 0.0000 31.6218
#
#
#
# Elastic Compliance Matrix: (Units=1/GPa)
#
#
# Indices 1 2 3 4 5 6 
#
# 1 0.012322 -0.004382 -0.002873 0.000000 0.000000 -0.000001
# 2 -0.004382 0.012322 -0.002873 0.000000 0.000000 0.000001
# 3 -0.002873 -0.002873 0.010601 0.000000 0.000000 0.000000
# 4 0.000000 0.000000 0.000000 0.035268 0.000000 0.000000
# 5 0.000000 0.000000 0.000000 0.000000 0.035268 0.000000
# 6 -0.000001 0.000001 0.000000 0.000000 0.000000 0.031624
#
#
# Mechanical properties :
#
#
# Convention : Reuss Voigt Hill
#
# Bulk Modulus (GPa) = 66.69975 66.70959 66.70467
# Shear Modulus (GPa) = 30.73948 31.03674 30.88811
#
# Velocity S-wave (km/s) = 3.83588 3.85438 3.84514
# Velocity P-wave (km/s) = 7.17953 7.19306 7.18630
#
# Compressibility (1/GPa) = 0.01499256
#
# Stress axis : x y z
#
# Youngs Moduli (GPa) = 81.15266 81.15266 94.32785
#
# Poissons Ratio (x) = 0.35559 0.27096
# Poissons Ratio (y) = 0.35559 0.27096
# Poissons Ratio (z) = 0.23312 0.23312
#
# Static dielectric constant tensor:
#      x y z
#    x 4.349910 0.000000 0.000000 
#    y 0.000000 4.349910 0.000000 
#    z 0.000000 0.000000 3.737880 
# 
# 
# High freq. dielectric constant tensor:
#      x y z
#    x 1.820620 0.000000 0.000000 
#    y 0.000000 1.820620 0.000000 
#    z 0.000000 0.000000 1.827380 
# 
# From -- ./inp_files/1337.got.cif
#   From: 2010.03.12/outbox.cif.g09.slc.cpg/sg101_1_cif.got.tgz:1337.got - 2010.04.14 01:38:52.
