data_PCOD8306319
_publ_section_title
;
Structure prediction by ZEFSAII (Michael W. Deem and Ramdas Pophale) SiO2 
 PCOD8306319
Probable space group: I 41 2 2
;
_chemical_formula_sum "Si O2"
_cell_formula_units_Z 40
_cell_length_a 12.816208
_cell_length_b 12.816208
_cell_length_c 11.371049
_cell_angle_alpha 90.000000
_cell_angle_beta 90.000000
_cell_angle_gamma 90.000000
_cell_volume 1867.753786
_symmetry_space_group_name_H-M "I 41 2 2"
_symmetry_group_IT_number 98
_symmetry_cell_setting 'tetragonal'
loop_
_space_group_symop_operation_xyz
x,y,z
-y,1/2+x,1/4+z
-x,-y,z
y,1/2-x,1/4+z
x,1/2-y,1/4-z
-x,1/2+y,1/4-z
y,x,-z
-y,-x,-z
1/2+x,1/2+y,1/2+z
1/2-y,x,3/4+z
1/2-x,1/2-y,1/2+z
1/2+y,-x,3/4+z
1/2+x,-y,3/4-z
1/2-x,y,3/4-z
1/2+y,1/2+x,1/2-z
1/2-y,1/2-x,1/2-z
loop_
_atom_site_type_symbol
_atom_site_label
_atom_site_fract_x
_atom_site_fract_y
_atom_site_fract_z
Si Si1 0.363559 0.636442 0.000000
Si Si2 0.869519 0.929576 0.872688
Si Si3 0.134344 0.935909 0.247998
O O1 0.242466 0.619968 0.029816
O O2 0.395884 0.569573 0.886110
O O3 0.750000 0.890358 0.875000
O O4 0.940814 0.860105 0.784579
O O5 0.876213 0.049064 0.830595
O O6 0.920028 0.920028 0.000000
#
# Coordination Sequence:
#
# PCOD8306319 Si02
#       3
#     8  16  16
#     4  10  22  41  70 104 135 186 220 302 334 399
#     4  11  24  43  65 100 140 185 226 285 345 414
#     4  10  22  40  67 103 136 174 238 284 344 408
#
# _framework density 21.416098999999999
#
# number of rings (size 3 to 8) (size 9 to 14) (size 15 to 20)
#    0.000    1.600    0.000    4.800    5.600    3.200 
#    7.200    0.000    0.000    0.000    0.000    0.000 
#    0.000    0.000    0.000    0.000    0.000    0.000 
#
# Total GULP energy -247951.166415 kJ/mol
# GULP energy per Si atom -12397.558321 kJ/mol
# Density = 2.136736 g / cm^3
# Si number density = 21.416099 Si / 1000 Ang^3
#
#
#
# Elastic Constant Matrix: (Units=GPa)
#
#
# Indices 1 2 3 4 5 6 
#
# 1 173.4204 47.4737 62.5880 0.0000 0.0000 0.0000
# 2 47.4737 173.4238 62.5878 0.0000 0.0000 0.0000
# 3 62.5880 62.5878 198.7772 0.0000 0.0000 0.0000
# 4 0.0000 0.0000 0.0000 37.9579 0.0000 0.0000
# 5 0.0000 0.0000 0.0000 0.0000 37.9583 0.0000
# 6 0.0000 0.0000 0.0000 0.0000 0.0000 29.7870
#
#
#
# Elastic Compliance Matrix: (Units=1/GPa)
#
#
# Indices 1 2 3 4 5 6 
#
# 1 0.006725 -0.001215 -0.001735 0.000000 0.000000 0.000000
# 2 -0.001215 0.006725 -0.001735 0.000000 0.000000 0.000000
# 3 -0.001735 -0.001735 0.006123 0.000000 0.000000 0.000000
# 4 0.000000 0.000000 0.000000 0.026345 0.000000 0.000000
# 5 0.000000 0.000000 0.000000 0.000000 0.026345 0.000000
# 6 0.000000 0.000000 0.000000 0.000000 0.000000 0.033572
#
#
# Mechanical properties :
#
#
# Convention : Reuss Voigt Hill
#
# Bulk Modulus (GPa) = 98.00242 98.99115 98.49678
# Shear Modulus (GPa) = 42.15663 46.00543 44.08103
#
# Velocity S-wave (km/s) = 4.44154 4.63986 4.54179
# Velocity P-wave (km/s) = 8.49491 8.66185 8.57878
#
# Compressibility (1/GPa) = 0.01020383
#
# Stress axis : x y z
#
# Youngs Moduli (GPa) = 148.69787 148.70127 163.31029
#
# Poissons Ratio (x) = 0.18064 0.28334
# Poissons Ratio (y) = 0.18064 0.28333
# Poissons Ratio (z) = 0.25799 0.25799
#
# Static dielectric constant tensor:
#      x y z
#    x 3.830820 0.000000 0.000000 
#    y 0.000000 3.830800 0.000000 
#    z 0.000000 0.000000 4.127490 
# 
# 
# High freq. dielectric constant tensor:
#      x y z
#    x 1.832660 0.000000 0.000000 
#    y 0.000000 1.832650 0.000000 
#    z 0.000000 0.000000 1.858870 
# 
# From -- ./inp_files/4347.got.cif
#   From: 2010.03.12/outbox.cif.g09.slc.cpg/sg98_3_cif.got.tgz:4347.got - 2010.04.08 21:04:41.
