data_PCOD8306119
_publ_section_title
;
Structure prediction by ZEFSAII (Michael W. Deem and Ramdas Pophale) SiO2 
 PCOD8306119
Probable space group: I 4 2 2 
;
_chemical_formula_sum "Si O2"
_cell_formula_units_Z 96
_cell_length_a 23.939067
_cell_length_b 23.939067
_cell_length_c 8.145440
_cell_angle_alpha 90.000000
_cell_angle_beta 90.000000
_cell_angle_gamma 90.000000
_cell_volume 4667.980030
_symmetry_space_group_name_H-M "I 4 2 2 "
_symmetry_group_IT_number 97
_symmetry_cell_setting 'tetragonal'
loop_
_space_group_symop_operation_xyz
x,y,z
-y,x,z
-x,-y,z
y,-x,z
x,-y,-z
-x,y,-z
y,x,-z
-y,-x,-z
1/2+x,1/2+y,1/2+z
1/2-y,1/2+x,1/2+z
1/2-x,1/2-y,1/2+z
1/2+y,1/2-x,1/2+z
1/2+x,1/2-y,1/2-z
1/2-x,1/2+y,1/2-z
1/2+y,1/2+x,1/2-z
1/2-y,1/2-x,1/2-z
loop_
_atom_site_type_symbol
_atom_site_label
_atom_site_fract_x
_atom_site_fract_y
_atom_site_fract_z
Si Si1 0.203609 0.620348 0.797612
Si Si2 0.342875 0.507646 0.316088
Si Si3 0.392958 0.405270 0.186271
Si Si4 0.676559 0.688889 0.689308
Si Si5 0.872902 0.287385 0.313170
Si Si6 0.001865 0.727235 0.315906
O O1 0.141916 0.641916 0.750000
O O2 0.244974 0.664738 0.705949
O O3 0.205413 0.555675 0.730072
O O4 0.215080 0.622540 0.991391
O O5 0.320174 0.500000 0.500000
O O6 0.392853 0.465671 0.270772
O O7 0.365448 0.569288 0.296498
O O8 0.294077 0.497164 0.186234
O O9 0.333398 0.375135 0.200498
O O10 0.412585 0.412585 0.000000
O O11 0.671658 0.671658 0.500000
O O12 0.735345 0.665817 0.757665
O O13 0.844002 0.344002 0.250000
O O14 0.936809 0.287699 0.238077
O O15 0.000000 0.704440 0.500000
#
# Coordination Sequence:
#
# PCOD8306119 Si02
#       6
#    16  16  16  16  16  16
#     4  11  23  40  62  90 123 160 201 247 302 363
#     4  12  24  39  61  88 117 155 209 257 297 350
#     4  12  24  40  60  84 119 162 205 250 306 358
#     4  12  23  37  59  91 124 158 201 251 300 355
#     4  11  23  40  62  90 123 160 201 247 302 363
#     4  10  22  40  63  86 119 162 199 239 301 368
#
# _framework density 20.565640999999999
#
# number of rings (size 3 to 8) (size 9 to 14) (size 15 to 20)
#    0.000    0.667    3.333    6.000    0.000    1.667 
#    0.000    1.667    0.000    0.500    0.000    3.500 
#    0.000    0.000    0.000    0.000    0.000    0.000 
#
# Total GULP energy -594877.058504 kJ/mol
# GULP energy per Si atom -12393.272052 kJ/mol
# Density = 2.051883 g / cm^3
# Si number density = 20.565641 Si / 1000 Ang^3
#
#
#
# Elastic Constant Matrix: (Units=GPa)
#
#
# Indices 1 2 3 4 5 6 
#
# 1 112.9714 63.6226 14.7835 0.0000 0.0000 0.0000
# 2 63.6226 112.9714 14.7835 0.0000 0.0000 0.0000
# 3 14.7835 14.7835 71.3640 0.0000 0.0000 0.0000
# 4 0.0000 0.0000 0.0000 27.3037 0.0000 0.0000
# 5 0.0000 0.0000 0.0000 0.0000 27.3037 0.0000
# 6 0.0000 0.0000 0.0000 0.0000 0.0000 35.5726
#
#
#
# Elastic Compliance Matrix: (Units=1/GPa)
#
#
# Indices 1 2 3 4 5 6 
#
# 1 0.013065 -0.007199 -0.001215 0.000000 0.000000 0.000000
# 2 -0.007199 0.013065 -0.001215 0.000000 0.000000 0.000000
# 3 -0.001215 -0.001215 0.014516 0.000000 0.000000 0.000000
# 4 0.000000 0.000000 0.000000 0.036625 0.000000 0.000000
# 5 0.000000 0.000000 0.000000 0.000000 0.036625 0.000000
# 6 0.000000 0.000000 0.000000 0.000000 0.000000 0.028111
#
#
# Mechanical properties :
#
#
# Convention : Reuss Voigt Hill
#
# Bulk Modulus (GPa) = 46.75600 53.74290 50.24945
# Shear Modulus (GPa) = 29.69196 31.64381 30.66788
#
# Velocity S-wave (km/s) = 3.80381 3.92685 3.86582
# Velocity P-wave (km/s) = 6.48663 6.83735 6.66429
#
# Compressibility (1/GPa) = 0.02138763
#
# Stress axis : x y z
#
# Youngs Moduli (GPa) = 76.54018 76.54018 68.88876
#
# Poissons Ratio (x) = 0.55100 0.08371
# Poissons Ratio (y) = 0.55100 0.08371
# Poissons Ratio (z) = 0.09301 0.09301
#
# Static dielectric constant tensor:
#      x y z
#    x 3.839870 0.000000 0.000000 
#    y 0.000000 3.839870 0.000000 
#    z 0.000000 0.000000 3.551780 
# 
# 
# High freq. dielectric constant tensor:
#      x y z
#    x 1.796510 0.000000 0.000000 
#    y 0.000000 1.796510 0.000000 
#    z 0.000000 0.000000 1.801680 
# 
# From -- ./inp_files/2437.got.cif
#   From: 2010.03.12/outbox.cif.g09.slc.cpg/sg97_2_cif.got.tgz:2437.got - 2010.04.08 20:59:42.
