data_PCOD8306277
_publ_section_title
;
Structure prediction by ZEFSAII (Michael W. Deem and Ramdas Pophale) SiO2 
 PCOD8306277
Probable space group: I 41 2 2
;
_chemical_formula_sum "Si O2"
_cell_formula_units_Z 72
_cell_length_a 22.132950
_cell_length_b 22.132950
_cell_length_c 6.574871
_cell_angle_alpha 90.000000
_cell_angle_beta 90.000000
_cell_angle_gamma 90.000000
_cell_volume 3220.815460
_symmetry_space_group_name_H-M "I 41 2 2"
_symmetry_group_IT_number 98
_symmetry_cell_setting 'tetragonal'
loop_
_space_group_symop_operation_xyz
x,y,z
-y,1/2+x,1/4+z
-x,-y,z
y,1/2-x,1/4+z
x,1/2-y,1/4-z
-x,1/2+y,1/4-z
y,x,-z
-y,-x,-z
1/2+x,1/2+y,1/2+z
1/2-y,x,3/4+z
1/2-x,1/2-y,1/2+z
1/2+y,-x,3/4+z
1/2+x,-y,3/4-z
1/2-x,y,3/4-z
1/2+y,1/2+x,1/2-z
1/2-y,1/2-x,1/2-z
loop_
_atom_site_type_symbol
_atom_site_label
_atom_site_fract_x
_atom_site_fract_y
_atom_site_fract_z
Si Si1 0.313516 0.553572 0.808322
Si Si2 0.797107 0.582787 0.082693
Si Si3 0.664382 0.599144 0.206141
Si Si4 0.517744 0.405418 0.877641
Si Si5 0.596766 0.403235 0.500000
O O1 0.250000 0.581926 0.875000
O O2 0.307926 0.484505 0.740501
O O3 0.340496 0.593255 0.623655
O O4 0.355225 0.557383 0.005827
O O5 0.835747 0.630976 0.946286
O O6 0.774715 0.597742 0.684499
O O7 0.817391 0.585229 0.314878
O O8 0.614100 0.552055 0.125641
O O9 0.539565 0.410068 0.647069
O O10 0.531380 0.468621 0.000000
#
# Coordination Sequence:
#
# PCOD8306277 Si02
#       5
#    16  16  16  16   8
#     4  11  21  38  66  98 131 175 219 268 342 413
#     4  10  21  38  66  90 131 183 235 286 339 402
#     4  10  20  40  66  91 131 187 233 283 350 398
#     4  10  21  38  64  97 134 171 222 273 347 416
#     4  10  22  40  61  96 138 162 218 278 332 412
#
# _framework density 22.354586000000001
#
# number of rings (size 3 to 8) (size 9 to 14) (size 15 to 20)
#    0.000    1.778    4.444    0.000    0.000    1.778 
#    0.000    8.889   19.556    0.000    0.000    0.000 
#  120.000    0.000    0.000    0.000    0.000    0.000 
#
# Total GULP energy -446261.884274 kJ/mol
# GULP energy per Si atom -12396.163452 kJ/mol
# Density = 2.230371 g / cm^3
# Si number density = 22.354586 Si / 1000 Ang^3
#
#
#
# Elastic Constant Matrix: (Units=GPa)
#
#
# Indices 1 2 3 4 5 6 
#
# 1 102.2866 113.7614 68.3435 0.0000 0.0000 0.0000
# 2 113.7614 102.2829 68.3430 0.0000 0.0000 0.0000
# 3 68.3435 68.3430 92.1041 0.0000 0.0000 0.0000
# 4 0.0000 0.0000 0.0000 43.8630 0.0000 0.0000
# 5 0.0000 0.0000 0.0000 0.0000 43.8639 0.0000
# 6 0.0000 0.0000 0.0000 0.0000 0.0000 31.9828
#
#
#
# Elastic Compliance Matrix: (Units=1/GPa)
#
#
# Indices 1 2 3 4 5 6 
#
# 1 -0.039203 0.047929 -0.006474 0.000000 0.000000 0.000000
# 2 0.047929 -0.039206 -0.006473 0.000000 0.000000 0.000000
# 3 -0.006474 -0.006473 0.020464 0.000000 0.000000 0.000000
# 4 0.000000 0.000000 0.000000 0.022798 0.000000 0.000000
# 5 0.000000 0.000000 0.000000 0.000000 0.022798 0.000000
# 6 0.000000 0.000000 0.000000 0.000000 0.000000 0.031267
#
#
# Mechanical properties :
#
#
# Convention : Reuss Voigt Hill
#
# Bulk Modulus (GPa) = 83.20480 88.61883 85.91182
# Shear Modulus (GPa) = -106.29657 27.02363 -39.63647
#
# Velocity S-wave (km/s) = -6.90315 3.48064 -4.21536
# Velocity P-wave (km/s) = 5.12218 7.47540 3.84999
#
# Compressibility (1/GPa) = 0.01201854
#
# Stress axis : x y z
#
# Youngs Moduli (GPa) = -25.50811 -25.50654 48.86522
#
# Poissons Ratio (x) = 1.22250 0.31637
# Poissons Ratio (y) = 1.22257 0.31630
# Poissons Ratio (z) = -0.16515 -0.16510
#
# Static dielectric constant tensor:
#      x y z
#    x 4.152140 0.000000 0.000000 
#    y 0.000000 4.152150 0.000000 
#    z 0.000000 0.000000 4.588690 
# 
# 
# High freq. dielectric constant tensor:
#      x y z
#    x 1.869010 0.000000 0.000000 
#    y 0.000000 1.869010 0.000000 
#    z 0.000000 0.000000 1.925910 
# 
# From -- ./inp_files/1633.got.cif
#   From: 2010.03.12/outbox.cif.g09.slc.cpg/sg98_1_cif.got.tgz:1633.got - 2010.04.08 21:04:41.
