data_PCOD8306943
_publ_section_title
;
Structure prediction by ZEFSAII (Michael W. Deem and Ramdas Pophale) SiO2 
 PCOD8306943
Probable space group: P 42 N M
;
_chemical_formula_sum "Si O2"
_cell_formula_units_Z 48
_cell_length_a 13.316330
_cell_length_b 13.316330
_cell_length_c 12.257665
_cell_angle_alpha 90.000000
_cell_angle_beta 90.000000
_cell_angle_gamma 90.000000
_cell_volume 2173.586091
_symmetry_space_group_name_H-M "P 42 N M"
_symmetry_group_IT_number 102
_symmetry_cell_setting 'tetragonal'
loop_
_space_group_symop_operation_xyz
x,y,z
1/2-y,1/2+x,1/2+z
-x,-y,z
1/2+y,1/2-x,1/2+z
1/2-x,1/2+y,1/2+z
1/2+x,1/2-y,1/2+z
-y,-x,z
y,x,z
loop_
_atom_site_type_symbol
_atom_site_label
_atom_site_fract_x
_atom_site_fract_y
_atom_site_fract_z
Si Si1 0.108529 0.720664 0.410710
Si Si2 0.279337 0.891472 0.053286
Si Si3 0.922448 0.922448 0.861357
Si Si4 0.336085 0.503217 0.731998
Si Si5 0.206282 0.518833 0.354367
Si Si6 0.481167 0.793718 0.109627
Si Si7 0.922448 0.922448 0.602638
O O1 0.201750 0.798251 0.424175
O O2 0.018275 0.769349 0.339942
O O3 0.141026 0.619484 0.349221
O O4 0.069455 0.676039 0.526586
O O5 0.201749 0.798252 0.039823
O O6 0.230653 0.981727 0.124053
O O7 0.380517 0.858975 0.114774
O O8 0.323961 0.930545 0.937409
O O9 0.951613 0.814027 0.902901
O O10 0.926181 0.926181 0.731998
O O11 0.000000 0.000000 0.915587
O O12 0.383057 0.616944 0.731998
O O13 0.426731 0.426731 0.731996
O O14 0.209329 0.473425 0.231997
O O15 0.451613 0.685973 0.061094
O O16 0.000000 0.000000 0.548409
#
# Coordination Sequence:
#
# PCOD8306943 Si02
#       7
#     8   8   4   8   8   8   4
#     4  11  23  42  69  99 138 182 230 289 357 423
#     4  11  23  42  69  99 138 182 230 289 357 423
#     4   9  18  34  64  99 127 165 220 280 337 399
#     4   9  20  38  64  97 132 176 233 294 348 408
#     4  11  23  42  67  95 135 181 228 286 356 419
#     4  11  23  42  67  95 135 181 228 286 356 419
#     4   9  18  34  64  99 127 165 220 280 337 399
#
# _framework density 22.083320000000001
#
# number of rings (size 3 to 8) (size 9 to 14) (size 15 to 20)
#    0.000    1.667    3.333    1.000    2.333    2.667 
#    3.000    1.667    0.000    0.000    0.000    0.000 
#    0.000    0.000    0.000    0.000    0.000    0.000 
#
# Total GULP energy -594845.544054 kJ/mol
# GULP energy per Si atom -12392.615501 kJ/mol
# Density = 2.203306 g / cm^3
# Si number density = 22.083320 Si / 1000 Ang^3
#
#
#
# Elastic Constant Matrix: (Units=GPa)
#
#
# Indices 1 2 3 4 5 6 
#
# 1 64.7604 16.8584 30.8842 0.0000 0.0000 0.0000
# 2 16.8584 64.7604 30.8842 0.0000 0.0000 0.0000
# 3 30.8842 30.8842 139.6203 0.0000 0.0000 0.0000
# 4 0.0000 0.0000 0.0000 36.5035 0.0000 0.0000
# 5 0.0000 0.0000 0.0000 0.0000 36.5035 0.0000
# 6 0.0000 0.0000 0.0000 0.0000 0.0000 41.5728
#
#
#
# Elastic Compliance Matrix: (Units=1/GPa)
#
#
# Indices 1 2 3 4 5 6 
#
# 1 0.017796 -0.003080 -0.003255 0.000000 0.000000 0.000000
# 2 -0.003080 0.017796 -0.003255 0.000000 0.000000 0.000000
# 3 -0.003255 -0.003255 0.008602 0.000000 0.000000 0.000000
# 4 0.000000 0.000000 0.000000 0.027395 0.000000 0.000000
# 5 0.000000 0.000000 0.000000 0.000000 0.027395 0.000000
# 6 0.000000 0.000000 0.000000 0.000000 0.000000 0.024054
#
#
# Mechanical properties :
#
#
# Convention : Reuss Voigt Hill
#
# Bulk Modulus (GPa) = 39.97921 47.37718 43.67819
# Shear Modulus (GPa) = 33.21029 35.61690 34.41360
#
# Velocity S-wave (km/s) = 3.88217 4.02038 3.95188
# Velocity P-wave (km/s) = 6.18370 6.56138 6.37533
#
# Compressibility (1/GPa) = 0.02501300
#
# Stress axis : x y z
#
# Youngs Moduli (GPa) = 56.19325 56.19325 116.24745
#
# Poissons Ratio (x) = 0.17309 0.37840
# Poissons Ratio (y) = 0.17309 0.37840
# Poissons Ratio (z) = 0.18291 0.18291
#
# Static dielectric constant tensor:
#      x y z
#    x 3.811760 0.000000 0.000000 
#    y 0.000000 3.811760 0.000000 
#    z 0.000000 0.000000 3.804270 
# 
# 
# High freq. dielectric constant tensor:
#      x y z
#    x 1.855230 0.000000 0.000000 
#    y 0.000000 1.855230 0.000000 
#    z 0.000000 0.000000 1.875780 
# 
# From -- ./inp_files/1785.got.cif
#   From: 2010.03.12/outbox.cif.g09.slc.cpg/sg102_1_cif.got.tgz:1785.got - 2010.04.14 01:40:42.
