data_PCOD8306122
_publ_section_title
;
Structure prediction by ZEFSAII (Michael W. Deem and Ramdas Pophale) SiO2 
 PCOD8306122
Probable space group: I 4 2 2 
;
_chemical_formula_sum "Si O2"
_cell_formula_units_Z 32
_cell_length_a 10.839731
_cell_length_b 10.839731
_cell_length_c 12.474147
_cell_angle_alpha 90.000000
_cell_angle_beta 90.000000
_cell_angle_gamma 90.000000
_cell_volume 1465.709380
_symmetry_space_group_name_H-M "I 4 2 2 "
_symmetry_group_IT_number 97
_symmetry_cell_setting 'tetragonal'
loop_
_space_group_symop_operation_xyz
x,y,z
-y,x,z
-x,-y,z
y,-x,z
x,-y,-z
-x,y,-z
y,x,-z
-y,-x,-z
1/2+x,1/2+y,1/2+z
1/2-y,1/2+x,1/2+z
1/2-x,1/2-y,1/2+z
1/2+y,1/2-x,1/2+z
1/2+x,1/2-y,1/2-z
1/2-x,1/2+y,1/2-z
1/2+y,1/2+x,1/2-z
1/2-y,1/2-x,1/2-z
loop_
_atom_site_type_symbol
_atom_site_label
_atom_site_fract_x
_atom_site_fract_y
_atom_site_fract_z
Si Si1 0.696861 0.450798 0.309173
Si Si2 0.437376 0.124978 0.110627
O O1 0.647792 0.588479 0.320908
O O2 0.763138 0.445739 0.193657
O O3 0.793254 0.412989 0.402570
O O4 0.500000 0.000000 0.154433
O O5 0.500000 0.168321 0.000000
#
# Coordination Sequence:
#
# PCOD8306122 Si02
#       2
#    16  16
#     4  10  22  41  69  97 133 176 221 281 334 390
#     4  10  23  41  64  97 132 177 225 267 342 394
#
# _framework density 21.832433000000002
#
# number of rings (size 3 to 8) (size 9 to 14) (size 15 to 20)
#    0.000    2.000    0.000    3.000   14.000    2.000 
#    9.000    2.500    0.000   12.000    0.000    0.000 
#    0.000    0.000    0.000    0.000    0.000    0.000 
#
# Total GULP energy -198230.741778 kJ/mol
# GULP energy per Si atom -12389.421361 kJ/mol
# Density = 2.178274 g / cm^3
# Si number density = 21.832433 Si / 1000 Ang^3
#
#
#
# Elastic Constant Matrix: (Units=GPa)
#
#
# Indices 1 2 3 4 5 6 
#
# 1 151.5185 86.1259 35.0167 0.0000 0.0000 0.0000
# 2 86.1259 151.5185 35.0167 0.0000 0.0000 0.0000
# 3 35.0167 35.0167 111.1338 0.0000 0.0000 0.0000
# 4 0.0000 0.0000 0.0000 31.9182 -0.0001 0.0000
# 5 0.0000 0.0000 0.0000 -0.0001 31.9182 0.0000
# 6 0.0000 0.0000 0.0000 0.0000 0.0000 16.8282
#
#
#
# Elastic Compliance Matrix: (Units=1/GPa)
#
#
# Indices 1 2 3 4 5 6 
#
# 1 0.009965 -0.005327 -0.001462 0.000000 0.000000 0.000000
# 2 -0.005327 0.009965 -0.001462 0.000000 0.000000 0.000000
# 3 -0.001462 -0.001462 0.009919 0.000000 0.000000 0.000000
# 4 0.000000 0.000000 0.000000 0.031330 0.000000 0.000000
# 5 0.000000 0.000000 0.000000 0.000000 0.031330 0.000000
# 6 0.000000 0.000000 0.000000 0.000000 0.000000 0.059424
#
#
# Mechanical properties :
#
#
# Convention : Reuss Voigt Hill
#
# Bulk Modulus (GPa) = 74.90493 80.72103 77.81298
# Shear Modulus (GPa) = 28.92109 33.33370 31.12740
#
# Velocity S-wave (km/s) = 3.64357 3.91166 3.77999
# Velocity P-wave (km/s) = 7.21695 7.57989 7.40064
#
# Compressibility (1/GPa) = 0.01335026
#
# Stress axis : x y z
#
# Youngs Moduli (GPa) = 100.34640 100.34641 100.81449
#
# Poissons Ratio (x) = 0.53452 0.14735
# Poissons Ratio (y) = 0.53452 0.14735
# Poissons Ratio (z) = 0.14666 0.14666
#
# Static dielectric constant tensor:
#      x y z
#    x 3.633530 0.000000 0.000000 
#    y 0.000000 3.633540 0.000000 
#    z 0.000000 0.000000 3.679500 
# 
# 
# High freq. dielectric constant tensor:
#      x y z
#    x 1.871330 0.000000 0.000000 
#    y 0.000000 1.871330 0.000000 
#    z 0.000000 0.000000 1.845830 
# 
# From -- ./inp_files/2834.got.cif
#   From: 2010.03.12/outbox.cif.g09.slc.cpg/sg97_2_cif.got.tgz:2834.got - 2010.04.08 20:59:42.
