data_PCOD8306129
_publ_section_title
;
Structure prediction by ZEFSAII (Michael W. Deem and Ramdas Pophale) SiO2 
 PCOD8306129
Probable space group: I 4 2 2 
;
_chemical_formula_sum "Si O2"
_cell_formula_units_Z 96
_cell_length_a 24.667533
_cell_length_b 24.667533
_cell_length_c 7.515661
_cell_angle_alpha 90.000000
_cell_angle_beta 90.000000
_cell_angle_gamma 90.000000
_cell_volume 4573.183400
_symmetry_space_group_name_H-M "I 4 2 2 "
_symmetry_group_IT_number 97
_symmetry_cell_setting 'tetragonal'
loop_
_space_group_symop_operation_xyz
x,y,z
-y,x,z
-x,-y,z
y,-x,z
x,-y,-z
-x,y,-z
y,x,-z
-y,-x,-z
1/2+x,1/2+y,1/2+z
1/2-y,1/2+x,1/2+z
1/2-x,1/2-y,1/2+z
1/2+y,1/2-x,1/2+z
1/2+x,1/2-y,1/2-z
1/2-x,1/2+y,1/2-z
1/2+y,1/2+x,1/2-z
1/2-y,1/2-x,1/2-z
loop_
_atom_site_type_symbol
_atom_site_label
_atom_site_fract_x
_atom_site_fract_y
_atom_site_fract_z
Si Si1 0.443876 0.854613 0.211837
Si Si2 0.410850 0.271279 0.183874
Si Si3 0.348279 0.063055 0.297029
Si Si4 0.292807 0.293634 0.291343
Si Si5 0.151205 0.940318 0.988641
Si Si6 0.761823 0.090480 0.280614
O O1 0.404591 0.904591 0.250000
O O2 0.504833 0.867501 0.282884
O O3 0.425773 0.797334 0.297186
O O4 0.443045 0.844482 0.005069
O O5 0.421436 0.211887 0.270886
O O6 0.347870 0.285049 0.186325
O O7 0.440196 0.316693 0.301855
O O8 0.432163 0.273281 0.979965
O O9 0.390809 0.109192 0.250000
O O10 0.303553 0.303553 0.500000
O O11 0.259410 0.240591 0.250000
O O12 0.261435 0.344651 0.211665
O O13 0.104351 0.895650 0.000000
O O14 0.192278 0.931855 0.151235
O O15 0.124641 0.000000 0.000000
#
# Coordination Sequence:
#
# PCOD8306129 Si02
#       6
#    16  16  16  16  16  16
#     4  10  23  40  59  87 121 164 216 266 318 374
#     4  11  22  42  66  95 130 168 215 267 324 388
#     4  10  23  40  59  87 121 164 216 266 318 374
#     4  12  22  36  60  99 139 173 211 260 323 392
#     4  12  26  45  70 100 131 169 217 263 325 398
#     4  11  22  42  66  95 130 168 215 267 324 388
#
# _framework density 20.991942999999999
#
# number of rings (size 3 to 8) (size 9 to 14) (size 15 to 20)
#    0.000    1.000    3.333    3.500    2.333    5.833 
#    0.000    1.667    0.000    0.000    0.000    2.333 
#    0.000    0.000    0.000    0.000    0.000    0.000 
#
# Total GULP energy -595106.035204 kJ/mol
# GULP energy per Si atom -12398.042400 kJ/mol
# Density = 2.094416 g / cm^3
# Si number density = 20.991943 Si / 1000 Ang^3
#
#
#
# Elastic Constant Matrix: (Units=GPa)
#
#
# Indices 1 2 3 4 5 6 
#
# 1 107.8979 77.8797 9.8959 0.0000 0.0000 0.0000
# 2 77.8797 107.9125 9.9108 0.0000 0.0000 0.0000
# 3 9.8959 9.9108 77.1706 0.0000 0.0000 0.0000
# 4 0.0000 0.0000 0.0000 11.5114 0.0000 0.0000
# 5 0.0000 0.0000 0.0000 0.0000 11.5148 0.0000
# 6 0.0000 0.0000 0.0000 0.0000 0.0000 12.0194
#
#
#
# Elastic Compliance Matrix: (Units=1/GPa)
#
#
# Indices 1 2 3 4 5 6 
#
# 1 0.019382 -0.013924 -0.000697 0.000000 0.000000 0.000000
# 2 -0.013924 0.019380 -0.000703 0.000000 0.000000 0.000000
# 3 -0.000697 -0.000703 0.013138 0.000000 0.000000 0.000000
# 4 0.000000 0.000000 0.000000 0.086870 0.000000 0.000000
# 5 0.000000 0.000000 0.000000 0.000000 0.086845 0.000000
# 6 0.000000 0.000000 0.000000 0.000000 0.000000 0.083199
#
#
# Mechanical properties :
#
#
# Convention : Reuss Voigt Hill
#
# Bulk Modulus (GPa) = 47.05617 54.26153 50.65885
# Shear Modulus (GPa) = 14.42807 20.02876 17.22841
#
# Velocity S-wave (km/s) = 2.62451 3.09223 2.86792
# Velocity P-wave (km/s) = 5.62575 6.21724 5.92887
#
# Compressibility (1/GPa) = 0.02125120
#
# Stress axis : x y z
#
# Youngs Moduli (GPa) = 51.59403 51.59924 76.11475
#
# Poissons Ratio (x) = 0.71846 0.05307
# Poissons Ratio (y) = 0.71839 0.05354
# Poissons Ratio (z) = 0.03597 0.03630
#
# Static dielectric constant tensor:
#      x y z
#    x 3.390670 0.000000 0.000000 
#    y 0.000000 3.390030 0.000000 
#    z 0.000000 0.000000 3.942500 
# 
# 
# High freq. dielectric constant tensor:
#      x y z
#    x 1.823470 0.000000 0.000000 
#    y 0.000000 1.823470 0.000000 
#    z 0.000000 0.000000 1.826830 
# 
# From -- ./inp_files/2467.got.cif
#   From: 2010.03.12/outbox.cif.g09.slc.cpg/sg97_2_cif.got.tgz:2467.got - 2010.04.08 20:59:42.
