data_PCOD8306831
_publ_section_title
;
Structure prediction by ZEFSAII (Michael W. Deem and Ramdas Pophale) SiO2 
 PCOD8306831
Probable space group: P 42 N M
;
_chemical_formula_sum "Si O2"
_cell_formula_units_Z 64
_cell_length_a 21.529963
_cell_length_b 21.529963
_cell_length_c 8.467647
_cell_angle_alpha 90.000000
_cell_angle_beta 90.000000
_cell_angle_gamma 90.000000
_cell_volume 3925.087220
_symmetry_space_group_name_H-M "P 42 N M"
_symmetry_group_IT_number 102
_symmetry_cell_setting 'tetragonal'
loop_
_space_group_symop_operation_xyz
x,y,z
1/2-y,1/2+x,1/2+z
-x,-y,z
1/2+y,1/2-x,1/2+z
1/2-x,1/2+y,1/2+z
1/2+x,1/2-y,1/2+z
-y,-x,z
y,x,z
loop_
_atom_site_type_symbol
_atom_site_label
_atom_site_fract_x
_atom_site_fract_y
_atom_site_fract_z
Si Si1 0.722464 0.177376 0.306930
Si Si2 0.029976 0.616032 0.897122
Si Si3 0.366799 0.838814 0.036820
Si Si4 0.709334 0.042243 0.429330
Si Si5 0.529476 0.222765 0.227484
Si Si6 0.373552 0.726867 0.443344
Si Si7 0.080081 0.582482 0.576172
Si Si8 0.709735 0.919665 0.230510
O O1 0.788424 0.211577 0.305620
O O2 0.697621 0.174711 0.126417
O O3 0.736331 0.108453 0.374495
O O4 0.672834 0.215214 0.412215
O O5 0.043680 0.578559 0.738860
O O6 0.006551 0.685890 0.863576
O O7 0.089129 0.626995 0.004157
O O8 0.981931 0.571722 0.986086
O O9 0.424389 0.826567 0.150025
O O10 0.372442 0.796655 0.878969
O O11 0.636940 0.052574 0.467513
O O12 0.745814 0.017759 0.588139
O O13 0.715038 0.990871 0.290818
O O14 0.570244 0.276120 0.313787
O O15 0.338023 0.661978 0.426152
O O16 0.400761 0.731408 0.622177
O O17 0.152677 0.591161 0.612235
#
# Coordination Sequence:
#
# PCOD8306831 Si02
#       8
#     8   8   8   8   8   8   8   8
#     4  10  19  32  50  72 101 131 163 203 250 304
#     4  10  18  30  47  60  93 130 167 210 232 280
#     4   9  19  31  46  67  95 135 166 201 250 279
#     4  10  19  32  50  66  96 134 163 201 249 297
#     4   9  18  33  47  67  92 125 166 198 249 292
#     4  10  19  33  53  72  94 124 166 211 251 295
#     4  10  18  31  44  63  90 128 174 199 240 276
#     4  10  18  32  49  69  95 128 168 208 243 292
#
# _framework density 16.305371000000001
#
# number of rings (size 3 to 8) (size 9 to 14) (size 15 to 20)
#    0.000    2.250    2.500    1.500    0.000    0.500 
#    0.000   20.625    0.000    0.000    0.000    0.000 
#    0.000    3.000    0.000    0.000    0.000    0.000 
#
# Total GULP energy -793206.380807 kJ/mol
# GULP energy per Si atom -12393.849700 kJ/mol
# Density = 1.626826 g / cm^3
# Si number density = 16.305371 Si / 1000 Ang^3
#
#
#
# Elastic Constant Matrix: (Units=GPa)
#
#
# Indices 1 2 3 4 5 6 
#
# 1 66.5640 40.0372 43.6725 0.0000 0.0000 0.0001
# 2 40.0372 66.5640 43.6725 0.0000 0.0000 -0.0001
# 3 43.6725 43.6725 87.1120 0.0000 0.0000 0.0000
# 4 0.0000 0.0000 0.0000 21.2979 0.0000 0.0000
# 5 0.0000 0.0000 0.0000 0.0000 21.2979 0.0000
# 6 0.0001 -0.0001 0.0000 0.0000 0.0000 24.4222
#
#
#
# Elastic Compliance Matrix: (Units=1/GPa)
#
#
# Indices 1 2 3 4 5 6 
#
# 1 0.026809 -0.010889 -0.007982 0.000000 0.000000 0.000000
# 2 -0.010889 0.026809 -0.007982 0.000000 0.000000 0.000000
# 3 -0.007982 -0.007982 0.019482 0.000000 0.000000 0.000000
# 4 0.000000 0.000000 0.000000 0.046953 0.000000 0.000000
# 5 0.000000 0.000000 0.000000 0.000000 0.046953 0.000000
# 6 0.000000 0.000000 0.000000 0.000000 0.000000 0.040946
#
#
# Mechanical properties :
#
#
# Convention : Reuss Voigt Hill
#
# Bulk Modulus (GPa) = 51.55377 52.77826 52.16601
# Shear Modulus (GPa) = 18.64822 19.59411 19.12117
#
# Velocity S-wave (km/s) = 3.38551 3.47031 3.42817
# Velocity P-wave (km/s) = 6.85336 6.96393 6.90887
#
# Compressibility (1/GPa) = 0.01939723
#
# Stress axis : x y z
#
# Youngs Moduli (GPa) = 37.30080 37.30080 51.32851
#
# Poissons Ratio (x) = 0.40615 0.40968
# Poissons Ratio (y) = 0.40615 0.40968
# Poissons Ratio (z) = 0.29772 0.29772
#
# Static dielectric constant tensor:
#      x y z
#    x 2.878620 0.000000 0.000000 
#    y 0.000000 2.878620 0.000000 
#    z 0.000000 0.000000 3.554200 
# 
# 
# High freq. dielectric constant tensor:
#      x y z
#    x 1.590580 0.000000 0.000000 
#    y 0.000000 1.590580 0.000000 
#    z 0.000000 0.000000 1.649410 
# 
# From -- ./inp_files/1232.got.cif
#   From: 2010.03.12/outbox.cif.g09.slc.cpg/sg102_1_cif.got.tgz:1232.got - 2010.04.14 01:40:42.
