data_PCOD8306915
_publ_section_title
;
Structure prediction by ZEFSAII (Michael W. Deem and Ramdas Pophale) SiO2 
 PCOD8306915
Probable space group: P 42 N M
;
_chemical_formula_sum "Si O2"
_cell_formula_units_Z 48
_cell_length_a 10.998954
_cell_length_b 10.998954
_cell_length_c 18.923943
_cell_angle_alpha 90.000000
_cell_angle_beta 90.000000
_cell_angle_gamma 90.000000
_cell_volume 2289.361646
_symmetry_space_group_name_H-M "P 42 N M"
_symmetry_group_IT_number 102
_symmetry_cell_setting 'tetragonal'
loop_
_space_group_symop_operation_xyz
x,y,z
1/2-y,1/2+x,1/2+z
-x,-y,z
1/2+y,1/2-x,1/2+z
1/2-x,1/2+y,1/2+z
1/2+x,1/2-y,1/2+z
-y,-x,z
y,x,z
loop_
_atom_site_type_symbol
_atom_site_label
_atom_site_fract_x
_atom_site_fract_y
_atom_site_fract_z
Si Si1 0.649188 0.151602 0.172580
Si Si2 0.956218 0.762460 0.274027
Si Si3 0.492252 0.304441 0.927359
Si Si4 0.007497 0.196419 0.916210
Si Si5 0.562958 0.756486 0.266340
Si Si6 0.357098 0.151754 0.513472
O O1 0.725831 0.274169 0.171793
O O2 0.519150 0.186771 0.204937
O O3 0.624022 0.103712 0.093519
O O4 0.723200 0.046064 0.211875
O O5 0.893493 0.893493 0.256133
O O6 0.851606 0.665502 0.286480
O O7 0.032803 0.764728 0.346625
O O8 0.605008 0.394993 0.925602
O O9 0.371121 0.371121 0.956804
O O10 0.527040 0.192235 0.978002
O O11 0.899843 0.100158 0.918973
O O12 0.020601 0.241229 0.835594
O O13 0.976431 0.305460 0.970025
O O14 0.134970 0.134970 0.939268
O O15 0.628699 0.628699 0.243755
O O16 0.255441 0.255441 0.511336
#
# Coordination Sequence:
#
# PCOD8306915 Si02
#       6
#     8   8   8   8   8   8
#     4  11  23  35  55  89 125 154 195 247 300 366
#     4  10  20  37  61  84 114 159 205 249 299 353
#     4   9  16  30  56  85 112 150 201 248 295 353
#     4   9  16  30  56  85 112 150 201 248 295 353
#     4  10  20  37  61  84 114 159 205 249 299 353
#     4   9  18  33  51  81 119 154 191 242 305 356
#
# _framework density 20.966542
#
# number of rings (size 3 to 8) (size 9 to 14) (size 15 to 20)
#    0.000    2.333    1.667    1.500    0.000    3.333 
#    0.000    3.333    7.333    0.000    0.000    0.000 
#    0.000    0.000    0.000    0.000    0.000    0.000 
#
# Total GULP energy -595056.919640 kJ/mol
# GULP energy per Si atom -12397.019159 kJ/mol
# Density = 2.091882 g / cm^3
# Si number density = 20.966542 Si / 1000 Ang^3
#
#
#
# Elastic Constant Matrix: (Units=GPa)
#
#
# Indices 1 2 3 4 5 6 
#
# 1 67.2920 35.7135 47.0491 0.0000 0.0000 0.0000
# 2 35.7135 67.2920 47.0491 0.0000 0.0000 0.0000
# 3 47.0491 47.0491 154.1201 0.0000 0.0000 0.0000
# 4 0.0000 0.0000 0.0000 24.3041 0.0000 0.0000
# 5 0.0000 0.0000 0.0000 0.0000 24.3041 0.0000
# 6 0.0000 0.0000 0.0000 0.0000 0.0000 44.7023
#
#
#
# Elastic Compliance Matrix: (Units=1/GPa)
#
#
# Indices 1 2 3 4 5 6 
#
# 1 0.022565 -0.009102 -0.004110 0.000000 0.000000 0.000000
# 2 -0.009102 0.022565 -0.004110 0.000000 0.000000 0.000000
# 3 -0.004110 -0.004110 0.008998 0.000000 0.000000 0.000000
# 4 0.000000 0.000000 0.000000 0.041145 0.000000 0.000000
# 5 0.000000 0.000000 0.000000 0.000000 0.041145 0.000000
# 6 0.000000 0.000000 0.000000 0.000000 0.000000 0.022370
#
#
# Mechanical properties :
#
#
# Convention : Reuss Voigt Hill
#
# Bulk Modulus (GPa) = 51.32490 60.92530 56.12510
# Shear Modulus (GPa) = 25.00919 29.25494 27.13206
#
# Velocity S-wave (km/s) = 3.45746 3.73944 3.60121
# Velocity P-wave (km/s) = 6.36171 6.91130 6.64219
#
# Compressibility (1/GPa) = 0.01948372
#
# Stress axis : x y z
#
# Youngs Moduli (GPa) = 44.31669 44.31669 111.13951
#
# Poissons Ratio (x) = 0.40338 0.45676
# Poissons Ratio (y) = 0.40338 0.45676
# Poissons Ratio (z) = 0.18213 0.18213
#
# Static dielectric constant tensor:
#      x y z
#    x 3.727700 0.000000 0.000000 
#    y 0.000000 3.727700 0.000000 
#    z 0.000000 0.000000 3.802500 
# 
# 
# High freq. dielectric constant tensor:
#      x y z
#    x 1.813030 0.000000 0.000000 
#    y 0.000000 1.813030 0.000000 
#    z 0.000000 0.000000 1.809790 
# 
# From -- ./inp_files/2716.got.cif
#   From: 2010.03.12/outbox.cif.g09.slc.cpg/sg102_2_cif.got.tgz:2716.got - 2010.04.14 01:40:42.
