data_PCOD8306183
_publ_section_title
;
Structure prediction by ZEFSAII (Michael W. Deem and Ramdas Pophale) SiO2 
 PCOD8306183
Probable space group: I 4 2 2 
;
_chemical_formula_sum "Si O2"
_cell_formula_units_Z 40
_cell_length_a 14.039830
_cell_length_b 14.039830
_cell_length_c 7.907017
_cell_angle_alpha 90.000000
_cell_angle_beta 90.000000
_cell_angle_gamma 90.000000
_cell_volume 1558.606098
_symmetry_space_group_name_H-M "I 4 2 2 "
_symmetry_group_IT_number 97
_symmetry_cell_setting 'tetragonal'
loop_
_space_group_symop_operation_xyz
x,y,z
-y,x,z
-x,-y,z
y,-x,z
x,-y,-z
-x,y,-z
y,x,-z
-y,-x,-z
1/2+x,1/2+y,1/2+z
1/2-y,1/2+x,1/2+z
1/2-x,1/2-y,1/2+z
1/2+y,1/2-x,1/2+z
1/2+x,1/2-y,1/2-z
1/2-x,1/2+y,1/2-z
1/2+y,1/2+x,1/2-z
1/2-y,1/2-x,1/2-z
loop_
_atom_site_type_symbol
_atom_site_label
_atom_site_fract_x
_atom_site_fract_y
_atom_site_fract_z
Si Si1 0.388383 0.608940 0.691709
Si Si2 0.289633 0.710368 0.000000
Si Si3 0.105728 0.392784 0.053041
O O1 0.367912 0.498088 0.722282
O O2 0.360708 0.639293 0.500000
O O3 0.323193 0.660987 0.827432
O O4 0.178277 0.684654 0.025798
O O5 0.113228 0.386773 0.250000
O O6 0.131484 0.500000 0.000000
O O7 0.000000 0.362480 0.000000
#
# Coordination Sequence:
#
# PCOD8306183 Si02
#       3
#    16   8  16
#     4   9  18  36  64 107 160 204 247 314 400 480
#     4  12  24  45  76 115 146 198 270 328 384 468
#     4  11  26  52  80 111 157 213 264 332 404 476
#
# _framework density 25.663958999999998
#
# number of rings (size 3 to 8) (size 9 to 14) (size 15 to 20)
#    0.000    1.600    0.000    7.200    0.000    4.800 
#   25.200    0.000    0.000    0.600    0.000    5.600 
#    0.000    0.000    0.000    0.000    0.000    0.000 
#
# Total GULP energy -248019.634282 kJ/mol
# GULP energy per Si atom -12400.981714 kJ/mol
# Density = 2.560555 g / cm^3
# Si number density = 25.663959 Si / 1000 Ang^3
#
#
#
# Elastic Constant Matrix: (Units=GPa)
#
#
# Indices 1 2 3 4 5 6 
#
# 1 201.3623 82.0031 48.5547 0.0000 0.0000 0.0000
# 2 82.0031 201.3602 48.5574 0.0000 0.0000 0.0000
# 3 48.5547 48.5574 144.5216 0.0000 0.0000 0.0000
# 4 0.0000 0.0000 0.0000 40.4746 0.0000 0.0000
# 5 0.0000 0.0000 0.0000 0.0000 40.4809 0.0000
# 6 0.0000 0.0000 0.0000 0.0000 0.0000 38.6799
#
#
#
# Elastic Compliance Matrix: (Units=1/GPa)
#
#
# Indices 1 2 3 4 5 6 
#
# 1 0.006183 -0.002195 -0.001340 0.000000 0.000000 0.000000
# 2 -0.002195 0.006183 -0.001340 0.000000 0.000000 0.000000
# 3 -0.001340 -0.001340 0.007820 0.000000 0.000000 0.000000
# 4 0.000000 0.000000 0.000000 0.024707 0.000000 0.000000
# 5 0.000000 0.000000 0.000000 0.000000 0.024703 0.000000
# 6 0.000000 0.000000 0.000000 0.000000 0.000000 0.025853
#
#
# Mechanical properties :
#
#
# Convention : Reuss Voigt Hill
#
# Bulk Modulus (GPa) = 95.81828 100.60826 98.21327
# Shear Modulus (GPa) = 46.00758 48.46903 47.23830
#
# Velocity S-wave (km/s) = 4.23861 4.35052 4.29493
# Velocity P-wave (km/s) = 7.83398 8.03264 7.93393
#
# Compressibility (1/GPa) = 0.01043642
#
# Stress axis : x y z
#
# Youngs Moduli (GPa) = 161.73036 161.72694 127.88092
#
# Poissons Ratio (x) = 0.35498 0.17134
# Poissons Ratio (y) = 0.35499 0.17137
# Poissons Ratio (z) = 0.21670 0.21672
#
# Static dielectric constant tensor:
#      x y z
#    x 4.551220 0.000000 0.000000 
#    y 0.000000 4.551200 0.000000 
#    z 0.000000 0.000000 4.953740 
# 
# 
# High freq. dielectric constant tensor:
#      x y z
#    x 2.041460 0.000000 0.000000 
#    y 0.000000 2.041460 0.000000 
#    z 0.000000 0.000000 2.040130 
# 
# From -- ./inp_files/1478.got.cif
#   From: 2010.03.12/outbox.cif.g09.slc.cpg/sg97_1_cif.got.tgz:1478.got - 2010.04.08 20:59:42.
