data_PCOD8306160
_publ_section_title
;
Structure prediction by ZEFSAII (Michael W. Deem and Ramdas Pophale) SiO2 
 PCOD8306160
Probable space group: I 4 2 2 
;
_chemical_formula_sum "Si O2"
_cell_formula_units_Z 112
_cell_length_a 14.475804
_cell_length_b 14.475804
_cell_length_c 25.470622
_cell_angle_alpha 90.000000
_cell_angle_beta 90.000000
_cell_angle_gamma 90.000000
_cell_volume 5337.340859
_symmetry_space_group_name_H-M "I 4 2 2 "
_symmetry_group_IT_number 97
_symmetry_cell_setting 'tetragonal'
loop_
_space_group_symop_operation_xyz
x,y,z
-y,x,z
-x,-y,z
y,-x,z
x,-y,-z
-x,y,-z
y,x,-z
-y,-x,-z
1/2+x,1/2+y,1/2+z
1/2-y,1/2+x,1/2+z
1/2-x,1/2-y,1/2+z
1/2+y,1/2-x,1/2+z
1/2+x,1/2-y,1/2-z
1/2-x,1/2+y,1/2-z
1/2+y,1/2+x,1/2-z
1/2-y,1/2-x,1/2-z
loop_
_atom_site_type_symbol
_atom_site_label
_atom_site_fract_x
_atom_site_fract_y
_atom_site_fract_z
Si Si1 0.331200 0.321897 0.635727
Si Si2 0.917674 0.430883 0.691776
Si Si3 0.087449 0.125542 0.244277
Si Si4 0.008827 0.265418 0.377047
Si Si5 0.174497 0.175822 0.651834
Si Si6 0.553809 0.079119 0.944783
Si Si7 0.997714 0.276958 0.108727
O O1 0.384147 0.325758 0.690543
O O2 0.237462 0.264760 0.642924
O O3 0.304656 0.423676 0.616514
O O4 0.403279 0.271684 0.595066
O O5 0.892517 0.392517 0.750000
O O6 0.947326 0.341303 0.660274
O O7 0.834876 0.486354 0.662485
O O8 0.000000 0.500000 0.698896
O O9 0.129975 0.187481 0.290985
O O10 0.977428 0.127253 0.247569
O O11 0.096360 0.199972 0.391580
O O12 0.931974 0.202333 0.350997
O O13 0.959614 0.316686 0.425551
O O14 0.660120 0.043513 0.939714
O O15 0.500000 0.000000 0.909887
O O16 0.500000 0.076889 0.000000
#
# Coordination Sequence:
#
# PCOD8306160 Si02
#       7
#    16  16  16  16  16  16  16
#     4  12  24  38  64  92 144 182 242 284 338 414
#     4  11  22  37  58  87 132 176 223 277 323 389
#     4  11  23  38  54  87 136 203 242 268 333 410
#     4  12  23  42  62  98 128 176 229 282 338 415
#     4  12  24  38  63  88 139 180 241 286 336 405
#     4  11  22  45  76  96 123 165 227 302 368 413
#     4  12  23  42  64 101 136 184 230 285 349 418
#
# _framework density 20.984233
#
# number of rings (size 3 to 8) (size 9 to 14) (size 15 to 20)
#    0.000    0.429    8.571    0.429    4.000    0.571 
#    0.000    0.714    3.143    0.000    0.000    1.000 
#    0.000    5.143    0.000    0.000    0.000    0.000 
#
# Total GULP energy -693756.932229 kJ/mol
# GULP energy per Si atom -12388.516647 kJ/mol
# Density = 2.093647 g / cm^3
# Si number density = 20.984233 Si / 1000 Ang^3
#
#
#
# Elastic Constant Matrix: (Units=GPa)
#
#
# Indices 1 2 3 4 5 6 
#
# 1 94.8276 32.6923 19.4572 0.0000 0.0000 0.0000
# 2 32.6923 94.8276 19.4572 0.0000 0.0000 0.0000
# 3 19.4572 19.4572 63.2281 0.0000 0.0000 0.0000
# 4 0.0000 0.0000 0.0000 18.6188 0.0000 0.0000
# 5 0.0000 0.0000 0.0000 0.0000 18.6188 0.0000
# 6 0.0000 0.0000 0.0000 0.0000 0.0000 48.0938
#
#
#
# Elastic Compliance Matrix: (Units=1/GPa)
#
#
# Indices 1 2 3 4 5 6 
#
# 1 0.012374 -0.003720 -0.002663 0.000000 0.000000 0.000000
# 2 -0.003720 0.012374 -0.002663 0.000000 0.000000 0.000000
# 3 -0.002663 -0.002663 0.017455 0.000000 0.000000 0.000000
# 4 0.000000 0.000000 0.000000 0.053709 0.000000 0.000000
# 5 0.000000 0.000000 0.000000 0.000000 0.053709 0.000000
# 6 0.000000 0.000000 0.000000 0.000000 0.000000 0.020793
#
#
# Mechanical properties :
#
#
# Convention : Reuss Voigt Hill
#
# Bulk Modulus (GPa) = 41.47478 44.01071 42.74274
# Shear Modulus (GPa) = 25.43959 29.15138 27.29548
#
# Velocity S-wave (km/s) = 3.48561 3.73125 3.61052
# Velocity P-wave (km/s) = 6.00058 6.29140 6.14771
#
# Compressibility (1/GPa) = 0.02411104
#
# Stress axis : x y z
#
# Youngs Moduli (GPa) = 80.81274 80.81274 57.29049
#
# Poissons Ratio (x) = 0.30059 0.15258
# Poissons Ratio (y) = 0.30059 0.15258
# Poissons Ratio (z) = 0.21523 0.21523
#
# Static dielectric constant tensor:
#      x y z
#    x 3.966720 0.000000 0.000000 
#    y 0.000000 3.966720 0.000000 
#    z 0.000000 0.000000 3.570810 
# 
# 
# High freq. dielectric constant tensor:
#      x y z
#    x 1.839410 0.000000 0.000000 
#    y 0.000000 1.839410 0.000000 
#    z 0.000000 0.000000 1.771600 
# 
# From -- ./inp_files/7692.got.cif
#   From: 2010.03.12/outbox.cif.g09.slc.cpg/sg97_4_cif.got.tgz:7692.got - 2010.04.08 20:59:42.
