data_PCOD8306621
_publ_section_title
;
Structure prediction by ZEFSAII (Michael W. Deem and Ramdas Pophale) SiO2 
 PCOD8306621
Probable space group: P 4 M M
;
_chemical_formula_sum "Si O2"
_cell_formula_units_Z 64
_cell_length_a 14.073685
_cell_length_b 14.073685
_cell_length_c 20.234430
_cell_angle_alpha 90.000000
_cell_angle_beta 90.000000
_cell_angle_gamma 90.000000
_cell_volume 4007.805414
_symmetry_space_group_name_H-M "P 4 M M"
_symmetry_group_IT_number 99
_symmetry_cell_setting 'tetragonal'
loop_
_space_group_symop_operation_xyz
x,y,z
-y,x,z
-x,-y,z
y,-x,z
-x,y,z
x,-y,z
-y,-x,z
y,x,z
loop_
_atom_site_type_symbol
_atom_site_label
_atom_site_fract_x
_atom_site_fract_y
_atom_site_fract_z
Si Si1 0.109532 0.735666 0.973260
Si Si2 0.762339 0.391260 0.057924
Si Si3 0.608852 0.237476 0.211564
Si Si4 0.112748 0.395044 0.707035
Si Si5 0.106948 0.741388 0.444813
Si Si6 0.733453 0.110932 0.587850
Si Si7 0.261272 0.891441 0.822469
Si Si8 0.731142 0.111594 0.300867
O O1 0.167354 0.832647 0.987286
O O2 0.148505 0.650114 0.017847
O O3 0.121243 0.702699 0.897394
O O4 0.000000 0.755383 0.991189
O O5 0.744848 0.500000 0.037203
O O6 0.666718 0.333283 0.040502
O O7 0.787848 0.382204 0.134726
O O8 0.500000 0.254948 0.232231
O O9 0.666850 0.333151 0.229067
O O10 0.650734 0.147809 0.250914
O O11 0.158174 0.500000 0.707121
O O12 0.149030 0.341196 0.641595
O O13 0.147586 0.342282 0.773409
O O14 0.000000 0.402098 0.706283
O O15 0.160376 0.839625 0.445793
O O16 0.128096 0.686317 0.514221
O O17 0.129181 0.687782 0.375397
O O18 0.000000 0.774955 0.444129
O O19 0.831207 0.168794 0.595776
O O20 0.756883 0.000000 0.599561
O O21 0.164690 0.835311 0.809590
O O22 0.236648 0.000000 0.806271
O O23 0.829132 0.170869 0.290659
O O24 0.751238 0.000000 0.287567
#
# Coordination Sequence:
#
# PCOD8306621 Si02
#       8
#     8   8   8   8   8   8   8   8
#     4   9  18  31  46  66  92 120 150 182 215 256
#     4   9  18  32  49  69  91 114 143 181 225 271
#     4   9  18  32  49  68  89 113 142 180 227 274
#     4   9  17  28  40  55  79 111 143 173 205 243
#     4   8  14  24  38  57  82 112 143 175 211 249
#     4   9  16  26  41  61  85 111 139 173 212 255
#     4   9  17  29  45  65  88 113 141 174 212 253
#     4   9  17  29  44  63  89 119 150 183 217 257
#
# _framework density 15.96884
#
# number of rings (size 3 to 8) (size 9 to 14) (size 15 to 20)
#    0.000    3.125    0.000    0.375    0.000    2.375 
#    0.000    8.125    0.000    4.500    0.000    3.500 
#    0.000    4.000    0.000    0.000    0.000    0.000 
#
# Total GULP energy -793043.648367 kJ/mol
# GULP energy per Si atom -12391.307006 kJ/mol
# Density = 1.593249 g / cm^3
# Si number density = 15.968840 Si / 1000 Ang^3
#
#
#
# Elastic Constant Matrix: (Units=GPa)
#
#
# Indices 1 2 3 4 5 6 
#
# 1 91.3147 41.0020 53.9414 0.0000 0.0000 -0.0002
# 2 41.0020 91.3147 53.9414 0.0000 0.0000 0.0002
# 3 53.9414 53.9414 91.5293 0.0000 0.0000 0.0000
# 4 0.0000 0.0000 0.0000 21.4900 0.0000 0.0000
# 5 0.0000 0.0000 0.0000 0.0000 21.4900 0.0000
# 6 -0.0002 0.0002 0.0000 0.0000 0.0000 11.2484
#
#
#
# Elastic Compliance Matrix: (Units=1/GPa)
#
#
# Indices 1 2 3 4 5 6 
#
# 1 0.017212 -0.002664 -0.008574 0.000000 0.000000 0.000000
# 2 -0.002664 0.017212 -0.008574 0.000000 0.000000 0.000000
# 3 -0.008574 -0.008574 0.021031 0.000000 0.000000 0.000000
# 4 0.000000 0.000000 0.000000 0.046533 0.000000 0.000000
# 5 0.000000 0.000000 0.000000 0.000000 0.046533 0.000000
# 6 0.000000 0.000000 0.000000 0.000000 0.000000 0.088901
#
#
# Mechanical properties :
#
#
# Convention : Reuss Voigt Hill
#
# Bulk Modulus (GPa) = 63.16158 63.54759 63.35459
# Shear Modulus (GPa) = 17.71026 19.19729 18.45377
#
# Velocity S-wave (km/s) = 3.33385 3.47100 3.40312
# Velocity P-wave (km/s) = 7.37959 7.47963 7.42978
#
# Compressibility (1/GPa) = 0.01583241
#
# Stress axis : x y z
#
# Youngs Moduli (GPa) = 58.09931 58.09931 47.54881
#
# Poissons Ratio (x) = 0.15477 0.40767
# Poissons Ratio (y) = 0.15477 0.40767
# Poissons Ratio (z) = 0.49813 0.49813
#
# Static dielectric constant tensor:
#      x y z
#    x 2.912200 0.000000 0.000000 
#    y 0.000000 2.912200 0.000000 
#    z 0.000000 0.000000 3.408440 
# 
# 
# High freq. dielectric constant tensor:
#      x y z
#    x 1.591750 0.000000 0.000000 
#    y 0.000000 1.591750 0.000000 
#    z 0.000000 0.000000 1.630780 
# 
# From -- ./inp_files/2052.got.cif
#   From: 2010.03.12/outbox.cif.g09.slc.cpg/sg99_cif.got.tgz:2052.got - 2010.04.08 21:11:30.
