data_PCOD8306711
_publ_section_title
;
Structure prediction by ZEFSAII (Michael W. Deem and Ramdas Pophale) SiO2 
 PCOD8306711
Probable space group: P 42 C M
;
_chemical_formula_sum "Si O2"
_cell_formula_units_Z 56
_cell_length_a 12.837886
_cell_length_b 12.837886
_cell_length_c 17.288486
_cell_angle_alpha 90.000000
_cell_angle_beta 90.000000
_cell_angle_gamma 90.000000
_cell_volume 2849.338146
_symmetry_space_group_name_H-M "P 42 C M"
_symmetry_group_IT_number 101
_symmetry_cell_setting 'tetragonal'
loop_
_space_group_symop_operation_xyz
x,y,z
-y,x,1/2+z
-x,-y,z
y,-x,1/2+z
-x,y,1/2+z
x,-y,1/2+z
-y,-x,z
y,x,z
loop_
_atom_site_type_symbol
_atom_site_label
_atom_site_fract_x
_atom_site_fract_y
_atom_site_fract_z
Si Si1 0.224243 0.392334 0.593020
Si Si2 0.058082 0.224032 0.592472
Si Si3 0.995497 0.834233 0.758481
Si Si4 0.868096 0.700484 0.007727
Si Si5 0.853250 0.317885 0.821305
Si Si6 0.489758 0.118460 0.449241
Si Si7 0.392772 0.229391 0.159345
O O1 0.333330 0.333330 0.584723
O O2 0.132596 0.316889 0.620777
O O3 0.195738 0.438576 0.510120
O O4 0.237659 0.482588 0.656534
O O5 0.126801 0.126801 0.562161
O O6 0.992012 0.193715 0.667911
O O7 0.986489 0.257906 0.519531
O O8 0.074074 0.925927 0.775942
O O9 0.033395 0.739110 0.813468
O O10 0.877462 0.877462 0.776464
O O11 0.796879 0.796879 0.983901
O O12 0.840158 0.649712 0.089700
O O13 0.852580 0.612904 0.940544
O O14 0.762697 0.237304 0.851354
O O15 0.868712 0.420598 0.872861
O O16 0.824594 0.359004 0.737640
O O17 0.500000 0.000000 0.479673
O O18 0.345375 0.345375 0.153642
#
# Coordination Sequence:
#
# PCOD8306711 Si02
#       7
#     8   8   8   8   8   8   8
#     4  10  21  36  56  82 114 148 192 245 291 344
#     4  10  18  30  55  89 118 147 184 234 292 350
#     4   9  17  31  54  85 119 154 191 234 289 352
#     4  10  19  36  58  83 115 149 191 243 290 346
#     4  10  20  36  57  81 116 158 200 244 294 354
#     4  11  22  37  55  81 111 155 199 237 289 348
#     4   9  19  35  58  85 110 146 196 245 297 348
#
# _framework density 19.653687999999999
#
# number of rings (size 3 to 8) (size 9 to 14) (size 15 to 20)
#    0.000    2.143    2.857    0.857    0.000    2.286 
#    0.000    1.429    0.000    2.143    0.000    0.000 
#    0.000    0.000    0.000    0.000    0.000    0.143 
#
# Total GULP energy -693939.148362 kJ/mol
# GULP energy per Si atom -12391.770506 kJ/mol
# Density = 1.960896 g / cm^3
# Si number density = 19.653688 Si / 1000 Ang^3
#
#
#
# Elastic Constant Matrix: (Units=GPa)
#
#
# Indices 1 2 3 4 5 6 
#
# 1 126.4569 66.2679 32.8627 0.0000 0.0000 -0.0001
# 2 66.2679 126.4569 32.8627 0.0000 0.0000 0.0001
# 3 32.8627 32.8627 49.1469 0.0000 0.0000 0.0000
# 4 0.0000 0.0000 0.0000 30.0839 0.0000 0.0000
# 5 0.0000 0.0000 0.0000 0.0000 30.0839 0.0000
# 6 -0.0001 0.0001 0.0000 0.0000 0.0000 26.6212
#
#
#
# Elastic Compliance Matrix: (Units=1/GPa)
#
#
# Indices 1 2 3 4 5 6 
#
# 1 0.011668 -0.004946 -0.004494 0.000000 0.000000 0.000000
# 2 -0.004946 0.011668 -0.004494 0.000000 0.000000 0.000000
# 3 -0.004494 -0.004494 0.026358 0.000000 0.000000 0.000000
# 4 0.000000 0.000000 0.000000 0.033240 0.000000 0.000000
# 5 0.000000 0.000000 0.000000 0.000000 0.033240 0.000000
# 6 0.000000 0.000000 0.000000 0.000000 0.000000 0.037564
#
#
# Mechanical properties :
#
#
# Convention : Reuss Voigt Hill
#
# Bulk Modulus (GPa) = 45.82328 62.89417 54.35872
# Shear Modulus (GPa) = 26.47141 28.69563 27.58352
#
# Velocity S-wave (km/s) = 3.67399 3.82522 3.75037
# Velocity P-wave (km/s) = 6.43145 7.18195 6.81704
#
# Compressibility (1/GPa) = 0.02182297
#
# Stress axis : x y z
#
# Youngs Moduli (GPa) = 85.70507 85.70507 37.93967
#
# Poissons Ratio (x) = 0.42393 0.17052
# Poissons Ratio (y) = 0.42393 0.17052
# Poissons Ratio (z) = 0.38519 0.38519
#
# Static dielectric constant tensor:
#      x y z
#    x 3.916310 0.000000 0.000000 
#    y 0.000000 3.916310 0.000000 
#    z 0.000000 0.000000 3.175030 
# 
# 
# High freq. dielectric constant tensor:
#      x y z
#    x 1.771480 0.000000 0.000000 
#    y 0.000000 1.771480 0.000000 
#    z 0.000000 0.000000 1.731440 
# 
# From -- ./inp_files/2519.got.cif
#   From: 2010.03.12/outbox.cif.g09.slc.cpg/sg101_2_cif.got.tgz:2519.got - 2010.04.14 01:38:52.
