data_PCOD8306963
_publ_section_title
;
Structure prediction by ZEFSAII (Michael W. Deem and Ramdas Pophale) SiO2 
 PCOD8306963
Probable space group: P 4 C C
;
_chemical_formula_sum "Si O2"
_cell_formula_units_Z 56
_cell_length_a 19.916104
_cell_length_b 19.916104
_cell_length_c 9.100330
_cell_angle_alpha 90.000000
_cell_angle_beta 90.000000
_cell_angle_gamma 90.000000
_cell_volume 3609.656802
_symmetry_space_group_name_H-M "P 4 C C"
_symmetry_group_IT_number 103
_symmetry_cell_setting 'tetragonal'
loop_
_space_group_symop_operation_xyz
x,y,z
-y,x,z
-x,-y,z
y,-x,z
-x,y,1/2+z
x,-y,1/2+z
-y,-x,1/2+z
y,x,1/2+z
loop_
_atom_site_type_symbol
_atom_site_label
_atom_site_fract_x
_atom_site_fract_y
_atom_site_fract_z
Si Si1 0.087461 0.265793 0.087580
Si Si2 0.049121 0.728267 0.923541
Si Si3 0.852503 0.867222 0.000952
Si Si4 0.961759 0.581517 0.515870
Si Si5 0.588647 0.878839 0.539104
Si Si6 0.914489 0.933839 0.254586
Si Si7 0.106297 0.507496 0.278109
O O1 0.052936 0.269838 0.247062
O O2 0.141402 0.205460 0.077894
O O3 0.133210 0.331764 0.053494
O O4 0.027064 0.253372 0.971437
O O5 0.067071 0.655117 0.983928
O O6 0.106172 0.776541 0.992135
O O7 0.897525 0.922864 0.084441
O O8 0.887363 0.862009 0.841786
O O9 0.943768 0.534658 0.379765
O O10 0.932137 0.557610 0.670028
O O11 0.041005 0.579525 0.535329
O O12 0.555397 0.849245 0.388016
O O13 0.545934 0.850612 0.679451
O O14 0.988480 0.906579 0.291948
#
# Coordination Sequence:
#
# PCOD8306963 Si02
#       7
#     8   8   8   8   8   8   8
#     4  11  24  37  51  68  88 114 147 186 230 282
#     4  11  24  37  51  68  88 114 147 186 230 282
#     4  12  24  37  52  62  86 112 144 184 240 281
#     4  10  18  28  46  69  94 114 139 169 208 270
#     4  10  18  28  46  69  94 114 139 169 208 270
#     4  11  22  36  52  68  78  98 138 192 244 294
#     4  10  17  28  46  70  94 118 134 162 212 261
#
# _framework density 15.513941000000001
#
# number of rings (size 3 to 8) (size 9 to 14) (size 15 to 20)
#    0.000    1.286    2.857    6.000    8.000    1.143 
#    0.000    0.000    0.000    0.000    0.000    0.000 
#    0.000    0.000    0.000    0.000    0.000    0.000 
#
# Total GULP energy -693969.021955 kJ/mol
# GULP energy per Si atom -12392.303963 kJ/mol
# Density = 1.547863 g / cm^3
# Si number density = 15.513941 Si / 1000 Ang^3
#
#
#
# Elastic Constant Matrix: (Units=GPa)
#
#
# Indices 1 2 3 4 5 6 
#
# 1 56.2696 39.7795 29.6393 0.0000 0.0000 0.0000
# 2 39.7795 56.2696 29.6393 0.0000 0.0000 0.0000
# 3 29.6393 29.6393 88.4456 0.0000 0.0000 0.0000
# 4 0.0000 0.0000 0.0000 19.7070 0.0000 0.0000
# 5 0.0000 0.0000 0.0000 0.0000 19.7070 0.0000
# 6 0.0000 0.0000 0.0000 0.0000 0.0000 6.1184
#
#
#
# Elastic Compliance Matrix: (Units=1/GPa)
#
#
# Indices 1 2 3 4 5 6 
#
# 1 0.036884 -0.023758 -0.004399 0.000000 0.000000 0.000000
# 2 -0.023758 0.036884 -0.004399 0.000000 0.000000 0.000000
# 3 -0.004399 -0.004399 0.014255 0.000000 0.000000 0.000000
# 4 0.000000 0.000000 0.000000 0.050743 0.000000 0.000000
# 5 0.000000 0.000000 0.000000 0.000000 0.050743 0.000000
# 6 0.000000 0.000000 0.000000 0.000000 0.000000 0.163442
#
#
# Mechanical properties :
#
#
# Convention : Reuss Voigt Hill
#
# Bulk Modulus (GPa) = 43.64557 44.34452 43.99505
# Shear Modulus (GPa) = 11.74534 15.90158 13.82346
#
# Velocity S-wave (km/s) = 2.75450 3.20501 2.98826
# Velocity P-wave (km/s) = 6.18955 6.50706 6.35029
#
# Compressibility (1/GPa) = 0.02291183
#
# Stress axis : x y z
#
# Youngs Moduli (GPa) = 27.11180 27.11180 70.15313
#
# Poissons Ratio (x) = 0.64413 0.30858
# Poissons Ratio (y) = 0.64413 0.30858
# Poissons Ratio (z) = 0.11926 0.11926
#
# Static dielectric constant tensor:
#      x y z
#    x 2.943930 0.000000 0.000000 
#    y 0.000000 2.943930 0.000000 
#    z 0.000000 0.000000 3.388110 
# 
# 
# High freq. dielectric constant tensor:
#      x y z
#    x 1.553910 0.000000 0.000000 
#    y 0.000000 1.553910 0.000000 
#    z 0.000000 0.000000 1.627570 
# 
# From -- ./inp_files/354.got.cif
#   From: 2010.03.12/outbox.cif.g09.slc.cpg/sg103_cif.got.tgz:354.got - 2010.04.14 01:42:52.
