data_PCOD8306061
_publ_section_title
;
Structure prediction by ZEFSAII (Michael W. Deem and Ramdas Pophale) SiO2 
 PCOD8306061
Probable space group: I 4 2 2 
;
_chemical_formula_sum "Si O2"
_cell_formula_units_Z 56
_cell_length_a 15.268424
_cell_length_b 15.268424
_cell_length_c 10.617089
_cell_angle_alpha 90.000000
_cell_angle_beta 90.000000
_cell_angle_gamma 90.000000
_cell_volume 2475.106447
_symmetry_space_group_name_H-M "I 4 2 2 "
_symmetry_group_IT_number 97
_symmetry_cell_setting 'tetragonal'
loop_
_space_group_symop_operation_xyz
x,y,z
-y,x,z
-x,-y,z
y,-x,z
x,-y,-z
-x,y,-z
y,x,-z
-y,-x,-z
1/2+x,1/2+y,1/2+z
1/2-y,1/2+x,1/2+z
1/2-x,1/2-y,1/2+z
1/2+y,1/2-x,1/2+z
1/2+x,1/2-y,1/2-z
1/2-x,1/2+y,1/2-z
1/2+y,1/2+x,1/2-z
1/2-y,1/2-x,1/2-z
loop_
_atom_site_type_symbol
_atom_site_label
_atom_site_fract_x
_atom_site_fract_y
_atom_site_fract_z
Si Si1 0.052179 0.870457 0.747507
Si Si2 0.000000 0.198736 0.000000
Si Si3 0.216337 0.345854 0.133590
Si Si4 0.156995 0.303044 0.883509
O O1 0.088230 0.794826 0.658871
O O2 0.952072 0.887081 0.711504
O O3 0.058359 0.856098 0.899421
O O4 0.933708 0.253574 0.088062
O O5 0.147252 0.352749 0.250000
O O6 0.239763 0.241670 0.127396
O O7 0.173371 0.371010 0.999406
O O8 0.146137 0.353864 0.750000
#
# Coordination Sequence:
#
# PCOD8306061 Si02
#       4
#    16   8  16  16
#     4  11  23  37  64 107 149 185 224 285 362 435
#     4  12  22  39  68 104 143 182 238 294 359 428
#     4  10  19  40  63  90 135 190 236 264 333 430
#     4  10  22  38  66  95 128 178 240 285 336 408
#
# _framework density 22.62529
#
# number of rings (size 3 to 8) (size 9 to 14) (size 15 to 20)
#    0.000    1.429    2.857    4.286    4.000    1.143 
#    0.000   12.857    0.000   13.714    0.000   34.000 
#    0.000    0.000    0.000    0.000    0.000    0.000 
#
# Total GULP energy -346915.955856 kJ/mol
# GULP energy per Si atom -12389.855566 kJ/mol
# Density = 2.257379 g / cm^3
# Si number density = 22.625290 Si / 1000 Ang^3
#
#
#
# Elastic Constant Matrix: (Units=GPa)
#
#
# Indices 1 2 3 4 5 6 
#
# 1 76.8337 54.4030 41.5016 0.0000 0.0000 0.0000
# 2 54.4030 76.8327 41.5010 0.0000 0.0000 0.0000
# 3 41.5016 41.5010 203.3090 0.0000 0.0000 0.0000
# 4 0.0000 0.0000 0.0000 33.5653 0.0000 0.0000
# 5 0.0000 0.0000 0.0000 0.0000 33.5654 0.0000
# 6 0.0000 0.0000 0.0000 0.0000 0.0000 13.5385
#
#
#
# Elastic Compliance Matrix: (Units=1/GPa)
#
#
# Indices 1 2 3 4 5 6 
#
# 1 0.026666 -0.017917 -0.001786 0.000000 0.000000 0.000000
# 2 -0.017917 0.026666 -0.001786 0.000000 0.000000 0.000000
# 3 -0.001786 -0.001786 0.005648 0.000000 0.000000 0.000000
# 4 0.000000 0.000000 0.000000 0.029793 0.000000 0.000000
# 5 0.000000 0.000000 0.000000 0.000000 0.029793 0.000000
# 6 0.000000 0.000000 0.000000 0.000000 0.000000 0.073863
#
#
# Mechanical properties :
#
#
# Convention : Reuss Voigt Hill
#
# Bulk Modulus (GPa) = 62.48985 70.19852 66.34419
# Shear Modulus (GPa) = 20.76927 30.77183 25.77055
#
# Velocity S-wave (km/s) = 3.03308 3.69190 3.37859
# Velocity P-wave (km/s) = 6.32025 7.01908 6.67881
#
# Compressibility (1/GPa) = 0.01600260
#
# Stress axis : x y z
#
# Youngs Moduli (GPa) = 37.50093 37.50051 177.06073
#
# Poissons Ratio (x) = 0.67189 0.31624
# Poissons Ratio (y) = 0.67189 0.31623
# Poissons Ratio (z) = 0.06698 0.06698
#
# Static dielectric constant tensor:
#      x y z
#    x 3.739680 0.000000 0.000000 
#    y 0.000000 3.739680 0.000000 
#    z 0.000000 0.000000 5.404630 
# 
# 
# High freq. dielectric constant tensor:
#      x y z
#    x 1.853940 0.000000 0.000000 
#    y 0.000000 1.853940 0.000000 
#    z 0.000000 0.000000 1.924140 
# 
# From -- ./inp_files/3241.got.cif
#   From: 2010.03.12/outbox.cif.g09.slc.cpg/sg97_2_cif.got.tgz:3241.got - 2010.04.08 20:59:42.
