data_PCOD8306103
_publ_section_title
;
Structure prediction by ZEFSAII (Michael W. Deem and Ramdas Pophale) SiO2 
 PCOD8306103
Probable space group: I 4 2 2 
;
_chemical_formula_sum "Si O2"
_cell_formula_units_Z 104
_cell_length_a 18.299051
_cell_length_b 18.299051
_cell_length_c 16.123453
_cell_angle_alpha 90.000000
_cell_angle_beta 90.000000
_cell_angle_gamma 90.000000
_cell_volume 5399.023167
_symmetry_space_group_name_H-M "I 4 2 2 "
_symmetry_group_IT_number 97
_symmetry_cell_setting 'tetragonal'
loop_
_space_group_symop_operation_xyz
x,y,z
-y,x,z
-x,-y,z
y,-x,z
x,-y,-z
-x,y,-z
y,x,-z
-y,-x,-z
1/2+x,1/2+y,1/2+z
1/2-y,1/2+x,1/2+z
1/2-x,1/2-y,1/2+z
1/2+y,1/2-x,1/2+z
1/2+x,1/2-y,1/2-z
1/2-x,1/2+y,1/2-z
1/2+y,1/2+x,1/2-z
1/2-y,1/2-x,1/2-z
loop_
_atom_site_type_symbol
_atom_site_label
_atom_site_fract_x
_atom_site_fract_y
_atom_site_fract_z
Si Si1 0.531399 0.615881 0.813215
Si Si2 0.854931 0.582775 0.997913
Si Si3 0.851371 0.578857 0.669839
Si Si4 0.144351 0.582384 0.666409
Si Si5 0.620732 0.500000 0.500000
Si Si6 0.074652 0.187277 0.468295
Si Si7 0.008357 0.213313 0.160646
O O1 0.449317 0.588160 0.829482
O O2 0.561945 0.682724 0.869253
O O3 0.527345 0.647421 0.721587
O O4 0.878139 0.619093 0.083503
O O5 0.767794 0.582873 0.995717
O O6 0.885170 0.500000 0.000000
O O7 0.882273 0.626496 0.916681
O O8 0.874855 0.625146 0.750000
O O9 0.890606 0.499280 0.670730
O O10 0.763331 0.564622 0.678104
O O11 0.125254 0.625254 0.750000
O O12 0.232364 0.577950 0.659670
O O13 0.572089 0.572089 0.500000
O O14 0.675254 0.504396 0.575006
O O15 0.144577 0.144577 0.500000
O O16 0.000000 0.149427 0.500000
#
# Coordination Sequence:
#
# PCOD8306103 Si02
#       7
#    16  16  16  16   8  16  16
#     4  11  22  38  65  95 118 154 210 260 316 382
#     4  11  23  38  62  92 127 162 214 260 309 377
#     4  10  23  38  61  91 127 166 211 256 313 371
#     4  10  21  39  63  90 127 162 211 256 316 369
#     4  11  22  42  70  96 119 162 222 272 323 384
#     4  11  23  39  62  88 128 162 201 256 319 373
#     4  10  23  40  63  89 131 161 202 272 322 365
#
# _framework density 19.262743
#
# number of rings (size 3 to 8) (size 9 to 14) (size 15 to 20)
#    0.923    0.538    1.538    4.154    4.308    4.154 
#    0.000    4.615    0.000    4.615    0.000    0.000 
#    0.000    0.000    0.000    0.000    0.000    0.000 
#
# Total GULP energy -644213.295667 kJ/mol
# GULP energy per Si atom -12388.717224 kJ/mol
# Density = 1.921890 g / cm^3
# Si number density = 19.262743 Si / 1000 Ang^3
#
#
#
# Elastic Constant Matrix: (Units=GPa)
#
#
# Indices 1 2 3 4 5 6 
#
# 1 90.2850 27.1365 34.6965 0.0000 0.0000 0.0000
# 2 27.1365 90.2851 34.6966 0.0000 0.0000 0.0000
# 3 34.6965 34.6966 148.8817 0.0000 0.0000 0.0000
# 4 0.0000 0.0000 0.0000 10.5641 0.0000 0.0000
# 5 0.0000 0.0000 0.0000 0.0000 10.5626 0.0000
# 6 0.0000 0.0000 0.0000 0.0000 0.0000 4.4269
#
#
#
# Elastic Compliance Matrix: (Units=1/GPa)
#
#
# Indices 1 2 3 4 5 6 
#
# 1 0.012856 -0.002980 -0.002302 0.000000 0.000000 0.000000
# 2 -0.002980 0.012856 -0.002302 0.000000 0.000000 0.000000
# 3 -0.002302 -0.002302 0.007790 0.000000 0.000000 0.000000
# 4 0.000000 0.000000 0.000000 0.094660 0.000000 0.000000
# 5 0.000000 0.000000 0.000000 0.000000 0.094673 0.000000
# 6 0.000000 0.000000 0.000000 0.000000 0.000000 0.225889
#
#
# Mechanical properties :
#
#
# Convention : Reuss Voigt Hill
#
# Bulk Modulus (GPa) = 54.53794 58.05678 56.29736
# Shear Modulus (GPa) = 10.63823 20.63888 15.63855
#
# Velocity S-wave (km/s) = 2.35259 3.27684 2.85240
# Velocity P-wave (km/s) = 5.97944 6.67246 6.33543
#
# Compressibility (1/GPa) = 0.01833586
#
# Stress axis : x y z
#
# Youngs Moduli (GPa) = 77.78390 77.78398 128.37694
#
# Poissons Ratio (x) = 0.23176 0.29549
# Poissons Ratio (y) = 0.23176 0.29549
# Poissons Ratio (z) = 0.17904 0.17904
#
# Static dielectric constant tensor:
#      x y z
#    x 3.565090 0.000000 0.000000 
#    y 0.000000 3.565100 0.000000 
#    z 0.000000 0.000000 3.521130 
# 
# 
# High freq. dielectric constant tensor:
#      x y z
#    x 1.744060 0.000000 0.000000 
#    y 0.000000 1.744060 0.000000 
#    z 0.000000 0.000000 1.767530 
# 
# From -- ./inp_files/5033.got.cif
#   From: 2010.03.12/outbox.cif.g09.slc.cpg/sg97_3_cif.got.tgz:5033.got - 2010.04.08 20:59:42.
