data_PCOD8306133
_publ_section_title
;
Structure prediction by ZEFSAII (Michael W. Deem and Ramdas Pophale) SiO2 
 PCOD8306133
Probable space group: I 4 2 2 
;
_chemical_formula_sum "Si O2"
_cell_formula_units_Z 112
_cell_length_a 14.447924
_cell_length_b 14.447924
_cell_length_c 24.487802
_cell_angle_alpha 90.000000
_cell_angle_beta 90.000000
_cell_angle_gamma 90.000000
_cell_volume 5111.645203
_symmetry_space_group_name_H-M "I 4 2 2 "
_symmetry_group_IT_number 97
_symmetry_cell_setting 'tetragonal'
loop_
_space_group_symop_operation_xyz
x,y,z
-y,x,z
-x,-y,z
y,-x,z
x,-y,-z
-x,y,-z
y,x,-z
-y,-x,-z
1/2+x,1/2+y,1/2+z
1/2-y,1/2+x,1/2+z
1/2-x,1/2-y,1/2+z
1/2+y,1/2-x,1/2+z
1/2+x,1/2-y,1/2-z
1/2-x,1/2+y,1/2-z
1/2+y,1/2+x,1/2-z
1/2-y,1/2-x,1/2-z
loop_
_atom_site_type_symbol
_atom_site_label
_atom_site_fract_x
_atom_site_fract_y
_atom_site_fract_z
Si Si1 0.094299 0.453974 0.633814
Si Si2 0.041228 0.239088 0.798816
Si Si3 0.395650 0.248493 0.976582
Si Si4 0.745994 0.063361 0.677448
Si Si5 0.202560 0.562552 0.546909
Si Si6 0.633168 0.277594 0.146859
Si Si7 0.204396 0.138174 0.848396
O O1 0.161387 0.491747 0.680308
O O2 0.086245 0.342936 0.639999
O O3 0.127713 0.493554 0.575377
O O4 0.000000 0.500000 0.650125
O O5 0.093160 0.253495 0.741255
O O6 0.112576 0.200083 0.844425
O O7 0.943477 0.184455 0.803647
O O8 0.348497 0.147827 0.984089
O O9 0.406927 0.261037 0.912627
O O10 0.500000 0.251991 0.000000
O O11 0.329708 0.329708 0.000000
O O12 0.828994 0.118272 0.649145
O O13 0.766828 0.955393 0.685085
O O14 0.251231 0.500000 0.500000
O O15 0.279731 0.598582 0.590088
O O16 0.708825 0.203346 0.166278
#
# Coordination Sequence:
#
# PCOD8306133 Si02
#       7
#    16  16  16  16  16  16  16
#     4  11  24  40  65 100 137 170 231 287 337 405
#     4  11  23  41  69  95 138 185 226 279 356 409
#     4  11  25  43  68  98 135 187 229 281 349 414
#     4  12  24  41  69  97 137 186 223 285 347 420
#     4  10  25  41  70 101 138 184 227 294 352 412
#     4  11  25  43  65  98 141 175 232 287 341 411
#     4  10  23  45  63 102 139 180 235 292 340 421
#
# _framework density 21.910753
#
# number of rings (size 3 to 8) (size 9 to 14) (size 15 to 20)
#    0.000    1.143    1.429    4.714    6.000    5.857 
#    0.000    2.857    0.000    0.000    0.000    4.000 
#    0.000    0.000    0.000    0.000    0.000    0.000 
#
# Total GULP energy -693919.219717 kJ/mol
# GULP energy per Si atom -12391.414638 kJ/mol
# Density = 2.186088 g / cm^3
# Si number density = 21.910753 Si / 1000 Ang^3
#
#
#
# Elastic Constant Matrix: (Units=GPa)
#
#
# Indices 1 2 3 4 5 6 
#
# 1 99.4643 49.1075 38.1078 0.0000 0.0000 0.0000
# 2 49.1075 99.4643 38.1078 0.0000 0.0000 0.0000
# 3 38.1078 38.1078 67.3507 0.0000 0.0000 0.0000
# 4 0.0000 0.0000 0.0000 24.1005 0.0000 0.0000
# 5 0.0000 0.0000 0.0000 0.0000 24.1005 0.0000
# 6 0.0000 0.0000 0.0000 0.0000 0.0000 26.3581
#
#
#
# Elastic Compliance Matrix: (Units=1/GPa)
#
#
# Indices 1 2 3 4 5 6 
#
# 1 0.014671 -0.005187 -0.005366 0.000000 0.000000 0.000000
# 2 -0.005187 0.014671 -0.005366 0.000000 0.000000 0.000000
# 3 -0.005366 -0.005366 0.020920 0.000000 0.000000 0.000000
# 4 0.000000 0.000000 0.000000 0.041493 0.000000 0.000000
# 5 0.000000 0.000000 0.000000 0.000000 0.041493 0.000000
# 6 0.000000 0.000000 0.000000 0.000000 0.000000 0.037939
#
#
# Mechanical properties :
#
#
# Convention : Reuss Voigt Hill
#
# Bulk Modulus (GPa) = 54.27928 57.43619 55.85774
# Shear Modulus (GPa) = 23.90452 24.30888 24.10670
#
# Velocity S-wave (km/s) = 3.30660 3.33445 3.32056
# Velocity P-wave (km/s) = 6.27733 6.41057 6.34430
#
# Compressibility (1/GPa) = 0.01842324
#
# Stress axis : x y z
#
# Youngs Moduli (GPa) = 68.16255 68.16255 47.80185
#
# Poissons Ratio (x) = 0.35359 0.25649
# Poissons Ratio (y) = 0.35359 0.25649
# Poissons Ratio (z) = 0.36575 0.36575
#
# Static dielectric constant tensor:
#      x y z
#    x 4.394320 0.000000 0.000000 
#    y 0.000000 4.394320 0.000000 
#    z 0.000000 0.000000 3.897000 
# 
# 
# High freq. dielectric constant tensor:
#      x y z
#    x 1.864440 0.000000 0.000000 
#    y 0.000000 1.864440 0.000000 
#    z 0.000000 0.000000 1.860230 
# 
# From -- ./inp_files/7250.got.cif
#   From: 2010.03.12/outbox.cif.g09.slc.cpg/sg97_4_cif.got.tgz:7250.got - 2010.04.08 20:59:42.
