data_PCOD8306602
_publ_section_title
;
Structure prediction by ZEFSAII (Michael W. Deem and Ramdas Pophale) SiO2 
 PCOD8306602
Probable space group: P 4 M M
;
_chemical_formula_sum "Si O2"
_cell_formula_units_Z 64
_cell_length_a 13.250240
_cell_length_b 13.250240
_cell_length_c 20.857601
_cell_angle_alpha 90.000000
_cell_angle_beta 90.000000
_cell_angle_gamma 90.000000
_cell_volume 3661.945231
_symmetry_space_group_name_H-M "P 4 M M"
_symmetry_group_IT_number 99
_symmetry_cell_setting 'tetragonal'
loop_
_space_group_symop_operation_xyz
x,y,z
-y,x,z
-x,-y,z
y,-x,z
-x,y,z
x,-y,z
-y,-x,z
y,x,z
loop_
_atom_site_type_symbol
_atom_site_label
_atom_site_fract_x
_atom_site_fract_y
_atom_site_fract_z
Si Si1 0.779196 0.381461 0.247510
Si Si2 0.110650 0.380362 0.374832
Si Si3 0.617850 0.216918 0.012507
Si Si4 0.219692 0.382571 0.499980
Si Si5 0.283378 0.117208 0.132157
Si Si6 0.775744 0.386055 0.637945
Si Si7 0.784634 0.381725 0.777197
Si Si8 0.882930 0.282458 0.893522
O O1 0.760133 0.500000 0.242903
O O2 0.673282 0.326719 0.232746
O O3 0.816488 0.346427 0.317520
O O4 0.862633 0.347794 0.196154
O O5 0.103360 0.500000 0.375949
O O6 0.149055 0.339793 0.443570
O O7 0.000000 0.333492 0.363264
O O8 0.500000 0.242488 0.014792
O O9 0.677225 0.322775 0.014191
O O10 0.647652 0.147802 0.072364
O O11 0.642694 0.155048 0.948588
O O12 0.242018 0.500000 0.488483
O O13 0.326607 0.326607 0.497037
O O14 0.165830 0.363094 0.570316
O O15 0.178828 0.178828 0.132196
O O16 0.255409 0.000000 0.127988
O O17 0.740253 0.500000 0.637180
O O18 0.672024 0.327976 0.638433
O O19 0.833140 0.363873 0.705403
O O20 0.763129 0.500000 0.789943
O O21 0.679292 0.320709 0.785843
O O22 0.867115 0.339288 0.826172
O O23 0.823120 0.176881 0.896315
O O24 0.000000 0.257126 0.902769
#
# Coordination Sequence:
#
# PCOD8306602 Si02
#       8
#     8   8   8   8   8   8   8   8
#     4  10  20  33  50  73  99 127 160 197 240 293
#     4   9  17  29  44  61  84 117 155 193 232 274
#     4  10  21  36  54  78 106 135 167 200 236 283
#     4   9  16  26  41  62  89 120 152 187 229 278
#     4  10  21  36  54  77 103 132 169 210 249 288
#     4   8  14  24  38  58  87 121 154 189 227 270
#     4   9  17  29  45  67  95 126 160 196 235 282
#     4  10  21  36  53  73  96 123 158 200 245 292
#
# _framework density 17.477050999999999
#
# number of rings (size 3 to 8) (size 9 to 14) (size 15 to 20)
#    0.000    2.625    0.000    1.875    0.000    3.875 
#    0.000    3.125    0.000   11.250    0.000    0.000 
#    0.000    2.250    0.000    0.000    0.000    2.500 
#
# Total GULP energy -793087.649834 kJ/mol
# GULP energy per Si atom -12391.994529 kJ/mol
# Density = 1.743727 g / cm^3
# Si number density = 17.477051 Si / 1000 Ang^3
#
#
#
# Elastic Constant Matrix: (Units=GPa)
#
#
# Indices 1 2 3 4 5 6 
#
# 1 92.0865 38.1140 41.6008 0.0000 0.0000 -0.0003
# 2 38.1140 92.0865 41.6008 0.0000 0.0000 0.0003
# 3 41.6008 41.6008 142.9552 0.0000 0.0000 0.0000
# 4 0.0000 0.0000 0.0000 14.4300 0.0000 0.0000
# 5 0.0000 0.0000 0.0000 0.0000 14.4300 0.0000
# 6 -0.0003 0.0003 0.0000 0.0000 0.0000 10.0711
#
#
#
# Elastic Compliance Matrix: (Units=1/GPa)
#
#
# Indices 1 2 3 4 5 6 
#
# 1 0.013981 -0.004546 -0.002746 0.000000 0.000000 0.000001
# 2 -0.004546 0.013981 -0.002746 0.000000 0.000000 -0.000001
# 3 -0.002746 -0.002746 0.008593 0.000000 0.000000 0.000000
# 4 0.000000 0.000000 0.000000 0.069300 0.000000 0.000000
# 5 0.000000 0.000000 0.000000 0.000000 0.069300 0.000000
# 6 0.000001 -0.000001 0.000000 0.000000 0.000000 0.099294
#
#
# Mechanical properties :
#
#
# Convention : Reuss Voigt Hill
#
# Bulk Modulus (GPa) = 60.67730 63.30662 61.99196
# Shear Modulus (GPa) = 16.66562 21.50706 19.08634
#
# Velocity S-wave (km/s) = 3.09135 3.51178 3.30825
# Velocity P-wave (km/s) = 6.89460 7.26256 7.08097
#
# Compressibility (1/GPa) = 0.01648063
#
# Stress axis : x y z
#
# Youngs Moduli (GPa) = 71.52311 71.52311 116.37113
#
# Poissons Ratio (x) = 0.32518 0.31951
# Poissons Ratio (y) = 0.32518 0.31951
# Poissons Ratio (z) = 0.19638 0.19638
#
# Static dielectric constant tensor:
#      x y z
#    x 3.014450 0.000000 0.000000 
#    y 0.000000 3.014450 0.000000 
#    z 0.000000 0.000000 3.843460 
# 
# 
# High freq. dielectric constant tensor:
#      x y z
#    x 1.651070 0.000000 0.000000 
#    y 0.000000 1.651070 0.000000 
#    z 0.000000 0.000000 1.707290 
# 
# From -- ./inp_files/2254.got.cif
#   From: 2010.03.12/outbox.cif.g09.slc.cpg/sg99_cif.got.tgz:2254.got - 2010.04.08 21:11:30.
