data_PCOD8306517
_publ_section_title
;
Structure prediction by ZEFSAII (Michael W. Deem and Ramdas Pophale) SiO2 
 PCOD8306517
Probable space group: P 4 M M
;
_chemical_formula_sum "Si O2"
_cell_formula_units_Z 64
_cell_length_a 19.289020
_cell_length_b 19.289020
_cell_length_c 10.105720
_cell_angle_alpha 90.000000
_cell_angle_beta 90.000000
_cell_angle_gamma 90.000000
_cell_volume 3759.997774
_symmetry_space_group_name_H-M "P 4 M M"
_symmetry_group_IT_number 99
_symmetry_cell_setting 'tetragonal'
loop_
_space_group_symop_operation_xyz
x,y,z
-y,x,z
-x,-y,z
y,-x,z
-x,y,z
x,-y,z
-y,-x,z
y,x,z
loop_
_atom_site_type_symbol
_atom_site_label
_atom_site_fract_x
_atom_site_fract_y
_atom_site_fract_z
Si Si1 0.306763 0.419372 0.594940
Si Si2 0.197027 0.575814 0.107159
Si Si3 0.187189 0.578019 0.401861
Si Si4 0.728779 0.156865 0.113838
Si Si5 0.811729 0.921037 0.894252
Si Si6 0.808989 0.078171 0.593618
Si Si7 0.918850 0.301999 0.372952
Si Si8 0.424483 0.685376 0.892183
O O1 0.322814 0.500000 0.564987
O O2 0.375532 0.375532 0.560477
O O3 0.242793 0.392606 0.506327
O O4 0.284271 0.406074 0.747191
O O5 0.157551 0.500000 0.089765
O O6 0.224395 0.579242 0.258172
O O7 0.154896 0.646317 0.082746
O O8 0.257484 0.577699 0.002863
O O9 0.164466 0.500000 0.441190
O O10 0.118173 0.624518 0.398626
O O11 0.767192 0.232809 0.124024
O O12 0.739799 0.115480 0.250633
O O13 0.758658 0.115704 0.991010
O O14 0.887769 0.887769 0.907750
O O15 0.784117 0.911489 0.744771
O O16 0.819075 0.000000 0.936913
O O17 0.871445 0.128556 0.554274
O O18 0.743095 0.093610 0.503250
O O19 0.836389 0.000000 0.571875
O O20 0.000000 0.315266 0.344724
O O21 0.500000 0.650790 0.883623
O O22 0.372860 0.627141 0.939785
#
# Coordination Sequence:
#
# PCOD8306517 Si02
#       8
#     8   8   8   8   8   8   8   8
#     4   9  18  31  47  69  96 126 160 197 237 282
#     4   9  18  32  48  67  93 123 157 197 238 281
#     4   9  19  34  50  69  92 121 158 198 240 284
#     4  10  19  31  50  74  98 126 160 197 239 285
#     4   9  18  32  50  72  98 127 157 192 233 279
#     4   9  18  32  49  71  98 126 157 191 230 278
#     4  10  20  33  50  71  95 124 156 194 238 283
#     4   9  17  29  45  66  93 124 157 194 236 282
#
# _framework density 17.021284999999999
#
# number of rings (size 3 to 8) (size 9 to 14) (size 15 to 20)
#    0.000    2.750    0.000    1.125    0.000    4.750 
#    0.000    5.000    0.000    1.125    0.000    7.000 
#    0.000    5.000    0.000    0.000    0.000    0.000 
#
# Total GULP energy -793046.715268 kJ/mol
# GULP energy per Si atom -12391.354926 kJ/mol
# Density = 1.698254 g / cm^3
# Si number density = 17.021285 Si / 1000 Ang^3
#
#
#
# Elastic Constant Matrix: (Units=GPa)
#
#
# Indices 1 2 3 4 5 6 
#
# 1 96.1883 59.4550 52.5720 0.0000 0.0000 -0.0009
# 2 59.4550 96.1883 52.5720 0.0000 0.0000 0.0009
# 3 52.5720 52.5720 86.6605 0.0000 0.0000 0.0000
# 4 0.0000 0.0000 0.0000 24.6913 0.0000 0.0000
# 5 0.0000 0.0000 0.0000 0.0000 24.6913 0.0000
# 6 -0.0009 0.0009 0.0000 0.0000 0.0000 19.8707
#
#
#
# Elastic Compliance Matrix: (Units=1/GPa)
#
#
# Indices 1 2 3 4 5 6 
#
# 1 0.019055 -0.008168 -0.006604 0.000000 0.000000 0.000001
# 2 -0.008168 0.019055 -0.006604 0.000000 0.000000 -0.000001
# 3 -0.006604 -0.006604 0.019552 0.000000 0.000000 0.000000
# 4 0.000000 0.000000 0.000000 0.040500 0.000000 0.000000
# 5 0.000000 0.000000 0.000000 0.000000 0.040500 0.000000
# 6 0.000001 -0.000001 0.000000 0.000000 0.000000 0.050325
#
#
# Mechanical properties :
#
#
# Convention : Reuss Voigt Hill
#
# Bulk Modulus (GPa) = 67.07740 67.58169 67.32954
# Shear Modulus (GPa) = 21.12289 21.47985 21.30137
#
# Velocity S-wave (km/s) = 3.52656 3.55623 3.54143
# Velocity P-wave (km/s) = 7.48837 7.52681 7.50761
#
# Compressibility (1/GPa) = 0.01490815
#
# Stress axis : x y z
#
# Youngs Moduli (GPa) = 52.48027 52.48027 51.14568
#
# Poissons Ratio (x) = 0.42868 0.33777
# Poissons Ratio (y) = 0.42868 0.33777
# Poissons Ratio (z) = 0.34659 0.34659
#
# Static dielectric constant tensor:
#      x y z
#    x 3.248780 0.000000 0.000000 
#    y 0.000000 3.248780 0.000000 
#    z 0.000000 0.000000 3.402040 
# 
# 
# High freq. dielectric constant tensor:
#      x y z
#    x 1.648200 0.000000 0.000000 
#    y 0.000000 1.648200 0.000000 
#    z 0.000000 0.000000 1.671220 
# 
# From -- ./inp_files/1215.got.cif
#   From: 2010.03.12/outbox.cif.g09.slc.cpg/sg99_cif.got.tgz:1215.got - 2010.04.08 21:11:30.
