data_PCOD8306749
_publ_section_title
;
Structure prediction by ZEFSAII (Michael W. Deem and Ramdas Pophale) SiO2 
 PCOD8306749
Probable space group: P 42 C M
;
_chemical_formula_sum "Si O2"
_cell_formula_units_Z 64
_cell_length_a 12.343511
_cell_length_b 12.343511
_cell_length_c 23.243301
_cell_angle_alpha 90.000000
_cell_angle_beta 90.000000
_cell_angle_gamma 90.000000
_cell_volume 3541.401959
_symmetry_space_group_name_H-M "P 42 C M"
_symmetry_group_IT_number 101
_symmetry_cell_setting 'tetragonal'
loop_
_space_group_symop_operation_xyz
x,y,z
-y,x,1/2+z
-x,-y,z
y,-x,1/2+z
-x,y,1/2+z
x,-y,1/2+z
-y,-x,z
y,x,z
loop_
_atom_site_type_symbol
_atom_site_label
_atom_site_fract_x
_atom_site_fract_y
_atom_site_fract_z
Si Si1 0.825323 0.007640 0.675850
Si Si2 0.816140 0.633845 0.486045
Si Si3 0.756453 0.929787 0.791462
Si Si4 0.579958 0.239876 0.431730
Si Si5 0.675495 0.506728 0.316236
Si Si6 0.775023 0.602685 0.721532
Si Si7 0.861564 0.321538 0.112266
Si Si8 0.989826 0.375260 0.398997
O O1 0.913280 0.913280 0.675502
O O2 0.781888 0.016469 0.741272
O O3 0.732195 0.976722 0.629917
O O4 0.877845 0.122155 0.657534
O O5 0.729143 0.729143 0.480501
O O6 0.757920 0.517714 0.477706
O O7 0.869613 0.628120 0.549303
O O8 0.912099 0.655864 0.441122
O O9 0.864426 0.864426 0.811581
O O10 0.672054 0.844410 0.766338
O O11 0.705006 0.994900 0.844699
O O12 0.663063 0.336938 0.445637
O O13 0.523066 0.249176 0.369654
O O14 0.641730 0.124608 0.432411
O O15 0.581277 0.418724 0.311823
O O16 0.626068 0.626068 0.325333
O O17 0.745151 0.506909 0.256600
O O18 0.664416 0.664416 0.706914
O O19 0.836164 0.585098 0.660480
O O20 0.768521 0.231480 0.115516
O O21 0.000000 0.500000 0.379093
#
# Coordination Sequence:
#
# PCOD8306749 Si02
#       8
#     8   8   8   8   8   8   8   8
#     4   8  14  25  46  75  99 125 168 218 262 309
#     4  10  21  35  50  75 108 141 177 217 265 315
#     4   9  15  27  48  71  96 125 164 213 261 310
#     4  10  19  34  55  76 101 137 183 224 257 307
#     4   9  15  23  42  75 106 126 155 211 275 318
#     4   8  13  24  45  70  95 125 161 206 259 316
#     4   8  15  29  47  66  98 138 171 209 261 318
#     4  10  20  32  49  72 102 139 178 207 257 322
#
# _framework density 18.071939
#
# number of rings (size 3 to 8) (size 9 to 14) (size 15 to 20)
#    0.000    3.000    1.250    2.250    0.000    1.250 
#    0.000    1.875    0.000   13.875    0.000    0.000 
#    0.000    0.000    0.000    0.000    0.000    0.000 
#
# Total GULP energy -792966.561689 kJ/mol
# GULP energy per Si atom -12390.102526 kJ/mol
# Density = 1.803081 g / cm^3
# Si number density = 18.071939 Si / 1000 Ang^3
#
#
#
# Elastic Constant Matrix: (Units=GPa)
#
#
# Indices 1 2 3 4 5 6 
#
# 1 71.0011 34.9828 48.2927 0.0000 0.0000 0.0002
# 2 34.9828 71.0011 48.2927 0.0000 0.0000 -0.0002
# 3 48.2927 48.2927 129.7772 0.0000 0.0000 0.0000
# 4 0.0000 0.0000 0.0000 20.8298 0.0000 0.0000
# 5 0.0000 0.0000 0.0000 0.0000 20.8298 0.0000
# 6 0.0002 -0.0002 0.0000 0.0000 0.0000 20.7251
#
#
#
# Elastic Compliance Matrix: (Units=1/GPa)
#
#
# Indices 1 2 3 4 5 6 
#
# 1 0.021020 -0.006743 -0.005313 0.000000 0.000000 0.000000
# 2 -0.006743 0.021020 -0.005313 0.000000 0.000000 0.000000
# 3 -0.005313 -0.005313 0.011659 0.000000 0.000000 0.000000
# 4 0.000000 0.000000 0.000000 0.048008 0.000000 0.000000
# 5 0.000000 0.000000 0.000000 0.000000 0.048008 0.000000
# 6 0.000000 0.000000 0.000000 0.000000 0.000000 0.048251
#
#
# Mechanical properties :
#
#
# Convention : Reuss Voigt Hill
#
# Bulk Modulus (GPa) = 52.73571 59.43508 56.08539
# Shear Modulus (GPa) = 20.91825 21.82435 21.37130
#
# Velocity S-wave (km/s) = 3.40589 3.47888 3.44258
# Velocity P-wave (km/s) = 6.68664 7.00687 6.84863
#
# Compressibility (1/GPa) = 0.01896248
#
# Stress axis : x y z
#
# Youngs Moduli (GPa) = 47.57291 47.57291 85.76700
#
# Poissons Ratio (x) = 0.32080 0.45566
# Poissons Ratio (y) = 0.32080 0.45566
# Poissons Ratio (z) = 0.25274 0.25274
#
# Static dielectric constant tensor:
#      x y z
#    x 3.267410 0.000000 0.000000 
#    y 0.000000 3.267410 0.000000 
#    z 0.000000 0.000000 3.434390 
# 
# 
# High freq. dielectric constant tensor:
#      x y z
#    x 1.677140 0.000000 0.000000 
#    y 0.000000 1.677140 0.000000 
#    z 0.000000 0.000000 1.691580 
# 
# From -- ./inp_files/2792.got.cif
#   From: 2010.03.12/outbox.cif.g09.slc.cpg/sg101_2_cif.got.tgz:2792.got - 2010.04.14 01:38:52.
