data_PCOD8306473
_publ_section_title
;
Structure prediction by ZEFSAII (Michael W. Deem and Ramdas Pophale) SiO2 
 PCOD8306473
Probable space group: P 4 M M
;
_chemical_formula_sum "Si O2"
_cell_formula_units_Z 56
_cell_length_a 15.932495
_cell_length_b 15.932495
_cell_length_c 13.858596
_cell_angle_alpha 90.000000
_cell_angle_beta 90.000000
_cell_angle_gamma 90.000000
_cell_volume 3517.926944
_symmetry_space_group_name_H-M "P 4 M M"
_symmetry_group_IT_number 99
_symmetry_cell_setting 'tetragonal'
loop_
_space_group_symop_operation_xyz
x,y,z
-y,x,z
-x,-y,z
y,-x,z
-x,y,z
x,-y,z
-y,-x,z
y,x,z
loop_
_atom_site_type_symbol
_atom_site_label
_atom_site_fract_x
_atom_site_fract_y
_atom_site_fract_z
Si Si1 0.298755 0.842024 0.518940
Si Si2 0.092144 0.776160 0.699521
Si Si3 0.760803 0.097890 0.113926
Si Si4 0.792950 0.660594 0.822499
Si Si5 0.729136 0.407443 0.627679
Si Si6 0.769872 0.095177 0.334060
Si Si7 0.903356 0.595357 0.989393
O O1 0.232062 0.767939 0.529555
O O2 0.273380 0.911931 0.597683
O O3 0.387916 0.803188 0.550498
O O4 0.302785 0.879196 0.410570
O O5 0.133511 0.866490 0.683454
O O6 0.140586 0.726193 0.781696
O O7 0.000000 0.790738 0.739871
O O8 0.837025 0.162976 0.083522
O O9 0.738236 0.111900 0.226047
O O10 0.788959 0.000000 0.095595
O O11 0.672187 0.117845 0.062178
O O12 0.713453 0.713453 0.864990
O O13 0.762356 0.600877 0.736673
O O14 0.838095 0.603528 0.901928
O O15 0.697132 0.500000 0.608910
O O16 0.650462 0.349539 0.608257
O O17 0.853147 0.146854 0.358174
O O18 0.796063 0.000000 0.349694
O O19 0.890861 0.500000 0.032957
O O20 0.000000 0.604334 0.954567
#
# Coordination Sequence:
#
# PCOD8306473 Si02
#       7
#     8   8   8   8   8   8   8
#     4   8  15  27  41  57  80 111 141 167 199 242
#     4   9  16  25  38  57  81 110 142 174 208 246
#     4   9  18  31  47  68  93 120 151 187 226 271
#     4   9  17  29  45  62  82 110 141 175 216 263
#     4   9  17  29  45  65  86 107 134 169 210 259
#     4   9  16  27  44  64  87 116 147 180 217 252
#     4  10  19  30  45  64  86 114 148 187 227 264
#
# _framework density 15.918464999999999
#
# number of rings (size 3 to 8) (size 9 to 14) (size 15 to 20)
#    0.000    3.000    0.000    3.429    0.000    0.571 
#    0.000    2.143    0.000   12.000    0.000    2.000 
#    0.000    2.571    0.000    0.000    0.000    2.857 
#
# Total GULP energy -693746.588437 kJ/mol
# GULP energy per Si atom -12388.331936 kJ/mol
# Density = 1.588223 g / cm^3
# Si number density = 15.918465 Si / 1000 Ang^3
#
#
#
# Elastic Constant Matrix: (Units=GPa)
#
#
# Indices 1 2 3 4 5 6 
#
# 1 88.7577 37.7919 31.6155 0.0000 0.0000 0.0002
# 2 37.7919 88.7577 31.6155 0.0000 0.0000 -0.0002
# 3 31.6155 31.6155 62.7691 0.0000 0.0000 0.0000
# 4 0.0000 0.0000 0.0000 15.8268 0.0000 0.0000
# 5 0.0000 0.0000 0.0000 0.0000 15.8268 0.0000
# 6 0.0002 -0.0002 0.0000 0.0000 0.0000 12.3618
#
#
#
# Elastic Compliance Matrix: (Units=1/GPa)
#
#
# Indices 1 2 3 4 5 6 
#
# 1 0.015090 -0.004531 -0.005319 0.000000 0.000000 0.000000
# 2 -0.004531 0.015090 -0.005319 0.000000 0.000000 0.000000
# 3 -0.005319 -0.005319 0.021289 0.000000 0.000000 0.000000
# 4 0.000000 0.000000 0.000000 0.063184 0.000000 0.000000
# 5 0.000000 0.000000 0.000000 0.000000 0.063184 0.000000
# 6 0.000000 0.000000 0.000000 0.000000 0.000000 0.080894
#
#
# Mechanical properties :
#
#
# Convention : Reuss Voigt Hill
#
# Bulk Modulus (GPa) = 47.31774 49.14784 48.23279
# Shear Modulus (GPa) = 16.88547 18.08717 17.48632
#
# Velocity S-wave (km/s) = 3.26045 3.37447 3.31795
# Velocity P-wave (km/s) = 6.63051 6.79150 6.71149
#
# Compressibility (1/GPa) = 0.02113372
#
# Stress axis : x y z
#
# Youngs Moduli (GPa) = 66.26792 66.26792 46.97230
#
# Poissons Ratio (x) = 0.30024 0.24983
# Poissons Ratio (y) = 0.30024 0.24983
# Poissons Ratio (z) = 0.35245 0.35245
#
# Static dielectric constant tensor:
#      x y z
#    x 2.970810 0.000000 0.000000 
#    y 0.000000 2.970810 0.000000 
#    z 0.000000 0.000000 3.040320 
# 
# 
# High freq. dielectric constant tensor:
#      x y z
#    x 1.599980 0.000000 0.000000 
#    y 0.000000 1.599980 0.000000 
#    z 0.000000 0.000000 1.600620 
# 
# From -- ./inp_files/1825.got.cif
#   From: 2010.03.12/outbox.cif.g09.slc.cpg/sg99_cif.got.tgz:1825.got - 2010.04.08 21:11:30.
