data_PCOD8306947
_publ_section_title
;
Structure prediction by ZEFSAII (Michael W. Deem and Ramdas Pophale) SiO2 
 PCOD8306947
Probable space group: P 42 N M
;
_chemical_formula_sum "Si O2"
_cell_formula_units_Z 48
_cell_length_a 22.055346
_cell_length_b 22.055346
_cell_length_c 5.041043
_cell_angle_alpha 90.000000
_cell_angle_beta 90.000000
_cell_angle_gamma 90.000000
_cell_volume 2452.156323
_symmetry_space_group_name_H-M "P 42 N M"
_symmetry_group_IT_number 102
_symmetry_cell_setting 'tetragonal'
loop_
_space_group_symop_operation_xyz
x,y,z
1/2-y,1/2+x,1/2+z
-x,-y,z
1/2+y,1/2-x,1/2+z
1/2-x,1/2+y,1/2+z
1/2+x,1/2-y,1/2+z
-y,-x,z
y,x,z
loop_
_atom_site_type_symbol
_atom_site_label
_atom_site_fract_x
_atom_site_fract_y
_atom_site_fract_z
Si Si1 0.372183 0.372183 0.464931
Si Si2 0.815418 0.815418 0.462956
Si Si3 0.999986 0.181366 0.882327
Si Si4 0.685151 0.130324 0.394936
Si Si5 0.627784 0.372217 0.464564
Si Si6 0.130301 0.314825 0.394892
Si Si7 0.815385 0.184616 0.463321
Si Si8 0.237663 0.499988 0.884579
O O1 0.360986 0.442544 0.422309
O O2 0.355541 0.355541 0.765300
O O3 0.331848 0.331848 0.265532
O O4 0.831882 0.831882 0.765163
O O5 0.828965 0.745333 0.412013
O O6 0.855575 0.855575 0.264939
O O7 0.057422 0.138986 0.921924
O O8 0.999946 0.205854 0.583762
O O9 0.000027 0.237721 0.084752
O O10 0.637893 0.153667 0.611958
O O11 0.745300 0.171066 0.412393
O O12 0.697753 0.059429 0.437081
O O13 0.653691 0.137951 0.111940
O O14 0.059414 0.302222 0.437301
#
# Coordination Sequence:
#
# PCOD8306947 Si02
#       8
#     4   4   8   8   4   8   4   8
#     4  12  22  38  64  90 129 174 221 254 298 368
#     4  12  22  41  62  99 129 162 203 273 318 371
#     4  12  22  41  62  90 128 179 218 250 306 364
#     4  12  24  41  66  97 127 164 207 260 323 383
#     4  12  22  38  64  90 129 174 221 254 298 368
#     4  12  24  41  66  97 127 164 207 260 323 383
#     4  12  22  41  62  99 129 162 203 273 318 371
#     4  12  24  44  66  88 132 168 206 260 320 388
#
# _framework density 19.574607
#
# number of rings (size 3 to 8) (size 9 to 14) (size 15 to 20)
#    0.000    0.000    6.667    5.000    0.000    0.333 
#    0.000    0.000    0.000    7.000    0.000    0.000 
#    0.000    0.000    0.000    0.000    0.000    0.000 
#
# Total GULP energy -595619.613191 kJ/mol
# GULP energy per Si atom -12408.741941 kJ/mol
# Density = 1.953005 g / cm^3
# Si number density = 19.574607 Si / 1000 Ang^3
#
#
#
# Elastic Constant Matrix: (Units=GPa)
#
#
# Indices 1 2 3 4 5 6 
#
# 1 96.7680 59.9905 13.7199 0.0000 0.0000 0.0007
# 2 59.9905 96.7680 13.7199 0.0000 0.0000 -0.0007
# 3 13.7199 13.7199 76.5261 0.0000 0.0000 0.0000
# 4 0.0000 0.0000 0.0000 -181.7317 0.0000 0.0000
# 5 0.0000 0.0000 0.0000 0.0000 -181.7317 0.0000
# 6 0.0007 -0.0007 0.0000 0.0000 0.0000 28.6408
#
#
#
# Elastic Compliance Matrix: (Units=1/GPa)
#
#
# Indices 1 2 3 4 5 6 
#
# 1 0.016888 -0.010302 -0.001181 0.000000 0.000000 -0.000001
# 2 -0.010302 0.016888 -0.001181 0.000000 0.000000 0.000001
# 3 -0.001181 -0.001181 0.013491 0.000000 0.000000 0.000000
# 4 0.000000 0.000000 0.000000 -0.005503 0.000000 0.000000
# 5 0.000000 0.000000 0.000000 0.000000 -0.005503 0.000000
# 6 -0.000001 0.000001 0.000000 0.000000 0.000000 0.034915
#
#
# Mechanical properties :
#
#
# Convention : Reuss Voigt Hill
#
# Bulk Modulus (GPa) = 45.57957 49.43587 47.50772
# Shear Modulus (GPa) = 48.16115 -54.78906 -3.31396
#
# Velocity S-wave (km/s) = 4.96561 -5.29628 -1.30256
# Velocity P-wave (km/s) = 7.49747 3.47720 4.69687
#
# Compressibility (1/GPa) = 0.02193966
#
# Stress axis : x y z
#
# Youngs Moduli (GPa) = 59.21276 59.21276 74.12454
#
# Poissons Ratio (x) = 0.61003 0.08752
# Poissons Ratio (y) = 0.61003 0.08752
# Poissons Ratio (z) = 0.06992 0.06992
#
# Static dielectric constant tensor:
#      x y z
#    x 3.609030 0.000000 0.000000 
#    y 0.000000 3.609030 0.000000 
#    z 0.000000 0.000000 3.926210 
# 
# 
# High freq. dielectric constant tensor:
#      x y z
#    x 1.756240 0.000000 0.000000 
#    y 0.000000 1.756240 0.000000 
#    z 0.000000 0.000000 1.787340 
# 
# From -- ./inp_files/363.got.cif
#   From: 2010.03.12/outbox.cif.g09.slc.cpg/sg102_1_cif.got.tgz:363.got - 2010.04.14 01:40:42.
