data_PCOD8306048
_publ_section_title
;
Structure prediction by ZEFSAII (Michael W. Deem and Ramdas Pophale) SiO2 
 PCOD8306048
Probable space group: I 4 2 2 
;
_chemical_formula_sum "Si O2"
_cell_formula_units_Z 112
_cell_length_a 15.198766
_cell_length_b 15.198766
_cell_length_c 26.691118
_cell_angle_alpha 90.000000
_cell_angle_beta 90.000000
_cell_angle_gamma 90.000000
_cell_volume 6165.714663
_symmetry_space_group_name_H-M "I 4 2 2 "
_symmetry_group_IT_number 97
_symmetry_cell_setting 'tetragonal'
loop_
_space_group_symop_operation_xyz
x,y,z
-y,x,z
-x,-y,z
y,-x,z
x,-y,-z
-x,y,-z
y,x,-z
-y,-x,-z
1/2+x,1/2+y,1/2+z
1/2-y,1/2+x,1/2+z
1/2-x,1/2-y,1/2+z
1/2+y,1/2-x,1/2+z
1/2+x,1/2-y,1/2-z
1/2-x,1/2+y,1/2-z
1/2+y,1/2+x,1/2-z
1/2-y,1/2-x,1/2-z
loop_
_atom_site_type_symbol
_atom_site_label
_atom_site_fract_x
_atom_site_fract_y
_atom_site_fract_z
Si Si1 0.276680 0.306300 0.296516
Si Si2 0.992448 0.596487 0.623689
Si Si3 0.225444 0.261987 0.553294
Si Si4 0.382106 0.583236 0.229425
Si Si5 0.245458 0.370034 0.850084
Si Si6 0.192192 0.387749 0.388189
Si Si7 0.050350 0.657545 0.051428
O O1 0.210580 0.289421 0.250000
O O2 0.372735 0.333278 0.276413
O O3 0.295595 0.218587 0.327714
O O4 0.232342 0.379872 0.332155
O O5 0.944329 0.670475 0.657557
O O6 0.937076 0.581715 0.572602
O O7 0.000000 0.500000 0.650994
O O8 0.088310 0.635080 0.611561
O O9 0.212760 0.212760 0.500000
O O10 0.147902 0.232029 0.591387
O O11 0.321051 0.240388 0.574797
O O12 0.221339 0.366858 0.543903
O O13 0.378281 0.479258 0.232263
O O14 0.336435 0.607273 0.176921
O O15 0.205591 0.486598 0.408335
O O16 0.000000 0.640197 0.000000
#
# Coordination Sequence:
#
# PCOD8306048 Si02
#       7
#    16  16  16  16  16  16  16
#     4   9  20  37  57  81 108 145 189 238 289 336
#     4   9  20  33  54  83 115 149 187 225 283 338
#     4  10  19  34  54  83 111 150 192 221 280 334
#     4  10  22  38  61  82 105 147 194 238 285 343
#     4   9  20  36  57  81 118 148 184 238 284 341
#     4  10  20  34  59  81 115 152 186 228 291 345
#     4  10  19  35  54  83 120 153 187 236 274 341
#
# _framework density 18.164966
#
# number of rings (size 3 to 8) (size 9 to 14) (size 15 to 20)
#    0.000    2.429    1.429    0.000    6.000    7.143 
#    0.000    0.000    0.000    1.286    0.000    1.000 
#    0.000    0.000    0.000    0.000    0.000    0.000 
#
# Total GULP energy -694119.400545 kJ/mol
# GULP energy per Si atom -12394.989295 kJ/mol
# Density = 1.812362 g / cm^3
# Si number density = 18.164966 Si / 1000 Ang^3
#
#
#
# Elastic Constant Matrix: (Units=GPa)
#
#
# Indices 1 2 3 4 5 6 
#
# 1 84.8101 62.4647 40.2440 0.0000 0.0000 0.0000
# 2 62.4647 84.8092 40.2439 0.0000 0.0000 0.0000
# 3 40.2440 40.2439 110.2735 0.0000 0.0000 0.0000
# 4 0.0000 0.0000 0.0000 24.5730 0.0000 0.0000
# 5 0.0000 0.0000 0.0000 0.0000 24.5729 0.0000
# 6 0.0000 0.0000 0.0000 0.0000 0.0000 29.7605
#
#
#
# Elastic Compliance Matrix: (Units=1/GPa)
#
#
# Indices 1 2 3 4 5 6 
#
# 1 0.026617 -0.018136 -0.003095 0.000000 0.000000 0.000000
# 2 -0.018136 0.026617 -0.003095 0.000000 0.000000 0.000000
# 3 -0.003095 -0.003095 0.011328 0.000000 0.000000 0.000000
# 4 0.000000 0.000000 0.000000 0.040695 0.000000 0.000000
# 5 0.000000 0.000000 0.000000 0.000000 0.040695 0.000000
# 6 0.000000 0.000000 0.000000 0.000000 0.000000 0.033602
#
#
# Mechanical properties :
#
#
# Convention : Reuss Voigt Hill
#
# Bulk Modulus (GPa) = 62.85513 62.86643 62.86078
# Shear Modulus (GPa) = 21.41236 24.91062 23.16149
#
# Velocity S-wave (km/s) = 3.43705 3.70720 3.57468
# Velocity P-wave (km/s) = 7.10131 7.28067 7.19155
#
# Compressibility (1/GPa) = 0.01590960
#
# Stress axis : x y z
#
# Youngs Moduli (GPa) = 37.56976 37.56936 88.27949
#
# Poissons Ratio (x) = 0.68134 0.27326
# Poissons Ratio (y) = 0.68135 0.27326
# Poissons Ratio (z) = 0.11629 0.11629
#
# Static dielectric constant tensor:
#      x y z
#    x 3.408790 0.000000 0.000000 
#    y 0.000000 3.408790 0.000000 
#    z 0.000000 0.000000 3.505280 
# 
# 
# High freq. dielectric constant tensor:
#      x y z
#    x 1.699270 0.000000 0.000000 
#    y 0.000000 1.699270 0.000000 
#    z 0.000000 0.000000 1.701430 
# 
# From -- ./inp_files/7704.got.cif
#   From: 2010.03.12/outbox.cif.g09.slc.cpg/sg97_4_cif.got.tgz:7704.got - 2010.04.08 20:59:42.
