data_PCOD8306751
_publ_section_title
;
Structure prediction by ZEFSAII (Michael W. Deem and Ramdas Pophale) SiO2 
 PCOD8306751
Probable space group: P 42 C M
;
_chemical_formula_sum "Si O2"
_cell_formula_units_Z 64
_cell_length_a 12.032524
_cell_length_b 12.032524
_cell_length_c 23.646460
_cell_angle_alpha 90.000000
_cell_angle_beta 90.000000
_cell_angle_gamma 90.000000
_cell_volume 3423.573113
_symmetry_space_group_name_H-M "P 42 C M"
_symmetry_group_IT_number 101
_symmetry_cell_setting 'tetragonal'
loop_
_space_group_symop_operation_xyz
x,y,z
-y,x,1/2+z
-x,-y,z
y,-x,1/2+z
-x,y,1/2+z
x,-y,1/2+z
-y,-x,z
y,x,z
loop_
_atom_site_type_symbol
_atom_site_label
_atom_site_fract_x
_atom_site_fract_y
_atom_site_fract_z
Si Si1 0.174299 0.514279 0.619790
Si Si2 0.111983 0.290657 0.677491
Si Si3 0.858435 0.674413 0.914988
Si Si4 0.177054 0.359645 0.791720
Si Si5 0.522961 0.127610 0.999755
Si Si6 0.251734 0.067744 0.100256
Si Si7 0.941143 0.242917 0.981589
Si Si8 0.677778 0.505159 0.222206
O O1 0.109883 0.408582 0.645505
O O2 0.207190 0.486439 0.554779
O O3 0.099098 0.623109 0.615516
O O4 0.278689 0.539261 0.660069
O O5 0.230857 0.230857 0.667943
O O6 0.093157 0.308274 0.744811
O O7 0.014251 0.214588 0.651330
O O8 0.748859 0.748859 0.918396
O O9 0.884175 0.627367 0.851826
O O10 0.835803 0.567052 0.953583
O O11 0.963734 0.748602 0.933830
O O12 0.280078 0.280078 0.803269
O O13 0.223571 0.476727 0.766494
O O14 0.648449 0.137565 0.976068
O O15 0.500000 0.000000 0.017903
O O16 0.175691 0.175691 0.098143
O O17 0.240891 0.001434 0.041986
O O18 0.868016 0.131985 0.972501
O O19 0.603146 0.396855 0.213305
O O20 0.607617 0.607617 0.247343
#
# Coordination Sequence:
#
# PCOD8306751 Si02
#       8
#     8   8   8   8   8   8   8   8
#     4  11  18  33  54  80 113 145 180 225 277 336
#     4  10  20  36  59  83 110 148 191 229 272 334
#     4  10  20  37  61  86 110 144 191 236 278 331
#     4   8  17  35  58  81 108 148 191 230 278 335
#     4  10  19  35  55  78 109 147 186 223 275 337
#     4  12  23  34  52  83 118 149 182 231 288 339
#     4  11  23  38  56  80 112 151 191 233 279 334
#     4   9  18  32  54  83 113 148 190 234 279 333
#
# _framework density 18.693919000000001
#
# number of rings (size 3 to 8) (size 9 to 14) (size 15 to 20)
#    0.000    1.875    3.750    2.625    0.000    2.750 
#    0.000    8.750    0.000    3.375    0.000    0.000 
#    0.000    0.000    0.000    0.000    0.000    0.000 
#
# Total GULP energy -793022.330422 kJ/mol
# GULP energy per Si atom -12390.973913 kJ/mol
# Density = 1.865137 g / cm^3
# Si number density = 18.693919 Si / 1000 Ang^3
#
#
#
# Elastic Constant Matrix: (Units=GPa)
#
#
# Indices 1 2 3 4 5 6 
#
# 1 76.3425 29.5132 47.7709 0.0000 0.0000 0.0001
# 2 29.5132 76.3425 47.7709 0.0000 0.0000 -0.0001
# 3 47.7709 47.7709 164.5885 0.0000 0.0000 0.0000
# 4 0.0000 0.0000 0.0000 24.0815 0.0000 0.0000
# 5 0.0000 0.0000 0.0000 0.0000 24.0815 0.0000
# 6 0.0001 -0.0001 0.0000 0.0000 0.0000 23.9904
#
#
#
# Elastic Compliance Matrix: (Units=1/GPa)
#
#
# Indices 1 2 3 4 5 6 
#
# 1 0.017077 -0.004277 -0.003715 0.000000 0.000000 0.000000
# 2 -0.004277 0.017077 -0.003715 0.000000 0.000000 0.000000
# 3 -0.003715 -0.003715 0.008232 0.000000 0.000000 0.000000
# 4 0.000000 0.000000 0.000000 0.041526 0.000000 0.000000
# 5 0.000000 0.000000 0.000000 0.000000 0.041526 0.000000
# 6 0.000000 0.000000 0.000000 0.000000 0.000000 0.041683
#
#
# Mechanical properties :
#
#
# Convention : Reuss Voigt Hill
#
# Bulk Modulus (GPa) = 52.70981 63.04259 57.87620
# Shear Modulus (GPa) = 25.39879 27.24524 26.32202
#
# Velocity S-wave (km/s) = 3.69001 3.82178 3.75647
# Velocity P-wave (km/s) = 6.81266 7.29873 7.05988
#
# Compressibility (1/GPa) = 0.01897180
#
# Stress axis : x y z
#
# Youngs Moduli (GPa) = 58.55811 58.55811 121.47216
#
# Poissons Ratio (x) = 0.25046 0.45128
# Poissons Ratio (y) = 0.25046 0.45128
# Poissons Ratio (z) = 0.21755 0.21755
#
# Static dielectric constant tensor:
#      x y z
#    x 3.425110 0.000000 0.000000 
#    y 0.000000 3.425110 0.000000 
#    z 0.000000 0.000000 3.653850 
# 
# 
# High freq. dielectric constant tensor:
#      x y z
#    x 1.712960 0.000000 0.000000 
#    y 0.000000 1.712960 0.000000 
#    z 0.000000 0.000000 1.723660 
# 
# From -- ./inp_files/2763.got.cif
#   From: 2010.03.12/outbox.cif.g09.slc.cpg/sg101_2_cif.got.tgz:2763.got - 2010.04.14 01:38:52.
