data_PCOD8306250
_publ_section_title
;
Structure prediction by ZEFSAII (Michael W. Deem and Ramdas Pophale) SiO2 
 PCOD8306250
Probable space group: I 41 2 2
;
_chemical_formula_sum "Si O2"
_cell_formula_units_Z 104
_cell_length_a 15.667310
_cell_length_b 15.667310
_cell_length_c 23.927621
_cell_angle_alpha 90.000000
_cell_angle_beta 90.000000
_cell_angle_gamma 90.000000
_cell_volume 5873.383981
_symmetry_space_group_name_H-M "I 41 2 2"
_symmetry_group_IT_number 98
_symmetry_cell_setting 'tetragonal'
loop_
_space_group_symop_operation_xyz
x,y,z
-y,1/2+x,1/4+z
-x,-y,z
y,1/2-x,1/4+z
x,1/2-y,1/4-z
-x,1/2+y,1/4-z
y,x,-z
-y,-x,-z
1/2+x,1/2+y,1/2+z
1/2-y,x,3/4+z
1/2-x,1/2-y,1/2+z
1/2+y,-x,3/4+z
1/2+x,-y,3/4-z
1/2-x,y,3/4-z
1/2+y,1/2+x,1/2-z
1/2-y,1/2-x,1/2-z
loop_
_atom_site_type_symbol
_atom_site_label
_atom_site_fract_x
_atom_site_fract_y
_atom_site_fract_z
Si Si1 0.381545 0.662237 0.836815
Si Si2 0.529694 0.681342 0.171044
Si Si3 0.134430 0.233791 0.775071
Si Si4 0.793505 0.250000 0.125000
Si Si5 0.434409 0.320557 0.863412
Si Si6 0.272678 0.595323 0.480489
Si Si7 0.233549 0.095256 0.997999
O O1 0.338960 0.570162 0.830053
O O2 0.329333 0.730338 0.872352
O O3 0.467340 0.656500 0.872640
O O4 0.396072 0.697353 0.774999
O O5 0.551862 0.750000 0.125000
O O6 0.556318 0.713594 0.232971
O O7 0.587247 0.603234 0.151092
O O8 0.193640 0.306361 0.750000
O O9 0.100704 0.269956 0.833284
O O10 0.191903 0.148420 0.784026
O O11 0.854755 0.237782 0.177374
O O12 0.420002 0.257385 0.812129
O O13 0.362517 0.637484 0.500000
O O14 0.284307 0.494889 0.467057
O O15 0.145094 0.145094 0.000000
#
# Coordination Sequence:
#
# PCOD8306250 Si02
#       7
#    16  16  16   8  16  16  16
#     4  10  21  37  56  78 108 151 189 225 288 333
#     4  11  20  35  57  81 113 149 185 229 284 336
#     4  10  20  34  57  86 115 146 186 233 281 345
#     4  10  20  36  58  76 108 148 188 236 270 336
#     4  10  21  37  55  82 117 145 182 240 281 331
#     4   9  20  37  54  80 110 142 187 233 279 331
#     4   9  20  35  58  83 109 149 184 227 290 339
#
# _framework density 17.706999
#
# number of rings (size 3 to 8) (size 9 to 14) (size 15 to 20)
#    0.000    2.154    2.308    0.462    2.154    1.538 
#    0.000    0.769    0.000    1.846    0.000    0.000 
#    0.000    0.000    0.000    0.000    0.000    0.000 
#
# Total GULP energy -644546.503912 kJ/mol
# GULP energy per Si atom -12395.125075 kJ/mol
# Density = 1.766670 g / cm^3
# Si number density = 17.706999 Si / 1000 Ang^3
#
#
#
# Elastic Constant Matrix: (Units=GPa)
#
#
# Indices 1 2 3 4 5 6 
#
# 1 113.8806 37.4303 40.8874 0.0000 0.0000 0.0000
# 2 37.4303 113.8794 40.8867 0.0000 0.0000 0.0000
# 3 40.8874 40.8867 78.4386 0.0000 0.0000 0.0000
# 4 0.0000 0.0000 0.0000 21.1845 0.0000 0.0000
# 5 0.0000 0.0000 0.0000 0.0000 21.1858 0.0000
# 6 0.0000 0.0000 0.0000 0.0000 0.0000 40.4497
#
#
#
# Elastic Compliance Matrix: (Units=1/GPa)
#
#
# Indices 1 2 3 4 5 6 
#
# 1 0.011141 -0.001940 -0.004796 0.000000 0.000000 0.000000
# 2 -0.001940 0.011141 -0.004796 0.000000 0.000000 0.000000
# 3 -0.004796 -0.004796 0.017749 0.000000 0.000000 0.000000
# 4 0.000000 0.000000 0.000000 0.047204 0.000000 0.000000
# 5 0.000000 0.000000 0.000000 0.000000 0.047202 0.000000
# 6 0.000000 0.000000 0.000000 0.000000 0.000000 0.024722
#
#
# Mechanical properties :
#
#
# Convention : Reuss Voigt Hill
#
# Bulk Modulus (GPa) = 58.94017 60.51193 59.72605
# Shear Modulus (GPa) = 26.61305 29.03026 27.82166
#
# Velocity S-wave (km/s) = 3.88102 4.05344 3.96817
# Velocity P-wave (km/s) = 7.31038 7.49369 7.40260
#
# Compressibility (1/GPa) = 0.01696636
#
# Stress axis : x y z
#
# Youngs Moduli (GPa) = 89.76102 89.76058 56.34160
#
# Poissons Ratio (x) = 0.17412 0.27022
# Poissons Ratio (y) = 0.17412 0.27022
# Poissons Ratio (z) = 0.43051 0.43050
#
# Static dielectric constant tensor:
#      x y z
#    x 3.396780 0.000000 0.000000 
#    y 0.000000 3.396760 0.000000 
#    z 0.000000 0.000000 3.343660 
# 
# 
# High freq. dielectric constant tensor:
#      x y z
#    x 1.693130 0.000000 0.000000 
#    y 0.000000 1.693130 0.000000 
#    z 0.000000 0.000000 1.677640 
# 
# From -- ./inp_files/10097.got.cif
#   From: 2010.03.12/outbox.cif.g09.slc.cpg/sg98_6_cif.got.tgz:10097.got - 2010.04.08 21:04:41.
