data_PCOD8306895
_publ_section_title
;
Structure prediction by ZEFSAII (Michael W. Deem and Ramdas Pophale) SiO2 
 PCOD8306895
Probable space group: P 42 N M
;
_chemical_formula_sum "Si O2"
_cell_formula_units_Z 48
_cell_length_a 12.722687
_cell_length_b 12.722687
_cell_length_c 16.159385
_cell_angle_alpha 90.000000
_cell_angle_beta 90.000000
_cell_angle_gamma 90.000000
_cell_volume 2615.667366
_symmetry_space_group_name_H-M "P 42 N M"
_symmetry_group_IT_number 102
_symmetry_cell_setting 'tetragonal'
loop_
_space_group_symop_operation_xyz
x,y,z
1/2-y,1/2+x,1/2+z
-x,-y,z
1/2+y,1/2-x,1/2+z
1/2-x,1/2+y,1/2+z
1/2+x,1/2-y,1/2+z
-y,-x,z
y,x,z
loop_
_atom_site_type_symbol
_atom_site_label
_atom_site_fract_x
_atom_site_fract_y
_atom_site_fract_z
Si Si1 0.874925 0.287379 0.393220
Si Si2 0.903530 0.269477 0.652219
Si Si3 0.101044 0.264543 0.045463
Si Si4 0.718179 0.112006 0.960958
Si Si5 0.877718 0.493867 0.304214
Si Si6 0.554417 0.276327 0.002640
O O1 0.815790 0.184211 0.361995
O O2 0.820504 0.337527 0.472281
O O3 0.864569 0.370362 0.319804
O O4 0.992139 0.250668 0.417882
O O5 0.821970 0.178031 0.677879
O O6 0.839019 0.374032 0.624312
O O7 0.974591 0.302780 0.729102
O O8 0.978249 0.222685 0.581260
O O9 0.148317 0.148317 0.060045
O O10 0.978683 0.250726 0.025941
O O11 0.822483 0.177518 0.933447
O O12 0.656798 0.064477 0.882454
O O13 0.641317 0.186213 0.013082
O O14 0.000000 0.500000 0.283183
O O15 0.609928 0.390073 0.994216
#
# Coordination Sequence:
#
# PCOD8306895 Si02
#       6
#     8   8   8   8   8   8
#     4   9  18  34  54  79 107 140 183 225 268 330
#     4  10  22  36  55  82 111 143 183 230 284 340
#     4   8  17  33  54  79 109 143 181 226 274 327
#     4  10  20  34  55  83 112 142 188 232 267 326
#     4  11  21  35  56  80 110 150 179 223 279 333
#     4  10  20  35  56  82 111 145 187 234 278 327
#
# _framework density 18.350957000000001
#
# number of rings (size 3 to 8) (size 9 to 14) (size 15 to 20)
#    0.000    2.333    1.667    2.000    2.333    2.333 
#    0.000    0.000    0.000    3.000    0.000    0.000 
#    0.000    0.000    0.000    0.000    0.000    0.000 
#
# Total GULP energy -594872.529132 kJ/mol
# GULP energy per Si atom -12393.177690 kJ/mol
# Density = 1.830919 g / cm^3
# Si number density = 18.350957 Si / 1000 Ang^3
#
#
#
# Elastic Constant Matrix: (Units=GPa)
#
#
# Indices 1 2 3 4 5 6 
#
# 1 115.7412 63.6034 38.7368 0.0000 0.0000 0.0001
# 2 63.6034 115.7412 38.7368 0.0000 0.0000 -0.0001
# 3 38.7368 38.7368 74.2379 0.0000 0.0000 0.0000
# 4 0.0000 0.0000 0.0000 21.0775 0.0000 0.0000
# 5 0.0000 0.0000 0.0000 0.0000 21.0775 0.0000
# 6 0.0001 -0.0001 0.0000 0.0000 0.0000 30.5818
#
#
#
# Elastic Compliance Matrix: (Units=1/GPa)
#
#
# Indices 1 2 3 4 5 6 
#
# 1 0.013189 -0.005991 -0.003756 0.000000 0.000000 0.000000
# 2 -0.005991 0.013189 -0.003756 0.000000 0.000000 0.000000
# 3 -0.003756 -0.003756 0.017390 0.000000 0.000000 0.000000
# 4 0.000000 0.000000 0.000000 0.047444 0.000000 0.000000
# 5 0.000000 0.000000 0.000000 0.000000 0.047444 0.000000
# 6 0.000000 0.000000 0.000000 0.000000 0.000000 0.032699
#
#
# Mechanical properties :
#
#
# Convention : Reuss Voigt Hill
#
# Bulk Modulus (GPa) = 59.65694 65.31936 62.48815
# Shear Modulus (GPa) = 24.51599 25.52361 25.01980
#
# Velocity S-wave (km/s) = 3.65903 3.73347 3.69644
# Velocity P-wave (km/s) = 7.10147 7.36593 7.23490
#
# Compressibility (1/GPa) = 0.01676251
#
# Stress axis : x y z
#
# Youngs Moduli (GPa) = 75.81973 75.81973 57.50435
#
# Poissons Ratio (x) = 0.45422 0.21599
# Poissons Ratio (y) = 0.45422 0.21599
# Poissons Ratio (z) = 0.28478 0.28478
#
# Static dielectric constant tensor:
#      x y z
#    x 3.634100 0.000000 0.000000 
#    y 0.000000 3.634100 0.000000 
#    z 0.000000 0.000000 3.121060 
# 
# 
# High freq. dielectric constant tensor:
#      x y z
#    x 1.717020 0.000000 0.000000 
#    y 0.000000 1.717020 0.000000 
#    z 0.000000 0.000000 1.680400 
# 
# From -- ./inp_files/2706.got.cif
#   From: 2010.03.12/outbox.cif.g09.slc.cpg/sg102_2_cif.got.tgz:2706.got - 2010.04.14 01:40:42.
