data_PCOD8306658
_publ_section_title
;
Structure prediction by ZEFSAII (Michael W. Deem and Ramdas Pophale) SiO2 
 PCOD8306658
Probable space group: P 4 B M
;
_chemical_formula_sum "Si O2"
_cell_formula_units_Z 32
_cell_length_a 14.459183
_cell_length_b 14.459183
_cell_length_c 7.738760
_cell_angle_alpha 90.000000
_cell_angle_beta 90.000000
_cell_angle_gamma 90.000000
_cell_volume 1617.926867
_symmetry_space_group_name_H-M "P 4 B M"
_symmetry_group_IT_number 100
_symmetry_cell_setting 'tetragonal'
loop_
_space_group_symop_operation_xyz
x,y,z
-y,x,z
-x,-y,z
y,-x,z
1/2-x,1/2+y,z
1/2+x,1/2-y,z
1/2-y,1/2-x,z
1/2+y,1/2+x,z
loop_
_atom_site_type_symbol
_atom_site_label
_atom_site_fract_x
_atom_site_fract_y
_atom_site_fract_z
Si Si1 0.922500 0.422500 0.311741
Si Si2 0.143724 0.949008 0.505420
Si Si3 0.422500 0.077501 0.699094
Si Si4 0.436538 0.783196 0.811281
Si Si5 0.936539 0.716804 0.199557
O O1 0.894060 0.394060 0.505417
O O2 0.832353 0.463009 0.216319
O O3 0.000000 0.500000 0.314108
O O4 0.200234 0.925970 0.677791
O O5 0.200233 0.925972 0.333046
O O6 0.055831 0.883071 0.505421
O O7 0.463010 0.167647 0.794517
O O8 0.500000 0.000000 0.696720
O O9 0.356658 0.856658 0.769210
O O10 0.427239 0.743845 0.005419
O O11 0.856659 0.643342 0.241631
#
# Coordination Sequence:
#
# PCOD8306658 Si02
#       5
#     4   8   4   8   8
#     4   9  15  29  59  92 121 151 178 227 303 357
#     4  11  25  43  60  79 116 169 206 235 283 346
#     4   9  15  29  59  92 121 151 178 227 303 357
#     4  10  20  38  64  92 120 149 190 246 301 350
#     4  10  20  38  64  92 120 149 190 246 301 350
#
# _framework density 19.778399
#
# number of rings (size 3 to 8) (size 9 to 14) (size 15 to 20)
#    0.000    2.000    2.500    1.500    0.000    5.000 
#    9.000    2.500    0.000    0.000    0.000    0.000 
#    0.000    0.000    0.000    0.000    0.000    0.000 
#
# Total GULP energy -396787.983581 kJ/mol
# GULP energy per Si atom -12399.624487 kJ/mol
# Density = 1.973338 g / cm^3
# Si number density = 19.778399 Si / 1000 Ang^3
#
#
#
# Elastic Constant Matrix: (Units=GPa)
#
#
# Indices 1 2 3 4 5 6 
#
# 1 81.3591 31.8137 61.8063 0.0000 0.0000 0.0000
# 2 31.8137 81.3591 61.8063 0.0000 0.0000 0.0000
# 3 61.8063 61.8063 165.1640 0.0000 0.0000 0.0000
# 4 0.0000 0.0000 0.0000 15.3413 0.0000 0.0000
# 5 0.0000 0.0000 0.0000 0.0000 15.3413 0.0000
# 6 0.0000 0.0000 0.0000 0.0000 0.0000 14.3694
#
#
#
# Elastic Compliance Matrix: (Units=1/GPa)
#
#
# Indices 1 2 3 4 5 6 
#
# 1 0.017564 -0.002620 -0.005592 0.000000 0.000000 0.000000
# 2 -0.002620 0.017564 -0.005592 0.000000 0.000000 0.000000
# 3 -0.005592 -0.005592 0.010240 0.000000 0.000000 0.000000
# 4 0.000000 0.000000 0.000000 0.065183 0.000000 0.000000
# 5 0.000000 0.000000 0.000000 0.000000 0.065183 0.000000
# 6 0.000000 0.000000 0.000000 0.000000 0.000000 0.069592
#
#
# Mechanical properties :
#
#
# Convention : Reuss Voigt Hill
#
# Bulk Modulus (GPa) = 56.30878 70.97054 63.63966
# Shear Modulus (GPa) = 17.93044 20.50746 19.21895
#
# Velocity S-wave (km/s) = 3.01419 3.22353 3.12061
# Velocity P-wave (km/s) = 6.37538 7.05802 6.72536
#
# Compressibility (1/GPa) = 0.01775922
#
# Stress axis : x y z
#
# Youngs Moduli (GPa) = 56.93509 56.93509 97.65630
#
# Poissons Ratio (x) = 0.14915 0.54612
# Poissons Ratio (y) = 0.14915 0.54612
# Poissons Ratio (z) = 0.31840 0.31840
#
# Static dielectric constant tensor:
#      x y z
#    x 3.451590 0.000000 0.000000 
#    y 0.000000 3.451590 0.000000 
#    z 0.000000 0.000000 3.702110 
# 
# 
# High freq. dielectric constant tensor:
#      x y z
#    x 1.751820 0.000000 0.000000 
#    y 0.000000 1.751820 0.000000 
#    z 0.000000 0.000000 1.785720 
# 
# From -- ./inp_files/652.got.cif
#   From: 2010.03.12/outbox.cif.g09.slc.cpg/sg100_cif.got.tgz:652.got - 2010.04.14 01:37:57.
