data_PCOD8306766
_publ_section_title
;
Structure prediction by ZEFSAII (Michael W. Deem and Ramdas Pophale) SiO2 
 PCOD8306766
Probable space group: P 42 C M
;
_chemical_formula_sum "Si O2"
_cell_formula_units_Z 64
_cell_length_a 12.004034
_cell_length_b 12.004034
_cell_length_c 22.863757
_cell_angle_alpha 90.000000
_cell_angle_beta 90.000000
_cell_angle_gamma 90.000000
_cell_volume 3294.594958
_symmetry_space_group_name_H-M "P 42 C M"
_symmetry_group_IT_number 101
_symmetry_cell_setting 'tetragonal'
loop_
_space_group_symop_operation_xyz
x,y,z
-y,x,1/2+z
-x,-y,z
y,-x,1/2+z
-x,y,1/2+z
x,-y,1/2+z
-y,-x,z
y,x,z
loop_
_atom_site_type_symbol
_atom_site_label
_atom_site_fract_x
_atom_site_fract_y
_atom_site_fract_z
Si Si1 0.789191 0.391855 0.997810
Si Si2 0.444910 0.884187 0.583103
Si Si3 0.337287 0.960499 0.469674
Si Si4 0.182779 0.361308 0.205791
Si Si5 0.248399 0.568428 0.411169
Si Si6 0.982849 0.373953 0.288876
Si Si7 0.433575 0.744434 0.276585
Si Si8 0.001649 0.822014 0.377872
O O1 0.726313 0.273688 0.008118
O O2 0.717031 0.464137 0.951773
O O3 0.913887 0.384018 0.971494
O O4 0.800696 0.459506 0.058659
O O5 0.349347 0.905758 0.533832
O O6 0.387593 0.825387 0.637437
O O7 0.500000 0.000000 0.603185
O O8 0.400973 0.880929 0.423189
O O9 0.211218 0.970054 0.445221
O O10 0.244386 0.244386 0.213795
O O11 0.254720 0.456568 0.237439
O O12 0.060505 0.350238 0.233171
O O13 0.325357 0.674644 0.426130
O O14 0.263858 0.531406 0.344371
O O15 0.855929 0.359693 0.267286
O O16 0.000000 0.500000 0.312214
O O17 0.013110 0.288472 0.339854
O O18 0.360630 0.639371 0.256811
O O19 0.884725 0.884725 0.376806
O O20 0.099935 0.900066 0.352937
#
# Coordination Sequence:
#
# PCOD8306766 Si02
#       8
#     8   8   8   8   8   8   8   8
#     4  10  22  36  57  88 118 148 188 242 297 345
#     4   9  20  40  61  79 110 152 200 241 281 340
#     4  10  20  36  60  85 115 148 190 238 282 338
#     4  11  24  39  58  88 116 147 196 246 293 340
#     4  10  20  35  56  83 117 157 195 231 282 350
#     4  10  21  36  60  84 115 153 195 237 280 335
#     4  10  21  37  58  83 116 157 197 236 285 344
#     4  11  22  35  56  89 124 152 183 231 293 353
#
# _framework density 19.425757000000001
#
# number of rings (size 3 to 8) (size 9 to 14) (size 15 to 20)
#    0.000    1.875    1.250    3.750    3.500    4.500 
#    0.000    1.250    0.000    2.250    0.000    1.750 
#    0.000    0.000    0.000    0.000    0.000    0.000 
#
# Total GULP energy -793336.511409 kJ/mol
# GULP energy per Si atom -12395.882991 kJ/mol
# Density = 1.938154 g / cm^3
# Si number density = 19.425757 Si / 1000 Ang^3
#
#
#
# Elastic Constant Matrix: (Units=GPa)
#
#
# Indices 1 2 3 4 5 6 
#
# 1 77.3609 33.1211 41.5287 0.0000 0.0000 0.0000
# 2 33.1211 77.3609 41.5287 0.0000 0.0000 0.0000
# 3 41.5287 41.5287 101.0087 0.0000 0.0000 0.0000
# 4 0.0000 0.0000 0.0000 21.5799 0.0000 0.0000
# 5 0.0000 0.0000 0.0000 0.0000 21.5799 0.0000
# 6 0.0000 0.0000 0.0000 0.0000 0.0000 28.9658
#
#
#
# Elastic Compliance Matrix: (Units=1/GPa)
#
#
# Indices 1 2 3 4 5 6 
#
# 1 0.017852 -0.004752 -0.005386 0.000000 0.000000 0.000000
# 2 -0.004752 0.017852 -0.005386 0.000000 0.000000 0.000000
# 3 -0.005386 -0.005386 0.014329 0.000000 0.000000 0.000000
# 4 0.000000 0.000000 0.000000 0.046340 0.000000 0.000000
# 5 0.000000 0.000000 0.000000 0.000000 0.046340 0.000000
# 6 0.000000 0.000000 0.000000 0.000000 0.000000 0.034523
#
#
# Mechanical properties :
#
#
# Convention : Reuss Voigt Hill
#
# Bulk Modulus (GPa) = 52.67205 54.23194 53.45200
# Shear Modulus (GPa) = 23.29781 23.72857 23.51319
#
# Velocity S-wave (km/s) = 3.46689 3.49879 3.48287
# Velocity P-wave (km/s) = 6.57260 6.65584 6.61435
#
# Compressibility (1/GPa) = 0.01898540
#
# Stress axis : x y z
#
# Youngs Moduli (GPa) = 56.01543 56.01543 69.78859
#
# Poissons Ratio (x) = 0.26618 0.37589
# Poissons Ratio (y) = 0.26618 0.37589
# Poissons Ratio (z) = 0.30170 0.30170
#
# Static dielectric constant tensor:
#      x y z
#    x 3.572510 0.000000 0.000000 
#    y 0.000000 3.572510 0.000000 
#    z 0.000000 0.000000 3.451940 
# 
# 
# High freq. dielectric constant tensor:
#      x y z
#    x 1.753170 0.000000 0.000000 
#    y 0.000000 1.753170 0.000000 
#    z 0.000000 0.000000 1.744340 
# 
# From -- ./inp_files/2797.got.cif
#   From: 2010.03.12/outbox.cif.g09.slc.cpg/sg101_2_cif.got.tgz:2797.got - 2010.04.14 01:38:52.
