data_PCOD8306916
_publ_section_title
;
Structure prediction by ZEFSAII (Michael W. Deem and Ramdas Pophale) SiO2 
 PCOD8306916
Probable space group: P 42 N M
;
_chemical_formula_sum "Si O2"
_cell_formula_units_Z 64
_cell_length_a 11.508133
_cell_length_b 11.508133
_cell_length_c 23.907196
_cell_angle_alpha 90.000000
_cell_angle_beta 90.000000
_cell_angle_gamma 90.000000
_cell_volume 3166.200309
_symmetry_space_group_name_H-M "P 42 N M"
_symmetry_group_IT_number 102
_symmetry_cell_setting 'tetragonal'
loop_
_space_group_symop_operation_xyz
x,y,z
1/2-y,1/2+x,1/2+z
-x,-y,z
1/2+y,1/2-x,1/2+z
1/2-x,1/2+y,1/2+z
1/2+x,1/2-y,1/2+z
-y,-x,z
y,x,z
loop_
_atom_site_type_symbol
_atom_site_label
_atom_site_fract_x
_atom_site_fract_y
_atom_site_fract_z
Si Si1 0.687825 0.493809 0.351740
Si Si2 0.812287 0.006195 0.357101
Si Si3 0.595942 0.908775 0.290546
Si Si4 0.260982 0.449334 0.591772
Si Si5 0.434095 0.755138 0.971507
Si Si6 0.446074 0.256868 0.467935
Si Si7 0.865029 0.479148 0.080791
Si Si8 0.831177 0.356185 0.668476
O O1 0.626174 0.373827 0.329741
O O2 0.592546 0.592546 0.357172
O O3 0.784911 0.546109 0.310710
O O4 0.738280 0.467768 0.414421
O O5 0.869972 0.130029 0.337703
O O6 0.715878 0.954695 0.316209
O O7 0.761296 0.021837 0.419653
O O8 0.911319 0.911319 0.359759
O O9 0.615565 0.908320 0.224514
O O10 0.500000 0.000000 0.307814
O O11 0.382613 0.382613 0.600640
O O12 0.248628 0.506996 0.529210
O O13 0.156649 0.354814 0.598326
O O14 0.251081 0.549961 0.637738
O O15 0.360827 0.639174 0.983477
O O16 0.351245 0.862293 0.956276
O O17 0.507669 0.786634 0.026687
O O18 0.374732 0.374732 0.471150
O O19 0.819245 0.560754 0.130083
O O20 0.000000 0.500000 0.067374
O O21 0.756987 0.243014 0.683361
#
# Coordination Sequence:
#
# PCOD8306916 Si02
#       8
#     8   8   8   8   8   8   8   8
#     4  10  20  37  63  91 118 154 201 253 309 368
#     4  10  21  38  62  91 121 157 202 249 302 369
#     4  12  25  43  64  82 119 161 204 256 311 363
#     4   9  18  35  61  91 119 152 198 247 298 355
#     4   9  16  31  57  86 121 161 196 235 290 358
#     4   8  14  29  56  87 120 156 190 236 297 359
#     4   9  18  34  56  84 120 155 198 236 292 355
#     4  11  24  41  60  83 115 160 202 246 298 355
#
# _framework density 20.213502999999999
#
# number of rings (size 3 to 8) (size 9 to 14) (size 15 to 20)
#    0.000    2.250    1.250    3.375    0.000    2.750 
#    2.250    3.750    0.000    2.625    0.000    0.000 
#    0.000    0.000    0.000    0.000    0.000    0.000 
#
# Total GULP energy -793058.797434 kJ/mol
# GULP energy per Si atom -12391.543710 kJ/mol
# Density = 2.016750 g / cm^3
# Si number density = 20.213503 Si / 1000 Ang^3
#
#
#
# Elastic Constant Matrix: (Units=GPa)
#
#
# Indices 1 2 3 4 5 6 
#
# 1 66.9100 26.2110 35.7996 0.0000 0.0000 0.0003
# 2 26.2110 66.9100 35.7996 0.0000 0.0000 -0.0003
# 3 35.7996 35.7996 117.3134 0.0000 0.0000 0.0000
# 4 0.0000 0.0000 0.0000 25.8482 0.0000 0.0000
# 5 0.0000 0.0000 0.0000 0.0000 25.8482 0.0000
# 6 0.0003 -0.0003 0.0000 0.0000 0.0000 23.5114
#
#
#
# Elastic Compliance Matrix: (Units=1/GPa)
#
#
# Indices 1 2 3 4 5 6 
#
# 1 0.019301 -0.005270 -0.004282 0.000000 0.000000 0.000000
# 2 -0.005270 0.019301 -0.004282 0.000000 0.000000 0.000000
# 3 -0.004282 -0.004282 0.011137 0.000000 0.000000 0.000000
# 4 0.000000 0.000000 0.000000 0.038687 0.000000 0.000000
# 5 0.000000 0.000000 0.000000 0.000000 0.038687 0.000000
# 6 0.000000 0.000000 0.000000 0.000000 0.000000 0.042532
#
#
# Mechanical properties :
#
#
# Convention : Reuss Voigt Hill
#
# Bulk Modulus (GPa) = 45.30557 49.63932 47.47245
# Shear Modulus (GPa) = 24.42957 25.26313 24.84635
#
# Velocity S-wave (km/s) = 3.48023 3.53911 3.50979
# Velocity P-wave (km/s) = 6.21382 6.42738 6.32150
#
# Compressibility (1/GPa) = 0.02207234
#
# Stress axis : x y z
#
# Youngs Moduli (GPa) = 51.81154 51.81154 89.78767
#
# Poissons Ratio (x) = 0.27304 0.38444
# Poissons Ratio (y) = 0.27304 0.38444
# Poissons Ratio (z) = 0.22184 0.22184
#
# Static dielectric constant tensor:
#      x y z
#    x 3.746990 0.000000 0.000000 
#    y 0.000000 3.746990 0.000000 
#    z 0.000000 0.000000 3.762660 
# 
# 
# High freq. dielectric constant tensor:
#      x y z
#    x 1.775750 0.000000 0.000000 
#    y 0.000000 1.775750 0.000000 
#    z 0.000000 0.000000 1.788210 
# 
# From -- ./inp_files/3416.got.cif
#   From: 2010.03.12/outbox.cif.g09.slc.cpg/sg102_2_cif.got.tgz:3416.got - 2010.04.14 01:40:42.
