data_PCOD8306909
_publ_section_title
;
Structure prediction by ZEFSAII (Michael W. Deem and Ramdas Pophale) SiO2 
 PCOD8306909
Probable space group: P 42 N M
;
_chemical_formula_sum "Si O2"
_cell_formula_units_Z 52
_cell_length_a 16.399961
_cell_length_b 16.399961
_cell_length_c 9.239988
_cell_angle_alpha 90.000000
_cell_angle_beta 90.000000
_cell_angle_gamma 90.000000
_cell_volume 2485.175353
_symmetry_space_group_name_H-M "P 42 N M"
_symmetry_group_IT_number 102
_symmetry_cell_setting 'tetragonal'
loop_
_space_group_symop_operation_xyz
x,y,z
1/2-y,1/2+x,1/2+z
-x,-y,z
1/2+y,1/2-x,1/2+z
1/2-x,1/2+y,1/2+z
1/2+x,1/2-y,1/2+z
-y,-x,z
y,x,z
loop_
_atom_site_type_symbol
_atom_site_label
_atom_site_fract_x
_atom_site_fract_y
_atom_site_fract_z
Si Si1 0.851672 0.282037 0.243530
Si Si2 0.130168 0.998102 0.732514
Si Si3 0.103361 0.237258 0.925075
Si Si4 0.139127 0.607229 0.979060
Si Si5 0.500000 0.000000 0.068777
Si Si6 0.114066 0.362423 0.158756
Si Si7 0.959271 0.252331 0.504027
O O1 0.796677 0.203324 0.218721
O O2 0.802541 0.354631 0.319958
O O3 0.931818 0.253205 0.334638
O O4 0.877320 0.317938 0.087832
O O5 0.071556 0.928445 0.800758
O O6 0.164548 0.962913 0.580550
O O7 0.201178 0.022136 0.847389
O O8 0.079102 0.079102 0.695279
O O9 0.164713 0.164713 0.966905
O O10 0.077311 0.284595 0.071776
O O11 0.161975 0.639968 0.820612
O O12 0.059239 0.550902 0.965212
O O13 0.212805 0.549565 0.029633
O O14 0.563623 0.950593 0.167900
O O15 0.196962 0.388921 0.082627
#
# Coordination Sequence:
#
# PCOD8306909 Si02
#       7
#     8   8   8   8   4   8   8
#     4  10  20  36  57  84 122 159 200 255 314 364
#     4  10  20  37  65  91 113 156 214 262 309 374
#     4   9  19  37  58  84 118 157 200 251 304 362
#     4  11  21  35  58  87 118 161 205 245 308 376
#     4  10  22  36  56  86 122 158 200 252 302 368
#     4  10  22  35  59  85 122 159 202 248 308 376
#     4  10  21  37  58  85 120 161 201 258 309 368
#
# _framework density 20.924078000000002
#
# number of rings (size 3 to 8) (size 9 to 14) (size 15 to 20)
#    0.000    2.000    1.538    1.846    2.154    3.692 
#    0.000    0.000    0.000    0.923    0.000    2.154 
#    0.000    0.000    0.000    0.000    0.000    0.000 
#
# Total GULP energy -644613.111536 kJ/mol
# GULP energy per Si atom -12396.405991 kJ/mol
# Density = 2.087645 g / cm^3
# Si number density = 20.924078 Si / 1000 Ang^3
#
#
#
# Elastic Constant Matrix: (Units=GPa)
#
#
# Indices 1 2 3 4 5 6 
#
# 1 80.3278 28.1598 47.1554 0.0000 0.0000 0.0002
# 2 28.1598 80.3278 47.1554 0.0000 0.0000 -0.0002
# 3 47.1554 47.1554 156.0179 0.0000 0.0000 0.0000
# 4 0.0000 0.0000 0.0000 17.5610 0.0000 0.0000
# 5 0.0000 0.0000 0.0000 0.0000 17.5610 0.0000
# 6 0.0002 -0.0002 0.0000 0.0000 0.0000 8.3049
#
#
#
# Elastic Compliance Matrix: (Units=1/GPa)
#
#
# Indices 1 2 3 4 5 6 
#
# 1 0.015836 -0.003333 -0.003779 0.000000 0.000000 0.000000
# 2 -0.003333 0.015836 -0.003779 0.000000 0.000000 0.000000
# 3 -0.003779 -0.003779 0.008694 0.000000 0.000000 0.000000
# 4 0.000000 0.000000 0.000000 0.056944 0.000000 0.000000
# 5 0.000000 0.000000 0.000000 0.000000 0.056944 0.000000
# 6 0.000000 0.000000 0.000000 0.000000 0.000000 0.120411
#
#
# Mechanical properties :
#
#
# Convention : Reuss Voigt Hill
#
# Bulk Modulus (GPa) = 53.81049 62.40164 58.10607
# Shear Modulus (GPa) = 16.52122 21.63224 19.07673
#
# Velocity S-wave (km/s) = 2.81299 3.21883 3.02273
# Velocity P-wave (km/s) = 6.02689 6.61076 6.32557
#
# Compressibility (1/GPa) = 0.01858374
#
# Stress axis : x y z
#
# Youngs Moduli (GPa) = 63.14820 63.14820 115.02463
#
# Poissons Ratio (x) = 0.21048 0.43466
# Poissons Ratio (y) = 0.21048 0.43466
# Poissons Ratio (z) = 0.23863 0.23863
#
# Static dielectric constant tensor:
#      x y z
#    x 3.726410 0.000000 0.000000 
#    y 0.000000 3.726410 0.000000 
#    z 0.000000 0.000000 3.607390 
# 
# 
# High freq. dielectric constant tensor:
#      x y z
#    x 1.809940 0.000000 0.000000 
#    y 0.000000 1.809940 0.000000 
#    z 0.000000 0.000000 1.806740 
# 
# From -- ./inp_files/1102.got.cif
#   From: 2010.03.12/outbox.cif.g09.slc.cpg/sg102_1_cif.got.tgz:1102.got - 2010.04.14 01:40:42.
