data_PCOD8306886
_publ_section_title
;
Structure prediction by ZEFSAII (Michael W. Deem and Ramdas Pophale) SiO2 
 PCOD8306886
Probable space group: P 42 N M
;
_chemical_formula_sum "Si O2"
_cell_formula_units_Z 64
_cell_length_a 21.165527
_cell_length_b 21.165527
_cell_length_c 9.303404
_cell_angle_alpha 90.000000
_cell_angle_beta 90.000000
_cell_angle_gamma 90.000000
_cell_volume 4167.734581
_symmetry_space_group_name_H-M "P 42 N M"
_symmetry_group_IT_number 102
_symmetry_cell_setting 'tetragonal'
loop_
_space_group_symop_operation_xyz
x,y,z
1/2-y,1/2+x,1/2+z
-x,-y,z
1/2+y,1/2-x,1/2+z
1/2-x,1/2+y,1/2+z
1/2+x,1/2-y,1/2+z
-y,-x,z
y,x,z
loop_
_atom_site_type_symbol
_atom_site_label
_atom_site_fract_x
_atom_site_fract_y
_atom_site_fract_z
Si Si1 0.326156 0.431296 0.420680
Si Si2 0.760742 0.654310 0.925537
Si Si3 0.845690 0.260743 0.748346
Si Si4 0.057819 0.161886 0.753953
Si Si5 0.557819 0.338114 0.919928
Si Si6 0.343193 0.763010 0.927477
Si Si7 0.568704 0.673844 0.753200
Si Si8 0.156807 0.263010 0.746408
O O1 0.384718 0.384718 0.399444
O O2 0.264300 0.404816 0.340026
O O3 0.346358 0.497467 0.353569
O O4 0.308765 0.439822 0.586940
O O5 0.708827 0.708827 0.925896
O O6 0.735698 0.595184 0.833856
O O7 0.825555 0.680746 0.855767
O O8 0.775674 0.631480 0.086941
O O9 0.791174 0.208827 0.747989
O O10 0.819254 0.325555 0.818117
O O11 0.103097 0.103097 0.786791
O O12 0.037923 0.162357 0.586941
O O13 0.092777 0.227600 0.794740
O O14 0.603097 0.396904 0.887090
O O15 0.592776 0.272400 0.879143
O O16 0.497467 0.346358 0.820312
O O17 0.287696 0.712305 0.932524
O O18 0.351532 0.792039 0.086942
O O19 0.615281 0.615281 0.774434
O O20 0.212305 0.212305 0.741362
#
# Coordination Sequence:
#
# PCOD8306886 Si02
#       8
#     8   8   8   8   8   8   8   8
#     4  10  20  31  42  58  83 115 148 181 214 247
#     4   9  16  26  42  62  81 103 134 172 213 255
#     4   9  16  26  42  62  81 103 134 172 213 255
#     4   9  18  31  45  61  83 113 146 178 212 251
#     4   9  18  31  45  61  83 113 146 178 212 251
#     4   8  14  26  43  61  81 104 131 167 213 258
#     4  10  20  31  42  58  83 115 148 181 214 247
#     4   8  14  26  43  61  81 104 131 167 213 258
#
# _framework density 15.356064
#
# number of rings (size 3 to 8) (size 9 to 14) (size 15 to 20)
#    0.000    3.000    0.000    3.000    0.000    6.500 
#    0.000    5.000    0.000    0.000    0.000    0.000 
#    0.000    1.000    0.000   10.500    0.000    5.500 
#
# Total GULP energy -793395.821436 kJ/mol
# GULP energy per Si atom -12396.809710 kJ/mol
# Density = 1.532111 g / cm^3
# Si number density = 15.356064 Si / 1000 Ang^3
#
#
#
# Elastic Constant Matrix: (Units=GPa)
#
#
# Indices 1 2 3 4 5 6 
#
# 1 43.9338 42.8619 51.8567 0.0000 0.0000 0.0003
# 2 42.8619 43.9338 51.8567 0.0000 0.0000 -0.0003
# 3 51.8567 51.8567 126.3202 0.0000 0.0000 0.0000
# 4 0.0000 0.0000 0.0000 25.9092 0.0000 0.0000
# 5 0.0000 0.0000 0.0000 0.0000 25.9092 0.0000
# 6 0.0003 -0.0003 0.0000 0.0000 0.0000 11.3042
#
#
#
# Elastic Compliance Matrix: (Units=1/GPa)
#
#
# Indices 1 2 3 4 5 6 
#
# 1 0.477763 -0.455148 -0.009284 0.000000 0.000000 -0.000022
# 2 -0.455148 0.477763 -0.009284 0.000000 0.000000 0.000022
# 3 -0.009284 -0.009284 0.015539 0.000000 0.000000 0.000000
# 4 0.000000 0.000000 0.000000 0.038596 0.000000 0.000000
# 5 0.000000 0.000000 0.000000 0.000000 0.038596 0.000000
# 6 -0.000022 0.000022 0.000000 0.000000 0.000000 0.088463
#
#
# Mechanical properties :
#
#
# Convention : Reuss Voigt Hill
#
# Bulk Modulus (GPa) = 42.31384 56.37094 49.34239
# Shear Modulus (GPa) = 2.39002 17.13203 9.76103
#
# Velocity S-wave (km/s) = 1.24891 3.34376 2.52394
# Velocity P-wave (km/s) = 5.44928 7.19003 6.37931
#
# Compressibility (1/GPa) = 0.02363293
#
# Stress axis : x y z
#
# Youngs Moduli (GPa) = 2.09309 2.09309 64.35600
#
# Poissons Ratio (x) = 0.95267 0.59746
# Poissons Ratio (y) = 0.95267 0.59746
# Poissons Ratio (z) = 0.01943 0.01943
#
# Static dielectric constant tensor:
#      x y z
#    x 2.775380 0.000000 0.000000 
#    y 0.000000 2.775380 0.000000 
#    z 0.000000 0.000000 3.148100 
# 
# 
# High freq. dielectric constant tensor:
#      x y z
#    x 1.558920 0.000000 0.000000 
#    y 0.000000 1.558920 0.000000 
#    z 0.000000 0.000000 1.600950 
# 
# From -- ./inp_files/1218.got.cif
#   From: 2010.03.12/outbox.cif.g09.slc.cpg/sg102_1_cif.got.tgz:1218.got - 2010.04.14 01:40:42.
