data_PCOD8306699
_publ_section_title
;
Structure prediction by ZEFSAII (Michael W. Deem and Ramdas Pophale) SiO2 
 PCOD8306699
Probable space group: P 42 C M
;
_chemical_formula_sum "Si O2"
_cell_formula_units_Z 56
_cell_length_a 19.525030
_cell_length_b 19.525030
_cell_length_c 10.653672
_cell_angle_alpha 90.000000
_cell_angle_beta 90.000000
_cell_angle_gamma 90.000000
_cell_volume 4061.465248
_symmetry_space_group_name_H-M "P 42 C M"
_symmetry_group_IT_number 101
_symmetry_cell_setting 'tetragonal'
loop_
_space_group_symop_operation_xyz
x,y,z
-y,x,1/2+z
-x,-y,z
y,-x,1/2+z
-x,y,1/2+z
x,-y,1/2+z
-y,-x,z
y,x,z
loop_
_atom_site_type_symbol
_atom_site_label
_atom_site_fract_x
_atom_site_fract_y
_atom_site_fract_z
Si Si1 0.582081 0.924740 0.905680
Si Si2 0.580011 0.148403 0.158624
Si Si3 0.500001 0.607166 0.655674
Si Si4 0.581094 0.918786 0.405680
Si Si5 0.599253 0.290781 0.265756
Si Si6 0.148404 0.419989 0.152735
Si Si7 0.290781 0.400748 0.045597
O O1 0.612543 0.889544 0.779818
O O2 0.500644 0.916349 0.905680
O O3 0.606302 0.003149 0.905679
O O4 0.612543 0.889545 0.031543
O O5 0.593870 0.229698 0.165705
O O6 0.500000 0.133084 0.155680
O O7 0.611503 0.119105 0.029144
O O8 0.441717 0.558284 0.719422
O O9 0.558284 0.558284 0.591924
O O10 0.536064 0.655946 0.757423
O O11 0.463938 0.655948 0.553927
O O12 0.611502 0.880894 0.282216
O O13 0.670586 0.329415 0.240915
O O14 0.596500 0.259511 0.405676
O O15 0.229698 0.406131 0.145649
O O16 0.329415 0.329415 0.070438
#
# Coordination Sequence:
#
# PCOD8306699 Si02
#       7
#     8   8   8   8   8   8   8
#     4   9  16  28  41  58  78 100 119 146 189 242
#     4  10  17  27  42  58  79  98 125 154 193 236
#     4   9  18  30  42  56  71  88 122 172 215 250
#     4   9  18  26  41  60  78  96 119 152 191 232
#     4  10  19  30  43  56  74 101 130 159 203 251
#     4  10  17  27  42  58  79  98 125 154 193 236
#     4  10  19  30  43  56  74 101 130 159 203 251
#
# _framework density 13.788126999999999
#
# number of rings (size 3 to 8) (size 9 to 14) (size 15 to 20)
#    0.000    2.429    2.857    0.857    0.000    4.000 
#    0.000    3.571    0.000    0.000    0.000    0.000 
#    0.000    0.000    0.000    0.000    0.000    0.000 
#
# Total GULP energy -694006.622523 kJ/mol
# GULP energy per Si atom -12392.975402 kJ/mol
# Density = 1.375674 g / cm^3
# Si number density = 13.788127 Si / 1000 Ang^3
#
#
#
# Elastic Constant Matrix: (Units=GPa)
#
#
# Indices 1 2 3 4 5 6 
#
# 1 65.7908 16.5713 37.1156 0.0000 0.0000 -0.0001
# 2 16.5713 65.7908 37.1156 0.0000 0.0000 0.0001
# 3 37.1156 37.1156 111.3233 0.0000 0.0000 0.0000
# 4 0.0000 0.0000 0.0000 17.0849 0.0000 0.0000
# 5 0.0000 0.0000 0.0000 0.0000 17.0849 0.0000
# 6 -0.0001 0.0001 0.0000 0.0000 0.0000 5.3848
#
#
#
# Elastic Compliance Matrix: (Units=1/GPa)
#
#
# Indices 1 2 3 4 5 6 
#
# 1 0.018837 -0.001480 -0.005787 0.000000 0.000000 0.000000
# 2 -0.001480 0.018837 -0.005787 0.000000 0.000000 0.000000
# 3 -0.005787 -0.005787 0.012842 0.000000 0.000000 0.000000
# 4 0.000000 0.000000 0.000000 0.058531 0.000000 0.000000
# 5 0.000000 0.000000 0.000000 0.000000 0.058531 0.000000
# 6 0.000000 0.000000 0.000000 0.000000 0.000000 0.185708
#
#
# Mechanical properties :
#
#
# Convention : Reuss Voigt Hill
#
# Bulk Modulus (GPa) = 40.96987 47.16774 44.06880
# Shear Modulus (GPa) = 12.90221 18.05107 15.47664
#
# Velocity S-wave (km/s) = 3.06232 3.62218 3.35395
# Velocity P-wave (km/s) = 6.50247 7.19561 6.85780
#
# Compressibility (1/GPa) = 0.02440818
#
# Stress axis : x y z
#
# Youngs Moduli (GPa) = 53.08655 53.08655 77.87181
#
# Poissons Ratio (x) = 0.07857 0.45064
# Poissons Ratio (y) = 0.07857 0.45064
# Poissons Ratio (z) = 0.30721 0.30721
#
# Static dielectric constant tensor:
#      x y z
#    x 2.501570 0.000000 0.000000 
#    y 0.000000 2.501570 0.000000 
#    z 0.000000 0.000000 2.906300 
# 
# 
# High freq. dielectric constant tensor:
#      x y z
#    x 1.490350 0.000000 0.000000 
#    y 0.000000 1.490350 0.000000 
#    z 0.000000 0.000000 1.532740 
# 
# From -- ./inp_files/788.got.cif
#   From: 2010.03.12/outbox.cif.g09.slc.cpg/sg101_1_cif.got.tgz:788.got - 2010.04.14 01:38:52.
