data_PCOD8306737
_publ_section_title
;
Structure prediction by ZEFSAII (Michael W. Deem and Ramdas Pophale) SiO2 
 PCOD8306737
Probable space group: P 42 C M
;
_chemical_formula_sum "Si O2"
_cell_formula_units_Z 40
_cell_length_a 11.893436
_cell_length_b 11.893436
_cell_length_c 15.045056
_cell_angle_alpha 90.000000
_cell_angle_beta 90.000000
_cell_angle_gamma 90.000000
_cell_volume 2128.180642
_symmetry_space_group_name_H-M "P 42 C M"
_symmetry_group_IT_number 101
_symmetry_cell_setting 'tetragonal'
loop_
_space_group_symop_operation_xyz
x,y,z
-y,x,1/2+z
-x,-y,z
y,-x,1/2+z
-x,y,1/2+z
x,-y,1/2+z
-y,-x,z
y,x,z
loop_
_atom_site_type_symbol
_atom_site_label
_atom_site_fract_x
_atom_site_fract_y
_atom_site_fract_z
Si Si1 0.741584 0.435115 0.365630
Si Si2 0.034219 0.628786 0.295337
Si Si3 0.659224 0.158539 0.925547
Si Si4 0.501166 0.320706 0.673060
Si Si5 0.410571 0.909397 0.105928
O O1 0.642654 0.357347 0.409248
O O2 0.845434 0.352309 0.341884
O O3 0.788404 0.533403 0.428635
O O4 0.693131 0.495970 0.278866
O O5 0.047153 0.662871 0.191031
O O6 0.000000 0.500000 0.294520
O O7 0.935706 0.688530 0.351037
O O8 0.744737 0.255264 0.903541
O O9 0.676189 0.109596 0.024846
O O10 0.621676 0.378325 0.649385
O O11 0.400834 0.400834 0.639458
O O12 0.485056 0.200682 0.627760
O O13 0.500000 0.000000 0.072426
#
# Coordination Sequence:
#
# PCOD8306737 Si02
#       5
#     8   8   8   8   8
#     4   9  17  30  50  75 105 142 176 205 243 295
#     4   8  17  34  52  72 102 142 180 208 242 295
#     4  11  21  33  52  79 107 132 167 215 262 308
#     4   9  17  30  48  74 110 145 173 204 247 298
#     4  10  19  32  50  72 103 141 179 212 246 299
#
# _framework density 18.795396
#
# number of rings (size 3 to 8) (size 9 to 14) (size 15 to 20)
#    0.000    2.600    0.000    4.200    0.000    2.800 
#    0.000    0.000    0.000    1.800    0.000    0.000 
#    0.000    7.200    0.000    0.000    0.000    0.000 
#
# Total GULP energy -495621.096203 kJ/mol
# GULP energy per Si atom -12390.527405 kJ/mol
# Density = 1.875262 g / cm^3
# Si number density = 18.795396 Si / 1000 Ang^3
#
#
#
# Elastic Constant Matrix: (Units=GPa)
#
#
# Indices 1 2 3 4 5 6 
#
# 1 78.6245 32.4011 30.9771 0.0000 0.0000 0.0012
# 2 32.4011 78.6245 30.9771 0.0000 0.0000 -0.0012
# 3 30.9771 30.9771 100.0613 0.0000 0.0000 0.0000
# 4 0.0000 0.0000 0.0000 14.5905 0.0000 0.0000
# 5 0.0000 0.0000 0.0000 0.0000 14.5905 0.0000
# 6 0.0012 -0.0012 0.0000 0.0000 0.0000 7.8527
#
#
#
# Elastic Compliance Matrix: (Units=1/GPa)
#
#
# Indices 1 2 3 4 5 6 
#
# 1 0.016261 -0.005373 -0.003371 0.000000 0.000000 -0.000003
# 2 -0.005373 0.016261 -0.003371 0.000000 0.000000 0.000003
# 3 -0.003371 -0.003371 0.012081 0.000000 0.000000 0.000000
# 4 0.000000 0.000000 0.000000 0.068538 0.000000 0.000000
# 5 0.000000 0.000000 0.000000 0.000000 0.068538 0.000000
# 6 -0.000003 0.000003 0.000000 0.000000 0.000000 0.127344
#
#
# Mechanical properties :
#
#
# Convention : Reuss Voigt Hill
#
# Bulk Modulus (GPa) = 49.08252 49.55786 49.32019
# Shear Modulus (GPa) = 14.70405 18.27043 16.48724
#
# Velocity S-wave (km/s) = 2.80004 3.12119 2.96496
# Velocity P-wave (km/s) = 6.05181 6.27800 6.16594
#
# Compressibility (1/GPa) = 0.02037385
#
# Stress axis : x y z
#
# Youngs Moduli (GPa) = 61.49708 61.49708 82.77556
#
# Poissons Ratio (x) = 0.33043 0.27901
# Poissons Ratio (y) = 0.33043 0.27901
# Poissons Ratio (z) = 0.20729 0.20729
#
# Static dielectric constant tensor:
#      x y z
#    x 3.454530 0.000000 0.000000 
#    y 0.000000 3.454530 0.000000 
#    z 0.000000 0.000000 3.622030 
# 
# 
# High freq. dielectric constant tensor:
#      x y z
#    x 1.703860 0.000000 0.000000 
#    y 0.000000 1.703860 0.000000 
#    z 0.000000 0.000000 1.732200 
# 
# From -- ./inp_files/1686.got.cif
#   From: 2010.03.12/outbox.cif.g09.slc.cpg/sg101_1_cif.got.tgz:1686.got - 2010.04.14 01:38:52.
