data_PCOD8306632
_publ_section_title
;
Structure prediction by ZEFSAII (Michael W. Deem and Ramdas Pophale) SiO2 
 PCOD8306632
Probable space group: P 4 B M
;
_chemical_formula_sum "Si O2"
_cell_formula_units_Z 56
_cell_length_a 15.085772
_cell_length_b 15.085772
_cell_length_c 14.836472
_cell_angle_alpha 90.000000
_cell_angle_beta 90.000000
_cell_angle_gamma 90.000000
_cell_volume 3376.491966
_symmetry_space_group_name_H-M "P 4 B M"
_symmetry_group_IT_number 100
_symmetry_cell_setting 'tetragonal'
loop_
_space_group_symop_operation_xyz
x,y,z
-y,x,z
-x,-y,z
y,-x,z
1/2-x,1/2+y,z
1/2+x,1/2-y,z
1/2-y,1/2-x,z
1/2+y,1/2+x,z
loop_
_atom_site_type_symbol
_atom_site_label
_atom_site_fract_x
_atom_site_fract_y
_atom_site_fract_z
Si Si1 0.526560 0.357117 0.615180
Si Si2 0.323991 0.027771 0.115180
Si Si3 0.264940 0.907038 0.964421
Si Si4 0.527121 0.354628 0.419766
Si Si5 0.169879 0.817969 0.115179
Si Si6 0.764940 0.592962 0.265938
Si Si7 0.972880 0.854628 0.810593
O O1 0.600892 0.430741 0.615180
O O2 0.535953 0.306871 0.519028
O O3 0.535952 0.306870 0.711332
O O4 0.405711 0.094290 0.115179
O O5 0.228575 0.075543 0.115180
O O6 0.328835 0.969279 0.205557
O O7 0.328835 0.969278 0.024802
O O8 0.323731 0.823731 0.930357
O O9 0.225294 0.960144 0.880293
O O10 0.181140 0.876727 0.025329
O O11 0.601949 0.430232 0.407367
O O12 0.539858 0.274706 0.350067
O O13 0.248887 0.748887 0.115180
O O14 0.181140 0.876728 0.205029
O O15 0.823731 0.676270 0.300002
O O16 0.069769 0.898051 0.822992
#
# Coordination Sequence:
#
# PCOD8306632 Si02
#       7
#     8   8   8   8   8   8   8
#     4   7  12  24  43  66  88 109 137 175 216 259
#     4  10  19  32  48  62  83 119 155 180 208 254
#     4  10  19  29  42  64  92 116 144 182 218 254
#     4   9  16  28  47  68  88 112 143 178 218 262
#     4   8  16  29  42  58  82 111 142 181 222 247
#     4  10  19  29  42  64  92 116 144 182 218 254
#     4   9  16  28  47  68  88 112 143 178 218 262
#
# _framework density 16.585260000000002
#
# number of rings (size 3 to 8) (size 9 to 14) (size 15 to 20)
#    0.000    3.000    0.000    4.714    0.000    1.143 
#    0.000    0.714    0.000    6.857    0.000    3.000 
#    0.000    2.286    0.000    0.000    0.000    0.000 
#
# Total GULP energy -693740.914089 kJ/mol
# GULP energy per Si atom -12388.230609 kJ/mol
# Density = 1.654751 g / cm^3
# Si number density = 16.585260 Si / 1000 Ang^3
#
#
#
# Elastic Constant Matrix: (Units=GPa)
#
#
# Indices 1 2 3 4 5 6 
#
# 1 49.3000 16.2186 31.7410 0.0000 0.0000 0.0003
# 2 16.2186 49.3000 31.7410 0.0000 0.0000 -0.0003
# 3 31.7410 31.7410 138.7681 0.0000 0.0000 0.0000
# 4 0.0000 0.0000 0.0000 9.7544 0.0000 0.0000
# 5 0.0000 0.0000 0.0000 0.0000 9.7544 0.0000
# 6 0.0003 -0.0003 0.0000 0.0000 0.0000 26.3421
#
#
#
# Elastic Compliance Matrix: (Units=1/GPa)
#
#
# Indices 1 2 3 4 5 6 
#
# 1 0.024919 -0.005310 -0.004485 0.000000 0.000000 0.000000
# 2 -0.005310 0.024919 -0.004485 0.000000 0.000000 0.000000
# 3 -0.004485 -0.004485 0.009258 0.000000 0.000000 0.000000
# 4 0.000000 0.000000 0.000000 0.102518 0.000000 0.000000
# 5 0.000000 0.000000 0.000000 0.000000 0.102518 0.000000
# 6 0.000000 0.000000 0.000000 0.000000 0.000000 0.037962
#
#
# Mechanical properties :
#
#
# Convention : Reuss Voigt Hill
#
# Bulk Modulus (GPa) = 32.74972 44.08549 38.41761
# Shear Modulus (GPa) = 14.66999 19.68133 17.17566
#
# Velocity S-wave (km/s) = 2.97731 3.44855 3.22156
# Velocity P-wave (km/s) = 5.62213 6.51886 6.08703
#
# Compressibility (1/GPa) = 0.03053461
#
# Stress axis : x y z
#
# Youngs Moduli (GPa) = 40.13076 40.13076 108.01371
#
# Poissons Ratio (x) = 0.21309 0.48446
# Poissons Ratio (y) = 0.21309 0.48446
# Poissons Ratio (z) = 0.17999 0.17999
#
# Static dielectric constant tensor:
#      x y z
#    x 2.886000 0.000000 0.000000 
#    y 0.000000 2.886000 0.000000 
#    z 0.000000 0.000000 3.395640 
# 
# 
# High freq. dielectric constant tensor:
#      x y z
#    x 1.612050 0.000000 0.000000 
#    y 0.000000 1.612050 0.000000 
#    z 0.000000 0.000000 1.645590 
# 
# From -- ./inp_files/1422.got.cif
#   From: 2010.03.12/outbox.cif.g09.slc.cpg/sg100_cif.got.tgz:1422.got - 2010.04.14 01:37:57.
