data_PCOD8306193
_publ_section_title
;
Structure prediction by ZEFSAII (Michael W. Deem and Ramdas Pophale) SiO2 
 PCOD8306193
Probable space group: I 41 2 2
;
_chemical_formula_sum "Si O2"
_cell_formula_units_Z 120
_cell_length_a 16.567978
_cell_length_b 16.567978
_cell_length_c 29.350150
_cell_angle_alpha 90.000000
_cell_angle_beta 90.000000
_cell_angle_gamma 90.000000
_cell_volume 8056.554393
_symmetry_space_group_name_H-M "I 41 2 2"
_symmetry_group_IT_number 98
_symmetry_cell_setting 'tetragonal'
loop_
_space_group_symop_operation_xyz
x,y,z
-y,1/2+x,1/4+z
-x,-y,z
y,1/2-x,1/4+z
x,1/2-y,1/4-z
-x,1/2+y,1/4-z
y,x,-z
-y,-x,-z
1/2+x,1/2+y,1/2+z
1/2-y,x,3/4+z
1/2-x,1/2-y,1/2+z
1/2+y,-x,3/4+z
1/2+x,-y,3/4-z
1/2-x,y,3/4-z
1/2+y,1/2+x,1/2-z
1/2-y,1/2-x,1/2-z
loop_
_atom_site_type_symbol
_atom_site_label
_atom_site_fract_x
_atom_site_fract_y
_atom_site_fract_z
Si Si1 0.615288 0.942428 0.528700
Si Si2 0.277589 0.250000 0.125000
Si Si3 0.161563 0.528574 0.363117
Si Si4 0.560229 0.387907 0.707859
Si Si5 0.073897 0.315245 0.277480
Si Si6 0.384220 0.149527 0.875276
Si Si7 0.910328 0.292648 0.228764
Si Si8 0.319353 0.207807 0.026787
O O1 0.531848 0.892198 0.523852
O O2 0.642674 0.940547 0.581044
O O3 0.681210 0.905543 0.494107
O O4 0.607146 0.038043 0.518237
O O5 0.220126 0.176857 0.138498
O O6 0.331319 0.228316 0.080499
O O7 0.250000 0.559244 0.375000
O O8 0.100089 0.559034 0.402445
O O9 0.162984 0.431783 0.361827
O O10 0.147480 0.567161 0.313446
O O11 0.602604 0.302418 0.718399
O O12 0.106919 0.393082 0.250000
O O13 0.063670 0.329253 0.331175
O O14 0.134317 0.241569 0.268121
O O15 0.984231 0.294659 0.263129
O O16 0.827982 0.327982 0.250000
O O17 0.286213 0.286213 0.000000
#
# Coordination Sequence:
#
# PCOD8306193 Si02
#       8
#    16   8  16  16  16  16  16  16
#     4  10  18  32  50  62  93 123 166 199 233 293
#     4  10  18  26  46  76  98 122 150 188 248 294
#     4   9  17  29  44  60  91 127 168 197 225 263
#     4   9  20  33  45  66  85 129 169 199 237 270
#     4  10  19  28  39  60 100 134 164 190 231 272
#     4  10  17  26  44  64  93 134 158 190 226 281
#     4  11  21  32  44  62  94 130 169 211 235 266
#     4  10  18  29  47  71  97 125 154 192 244 294
#
# _framework density 14.894705
#
# number of rings (size 3 to 8) (size 9 to 14) (size 15 to 20)
#    0.000    2.133    4.667    0.000    1.867    0.267 
#    0.000    0.000    0.000    0.000    5.200    0.000 
#    0.000    0.533    0.000    0.267    0.000    0.000 
#
# Total GULP energy -743449.255205 kJ/mol
# GULP energy per Si atom -12390.820920 kJ/mol
# Density = 1.486080 g / cm^3
# Si number density = 14.894705 Si / 1000 Ang^3
#
#
#
# Elastic Constant Matrix: (Units=GPa)
#
#
# Indices 1 2 3 4 5 6 
#
# 1 65.0776 28.9111 39.3508 0.0000 0.0000 0.0000
# 2 28.9111 65.0771 39.3506 0.0000 0.0000 0.0000
# 3 39.3508 39.3506 77.1953 0.0000 0.0000 0.0000
# 4 0.0000 0.0000 0.0000 12.1258 0.0000 0.0000
# 5 0.0000 0.0000 0.0000 0.0000 12.1215 0.0000
# 6 0.0000 0.0000 0.0000 0.0000 0.0000 21.0422
#
#
#
# Elastic Compliance Matrix: (Units=1/GPa)
#
#
# Indices 1 2 3 4 5 6 
#
# 1 0.023107 -0.004543 -0.009463 0.000000 0.000000 0.000000
# 2 -0.004543 0.023107 -0.009463 0.000000 0.000000 0.000000
# 3 -0.009463 -0.009463 0.022602 0.000000 0.000000 0.000000
# 4 0.000000 0.000000 0.000000 0.082469 0.000000 0.000000
# 5 0.000000 0.000000 0.000000 0.000000 0.082498 0.000000
# 6 0.000000 0.000000 0.000000 0.000000 0.000000 0.047524
#
#
# Mechanical properties :
#
#
# Convention : Reuss Voigt Hill
#
# Bulk Modulus (GPa) = 45.70985 46.95277 46.33131
# Shear Modulus (GPa) = 14.90159 15.70708 15.30433
#
# Velocity S-wave (km/s) = 3.16644 3.25089 3.20894
# Velocity P-wave (km/s) = 6.64257 6.75889 6.70098
#
# Compressibility (1/GPa) = 0.02187712
#
# Stress axis : x y z
#
# Youngs Moduli (GPa) = 43.27770 43.27752 44.24484
#
# Poissons Ratio (x) = 0.19663 0.41868
# Poissons Ratio (y) = 0.19663 0.41868
# Poissons Ratio (z) = 0.40953 0.40952
#
# Static dielectric constant tensor:
#      x y z
#    x 2.811590 0.000000 0.000000 
#    y 0.000000 2.811700 0.000000 
#    z 0.000000 0.000000 2.996950 
# 
# 
# High freq. dielectric constant tensor:
#      x y z
#    x 1.539340 0.000000 0.000000 
#    y 0.000000 1.539340 0.000000 
#    z 0.000000 0.000000 1.573770 
# 
# From -- ./inp_files/11026.got.cif
#   From: 2010.03.12/outbox.cif.g09.slc.cpg/sg98_6_cif.got.tgz:11026.got - 2010.04.08 21:04:41.
