data_PCOD8306605
_publ_section_title
;
Structure prediction by ZEFSAII (Michael W. Deem and Ramdas Pophale) SiO2 
 PCOD8306605
Probable space group: P 4 M M
;
_chemical_formula_sum "Si O2"
_cell_formula_units_Z 64
_cell_length_a 23.701259
_cell_length_b 23.701259
_cell_length_c 5.269135
_cell_angle_alpha 90.000000
_cell_angle_beta 90.000000
_cell_angle_gamma 90.000000
_cell_volume 2959.934891
_symmetry_space_group_name_H-M "P 4 M M"
_symmetry_group_IT_number 99
_symmetry_cell_setting 'tetragonal'
loop_
_space_group_symop_operation_xyz
x,y,z
-y,x,z
-x,-y,z
y,-x,z
-x,y,z
x,-y,z
-y,-x,z
y,x,z
loop_
_atom_site_type_symbol
_atom_site_label
_atom_site_fract_x
_atom_site_fract_y
_atom_site_fract_z
Si Si1 0.729392 0.634400 0.335410
Si Si2 0.436768 0.746746 0.840687
Si Si3 0.936589 0.273196 0.163570
Si Si4 0.848458 0.937362 0.408098
Si Si5 0.158728 0.689469 0.485253
Si Si6 0.936101 0.564916 0.301573
Si Si7 0.407651 0.130589 0.811594
Si Si8 0.785862 0.869575 0.785328
O O1 0.678004 0.678004 0.352230
O O2 0.728410 0.594779 0.582946
O O3 0.788730 0.668650 0.315519
O O4 0.722805 0.596971 0.083292
O O5 0.500000 0.720689 0.839327
O O6 0.445530 0.814395 0.862917
O O7 0.937253 0.207540 0.240721
O O8 0.902716 0.316284 0.344259
O O9 0.000000 0.296440 0.125736
O O10 0.900536 0.267899 0.908212
O O11 0.896511 0.896511 0.290572
O O12 0.830394 0.915706 0.686020
O O13 0.873834 0.000000 0.432628
O O14 0.155529 0.653497 0.742683
O O15 0.164736 0.755696 0.553702
O O16 0.936118 0.500000 0.217827
O O17 0.903822 0.569929 0.568247
O O18 0.000000 0.587373 0.334288
O O19 0.906889 0.597639 0.065738
O O20 0.821919 0.821919 0.941195
#
# Coordination Sequence:
#
# PCOD8306605 Si02
#       8
#     8   8   8   8   8   8   8   8
#     4  11  24  42  67 102 142 177 221 278 330 388
#     4  11  23  42  69  98 135 182 225 268 325 394
#     4  10  21  36  54  76 105 147 198 251 309 379
#     4   9  18  33  50  73  98 125 169 224 292 374
#     4  10  24  38  54  83 119 158 202 253 318 383
#     4  11  23  39  59  82 111 154 210 271 331 386
#     4  11  23  39  59  86 119 161 211 267 323 383
#     4  10  20  35  56  76 101 142 187 237 304 379
#
# _framework density 21.622095999999999
#
# number of rings (size 3 to 8) (size 9 to 14) (size 15 to 20)
#    0.000    1.625    0.000    4.875    5.250    4.125 
#    0.000    0.000    0.000    0.000    0.000    1.750 
#    0.000   17.500    0.000    0.000    0.000    0.000 
#
# Total GULP energy -792937.804957 kJ/mol
# GULP energy per Si atom -12389.653202 kJ/mol
# Density = 2.157288 g / cm^3
# Si number density = 21.622096 Si / 1000 Ang^3
#
#
#
# Elastic Constant Matrix: (Units=GPa)
#
#
# Indices 1 2 3 4 5 6 
#
# 1 81.8430 59.6933 32.2468 0.0000 0.0000 0.0000
# 2 59.6933 81.8430 32.2468 0.0000 0.0000 0.0000
# 3 32.2468 32.2468 109.3033 0.0000 0.0000 0.0000
# 4 0.0000 0.0000 0.0000 30.3907 0.0000 0.0000
# 5 0.0000 0.0000 0.0000 0.0000 30.3907 0.0000
# 6 0.0000 0.0000 0.0000 0.0000 0.0000 22.1054
#
#
#
# Elastic Compliance Matrix: (Units=1/GPa)
#
#
# Indices 1 2 3 4 5 6 
#
# 1 0.026655 -0.018492 -0.002408 0.000000 0.000000 0.000000
# 2 -0.018492 0.026655 -0.002408 0.000000 0.000000 0.000000
# 3 -0.002408 -0.002408 0.010570 0.000000 0.000000 0.000000
# 4 0.000000 0.000000 0.000000 0.032905 0.000000 0.000000
# 5 0.000000 0.000000 0.000000 0.000000 0.032905 0.000000
# 6 0.000000 0.000000 0.000000 0.000000 0.000000 0.045238
#
#
# Mechanical properties :
#
#
# Convention : Reuss Voigt Hill
#
# Bulk Modulus (GPa) = 57.92922 57.92922 57.92922
# Shear Modulus (GPa) = 21.99749 26.49752 24.24751
#
# Velocity S-wave (km/s) = 3.19307 3.50449 3.35240
# Velocity P-wave (km/s) = 6.35957 6.57458 6.46797
#
# Compressibility (1/GPa) = 0.01726245
#
# Stress axis : x y z
#
# Youngs Moduli (GPa) = 37.51641 37.51641 94.60952
#
# Poissons Ratio (x) = 0.69377 0.22783
# Poissons Ratio (y) = 0.69377 0.22783
# Poissons Ratio (z) = 0.09035 0.09035
#
# Static dielectric constant tensor:
#      x y z
#    x 3.884150 0.000000 0.000000 
#    y 0.000000 3.884150 0.000000 
#    z 0.000000 0.000000 3.859140 
# 
# 
# High freq. dielectric constant tensor:
#      x y z
#    x 1.841930 0.000000 0.000000 
#    y 0.000000 1.841930 0.000000 
#    z 0.000000 0.000000 1.848920 
# 
# From -- ./inp_files/540.got.cif
#   From: 2010.03.12/outbox.cif.g09.slc.cpg/sg99_cif.got.tgz:540.got - 2010.04.08 21:11:30.
