data_PCOD8306655
_publ_section_title
;
Structure prediction by ZEFSAII (Michael W. Deem and Ramdas Pophale) SiO2 
 PCOD8306655
Probable space group: P 4 B M
;
_chemical_formula_sum "Si O2"
_cell_formula_units_Z 56
_cell_length_a 14.154753
_cell_length_b 14.154753
_cell_length_c 14.479523
_cell_angle_alpha 90.000000
_cell_angle_beta 90.000000
_cell_angle_gamma 90.000000
_cell_volume 2901.074260
_symmetry_space_group_name_H-M "P 4 B M"
_symmetry_group_IT_number 100
_symmetry_cell_setting 'tetragonal'
loop_
_space_group_symop_operation_xyz
x,y,z
-y,x,z
-x,-y,z
y,-x,z
1/2-x,1/2+y,z
1/2+x,1/2-y,z
1/2-y,1/2-x,z
1/2+y,1/2+x,z
loop_
_atom_site_type_symbol
_atom_site_label
_atom_site_fract_x
_atom_site_fract_y
_atom_site_fract_z
Si Si1 0.633184 0.284961 0.443620
Si Si2 0.364393 0.571435 0.814340
Si Si3 0.646338 0.000001 0.533860
Si Si4 0.633187 0.715037 0.624090
Si Si5 0.635610 0.571430 0.253369
Si Si6 0.897259 0.756990 0.077916
Si Si7 0.243010 0.102743 0.989792
O O1 0.731478 0.231478 0.421582
O O2 0.548699 0.210364 0.456937
O O3 0.648711 0.351290 0.533854
O O4 0.599091 0.346819 0.358979
O O5 0.374820 0.461052 0.835880
O O6 0.346824 0.599097 0.708730
O O7 0.278006 0.602340 0.879961
O O8 0.580129 0.080129 0.581977
O O9 0.580127 0.919874 0.485745
O O10 0.710366 0.951300 0.610780
O O11 0.731482 0.768519 0.646127
O O12 0.538952 0.625179 0.231830
O O13 0.721997 0.602333 0.187748
O O14 0.837878 0.662123 0.059348
O O15 0.848645 0.848647 0.033856
O O16 1.000000 0.741913 0.033852
O O17 0.337879 0.162122 0.008361
#
# Coordination Sequence:
#
# PCOD8306655 Si02
#       7
#     8   8   8   8   8   8   8
#     4  10  20  35  55  82 118 156 199 251 303 364
#     4  11  22  36  59  88 118 157 205 253 306 373
#     4   9  18  34  54  75 106 154 200 239 294 354
#     4  10  20  35  55  82 118 156 199 251 303 364
#     4  11  22  36  59  88 118 157 205 253 306 373
#     4  11  23  42  67  93 123 160 204 257 313 371
#     4  11  23  42  67  93 123 160 204 257 313 371
#
# _framework density 19.303194000000001
#
# number of rings (size 3 to 8) (size 9 to 14) (size 15 to 20)
#    0.000    1.571    2.857    2.571    0.000    0.571 
#    0.000    4.286    0.000    3.429    0.000    0.000 
#    0.000    0.000    0.000    0.000    0.000    0.000 
#
# Total GULP energy -694194.979469 kJ/mol
# GULP energy per Si atom -12396.338919 kJ/mol
# Density = 1.925926 g / cm^3
# Si number density = 19.303194 Si / 1000 Ang^3
#
#
#
# Elastic Constant Matrix: (Units=GPa)
#
#
# Indices 1 2 3 4 5 6 
#
# 1 56.5935 95.7853 39.4700 0.0000 0.0000 -0.0027
# 2 95.7853 56.5935 39.4700 0.0000 0.0000 0.0027
# 3 39.4700 39.4700 110.5059 0.0000 0.0000 0.0000
# 4 0.0000 0.0000 0.0000 30.6521 0.0000 0.0000
# 5 0.0000 0.0000 0.0000 0.0000 30.6521 0.0000
# 6 -0.0027 0.0027 0.0000 0.0000 0.0000 83.6809
#
#
#
# Elastic Compliance Matrix: (Units=1/GPa)
#
#
# Indices 1 2 3 4 5 6 
#
# 1 -0.008731 0.016784 -0.002876 0.000000 0.000000 -0.000001
# 2 0.016784 -0.008731 -0.002876 0.000000 0.000000 0.000001
# 3 -0.002876 -0.002876 0.011104 0.000000 0.000000 0.000000
# 4 0.000000 0.000000 0.000000 0.032624 0.000000 0.000000
# 5 0.000000 0.000000 0.000000 0.000000 0.032624 0.000000
# 6 -0.000001 0.000001 0.000000 0.000000 0.000000 0.011950
#
#
# Mechanical properties :
#
#
# Convention : Reuss Voigt Hill
#
# Bulk Modulus (GPa) = 63.67668 63.68263 63.67966
# Shear Modulus (GPa) = 92.57402 32.26154 62.41778
#
# Velocity S-wave (km/s) = 6.93268 4.09260 5.69260
# Velocity P-wave (km/s) = 9.85606 7.44277 8.73318
#
# Compressibility (1/GPa) = 0.01570434
#
# Stress axis : x y z
#
# Youngs Moduli (GPa) = -114.52831 -114.52831 90.05840
#
# Poissons Ratio (x) = 1.92225 0.25903
# Poissons Ratio (y) = 1.92225 0.25903
# Poissons Ratio (z) = -0.32941 -0.32941
#
# Static dielectric constant tensor:
#      x y z
#    x 3.604780 0.000000 0.000000 
#    y 0.000000 3.604780 0.000000 
#    z 0.000000 0.000000 3.321950 
# 
# 
# High freq. dielectric constant tensor:
#      x y z
#    x 1.757710 0.000000 0.000000 
#    y 0.000000 1.757710 0.000000 
#    z 0.000000 0.000000 1.737870 
# 
# From -- ./inp_files/1319.got.cif
#   From: 2010.03.12/outbox.cif.g09.slc.cpg/sg100_cif.got.tgz:1319.got - 2010.04.14 01:37:57.
