data_PCOD8306594
_publ_section_title
;
Structure prediction by ZEFSAII (Michael W. Deem and Ramdas Pophale) SiO2 
 PCOD8306594
Probable space group: P 4 M M
;
_chemical_formula_sum "Si O2"
_cell_formula_units_Z 64
_cell_length_a 13.660138
_cell_length_b 13.660138
_cell_length_c 20.536268
_cell_angle_alpha 90.000000
_cell_angle_beta 90.000000
_cell_angle_gamma 90.000000
_cell_volume 3832.054675
_symmetry_space_group_name_H-M "P 4 M M"
_symmetry_group_IT_number 99
_symmetry_cell_setting 'tetragonal'
loop_
_space_group_symop_operation_xyz
x,y,z
-y,x,z
-x,-y,z
y,-x,z
-x,y,z
x,-y,z
-y,-x,z
y,x,z
loop_
_atom_site_type_symbol
_atom_site_label
_atom_site_fract_x
_atom_site_fract_y
_atom_site_fract_z
Si Si1 0.277551 0.116015 0.676070
Si Si2 0.773470 0.386161 0.567837
Si Si3 0.384310 0.892014 0.915439
Si Si4 0.233088 0.388706 0.420670
Si Si5 0.383344 0.107492 0.301806
Si Si6 0.612136 0.231463 0.181744
Si Si7 0.383645 0.224954 0.788743
Si Si8 0.228928 0.612602 0.036714
O O1 0.174131 0.174131 0.679220
O O2 0.336152 0.141638 0.610204
O O3 0.348115 0.147757 0.734921
O O4 0.256618 0.000000 0.678938
O O5 0.757839 0.500000 0.587100
O O6 0.670261 0.329740 0.579197
O O7 0.810134 0.376351 0.493301
O O8 0.500000 0.901938 0.914934
O O9 0.351637 0.819771 0.857977
O O10 0.337433 0.000000 0.905893
O O11 0.348128 0.850176 0.984866
O O12 0.255738 0.500000 0.403778
O O13 0.336404 0.336404 0.414386
O O14 0.158835 0.344482 0.367528
O O15 0.500000 0.102686 0.301628
O O16 0.344437 0.159378 0.236329
O O17 0.337204 0.000000 0.301678
O O18 0.500000 0.254310 0.196526
O O19 0.665022 0.334979 0.186449
O O20 0.626476 0.184928 0.109590
O O21 0.500000 0.242111 0.782735
O O22 0.329150 0.329150 0.779502
O O23 0.255099 0.500000 0.022789
O O24 0.329631 0.670370 0.028038
#
# Coordination Sequence:
#
# PCOD8306594 Si02
#       8
#     8   8   8   8   8   8   8   8
#     4  10  21  36  53  73  96 123 159 202 244 285
#     4   9  18  31  47  70  98 127 159 192 228 275
#     4   9  17  29  45  64  87 118 155 191 225 261
#     4   9  17  29  45  66  93 122 151 183 218 261
#     4   9  17  28  41  58  82 113 148 184 222 263
#     4   9  17  28  42  61  86 115 146 181 221 269
#     4  10  20  33  50  73 100 129 160 192 229 277
#     4   9  17  28  42  62  88 117 148 182 222 271
#
# _framework density 16.701222000000001
#
# number of rings (size 3 to 8) (size 9 to 14) (size 15 to 20)
#    0.000    2.750    0.000    1.500    0.000    3.250 
#    0.000    6.250    0.000    6.750    0.000    0.000 
#    0.000    6.250    0.000   11.000    0.000    1.000 
#
# Total GULP energy -793328.568408 kJ/mol
# GULP energy per Si atom -12395.758881 kJ/mol
# Density = 1.666321 g / cm^3
# Si number density = 16.701222 Si / 1000 Ang^3
#
#
#
# Elastic Constant Matrix: (Units=GPa)
#
#
# Indices 1 2 3 4 5 6 
#
# 1 88.5952 40.7900 48.9686 0.0000 0.0000 0.0000
# 2 40.7900 88.5952 48.9686 0.0000 0.0000 0.0000
# 3 48.9686 48.9686 126.4583 0.0000 0.0000 0.0000
# 4 0.0000 0.0000 0.0000 21.3732 0.0000 0.0000
# 5 0.0000 0.0000 0.0000 0.0000 21.3732 0.0000
# 6 0.0000 0.0000 0.0000 0.0000 0.0000 9.3179
#
#
#
# Elastic Compliance Matrix: (Units=1/GPa)
#
#
# Indices 1 2 3 4 5 6 
#
# 1 0.015926 -0.004992 -0.004234 0.000000 0.000000 0.000000
# 2 -0.004992 0.015926 -0.004234 0.000000 0.000000 0.000000
# 3 -0.004234 -0.004234 0.011187 0.000000 0.000000 0.000000
# 4 0.000000 0.000000 0.000000 0.046788 0.000000 0.000000
# 5 0.000000 0.000000 0.000000 0.000000 0.046788 0.000000
# 6 0.000000 0.000000 0.000000 0.000000 0.000000 0.107321
#
#
# Mechanical properties :
#
#
# Convention : Reuss Voigt Hill
#
# Bulk Modulus (GPa) = 62.04016 64.56702 63.30359
# Shear Modulus (GPa) = 18.10103 21.40761 19.75432
#
# Velocity S-wave (km/s) = 3.29571 3.58411 3.44293
# Velocity P-wave (km/s) = 7.19096 7.47474 7.33422
#
# Compressibility (1/GPa) = 0.01611859
#
# Stress axis : x y z
#
# Youngs Moduli (GPa) = 62.79067 62.79067 89.39188
#
# Poissons Ratio (x) = 0.31347 0.37847
# Poissons Ratio (y) = 0.31347 0.37847
# Poissons Ratio (z) = 0.26585 0.26585
#
# Static dielectric constant tensor:
#      x y z
#    x 2.992380 0.000000 0.000000 
#    y 0.000000 2.992380 0.000000 
#    z 0.000000 0.000000 3.507980 
# 
# 
# High freq. dielectric constant tensor:
#      x y z
#    x 1.619060 0.000000 0.000000 
#    y 0.000000 1.619060 0.000000 
#    z 0.000000 0.000000 1.667040 
# 
# From -- ./inp_files/2247.got.cif
#   From: 2010.03.12/outbox.cif.g09.slc.cpg/sg99_cif.got.tgz:2247.got - 2010.04.08 21:11:30.
