data_PCOD8306087
_publ_section_title
;
Structure prediction by ZEFSAII (Michael W. Deem and Ramdas Pophale) SiO2 
 PCOD8306087
Probable space group: I 4 2 2 
;
_chemical_formula_sum "Si O2"
_cell_formula_units_Z 80
_cell_length_a 26.615538
_cell_length_b 26.615538
_cell_length_c 5.947720
_cell_angle_alpha 90.000000
_cell_angle_beta 90.000000
_cell_angle_gamma 90.000000
_cell_volume 4213.286713
_symmetry_space_group_name_H-M "I 4 2 2 "
_symmetry_group_IT_number 97
_symmetry_cell_setting 'tetragonal'
loop_
_space_group_symop_operation_xyz
x,y,z
-y,x,z
-x,-y,z
y,-x,z
x,-y,-z
-x,y,-z
y,x,-z
-y,-x,-z
1/2+x,1/2+y,1/2+z
1/2-y,1/2+x,1/2+z
1/2-x,1/2-y,1/2+z
1/2+y,1/2-x,1/2+z
1/2+x,1/2-y,1/2-z
1/2-x,1/2+y,1/2-z
1/2+y,1/2+x,1/2-z
1/2-y,1/2-x,1/2-z
loop_
_atom_site_type_symbol
_atom_site_label
_atom_site_fract_x
_atom_site_fract_y
_atom_site_fract_z
Si Si1 0.145753 0.277359 0.739834
Si Si2 0.950242 0.858245 0.655528
Si Si3 0.804736 0.804736 0.000000
Si Si4 0.236626 0.947523 0.966766
Si Si5 0.206305 0.881480 0.361954
Si Si6 0.940986 0.940986 0.000000
O O1 0.164663 0.335338 0.750000
O O2 0.184617 0.251549 0.917730
O O3 0.088524 0.272420 0.822078
O O4 0.146915 0.251067 0.496724
O O5 0.960829 0.816691 0.847901
O O6 0.904228 0.837051 0.513954
O O7 0.926995 0.909238 0.774524
O O8 0.000000 0.868597 0.500000
O O9 0.820561 0.840219 0.793256
O O10 0.229655 0.925360 0.213250
O O11 0.265775 0.000000 0.000000
O O12 0.000000 0.929195 0.000000
#
# Coordination Sequence:
#
# PCOD8306087 Si02
#       6
#    16  16   8  16  16   8
#     4  10  23  36  56  85 122 159 186 234 291 360
#     4  11  23  43  66  78 103 140 190 257 308 371
#     4  10  22  35  53  82 108 149 186 232 284 367
#     4  10  20  39  62  90 109 144 202 241 289 350
#     4  10  22  39  60  85 111 144 191 244 294 352
#     4  11  28  49  57  76 100 136 188 246 330 396
#
# _framework density 18.987552999999998
#
# number of rings (size 3 to 8) (size 9 to 14) (size 15 to 20)
#    0.000    1.700    2.000    1.200    2.800   12.000 
#    7.200    1.000    0.000    0.000    0.000    0.000 
#    0.000    0.000    0.000   12.600    0.000    0.000 
#
# Total GULP energy -495592.737927 kJ/mol
# GULP energy per Si atom -12389.818448 kJ/mol
# Density = 1.894434 g / cm^3
# Si number density = 18.987553 Si / 1000 Ang^3
#
#
#
# Elastic Constant Matrix: (Units=GPa)
#
#
# Indices 1 2 3 4 5 6 
#
# 1 90.0279 57.8913 43.6258 0.0000 0.0000 0.0000
# 2 57.8913 90.0223 43.6245 0.0000 0.0000 0.0000
# 3 43.6258 43.6245 116.6517 0.0000 0.0000 0.0000
# 4 0.0000 0.0000 0.0000 19.0826 0.0000 0.0000
# 5 0.0000 0.0000 0.0000 0.0000 19.0826 0.0000
# 6 0.0000 0.0000 0.0000 0.0000 0.0000 31.3935
#
#
#
# Elastic Compliance Matrix: (Units=1/GPa)
#
#
# Indices 1 2 3 4 5 6 
#
# 1 0.019896 -0.011223 -0.003244 0.000000 0.000000 0.000000
# 2 -0.011223 0.019898 -0.003244 0.000000 0.000000 0.000000
# 3 -0.003244 -0.003244 0.010999 0.000000 0.000000 0.000000
# 4 0.000000 0.000000 0.000000 0.052404 0.000000 0.000000
# 5 0.000000 0.000000 0.000000 0.000000 0.052404 0.000000
# 6 0.000000 0.000000 0.000000 0.000000 0.000000 0.031854
#
#
# Mechanical properties :
#
#
# Convention : Reuss Voigt Hill
#
# Bulk Modulus (GPa) = 65.05632 65.22055 65.13843
# Shear Modulus (GPa) = 21.92993 24.01578 22.97286
#
# Velocity S-wave (km/s) = 3.40216 3.56028 3.48212
# Velocity P-wave (km/s) = 7.05478 7.16411 7.10966
#
# Compressibility (1/GPa) = 0.01537130
#
# Stress axis : x y z
#
# Youngs Moduli (GPa) = 50.26060 50.25744 90.91887
#
# Poissons Ratio (x) = 0.56403 0.29493
# Poissons Ratio (y) = 0.56407 0.29494
# Poissons Ratio (z) = 0.16304 0.16303
#
# Static dielectric constant tensor:
#      x y z
#    x 3.294960 0.000000 0.000000 
#    y 0.000000 3.294970 0.000000 
#    z 0.000000 0.000000 4.014560 
# 
# 
# High freq. dielectric constant tensor:
#      x y z
#    x 1.706330 0.000000 0.000000 
#    y 0.000000 1.706330 0.000000 
#    z 0.000000 0.000000 1.766710 
# 
# From -- ./inp_files/1008.got.cif
#   From: 2010.03.12/outbox.cif.g09.slc.cpg/sg97_1_cif.got.tgz:1008.got - 2010.04.08 20:59:42.
