data_PCOD8306432
_publ_section_title
;
Structure prediction by ZEFSAII (Michael W. Deem and Ramdas Pophale) SiO2 
 PCOD8306432
Probable space group: P 4 M M
;
_chemical_formula_sum "Si O2"
_cell_formula_units_Z 64
_cell_length_a 13.828104
_cell_length_b 13.828104
_cell_length_c 20.804511
_cell_angle_alpha 90.000000
_cell_angle_beta 90.000000
_cell_angle_gamma 90.000000
_cell_volume 3978.164950
_symmetry_space_group_name_H-M "P 4 M M"
_symmetry_group_IT_number 99
_symmetry_cell_setting 'tetragonal'
loop_
_space_group_symop_operation_xyz
x,y,z
-y,x,z
-x,-y,z
y,-x,z
-x,y,z
x,-y,z
-y,-x,z
y,x,z
loop_
_atom_site_type_symbol
_atom_site_label
_atom_site_fract_x
_atom_site_fract_y
_atom_site_fract_z
Si Si1 0.890535 0.385322 0.254720
Si Si2 0.730118 0.887931 0.034230
Si Si3 0.614686 0.107220 0.393247
Si Si4 0.393056 0.885343 0.771619
Si Si5 0.265651 0.889696 0.887831
Si Si6 0.884354 0.608539 0.530545
Si Si7 0.114279 0.267971 0.651099
Si Si8 0.614560 0.771070 0.133083
O O1 0.896158 0.500000 0.250540
O O2 0.844847 0.354053 0.324786
O O3 0.820188 0.347652 0.198981
O O4 0.000000 0.344288 0.245653
O O5 0.829972 0.829972 0.047186
O O6 0.642979 0.843678 0.075732
O O7 0.747684 0.000000 0.052266
O O8 0.696349 0.876954 0.960402
O O9 0.500000 0.101304 0.397008
O O10 0.647798 0.156796 0.460884
O O11 0.658757 0.000000 0.390410
O O12 0.500000 0.839565 0.766498
O O13 0.347108 0.850707 0.839048
O O14 0.329736 0.849146 0.711819
O O15 0.400588 0.000000 0.769361
O O16 0.166992 0.833009 0.876226
O O17 0.239932 0.000000 0.872134
O O18 0.846445 0.500000 0.544907
O O19 0.848841 0.677910 0.587102
O O20 0.000000 0.607040 0.527122
O O21 0.163084 0.163084 0.653761
O O22 0.000000 0.252092 0.651551
O O23 0.500000 0.752464 0.131834
O O24 0.668285 0.668285 0.125284
#
# Coordination Sequence:
#
# PCOD8306432 Si02
#       8
#     8   8   8   8   8   8   8   8
#     4   8  13  23  41  63  84 106 133 169 216 265
#     4   9  18  31  47  69  95 121 149 179 212 254
#     4   7  10  18  35  59  83 105 130 163 207 256
#     4   9  17  29  44  61  81 106 137 174 213 245
#     4   9  17  29  45  67  95 122 145 168 196 239
#     4   8  13  23  40  60  82 108 136 169 210 250
#     4  10  19  29  41  58  82 111 142 174 207 250
#     4  10  20  32  45  62  85 114 150 190 229 270
#
# _framework density 16.087821000000002
#
# number of rings (size 3 to 8) (size 9 to 14) (size 15 to 20)
#    0.000    3.250    0.000    2.625    0.000    3.250 
#    0.000    3.125    0.000    2.250    0.000    0.000 
#    0.000   11.750    0.000    7.875    0.000    0.375 
#
# Total GULP energy -792868.649145 kJ/mol
# GULP energy per Si atom -12388.572643 kJ/mol
# Density = 1.605120 g / cm^3
# Si number density = 16.087821 Si / 1000 Ang^3
#
#
#
# Elastic Constant Matrix: (Units=GPa)
#
#
# Indices 1 2 3 4 5 6 
#
# 1 62.6952 32.0947 45.4397 0.0000 0.0000 0.0002
# 2 32.0947 62.6952 45.4397 0.0000 0.0000 -0.0002
# 3 45.4397 45.4397 135.3279 0.0000 0.0000 0.0000
# 4 0.0000 0.0000 0.0000 15.4166 0.0000 0.0000
# 5 0.0000 0.0000 0.0000 0.0000 15.4166 0.0000
# 6 0.0002 -0.0002 0.0000 0.0000 0.0000 10.9819
#
#
#
# Elastic Compliance Matrix: (Units=1/GPa)
#
#
# Indices 1 2 3 4 5 6 
#
# 1 0.024119 -0.008561 -0.005224 0.000000 0.000000 -0.000001
# 2 -0.008561 0.024119 -0.005224 0.000000 0.000000 0.000001
# 3 -0.005224 -0.005224 0.010898 0.000000 0.000000 0.000000
# 4 0.000000 0.000000 0.000000 0.064865 0.000000 0.000000
# 5 0.000000 0.000000 0.000000 0.000000 0.064865 0.000000
# 6 -0.000001 0.000001 0.000000 0.000000 0.000000 0.091059
#
#
# Mechanical properties :
#
#
# Convention : Reuss Voigt Hill
#
# Bulk Modulus (GPa) = 47.35329 56.29625 51.82477
# Shear Modulus (GPa) = 15.38553 17.54596 16.46575
#
# Velocity S-wave (km/s) = 3.09584 3.30606 3.20268
# Velocity P-wave (km/s) = 6.50209 7.04574 6.77936
#
# Compressibility (1/GPa) = 0.02111786
#
# Stress axis : x y z
#
# Youngs Moduli (GPa) = 41.46161 41.46161 91.76282
#
# Poissons Ratio (x) = 0.35493 0.47937
# Poissons Ratio (y) = 0.35493 0.47937
# Poissons Ratio (z) = 0.21660 0.21660
#
# Static dielectric constant tensor:
#      x y z
#    x 2.743510 0.000000 0.000000 
#    y 0.000000 2.743510 0.000000 
#    z 0.000000 0.000000 3.579190 
# 
# 
# High freq. dielectric constant tensor:
#      x y z
#    x 1.579900 0.000000 0.000000 
#    y 0.000000 1.579900 0.000000 
#    z 0.000000 0.000000 1.646520 
# 
# From -- ./inp_files/2261.got.cif
#   From: 2010.03.12/outbox.cif.g09.slc.cpg/sg99_cif.got.tgz:2261.got - 2010.04.08 21:11:30.
