data_PCOD8306357
_publ_section_title
;
Structure prediction by ZEFSAII (Michael W. Deem and Ramdas Pophale) SiO2 
 PCOD8306357
Probable space group: I 41 2 2
;
_chemical_formula_sum "Si O2"
_cell_formula_units_Z 88
_cell_length_a 11.037176
_cell_length_b 11.037176
_cell_length_c 31.947817
_cell_angle_alpha 90.000000
_cell_angle_beta 90.000000
_cell_angle_gamma 90.000000
_cell_volume 3891.859236
_symmetry_space_group_name_H-M "I 41 2 2"
_symmetry_group_IT_number 98
_symmetry_cell_setting 'tetragonal'
loop_
_space_group_symop_operation_xyz
x,y,z
-y,1/2+x,1/4+z
-x,-y,z
y,1/2-x,1/4+z
x,1/2-y,1/4-z
-x,1/2+y,1/4-z
y,x,-z
-y,-x,-z
1/2+x,1/2+y,1/2+z
1/2-y,x,3/4+z
1/2-x,1/2-y,1/2+z
1/2+y,-x,3/4+z
1/2+x,-y,3/4-z
1/2-x,y,3/4-z
1/2+y,1/2+x,1/2-z
1/2-y,1/2-x,1/2-z
loop_
_atom_site_type_symbol
_atom_site_label
_atom_site_fract_x
_atom_site_fract_y
_atom_site_fract_z
Si Si1 0.800160 0.655728 0.829536
Si Si2 0.000000 0.000000 0.895287
Si Si3 0.190842 0.101940 0.958649
Si Si4 0.891809 0.295723 0.708800
Si Si5 0.785631 0.454402 0.082723
Si Si6 0.393119 0.930110 0.994829
O O1 0.750000 0.628533 0.875000
O O2 0.731196 0.763963 0.805390
O O3 0.790923 0.533063 0.802818
O O4 0.936761 0.692934 0.838033
O O5 0.050200 0.885562 0.869224
O O6 0.885366 0.958034 0.921847
O O7 0.299947 0.013149 0.969865
O O8 0.109767 0.109767 0.000000
O O9 0.881562 0.381562 0.750000
O O10 0.804121 0.337491 0.670629
O O11 0.837242 0.162714 0.721383
O O12 0.855059 0.468994 0.039316
O O13 0.500000 0.000000 0.019420
#
# Coordination Sequence:
#
# PCOD8306357 Si02
#       6
#    16   8  16  16  16  16
#     4  12  24  48  76 116 152 199 254 314 394 467
#     4  12  25  48  74 108 152 204 260 322 384 472
#     4  12  27  46  76 106 147 197 255 316 382 458
#     4  10  26  46  76 115 154 200 253 317 392 471
#     4  11  23  44  73 109 147 200 251 313 390 454
#     4  11  22  46  74 106 144 195 255 306 373 458
#
# _framework density 22.611301999999998
#
# number of rings (size 3 to 8) (size 9 to 14) (size 15 to 20)
#    0.000    0.727    4.545    1.909    2.545    6.545 
#    9.818    0.000    0.000    0.000    0.000    0.000 
#    0.000    0.000    0.000    0.000    0.000    0.000 
#
# Total GULP energy -545302.221300 kJ/mol
# GULP energy per Si atom -12393.232302 kJ/mol
# Density = 2.255984 g / cm^3
# Si number density = 22.611302 Si / 1000 Ang^3
#
#
#
# Elastic Constant Matrix: (Units=GPa)
#
#
# Indices 1 2 3 4 5 6 
#
# 1 149.8847 79.5803 64.4172 0.0000 0.0000 0.0000
# 2 79.5803 149.8847 64.4172 0.0000 0.0000 0.0000
# 3 64.4172 64.4172 111.8699 0.0000 0.0000 0.0000
# 4 0.0000 0.0000 0.0000 31.6787 0.0000 0.0000
# 5 0.0000 0.0000 0.0000 0.0000 31.6787 0.0000
# 6 0.0000 0.0000 0.0000 0.0000 0.0000 34.6205
#
#
#
# Elastic Compliance Matrix: (Units=1/GPa)
#
#
# Indices 1 2 3 4 5 6 
#
# 1 0.010332 -0.003892 -0.003708 0.000000 0.000000 0.000000
# 2 -0.003892 0.010332 -0.003708 0.000000 0.000000 0.000000
# 3 -0.003708 -0.003708 0.013210 0.000000 0.000000 0.000000
# 4 0.000000 0.000000 0.000000 0.031567 0.000000 0.000000
# 5 0.000000 0.000000 0.000000 0.000000 0.031567 0.000000
# 6 0.000000 0.000000 0.000000 0.000000 0.000000 0.028885
#
#
# Mechanical properties :
#
#
# Convention : Reuss Voigt Hill
#
# Bulk Modulus (GPa) = 88.83824 92.05206 90.44515
# Shear Modulus (GPa) = 32.83831 33.14389 32.99110
#
# Velocity S-wave (km/s) = 3.81503 3.83274 3.82390
# Velocity P-wave (km/s) = 7.66685 7.77082 7.71901
#
# Compressibility (1/GPa) = 0.01125641
#
# Stress axis : x y z
#
# Youngs Moduli (GPa) = 96.78728 96.78728 75.70247
#
# Poissons Ratio (x) = 0.37669 0.28073
# Poissons Ratio (y) = 0.37669 0.28073
# Poissons Ratio (z) = 0.35892 0.35892
#
# Static dielectric constant tensor:
#      x y z
#    x 4.393100 0.000000 0.000000 
#    y 0.000000 4.393100 0.000000 
#    z 0.000000 0.000000 4.052680 
# 
# 
# High freq. dielectric constant tensor:
#      x y z
#    x 1.904090 0.000000 0.000000 
#    y 0.000000 1.904090 0.000000 
#    z 0.000000 0.000000 1.884250 
# 
# From -- ./inp_files/11929.got.cif
#   From: 2010.03.12/outbox.cif.g09.slc.cpg/sg98_6_cif.got.tgz:11929.got - 2010.04.08 21:04:41.
