data_PCOD8306030
_publ_section_title
;
Structure prediction by ZEFSAII (Michael W. Deem and Ramdas Pophale) SiO2 
 PCOD8306030
Probable space group: I 4 2 2 
;
_chemical_formula_sum "Si O2"
_cell_formula_units_Z 56
_cell_length_a 17.574210
_cell_length_b 17.574210
_cell_length_c 10.624150
_cell_angle_alpha 90.000000
_cell_angle_beta 90.000000
_cell_angle_gamma 90.000000
_cell_volume 3281.299082
_symmetry_space_group_name_H-M "I 4 2 2 "
_symmetry_group_IT_number 97
_symmetry_cell_setting 'tetragonal'
loop_
_space_group_symop_operation_xyz
x,y,z
-y,x,z
-x,-y,z
y,-x,z
x,-y,-z
-x,y,-z
y,x,-z
-y,-x,-z
1/2+x,1/2+y,1/2+z
1/2-y,1/2+x,1/2+z
1/2-x,1/2-y,1/2+z
1/2+y,1/2-x,1/2+z
1/2+x,1/2-y,1/2-z
1/2-x,1/2+y,1/2-z
1/2+y,1/2+x,1/2-z
1/2-y,1/2-x,1/2-z
loop_
_atom_site_type_symbol
_atom_site_label
_atom_site_fract_x
_atom_site_fract_y
_atom_site_fract_z
Si Si1 0.356045 0.912730 0.375427
Si Si2 0.414953 0.708446 0.968467
Si Si3 0.064346 0.689999 0.253813
Si Si4 0.000000 0.347583 0.000000
O O1 0.361100 0.861100 0.250000
O O2 0.281347 0.887226 0.451119
O O3 0.431497 0.901917 0.457833
O O4 0.351327 0.002059 0.342624
O O5 0.411868 0.730436 0.819703
O O6 0.500000 0.682173 0.000000
O O7 0.361134 0.638867 0.000000
O O8 0.137518 0.637518 0.250000
O O9 0.029390 0.705574 0.115056
#
# Coordination Sequence:
#
# PCOD8306030 Si02
#       4
#    16  16  16   8
#     4   9  19  31  48  78 109 139 176 214 255 328
#     4  10  21  38  54  74 102 135 185 236 276 325
#     4  10  19  31  50  79 111 149 178 215 266 328
#     4  10  18  31  50  78 116 149 180 204 264 333
#
# _framework density 17.066410000000001
#
# number of rings (size 3 to 8) (size 9 to 14) (size 15 to 20)
#    0.000    2.286    2.857    0.000    0.000    7.714 
#    0.000    0.000    0.000    0.000    0.000    0.000 
#    0.000   20.571    0.000    0.000    0.000    0.000 
#
# Total GULP energy -347112.292091 kJ/mol
# GULP energy per Si atom -12396.867575 kJ/mol
# Density = 1.702757 g / cm^3
# Si number density = 17.066410 Si / 1000 Ang^3
#
#
#
# Elastic Constant Matrix: (Units=GPa)
#
#
# Indices 1 2 3 4 5 6 
#
# 1 90.0638 60.8024 53.2431 0.0000 0.0000 0.0000
# 2 60.8024 90.0690 53.2442 0.0000 0.0000 0.0000
# 3 53.2431 53.2442 124.4339 0.0000 0.0000 0.0000
# 4 0.0000 0.0000 0.0000 21.1179 0.0000 0.0000
# 5 0.0000 0.0000 0.0000 0.0000 21.1176 0.0000
# 6 0.0000 0.0000 0.0000 0.0000 0.0000 26.7079
#
#
#
# Elastic Compliance Matrix: (Units=1/GPa)
#
#
# Indices 1 2 3 4 5 6 
#
# 1 0.021835 -0.012338 -0.004063 0.000000 0.000000 0.000000
# 2 -0.012338 0.021833 -0.004063 0.000000 0.000000 0.000000
# 3 -0.004063 -0.004063 0.011514 0.000000 0.000000 0.000000
# 4 0.000000 0.000000 0.000000 0.047353 0.000000 0.000000
# 5 0.000000 0.000000 0.000000 0.000000 0.047354 0.000000
# 6 0.000000 0.000000 0.000000 0.000000 0.000000 0.037442
#
#
# Mechanical properties :
#
#
# Convention : Reuss Voigt Hill
#
# Bulk Modulus (GPa) = 70.16108 71.01624 70.58866
# Shear Modulus (GPa) = 21.45827 22.94049 22.19938
#
# Velocity S-wave (km/s) = 3.54974 3.67030 3.61052
# Velocity P-wave (km/s) = 7.61583 7.72421 7.67021
#
# Compressibility (1/GPa) = 0.01425292
#
# Stress axis : x y z
#
# Youngs Moduli (GPa) = 45.79878 45.80163 86.85315
#
# Poissons Ratio (x) = 0.56509 0.35292
# Poissons Ratio (y) = 0.56505 0.35290
# Poissons Ratio (z) = 0.18610 0.18610
#
# Static dielectric constant tensor:
#      x y z
#    x 2.893010 0.000000 0.000000 
#    y 0.000000 2.893010 0.000000 
#    z 0.000000 0.000000 3.834560 
# 
# 
# High freq. dielectric constant tensor:
#      x y z
#    x 1.627640 0.000000 0.000000 
#    y 0.000000 1.627640 0.000000 
#    z 0.000000 0.000000 1.681960 
# 
# From -- ./inp_files/3347.got.cif
#   From: 2010.03.12/outbox.cif.g09.slc.cpg/sg97_2_cif.got.tgz:3347.got - 2010.04.08 20:59:42.
