data_PCOD8306665
_publ_section_title
;
Structure prediction by ZEFSAII (Michael W. Deem and Ramdas Pophale) SiO2 
 PCOD8306665
Probable space group: P 4 B M
;
_chemical_formula_sum "Si O2"
_cell_formula_units_Z 56
_cell_length_a 13.889327
_cell_length_b 13.889327
_cell_length_c 16.960287
_cell_angle_alpha 90.000000
_cell_angle_beta 90.000000
_cell_angle_gamma 90.000000
_cell_volume 3271.866707
_symmetry_space_group_name_H-M "P 4 B M"
_symmetry_group_IT_number 100
_symmetry_cell_setting 'tetragonal'
loop_
_space_group_symop_operation_xyz
x,y,z
-y,x,z
-x,-y,z
y,-x,z
1/2-x,1/2+y,z
1/2+x,1/2-y,z
1/2-y,1/2-x,z
1/2+y,1/2+x,z
loop_
_atom_site_type_symbol
_atom_site_label
_atom_site_fract_x
_atom_site_fract_y
_atom_site_fract_z
Si Si1 0.556348 0.351941 0.468850
Si Si2 0.101701 0.760619 0.060447
Si Si3 0.850323 0.056930 0.298848
Si Si4 0.099854 0.241631 0.139750
Si Si5 0.758369 0.099852 0.797950
Si Si6 0.398297 0.260622 0.877255
Si Si7 0.556930 0.350323 0.638852
O O1 0.621183 0.445636 0.468850
O O2 0.576555 0.299060 0.384919
O O3 0.576555 0.299060 0.552782
O O4 0.169289 0.669289 0.075231
O O5 0.145571 0.854954 0.101888
O O6 0.999877 0.734940 0.097849
O O7 0.089454 0.784004 0.968851
O O8 0.773422 0.085519 0.232948
O O9 0.945282 0.121962 0.289781
O O10 0.167464 0.332537 0.124567
O O11 0.667464 0.167464 0.813133
O O12 0.854429 0.145041 0.835815
O O13 0.773422 0.085519 0.704752
O O14 0.734939 0.000120 0.839851
O O15 0.330705 0.169296 0.862469
O O16 0.621962 0.445282 0.647918
#
# Coordination Sequence:
#
# PCOD8306665 Si02
#       7
#     8   8   8   8   8   8   8
#     4   7  12  22  43  72 100 129 160 200 252 303
#     4  10  22  38  54  75 103 133 169 212 256 304
#     4   9  15  28  49  74 102 131 165 208 256 303
#     4  11  21  34  53  77 103 134 173 213 254 303
#     4  11  21  34  53  77 103 134 173 213 254 303
#     4  10  22  38  54  75 103 133 169 212 256 304
#     4   9  15  28  49  74 102 131 165 208 256 303
#
# _framework density 17.115611999999999
#
# number of rings (size 3 to 8) (size 9 to 14) (size 15 to 20)
#    0.000    2.429    2.857    2.571    0.000    2.857 
#    0.000    3.571    0.000    0.000    0.000    1.000 
#    0.000    2.286    0.000    0.000    0.000    0.000 
#
# Total GULP energy -694025.689310 kJ/mol
# GULP energy per Si atom -12393.315881 kJ/mol
# Density = 1.707666 g / cm^3
# Si number density = 17.115612 Si / 1000 Ang^3
#
#
#
# Elastic Constant Matrix: (Units=GPa)
#
#
# Indices 1 2 3 4 5 6 
#
# 1 62.2755 14.2845 39.6176 0.0000 0.0000 0.0001
# 2 14.2845 62.2755 39.6176 0.0000 0.0000 -0.0001
# 3 39.6176 39.6176 152.4459 0.0000 0.0000 0.0000
# 4 0.0000 0.0000 0.0000 22.6795 0.0000 0.0000
# 5 0.0000 0.0000 0.0000 0.0000 22.6795 0.0000
# 6 0.0001 -0.0001 0.0000 0.0000 0.0000 11.0785
#
#
#
# Elastic Compliance Matrix: (Units=1/GPa)
#
#
# Indices 1 2 3 4 5 6 
#
# 1 0.019352 -0.001485 -0.004643 0.000000 0.000000 0.000000
# 2 -0.001485 0.019352 -0.004643 0.000000 0.000000 0.000000
# 3 -0.004643 -0.004643 0.008973 0.000000 0.000000 0.000000
# 4 0.000000 0.000000 0.000000 0.044093 0.000000 0.000000
# 5 0.000000 0.000000 0.000000 0.000000 0.044093 0.000000
# 6 0.000000 0.000000 0.000000 0.000000 0.000000 0.090265
#
#
# Mechanical properties :
#
#
# Convention : Reuss Voigt Hill
#
# Bulk Modulus (GPa) = 38.26393 51.55957 44.91175
# Shear Modulus (GPa) = 19.50211 23.51932 21.51071
#
# Velocity S-wave (km/s) = 3.37921 3.71097 3.54897
# Velocity P-wave (km/s) = 6.13434 6.96788 6.56436
#
# Compressibility (1/GPa) = 0.02613427
#
# Stress axis : x y z
#
# Youngs Moduli (GPa) = 51.67363 51.67363 111.44403
#
# Poissons Ratio (x) = 0.07674 0.51747
# Poissons Ratio (y) = 0.07674 0.51747
# Poissons Ratio (z) = 0.23994 0.23994
#
# Static dielectric constant tensor:
#      x y z
#    x 2.892820 0.000000 0.000000 
#    y 0.000000 2.892820 0.000000 
#    z 0.000000 0.000000 3.713830 
# 
# 
# High freq. dielectric constant tensor:
#      x y z
#    x 1.631020 0.000000 0.000000 
#    y 0.000000 1.631020 0.000000 
#    z 0.000000 0.000000 1.690260 
# 
# From -- ./inp_files/1419.got.cif
#   From: 2010.03.12/outbox.cif.g09.slc.cpg/sg100_cif.got.tgz:1419.got - 2010.04.14 01:37:57.
