data_PCOD8306324
_publ_section_title
;
Structure prediction by ZEFSAII (Michael W. Deem and Ramdas Pophale) SiO2 
 PCOD8306324
Probable space group: I 41 2 2
;
_chemical_formula_sum "Si O2"
_cell_formula_units_Z 72
_cell_length_a 15.818043
_cell_length_b 15.818043
_cell_length_c 14.090384
_cell_angle_alpha 90.000000
_cell_angle_beta 90.000000
_cell_angle_gamma 90.000000
_cell_volume 3525.561805
_symmetry_space_group_name_H-M "I 41 2 2"
_symmetry_group_IT_number 98
_symmetry_cell_setting 'tetragonal'
loop_
_space_group_symop_operation_xyz
x,y,z
-y,1/2+x,1/4+z
-x,-y,z
y,1/2-x,1/4+z
x,1/2-y,1/4-z
-x,1/2+y,1/4-z
y,x,-z
-y,-x,-z
1/2+x,1/2+y,1/2+z
1/2-y,x,3/4+z
1/2-x,1/2-y,1/2+z
1/2+y,-x,3/4+z
1/2+x,-y,3/4-z
1/2-x,y,3/4-z
1/2+y,1/2+x,1/2-z
1/2-y,1/2-x,1/2-z
loop_
_atom_site_type_symbol
_atom_site_label
_atom_site_fract_x
_atom_site_fract_y
_atom_site_fract_z
Si Si1 0.603332 0.896669 0.750000
Si Si2 0.361951 0.580173 0.757052
Si Si3 0.841881 0.281150 0.845978
Si Si4 0.194421 0.305580 0.750000
Si Si5 0.250000 0.048227 0.375000
Si Si6 0.842346 0.750000 0.125000
Si Si7 0.000000 0.500000 0.106202
O O1 0.695294 0.901193 0.802286
O O2 0.537747 0.921346 0.833257
O O3 0.379166 0.662068 0.820809
O O4 0.299118 0.598568 0.669443
O O5 0.319146 0.506846 0.819387
O O6 0.454208 0.564486 0.714287
O O7 0.750000 0.247252 0.875000
O O8 0.836776 0.336776 0.750000
O O9 0.108046 0.306465 0.691564
O O10 0.190374 0.220259 0.813890
#
# Coordination Sequence:
#
# PCOD8306324 Si02
#       7
#     8  16  16   8   8   8   8
#     4  10  22  43  58  84 128 163 206 258 310 384
#     4  11  22  40  63  88 127 160 207 267 313 379
#     4   9  18  40  64  87 112 162 219 250 291 371
#     4   9  20  33  60  98 114 157 206 251 314 382
#     4  11  20  36  60  89 128 156 200 257 310 376
#     4   9  18  40  68  79 116 170 216 243 300 404
#     4  11  26  40  53  96 136 154 203 272 330 369
#
# _framework density 20.422277000000001
#
# number of rings (size 3 to 8) (size 9 to 14) (size 15 to 20)
#    0.000    2.000    3.333    1.333    0.000    3.556 
#   14.000    0.000    0.000    0.000    0.000    0.000 
#    0.000    0.000    0.000    0.000    0.000    0.000 
#
# Total GULP energy -446016.691002 kJ/mol
# GULP energy per Si atom -12389.352528 kJ/mol
# Density = 2.037580 g / cm^3
# Si number density = 20.422277 Si / 1000 Ang^3
#
#
#
# Elastic Constant Matrix: (Units=GPa)
#
#
# Indices 1 2 3 4 5 6 
#
# 1 93.3941 63.8004 64.1953 0.0000 0.0000 0.0000
# 2 63.8004 93.3940 64.1955 0.0000 0.0000 0.0000
# 3 64.1953 64.1955 120.3529 0.0000 0.0000 0.0000
# 4 0.0000 0.0000 0.0000 37.3300 0.0000 0.0000
# 5 0.0000 0.0000 0.0000 0.0000 37.3301 0.0000
# 6 0.0000 0.0000 0.0000 0.0000 0.0000 29.4111
#
#
#
# Elastic Compliance Matrix: (Units=1/GPa)
#
#
# Indices 1 2 3 4 5 6 
#
# 1 0.022532 -0.011259 -0.006013 0.000000 0.000000 0.000000
# 2 -0.011259 0.022532 -0.006013 0.000000 0.000000 0.000000
# 3 -0.006013 -0.006013 0.014723 0.000000 0.000000 0.000000
# 4 0.000000 0.000000 0.000000 0.026788 0.000000 0.000000
# 5 0.000000 0.000000 0.000000 0.000000 0.026788 0.000000
# 6 0.000000 0.000000 0.000000 0.000000 0.000000 0.034001
#
#
# Mechanical properties :
#
#
# Convention : Reuss Voigt Hill
#
# Bulk Modulus (GPa) = 75.65768 76.83594 76.24681
# Shear Modulus (GPa) = 25.20944 28.47758 26.84351
#
# Velocity S-wave (km/s) = 3.51723 3.73827 3.62943
# Velocity P-wave (km/s) = 7.32268 7.50587 7.41484
#
# Compressibility (1/GPa) = 0.01321743
#
# Stress axis : x y z
#
# Youngs Moduli (GPa) = 44.38196 44.38168 67.92048
#
# Poissons Ratio (x) = 0.49971 0.40838
# Poissons Ratio (y) = 0.49971 0.40839
# Poissons Ratio (z) = 0.26685 0.26685
#
# Static dielectric constant tensor:
#      x y z
#    x 3.560420 0.000000 0.000000 
#    y 0.000000 3.560430 0.000000 
#    z 0.000000 0.000000 4.224640 
# 
# 
# High freq. dielectric constant tensor:
#      x y z
#    x 1.780530 0.000000 0.000000 
#    y 0.000000 1.780530 0.000000 
#    z 0.000000 0.000000 1.820000 
# 
# From -- ./inp_files/7557.got.cif
#   From: 2010.03.12/outbox.cif.g09.slc.cpg/sg98_4_cif.got.tgz:7557.got - 2010.04.08 21:04:41.
