data_PCOD8306692
_publ_section_title
;
Structure prediction by ZEFSAII (Michael W. Deem and Ramdas Pophale) SiO2 
 PCOD8306692
Probable space group: P 4 B M
;
_chemical_formula_sum "Si O2"
_cell_formula_units_Z 24
_cell_length_a 13.523929
_cell_length_b 13.523929
_cell_length_c 5.305705
_cell_angle_alpha 90.000000
_cell_angle_beta 90.000000
_cell_angle_gamma 90.000000
_cell_volume 970.395700
_symmetry_space_group_name_H-M "P 4 B M"
_symmetry_group_IT_number 100
_symmetry_cell_setting 'tetragonal'
loop_
_space_group_symop_operation_xyz
x,y,z
-y,x,z
-x,-y,z
y,-x,z
1/2-x,1/2+y,z
1/2+x,1/2-y,z
1/2-y,1/2-x,z
1/2+y,1/2+x,z
loop_
_atom_site_type_symbol
_atom_site_label
_atom_site_fract_x
_atom_site_fract_y
_atom_site_fract_z
Si Si1 0.843041 0.500000 0.901450
Si Si2 0.865496 0.202919 0.152819
Si Si3 0.634505 0.297081 0.650078
O O1 0.910874 0.410874 0.792400
O O2 0.775788 0.539258 0.669400
O O3 0.910873 0.589128 0.010502
O O4 0.775787 0.460743 0.133499
O O5 0.764223 0.264223 0.159949
O O6 0.867321 0.132679 0.401448
O O7 0.864904 0.135096 0.901448
O O8 0.735778 0.235778 0.642948
#
# Coordination Sequence:
#
# PCOD8306692 Si02
#       3
#     8   8   8
#     4   9  18  34  58  89 122 162 220 277 310 352
#     4   9  18  33  52  77 114 157 198 247 313 378
#     4   9  18  33  52  77 114 157 198 247 313 378
#
# _framework density 24.732177
#
# number of rings (size 3 to 8) (size 9 to 14) (size 15 to 20)
#    0.000    3.000    0.000    0.000    0.000    2.667 
#    0.000   10.000    0.000   29.000    0.000    4.667 
#    0.000    0.000    0.000    0.000    0.000    6.667 
#
# Total GULP energy -297353.939446 kJ/mol
# GULP energy per Si atom -12389.747477 kJ/mol
# Density = 2.467589 g / cm^3
# Si number density = 24.732177 Si / 1000 Ang^3
#
#
#
# Elastic Constant Matrix: (Units=GPa)
#
#
# Indices 1 2 3 4 5 6 
#
# 1 90.9556 74.3559 70.5741 0.0000 0.0000 0.0000
# 2 74.3559 90.9556 70.5741 0.0000 0.0000 0.0000
# 3 70.5741 70.5741 227.9991 0.0000 0.0000 0.0000
# 4 0.0000 0.0000 0.0000 24.0625 0.0000 0.0000
# 5 0.0000 0.0000 0.0000 0.0000 24.0625 0.0000
# 6 0.0000 0.0000 0.0000 0.0000 0.0000 48.7835
#
#
#
# Elastic Compliance Matrix: (Units=1/GPa)
#
#
# Indices 1 2 3 4 5 6 
#
# 1 0.034232 -0.026010 -0.002545 0.000000 0.000000 0.000000
# 2 -0.026010 0.034232 -0.002545 0.000000 0.000000 0.000000
# 3 -0.002545 -0.002545 0.005962 0.000000 0.000000 0.000000
# 4 0.000000 0.000000 0.000000 0.041558 0.000000 0.000000
# 5 0.000000 0.000000 0.000000 0.000000 0.041558 0.000000
# 6 0.000000 0.000000 0.000000 0.000000 0.000000 0.020499
#
#
# Mechanical properties :
#
#
# Convention : Reuss Voigt Hill
#
# Bulk Modulus (GPa) = 81.79460 93.43538 87.61499
# Shear Modulus (GPa) = 20.46522 32.34211 26.40367
#
# Velocity S-wave (km/s) = 2.87970 3.62013 3.27093
# Velocity P-wave (km/s) = 6.64837 7.43873 7.05463
#
# Compressibility (1/GPa) = 0.01222575
#
# Stress axis : x y z
#
# Youngs Moduli (GPa) = 29.21229 29.21229 167.74061
#
# Poissons Ratio (x) = 0.75981 0.42692
# Poissons Ratio (y) = 0.75981 0.42692
# Poissons Ratio (z) = 0.07435 0.07435
#
# Static dielectric constant tensor:
#      x y z
#    x 4.294370 0.000000 0.000000 
#    y 0.000000 4.294370 0.000000 
#    z 0.000000 0.000000 4.577430 
# 
# 
# High freq. dielectric constant tensor:
#      x y z
#    x 1.960380 0.000000 0.000000 
#    y 0.000000 1.960380 0.000000 
#    z 0.000000 0.000000 1.963220 
# 
# From -- ./inp_files/109.got.cif
#   From: 2010.03.12/outbox.cif.g09.slc.cpg/sg100_cif.got.tgz:109.got - 2010.04.14 01:37:57.
