data_PCOD8306308
_publ_section_title
;
Structure prediction by ZEFSAII (Michael W. Deem and Ramdas Pophale) SiO2 
 PCOD8306308
Probable space group: I 41 2 2
;
_chemical_formula_sum "Si O2"
_cell_formula_units_Z 112
_cell_length_a 13.715604
_cell_length_b 13.715604
_cell_length_c 27.478328
_cell_angle_alpha 90.000000
_cell_angle_beta 90.000000
_cell_angle_gamma 90.000000
_cell_volume 5169.162421
_symmetry_space_group_name_H-M "I 41 2 2"
_symmetry_group_IT_number 98
_symmetry_cell_setting 'tetragonal'
loop_
_space_group_symop_operation_xyz
x,y,z
-y,1/2+x,1/4+z
-x,-y,z
y,1/2-x,1/4+z
x,1/2-y,1/4-z
-x,1/2+y,1/4-z
y,x,-z
-y,-x,-z
1/2+x,1/2+y,1/2+z
1/2-y,x,3/4+z
1/2-x,1/2-y,1/2+z
1/2+y,-x,3/4+z
1/2+x,-y,3/4-z
1/2-x,y,3/4-z
1/2+y,1/2+x,1/2-z
1/2-y,1/2-x,1/2-z
loop_
_atom_site_type_symbol
_atom_site_label
_atom_site_fract_x
_atom_site_fract_y
_atom_site_fract_z
Si Si1 0.343205 0.574007 0.701949
Si Si2 0.500000 0.000000 0.115793
Si Si3 0.417664 0.131547 0.032195
Si Si4 0.609286 0.474199 0.599335
Si Si5 0.709639 0.386289 0.458789
Si Si6 0.629828 0.034540 0.203551
Si Si7 0.661528 0.661528 0.000000
Si Si8 0.569569 0.715407 0.483354
O O1 0.375773 0.514260 0.749454
O O2 0.372169 0.507555 0.656147
O O3 0.396118 0.677388 0.695515
O O4 0.228369 0.596702 0.703164
O O5 0.547368 0.910963 0.084517
O O6 0.422570 0.947789 0.151893
O O7 0.362214 0.237452 0.029876
O O8 0.332409 0.060833 0.013155
O O9 0.500000 0.500000 0.584851
O O10 0.634359 0.360618 0.587028
O O11 0.681861 0.547258 0.571606
O O12 0.697172 0.302829 0.500000
O O13 0.670982 0.488028 0.481250
O O14 0.565579 0.065579 0.250000
O O15 0.653895 0.920020 0.208242
O O16 0.675403 0.675403 0.500000
#
# Coordination Sequence:
#
# PCOD8306308 Si02
#       8
#    16   8  16  16  16  16   8  16
#     4  11  25  42  63 101 139 171 220 278 354 403
#     4  12  23  42  70 102 130 180 235 286 340 416
#     4  11  25  41  68  99 140 175 224 288 344 408
#     4  11  23  40  65  94 130 179 225 274 336 414
#     4  10  22  40  68  93 132 175 223 275 336 409
#     4  11  22  46  73  93 135 181 224 280 346 414
#     4  10  21  44  66  98 133 186 220 272 346 421
#     4  11  21  42  66  94 128 177 228 276 332 406
#
# _framework density 21.666951999999998
#
# number of rings (size 3 to 8) (size 9 to 14) (size 15 to 20)
#    0.000    1.143    3.571    2.571    3.000    1.714 
#    0.000    3.571    0.000    0.000    0.000    0.000 
#    0.000    0.000    0.000    0.000    0.000    0.000 
#
# Total GULP energy -694047.500748 kJ/mol
# GULP energy per Si atom -12393.705371 kJ/mol
# Density = 2.161764 g / cm^3
# Si number density = 21.666952 Si / 1000 Ang^3
#
#
#
# Elastic Constant Matrix: (Units=GPa)
#
#
# Indices 1 2 3 4 5 6 
#
# 1 98.0012 30.6204 41.0429 0.0000 0.0000 0.0000
# 2 30.6204 98.0021 41.0429 0.0000 0.0000 0.0000
# 3 41.0429 41.0429 131.0209 0.0000 0.0000 0.0000
# 4 0.0000 0.0000 0.0000 23.0068 0.0000 0.0000
# 5 0.0000 0.0000 0.0000 0.0000 23.0068 0.0000
# 6 0.0000 0.0000 0.0000 0.0000 0.0000 31.4758
#
#
#
# Elastic Compliance Matrix: (Units=1/GPa)
#
#
# Indices 1 2 3 4 5 6 
#
# 1 0.012279 -0.002562 -0.003044 0.000000 0.000000 0.000000
# 2 -0.002562 0.012279 -0.003044 0.000000 0.000000 0.000000
# 3 -0.003044 -0.003044 0.009539 0.000000 0.000000 0.000000
# 4 0.000000 0.000000 0.000000 0.043465 0.000000 0.000000
# 5 0.000000 0.000000 0.000000 0.000000 0.043465 0.000000
# 6 0.000000 0.000000 0.000000 0.000000 0.000000 0.031770
#
#
# Mechanical properties :
#
#
# Convention : Reuss Voigt Hill
#
# Bulk Modulus (GPa) = 59.53024 61.38185 60.45605
# Shear Modulus (GPa) = 28.45789 29.78573 29.12181
#
# Velocity S-wave (km/s) = 3.62805 3.71173 3.67013
# Velocity P-wave (km/s) = 6.71454 6.83816 6.77663
#
# Compressibility (1/GPa) = 0.01679819
#
# Stress axis : x y z
#
# Youngs Moduli (GPa) = 81.43841 81.43930 104.82751
#
# Poissons Ratio (x) = 0.20863 0.31910
# Poissons Ratio (y) = 0.20863 0.31909
# Poissons Ratio (z) = 0.24790 0.24790
#
# Static dielectric constant tensor:
#      x y z
#    x 3.882690 0.000000 0.000000 
#    y 0.000000 3.882690 0.000000 
#    z 0.000000 0.000000 3.729880 
# 
# 
# High freq. dielectric constant tensor:
#      x y z
#    x 1.854790 0.000000 0.000000 
#    y 0.000000 1.854790 0.000000 
#    z 0.000000 0.000000 1.840460 
# 
# From -- ./inp_files/11021.got.cif
#   From: 2010.03.12/outbox.cif.g09.slc.cpg/sg98_6_cif.got.tgz:11021.got - 2010.04.08 21:04:41.
