data_PCOD8306959
_publ_section_title
;
Structure prediction by ZEFSAII (Michael W. Deem and Ramdas Pophale) SiO2 
 PCOD8306959
Probable space group: P 42 N M
;
_chemical_formula_sum "Si O2"
_cell_formula_units_Z 48
_cell_length_a 12.904403
_cell_length_b 12.904403
_cell_length_c 16.650355
_cell_angle_alpha 90.000000
_cell_angle_beta 90.000000
_cell_angle_gamma 90.000000
_cell_volume 2772.677335
_symmetry_space_group_name_H-M "P 42 N M"
_symmetry_group_IT_number 102
_symmetry_cell_setting 'tetragonal'
loop_
_space_group_symop_operation_xyz
x,y,z
1/2-y,1/2+x,1/2+z
-x,-y,z
1/2+y,1/2-x,1/2+z
1/2-x,1/2+y,1/2+z
1/2+x,1/2-y,1/2+z
-y,-x,z
y,x,z
loop_
_atom_site_type_symbol
_atom_site_label
_atom_site_fract_x
_atom_site_fract_y
_atom_site_fract_z
Si Si1 0.705491 0.874838 0.070210
Si Si2 0.764749 0.066328 0.976676
Si Si3 0.879990 0.714058 0.388906
Si Si4 0.705492 0.125163 0.728201
Si Si5 0.066326 0.235250 0.821736
Si Si6 0.379990 0.214057 0.909505
O O1 0.811651 0.811651 0.082359
O O2 0.633804 0.866196 0.149206
O O3 0.638909 0.830243 0.997638
O O4 0.736714 0.993796 0.052382
O O5 0.859317 0.140684 0.001542
O O6 0.663016 0.132812 0.954293
O O7 0.800082 0.000001 0.899206
O O8 0.823795 0.823795 0.399963
O O9 0.861087 0.669760 0.300773
O O10 0.000000 0.733300 0.399204
O O11 0.811653 0.188348 0.716049
O O12 0.736714 0.006205 0.746030
O O13 0.140682 0.140682 0.796872
O O14 0.132812 0.336983 0.844118
O O15 0.323795 0.323795 0.898451
#
# Coordination Sequence:
#
# PCOD8306959 Si02
#       6
#     8   8   8   8   8   8
#     4   9  18  32  49  71  99 127 156 193 239 289
#     4   9  17  29  48  74  99 124 159 201 241 284
#     4   9  18  33  51  70  94 125 163 202 236 281
#     4   9  18  32  49  71  99 127 156 193 239 289
#     4   9  17  29  48  74  99 124 159 201 241 284
#     4   9  18  33  51  70  94 125 163 202 236 281
#
# _framework density 17.311786999999999
#
# number of rings (size 3 to 8) (size 9 to 14) (size 15 to 20)
#    0.000    3.000    0.000    3.000    0.000    8.667 
#    0.000    5.000    0.000   10.000    0.000    0.000 
#    0.000    0.000    0.000    0.000    0.000    0.000 
#
# Total GULP energy -595154.586698 kJ/mol
# GULP energy per Si atom -12399.053890 kJ/mol
# Density = 1.727239 g / cm^3
# Si number density = 17.311787 Si / 1000 Ang^3
#
#
#
# Elastic Constant Matrix: (Units=GPa)
#
#
# Indices 1 2 3 4 5 6 
#
# 1 139.0118 65.7912 56.0619 0.0000 0.0000 0.0005
# 2 65.7912 139.0118 56.0619 0.0000 0.0000 -0.0005
# 3 56.0619 56.0619 91.4651 0.0000 0.0000 0.0000
# 4 0.0000 0.0000 0.0000 24.7998 0.0000 0.0000
# 5 0.0000 0.0000 0.0000 0.0000 24.7998 0.0000
# 6 0.0005 -0.0005 0.0000 0.0000 0.0000 16.1042
#
#
#
# Elastic Compliance Matrix: (Units=1/GPa)
#
#
# Indices 1 2 3 4 5 6 
#
# 1 0.010503 -0.003154 -0.004504 0.000000 0.000000 0.000000
# 2 -0.003154 0.010503 -0.004504 0.000000 0.000000 0.000000
# 3 -0.004504 -0.004504 0.016455 0.000000 0.000000 0.000000
# 4 0.000000 0.000000 0.000000 0.040323 0.000000 0.000000
# 5 0.000000 0.000000 0.000000 0.000000 0.040323 0.000000
# 6 0.000000 0.000000 0.000000 0.000000 0.000000 0.062096
#
#
# Mechanical properties :
#
#
# Convention : Reuss Voigt Hill
#
# Bulk Modulus (GPa) = 76.13180 80.59095 78.36138
# Shear Modulus (GPa) = 23.93420 25.91236 24.92328
#
# Velocity S-wave (km/s) = 3.72228 3.87305 3.79842
# Velocity P-wave (km/s) = 7.90861 8.16422 8.03743
#
# Compressibility (1/GPa) = 0.01313512
#
# Stress axis : x y z
#
# Youngs Moduli (GPa) = 95.21069 95.21069 60.77287
#
# Poissons Ratio (x) = 0.30033 0.27374
# Poissons Ratio (y) = 0.30033 0.27374
# Poissons Ratio (z) = 0.42885 0.42885
#
# Static dielectric constant tensor:
#      x y z
#    x 3.176160 0.000000 0.000000 
#    y 0.000000 3.176160 0.000000 
#    z 0.000000 0.000000 3.248310 
# 
# 
# High freq. dielectric constant tensor:
#      x y z
#    x 1.666010 0.000000 0.000000 
#    y 0.000000 1.666010 0.000000 
#    z 0.000000 0.000000 1.646190 
# 
# From -- ./inp_files/2731.got.cif
#   From: 2010.03.12/outbox.cif.g09.slc.cpg/sg102_2_cif.got.tgz:2731.got - 2010.04.14 01:40:42.
