data_PCOD8306842
_publ_section_title
;
Structure prediction by ZEFSAII (Michael W. Deem and Ramdas Pophale) SiO2 
 PCOD8306842
Probable space group: P 42 N M
;
_chemical_formula_sum "Si O2"
_cell_formula_units_Z 36
_cell_length_a 10.757857
_cell_length_b 10.757857
_cell_length_c 17.279713
_cell_angle_alpha 90.000000
_cell_angle_beta 90.000000
_cell_angle_gamma 90.000000
_cell_volume 1999.806884
_symmetry_space_group_name_H-M "P 42 N M"
_symmetry_group_IT_number 102
_symmetry_cell_setting 'tetragonal'
loop_
_space_group_symop_operation_xyz
x,y,z
1/2-y,1/2+x,1/2+z
-x,-y,z
1/2+y,1/2-x,1/2+z
1/2-x,1/2+y,1/2+z
1/2+x,1/2-y,1/2+z
-y,-x,z
y,x,z
loop_
_atom_site_type_symbol
_atom_site_label
_atom_site_fract_x
_atom_site_fract_y
_atom_site_fract_z
Si Si1 0.954645 0.759417 0.590970
Si Si2 0.500000 0.000000 0.840970
Si Si3 0.148540 0.486402 0.590970
Si Si4 0.665743 0.135182 0.462917
Si Si5 0.864819 0.334258 0.719023
O O1 0.896866 0.896866 0.590970
O O2 0.836092 0.662421 0.590970
O O3 0.039134 0.744206 0.514938
O O4 0.039132 0.744205 0.667002
O O5 0.437235 0.108128 0.890985
O O6 0.608128 0.062765 0.790956
O O7 0.199175 0.555107 0.513968
O O8 0.199173 0.555106 0.667972
O O9 0.000000 0.500000 0.590969
O O10 0.756338 0.243663 0.432330
O O11 0.756338 0.243663 0.749609
#
# Coordination Sequence:
#
# PCOD8306842 Si02
#       5
#     8   4   8   8   8
#     4  10  18  34  60  84 107 139 190 240 274 321
#     4  12  20  38  52  84 120 150 184 220 288 358
#     4   8  14  35  54  74  99 135 182 216 260 323
#     4  10  20  35  57  78 105 146 185 227 276 327
#     4  10  20  35  57  78 105 146 185 227 276 327
#
# _framework density 18.001738
#
# number of rings (size 3 to 8) (size 9 to 14) (size 15 to 20)
#    0.000    2.667    6.667    2.667    0.000    3.556 
#    0.000    0.000    0.000    5.333    0.000    0.000 
#    0.000    0.000    0.000    0.000    0.000    0.000 
#
# Total GULP energy -446020.250653 kJ/mol
# GULP energy per Si atom -12389.451407 kJ/mol
# Density = 1.796077 g / cm^3
# Si number density = 18.001738 Si / 1000 Ang^3
#
#
#
# Elastic Constant Matrix: (Units=GPa)
#
#
# Indices 1 2 3 4 5 6 
#
# 1 69.8568 51.0141 36.0168 0.0000 0.0000 -0.0003
# 2 51.0141 69.8568 36.0168 0.0000 0.0000 0.0003
# 3 36.0168 36.0168 109.3225 0.0000 0.0000 0.0000
# 4 0.0000 0.0000 0.0000 9.6714 0.0000 0.0000
# 5 0.0000 0.0000 0.0000 0.0000 9.6714 0.0000
# 6 -0.0003 0.0003 0.0000 0.0000 0.0000 42.4397
#
#
#
# Elastic Compliance Matrix: (Units=1/GPa)
#
#
# Indices 1 2 3 4 5 6 
#
# 1 0.031683 -0.021388 -0.003392 0.000000 0.000000 0.000000
# 2 -0.021388 0.031683 -0.003392 0.000000 0.000000 0.000000
# 3 -0.003392 -0.003392 0.011382 0.000000 0.000000 0.000000
# 4 0.000000 0.000000 0.000000 0.103398 0.000000 0.000000
# 5 0.000000 0.000000 0.000000 0.000000 0.103398 0.000000
# 6 0.000000 0.000000 0.000000 0.000000 0.000000 0.023563
#
#
# Mechanical properties :
#
#
# Convention : Reuss Voigt Hill
#
# Bulk Modulus (GPa) = 54.33389 55.01461 54.67425
# Shear Modulus (GPa) = 13.60238 20.75573 17.17905
#
# Velocity S-wave (km/s) = 2.75183 3.39925 3.09253
# Velocity P-wave (km/s) = 6.35176 6.78480 6.57185
#
# Compressibility (1/GPa) = 0.01840472
#
# Stress axis : x y z
#
# Youngs Moduli (GPa) = 31.56300 31.56300 87.85811
#
# Poissons Ratio (x) = 0.67507 0.29798
# Poissons Ratio (y) = 0.67507 0.29798
# Poissons Ratio (z) = 0.10705 0.10705
#
# Static dielectric constant tensor:
#      x y z
#    x 3.556540 0.000000 0.000000 
#    y 0.000000 3.556540 0.000000 
#    z 0.000000 0.000000 3.252890 
# 
# 
# High freq. dielectric constant tensor:
#      x y z
#    x 1.681510 0.000000 0.000000 
#    y 0.000000 1.681510 0.000000 
#    z 0.000000 0.000000 1.685910 
# 
# From -- ./inp_files/2603.got.cif
#   From: 2010.03.12/outbox.cif.g09.slc.cpg/sg102_2_cif.got.tgz:2603.got - 2010.04.14 01:40:42.
