data_PCOD8306471
_publ_section_title
;
Structure prediction by ZEFSAII (Michael W. Deem and Ramdas Pophale) SiO2 
 PCOD8306471
Probable space group: P 4 M M
;
_chemical_formula_sum "Si O2"
_cell_formula_units_Z 64
_cell_length_a 14.047794
_cell_length_b 14.047794
_cell_length_c 20.580554
_cell_angle_alpha 90.000000
_cell_angle_beta 90.000000
_cell_angle_gamma 90.000000
_cell_volume 4061.377151
_symmetry_space_group_name_H-M "P 4 M M"
_symmetry_group_IT_number 99
_symmetry_cell_setting 'tetragonal'
loop_
_space_group_symop_operation_xyz
x,y,z
-y,x,z
-x,-y,z
y,-x,z
-x,y,z
x,-y,z
-y,-x,z
y,x,z
loop_
_atom_site_type_symbol
_atom_site_label
_atom_site_fract_x
_atom_site_fract_y
_atom_site_fract_z
Si Si1 0.735226 0.890136 0.774340
Si Si2 0.769467 0.611898 0.865429
Si Si3 0.392521 0.240698 0.006929
Si Si4 0.394286 0.887466 0.510726
Si Si5 0.389385 0.234081 0.147226
Si Si6 0.891246 0.737555 0.625569
Si Si7 0.110644 0.391443 0.267768
Si Si8 0.887495 0.733073 0.390824
O O1 0.832158 0.832158 0.789053
O O2 0.647985 0.850446 0.816548
O O3 0.703813 0.878058 0.699571
O O4 0.754633 0.000000 0.791858
O O5 0.749269 0.500000 0.852727
O O6 0.671494 0.671494 0.855044
O O7 0.812862 0.629982 0.938643
O O8 0.500000 0.273018 0.006473
O O9 0.339729 0.339729 0.007409
O O10 0.369947 0.185954 0.075232
O O11 0.500000 0.841919 0.506204
O O12 0.347911 0.856453 0.579224
O O13 0.329177 0.851297 0.451668
O O14 0.403404 0.000000 0.506063
O O15 0.500000 0.259474 0.155777
O O16 0.331296 0.331296 0.155471
O O17 0.355870 0.160521 0.201940
O O18 0.831761 0.831761 0.610193
O O19 0.000000 0.764912 0.610362
O O20 0.138025 0.500000 0.285522
O O21 0.142249 0.324728 0.326750
O O22 0.000000 0.382094 0.254086
O O23 0.833999 0.833999 0.391259
O O24 0.000000 0.753545 0.393819
#
# Coordination Sequence:
#
# PCOD8306471 Si02
#       8
#     8   8   8   8   8   8   8   8
#     4   9  18  31  46  65  89 117 149 184 222 264
#     4   9  17  29  44  63  88 116 147 183 222 267
#     4   8  14  24  38  57  82 111 140 172 211 254
#     4   9  17  29  44  62  85 112 140 169 200 236
#     4   9  16  26  41  61  85 111 138 170 209 254
#     4   9  17  29  45  66  91 116 142 173 210 254
#     4   9  17  29  44  61  82 110 143 176 208 243
#     4  10  19  30  45  64  86 111 139 173 212 254
#
# _framework density 15.758201
#
# number of rings (size 3 to 8) (size 9 to 14) (size 15 to 20)
#    0.000    3.000    0.000    1.125    0.000    3.000 
#    0.000    5.625    0.000    4.500    0.000    0.000 
#    0.000   11.000    0.000    7.875    0.000    0.250 
#
# Total GULP energy -793013.110979 kJ/mol
# GULP energy per Si atom -12390.829859 kJ/mol
# Density = 1.572233 g / cm^3
# Si number density = 15.758201 Si / 1000 Ang^3
#
#
#
# Elastic Constant Matrix: (Units=GPa)
#
#
# Indices 1 2 3 4 5 6 
#
# 1 71.3339 38.1364 54.1568 0.0000 0.0000 0.0000
# 2 38.1364 71.3339 54.1568 0.0000 0.0000 0.0000
# 3 54.1568 54.1568 126.0648 0.0000 0.0000 0.0000
# 4 0.0000 0.0000 0.0000 24.0568 0.0000 0.0000
# 5 0.0000 0.0000 0.0000 0.0000 24.0568 0.0000
# 6 0.0000 0.0000 0.0000 0.0000 0.0000 17.4694
#
#
#
# Elastic Compliance Matrix: (Units=1/GPa)
#
#
# Indices 1 2 3 4 5 6 
#
# 1 0.023006 -0.007117 -0.006826 0.000000 0.000000 0.000000
# 2 -0.007117 0.023006 -0.006826 0.000000 0.000000 0.000000
# 3 -0.006826 -0.006826 0.013797 0.000000 0.000000 0.000000
# 4 0.000000 0.000000 0.000000 0.041568 0.000000 0.000000
# 5 0.000000 0.000000 0.000000 0.000000 0.041568 0.000000
# 6 0.000000 0.000000 0.000000 0.000000 0.000000 0.057243
#
#
# Mechanical properties :
#
#
# Convention : Reuss Voigt Hill
#
# Bulk Modulus (GPa) = 54.73050 62.40360 58.56705
# Shear Modulus (GPa) = 20.17638 21.26877 20.72257
#
# Velocity S-wave (km/s) = 3.58211 3.67781 3.63027
# Velocity P-wave (km/s) = 7.20524 7.59748 7.40396
#
# Compressibility (1/GPa) = 0.01827135
#
# Stress axis : x y z
#
# Youngs Moduli (GPa) = 43.46777 43.46777 72.48025
#
# Poissons Ratio (x) = 0.30937 0.49472
# Poissons Ratio (y) = 0.30937 0.49472
# Poissons Ratio (z) = 0.29669 0.29669
#
# Static dielectric constant tensor:
#      x y z
#    x 2.847950 0.000000 0.000000 
#    y 0.000000 2.847950 0.000000 
#    z 0.000000 0.000000 3.424510 
# 
# 
# High freq. dielectric constant tensor:
#      x y z
#    x 1.583580 0.000000 0.000000 
#    y 0.000000 1.583580 0.000000 
#    z 0.000000 0.000000 1.626440 
# 
# From -- ./inp_files/2041.got.cif
#   From: 2010.03.12/outbox.cif.g09.slc.cpg/sg99_cif.got.tgz:2041.got - 2010.04.08 21:11:30.
