data_PCOD8306338
_publ_section_title
;
Structure prediction by ZEFSAII (Michael W. Deem and Ramdas Pophale) SiO2 
 PCOD8306338
Probable space group: I 41 2 2
;
_chemical_formula_sum "Si O2"
_cell_formula_units_Z 80
_cell_length_a 10.262780
_cell_length_b 10.262780
_cell_length_c 32.871506
_cell_angle_alpha 90.000000
_cell_angle_beta 90.000000
_cell_angle_gamma 90.000000
_cell_volume 3462.179974
_symmetry_space_group_name_H-M "I 41 2 2"
_symmetry_group_IT_number 98
_symmetry_cell_setting 'tetragonal'
loop_
_space_group_symop_operation_xyz
x,y,z
-y,1/2+x,1/4+z
-x,-y,z
y,1/2-x,1/4+z
x,1/2-y,1/4-z
-x,1/2+y,1/4-z
y,x,-z
-y,-x,-z
1/2+x,1/2+y,1/2+z
1/2-y,x,3/4+z
1/2-x,1/2-y,1/2+z
1/2+y,-x,3/4+z
1/2+x,-y,3/4-z
1/2-x,y,3/4-z
1/2+y,1/2+x,1/2-z
1/2-y,1/2-x,1/2-z
loop_
_atom_site_type_symbol
_atom_site_label
_atom_site_fract_x
_atom_site_fract_y
_atom_site_fract_z
Si Si1 0.113181 0.206902 0.774335
Si Si2 0.290910 0.626190 0.780381
Si Si3 0.864385 0.050741 0.587265
Si Si4 0.054303 0.292340 0.169998
Si Si5 0.797512 0.054216 0.082460
O O1 0.231545 0.268456 0.750000
O O2 0.172050 0.084266 0.799505
O O3 0.003565 0.162235 0.742506
O O4 0.051801 0.315999 0.803676
O O5 0.230751 0.730751 0.750000
O O6 0.189191 0.602109 0.816962
O O7 0.422036 0.683191 0.800195
O O8 0.754063 0.061966 0.621503
O O9 0.000000 0.000000 0.606440
O O10 0.091524 0.250000 0.125000
O O11 0.144477 0.415667 0.179746
O O12 0.903302 0.330487 0.173084
#
# Coordination Sequence:
#
# PCOD8306338 Si02
#       5
#    16  16  16  16  16
#     4  11  23  44  74 107 149 196 243 301 372 444
#     4  10  23  42  71 104 148 188 242 299 372 424
#     4  11  21  42  76 104 148 192 241 310 369 434
#     4  11  24  47  74 102 150 196 246 297 373 445
#     4  11  25  46  72 110 144 192 251 309 360 450
#
# _framework density 23.106829999999999
#
# number of rings (size 3 to 8) (size 9 to 14) (size 15 to 20)
#    0.000    1.200    4.000    1.800    0.000    3.200 
#    3.600    8.000    0.000    0.000    0.000    0.000 
#    0.000    0.000    0.000    0.000    0.000    0.000 
#
# Total GULP energy -496151.192520 kJ/mol
# GULP energy per Si atom -12403.779813 kJ/mol
# Density = 2.305424 g / cm^3
# Si number density = 23.106830 Si / 1000 Ang^3
#
#
#
# Elastic Constant Matrix: (Units=GPa)
#
#
# Indices 1 2 3 4 5 6 
#
# 1 101.9351 50.6278 47.1391 0.0000 0.0000 0.0000
# 2 50.6278 101.9357 47.1389 0.0000 0.0000 0.0000
# 3 47.1391 47.1389 111.4867 0.0000 0.0000 0.0000
# 4 0.0000 0.0000 0.0000 39.3855 0.0000 0.0000
# 5 0.0000 0.0000 0.0000 0.0000 39.3851 0.0000
# 6 0.0000 0.0000 0.0000 0.0000 0.0000 33.9457
#
#
#
# Elastic Compliance Matrix: (Units=1/GPa)
#
#
# Indices 1 2 3 4 5 6 
#
# 1 0.014182 -0.005309 -0.003752 0.000000 0.000000 0.000000
# 2 -0.005309 0.014182 -0.003752 0.000000 0.000000 0.000000
# 3 -0.003752 -0.003752 0.012142 0.000000 0.000000 0.000000
# 4 0.000000 0.000000 0.000000 0.025390 0.000000 0.000000
# 5 0.000000 0.000000 0.000000 0.000000 0.025390 0.000000
# 6 0.000000 0.000000 0.000000 0.000000 0.000000 0.029459
#
#
# Mechanical properties :
#
#
# Convention : Reuss Voigt Hill
#
# Bulk Modulus (GPa) = 67.19734 67.24102 67.21918
# Shear Modulus (GPa) = 33.04048 33.90669 33.47359
#
# Velocity S-wave (km/s) = 3.78551 3.83481 3.81024
# Velocity P-wave (km/s) = 6.94630 6.98362 6.96498
#
# Compressibility (1/GPa) = 0.01488154
#
# Stress axis : x y z
#
# Youngs Moduli (GPa) = 70.51317 70.51384 82.35665
#
# Poissons Ratio (x) = 0.37433 0.30898
# Poissons Ratio (y) = 0.37433 0.30898
# Poissons Ratio (z) = 0.26455 0.26455
#
# Static dielectric constant tensor:
#      x y z
#    x 4.084500 0.000000 0.000000 
#    y 0.000000 4.084500 0.000000 
#    z 0.000000 0.000000 4.181580 
# 
# 
# High freq. dielectric constant tensor:
#      x y z
#    x 1.913680 0.000000 0.000000 
#    y 0.000000 1.913680 0.000000 
#    z 0.000000 0.000000 1.918740 
# 
# From -- ./inp_files/11772.got.cif
#   From: 2010.03.12/outbox.cif.g09.slc.cpg/sg98_6_cif.got.tgz:11772.got - 2010.04.08 21:04:41.
