data_PCOD8306118
_publ_section_title
;
Structure prediction by ZEFSAII (Michael W. Deem and Ramdas Pophale) SiO2 
 PCOD8306118
Probable space group: I 4 2 2 
;
_chemical_formula_sum "Si O2"
_cell_formula_units_Z 40
_cell_length_a 10.682321
_cell_length_b 10.682321
_cell_length_c 17.343987
_cell_angle_alpha 90.000000
_cell_angle_beta 90.000000
_cell_angle_gamma 90.000000
_cell_volume 1979.156731
_symmetry_space_group_name_H-M "I 4 2 2 "
_symmetry_group_IT_number 97
_symmetry_cell_setting 'tetragonal'
loop_
_space_group_symop_operation_xyz
x,y,z
-y,x,z
-x,-y,z
y,-x,z
x,-y,-z
-x,y,-z
y,x,-z
-y,-x,-z
1/2+x,1/2+y,1/2+z
1/2-y,1/2+x,1/2+z
1/2-x,1/2-y,1/2+z
1/2+y,1/2-x,1/2+z
1/2+x,1/2-y,1/2-z
1/2-x,1/2+y,1/2-z
1/2+y,1/2+x,1/2-z
1/2-y,1/2-x,1/2-z
loop_
_atom_site_type_symbol
_atom_site_label
_atom_site_fract_x
_atom_site_fract_y
_atom_site_fract_z
Si Si1 0.500000 0.709363 0.000000
Si Si2 0.801670 0.947183 0.795850
Si Si3 0.368337 0.936217 0.354417
O O1 0.376345 0.623656 0.000000
O O2 0.497995 0.801115 0.072793
O O3 0.729324 0.942086 0.715212
O O4 0.709562 0.907087 0.865815
O O5 0.912431 0.848655 0.802341
O O6 0.500000 0.000000 0.334284
#
# Coordination Sequence:
#
# PCOD8306118 Si02
#       3
#     8  16  16
#     4  11  25  44  66  90 127 177 218 264 328 391
#     4  10  22  39  65  96 128 166 214 269 325 379
#     4  11  24  38  65  96 129 167 217 270 325 383
#
# _framework density 20.210629999999998
#
# number of rings (size 3 to 8) (size 9 to 14) (size 15 to 20)
#    0.000    1.400    0.000    5.400   16.800    3.200 
#    0.000    0.000    0.000    0.000    0.000    0.000 
#    0.000    0.000    0.000    0.000    0.000    0.000 
#
# Total GULP energy -247836.024799 kJ/mol
# GULP energy per Si atom -12391.801240 kJ/mol
# Density = 2.016463 g / cm^3
# Si number density = 20.210630 Si / 1000 Ang^3
#
#
#
# Elastic Constant Matrix: (Units=GPa)
#
#
# Indices 1 2 3 4 5 6 
#
# 1 178.3602 42.5281 33.3979 0.0000 0.0000 0.0000
# 2 42.5281 178.3596 33.3978 0.0000 0.0000 0.0000
# 3 33.3979 33.3978 77.1082 0.0000 0.0000 0.0000
# 4 0.0000 0.0000 0.0000 22.0206 0.0000 0.0000
# 5 0.0000 0.0000 0.0000 0.0000 22.0219 0.0000
# 6 0.0000 0.0000 0.0000 0.0000 0.0000 5.1711
#
#
#
# Elastic Compliance Matrix: (Units=1/GPa)
#
#
# Indices 1 2 3 4 5 6 
#
# 1 0.006286 -0.001076 -0.002256 0.000000 0.000000 0.000000
# 2 -0.001076 0.006286 -0.002256 0.000000 0.000000 0.000000
# 3 -0.002256 -0.002256 0.014923 0.000000 0.000000 0.000000
# 4 0.000000 0.000000 0.000000 0.045412 0.000000 0.000000
# 5 0.000000 0.000000 0.000000 0.000000 0.045409 0.000000
# 6 0.000000 0.000000 0.000000 0.000000 0.000000 0.193382
#
#
# Mechanical properties :
#
#
# Convention : Reuss Voigt Hill
#
# Bulk Modulus (GPa) = 61.28632 72.49728 66.89180
# Shear Modulus (GPa) = 15.22927 31.47634 23.35280
#
# Velocity S-wave (km/s) = 2.74802 3.95069 3.40291
# Velocity P-wave (km/s) = 6.36070 7.53388 6.97201
#
# Compressibility (1/GPa) = 0.01631686
#
# Stress axis : x y z
#
# Youngs Moduli (GPa) = 159.08964 159.08911 67.00883
#
# Poissons Ratio (x) = 0.17122 0.15120
# Poissons Ratio (y) = 0.17122 0.15120
# Poissons Ratio (z) = 0.35897 0.35897
#
# Static dielectric constant tensor:
#      x y z
#    x 4.120610 0.000000 0.000000 
#    y 0.000000 4.120610 0.000000 
#    z 0.000000 0.000000 3.546960 
# 
# 
# High freq. dielectric constant tensor:
#      x y z
#    x 1.815090 0.000000 0.000000 
#    y 0.000000 1.815090 0.000000 
#    z 0.000000 0.000000 1.758760 
# 
# From -- ./inp_files/5206.got.cif
#   From: 2010.03.12/outbox.cif.g09.slc.cpg/sg97_3_cif.got.tgz:5206.got - 2010.04.08 20:59:42.
