data_PCOD8306163
_publ_section_title
;
Structure prediction by ZEFSAII (Michael W. Deem and Ramdas Pophale) SiO2 
 PCOD8306163
Probable space group: I 4 2 2 
;
_chemical_formula_sum "Si O2"
_cell_formula_units_Z 88
_cell_length_a 17.480783
_cell_length_b 17.480783
_cell_length_c 14.517585
_cell_angle_alpha 90.000000
_cell_angle_beta 90.000000
_cell_angle_gamma 90.000000
_cell_volume 4436.251312
_symmetry_space_group_name_H-M "I 4 2 2 "
_symmetry_group_IT_number 97
_symmetry_cell_setting 'tetragonal'
loop_
_space_group_symop_operation_xyz
x,y,z
-y,x,z
-x,-y,z
y,-x,z
x,-y,-z
-x,y,-z
y,x,-z
-y,-x,-z
1/2+x,1/2+y,1/2+z
1/2-y,1/2+x,1/2+z
1/2-x,1/2-y,1/2+z
1/2+y,1/2-x,1/2+z
1/2+x,1/2-y,1/2-z
1/2-x,1/2+y,1/2-z
1/2+y,1/2+x,1/2-z
1/2-y,1/2-x,1/2-z
loop_
_atom_site_type_symbol
_atom_site_label
_atom_site_fract_x
_atom_site_fract_y
_atom_site_fract_z
Si Si1 0.223768 0.623556 0.185702
Si Si2 0.271698 0.194127 0.653348
Si Si3 0.500000 0.840400 0.500000
Si Si4 0.520245 0.727209 0.333646
Si Si5 0.411318 0.840086 0.008734
Si Si6 0.660165 0.637838 0.396326
O O1 0.160651 0.660651 0.250000
O O2 0.296943 0.681284 0.177620
O O3 0.240364 0.538736 0.230110
O O4 0.187092 0.623019 0.086286
O O5 0.316957 0.183044 0.750000
O O6 0.286384 0.120504 0.590350
O O7 0.303464 0.269167 0.601095
O O8 0.526680 0.790105 0.413627
O O9 0.571568 0.891923 0.530395
O O10 0.589583 0.668085 0.338988
O O11 0.439925 0.685056 0.344895
O O12 0.500000 0.827989 0.000000
O O13 0.628275 0.628275 0.500000
#
# Coordination Sequence:
#
# PCOD8306163 Si02
#       6
#    16  16   8  16  16  16
#     4  11  22  41  65  91 122 171 224 271 323 400
#     4  11  22  41  68  93 123 172 236 267 325 403
#     4  12  21  42  60  91 128 172 220 264 339 396
#     4  12  23  37  65  93 131 165 215 274 337 406
#     4  12  26  39  63  94 131 171 218 276 334 402
#     4  12  21  38  64  95 126 167 210 275 339 397
#
# _framework density 19.836566999999999
#
# number of rings (size 3 to 8) (size 9 to 14) (size 15 to 20)
#    0.000    0.364    9.091    1.909    2.545    0.364 
#    0.000    0.909    0.000    0.000    0.000    0.000 
#    0.000    1.455    0.000    0.000    0.000    0.000 
#
# Total GULP energy -545345.987589 kJ/mol
# GULP energy per Si atom -12394.226991 kJ/mol
# Density = 1.979142 g / cm^3
# Si number density = 19.836567 Si / 1000 Ang^3
#
#
#
# Elastic Constant Matrix: (Units=GPa)
#
#
# Indices 1 2 3 4 5 6 
#
# 1 92.3446 39.0152 40.7145 0.0000 0.0000 0.0000
# 2 39.0152 92.3448 40.7145 0.0000 0.0000 0.0000
# 3 40.7145 40.7145 131.5923 0.0000 0.0000 0.0000
# 4 0.0000 0.0000 0.0000 30.9161 0.0000 0.0000
# 5 0.0000 0.0000 0.0000 0.0000 30.9160 0.0000
# 6 0.0000 0.0000 0.0000 0.0000 0.0000 47.9300
#
#
#
# Elastic Compliance Matrix: (Units=1/GPa)
#
#
# Indices 1 2 3 4 5 6 
#
# 1 0.014085 -0.004666 -0.002914 0.000000 0.000000 0.000000
# 2 -0.004666 0.014085 -0.002914 0.000000 0.000000 0.000000
# 3 -0.002914 -0.002914 0.009403 0.000000 0.000000 0.000000
# 4 0.000000 0.000000 0.000000 0.032346 0.000000 0.000000
# 5 0.000000 0.000000 0.000000 0.000000 0.032346 0.000000
# 6 0.000000 0.000000 0.000000 0.000000 0.000000 0.020864
#
#
# Mechanical properties :
#
#
# Convention : Reuss Voigt Hill
#
# Bulk Modulus (GPa) = 60.29963 61.90779 61.10371
# Shear Modulus (GPa) = 33.41230 35.00826 34.21028
#
# Velocity S-wave (km/s) = 4.10857 4.20555 4.15734
# Velocity P-wave (km/s) = 7.27814 7.40668 7.34269
#
# Compressibility (1/GPa) = 0.01658385
#
# Stress axis : x y z
#
# Youngs Moduli (GPa) = 70.99598 70.99616 106.35370
#
# Poissons Ratio (x) = 0.33127 0.30995
# Poissons Ratio (y) = 0.33127 0.30995
# Poissons Ratio (z) = 0.20690 0.20690
#
# Static dielectric constant tensor:
#      x y z
#    x 3.631430 0.000000 0.000000 
#    y 0.000000 3.631430 0.000000 
#    z 0.000000 0.000000 3.776430 
# 
# 
# High freq. dielectric constant tensor:
#      x y z
#    x 1.761810 0.000000 0.000000 
#    y 0.000000 1.761810 0.000000 
#    z 0.000000 0.000000 1.788600 
# 
# From -- ./inp_files/4866.got.cif
#   From: 2010.03.12/outbox.cif.g09.slc.cpg/sg97_3_cif.got.tgz:4866.got - 2010.04.08 20:59:42.
