data_PCOD8306689
_publ_section_title
;
Structure prediction by ZEFSAII (Michael W. Deem and Ramdas Pophale) SiO2 
 PCOD8306689
Probable space group: P 4 B M
;
_chemical_formula_sum "Si O2"
_cell_formula_units_Z 40
_cell_length_a 16.781299
_cell_length_b 16.781299
_cell_length_c 7.507478
_cell_angle_alpha 90.000000
_cell_angle_beta 90.000000
_cell_angle_gamma 90.000000
_cell_volume 2114.195865
_symmetry_space_group_name_H-M "P 4 B M"
_symmetry_group_IT_number 100
_symmetry_cell_setting 'tetragonal'
loop_
_space_group_symop_operation_xyz
x,y,z
-y,x,z
-x,-y,z
y,-x,z
1/2-x,1/2+y,z
1/2+x,1/2-y,z
1/2-y,1/2-x,z
1/2+y,1/2+x,z
loop_
_atom_site_type_symbol
_atom_site_label
_atom_site_fract_x
_atom_site_fract_y
_atom_site_fract_z
Si Si1 0.915509 0.286384 0.246090
Si Si2 0.504357 0.127875 0.953250
Si Si3 0.444638 0.388473 0.663791
Si Si4 0.611527 0.444640 0.242708
Si Si5 0.084492 0.713617 0.660414
O O1 0.833230 0.333230 0.205719
O O2 0.939396 0.293363 0.453252
O O3 0.904052 0.194645 0.184037
O O4 0.988561 0.321650 0.132312
O O5 0.595391 0.095391 0.953250
O O6 0.488562 0.178355 0.774194
O O7 0.446499 0.053502 0.953240
O O8 0.536074 0.394183 0.736835
O O9 0.447372 0.392607 0.453250
O O10 0.404049 0.305357 0.722462
O O11 0.605817 0.536075 0.169664
O O12 0.166769 0.666769 0.700787
#
# Coordination Sequence:
#
# PCOD8306689 Si02
#       5
#     8   8   8   8   8
#     4   9  17  30  49  71  95 125 160 198 240 283
#     4   9  18  32  48  67  94 126 157 190 230 280
#     4   8  14  27  48  71  95 126 163 200 239 284
#     4   8  14  27  48  71  95 126 163 200 239 284
#     4   9  17  30  49  71  95 125 160 198 240 283
#
# _framework density 18.919725
#
# number of rings (size 3 to 8) (size 9 to 14) (size 15 to 20)
#    0.000    3.400    0.000    1.200    0.000    0.800 
#    0.000    8.000    0.000   12.000    0.000    0.000 
#    0.000    0.000    0.000    0.000    0.000    0.000 
#
# Total GULP energy -495547.127937 kJ/mol
# GULP energy per Si atom -12388.678198 kJ/mol
# Density = 1.887666 g / cm^3
# Si number density = 18.919725 Si / 1000 Ang^3
#
#
#
# Elastic Constant Matrix: (Units=GPa)
#
#
# Indices 1 2 3 4 5 6 
#
# 1 119.3142 70.6410 27.0758 0.0000 0.0000 0.0001
# 2 70.6410 119.3142 27.0758 0.0000 0.0000 -0.0001
# 3 27.0758 27.0758 61.9012 0.0000 0.0000 0.0000
# 4 0.0000 0.0000 0.0000 -3.3944 0.0000 0.0000
# 5 0.0000 0.0000 0.0000 0.0000 -3.3944 0.0000
# 6 0.0001 -0.0001 0.0000 0.0000 0.0000 22.5850
#
#
#
# Elastic Compliance Matrix: (Units=1/GPa)
#
#
# Indices 1 2 3 4 5 6 
#
# 1 0.013280 -0.007265 -0.002631 0.000000 0.000000 0.000000
# 2 -0.007265 0.013280 -0.002631 0.000000 0.000000 0.000000
# 3 -0.002631 -0.002631 0.018456 0.000000 0.000000 0.000000
# 4 0.000000 0.000000 0.000000 -0.294602 0.000000 0.000000
# 5 0.000000 0.000000 0.000000 0.000000 -0.294602 0.000000
# 6 0.000000 0.000000 0.000000 0.000000 0.000000 0.044277
#
#
# Mechanical properties :
#
#
# Convention : Reuss Voigt Hill
#
# Bulk Modulus (GPa) = 50.09511 61.12389 55.60950
# Shear Modulus (GPa) = -10.67913 14.87503 2.09795
#
# Velocity S-wave (km/s) = -2.37838 2.80700 1.05417
# Velocity P-wave (km/s) = 4.35809 6.54849 5.56218
#
# Compressibility (1/GPa) = 0.01996203
#
# Stress axis : x y z
#
# Youngs Moduli (GPa) = 75.30252 75.30252 54.18253
#
# Poissons Ratio (x) = 0.54710 0.14254
# Poissons Ratio (y) = 0.54710 0.14254
# Poissons Ratio (z) = 0.19810 0.19810
#
# Static dielectric constant tensor:
#      x y z
#    x 3.695660 0.000000 0.000000 
#    y 0.000000 3.695660 0.000000 
#    z 0.000000 0.000000 3.327800 
# 
# 
# High freq. dielectric constant tensor:
#      x y z
#    x 1.718960 0.000000 0.000000 
#    y 0.000000 1.718960 0.000000 
#    z 0.000000 0.000000 1.727720 
# 
# From -- ./inp_files/853.got.cif
#   From: 2010.03.12/outbox.cif.g09.slc.cpg/sg100_cif.got.tgz:853.got - 2010.04.14 01:37:57.
