data_PCOD8306691
_publ_section_title
;
Structure prediction by ZEFSAII (Michael W. Deem and Ramdas Pophale) SiO2 
 PCOD8306691
Probable space group: P 4 B M
;
_chemical_formula_sum "Si O2"
_cell_formula_units_Z 64
_cell_length_a 19.787302
_cell_length_b 19.787302
_cell_length_c 9.639226
_cell_angle_alpha 90.000000
_cell_angle_beta 90.000000
_cell_angle_gamma 90.000000
_cell_volume 3774.116719
_symmetry_space_group_name_H-M "P 4 B M"
_symmetry_group_IT_number 100
_symmetry_cell_setting 'tetragonal'
loop_
_space_group_symop_operation_xyz
x,y,z
-y,x,z
-x,-y,z
y,-x,z
1/2-x,1/2+y,z
1/2+x,1/2-y,z
1/2-y,1/2-x,z
1/2+y,1/2+x,z
loop_
_atom_site_type_symbol
_atom_site_label
_atom_site_fract_x
_atom_site_fract_y
_atom_site_fract_z
Si Si1 0.313477 0.422715 0.643000
Si Si2 0.813476 0.922716 0.963846
Si Si3 0.686524 0.077285 0.142998
Si Si4 0.077285 0.186523 0.963847
Si Si5 0.313478 0.077284 0.142996
Si Si6 0.577284 0.686523 0.642998
Si Si7 0.422716 0.186523 0.463845
Si Si8 0.922715 0.686524 0.463846
O O1 0.293876 0.414001 0.803423
O O2 0.332138 0.499999 0.607662
O O3 0.378227 0.378226 0.602780
O O4 0.250000 0.397740 0.553423
O O5 0.749999 0.897741 0.053422
O O6 0.878226 0.878227 0.004066
O O7 0.793876 0.914002 0.803422
O O8 0.832138 0.000000 0.999184
O O9 0.621774 0.121774 0.102781
O O10 0.706126 0.085997 0.303422
O O11 0.667862 0.000001 0.107659
O O12 0.750000 0.102260 0.053422
O O13 0.378228 0.121773 0.102774
O O14 0.293878 0.085998 0.303421
O O15 0.602259 0.750000 0.553420
O O16 0.378227 0.121774 0.504066
O O17 0.500001 0.167862 0.499183
O O18 0.878226 0.621775 0.504062
#
# Coordination Sequence:
#
# PCOD8306691 Si02
#       8
#     8   8   8   8   8   8   8   8
#     4   9  18  32  49  69  93 121 153 189 228 270
#     4   9  18  32  49  69  93 121 153 189 228 270
#     4   9  18  32  49  69  93 121 153 189 228 270
#     4   9  18  32  49  69  93 121 153 189 228 270
#     4   9  18  32  49  69  93 121 153 189 228 270
#     4   9  18  32  49  69  93 121 153 189 228 270
#     4   9  18  32  49  69  93 121 153 189 228 270
#     4   9  18  32  49  69  93 121 153 189 228 270
#
# _framework density 16.957611
#
# number of rings (size 3 to 8) (size 9 to 14) (size 15 to 20)
#    0.000    3.000    0.000    0.000    0.000    4.000 
#    0.000   10.000    0.000    0.000    0.000   14.000 
#    0.000    0.000    0.000    0.000    0.000    0.000 
#
# Total GULP energy -793717.010603 kJ/mol
# GULP energy per Si atom -12401.828291 kJ/mol
# Density = 1.691901 g / cm^3
# Si number density = 16.957611 Si / 1000 Ang^3
#
#
#
# Elastic Constant Matrix: (Units=GPa)
#
#
# Indices 1 2 3 4 5 6 
#
# 1 107.3776 79.1514 53.7420 0.0000 0.0000 -0.0013
# 2 79.1514 107.3776 53.7420 0.0000 0.0000 0.0013
# 3 53.7420 53.7420 55.7106 0.0000 0.0000 0.0000
# 4 0.0000 0.0000 0.0000 28.8697 0.0000 0.0000
# 5 0.0000 0.0000 0.0000 0.0000 28.8697 0.0000
# 6 -0.0013 0.0013 0.0000 0.0000 0.0000 34.7062
#
#
#
# Elastic Compliance Matrix: (Units=1/GPa)
#
#
# Indices 1 2 3 4 5 6 
#
# 1 0.023750 -0.011679 -0.011644 0.000000 0.000000 0.000001
# 2 -0.011679 0.023750 -0.011644 0.000000 0.000000 -0.000001
# 3 -0.011644 -0.011644 0.040416 0.000000 0.000000 0.000000
# 4 0.000000 0.000000 0.000000 0.034638 0.000000 0.000000
# 5 0.000000 0.000000 0.000000 0.000000 0.034638 0.000000
# 6 0.000001 -0.000001 0.000000 0.000000 0.000000 0.028813
#
#
# Mechanical properties :
#
#
# Convention : Reuss Voigt Hill
#
# Bulk Modulus (GPa) = 55.61724 71.52631 63.57178
# Shear Modulus (GPa) = 19.08881 24.07780 21.58331
#
# Velocity S-wave (km/s) = 3.35875 3.77222 3.57147
# Velocity P-wave (km/s) = 6.92175 7.82585 7.38764
#
# Compressibility (1/GPa) = 0.01798004
#
# Stress axis : x y z
#
# Youngs Moduli (GPa) = 42.10606 42.10606 24.74272
#
# Poissons Ratio (x) = 0.49174 0.28812
# Poissons Ratio (y) = 0.49174 0.28812
# Poissons Ratio (z) = 0.49030 0.49030
#
# Static dielectric constant tensor:
#      x y z
#    x 3.197900 0.000000 0.000000 
#    y 0.000000 3.197900 0.000000 
#    z 0.000000 0.000000 3.197380 
# 
# 
# High freq. dielectric constant tensor:
#      x y z
#    x 1.652130 0.000000 0.000000 
#    y 0.000000 1.652130 0.000000 
#    z 0.000000 0.000000 1.652960 
# 
# From -- ./inp_files/1066.got.cif
#   From: 2010.03.12/outbox.cif.g09.slc.cpg/sg100_cif.got.tgz:1066.got - 2010.04.14 01:37:57.
