data_PCOD8306254
_publ_section_title
;
Structure prediction by ZEFSAII (Michael W. Deem and Ramdas Pophale) SiO2 
 PCOD8306254
Probable space group: I 41 2 2
;
_chemical_formula_sum "Si O2"
_cell_formula_units_Z 116
_cell_length_a 17.685988
_cell_length_b 17.685988
_cell_length_c 18.257696
_cell_angle_alpha 90.000000
_cell_angle_beta 90.000000
_cell_angle_gamma 90.000000
_cell_volume 5710.900894
_symmetry_space_group_name_H-M "I 41 2 2"
_symmetry_group_IT_number 98
_symmetry_cell_setting 'tetragonal'
loop_
_space_group_symop_operation_xyz
x,y,z
-y,1/2+x,1/4+z
-x,-y,z
y,1/2-x,1/4+z
x,1/2-y,1/4-z
-x,1/2+y,1/4-z
y,x,-z
-y,-x,-z
1/2+x,1/2+y,1/2+z
1/2-y,x,3/4+z
1/2-x,1/2-y,1/2+z
1/2+y,-x,3/4+z
1/2+x,-y,3/4-z
1/2-x,y,3/4-z
1/2+y,1/2+x,1/2-z
1/2-y,1/2-x,1/2-z
loop_
_atom_site_type_symbol
_atom_site_label
_atom_site_fract_x
_atom_site_fract_y
_atom_site_fract_z
Si Si1 0.319482 0.171296 0.094569
Si Si2 0.500000 0.500000 0.000000
Si Si3 0.490710 0.164763 0.632582
Si Si4 0.330637 0.140976 0.569652
Si Si5 0.007262 0.367197 0.860136
Si Si6 0.416207 0.868773 0.501352
Si Si7 0.690767 0.076085 0.732211
Si Si8 0.529099 0.300546 0.321889
O O1 0.357439 0.250000 0.125000
O O2 0.236843 0.166828 0.128805
O O3 0.363532 0.095990 0.119047
O O4 0.312901 0.171608 0.006522
O O5 0.574702 0.498059 0.046423
O O6 0.520221 0.250000 0.625000
O O7 0.402209 0.159988 0.619154
O O8 0.533778 0.112304 0.573346
O O9 0.513930 0.147968 0.716434
O O10 0.329790 0.053033 0.548196
O O11 0.959738 0.398449 0.929475
O O12 0.972363 0.290205 0.826583
O O13 0.410846 0.779383 0.491756
O O14 0.334739 0.910447 0.512836
O O15 0.658098 0.158098 0.750000
O O16 0.668157 0.049730 0.651602
#
# Coordination Sequence:
#
# PCOD8306254 Si02
#       8
#    16   4  16  16  16  16  16  16
#     4  11  24  43  68  94 127 170 222 274 327 398
#     4  12  28  48  72  88 136 174 224 280 352 380
#     4  10  20  35  60  87 128 168 209 251 321 390
#     4  11  24  41  62  93 131 172 220 268 330 391
#     4  10  25  45  68  98 129 173 222 276 340 399
#     4  10  20  41  65  93 129 168 212 271 323 390
#     4  10  20  38  62  95 129 175 211 260 330 391
#     4  10  23  41  64  95 135 163 226 275 319 404
#
# _framework density 20.312031999999999
#
# number of rings (size 3 to 8) (size 9 to 14) (size 15 to 20)
#    0.000    1.655    2.759    0.828    7.724    1.103 
#    1.241    1.379    0.000    0.000    0.000    0.000 
#    0.000    0.000    0.000    0.000    0.000    0.000 
#
# Total GULP energy -718850.099502 kJ/mol
# GULP energy per Si atom -12393.967233 kJ/mol
# Density = 2.026580 g / cm^3
# Si number density = 20.312032 Si / 1000 Ang^3
#
#
#
# Elastic Constant Matrix: (Units=GPa)
#
#
# Indices 1 2 3 4 5 6 
#
# 1 115.2860 16.3747 69.8627 0.0000 0.0000 0.0000
# 2 16.3747 115.2860 69.8627 0.0000 0.0000 0.0000
# 3 69.8627 69.8627 139.2975 0.0000 0.0000 0.0000
# 4 0.0000 0.0000 0.0000 35.0669 0.0000 0.0000
# 5 0.0000 0.0000 0.0000 0.0000 35.0670 0.0000
# 6 0.0000 0.0000 0.0000 0.0000 0.0000 26.5295
#
#
#
# Elastic Compliance Matrix: (Units=1/GPa)
#
#
# Indices 1 2 3 4 5 6 
#
# 1 0.013174 0.003064 -0.008144 0.000000 0.000000 0.000000
# 2 0.003064 0.013174 -0.008144 0.000000 0.000000 0.000000
# 3 -0.008144 -0.008144 0.015348 0.000000 0.000000 0.000000
# 4 0.000000 0.000000 0.000000 0.028517 0.000000 0.000000
# 5 0.000000 0.000000 0.000000 0.000000 0.028517 0.000000
# 6 0.000000 0.000000 0.000000 0.000000 0.000000 0.037694
#
#
# Mechanical properties :
#
#
# Convention : Reuss Voigt Hill
#
# Bulk Modulus (GPa) = 65.58175 75.78554 70.68365
# Shear Modulus (GPa) = 29.76998 33.58398 31.67698
#
# Velocity S-wave (km/s) = 3.83251 4.07062 3.95336
# Velocity P-wave (km/s) = 7.20704 7.71265 7.46412
#
# Compressibility (1/GPa) = 0.01524815
#
# Stress axis : x y z
#
# Youngs Moduli (GPa) = 75.90646 75.90646 65.15543
#
# Poissons Ratio (x) = -0.23258 0.53063
# Poissons Ratio (y) = -0.23258 0.53063
# Poissons Ratio (z) = 0.61818 0.61818
#
# Static dielectric constant tensor:
#      x y z
#    x 3.712740 0.000000 0.000000 
#    y 0.000000 3.712740 0.000000 
#    z 0.000000 0.000000 3.894450 
# 
# 
# High freq. dielectric constant tensor:
#      x y z
#    x 1.787280 0.000000 0.000000 
#    y 0.000000 1.787280 0.000000 
#    z 0.000000 0.000000 1.801770 
# 
# From -- ./inp_files/7819.got.cif
#   From: 2010.03.12/outbox.cif.g09.slc.cpg/sg98_4_cif.got.tgz:7819.got - 2010.04.08 21:04:41.
