data_PCOD8306375
_publ_section_title
;
Structure prediction by ZEFSAII (Michael W. Deem and Ramdas Pophale) SiO2 
 PCOD8306375
Probable space group: I 41 2 2
;
_chemical_formula_sum "Si O2"
_cell_formula_units_Z 128
_cell_length_a 22.919723
_cell_length_b 22.919723
_cell_length_c 11.800670
_cell_angle_alpha 90.000000
_cell_angle_beta 90.000000
_cell_angle_gamma 90.000000
_cell_volume 6199.053648
_symmetry_space_group_name_H-M "I 41 2 2"
_symmetry_group_IT_number 98
_symmetry_cell_setting 'tetragonal'
loop_
_space_group_symop_operation_xyz
x,y,z
-y,1/2+x,1/4+z
-x,-y,z
y,1/2-x,1/4+z
x,1/2-y,1/4-z
-x,1/2+y,1/4-z
y,x,-z
-y,-x,-z
1/2+x,1/2+y,1/2+z
1/2-y,x,3/4+z
1/2-x,1/2-y,1/2+z
1/2+y,-x,3/4+z
1/2+x,-y,3/4-z
1/2-x,y,3/4-z
1/2+y,1/2+x,1/2-z
1/2-y,1/2-x,1/2-z
loop_
_atom_site_type_symbol
_atom_site_label
_atom_site_fract_x
_atom_site_fract_y
_atom_site_fract_z
Si Si1 0.107798 0.525046 0.035092
Si Si2 0.636885 0.962018 0.757425
Si Si3 0.674901 0.377607 0.111138
Si Si4 0.286953 0.892432 0.478803
Si Si5 0.162952 0.309333 0.560646
Si Si6 0.981853 0.122795 0.246475
Si Si7 0.717463 0.868187 0.688456
Si Si8 0.416690 0.091809 0.124708
O O1 0.113508 0.506005 0.163868
O O2 0.047787 0.560160 0.021218
O O3 0.165547 0.560881 0.011859
O O4 0.104741 0.474228 0.944745
O O5 0.591032 0.908969 0.750000
O O6 0.700278 0.933214 0.731119
O O7 0.645230 0.998823 0.872448
O O8 0.666232 0.321292 0.191622
O O9 0.662412 0.436866 0.181487
O O10 0.632206 0.367795 0.000000
O O11 0.743126 0.378092 0.080880
O O12 0.250000 0.918923 0.375000
O O13 0.182493 0.250000 0.625000
O O14 0.216476 0.352013 0.532164
O O15 0.131453 0.291883 0.445634
O O16 0.118264 0.347274 0.634909
O O17 0.041606 0.120552 0.315364
O O18 0.680092 0.819909 0.750000
O O19 0.431252 0.068749 0.250000
#
# Coordination Sequence:
#
# PCOD8306375 Si02
#       8
#    16  16  16  16  16  16  16  16
#     4  11  23  42  64  96 130 181 215 279 337 406
#     4  11  22  43  63  93 125 171 233 277 333 406
#     4   9  20  41  69 104 135 177 221 278 344 418
#     4   9  20  39  69  96 136 169 224 266 344 410
#     4  12  24  44  63  94 130 180 227 286 348 407
#     4  11  24  40  68  94 134 174 223 274 340 403
#     4  11  22  40  66  89 125 168 231 283 344 400
#     4  12  26  39  59  96 134 170 230 277 336 403
#
# _framework density 20.648313999999999
#
# number of rings (size 3 to 8) (size 9 to 14) (size 15 to 20)
#    0.000    1.250    2.500    3.750    5.250    2.500 
#    0.000    3.125    0.000   22.500    0.000    0.000 
#    0.000    0.000    0.000    0.000    0.000    0.000 
#
# Total GULP energy -793324.790073 kJ/mol
# GULP energy per Si atom -12395.699845 kJ/mol
# Density = 2.060132 g / cm^3
# Si number density = 20.648314 Si / 1000 Ang^3
#
#
#
# Elastic Constant Matrix: (Units=GPa)
#
#
# Indices 1 2 3 4 5 6 
#
# 1 86.3144 48.6089 38.7257 0.0000 0.0000 0.0000
# 2 48.6089 86.3159 38.7212 0.0000 0.0000 0.0000
# 3 38.7257 38.7212 132.2732 0.0000 0.0000 0.0000
# 4 0.0000 0.0000 0.0000 33.1338 0.0000 0.0000
# 5 0.0000 0.0000 0.0000 0.0000 33.1282 0.0000
# 6 0.0000 0.0000 0.0000 0.0000 0.0000 26.1625
#
#
#
# Elastic Compliance Matrix: (Units=1/GPa)
#
#
# Indices 1 2 3 4 5 6 
#
# 1 0.017715 -0.008806 -0.002609 0.000000 0.000000 0.000000
# 2 -0.008806 0.017714 -0.002607 0.000000 0.000000 0.000000
# 3 -0.002609 -0.002607 0.009087 0.000000 0.000000 0.000000
# 4 0.000000 0.000000 0.000000 0.030181 0.000000 0.000000
# 5 0.000000 0.000000 0.000000 0.000000 0.030186 0.000000
# 6 0.000000 0.000000 0.000000 0.000000 0.000000 0.038223
#
#
# Mechanical properties :
#
#
# Convention : Reuss Voigt Hill
#
# Bulk Modulus (GPa) = 60.70825 61.89055 61.29940
# Shear Modulus (GPa) = 28.30607 30.40809 29.35708
#
# Velocity S-wave (km/s) = 3.70654 3.84170 3.77472
# Velocity P-wave (km/s) = 6.91251 7.05102 6.98211
#
# Compressibility (1/GPa) = 0.01647223
#
# Stress axis : x y z
#
# Youngs Moduli (GPa) = 56.44884 56.45192 110.04581
#
# Poissons Ratio (x) = 0.49712 0.28707
# Poissons Ratio (y) = 0.49709 0.28694
# Poissons Ratio (z) = 0.14725 0.14719
#
# Static dielectric constant tensor:
#      x y z
#    x 1.456210 0.000000 0.000000 
#    y 0.000000 1.460470 0.000000 
#    z 0.000000 0.000000 3.827250 
# 
# 
# High freq. dielectric constant tensor:
#      x y z
#    x 1.805090 0.000000 0.000000 
#    y 0.000000 1.805090 0.000000 
#    z 0.000000 0.000000 1.820140 
# 
# From -- ./inp_files/5508.got.cif
#   From: 2010.03.12/outbox.cif.g09.slc.cpg/sg98_3_cif.got.tgz:5508.got - 2010.04.08 21:04:41.
