data_PCOD8306005
_publ_section_title
;
Structure prediction by ZEFSAII (Michael W. Deem and Ramdas Pophale) SiO2 
 PCOD8306005
Probable space group: P 43 21 2
;
_chemical_formula_sum "Si O2"
_cell_formula_units_Z 40
_cell_length_a 8.839704
_cell_length_b 8.839704
_cell_length_c 21.648949
_cell_angle_alpha 90.000000
_cell_angle_beta 90.000000
_cell_angle_gamma 90.000000
_cell_volume 1691.656816
_symmetry_space_group_name_H-M "P 43 21 2"
_symmetry_group_IT_number 96
_symmetry_cell_setting 'tetragonal'
loop_
_space_group_symop_operation_xyz
x,y,z
1/2-y,1/2+x,3/4+z
-x,-y,1/2+z
1/2+y,1/2-x,1/4+z
1/2+x,1/2-y,1/4-z
1/2-x,1/2+y,3/4-z
y,x,-z
-y,-x,1/2-z
loop_
_atom_site_type_symbol
_atom_site_label
_atom_site_fract_x
_atom_site_fract_y
_atom_site_fract_z
Si Si1 0.506935 0.419042 0.182077
Si Si2 0.953098 0.230842 0.846291
Si Si3 0.741125 0.387315 0.634865
Si Si4 0.508553 0.116852 0.106648
Si Si5 0.658969 0.418667 0.497451
O O1 0.574713 0.425288 0.250000
O O2 0.579015 0.544085 0.136478
O O3 0.336583 0.482243 0.177449
O O4 0.528121 0.248197 0.158127
O O5 0.777120 0.267264 0.831974
O O6 0.053437 0.339424 0.890102
O O7 0.044273 0.204408 0.782535
O O8 0.683562 0.356933 0.565666
O O9 0.904610 0.462431 0.626691
O O10 0.556245 0.185128 0.040286
O O11 0.583553 0.583553 0.500000
#
# Coordination Sequence:
#
# PCOD8306005 Si02
#       5
#     8   8   8   8   8
#     4  11  25  45  69 104 144 187 254 302 360 449
#     4  11  26  46  70 106 146 192 240 308 382 437
#     4  12  26  48  71 110 144 197 244 311 376 453
#     4  11  26  45  75 107 142 197 247 300 382 447
#     4  11  25  47  75 101 154 191 250 314 371 451
#
# _framework density 23.64546
#
# number of rings (size 3 to 8) (size 9 to 14) (size 15 to 20)
#    0.000    0.800    4.000    3.600    8.400    0.800 
#    0.000    0.000    0.000    0.000    0.000    0.000 
#    0.000    0.000    0.000    0.000    0.000    0.000 
#
# Total GULP energy -495714.247595 kJ/mol
# GULP energy per Si atom -12392.856190 kJ/mol
# Density = 2.359164 g / cm^3
# Si number density = 23.645460 Si / 1000 Ang^3
#
#
#
# Elastic Constant Matrix: (Units=GPa)
#
#
# Indices 1 2 3 4 5 6 
#
# 1 105.1770 34.5707 27.4407 0.0000 0.0000 0.0000
# 2 34.5707 105.1773 27.4402 0.0000 0.0000 0.0000
# 3 27.4407 27.4402 85.6930 0.0000 0.0000 0.0000
# 4 0.0000 0.0000 0.0000 25.0561 0.0000 0.0000
# 5 0.0000 0.0000 0.0000 0.0000 25.0561 0.0000
# 6 0.0000 0.0000 0.0000 0.0000 0.0000 46.0496
#
#
#
# Elastic Compliance Matrix: (Units=1/GPa)
#
#
# Indices 1 2 3 4 5 6 
#
# 1 0.011174 -0.002989 -0.002621 0.000000 0.000000 0.000000
# 2 -0.002989 0.011174 -0.002621 0.000000 0.000000 0.000000
# 3 -0.002621 -0.002621 0.013348 0.000000 0.000000 0.000000
# 4 0.000000 0.000000 0.000000 0.039910 0.000000 0.000000
# 5 0.000000 0.000000 0.000000 0.000000 0.039910 0.000000
# 6 0.000000 0.000000 0.000000 0.000000 0.000000 0.021716
#
#
# Mechanical properties :
#
#
# Convention : Reuss Voigt Hill
#
# Bulk Modulus (GPa) = 51.99064 52.77230 52.38147
# Shear Modulus (GPa) = 31.22926 33.00540 32.11733
#
# Velocity S-wave (km/s) = 3.63813 3.74015 3.68949
# Velocity P-wave (km/s) = 6.29947 6.40455 6.35223
#
# Compressibility (1/GPa) = 0.01923423
#
# Stress axis : x y z
#
# Youngs Moduli (GPa) = 89.49289 89.49344 74.91675
#
# Poissons Ratio (x) = 0.26749 0.19636
# Poissons Ratio (y) = 0.26749 0.19635
# Poissons Ratio (z) = 0.23457 0.23456
#
# Static dielectric constant tensor:
#      x y z
#    x 4.246710 0.000000 0.000000 
#    y 0.000000 4.246710 0.000000 
#    z 0.000000 0.000000 4.102430 
# 
# 
# High freq. dielectric constant tensor:
#      x y z
#    x 1.942640 0.000000 0.000000 
#    y 0.000000 1.942640 0.000000 
#    z 0.000000 0.000000 1.925960 
# 
# From -- ./inp_files/3772.got.cif
#   From: 2010.03.12/outbox.cif.g09.slc.cpg/sg96_2_cif.got.tgz:3772.got - 2010.04.08 20:56:49.
