data_PCOD8306144
_publ_section_title
;
Structure prediction by ZEFSAII (Michael W. Deem and Ramdas Pophale) SiO2 
 PCOD8306144
Probable space group: I 4 2 2 
;
_chemical_formula_sum "Si O2"
_cell_formula_units_Z 88
_cell_length_a 17.654693
_cell_length_b 17.654693
_cell_length_c 14.313470
_cell_angle_alpha 90.000000
_cell_angle_beta 90.000000
_cell_angle_gamma 90.000000
_cell_volume 4461.339484
_symmetry_space_group_name_H-M "I 4 2 2 "
_symmetry_group_IT_number 97
_symmetry_cell_setting 'tetragonal'
loop_
_space_group_symop_operation_xyz
x,y,z
-y,x,z
-x,-y,z
y,-x,z
x,-y,-z
-x,y,-z
y,x,-z
-y,-x,-z
1/2+x,1/2+y,1/2+z
1/2-y,1/2+x,1/2+z
1/2-x,1/2-y,1/2+z
1/2+y,1/2-x,1/2+z
1/2+x,1/2-y,1/2-z
1/2-x,1/2+y,1/2-z
1/2+y,1/2+x,1/2-z
1/2-y,1/2-x,1/2-z
loop_
_atom_site_type_symbol
_atom_site_label
_atom_site_fract_x
_atom_site_fract_y
_atom_site_fract_z
Si Si1 0.121182 0.720833 0.312869
Si Si2 0.246545 0.202018 0.599492
Si Si3 0.500000 0.841436 0.500000
Si Si4 0.519034 0.726516 0.334046
Si Si5 0.412533 0.842411 0.011030
Si Si6 0.660137 0.638647 0.393218
O O1 0.155704 0.655704 0.250000
O O2 0.180272 0.793176 0.321248
O O3 0.037332 0.739692 0.270306
O O4 0.122949 0.684258 0.414489
O O5 0.206804 0.206804 0.500000
O O6 0.293812 0.122876 0.597785
O O7 0.305575 0.269527 0.616212
O O8 0.525988 0.789927 0.413648
O O9 0.569672 0.894260 0.530309
O O10 0.588181 0.668290 0.338420
O O11 0.440539 0.683007 0.345109
O O12 0.500000 0.827603 0.000000
O O13 0.632123 0.632123 0.500000
#
# Coordination Sequence:
#
# PCOD8306144 Si02
#       6
#    16  16   8  16  16  16
#     4  11  21  38  62  88 118 159 218 274 303 373
#     4   9  18  37  62  82 112 166 215 248 310 391
#     4  12  19  38  62  87 124 172 210 250 333 398
#     4  12  22  35  61  91 127 160 210 265 326 385
#     4  11  23  39  61  88 125 167 211 260 326 390
#     4  11  19  34  57  88 119 164 202 252 321 398
#
# _framework density 19.725017000000001
#
# number of rings (size 3 to 8) (size 9 to 14) (size 15 to 20)
#    0.000    1.091    7.273    1.364    0.000    1.818 
#    0.000    1.818    0.000    0.000    0.000    0.000 
#    0.000   17.818    0.000    0.000    0.000    0.000 
#
# Total GULP energy -545079.081333 kJ/mol
# GULP energy per Si atom -12388.160939 kJ/mol
# Density = 1.968012 g / cm^3
# Si number density = 19.725017 Si / 1000 Ang^3
#
#
#
# Elastic Constant Matrix: (Units=GPa)
#
#
# Indices 1 2 3 4 5 6 
#
# 1 98.0521 28.7554 18.6538 0.0000 0.0000 0.0000
# 2 28.7554 98.0521 18.6538 0.0000 0.0000 0.0000
# 3 18.6538 18.6538 55.5695 0.0000 0.0000 0.0000
# 4 0.0000 0.0000 0.0000 21.9562 0.0000 0.0000
# 5 0.0000 0.0000 0.0000 0.0000 21.9562 0.0000
# 6 0.0000 0.0000 0.0000 0.0000 0.0000 14.3276
#
#
#
# Elastic Compliance Matrix: (Units=1/GPa)
#
#
# Indices 1 2 3 4 5 6 
#
# 1 0.011590 -0.002840 -0.002937 0.000000 0.000000 0.000000
# 2 -0.002840 0.011590 -0.002937 0.000000 0.000000 0.000000
# 3 -0.002937 -0.002937 0.019967 0.000000 0.000000 0.000000
# 4 0.000000 0.000000 0.000000 0.045545 0.000000 0.000000
# 5 0.000000 0.000000 0.000000 0.000000 0.045545 0.000000
# 6 0.000000 0.000000 0.000000 0.000000 0.000000 0.069795
#
#
# Mechanical properties :
#
#
# Convention : Reuss Voigt Hill
#
# Bulk Modulus (GPa) = 38.88233 42.64442 40.76338
# Shear Modulus (GPa) = 21.73569 24.02205 22.87887
#
# Velocity S-wave (km/s) = 3.32314 3.49355 3.40941
# Velocity P-wave (km/s) = 5.87191 6.15951 6.01743
#
# Compressibility (1/GPa) = 0.02571862
#
# Stress axis : x y z
#
# Youngs Moduli (GPa) = 86.27809 86.27809 50.08138
#
# Poissons Ratio (x) = 0.24505 0.14710
# Poissons Ratio (y) = 0.24505 0.14710
# Poissons Ratio (z) = 0.25342 0.25342
#
# Static dielectric constant tensor:
#      x y z
#    x 3.708690 0.000000 0.000000 
#    y 0.000000 3.708690 0.000000 
#    z 0.000000 0.000000 3.984690 
# 
# 
# High freq. dielectric constant tensor:
#      x y z
#    x 1.761350 0.000000 0.000000 
#    y 0.000000 1.761350 0.000000 
#    z 0.000000 0.000000 1.766080 
# 
# From -- ./inp_files/4865.got.cif
#   From: 2010.03.12/outbox.cif.g09.slc.cpg/sg97_3_cif.got.tgz:4865.got - 2010.04.08 20:59:42.
