data_PCOD8306992
_publ_section_title
;
Structure prediction by ZEFSAII (Michael W. Deem and Ramdas Pophale) SiO2 
 PCOD8306992
Probable space group: P 4 C C
;
_chemical_formula_sum "Si O2"
_cell_formula_units_Z 48
_cell_length_a 8.315574
_cell_length_b 8.315574
_cell_length_c 32.863419
_cell_angle_alpha 90.000000
_cell_angle_beta 90.000000
_cell_angle_gamma 90.000000
_cell_volume 2272.465033
_symmetry_space_group_name_H-M "P 4 C C"
_symmetry_group_IT_number 103
_symmetry_cell_setting 'tetragonal'
loop_
_space_group_symop_operation_xyz
x,y,z
-y,x,z
-x,-y,z
y,-x,z
-x,y,1/2+z
x,-y,1/2+z
-y,-x,1/2+z
y,x,1/2+z
loop_
_atom_site_type_symbol
_atom_site_label
_atom_site_fract_x
_atom_site_fract_y
_atom_site_fract_z
Si Si1 0.500000 0.000000 0.706610
Si Si2 0.243543 0.422105 0.932282
Si Si3 0.461345 0.240665 0.639744
Si Si4 0.500000 0.000000 0.068695
Si Si5 0.042634 0.261166 0.997680
Si Si6 0.093891 0.751984 0.360438
Si Si7 0.750102 0.079506 0.768520
O O1 0.411638 0.122206 0.676302
O O2 0.613348 0.109857 0.735241
O O3 0.395046 0.301793 0.936514
O O4 0.156608 0.391411 0.888976
O O5 0.104459 0.396672 0.966154
O O6 0.634420 0.319262 0.643641
O O7 0.480320 0.156865 0.596224
O O8 0.339740 0.982308 0.041770
O O9 0.871138 0.180794 0.990654
O O10 0.108390 0.687083 0.314294
O O11 0.909047 0.797431 0.368910
O O12 0.896154 0.198728 0.761203
#
# Coordination Sequence:
#
# PCOD8306992 Si02
#       7
#     4   8   8   4   8   8   8
#     4  11  20  34  59  86 114 150 189 230 280 337
#     4  11  24  39  56  83 119 157 198 245 297 352
#     4  10  22  39  59  85 117 150 184 226 281 345
#     4  11  22  40  63  86 112 148 189 232 284 341
#     4  11  23  39  61  88 116 148 191 241 292 349
#     4   9  19  36  57  81 111 151 199 247 294 343
#     4   9  19  35  55  82 114 149 192 239 286 336
#
# _framework density 21.122437999999999
#
# number of rings (size 3 to 8) (size 9 to 14) (size 15 to 20)
#    0.000    1.833    0.000    5.000    0.000    6.000 
#    0.000    1.667    0.000   10.000    0.000    0.000 
#    0.000    0.000    0.000    0.000    0.000    0.000 
#
# Total GULP energy -594758.677982 kJ/mol
# GULP energy per Si atom -12390.805791 kJ/mol
# Density = 2.107436 g / cm^3
# Si number density = 21.122438 Si / 1000 Ang^3
#
#
#
# Elastic Constant Matrix: (Units=GPa)
#
#
# Indices 1 2 3 4 5 6 
#
# 1 66.6559 4.0504 29.2588 0.0000 0.0000 0.0000
# 2 4.0504 66.6559 29.2588 0.0000 0.0000 0.0000
# 3 29.2588 29.2588 128.8659 0.0000 0.0000 0.0000
# 4 0.0000 0.0000 0.0000 15.4831 0.0000 0.0000
# 5 0.0000 0.0000 0.0000 0.0000 15.4831 0.0000
# 6 0.0000 0.0000 0.0000 0.0000 0.0000 31.2609
#
#
#
# Elastic Compliance Matrix: (Units=1/GPa)
#
#
# Indices 1 2 3 4 5 6 
#
# 1 0.016694 0.000721 -0.003954 0.000000 0.000000 0.000000
# 2 0.000721 0.016694 -0.003954 0.000000 0.000000 0.000000
# 3 -0.003954 -0.003954 0.009556 0.000000 0.000000 0.000000
# 4 0.000000 0.000000 0.000000 0.064587 0.000000 0.000000
# 5 0.000000 0.000000 0.000000 0.000000 0.064587 0.000000
# 6 0.000000 0.000000 0.000000 0.000000 0.000000 0.031989
#
#
# Mechanical properties :
#
#
# Convention : Reuss Voigt Hill
#
# Bulk Modulus (GPa) = 35.00175 43.03484 39.01830
# Shear Modulus (GPa) = 21.92946 25.75273 23.84110
#
# Velocity S-wave (km/s) = 3.22562 3.49551 3.36327
# Velocity P-wave (km/s) = 5.52084 6.05885 5.79609
#
# Compressibility (1/GPa) = 0.02857000
#
# Stress axis : x y z
#
# Youngs Moduli (GPa) = 59.90069 59.90069 104.65087
#
# Poissons Ratio (x) = -0.04320 0.41381
# Poissons Ratio (y) = -0.04320 0.41381
# Poissons Ratio (z) = 0.23686 0.23686
#
# Static dielectric constant tensor:
#      x y z
#    x 3.808610 0.000000 0.000000 
#    y 0.000000 3.808610 0.000000 
#    z 0.000000 0.000000 3.840690 
# 
# 
# High freq. dielectric constant tensor:
#      x y z
#    x 1.829040 0.000000 0.000000 
#    y 0.000000 1.829040 0.000000 
#    z 0.000000 0.000000 1.836320 
# 
# From -- ./inp_files/1582.got.cif
#   From: 2010.03.12/outbox.cif.g09.slc.cpg/sg103_cif.got.tgz:1582.got - 2010.04.14 01:42:52.
