data_PCOD8306964
_publ_section_title
;
Structure prediction by ZEFSAII (Michael W. Deem and Ramdas Pophale) SiO2 
 PCOD8306964
Probable space group: P 4 C C
;
_chemical_formula_sum "Si O2"
_cell_formula_units_Z 40
_cell_length_a 15.988493
_cell_length_b 15.988493
_cell_length_c 8.763001
_cell_angle_alpha 90.000000
_cell_angle_beta 90.000000
_cell_angle_gamma 90.000000
_cell_volume 2240.102669
_symmetry_space_group_name_H-M "P 4 C C"
_symmetry_group_IT_number 103
_symmetry_cell_setting 'tetragonal'
loop_
_space_group_symop_operation_xyz
x,y,z
-y,x,z
-x,-y,z
y,-x,z
-x,y,1/2+z
x,-y,1/2+z
-y,-x,1/2+z
y,x,1/2+z
loop_
_atom_site_type_symbol
_atom_site_label
_atom_site_fract_x
_atom_site_fract_y
_atom_site_fract_z
Si Si1 0.366824 0.013986 0.460640
Si Si2 0.651695 0.115659 0.228683
Si Si3 0.611508 0.298623 0.262450
Si Si4 0.899405 0.545722 0.688784
Si Si5 0.283255 0.562905 0.107278
O O1 0.310724 0.073579 0.573139
O O2 0.410469 0.078625 0.347430
O O3 0.314675 0.941356 0.370802
O O4 0.436551 0.970239 0.565159
O O5 0.669631 0.214659 0.244571
O O6 0.551399 0.107420 0.226232
O O7 0.533779 0.298905 0.146720
O O8 0.667156 0.378284 0.223539
O O9 0.578737 0.309859 0.433786
O O10 0.813886 0.584308 0.625726
#
# Coordination Sequence:
#
# PCOD8306964 Si02
#       5
#     8   8   8   8   8
#     4  10  17  28  46  74 100 126 148 195 238 309
#     4  10  18  28  48  72 100 123 159 193 250 294
#     4  11  24  39  55  72  96 129 175 222 261 297
#     4  10  18  28  48  72 100 123 159 193 250 294
#     4  11  24  39  55  72  96 129 175 222 261 297
#
# _framework density 17.856324000000001
#
# number of rings (size 3 to 8) (size 9 to 14) (size 15 to 20)
#    0.000    1.600    2.000    6.000   11.200    0.400 
#    0.000    2.000    0.000    0.000    0.000    0.000 
#    0.000    0.000    0.000    0.000    0.000   70.000 
#
# Total GULP energy -495631.327584 kJ/mol
# GULP energy per Si atom -12390.783190 kJ/mol
# Density = 1.781568 g / cm^3
# Si number density = 17.856324 Si / 1000 Ang^3
#
#
#
# Elastic Constant Matrix: (Units=GPa)
#
#
# Indices 1 2 3 4 5 6 
#
# 1 38.9788 26.3516 11.7188 0.0000 0.0000 0.0000
# 2 26.3516 38.9788 11.7188 0.0000 0.0000 0.0000
# 3 11.7188 11.7188 108.4272 0.0000 0.0000 0.0000
# 4 0.0000 0.0000 0.0000 23.3219 0.0000 0.0000
# 5 0.0000 0.0000 0.0000 0.0000 23.3219 0.0000
# 6 0.0000 0.0000 0.0000 0.0000 0.0000 0.0024
#
#
#
# Elastic Compliance Matrix: (Units=1/GPa)
#
#
# Indices 1 2 3 4 5 6 
#
# 1 0.047559 -0.031635 -0.001721 0.000000 0.000000 0.000000
# 2 -0.031635 0.047559 -0.001721 0.000000 0.000000 0.000000
# 3 -0.001721 -0.001721 0.009595 0.000000 0.000000 0.000000
# 4 0.000000 0.000000 0.000000 0.042878 0.000000 0.000000
# 5 0.000000 0.000000 0.000000 0.000000 0.042878 0.000000
# 6 0.000000 0.000000 0.000000 0.000000 0.000000420.008246
#
#
# Mechanical properties :
#
#
# Convention : Reuss Voigt Hill
#
# Bulk Modulus (GPa) = 28.93608 31.77370 30.35489
# Shear Modulus (GPa) = 0.01190 18.43563 9.22376
#
# Velocity S-wave (km/s) = 0.08171 3.21665 2.27525
# Velocity P-wave (km/s) = 4.03101 5.62392 4.89273
#
# Compressibility (1/GPa) = 0.03455894
#
# Stress axis : x y z
#
# Youngs Moduli (GPa) = 21.02646 21.02646 104.22298
#
# Poissons Ratio (x) = 0.66517 0.17938
# Poissons Ratio (y) = 0.66517 0.17938
# Poissons Ratio (z) = 0.03619 0.03619
#
# Static dielectric constant tensor:
#      x y z
#    x 3.318990 0.000000 0.000000 
#    y 0.000000 3.318990 0.000000 
#    z 0.000000 0.000000 3.821290 
# 
# 
# High freq. dielectric constant tensor:
#      x y z
#    x 1.649460 0.000000 0.000000 
#    y 0.000000 1.649460 0.000000 
#    z 0.000000 0.000000 1.723340 
# 
# From -- ./inp_files/197.got.cif
#   From: 2010.03.12/outbox.cif.g09.slc.cpg/sg103_cif.got.tgz:197.got - 2010.04.14 01:42:52.
