data_PCOD8306630
_publ_section_title
;
Structure prediction by ZEFSAII (Michael W. Deem and Ramdas Pophale) SiO2 
 PCOD8306630
Probable space group: P 4 B M
;
_chemical_formula_sum "Si O2"
_cell_formula_units_Z 64
_cell_length_a 19.192202
_cell_length_b 19.192202
_cell_length_c 9.525701
_cell_angle_alpha 90.000000
_cell_angle_beta 90.000000
_cell_angle_gamma 90.000000
_cell_volume 3508.702589
_symmetry_space_group_name_H-M "P 4 B M"
_symmetry_group_IT_number 100
_symmetry_cell_setting 'tetragonal'
loop_
_space_group_symop_operation_xyz
x,y,z
-y,x,z
-x,-y,z
y,-x,z
1/2-x,1/2+y,z
1/2+x,1/2-y,z
1/2-y,1/2-x,z
1/2+y,1/2+x,z
loop_
_atom_site_type_symbol
_atom_site_label
_atom_site_fract_x
_atom_site_fract_y
_atom_site_fract_z
Si Si1 0.227943 0.383975 0.121970
Si Si2 0.341749 0.733318 0.426361
Si Si3 0.781208 0.836094 0.991901
Si Si4 0.880987 0.266935 0.440784
Si Si5 0.002092 0.111640 0.326512
Si Si6 0.944096 0.840190 0.612305
Si Si7 0.531919 0.746381 0.183102
Si Si8 0.917908 0.186488 0.711048
O O1 0.158058 0.341943 0.077124
O O2 0.238858 0.378229 0.288282
O O3 0.215323 0.467773 0.099678
O O4 0.294378 0.350666 0.040456
O O5 0.288831 0.788831 0.492241
O O6 0.298617 0.664059 0.382970
O O7 0.397591 0.722115 0.549173
O O8 0.717115 0.782885 0.982905
O O9 0.794580 0.871853 0.843708
O O10 0.758312 0.898123 0.093786
O O11 0.837873 0.337873 0.448339
O O12 0.945576 0.279413 0.333841
O O13 0.905059 0.246425 0.596101
O O14 0.003437 0.172265 0.213395
O O15 0.070686 0.068102 0.296476
O O16 0.003544 0.134723 0.488646
O O17 0.892644 0.899118 0.667954
O O18 0.997650 0.814724 0.734999
#
# Coordination Sequence:
#
# PCOD8306630 Si02
#       8
#     8   8   8   8   8   8   8   8
#     4  10  20  35  56  83 116 145 184 238 288 336
#     4   9  16  30  53  82 111 142 189 241 280 322
#     4  11  25  42  58  80 114 157 197 243 289 340
#     4  10  18  32  56  83 105 142 193 235 279 333
#     4  11  19  30  50  81 115 151 186 221 268 342
#     4  11  19  34  53  82 110 157 189 233 284 344
#     4  12  20  35  60  83 109 146 195 238 289 335
#     4  11  23  35  55  78 118 153 191 233 284 342
#
# _framework density 18.240359000000002
#
# number of rings (size 3 to 8) (size 9 to 14) (size 15 to 20)
#    0.000    1.375    5.000    2.250    1.750    0.750 
#    0.000    0.000    0.000    1.500    0.000    0.000 
#    0.000    3.000    0.000    0.000    0.000    0.000 
#
# Total GULP energy -793020.984377 kJ/mol
# GULP energy per Si atom -12390.952881 kJ/mol
# Density = 1.819884 g / cm^3
# Si number density = 18.240359 Si / 1000 Ang^3
#
#
#
# Elastic Constant Matrix: (Units=GPa)
#
#
# Indices 1 2 3 4 5 6 
#
# 1 103.5315 51.3291 37.4008 0.0000 0.0000 -0.0005
# 2 51.3291 103.5315 37.4008 0.0000 0.0000 0.0005
# 3 37.4008 37.4008 76.5231 0.0000 0.0000 0.0000
# 4 0.0000 0.0000 0.0000 21.6985 0.0000 0.0000
# 5 0.0000 0.0000 0.0000 0.0000 21.6985 0.0000
# 6 -0.0005 0.0005 0.0000 0.0000 0.0000 27.4096
#
#
#
# Elastic Compliance Matrix: (Units=1/GPa)
#
#
# Indices 1 2 3 4 5 6 
#
# 1 0.013805 -0.005352 -0.004131 0.000000 0.000000 0.000000
# 2 -0.005352 0.013805 -0.004131 0.000000 0.000000 0.000000
# 3 -0.004131 -0.004131 0.017106 0.000000 0.000000 0.000000
# 4 0.000000 0.000000 0.000000 0.046086 0.000000 0.000000
# 5 0.000000 0.000000 0.000000 0.000000 0.046086 0.000000
# 6 0.000000 0.000000 0.000000 0.000000 0.000000 0.036484
#
#
# Mechanical properties :
#
#
# Convention : Reuss Voigt Hill
#
# Bulk Modulus (GPa) = 57.18615 59.53862 58.36238
# Shear Modulus (GPa) = 24.22135 24.65833 24.43984
#
# Velocity S-wave (km/s) = 3.64799 3.68075 3.66440
# Velocity P-wave (km/s) = 7.01165 7.12572 7.06892
#
# Compressibility (1/GPa) = 0.01748675
#
# Stress axis : x y z
#
# Youngs Moduli (GPa) = 72.43958 72.43958 58.45753
#
# Poissons Ratio (x) = 0.38767 0.24151
# Poissons Ratio (y) = 0.38767 0.24151
# Poissons Ratio (z) = 0.29928 0.29928
#
# Static dielectric constant tensor:
#      x y z
#    x 3.533210 0.000000 0.000000 
#    y 0.000000 3.533210 0.000000 
#    z 0.000000 0.000000 3.241800 
# 
# 
# High freq. dielectric constant tensor:
#      x y z
#    x 1.699500 0.000000 0.000000 
#    y 0.000000 1.699500 0.000000 
#    z 0.000000 0.000000 1.687320 
# 
# From -- ./inp_files/1086.got.cif
#   From: 2010.03.12/outbox.cif.g09.slc.cpg/sg100_cif.got.tgz:1086.got - 2010.04.14 01:37:57.
