data_PCOD8306499
_publ_section_title
;
Structure prediction by ZEFSAII (Michael W. Deem and Ramdas Pophale) SiO2 
 PCOD8306499
Probable space group: P 4 M M
;
_chemical_formula_sum "Si O2"
_cell_formula_units_Z 56
_cell_length_a 13.577351
_cell_length_b 13.577351
_cell_length_c 18.017133
_cell_angle_alpha 90.000000
_cell_angle_beta 90.000000
_cell_angle_gamma 90.000000
_cell_volume 3321.358657
_symmetry_space_group_name_H-M "P 4 M M"
_symmetry_group_IT_number 99
_symmetry_cell_setting 'tetragonal'
loop_
_space_group_symop_operation_xyz
x,y,z
-y,x,z
-x,-y,z
y,-x,z
-x,y,z
x,-y,z
-y,-x,z
y,x,z
loop_
_atom_site_type_symbol
_atom_site_label
_atom_site_fract_x
_atom_site_fract_y
_atom_site_fract_z
Si Si1 0.390134 0.883438 0.193670
Si Si2 0.384546 0.775411 0.922371
Si Si3 0.883906 0.724101 0.047723
Si Si4 0.386227 0.111936 0.773730
Si Si5 0.609711 0.883151 0.483763
Si Si6 0.883738 0.726117 0.338670
Si Si7 0.727657 0.115583 0.626598
O O1 0.500000 0.837475 0.189336
O O2 0.326078 0.848036 0.123912
O O3 0.338747 0.848145 0.269125
O O4 0.398423 0.000000 0.192857
O O5 0.500000 0.754853 0.932141
O O6 0.326983 0.673018 0.934260
O O7 0.358986 0.817544 0.841546
O O8 0.350416 0.856630 0.981732
O O9 0.827903 0.827903 0.038126
O O10 0.000000 0.745751 0.046626
O O11 0.500000 0.120411 0.752089
O O12 0.325495 0.146271 0.702433
O O13 0.359686 0.000000 0.796076
O O14 0.500000 0.837881 0.480418
O O15 0.669881 0.847831 0.412145
O O16 0.661954 0.845452 0.558391
O O17 0.603138 0.000000 0.484268
O O18 0.832274 0.832274 0.335385
O O19 0.000000 0.745493 0.337700
O O20 0.833799 0.166201 0.623389
O O21 0.746154 0.000000 0.620961
#
# Coordination Sequence:
#
# PCOD8306499 Si02
#       7
#     8   8   8   8   8   8   8
#     4   9  17  30  48  68  91 121 157 197 236 270
#     4  10  20  33  50  72  97 126 161 201 245 291
#     4  10  20  33  50  73 100 129 161 196 236 286
#     4   9  17  30  49  71  93 119 154 197 241 280
#     4   9  17  30  47  65  86 114 150 193 236 270
#     4  10  19  30  45  67  96 127 157 189 228 278
#     4  10  19  30  45  66  94 125 154 185 222 270
#
# _framework density 16.860571
#
# number of rings (size 3 to 8) (size 9 to 14) (size 15 to 20)
#    0.000    2.429    0.000    3.000    0.000    5.429 
#    0.000    0.000    0.000    5.143    0.000    2.000 
#    0.000   31.714    0.000    0.000    0.000    0.000 
#
# Total GULP energy -694439.826036 kJ/mol
# GULP energy per Si atom -12400.711179 kJ/mol
# Density = 1.682220 g / cm^3
# Si number density = 16.860571 Si / 1000 Ang^3
#
#
#
# Elastic Constant Matrix: (Units=GPa)
#
#
# Indices 1 2 3 4 5 6 
#
# 1 80.6688 45.7500 46.6946 0.0000 0.0000 -0.0002
# 2 45.7500 80.6688 46.6946 0.0000 0.0000 0.0002
# 3 46.6946 46.6946 129.5193 0.0000 0.0000 0.0000
# 4 0.0000 0.0000 0.0000 20.9440 0.0000 0.0000
# 5 0.0000 0.0000 0.0000 0.0000 20.9440 0.0000
# 6 -0.0002 0.0002 0.0000 0.0000 0.0000 15.9574
#
#
#
# Elastic Compliance Matrix: (Units=1/GPa)
#
#
# Indices 1 2 3 4 5 6 
#
# 1 0.019710 -0.008928 -0.003887 0.000000 0.000000 0.000000
# 2 -0.008928 0.019710 -0.003887 0.000000 0.000000 0.000000
# 3 -0.003887 -0.003887 0.010524 0.000000 0.000000 0.000000
# 4 0.000000 0.000000 0.000000 0.047746 0.000000 0.000000
# 5 0.000000 0.000000 0.000000 0.000000 0.047746 0.000000
# 6 0.000000 0.000000 0.000000 0.000000 0.000000 0.062667
#
#
# Mechanical properties :
#
#
# Convention : Reuss Voigt Hill
#
# Bulk Modulus (GPa) = 60.46390 63.23728 61.85059
# Shear Modulus (GPa) = 20.24130 21.68361 20.96246
#
# Velocity S-wave (km/s) = 3.46860 3.59005 3.52985
# Velocity P-wave (km/s) = 7.20975 7.40081 7.30591
#
# Compressibility (1/GPa) = 0.01653879
#
# Stress axis : x y z
#
# Youngs Moduli (GPa) = 50.73630 50.73630 95.02461
#
# Poissons Ratio (x) = 0.45298 0.36936
# Poissons Ratio (y) = 0.45298 0.36936
# Poissons Ratio (z) = 0.19721 0.19721
#
# Static dielectric constant tensor:
#      x y z
#    x 2.984540 0.000000 0.000000 
#    y 0.000000 2.984540 0.000000 
#    z 0.000000 0.000000 3.391570 
# 
# 
# High freq. dielectric constant tensor:
#      x y z
#    x 1.632510 0.000000 0.000000 
#    y 0.000000 1.632510 0.000000 
#    z 0.000000 0.000000 1.670970 
# 
# From -- ./inp_files/2141.got.cif
#   From: 2010.03.12/outbox.cif.g09.slc.cpg/sg99_cif.got.tgz:2141.got - 2010.04.08 21:11:30.
