data_PCOD8306644
_publ_section_title
;
Structure prediction by ZEFSAII (Michael W. Deem and Ramdas Pophale) SiO2 
 PCOD8306644
Probable space group: P 4 B M
;
_chemical_formula_sum "Si O2"
_cell_formula_units_Z 48
_cell_length_a 17.381643
_cell_length_b 17.381643
_cell_length_c 9.452957
_cell_angle_alpha 90.000000
_cell_angle_beta 90.000000
_cell_angle_gamma 90.000000
_cell_volume 2855.941675
_symmetry_space_group_name_H-M "P 4 B M"
_symmetry_group_IT_number 100
_symmetry_cell_setting 'tetragonal'
loop_
_space_group_symop_operation_xyz
x,y,z
-y,x,z
-x,-y,z
y,-x,z
1/2-x,1/2+y,z
1/2+x,1/2-y,z
1/2-y,1/2-x,z
1/2+y,1/2+x,z
loop_
_atom_site_type_symbol
_atom_site_label
_atom_site_fract_x
_atom_site_fract_y
_atom_site_fract_z
Si Si1 0.682788 0.312039 0.932180
Si Si2 0.582791 0.211892 0.427313
Si Si3 0.694080 0.932077 0.253560
Si Si4 0.187960 0.817211 0.245523
Si Si5 0.194080 0.567924 0.924138
Si Si6 0.288108 0.917209 0.750388
O O1 0.747198 0.247198 0.936869
O O2 0.724323 0.391460 0.887544
O O3 0.616233 0.289602 0.821794
O O4 0.645967 0.320148 0.088851
O O5 0.643498 0.143498 0.415146
O O6 0.506886 0.184193 0.348254
O O7 0.616233 0.289602 0.355908
O O8 0.563259 0.231541 0.588850
O O9 0.623973 0.876028 0.292211
O O10 0.775677 0.891461 0.290157
O O11 0.691280 0.954809 0.088849
O O12 0.252801 0.752801 0.240834
O O13 0.123972 0.623972 0.885487
O O14 0.184193 0.493114 0.829445
O O15 0.356502 0.856502 0.762555
#
# Coordination Sequence:
#
# PCOD8306644 Si02
#       6
#     8   8   8   8   8   8
#     4   8  15  30  50  68  87 116 157 198 230 267
#     4  10  20  31  45  69  99 128 155 185 228 280
#     4   9  18  32  50  71  93 121 158 196 233 272
#     4   8  15  30  50  68  87 116 157 198 230 267
#     4   9  18  32  50  71  93 121 158 196 233 272
#     4  10  20  31  45  69  99 128 155 185 228 280
#
# _framework density 16.807065999999999
#
# number of rings (size 3 to 8) (size 9 to 14) (size 15 to 20)
#    0.000    3.000    0.000    3.000    0.000    4.667 
#    0.000    6.667    0.000    1.000    0.000    7.000 
#    0.000    0.000    0.000    0.000    0.000    0.000 
#
# Total GULP energy -595047.931350 kJ/mol
# GULP energy per Si atom -12396.831903 kJ/mol
# Density = 1.676881 g / cm^3
# Si number density = 16.807066 Si / 1000 Ang^3
#
#
#
# Elastic Constant Matrix: (Units=GPa)
#
#
# Indices 1 2 3 4 5 6 
#
# 1 39.1765 34.2116 43.2321 0.0000 0.0000 0.0001
# 2 34.2116 39.1765 43.2321 0.0000 0.0000 -0.0001
# 3 43.2321 43.2321 106.0484 0.0000 0.0000 0.0000
# 4 0.0000 0.0000 0.0000 24.6092 0.0000 0.0000
# 5 0.0000 0.0000 0.0000 0.0000 24.6092 0.0000
# 6 0.0001 -0.0001 0.0000 0.0000 0.0000 11.8439
#
#
#
# Elastic Compliance Matrix: (Units=1/GPa)
#
#
# Indices 1 2 3 4 5 6 
#
# 1 0.113818 -0.087599 -0.010689 0.000000 0.000000 -0.000001
# 2 -0.087599 0.113818 -0.010689 0.000000 0.000000 0.000001
# 3 -0.010689 -0.010689 0.018144 0.000000 0.000000 0.000000
# 4 0.000000 0.000000 0.000000 0.040635 0.000000 0.000000
# 5 0.000000 0.000000 0.000000 0.000000 0.040635 0.000000
# 6 -0.000001 0.000001 0.000000 0.000000 0.000000 0.084432
#
#
# Mechanical properties :
#
#
# Convention : Reuss Voigt Hill
#
# Bulk Modulus (GPa) = 35.93451 47.30588 41.62020
# Shear Modulus (GPa) = 7.82826 16.46084 12.14455
#
# Velocity S-wave (km/s) = 2.16052 3.13293 2.69101
# Velocity P-wave (km/s) = 5.25840 6.42608 5.87134
#
# Compressibility (1/GPa) = 0.02782840
#
# Stress axis : x y z
#
# Youngs Moduli (GPa) = 8.78594 8.78594 55.11332
#
# Poissons Ratio (x) = 0.76964 0.58909
# Poissons Ratio (y) = 0.76964 0.58909
# Poissons Ratio (z) = 0.09391 0.09391
#
# Static dielectric constant tensor:
#      x y z
#    x 3.047860 0.000000 0.000000 
#    y 0.000000 3.047860 0.000000 
#    z 0.000000 0.000000 3.295240 
# 
# 
# High freq. dielectric constant tensor:
#      x y z
#    x 1.629840 0.000000 0.000000 
#    y 0.000000 1.629840 0.000000 
#    z 0.000000 0.000000 1.651410 
# 
# From -- ./inp_files/884.got.cif
#   From: 2010.03.12/outbox.cif.g09.slc.cpg/sg100_cif.got.tgz:884.got - 2010.04.14 01:37:57.
