data_PCOD8306169
_publ_section_title
;
Structure prediction by ZEFSAII (Michael W. Deem and Ramdas Pophale) SiO2 
 PCOD8306169
Probable space group: I 4 2 2 
;
_chemical_formula_sum "Si O2"
_cell_formula_units_Z 96
_cell_length_a 14.519432
_cell_length_b 14.519432
_cell_length_c 21.351864
_cell_angle_alpha 90.000000
_cell_angle_beta 90.000000
_cell_angle_gamma 90.000000
_cell_volume 4501.269842
_symmetry_space_group_name_H-M "I 4 2 2 "
_symmetry_group_IT_number 97
_symmetry_cell_setting 'tetragonal'
loop_
_space_group_symop_operation_xyz
x,y,z
-y,x,z
-x,-y,z
y,-x,z
x,-y,-z
-x,y,-z
y,x,-z
-y,-x,-z
1/2+x,1/2+y,1/2+z
1/2-y,1/2+x,1/2+z
1/2-x,1/2-y,1/2+z
1/2+y,1/2-x,1/2+z
1/2+x,1/2-y,1/2-z
1/2-x,1/2+y,1/2-z
1/2+y,1/2+x,1/2-z
1/2-y,1/2-x,1/2-z
loop_
_atom_site_type_symbol
_atom_site_label
_atom_site_fract_x
_atom_site_fract_y
_atom_site_fract_z
Si Si1 0.984145 0.768663 0.862464
Si Si2 0.008555 0.153860 0.724905
Si Si3 0.340801 0.312979 0.572618
Si Si4 0.654613 0.285752 0.066452
Si Si5 0.956819 0.254055 0.396207
Si Si6 0.904551 0.539569 0.570345
O O1 0.989623 0.793635 0.790503
O O2 0.882648 0.777655 0.889658
O O3 0.005020 0.662229 0.878042
O O4 0.056061 0.828900 0.902373
O O5 0.008880 0.239507 0.675596
O O6 0.914209 0.095958 0.718888
O O7 0.337304 0.337304 0.500000
O O8 0.302843 0.211320 0.591894
O O9 0.546407 0.264636 0.060922
O O10 0.672475 0.381366 0.102205
O O11 0.699256 0.300745 0.000000
O O12 0.911054 0.349030 0.420917
O O13 0.879083 0.500000 0.500000
O O14 0.000000 0.500000 0.591809
#
# Coordination Sequence:
#
# PCOD8306169 Si02
#       6
#    16  16  16  16  16  16
#     4  12  23  43  68 104 138 194 248 296 374 437
#     4  11  24  46  69  99 148 196 243 303 370 439
#     4  11  23  40  65 102 145 184 240 309 372 450
#     4  11  25  41  69 104 143 175 238 298 373 444
#     4  12  24  46  70 107 138 191 241 298 363 437
#     4  11  26  45  74 104 149 187 230 293 376 451
#
# _framework density 21.327314000000001
#
# number of rings (size 3 to 8) (size 9 to 14) (size 15 to 20)
#    0.000    0.667    5.000    3.000    7.000    1.333 
#    0.000    7.500    0.000    0.000    0.000    0.000 
#    0.000    0.000    0.000    0.000    0.000    0.000 
#
# Total GULP energy -594652.127641 kJ/mol
# GULP energy per Si atom -12388.585993 kJ/mol
# Density = 2.127877 g / cm^3
# Si number density = 21.327314 Si / 1000 Ang^3
#
#
#
# Elastic Constant Matrix: (Units=GPa)
#
#
# Indices 1 2 3 4 5 6 
#
# 1 111.7298 3.3958 46.5222 0.0000 0.0000 0.0000
# 2 3.3958 111.7290 46.5218 0.0000 0.0000 0.0000
# 3 46.5222 46.5218 100.4792 0.0000 0.0000 0.0000
# 4 0.0000 0.0000 0.0000 29.5403 0.0000 0.0000
# 5 0.0000 0.0000 0.0000 0.0000 29.5408 0.0000
# 6 0.0000 0.0000 0.0000 0.0000 0.0000 29.5080
#
#
#
# Elastic Compliance Matrix: (Units=1/GPa)
#
#
# Indices 1 2 3 4 5 6 
#
# 1 0.011555 0.002325 -0.006426 0.000000 0.000000 0.000000
# 2 0.002325 0.011555 -0.006426 0.000000 0.000000 0.000000
# 3 -0.006426 -0.006426 0.015903 0.000000 0.000000 0.000000
# 4 0.000000 0.000000 0.000000 0.033852 0.000000 0.000000
# 5 0.000000 0.000000 0.000000 0.000000 0.033851 0.000000
# 6 0.000000 0.000000 0.000000 0.000000 0.000000 0.033889
#
#
# Mechanical properties :
#
#
# Convention : Reuss Voigt Hill
#
# Bulk Modulus (GPa) = 55.68723 57.42417 56.55570
# Shear Modulus (GPa) = 29.82417 32.88436 31.35427
#
# Velocity S-wave (km/s) = 3.74358 3.93095 3.83841
# Velocity P-wave (km/s) = 6.69726 6.89832 6.79853
#
# Compressibility (1/GPa) = 0.01795744
#
# Stress axis : x y z
#
# Youngs Moduli (GPa) = 86.53977 86.53932 62.88016
#
# Poissons Ratio (x) = -0.20118 0.40410
# Poissons Ratio (y) = -0.20118 0.40410
# Poissons Ratio (z) = 0.55615 0.55614
#
# Static dielectric constant tensor:
#      x y z
#    x 4.286420 0.000000 0.000000 
#    y 0.000000 4.286460 0.000000 
#    z 0.000000 0.000000 4.118000 
# 
# 
# High freq. dielectric constant tensor:
#      x y z
#    x 1.846970 0.000000 0.000000 
#    y 0.000000 1.846970 0.000000 
#    z 0.000000 0.000000 1.825630 
# 
# From -- ./inp_files/6617.got.cif
#   From: 2010.03.12/outbox.cif.g09.slc.cpg/sg97_4_cif.got.tgz:6617.got - 2010.04.08 20:59:42.
