data_PCOD8306038
_publ_section_title
;
Structure prediction by ZEFSAII (Michael W. Deem and Ramdas Pophale) SiO2 
 PCOD8306038
Probable space group: I 4 2 2 
;
_chemical_formula_sum "Si O2"
_cell_formula_units_Z 96
_cell_length_a 20.242174
_cell_length_b 20.242174
_cell_length_c 11.931685
_cell_angle_alpha 90.000000
_cell_angle_beta 90.000000
_cell_angle_gamma 90.000000
_cell_volume 4888.955528
_symmetry_space_group_name_H-M "I 4 2 2 "
_symmetry_group_IT_number 97
_symmetry_cell_setting 'tetragonal'
loop_
_space_group_symop_operation_xyz
x,y,z
-y,x,z
-x,-y,z
y,-x,z
x,-y,-z
-x,y,-z
y,x,-z
-y,-x,-z
1/2+x,1/2+y,1/2+z
1/2-y,1/2+x,1/2+z
1/2-x,1/2-y,1/2+z
1/2+y,1/2-x,1/2+z
1/2+x,1/2-y,1/2-z
1/2-x,1/2+y,1/2-z
1/2+y,1/2+x,1/2-z
1/2-y,1/2-x,1/2-z
loop_
_atom_site_type_symbol
_atom_site_label
_atom_site_fract_x
_atom_site_fract_y
_atom_site_fract_z
Si Si1 0.000000 0.289151 0.500000
Si Si2 0.509293 0.246031 0.239420
Si Si3 0.616586 0.743664 0.389742
Si Si4 0.980555 0.395955 0.826376
Si Si5 0.575628 0.424373 0.500000
Si Si6 0.394404 0.112119 0.459637
Si Si7 0.813403 0.878846 0.868023
O O1 0.996854 0.240393 0.606794
O O2 0.064612 0.333837 0.516948
O O3 0.447733 0.271572 0.312931
O O4 0.511698 0.167172 0.247686
O O5 0.579178 0.280078 0.270472
O O6 0.632492 0.821728 0.397346
O O7 0.680732 0.701074 0.344511
O O8 0.601339 0.723129 0.517318
O O9 0.954951 0.454951 0.750000
O O10 0.050588 0.420602 0.877587
O O11 0.930045 0.372401 0.922986
O O12 0.592870 0.500000 0.500000
O O13 0.603860 0.390988 0.386388
#
# Coordination Sequence:
#
# PCOD8306038 Si02
#       7
#     8  16  16  16   8  16  16
#     4  12  26  39  58  80 126 169 214 252 290 368
#     4  11  21  38  58  86 122 168 199 244 310 365
#     4   9  19  35  64  88 119 151 199 260 315 360
#     4  10  19  36  59  83 120 155 199 261 313 350
#     4   9  16  26  50  96 126 130 164 240 308 366
#     4  10  21  38  56  89 116 153 205 259 313 358
#     4  10  18  34  63  92 114 158 192 249 317 365
#
# _framework density 19.636096999999999
#
# number of rings (size 3 to 8) (size 9 to 14) (size 15 to 20)
#    0.000    2.083    3.333    2.500    0.000    4.000 
#    3.000    0.833   18.333    0.000    0.000    0.000 
#    0.000    2.667    0.000    0.000    0.000    0.000 
#
# Total GULP energy -594742.174122 kJ/mol
# GULP energy per Si atom -12390.461961 kJ/mol
# Density = 1.959140 g / cm^3
# Si number density = 19.636097 Si / 1000 Ang^3
#
#
#
# Elastic Constant Matrix: (Units=GPa)
#
#
# Indices 1 2 3 4 5 6 
#
# 1 79.5318 37.9152 35.3499 0.0000 0.0000 0.0000
# 2 37.9152 79.5324 35.3501 0.0000 0.0000 0.0000
# 3 35.3499 35.3501 109.0548 0.0000 0.0000 0.0000
# 4 0.0000 0.0000 0.0000 22.9477 0.0000 0.0000
# 5 0.0000 0.0000 0.0000 0.0000 22.9478 0.0000
# 6 0.0000 0.0000 0.0000 0.0000 0.0000 37.3737
#
#
#
# Elastic Compliance Matrix: (Units=1/GPa)
#
#
# Indices 1 2 3 4 5 6 
#
# 1 0.017304 -0.006725 -0.003429 0.000000 0.000000 0.000000
# 2 -0.006725 0.017304 -0.003429 0.000000 0.000000 0.000000
# 3 -0.003429 -0.003429 0.011393 0.000000 0.000000 0.000000
# 4 0.000000 0.000000 0.000000 0.043577 0.000000 0.000000
# 5 0.000000 0.000000 0.000000 0.000000 0.043577 0.000000
# 6 0.000000 0.000000 0.000000 0.000000 0.000000 0.026757
#
#
# Mechanical properties :
#
#
# Convention : Reuss Voigt Hill
#
# Bulk Modulus (GPa) = 53.09597 53.92773 53.51185
# Shear Modulus (GPa) = 25.85910 27.28744 26.57327
#
# Velocity S-wave (km/s) = 3.63287 3.73185 3.68270
# Velocity P-wave (km/s) = 6.68548 6.78912 6.73750
#
# Compressibility (1/GPa) = 0.01883382
#
# Stress axis : x y z
#
# Youngs Moduli (GPa) = 57.79102 57.79145 87.77510
#
# Poissons Ratio (x) = 0.38865 0.30099
# Poissons Ratio (y) = 0.38864 0.30099
# Poissons Ratio (z) = 0.19817 0.19817
#
# Static dielectric constant tensor:
#      x y z
#    x 3.684490 0.000000 0.000000 
#    y 0.000000 3.684490 0.000000 
#    z 0.000000 0.000000 3.608540 
# 
# 
# High freq. dielectric constant tensor:
#      x y z
#    x 1.755240 0.000000 0.000000 
#    y 0.000000 1.755240 0.000000 
#    z 0.000000 0.000000 1.752240 
# 
# From -- ./inp_files/3901.got.cif
#   From: 2010.03.12/outbox.cif.g09.slc.cpg/sg97_2_cif.got.tgz:3901.got - 2010.04.08 20:59:42.
