data_PCOD8306362
_publ_section_title
;
Structure prediction by ZEFSAII (Michael W. Deem and Ramdas Pophale) SiO2 
 PCOD8306362
Probable space group: I 41 2 2
;
_chemical_formula_sum "Si O2"
_cell_formula_units_Z 64
_cell_length_a 19.941164
_cell_length_b 19.941164
_cell_length_c 10.418656
_cell_angle_alpha 90.000000
_cell_angle_beta 90.000000
_cell_angle_gamma 90.000000
_cell_volume 4142.978784
_symmetry_space_group_name_H-M "I 41 2 2"
_symmetry_group_IT_number 98
_symmetry_cell_setting 'tetragonal'
loop_
_space_group_symop_operation_xyz
x,y,z
-y,1/2+x,1/4+z
-x,-y,z
y,1/2-x,1/4+z
x,1/2-y,1/4-z
-x,1/2+y,1/4-z
y,x,-z
-y,-x,-z
1/2+x,1/2+y,1/2+z
1/2-y,x,3/4+z
1/2-x,1/2-y,1/2+z
1/2+y,-x,3/4+z
1/2+x,-y,3/4-z
1/2-x,y,3/4-z
1/2+y,1/2+x,1/2-z
1/2-y,1/2-x,1/2-z
loop_
_atom_site_type_symbol
_atom_site_label
_atom_site_fract_x
_atom_site_fract_y
_atom_site_fract_z
Si Si1 0.993727 0.607129 0.394543
Si Si2 0.293177 0.911543 0.501522
Si Si3 0.891313 0.997176 0.856791
Si Si4 0.704395 0.098125 0.997443
O O1 0.924938 0.572101 0.446321
O O2 0.017690 0.667112 0.486725
O O3 0.983548 0.635944 0.250635
O O4 0.051789 0.552726 0.387442
O O5 0.250000 0.916179 0.375000
O O6 0.246865 0.901256 0.624261
O O7 0.343475 0.849821 0.491450
O O8 0.830909 0.024868 0.768716
O O9 0.750000 0.114361 0.875000
#
# Coordination Sequence:
#
# PCOD8306362 Si02
#       4
#    16  16  16  16
#     4   8  14  28  47  66  85 111 150 202 243 260
#     4  11  22  32  43  65  99 130 156 187 226 272
#     4   8  14  27  49  67  81 109 157 204 235 260
#     4  11  20  32  47  66  91 127 166 191 216 265
#
# _framework density 15.447822
#
# number of rings (size 3 to 8) (size 9 to 14) (size 15 to 20)
#    0.000    2.500    2.500    3.000    0.000    3.000 
#    0.000    1.250    0.000    6.000    0.000    0.000 
#    0.000    6.000    0.000    0.000    0.000    0.000 
#
# Total GULP energy -396476.832368 kJ/mol
# GULP energy per Si atom -12389.901011 kJ/mol
# Density = 1.541266 g / cm^3
# Si number density = 15.447822 Si / 1000 Ang^3
#
#
#
# Elastic Constant Matrix: (Units=GPa)
#
#
# Indices 1 2 3 4 5 6 
#
# 1 65.2037 67.2208 46.5726 0.0000 0.0000 0.0000
# 2 67.2208 65.2037 46.5726 0.0000 0.0000 0.0000
# 3 46.5726 46.5726 102.1118 0.0000 0.0000 0.0000
# 4 0.0000 0.0000 0.0000 -10.6025 0.0000 0.0000
# 5 0.0000 0.0000 0.0000 0.0000 -10.6025 0.0000
# 6 0.0000 0.0000 0.0000 0.0000 0.0000 28.4399
#
#
#
# Elastic Compliance Matrix: (Units=1/GPa)
#
#
# Indices 1 2 3 4 5 6 
#
# 1 -0.242317 0.253436 -0.005071 0.000000 0.000000 0.000000
# 2 0.253436 -0.242317 -0.005071 0.000000 0.000000 0.000000
# 3 -0.005071 -0.005071 0.014419 0.000000 0.000000 0.000000
# 4 0.000000 0.000000 0.000000 -0.094318 0.000000 0.000000
# 5 0.000000 0.000000 0.000000 0.000000 -0.094318 0.000000
# 6 0.000000 0.000000 0.000000 0.000000 0.000000 0.035162
#
#
# Mechanical properties :
#
#
# Convention : Reuss Voigt Hill
#
# Bulk Modulus (GPa) = 61.08161 61.47236 61.27699
# Shear Modulus (GPa) = -4.52563 6.25719 0.86578
#
# Velocity S-wave (km/s) = -1.71347 2.01478 0.74945
# Velocity P-wave (km/s) = 5.97593 6.72996 6.36412
#
# Compressibility (1/GPa) = 0.01637154
#
# Stress axis : x y z
#
# Youngs Moduli (GPa) = -4.12682 -4.12682 69.35332
#
# Poissons Ratio (x) = 1.04588 0.35169
# Poissons Ratio (y) = 1.04588 0.35169
# Poissons Ratio (z) = -0.02093 -0.02093
#
# Static dielectric constant tensor:
#      x y z
#    x 3.161480 0.000000 0.000000 
#    y 0.000000 3.161480 0.000000 
#    z 0.000000 0.000000 2.800540 
# 
# 
# High freq. dielectric constant tensor:
#      x y z
#    x 1.577020 0.000000 0.000000 
#    y 0.000000 1.577020 0.000000 
#    z 0.000000 0.000000 1.576950 
# 
# From -- ./inp_files/3250.got.cif
#   From: 2010.03.12/outbox.cif.g09.slc.cpg/sg98_2_cif.got.tgz:3250.got - 2010.04.08 21:04:41.
