data_PCOD8306829
_publ_section_title
;
Structure prediction by ZEFSAII (Michael W. Deem and Ramdas Pophale) SiO2 
 PCOD8306829
Probable space group: P 42 N M
;
_chemical_formula_sum "Si O2"
_cell_formula_units_Z 48
_cell_length_a 11.266854
_cell_length_b 11.266854
_cell_length_c 18.830694
_cell_angle_alpha 90.000000
_cell_angle_beta 90.000000
_cell_angle_gamma 90.000000
_cell_volume 2390.405940
_symmetry_space_group_name_H-M "P 42 N M"
_symmetry_group_IT_number 102
_symmetry_cell_setting 'tetragonal'
loop_
_space_group_symop_operation_xyz
x,y,z
1/2-y,1/2+x,1/2+z
-x,-y,z
1/2+y,1/2-x,1/2+z
1/2-x,1/2+y,1/2+z
1/2+x,1/2-y,1/2+z
-y,-x,z
y,x,z
loop_
_atom_site_type_symbol
_atom_site_label
_atom_site_fract_x
_atom_site_fract_y
_atom_site_fract_z
Si Si1 0.064268 0.252046 0.260710
Si Si2 0.541597 0.272120 0.406970
Si Si3 0.867025 0.528352 0.894950
Si Si4 0.395684 0.904738 0.166331
Si Si5 0.350475 0.163009 0.506465
Si Si6 0.553540 0.736554 0.249186
O O1 0.118691 0.118691 0.251266
O O2 0.166178 0.345127 0.244660
O O3 0.017875 0.267470 0.341092
O O4 0.953694 0.280254 0.208735
O O5 0.605145 0.394856 0.426782
O O6 0.641437 0.168799 0.406461
O O7 0.444327 0.247474 0.466899
O O8 0.482808 0.282282 0.330258
O O9 0.000000 0.500000 0.864334
O O10 0.847624 0.465962 0.970648
O O11 0.351337 0.884576 0.087593
O O12 0.442018 0.780731 0.201533
O O13 0.500000 0.000000 0.168312
O O14 0.221348 0.221348 0.500353
O O15 0.611377 0.611377 0.221646
#
# Coordination Sequence:
#
# PCOD8306829 Si02
#       6
#     8   8   8   8   8   8
#     4  10  17  31  59  87 115 153 204 252 294 358
#     4  11  22  36  59  90 122 156 197 249 307 366
#     4  10  17  35  59  85 110 151 203 245 292 350
#     4  10  20  37  55  87 120 158 206 250 307 368
#     4  11  23  38  60  86 118 158 199 248 304 363
#     4  10  19  34  59  90 120 153 200 256 309 365
#
# _framework density 20.080272999999998
#
# number of rings (size 3 to 8) (size 9 to 14) (size 15 to 20)
#    0.000    1.667    5.000    3.000    0.000    2.667 
#    0.000    4.167    0.000    4.000    0.000    0.000 
#    0.000    0.000    0.000    0.000    0.000    0.000 
#
# Total GULP energy -594977.613821 kJ/mol
# GULP energy per Si atom -12395.366955 kJ/mol
# Density = 2.003457 g / cm^3
# Si number density = 20.080273 Si / 1000 Ang^3
#
#
#
# Elastic Constant Matrix: (Units=GPa)
#
#
# Indices 1 2 3 4 5 6 
#
# 1 60.5726 56.7634 39.5866 0.0000 0.0000 0.0004
# 2 56.7634 60.5726 39.5866 0.0000 0.0000 -0.0004
# 3 39.5866 39.5866 136.3200 0.0000 0.0000 0.0000
# 4 0.0000 0.0000 0.0000 5.2561 0.0000 0.0000
# 5 0.0000 0.0000 0.0000 0.0000 5.2561 0.0000
# 6 0.0004 -0.0004 0.0000 0.0000 0.0000 33.8374
#
#
#
# Elastic Compliance Matrix: (Units=1/GPa)
#
#
# Indices 1 2 3 4 5 6 
#
# 1 0.136562 -0.125962 -0.003078 0.000000 0.000000 -0.000003
# 2 -0.125962 0.136562 -0.003078 0.000000 0.000000 0.000003
# 3 -0.003078 -0.003078 0.009123 0.000000 0.000000 0.000000
# 4 0.000000 0.000000 0.000000 0.190255 0.000000 0.000000
# 5 0.000000 0.000000 0.000000 0.000000 0.190255 0.000000
# 6 -0.000003 0.000003 0.000000 0.000000 0.000000 0.029553
#
#
# Mechanical properties :
#
#
# Convention : Reuss Voigt Hill
#
# Bulk Modulus (GPa) = 55.52419 58.81539 57.16979
# Shear Modulus (GPa) = 5.19454 16.97182 11.08318
#
# Velocity S-wave (km/s) = 1.61012 2.91038 2.35190
# Velocity P-wave (km/s) = 5.58281 6.37554 5.99230
#
# Compressibility (1/GPa) = 0.01801017
#
# Stress axis : x y z
#
# Youngs Moduli (GPa) = 7.32269 7.32269 109.60870
#
# Poissons Ratio (x) = 0.92238 0.33738
# Poissons Ratio (y) = 0.92238 0.33738
# Poissons Ratio (z) = 0.02254 0.02254
#
# Static dielectric constant tensor:
#      x y z
#    x 3.781020 0.000000 0.000000 
#    y 0.000000 3.781020 0.000000 
#    z 0.000000 0.000000 3.563730 
# 
# 
# High freq. dielectric constant tensor:
#      x y z
#    x 1.772180 0.000000 0.000000 
#    y 0.000000 1.772180 0.000000 
#    z 0.000000 0.000000 1.773890 
# 
# From -- ./inp_files/2700.got.cif
#   From: 2010.03.12/outbox.cif.g09.slc.cpg/sg102_2_cif.got.tgz:2700.got - 2010.04.14 01:40:42.
