data_PCOD8306631
_publ_section_title
;
Structure prediction by ZEFSAII (Michael W. Deem and Ramdas Pophale) SiO2 
 PCOD8306631
Probable space group: P 4 B M
;
_chemical_formula_sum "Si O2"
_cell_formula_units_Z 56
_cell_length_a 19.670602
_cell_length_b 19.670602
_cell_length_c 7.492683
_cell_angle_alpha 90.000000
_cell_angle_beta 90.000000
_cell_angle_gamma 90.000000
_cell_volume 2899.163187
_symmetry_space_group_name_H-M "P 4 B M"
_symmetry_group_IT_number 100
_symmetry_cell_setting 'tetragonal'
loop_
_space_group_symop_operation_xyz
x,y,z
-y,x,z
-x,-y,z
y,-x,z
1/2-x,1/2+y,z
1/2+x,1/2-y,z
1/2-y,1/2-x,z
1/2+y,1/2+x,z
loop_
_atom_site_type_symbol
_atom_site_label
_atom_site_fract_x
_atom_site_fract_y
_atom_site_fract_z
Si Si1 0.347973 0.736649 0.489800
Si Si2 0.908684 0.205062 0.391544
Si Si3 0.386989 0.508222 0.614326
Si Si4 0.539751 0.258491 0.790490
Si Si5 0.759355 0.848298 0.040708
Si Si6 0.736957 0.130237 0.100179
Si Si7 0.303544 0.088487 0.701337
O O1 0.277274 0.777274 0.523447
O O2 0.335654 0.657888 0.452888
O O3 0.395980 0.744914 0.659610
O O4 0.384562 0.765140 0.311725
O O5 0.975709 0.158311 0.435667
O O6 0.908540 0.224947 0.182759
O O7 0.906456 0.274606 0.502616
O O8 0.428349 0.438266 0.624716
O O9 0.330114 0.502180 0.770806
O O10 0.491092 0.194108 0.749706
O O11 0.560402 0.247434 0.995010
O O12 0.693393 0.806608 0.108783
O O13 0.823496 0.799432 0.037921
O O14 0.747910 0.875938 0.842126
O O15 0.666717 0.166717 0.043655
O O16 0.378249 0.121752 0.710254
#
# Coordination Sequence:
#
# PCOD8306631 Si02
#       7
#     8   8   8   8   8   8   8
#     4  10  19  34  57  85 107 131 182 243 286 320
#     4  10  18  34  58  77 101 144 184 230 280 316
#     4  10  21  36  52  75 115 159 191 217 253 319
#     4  11  21  33  57  79 107 150 183 220 278 329
#     4   9  18  33  54  80 106 131 176 241 287 320
#     4   9  19  34  55  82 106 130 179 244 289 322
#     4  10  21  34  51  79 111 141 178 224 279 333
#
# _framework density 19.315918
#
# number of rings (size 3 to 8) (size 9 to 14) (size 15 to 20)
#    0.000    2.143    1.429    3.429    2.000    3.429 
#    0.000    0.000    0.000    1.714    0.000    2.000 
#    0.000    0.000    0.000    0.000    0.000    0.000 
#
# Total GULP energy -693779.487807 kJ/mol
# GULP energy per Si atom -12388.919425 kJ/mol
# Density = 1.927195 g / cm^3
# Si number density = 19.315918 Si / 1000 Ang^3
#
#
#
# Elastic Constant Matrix: (Units=GPa)
#
#
# Indices 1 2 3 4 5 6 
#
# 1 53.5565 23.6892 11.2694 0.0000 0.0000 -0.0004
# 2 23.6892 53.5565 11.2694 0.0000 0.0000 0.0004
# 3 11.2694 11.2694 41.7375 0.0000 0.0000 0.0000
# 4 0.0000 0.0000 0.0000 29.1516 0.0000 0.0000
# 5 0.0000 0.0000 0.0000 0.0000 29.1516 0.0000
# 6 -0.0004 0.0004 0.0000 0.0000 0.0000 36.9904
#
#
#
# Elastic Compliance Matrix: (Units=1/GPa)
#
#
# Indices 1 2 3 4 5 6 
#
# 1 0.023767 -0.009714 -0.003794 0.000000 0.000000 0.000000
# 2 -0.009714 0.023767 -0.003794 0.000000 0.000000 0.000000
# 3 -0.003794 -0.003794 0.026008 0.000000 0.000000 0.000000
# 4 0.000000 0.000000 0.000000 0.034303 0.000000 0.000000
# 5 0.000000 0.000000 0.000000 0.000000 0.034303 0.000000
# 6 0.000000 0.000000 0.000000 0.000000 0.000000 0.027034
#
#
# Mechanical properties :
#
#
# Convention : Reuss Voigt Hill
#
# Bulk Modulus (GPa) = 25.68284 26.81183 26.24733
# Shear Modulus (GPa) = 23.06608 25.90022 24.48315
#
# Velocity S-wave (km/s) = 3.45939 3.66577 3.56408
# Velocity P-wave (km/s) = 5.41125 5.64163 5.52764
#
# Compressibility (1/GPa) = 0.03893651
#
# Stress axis : x y z
#
# Youngs Moduli (GPa) = 42.07483 42.07483 38.44928
#
# Poissons Ratio (x) = 0.40873 0.14589
# Poissons Ratio (y) = 0.40873 0.14589
# Poissons Ratio (z) = 0.15965 0.15965
#
# Static dielectric constant tensor:
#      x y z
#    x 3.527810 0.000000 0.000000 
#    y 0.000000 3.527810 0.000000 
#    z 0.000000 0.000000 3.537150 
# 
# 
# High freq. dielectric constant tensor:
#      x y z
#    x 1.735550 0.000000 0.000000 
#    y 0.000000 1.735550 0.000000 
#    z 0.000000 0.000000 1.750210 
# 
# From -- ./inp_files/1044.got.cif
#   From: 2010.03.12/outbox.cif.g09.slc.cpg/sg100_cif.got.tgz:1044.got - 2010.04.14 01:37:57.
