data_PCOD8306110
_publ_section_title
;
Structure prediction by ZEFSAII (Michael W. Deem and Ramdas Pophale) SiO2 
 PCOD8306110
Probable space group: I 4 2 2 
;
_chemical_formula_sum "Si O2"
_cell_formula_units_Z 128
_cell_length_a 23.711488
_cell_length_b 23.711488
_cell_length_c 11.578384
_cell_angle_alpha 90.000000
_cell_angle_beta 90.000000
_cell_angle_gamma 90.000000
_cell_volume 6509.768828
_symmetry_space_group_name_H-M "I 4 2 2 "
_symmetry_group_IT_number 97
_symmetry_cell_setting 'tetragonal'
loop_
_space_group_symop_operation_xyz
x,y,z
-y,x,z
-x,-y,z
y,-x,z
x,-y,-z
-x,y,-z
y,x,-z
-y,-x,-z
1/2+x,1/2+y,1/2+z
1/2-y,1/2+x,1/2+z
1/2-x,1/2-y,1/2+z
1/2+y,1/2-x,1/2+z
1/2+x,1/2-y,1/2-z
1/2-x,1/2+y,1/2-z
1/2+y,1/2+x,1/2-z
1/2-y,1/2-x,1/2-z
loop_
_atom_site_type_symbol
_atom_site_label
_atom_site_fract_x
_atom_site_fract_y
_atom_site_fract_z
Si Si1 0.353800 0.334789 0.209073
Si Si2 0.433233 0.155416 0.242684
Si Si3 0.561788 0.567850 0.135910
Si Si4 0.645565 0.941763 0.779733
Si Si5 0.351391 0.221389 0.085412
Si Si6 0.739349 0.663655 0.574748
Si Si7 0.060411 0.706000 0.007572
Si Si8 0.273229 0.851907 0.316204
O O1 0.400130 0.384435 0.197775
O O2 0.356479 0.288353 0.107031
O O3 0.362393 0.302289 0.329641
O O4 0.292397 0.362232 0.204095
O O5 0.406080 0.093921 0.250000
O O6 0.498653 0.146837 0.215990
O O7 0.405971 0.192025 0.140530
O O8 0.424746 0.186097 0.364077
O O9 0.496322 0.578812 0.171185
O O10 0.572390 0.572390 0.000000
O O11 0.586098 0.913903 0.750000
O O12 0.697957 0.907244 0.732603
O O13 0.653363 0.944589 0.918816
O O14 0.294411 0.192046 0.136026
O O15 0.347776 0.210075 0.949633
O O16 0.712408 0.712408 0.500000
O O17 0.752899 0.613088 0.482857
O O18 0.000000 0.738333 0.000000
O O19 0.295874 0.795874 0.250000
#
# Coordination Sequence:
#
# PCOD8306110 Si02
#       8
#    16  16  16  16  16  16  16  16
#     4  12  22  36  61  96 121 151 205 251 297 367
#     4  11  22  39  64  85 117 163 205 254 302 362
#     4   9  20  41  64  83 114 158 197 243 305 367
#     4  10  23  41  61  88 120 158 207 256 309 360
#     4  12  22  38  60  89 131 161 197 247 306 373
#     4  12  22  38  61  91 121 164 203 243 306 377
#     4  10  21  42  63  84 120 164 203 247 303 371
#     4  11  23  38  57  89 130 164 191 250 313 365
#
# _framework density 19.662756999999999
#
# number of rings (size 3 to 8) (size 9 to 14) (size 15 to 20)
#    0.000    1.125    2.500    6.375    0.000    1.750 
#    2.250    0.000    0.000    2.250    0.000    0.875 
#    0.000    0.000    0.000    0.000    0.000    0.000 
#
# Total GULP energy -793451.779458 kJ/mol
# GULP energy per Si atom -12397.684054 kJ/mol
# Density = 1.961800 g / cm^3
# Si number density = 19.662757 Si / 1000 Ang^3
#
#
#
# Elastic Constant Matrix: (Units=GPa)
#
#
# Indices 1 2 3 4 5 6 
#
# 1 140.7204 79.5366 32.1703 0.0000 0.0000 0.0000
# 2 79.5366 140.7189 32.1699 0.0000 0.0000 0.0000
# 3 32.1703 32.1699 92.7224 0.0000 0.0000 0.0000
# 4 0.0000 0.0000 0.0000 23.1002 0.0000 0.0000
# 5 0.0000 0.0000 0.0000 0.0000 23.1024 0.0000
# 6 0.0000 0.0000 0.0000 0.0000 0.0000 34.8123
#
#
#
# Elastic Compliance Matrix: (Units=1/GPa)
#
#
# Indices 1 2 3 4 5 6 
#
# 1 0.010698 -0.005646 -0.001753 0.000000 0.000000 0.000000
# 2 -0.005646 0.010698 -0.001753 0.000000 0.000000 0.000000
# 3 -0.001753 -0.001753 0.012001 0.000000 0.000000 0.000000
# 4 0.000000 0.000000 0.000000 0.043290 0.000000 0.000000
# 5 0.000000 0.000000 0.000000 0.000000 0.043286 0.000000
# 6 0.000000 0.000000 0.000000 0.000000 0.000000 0.028725
#
#
# Mechanical properties :
#
#
# Convention : Reuss Voigt Hill
#
# Bulk Modulus (GPa) = 66.25087 73.54615 69.89851
# Shear Modulus (GPa) = 29.06411 31.55531 30.30971
#
# Velocity S-wave (km/s) = 3.84882 4.01037 3.93043
# Velocity P-wave (km/s) = 7.31559 7.67653 7.49823
#
# Compressibility (1/GPa) = 0.01509414
#
# Stress axis : x y z
#
# Youngs Moduli (GPa) = 93.47322 93.47236 83.32502
#
# Poissons Ratio (x) = 0.52775 0.14606
# Poissons Ratio (y) = 0.52776 0.14606
# Poissons Ratio (z) = 0.16385 0.16384
#
# Static dielectric constant tensor:
#      x y z
#    x 3.690070 0.000000 0.000000 
#    y 0.000000 3.690060 0.000000 
#    z 0.000000 0.000000 3.703020 
# 
# 
# High freq. dielectric constant tensor:
#      x y z
#    x 1.763970 0.000000 0.000000 
#    y 0.000000 1.763970 0.000000 
#    z 0.000000 0.000000 1.767490 
# 
# From -- ./inp_files/4077.got.cif
#   From: 2010.03.12/outbox.cif.g09.slc.cpg/sg97_3_cif.got.tgz:4077.got - 2010.04.08 20:59:42.
