data_PCOD8306974
_publ_section_title
;
Structure prediction by ZEFSAII (Michael W. Deem and Ramdas Pophale) SiO2 
 PCOD8306974
Probable space group: P 4 C C
;
_chemical_formula_sum "Si O2"
_cell_formula_units_Z 56
_cell_length_a 11.799886
_cell_length_b 11.799886
_cell_length_c 19.423645
_cell_angle_alpha 90.000000
_cell_angle_beta 90.000000
_cell_angle_gamma 90.000000
_cell_volume 2704.496073
_symmetry_space_group_name_H-M "P 4 C C"
_symmetry_group_IT_number 103
_symmetry_cell_setting 'tetragonal'
loop_
_space_group_symop_operation_xyz
x,y,z
-y,x,z
-x,-y,z
y,-x,z
-x,y,1/2+z
x,-y,1/2+z
-y,-x,1/2+z
y,x,1/2+z
loop_
_atom_site_type_symbol
_atom_site_label
_atom_site_fract_x
_atom_site_fract_y
_atom_site_fract_z
Si Si1 0.113648 0.428869 0.398550
Si Si2 0.183575 0.487553 0.256755
Si Si3 0.298575 0.140618 0.167193
Si Si4 0.911007 0.262997 0.717255
Si Si5 0.323564 0.452985 0.134114
Si Si6 0.058884 0.826378 0.864408
Si Si7 0.131201 0.530509 0.051734
O O1 0.200506 0.474680 0.339467
O O2 0.092486 0.293367 0.398648
O O3 0.167417 0.457608 0.472458
O O4 0.000000 0.500000 0.386370
O O5 0.148518 0.612175 0.230914
O O6 0.085951 0.395637 0.238517
O O7 0.297200 0.449349 0.216023
O O8 0.204882 0.237975 0.175941
O O9 0.353665 0.155185 0.092657
O O10 0.238855 0.018301 0.168858
O O11 0.923972 0.182195 0.782783
O O12 0.418805 0.363233 0.115877
O O13 0.210076 0.434187 0.087888
O O14 0.929634 0.857446 0.886338
O O15 0.000000 0.500000 0.059850
#
# Coordination Sequence:
#
# PCOD8306974 Si02
#       7
#     8   8   8   8   8   8   8
#     4  10  22  40  59  90 121 165 213 251 301 371
#     4  10  19  35  60  86 114 147 200 253 298 353
#     4  11  21  35  58  86 116 154 198 251 306 361
#     4  11  20  33  57  88 115 152 198 252 309 361
#     4  10  21  41  65  91 121 157 200 253 317 372
#     4  10  20  38  60  86 127 166 203 258 323 370
#     4  10  22  41  59  85 124 166 205 252 298 372
#
# _framework density 20.706261999999999
#
# number of rings (size 3 to 8) (size 9 to 14) (size 15 to 20)
#    0.000    1.714    1.429    5.571    0.000    0.857 
#    7.714    0.000    0.000    1.714    0.000    0.000 
#    0.000    0.000    0.000    0.000    0.000    0.000 
#
# Total GULP energy -693998.989118 kJ/mol
# GULP energy per Si atom -12392.839091 kJ/mol
# Density = 2.065913 g / cm^3
# Si number density = 20.706262 Si / 1000 Ang^3
#
#
#
# Elastic Constant Matrix: (Units=GPa)
#
#
# Indices 1 2 3 4 5 6 
#
# 1 109.8649 3.8080 36.7719 0.0000 0.0000 0.0000
# 2 3.8080 109.8649 36.7719 0.0000 0.0000 0.0000
# 3 36.7719 36.7719 146.9916 0.0000 0.0000 0.0000
# 4 0.0000 0.0000 0.0000 16.7453 0.0000 0.0000
# 5 0.0000 0.0000 0.0000 0.0000 16.7453 0.0000
# 6 0.0000 0.0000 0.0000 0.0000 0.0000 204.2348
#
#
#
# Elastic Compliance Matrix: (Units=1/GPa)
#
#
# Indices 1 2 3 4 5 6 
#
# 1 0.009962 0.000534 -0.002626 0.000000 0.000000 0.000000
# 2 0.000534 0.009962 -0.002626 0.000000 0.000000 0.000000
# 3 -0.002626 -0.002626 0.008117 0.000000 0.000000 0.000000
# 4 0.000000 0.000000 0.000000 0.059718 0.000000 0.000000
# 5 0.000000 0.000000 0.000000 0.000000 0.059718 0.000000
# 6 0.000000 0.000000 0.000000 0.000000 0.000000 0.004896
#
#
# Mechanical properties :
#
#
# Convention : Reuss Voigt Hill
#
# Bulk Modulus (GPa) = 53.74637 57.93609 55.84123
# Shear Modulus (GPa) = 29.75968 66.83637 48.29802
#
# Velocity S-wave (km/s) = 3.79520 5.68757 4.83487
# Velocity P-wave (km/s) = 6.72440 8.43635 7.62855
#
# Compressibility (1/GPa) = 0.01860591
#
# Stress axis : x y z
#
# Youngs Moduli (GPa) = 100.37717 100.37717 123.20098
#
# Poissons Ratio (x) = -0.05355 0.32349
# Poissons Ratio (y) = -0.05355 0.32349
# Poissons Ratio (z) = 0.26356 0.26356
#
# Static dielectric constant tensor:
#      x y z
#    x 3.806680 0.000000 0.000000 
#    y 0.000000 3.806680 0.000000 
#    z 0.000000 0.000000 3.673180 
# 
# 
# High freq. dielectric constant tensor:
#      x y z
#    x 1.811620 0.000000 0.000000 
#    y 0.000000 1.811620 0.000000 
#    z 0.000000 0.000000 1.783240 
# 
# From -- ./inp_files/1277.got.cif
#   From: 2010.03.12/outbox.cif.g09.slc.cpg/sg103_cif.got.tgz:1277.got - 2010.04.14 01:42:52.
