data_PCOD8306492
_publ_section_title
;
Structure prediction by ZEFSAII (Michael W. Deem and Ramdas Pophale) SiO2 
 PCOD8306492
Probable space group: P 4 M M
;
_chemical_formula_sum "Si O2"
_cell_formula_units_Z 64
_cell_length_a 13.489274
_cell_length_b 13.489274
_cell_length_c 20.581244
_cell_angle_alpha 90.000000
_cell_angle_beta 90.000000
_cell_angle_gamma 90.000000
_cell_volume 3744.973717
_symmetry_space_group_name_H-M "P 4 M M"
_symmetry_group_IT_number 99
_symmetry_cell_setting 'tetragonal'
loop_
_space_group_symop_operation_xyz
x,y,z
-y,x,z
-x,-y,z
y,-x,z
-x,y,z
x,-y,z
-y,-x,z
y,x,z
loop_
_atom_site_type_symbol
_atom_site_label
_atom_site_fract_x
_atom_site_fract_y
_atom_site_fract_z
Si Si1 0.116588 0.719849 0.167590
Si Si2 0.889821 0.617318 0.411756
Si Si3 0.226067 0.616673 0.537866
Si Si4 0.617293 0.222558 0.282725
Si Si5 0.384943 0.887770 0.922006
Si Si6 0.272077 0.883529 0.794305
Si Si7 0.886163 0.615402 0.666975
Si Si8 0.776621 0.383332 0.053062
O O1 0.176408 0.823593 0.169678
O O2 0.144456 0.650766 0.228382
O O3 0.142677 0.657763 0.103341
O O4 0.000000 0.743920 0.168597
O O5 0.898393 0.500000 0.412808
O O6 0.841602 0.655004 0.478610
O O7 0.822450 0.650715 0.351566
O O8 0.000000 0.663704 0.405324
O O9 0.243369 0.500000 0.534311
O O10 0.333319 0.666682 0.533129
O O11 0.174451 0.650522 0.604375
O O12 0.500000 0.241569 0.278088
O O13 0.672301 0.327700 0.272571
O O14 0.500000 0.884538 0.905358
O O15 0.329568 0.847826 0.858410
O O16 0.352135 0.000000 0.939193
O O17 0.358603 0.817064 0.981738
O O18 0.163441 0.836559 0.794535
O O19 0.330305 0.845605 0.730890
O O20 0.259142 0.000000 0.793285
O O21 0.872058 0.500000 0.679747
O O22 0.000000 0.642146 0.653549
O O23 0.760243 0.500000 0.064110
O O24 0.671353 0.328648 0.063184
#
# Coordination Sequence:
#
# PCOD8306492 Si02
#       8
#     8   8   8   8   8   8   8   8
#     4  10  21  36  54  76 100 127 162 203 247 293
#     4   9  17  30  48  68  90 119 156 197 237 273
#     4  10  19  30  45  66  93 123 153 186 227 279
#     4  10  20  33  50  74 103 134 167 201 239 286
#     4   9  17  30  49  71  92 117 153 196 239 280
#     4  10  19  30  45  65  91 121 151 186 228 276
#     4   9  17  30  48  68  88 112 147 192 237 274
#     4  10  20  33  50  73 100 130 163 198 237 283
#
# _framework density 17.089573000000001
#
# number of rings (size 3 to 8) (size 9 to 14) (size 15 to 20)
#    0.000    2.375    0.000    3.000    0.000    5.625 
#    0.000    0.000    0.000    4.500    0.000    1.750 
#    0.000   19.250    0.000    0.000    0.000    0.000 
#
# Total GULP energy -793622.587498 kJ/mol
# GULP energy per Si atom -12400.352930 kJ/mol
# Density = 1.705068 g / cm^3
# Si number density = 17.089573 Si / 1000 Ang^3
#
#
#
# Elastic Constant Matrix: (Units=GPa)
#
#
# Indices 1 2 3 4 5 6 
#
# 1 83.5791 49.3131 47.6591 0.0000 0.0000 -0.0002
# 2 49.3131 83.5791 47.6591 0.0000 0.0000 0.0002
# 3 47.6591 47.6591 130.8690 0.0000 0.0000 0.0000
# 4 0.0000 0.0000 0.0000 22.3886 0.0000 0.0000
# 5 0.0000 0.0000 0.0000 0.0000 22.3886 0.0000
# 6 -0.0002 0.0002 0.0000 0.0000 0.0000 22.7705
#
#
#
# Elastic Compliance Matrix: (Units=1/GPa)
#
#
# Indices 1 2 3 4 5 6 
#
# 1 0.019684 -0.009499 -0.003709 0.000000 0.000000 0.000000
# 2 -0.009499 0.019684 -0.003709 0.000000 0.000000 0.000000
# 3 -0.003709 -0.003709 0.010343 0.000000 0.000000 0.000000
# 4 0.000000 0.000000 0.000000 0.044666 0.000000 0.000000
# 5 0.000000 0.000000 0.000000 0.000000 0.044666 0.000000
# 6 0.000000 0.000000 0.000000 0.000000 0.000000 0.043916
#
#
# Mechanical properties :
#
#
# Convention : Reuss Voigt Hill
#
# Bulk Modulus (GPa) = 62.98571 65.25445 64.12008
# Shear Modulus (GPa) = 22.51375 23.73595 23.12485
#
# Velocity S-wave (km/s) = 3.63353 3.73086 3.68252
# Velocity P-wave (km/s) = 7.38510 7.53828 7.46208
#
# Compressibility (1/GPa) = 0.01587662
#
# Stress axis : x y z
#
# Youngs Moduli (GPa) = 50.80163 50.80163 96.68505
#
# Poissons Ratio (x) = 0.48257 0.35863
# Poissons Ratio (y) = 0.48257 0.35863
# Poissons Ratio (z) = 0.18844 0.18844
#
# Static dielectric constant tensor:
#      x y z
#    x 3.033290 0.000000 0.000000 
#    y 0.000000 3.033290 0.000000 
#    z 0.000000 0.000000 3.459010 
# 
# 
# High freq. dielectric constant tensor:
#      x y z
#    x 1.646360 0.000000 0.000000 
#    y 0.000000 1.646360 0.000000 
#    z 0.000000 0.000000 1.680970 
# 
# From -- ./inp_files/2290.got.cif
#   From: 2010.03.12/outbox.cif.g09.slc.cpg/sg99_cif.got.tgz:2290.got - 2010.04.08 21:11:30.
