data_PCOD8306161
_publ_section_title
;
Structure prediction by ZEFSAII (Michael W. Deem and Ramdas Pophale) SiO2 
 PCOD8306161
Probable space group: I 4 2 2 
;
_chemical_formula_sum "Si O2"
_cell_formula_units_Z 80
_cell_length_a 11.264059
_cell_length_b 11.264059
_cell_length_c 32.261179
_cell_angle_alpha 90.000000
_cell_angle_beta 90.000000
_cell_angle_gamma 90.000000
_cell_volume 4093.266942
_symmetry_space_group_name_H-M "I 4 2 2 "
_symmetry_group_IT_number 97
_symmetry_cell_setting 'tetragonal'
loop_
_space_group_symop_operation_xyz
x,y,z
-y,x,z
-x,-y,z
y,-x,z
x,-y,-z
-x,y,-z
y,x,-z
-y,-x,-z
1/2+x,1/2+y,1/2+z
1/2-y,1/2+x,1/2+z
1/2-x,1/2-y,1/2+z
1/2+y,1/2-x,1/2+z
1/2+x,1/2-y,1/2-z
1/2-x,1/2+y,1/2-z
1/2+y,1/2+x,1/2-z
1/2-y,1/2-x,1/2-z
loop_
_atom_site_type_symbol
_atom_site_label
_atom_site_fract_x
_atom_site_fract_y
_atom_site_fract_z
Si Si1 0.520512 0.309574 0.452012
Si Si2 0.466806 0.307146 0.846334
Si Si3 0.311825 0.481308 0.324747
Si Si4 0.885565 0.422808 0.612925
Si Si5 0.190725 0.496292 0.757411
O O1 0.627879 0.397353 0.439552
O O2 0.500000 0.279657 0.500000
O O3 0.553183 0.189678 0.428359
O O4 0.595480 0.364522 0.851881
O O5 0.431132 0.212030 0.881552
O O6 0.474283 0.244374 0.801953
O O7 0.395257 0.372246 0.338310
O O8 0.186208 0.467593 0.346984
O O9 0.295641 0.482359 0.275342
O O10 0.000000 0.500000 0.608490
O O11 0.086198 0.586198 0.750000
O O12 0.136985 0.363016 0.750000
#
# Coordination Sequence:
#
# PCOD8306161 Si02
#       5
#    16  16  16  16  16
#     4   9  20  42  71 101 132 161 194 253 327 385
#     4  11  26  43  59  85 126 176 218 258 313 377
#     4  11  24  39  60  89 118 158 214 274 328 368
#     4  12  25  37  65  94 127 162 207 259 312 382
#     4  11  22  37  59  85 117 162 216 270 319 370
#
# _framework density 19.544291999999999
#
# number of rings (size 3 to 8) (size 9 to 14) (size 15 to 20)
#    0.000    1.200    2.000    4.200    8.400    5.200 
#    0.000    0.000    0.000    0.000    0.000    0.000 
#    0.000    0.000    0.000    0.000    0.000    0.000 
#
# Total GULP energy -495811.103735 kJ/mol
# GULP energy per Si atom -12395.277593 kJ/mol
# Density = 1.949981 g / cm^3
# Si number density = 19.544292 Si / 1000 Ang^3
#
#
#
# Elastic Constant Matrix: (Units=GPa)
#
#
# Indices 1 2 3 4 5 6 
#
# 1 143.6932 78.8390 54.7589 0.0000 0.0000 0.0000
# 2 78.8390 143.6934 54.7591 0.0000 0.0000 0.0000
# 3 54.7589 54.7591 85.4683 0.0000 0.0000 0.0000
# 4 0.0000 0.0000 0.0000 32.8201 0.0000 0.0000
# 5 0.0000 0.0000 0.0000 0.0000 32.8202 0.0000
# 6 0.0000 0.0000 0.0000 0.0000 0.0000 28.7807
#
#
#
# Elastic Compliance Matrix: (Units=1/GPa)
#
#
# Indices 1 2 3 4 5 6 
#
# 1 0.010991 -0.004428 -0.004205 0.000000 0.000000 0.000000
# 2 -0.004428 0.010991 -0.004205 0.000000 0.000000 0.000000
# 3 -0.004205 -0.004205 0.017088 0.000000 0.000000 0.000000
# 4 0.000000 0.000000 0.000000 0.030469 0.000000 0.000000
# 5 0.000000 0.000000 0.000000 0.000000 0.030469 0.000000
# 6 0.000000 0.000000 0.000000 0.000000 0.000000 0.034746
#
#
# Mechanical properties :
#
#
# Convention : Reuss Voigt Hill
#
# Bulk Modulus (GPa) = 74.65543 83.28543 78.97043
# Shear Modulus (GPa) = 30.32225 31.18407 30.75316
#
# Velocity S-wave (km/s) = 3.94314 3.99878 3.97105
# Velocity P-wave (km/s) = 7.68193 8.00166 7.84342
#
# Compressibility (1/GPa) = 0.01339487
#
# Stress axis : x y z
#
# Youngs Moduli (GPa) = 90.98195 90.98197 58.51900
#
# Poissons Ratio (x) = 0.40287 0.24607
# Poissons Ratio (y) = 0.40287 0.24607
# Poissons Ratio (z) = 0.38258 0.38258
#
# Static dielectric constant tensor:
#      x y z
#    x 3.748380 0.000000 0.000000 
#    y 0.000000 3.748380 0.000000 
#    z 0.000000 0.000000 3.841100 
# 
# 
# High freq. dielectric constant tensor:
#      x y z
#    x 1.771150 0.000000 0.000000 
#    y 0.000000 1.771150 0.000000 
#    z 0.000000 0.000000 1.742830 
# 
# From -- ./inp_files/7966.got.cif
#   From: 2010.03.12/outbox.cif.g09.slc.cpg/sg97_4_cif.got.tgz:7966.got - 2010.04.08 20:59:42.
