data_PCOD8306671
_publ_section_title
;
Structure prediction by ZEFSAII (Michael W. Deem and Ramdas Pophale) SiO2 
 PCOD8306671
Probable space group: P 4 B M
;
_chemical_formula_sum "Si O2"
_cell_formula_units_Z 40
_cell_length_a 14.010751
_cell_length_b 14.010751
_cell_length_c 9.185230
_cell_angle_alpha 90.000000
_cell_angle_beta 90.000000
_cell_angle_gamma 90.000000
_cell_volume 1803.071153
_symmetry_space_group_name_H-M "P 4 B M"
_symmetry_group_IT_number 100
_symmetry_cell_setting 'tetragonal'
loop_
_space_group_symop_operation_xyz
x,y,z
-y,x,z
-x,-y,z
y,-x,z
1/2-x,1/2+y,z
1/2+x,1/2-y,z
1/2-y,1/2-x,z
1/2+y,1/2+x,z
loop_
_atom_site_type_symbol
_atom_site_label
_atom_site_fract_x
_atom_site_fract_y
_atom_site_fract_z
Si Si1 0.158834 0.813256 0.361430
Si Si2 0.721128 0.939142 0.108044
Si Si3 0.989978 0.777545 0.546248
Si Si4 0.075236 0.424764 0.220748
Si Si5 0.350675 0.521102 0.856132
Si Si6 0.075625 0.424376 0.564512
O O1 0.262255 0.762255 0.356536
O O2 0.105180 0.808900 0.204033
O O3 0.170458 0.918817 0.430140
O O4 0.088150 0.752213 0.464463
O O5 0.636723 0.863278 0.109894
O O6 0.681244 0.041498 0.169669
O O7 0.753342 0.959757 0.943385
O O8 0.947082 0.682036 0.617550
O O9 0.018614 0.842633 0.681954
O O10 0.073325 0.426675 0.392245
O O11 0.000000 0.500000 0.154994
O O12 0.393485 0.420071 0.903751
O O13 0.000000 0.500000 0.630751
#
# Coordination Sequence:
#
# PCOD8306671 Si02
#       6
#     8   8   8   4   8   4
#     4  11  24  42  68 104 133 173 232 280 336 407
#     4  10  23  43  69 101 135 176 224 285 342 409
#     4  12  23  43  70  96 137 179 222 280 339 408
#     4   9  18  39  67  97 135 167 209 277 340 387
#     4  11  26  47  63  91 137 181 222 275 343 415
#     4  11  22  39  69 105 131 172 221 281 340 396
#
# _framework density 22.184372
#
# number of rings (size 3 to 8) (size 9 to 14) (size 15 to 20)
#    0.000    1.200    5.000    0.600    2.800    2.800 
#    3.600    1.000    0.000    0.000    0.000    0.000 
#    0.000    0.000    0.000    0.000    0.000    0.000 
#
# Total GULP energy -495782.836400 kJ/mol
# GULP energy per Si atom -12394.570910 kJ/mol
# Density = 2.213388 g / cm^3
# Si number density = 22.184372 Si / 1000 Ang^3
#
#
#
# Elastic Constant Matrix: (Units=GPa)
#
#
# Indices 1 2 3 4 5 6 
#
# 1 78.9925 0.1684 27.5505 0.0000 0.0000 -0.0005
# 2 0.1684 78.9925 27.5505 0.0000 0.0000 0.0005
# 3 27.5505 27.5505 101.3394 0.0000 0.0000 0.0000
# 4 0.0000 0.0000 0.0000 30.8872 0.0000 0.0000
# 5 0.0000 0.0000 0.0000 0.0000 30.8872 0.0000
# 6 -0.0005 0.0005 0.0000 0.0000 0.0000 0.3744
#
#
#
# Elastic Compliance Matrix: (Units=1/GPa)
#
#
# Indices 1 2 3 4 5 6 
#
# 1 0.014134 0.001447 -0.004236 0.000000 0.000000 0.000018
# 2 0.001447 0.014134 -0.004236 0.000000 0.000000 -0.000018
# 3 -0.004236 -0.004236 0.012171 0.000000 0.000000 0.000000
# 4 0.000000 0.000000 0.000000 0.032376 0.000000 0.000000
# 5 0.000000 0.000000 0.000000 0.000000 0.032376 0.000000
# 6 0.000018 -0.000018 0.000000 0.000000 0.000000 2.671250
#
#
# Mechanical properties :
#
#
# Convention : Reuss Voigt Hill
#
# Bulk Modulus (GPa) = 37.89410 41.09591 39.49500
# Shear Modulus (GPa) = 1.78617 26.03340 13.90979
#
# Velocity S-wave (km/s) = 0.89827 3.42936 2.50673
# Velocity P-wave (km/s) = 4.26549 5.85197 5.12055
#
# Compressibility (1/GPa) = 0.02638933
#
# Stress axis : x y z
#
# Youngs Moduli (GPa) = 70.75277 70.75277 82.16247
#
# Poissons Ratio (x) = -0.10240 0.34803
# Poissons Ratio (y) = -0.10240 0.34803
# Poissons Ratio (z) = 0.29970 0.29970
#
# Static dielectric constant tensor:
#      x y z
#    x 4.069320 0.000000 0.000000 
#    y 0.000000 4.069320 0.000000 
#    z 0.000000 0.000000 3.674400 
# 
# 
# High freq. dielectric constant tensor:
#      x y z
#    x 1.873790 0.000000 0.000000 
#    y 0.000000 1.873790 0.000000 
#    z 0.000000 0.000000 1.857370 
# 
# From -- ./inp_files/791.got.cif
#   From: 2010.03.12/outbox.cif.g09.slc.cpg/sg100_cif.got.tgz:791.got - 2010.04.14 01:37:57.
