data_PCOD8306809
_publ_section_title
;
Structure prediction by ZEFSAII (Michael W. Deem and Ramdas Pophale) SiO2 
 PCOD8306809
Probable space group: P 42 C M
;
_chemical_formula_sum "Si O2"
_cell_formula_units_Z 64
_cell_length_a 13.733234
_cell_length_b 13.733234
_cell_length_c 20.180903
_cell_angle_alpha 90.000000
_cell_angle_beta 90.000000
_cell_angle_gamma 90.000000
_cell_volume 3806.152938
_symmetry_space_group_name_H-M "P 42 C M"
_symmetry_group_IT_number 101
_symmetry_cell_setting 'tetragonal'
loop_
_space_group_symop_operation_xyz
x,y,z
-y,x,1/2+z
-x,-y,z
y,-x,1/2+z
-x,y,1/2+z
x,-y,1/2+z
-y,-x,z
y,x,z
loop_
_atom_site_type_symbol
_atom_site_label
_atom_site_fract_x
_atom_site_fract_y
_atom_site_fract_z
Si Si1 0.608134 0.772418 0.468940
Si Si2 0.839650 0.000000 0.294520
Si Si3 0.918889 0.755795 0.666299
Si Si4 0.494713 0.341372 0.868037
Si Si5 0.005806 0.841119 0.544520
Si Si6 0.505288 0.341372 0.721003
Si Si7 0.081111 0.244205 0.422740
Si Si8 0.391866 0.227581 0.620099
O O1 0.689619 0.689619 0.469873
O O2 0.515938 0.738322 0.424942
O O3 0.650583 0.869377 0.433779
O O4 0.574816 0.794493 0.544520
O O5 0.908343 0.091658 0.313485
O O6 0.765708 0.025020 0.235447
O O7 0.765707 0.974981 0.353592
O O8 0.908344 0.908344 0.275555
O O9 0.837313 0.837313 0.661504
O O10 0.996978 0.773006 0.608568
O O11 0.869378 0.650583 0.655260
O O12 0.574227 0.425774 0.870570
O O13 0.388302 0.388302 0.881424
O O14 0.500002 0.293142 0.794520
O O15 0.924163 0.924163 0.544520
O O16 0.996977 0.773005 0.480471
O O17 0.112421 0.887580 0.544519
O O18 0.611698 0.388303 0.707614
O O19 0.425773 0.425773 0.718471
O O20 0.484062 0.261678 0.664097
O O21 0.162686 0.162686 0.427534
O O22 0.310381 0.310381 0.619166
#
# Coordination Sequence:
#
# PCOD8306809 Si02
#       8
#     8   8   8   8   8   8   8   8
#     4   9  15  23  36  55  82 112 137 169 213 256
#     4   9  16  24  34  50  77 112 146 182 221 256
#     4   9  15  23  33  50  77 107 142 180 215 253
#     4   8  14  24  37  55  82 112 137 163 202 256
#     4   9  14  20  32  48  71 107 144 177 217 259
#     4   8  14  24  37  55  82 112 137 163 202 256
#     4   9  15  23  33  50  77 107 142 180 215 253
#     4   9  15  23  36  55  82 112 137 169 213 256
#
# _framework density 16.814878
#
# number of rings (size 3 to 8) (size 9 to 14) (size 15 to 20)
#    0.000    3.250    1.250    1.500    0.000    3.500 
#    0.000    2.500    0.000    0.000    0.000    0.875 
#    3.750    2.000    6.750    0.000    1.250    0.000 
#
# Total GULP energy -793086.471590 kJ/mol
# GULP energy per Si atom -12391.976119 kJ/mol
# Density = 1.677661 g / cm^3
# Si number density = 16.814878 Si / 1000 Ang^3
#
#
#
# Elastic Constant Matrix: (Units=GPa)
#
#
# Indices 1 2 3 4 5 6 
#
# 1 47.1891 39.1003 58.8560 0.0000 0.0000 -0.0001
# 2 39.1003 47.1891 58.8560 0.0000 0.0000 0.0001
# 3 58.8560 58.8560 173.4705 0.0000 0.0000 0.0000
# 4 0.0000 0.0000 0.0000 7.4532 0.0000 0.0000
# 5 0.0000 0.0000 0.0000 0.0000 7.4532 0.0000
# 6 -0.0001 0.0001 0.0000 0.0000 0.0000 23.4903
#
#
#
# Elastic Compliance Matrix: (Units=1/GPa)
#
#
# Indices 1 2 3 4 5 6 
#
# 1 0.072601 -0.051027 -0.007320 0.000000 0.000000 0.000001
# 2 -0.051027 0.072601 -0.007320 0.000000 0.000000 -0.000001
# 3 -0.007320 -0.007320 0.010732 0.000000 0.000000 0.000000
# 4 0.000000 0.000000 0.000000 0.134171 0.000000 0.000000
# 5 0.000000 0.000000 0.000000 0.000000 0.134171 0.000000
# 6 0.000001 -0.000001 0.000000 0.000000 0.000000 0.042571
#
#
# Mechanical properties :
#
#
# Convention : Reuss Voigt Hill
#
# Bulk Modulus (GPa) = 40.64886 64.60812 52.62849
# Shear Modulus (GPa) = 8.24564 15.08174 11.66369
#
# Velocity S-wave (km/s) = 2.21685 2.99813 2.63659
# Velocity P-wave (km/s) = 5.54792 7.10574 6.37460
#
# Compressibility (1/GPa) = 0.02460094
#
# Stress axis : x y z
#
# Youngs Moduli (GPa) = 13.77386 13.77386 93.18187
#
# Poissons Ratio (x) = 0.70284 0.68208
# Poissons Ratio (y) = 0.70284 0.68208
# Poissons Ratio (z) = 0.10082 0.10082
#
# Static dielectric constant tensor:
#      x y z
#    x 2.877720 0.000000 0.000000 
#    y 0.000000 2.877720 0.000000 
#    z 0.000000 0.000000 3.421980 
# 
# 
# High freq. dielectric constant tensor:
#      x y z
#    x 1.599340 0.000000 0.000000 
#    y 0.000000 1.599340 0.000000 
#    z 0.000000 0.000000 1.663860 
# 
# From -- ./inp_files/2267.got.cif
#   From: 2010.03.12/outbox.cif.g09.slc.cpg/sg101_2_cif.got.tgz:2267.got - 2010.04.14 01:38:52.
