data_PCOD8306818
_publ_section_title
;
Structure prediction by ZEFSAII (Michael W. Deem and Ramdas Pophale) SiO2 
 PCOD8306818
Probable space group: P 42 N M
;
_chemical_formula_sum "Si O2"
_cell_formula_units_Z 56
_cell_length_a 17.097611
_cell_length_b 17.097611
_cell_length_c 12.461398
_cell_angle_alpha 90.000000
_cell_angle_beta 90.000000
_cell_angle_gamma 90.000000
_cell_volume 3642.819317
_symmetry_space_group_name_H-M "P 42 N M"
_symmetry_group_IT_number 102
_symmetry_cell_setting 'tetragonal'
loop_
_space_group_symop_operation_xyz
x,y,z
1/2-y,1/2+x,1/2+z
-x,-y,z
1/2+y,1/2-x,1/2+z
1/2-x,1/2+y,1/2+z
1/2+x,1/2-y,1/2+z
-y,-x,z
y,x,z
loop_
_atom_site_type_symbol
_atom_site_label
_atom_site_fract_x
_atom_site_fract_y
_atom_site_fract_z
Si Si1 0.308201 0.439146 0.075060
Si Si2 0.195134 0.325880 0.982820
Si Si3 0.439146 0.308201 0.653733
Si Si4 0.503524 0.372242 0.864397
Si Si5 0.325880 0.195134 0.745973
Si Si6 0.201530 0.074628 0.737681
Si Si7 0.074628 0.201530 0.991111
O O1 0.379862 0.379862 0.089995
O O2 0.303331 0.491558 0.180445
O O3 0.225488 0.393538 0.062590
O O4 0.319950 0.493436 0.970494
O O5 0.262445 0.262445 0.969393
O O6 0.179006 0.361705 0.864397
O O7 0.117794 0.282145 0.027028
O O8 0.379862 0.379862 0.638798
O O9 0.493437 0.319951 0.758299
O O10 0.393539 0.225488 0.666204
O O11 0.491557 0.303331 0.548348
O O12 0.589738 0.410263 0.864398
O O13 0.438367 0.438367 0.864397
O O14 0.262445 0.262445 0.759400
O O15 0.282146 0.117794 0.701765
O O16 0.126754 0.126754 0.704680
O O17 0.202126 0.060233 0.864396
O O18 0.126753 0.126753 0.024113
#
# Coordination Sequence:
#
# PCOD8306818 Si02
#       7
#     8   8   8   8   8   8   8
#     4  10  17  27  46  68  90 119 149 181 223 268
#     4   8  14  28  47  64  83 115 158 188 211 256
#     4  10  17  27  46  68  90 119 149 181 223 268
#     4   9  16  24  38  66  96 113 133 173 224 271
#     4   8  14  28  47  64  83 115 158 188 211 256
#     4   9  18  30  45  66  92 121 150 181 218 266
#     4   9  18  30  45  66  92 121 150 181 218 266
#
# _framework density 15.372709
#
# number of rings (size 3 to 8) (size 9 to 14) (size 15 to 20)
#    0.000    3.000    1.429    2.571    0.000    2.286 
#    0.000    1.429    3.143    0.857    0.000    4.000 
#    0.000    0.000    0.000    0.000    0.000    0.000 
#
# Total GULP energy -694038.540254 kJ/mol
# GULP energy per Si atom -12393.545362 kJ/mol
# Density = 1.533772 g / cm^3
# Si number density = 15.372709 Si / 1000 Ang^3
#
#
#
# Elastic Constant Matrix: (Units=GPa)
#
#
# Indices 1 2 3 4 5 6 
#
# 1 64.9481 46.4295 40.1374 0.0000 0.0000 0.0000
# 2 46.4295 64.9481 40.1374 0.0000 0.0000 0.0000
# 3 40.1374 40.1374 61.8415 0.0000 0.0000 0.0000
# 4 0.0000 0.0000 0.0000 18.4303 0.0000 0.0000
# 5 0.0000 0.0000 0.0000 0.0000 18.4303 0.0000
# 6 0.0000 0.0000 0.0000 0.0000 0.0000 18.8612
#
#
#
# Elastic Compliance Matrix: (Units=1/GPa)
#
#
# Indices 1 2 3 4 5 6 
#
# 1 0.035435 -0.018565 -0.010949 0.000000 0.000000 0.000000
# 2 -0.018565 0.035435 -0.010949 0.000000 0.000000 0.000000
# 3 -0.010949 -0.010949 0.030383 0.000000 0.000000 0.000000
# 4 0.000000 0.000000 0.000000 0.054258 0.000000 0.000000
# 5 0.000000 0.000000 0.000000 0.000000 0.054258 0.000000
# 6 0.000000 0.000000 0.000000 0.000000 0.000000 0.053019
#
#
# Mechanical properties :
#
#
# Convention : Reuss Voigt Hill
#
# Bulk Modulus (GPa) = 49.19723 49.46068 49.32895
# Shear Modulus (GPa) = 14.26569 15.47993 14.87281
#
# Velocity S-wave (km/s) = 3.04959 3.17673 3.11381
# Velocity P-wave (km/s) = 6.66877 6.76015 6.71462
#
# Compressibility (1/GPa) = 0.02032635
#
# Stress axis : x y z
#
# Youngs Moduli (GPa) = 28.22073 28.22073 32.91278
#
# Poissons Ratio (x) = 0.52391 0.36037
# Poissons Ratio (y) = 0.52391 0.36037
# Poissons Ratio (z) = 0.30900 0.30900
#
# Static dielectric constant tensor:
#      x y z
#    x 2.924420 0.000000 0.000000 
#    y 0.000000 2.924420 0.000000 
#    z 0.000000 0.000000 2.796360 
# 
# 
# High freq. dielectric constant tensor:
#      x y z
#    x 1.568130 0.000000 0.000000 
#    y 0.000000 1.568130 0.000000 
#    z 0.000000 0.000000 1.578620 
# 
# From -- ./inp_files/1888.got.cif
#   From: 2010.03.12/outbox.cif.g09.slc.cpg/sg102_1_cif.got.tgz:1888.got - 2010.04.14 01:40:42.
