data_PCOD8306394
_publ_section_title
;
Structure prediction by ZEFSAII (Michael W. Deem and Ramdas Pophale) SiO2 
 PCOD8306394
Probable space group: I 41 2 2
;
_chemical_formula_sum "Si O2"
_cell_formula_units_Z 56
_cell_length_a 13.531585
_cell_length_b 13.531585
_cell_length_c 12.846638
_cell_angle_alpha 90.000000
_cell_angle_beta 90.000000
_cell_angle_gamma 90.000000
_cell_volume 2352.268140
_symmetry_space_group_name_H-M "I 41 2 2"
_symmetry_group_IT_number 98
_symmetry_cell_setting 'tetragonal'
loop_
_space_group_symop_operation_xyz
x,y,z
-y,1/2+x,1/4+z
-x,-y,z
y,1/2-x,1/4+z
x,1/2-y,1/4-z
-x,1/2+y,1/4-z
y,x,-z
-y,-x,-z
1/2+x,1/2+y,1/2+z
1/2-y,x,3/4+z
1/2-x,1/2-y,1/2+z
1/2+y,-x,3/4+z
1/2+x,-y,3/4-z
1/2-x,y,3/4-z
1/2+y,1/2+x,1/2-z
1/2-y,1/2-x,1/2-z
loop_
_atom_site_type_symbol
_atom_site_label
_atom_site_fract_x
_atom_site_fract_y
_atom_site_fract_z
Si Si1 0.750000 0.924796 0.375000
Si Si2 0.040915 0.395904 0.953847
Si Si3 0.364833 0.917571 0.866128
Si Si4 0.073145 0.721274 0.795060
O O1 0.844465 0.866965 0.324671
O O2 0.696724 0.988789 0.287566
O O3 0.000000 0.500000 0.910552
O O4 0.964565 0.317256 0.905890
O O5 0.024398 0.388933 0.080330
O O6 0.250000 0.893543 0.875000
O O7 0.409144 0.909144 0.750000
O O8 0.416298 0.838415 0.942860
O O9 0.173949 0.673949 0.750000
#
# Coordination Sequence:
#
# PCOD8306394 Si02
#       4
#     8  16  16  16
#     4  12  26  44  70 104 146 198 264 318 392 480
#     4  12  25  45  71 105 147 203 253 322 400 476
#     4  12  25  44  74 115 159 199 263 335 412 470
#     4  12  23  41  73 110 148 190 256 331 395 467
#
# _framework density 23.806809000000001
#
# number of rings (size 3 to 8) (size 9 to 14) (size 15 to 20)
#    0.000    0.000    8.571    1.714    2.000    0.571 
#    0.000    0.000   12.571    0.000    0.000    0.000 
#    0.000    0.000    0.000    0.000    0.000    0.000 
#
# Total GULP energy -346970.307610 kJ/mol
# GULP energy per Si atom -12391.796700 kJ/mol
# Density = 2.375262 g / cm^3
# Si number density = 23.806809 Si / 1000 Ang^3
#
#
#
# Elastic Constant Matrix: (Units=GPa)
#
#
# Indices 1 2 3 4 5 6 
#
# 1 107.9649 25.7052 43.9942 0.0000 0.0000 0.0000
# 2 25.7052 107.9649 43.9942 0.0000 0.0000 0.0000
# 3 43.9942 43.9942 154.5237 0.0000 0.0000 0.0000
# 4 0.0000 0.0000 0.0000 36.4878 0.0000 0.0000
# 5 0.0000 0.0000 0.0000 0.0000 36.4878 0.0000
# 6 0.0000 0.0000 0.0000 0.0000 0.0000 24.1611
#
#
#
# Elastic Compliance Matrix: (Units=1/GPa)
#
#
# Indices 1 2 3 4 5 6 
#
# 1 0.010682 -0.001475 -0.002621 0.000000 0.000000 0.000000
# 2 -0.001475 0.010682 -0.002621 0.000000 0.000000 0.000000
# 3 -0.002621 -0.002621 0.007964 0.000000 0.000000 0.000000
# 4 0.000000 0.000000 0.000000 0.027406 0.000000 0.000000
# 5 0.000000 0.000000 0.000000 0.000000 0.027406 0.000000
# 6 0.000000 0.000000 0.000000 0.000000 0.000000 0.041389
#
#
# Mechanical properties :
#
#
# Convention : Reuss Voigt Hill
#
# Bulk Modulus (GPa) = 62.92335 66.42675 64.67505
# Shear Modulus (GPa) = 34.65936 36.54464 35.60200
#
# Velocity S-wave (km/s) = 3.81971 3.92222 3.87131
# Velocity P-wave (km/s) = 6.77804 6.96238 6.87083
#
# Compressibility (1/GPa) = 0.01589235
#
# Stress axis : x y z
#
# Youngs Moduli (GPa) = 93.61931 93.61931 125.56442
#
# Poissons Ratio (x) = 0.13809 0.32913
# Poissons Ratio (y) = 0.13809 0.32913
# Poissons Ratio (z) = 0.24539 0.24539
#
# Static dielectric constant tensor:
#      x y z
#    x 4.118620 0.000000 0.000000 
#    y 0.000000 4.118620 0.000000 
#    z 0.000000 0.000000 4.435490 
# 
# 
# High freq. dielectric constant tensor:
#      x y z
#    x 1.928390 0.000000 0.000000 
#    y 0.000000 1.928390 0.000000 
#    z 0.000000 0.000000 1.959890 
# 
# From -- ./inp_files/4663.got.cif
#   From: 2010.03.12/outbox.cif.g09.slc.cpg/sg98_3_cif.got.tgz:4663.got - 2010.04.08 21:04:41.
