data_PCOD8306633
_publ_section_title
;
Structure prediction by ZEFSAII (Michael W. Deem and Ramdas Pophale) SiO2 
 PCOD8306633
Probable space group: P 4 B M
;
_chemical_formula_sum "Si O2"
_cell_formula_units_Z 64
_cell_length_a 32.134948
_cell_length_b 32.134948
_cell_length_c 5.218376
_cell_angle_alpha 90.000000
_cell_angle_beta 90.000000
_cell_angle_gamma 90.000000
_cell_volume 5388.781458
_symmetry_space_group_name_H-M "P 4 B M"
_symmetry_group_IT_number 100
_symmetry_cell_setting 'tetragonal'
loop_
_space_group_symop_operation_xyz
x,y,z
-y,x,z
-x,-y,z
y,-x,z
1/2-x,1/2+y,z
1/2+x,1/2-y,z
1/2-y,1/2-x,z
1/2+y,1/2+x,z
loop_
_atom_site_type_symbol
_atom_site_label
_atom_site_fract_x
_atom_site_fract_y
_atom_site_fract_z
Si Si1 0.348081 0.082295 0.340100
Si Si2 0.452782 0.116810 0.840103
Si Si3 0.952773 0.616819 0.840093
Si Si4 0.781690 0.648059 0.340103
Si Si5 0.248154 0.818295 0.840103
Si Si6 0.718304 0.851948 0.340102
Si Si7 0.751839 0.818302 0.840102
Si Si8 0.348073 0.917700 0.340094
O O1 0.380736 0.119265 0.340087
O O2 0.354415 0.054651 0.592603
O O3 0.302020 0.102143 0.340099
O O4 0.354415 0.054648 0.087607
O O5 0.423783 0.076218 0.840108
O O6 0.500006 0.100607 0.840096
O O7 0.923769 0.576232 0.840093
O O8 0.945346 0.645596 0.592588
O O9 0.945345 0.645596 0.087594
O O10 0.817259 0.682742 0.340103
O O11 0.752886 0.652927 0.590018
O O12 0.802013 0.602151 0.340098
O O13 0.752885 0.652928 0.090193
O O14 0.282999 0.782999 0.840103
O O15 0.202705 0.797288 0.840100
O O16 0.682736 0.817265 0.340104
O O17 0.747107 0.847081 0.590017
O O18 0.747108 0.847081 0.090190
O O19 0.716993 0.783008 0.840102
O O20 0.380733 0.880733 0.340098
#
# Coordination Sequence:
#
# PCOD8306633 Si02
#       8
#     8   8   8   8   8   8   8   8
#     4   9  17  28  40  52  64  80 101 121 145 182
#     4  10  19  30  42  54  66  78  95 123 160 203
#     4  10  19  30  42  54  66  78  95 123 160 203
#     4   9  15  23  34  46  62  83 103 121 139 163
#     4   9  15  21  30  46  66  85 103 121 139 157
#     4   9  15  23  34  46  62  83 103 121 139 163
#     4   9  15  21  30  46  66  85 103 121 139 157
#     4   9  17  28  40  52  64  80 101 121 145 182
#
# _framework density 11.876526
#
# number of rings (size 3 to 8) (size 9 to 14) (size 15 to 20)
#    0.000    2.750    0.000    3.000    0.000    9.250 
#    0.000    0.000    0.000    4.500    0.000    0.000 
#    0.000    0.000    0.000    0.000    0.000    0.000 
#
# Total GULP energy -793476.109794 kJ/mol
# GULP energy per Si atom -12398.064216 kJ/mol
# Density = 1.184949 g / cm^3
# Si number density = 11.876526 Si / 1000 Ang^3
#
#
#
# Elastic Constant Matrix: (Units=GPa)
#
#
# Indices 1 2 3 4 5 6 
#
# 1 41.4535 39.8306 36.4763 0.0000 0.0000 -0.0001
# 2 39.8306 41.4535 36.4763 0.0000 0.0000 0.0001
# 3 36.4763 36.4763 129.4654 0.0000 0.0000 0.0000
# 4 0.0000 0.0000 0.0000 11.8737 0.0000 0.0000
# 5 0.0000 0.0000 0.0000 0.0000 11.8737 0.0000
# 6 -0.0001 0.0001 0.0000 0.0000 0.0000 13.3853
#
#
#
# Elastic Compliance Matrix: (Units=1/GPa)
#
#
# Indices 1 2 3 4 5 6 
#
# 1 0.316312 -0.299845 -0.004639 0.000000 0.000000 0.000007
# 2 -0.299845 0.316312 -0.004639 0.000000 0.000000 -0.000007
# 3 -0.004639 -0.004639 0.010338 0.000000 0.000000 0.000000
# 4 0.000000 0.000000 0.000000 0.084220 0.000000 0.000000
# 5 0.000000 0.000000 0.000000 0.000000 0.084220 0.000000
# 6 0.000007 -0.000007 0.000000 0.000000 0.000000 0.074709
#
#
# Mechanical properties :
#
#
# Convention : Reuss Voigt Hill
#
# Bulk Modulus (GPa) = 40.46344 48.65987 44.56165
# Shear Modulus (GPa) = 3.30558 14.06584 8.68571
#
# Velocity S-wave (km/s) = 1.67013 3.44516 2.70725
# Velocity P-wave (km/s) = 6.15331 7.54227 6.88292
#
# Compressibility (1/GPa) = 0.02471366
#
# Stress axis : x y z
#
# Youngs Moduli (GPa) = 3.16144 3.16144 96.72790
#
# Poissons Ratio (x) = 0.94794 0.44875
# Poissons Ratio (y) = 0.94794 0.44875
# Poissons Ratio (z) = 0.01467 0.01467
#
# Static dielectric constant tensor:
#      x y z
#    x 2.241240 0.000000 0.000000 
#    y 0.000000 2.241240 0.000000 
#    z 0.000000 0.000000 2.757980 
# 
# 
# High freq. dielectric constant tensor:
#      x y z
#    x 1.407620 0.000000 0.000000 
#    y 0.000000 1.407620 0.000000 
#    z 0.000000 0.000000 1.476150 
# 
# From -- ./inp_files/552.got.cif
#   From: 2010.03.12/outbox.cif.g09.slc.cpg/sg100_cif.got.tgz:552.got - 2010.04.14 01:37:57.
