data_PCOD8306982
_publ_section_title
;
Structure prediction by ZEFSAII (Michael W. Deem and Ramdas Pophale) SiO2 
 PCOD8306982
Probable space group: P 4 C C
;
_chemical_formula_sum "Si O2"
_cell_formula_units_Z 48
_cell_length_a 16.418865
_cell_length_b 16.418865
_cell_length_c 9.745225
_cell_angle_alpha 90.000000
_cell_angle_beta 90.000000
_cell_angle_gamma 90.000000
_cell_volume 2627.109257
_symmetry_space_group_name_H-M "P 4 C C"
_symmetry_group_IT_number 103
_symmetry_cell_setting 'tetragonal'
loop_
_space_group_symop_operation_xyz
x,y,z
-y,x,z
-x,-y,z
y,-x,z
-x,y,1/2+z
x,-y,1/2+z
-y,-x,1/2+z
y,x,1/2+z
loop_
_atom_site_type_symbol
_atom_site_label
_atom_site_fract_x
_atom_site_fract_y
_atom_site_fract_z
Si Si1 0.728318 0.833327 0.328300
Si Si2 0.757217 0.004347 0.395161
Si Si3 0.270505 0.168888 0.008211
Si Si4 0.867710 0.982136 0.644954
Si Si5 0.575062 0.388287 0.162515
Si Si6 0.329227 0.328959 0.411869
O O1 0.700295 0.923825 0.374684
O O2 0.807883 0.809997 0.419650
O O3 0.659039 0.764785 0.359228
O O4 0.751529 0.832232 0.168172
O O5 0.792502 0.029165 0.247747
O O6 0.702933 0.078460 0.457676
O O7 0.833210 0.981945 0.491427
O O8 0.339309 0.238187 0.977652
O O9 0.909537 0.069393 0.668759
O O10 0.611881 0.478289 0.171208
O O11 0.608485 0.334539 0.286764
O O12 0.600114 0.347187 0.019997
#
# Coordination Sequence:
#
# PCOD8306982 Si02
#       6
#     8   8   8   8   8   8
#     4  10  21  36  55  77 114 158 207 256 296 340
#     4  12  22  31  52  72 101 156 210 260 300 340
#     4  10  21  36  55  77 114 158 207 256 296 340
#     4  11  22  32  42  64 102 146 195 260 329 364
#     4  11  22  38  66 104 136 152 173 212 282 382
#     4  10  20  39  60  88 129 164 190 230 286 352
#
# _framework density 18.271032000000002
#
# number of rings (size 3 to 8) (size 9 to 14) (size 15 to 20)
#    1.000    0.333    3.333    4.000    2.333    2.667 
#    0.000    0.000    0.000    0.000    0.000    7.000 
#    0.000    0.000    0.000    0.000    0.000    0.000 
#
# Total GULP energy -594858.056650 kJ/mol
# GULP energy per Si atom -12392.876180 kJ/mol
# Density = 1.822945 g / cm^3
# Si number density = 18.271032 Si / 1000 Ang^3
#
#
#
# Elastic Constant Matrix: (Units=GPa)
#
#
# Indices 1 2 3 4 5 6 
#
# 1 66.1226 34.5970 19.1172 0.0000 0.0000 0.0000
# 2 34.5970 66.1226 19.1172 0.0000 0.0000 0.0000
# 3 19.1172 19.1172 83.8121 0.0000 0.0000 0.0000
# 4 0.0000 0.0000 0.0000 25.8844 0.0000 0.0000
# 5 0.0000 0.0000 0.0000 0.0000 25.8844 0.0000
# 6 0.0000 0.0000 0.0000 0.0000 0.0000 23.9484
#
#
#
# Elastic Compliance Matrix: (Units=1/GPa)
#
#
# Indices 1 2 3 4 5 6 
#
# 1 0.021295 -0.010425 -0.002479 0.000000 0.000000 0.000000
# 2 -0.010425 0.021295 -0.002479 0.000000 0.000000 0.000000
# 3 -0.002479 -0.002479 0.013063 0.000000 0.000000 0.000000
# 4 0.000000 0.000000 0.000000 0.038633 0.000000 0.000000
# 5 0.000000 0.000000 0.000000 0.000000 0.038633 0.000000
# 6 0.000000 0.000000 0.000000 0.000000 0.000000 0.041757
#
#
# Mechanical properties :
#
#
# Convention : Reuss Voigt Hill
#
# Bulk Modulus (GPa) = 40.18549 40.19114 40.18832
# Shear Modulus (GPa) = 23.39307 24.69182 24.04244
#
# Velocity S-wave (km/s) = 3.58206 3.68015 3.63144
# Velocity P-wave (km/s) = 6.25700 6.33269 6.29496
#
# Compressibility (1/GPa) = 0.02488461
#
# Stress axis : x y z
#
# Youngs Moduli (GPa) = 46.95928 46.95928 76.55497
#
# Poissons Ratio (x) = 0.48956 0.18981
# Poissons Ratio (y) = 0.48956 0.18981
# Poissons Ratio (z) = 0.11643 0.11643
#
# Static dielectric constant tensor:
#      x y z
#    x 3.170440 0.000000 0.000000 
#    y 0.000000 3.170440 0.000000 
#    z 0.000000 0.000000 3.574610 
# 
# 
# High freq. dielectric constant tensor:
#      x y z
#    x 1.677060 0.000000 0.000000 
#    y 0.000000 1.677060 0.000000 
#    z 0.000000 0.000000 1.734270 
# 
# From -- ./inp_files/267.got.cif
#   From: 2010.03.12/outbox.cif.g09.slc.cpg/sg103_cif.got.tgz:267.got - 2010.04.14 01:42:52.
