data_PCOD8306590
_publ_section_title
;
Structure prediction by ZEFSAII (Michael W. Deem and Ramdas Pophale) SiO2 
 PCOD8306590
Probable space group: P 4 M M
;
_chemical_formula_sum "Si O2"
_cell_formula_units_Z 64
_cell_length_a 13.381941
_cell_length_b 13.381941
_cell_length_c 20.659922
_cell_angle_alpha 90.000000
_cell_angle_beta 90.000000
_cell_angle_gamma 90.000000
_cell_volume 3699.703318
_symmetry_space_group_name_H-M "P 4 M M"
_symmetry_group_IT_number 99
_symmetry_cell_setting 'tetragonal'
loop_
_space_group_symop_operation_xyz
x,y,z
-y,x,z
-x,-y,z
y,-x,z
-x,y,z
x,-y,z
-y,-x,z
y,x,z
loop_
_atom_site_type_symbol
_atom_site_label
_atom_site_fract_x
_atom_site_fract_y
_atom_site_fract_z
Si Si1 0.722082 0.881892 0.580360
Si Si2 0.221895 0.617969 0.229382
Si Si3 0.774607 0.614998 0.834710
Si Si4 0.224189 0.384495 0.977498
Si Si5 0.617388 0.218234 0.464919
Si Si6 0.611537 0.117350 0.708518
Si Si7 0.718214 0.882618 0.344875
Si Si8 0.381705 0.109730 0.101353
O O1 0.827887 0.827887 0.566890
O O2 0.639808 0.845629 0.529128
O O3 0.683647 0.848104 0.650912
O O4 0.738833 0.000000 0.574465
O O5 0.239426 0.500000 0.235664
O O6 0.327568 0.672433 0.242447
O O7 0.139734 0.654230 0.280730
O O8 0.182956 0.650927 0.158879
O O9 0.750051 0.500000 0.824873
O O10 0.669392 0.669392 0.829157
O O11 0.823661 0.633553 0.905899
O O12 0.846854 0.654289 0.777854
O O13 0.247694 0.500000 0.989903
O O14 0.329700 0.329700 0.983533
O O15 0.149495 0.342494 0.032117
O O16 0.500000 0.242041 0.460717
O O17 0.676587 0.323414 0.465282
O O18 0.650651 0.150602 0.404930
O O19 0.500000 0.160282 0.696163
O O20 0.607003 0.000000 0.711054
O O21 0.823352 0.823352 0.344508
O O22 0.742069 0.000000 0.349132
O O23 0.500000 0.100983 0.100322
O O24 0.334558 0.000000 0.112425
#
# Coordination Sequence:
#
# PCOD8306590 Si02
#       8
#     8   8   8   8   8   8   8   8
#     4  10  20  33  50  72  97 126 160 198 241 288
#     4  10  20  33  50  73 100 130 164 200 240 289
#     4   9  17  28  42  61  87 118 150 186 227 273
#     4   9  17  28  42  62  88 118 151 186 227 277
#     4  10  21  36  54  77 103 131 164 200 239 286
#     4   9  17  29  46  67  89 116 152 192 235 282
#     4  10  21  36  54  77 103 132 168 207 246 288
#     4   9  17  29  45  64  87 117 152 190 232 276
#
# _framework density 17.298683
#
# number of rings (size 3 to 8) (size 9 to 14) (size 15 to 20)
#    0.000    2.500    0.000    2.250    0.000    4.000 
#    0.000    3.750    0.000    6.750    0.000    1.750 
#    0.000    2.250    0.000    9.250    0.000    1.000 
#
# Total GULP energy -793396.217953 kJ/mol
# GULP energy per Si atom -12396.815906 kJ/mol
# Density = 1.725931 g / cm^3
# Si number density = 17.298683 Si / 1000 Ang^3
#
#
#
# Elastic Constant Matrix: (Units=GPa)
#
#
# Indices 1 2 3 4 5 6 
#
# 1 86.1536 40.3320 42.1938 0.0000 0.0000 0.0000
# 2 40.3320 86.1536 42.1938 0.0000 0.0000 0.0000
# 3 42.1938 42.1938 133.2608 0.0000 0.0000 0.0000
# 4 0.0000 0.0000 0.0000 23.6469 0.0000 0.0000
# 5 0.0000 0.0000 0.0000 0.0000 23.6469 0.0000
# 6 0.0000 0.0000 0.0000 0.0000 0.0000 15.3831
#
#
#
# Elastic Compliance Matrix: (Units=1/GPa)
#
#
# Indices 1 2 3 4 5 6 
#
# 1 0.015924 -0.005900 -0.003174 0.000000 0.000000 0.000000
# 2 -0.005900 0.015924 -0.003174 0.000000 0.000000 0.000000
# 3 -0.003174 -0.003174 0.009514 0.000000 0.000000 0.000000
# 4 0.000000 0.000000 0.000000 0.042289 0.000000 0.000000
# 5 0.000000 0.000000 0.000000 0.000000 0.042289 0.000000
# 6 0.000000 0.000000 0.000000 0.000000 0.000000 0.065007
#
#
# Mechanical properties :
#
#
# Convention : Reuss Voigt Hill
#
# Bulk Modulus (GPa) = 59.29098 61.66745 60.47921
# Shear Modulus (GPa) = 22.61808 24.59195 23.60501
#
# Velocity S-wave (km/s) = 3.61986 3.77451 3.69800
# Velocity P-wave (km/s) = 7.19864 7.39743 7.29871
#
# Compressibility (1/GPa) = 0.01686597
#
# Stress axis : x y z
#
# Youngs Moduli (GPa) = 62.79996 62.79996 105.11034
#
# Poissons Ratio (x) = 0.37053 0.33359
# Poissons Ratio (y) = 0.37053 0.33359
# Poissons Ratio (z) = 0.19931 0.19931
#
# Static dielectric constant tensor:
#      x y z
#    x 3.072920 0.000000 0.000000 
#    y 0.000000 3.072920 0.000000 
#    z 0.000000 0.000000 3.638490 
# 
# 
# High freq. dielectric constant tensor:
#      x y z
#    x 1.651220 0.000000 0.000000 
#    y 0.000000 1.651220 0.000000 
#    z 0.000000 0.000000 1.692430 
# 
# From -- ./inp_files/2273.got.cif
#   From: 2010.03.12/outbox.cif.g09.slc.cpg/sg99_cif.got.tgz:2273.got - 2010.04.08 21:11:30.
