data_PCOD8306654
_publ_section_title
;
Structure prediction by ZEFSAII (Michael W. Deem and Ramdas Pophale) SiO2 
 PCOD8306654
Probable space group: P 4 B M
;
_chemical_formula_sum "Si O2"
_cell_formula_units_Z 48
_cell_length_a 13.632112
_cell_length_b 13.632112
_cell_length_c 13.515069
_cell_angle_alpha 90.000000
_cell_angle_beta 90.000000
_cell_angle_gamma 90.000000
_cell_volume 2511.565787
_symmetry_space_group_name_H-M "P 4 B M"
_symmetry_group_IT_number 100
_symmetry_cell_setting 'tetragonal'
loop_
_space_group_symop_operation_xyz
x,y,z
-y,x,z
-x,-y,z
y,-x,z
1/2-x,1/2+y,z
1/2+x,1/2-y,z
1/2-y,1/2-x,z
1/2+y,1/2+x,z
loop_
_atom_site_type_symbol
_atom_site_label
_atom_site_fract_x
_atom_site_fract_y
_atom_site_fract_z
Si Si1 0.273135 0.383823 0.510410
Si Si2 0.159522 0.495378 0.790205
Si Si3 0.226866 0.883823 0.288644
Si Si4 0.917187 0.255058 0.604263
Si Si5 0.504623 0.159522 0.008851
Si Si6 0.744944 0.917187 0.194792
O O1 0.170413 0.329588 0.525371
O O2 0.314415 0.366206 0.399527
O O3 0.351090 0.342161 0.590812
O O4 0.251075 0.497925 0.523363
O O5 0.075593 0.575593 0.794614
O O6 0.241861 0.530443 0.712126
O O7 0.207958 0.485314 0.899528
O O8 0.108912 0.391089 0.759578
O O9 0.329588 0.829588 0.273682
O O10 0.148909 0.842163 0.208242
O O11 0.248925 0.997925 0.275692
O O12 0.852071 0.352071 0.584617
O O13 0.424408 0.075593 0.004444
O O14 0.608912 0.108912 0.039478
O O15 0.469558 0.241862 0.086930
O O16 0.647931 0.852070 0.214438
#
# Coordination Sequence:
#
# PCOD8306654 Si02
#       6
#     8   8   8   8   8   8
#     4  10  21  35  52  76 103 135 179 224 266 320
#     4   8  14  27  50  78 104 131 166 209 257 311
#     4  10  21  35  52  76 103 135 179 224 266 320
#     4  10  20  35  53  74 105 140 174 219 272 320
#     4   8  14  27  50  78 104 131 166 209 257 311
#     4  10  20  35  53  74 105 140 174 219 272 320
#
# _framework density 19.111585000000002
#
# number of rings (size 3 to 8) (size 9 to 14) (size 15 to 20)
#    0.000    2.667    0.000    3.000    0.000    4.667 
#    0.000    5.000    0.000    6.000    0.000    2.333 
#    0.000    0.000    0.000    0.000    0.000    0.000 
#
# Total GULP energy -594817.982259 kJ/mol
# GULP energy per Si atom -12392.041297 kJ/mol
# Density = 1.906809 g / cm^3
# Si number density = 19.111585 Si / 1000 Ang^3
#
#
#
# Elastic Constant Matrix: (Units=GPa)
#
#
# Indices 1 2 3 4 5 6 
#
# 1 85.7941 36.8901 40.1229 0.0000 0.0000 -0.0001
# 2 36.8901 85.7941 40.1229 0.0000 0.0000 0.0001
# 3 40.1229 40.1229 98.4082 0.0000 0.0000 0.0000
# 4 0.0000 0.0000 0.0000 28.0731 0.0000 0.0000
# 5 0.0000 0.0000 0.0000 0.0000 28.0731 0.0000
# 6 -0.0001 0.0001 0.0000 0.0000 0.0000 21.2091
#
#
#
# Elastic Compliance Matrix: (Units=1/GPa)
#
#
# Indices 1 2 3 4 5 6 
#
# 1 0.015782 -0.004667 -0.004532 0.000000 0.000000 0.000000
# 2 -0.004667 0.015782 -0.004532 0.000000 0.000000 0.000000
# 3 -0.004532 -0.004532 0.013857 0.000000 0.000000 0.000000
# 4 0.000000 0.000000 0.000000 0.035621 0.000000 0.000000
# 5 0.000000 0.000000 0.000000 0.000000 0.035621 0.000000
# 6 0.000000 0.000000 0.000000 0.000000 0.000000 0.047149
#
#
# Mechanical properties :
#
#
# Convention : Reuss Voigt Hill
#
# Bulk Modulus (GPa) = 55.67885 56.02980 55.85432
# Shear Modulus (GPa) = 25.34726 25.66179 25.50453
#
# Velocity S-wave (km/s) = 3.64576 3.66831 3.65705
# Velocity P-wave (km/s) = 6.84974 6.87916 6.86446
#
# Compressibility (1/GPa) = 0.01796014
#
# Stress axis : x y z
#
# Youngs Moduli (GPa) = 63.36436 63.36436 72.16451
#
# Poissons Ratio (x) = 0.29569 0.32704
# Poissons Ratio (y) = 0.29569 0.32704
# Poissons Ratio (z) = 0.28716 0.28716
#
# Static dielectric constant tensor:
#      x y z
#    x 3.280020 0.000000 0.000000 
#    y 0.000000 3.280020 0.000000 
#    z 0.000000 0.000000 3.807640 
# 
# 
# High freq. dielectric constant tensor:
#      x y z
#    x 1.720370 0.000000 0.000000 
#    y 0.000000 1.720370 0.000000 
#    z 0.000000 0.000000 1.747280 
# 
# From -- ./inp_files/1260.got.cif
#   From: 2010.03.12/outbox.cif.g09.slc.cpg/sg100_cif.got.tgz:1260.got - 2010.04.14 01:37:57.
