data_PCOD8306504
_publ_section_title
;
Structure prediction by ZEFSAII (Michael W. Deem and Ramdas Pophale) SiO2 
 PCOD8306504
Probable space group: P 4 M M
;
_chemical_formula_sum "Si O2"
_cell_formula_units_Z 56
_cell_length_a 13.306210
_cell_length_b 13.306210
_cell_length_c 17.993254
_cell_angle_alpha 90.000000
_cell_angle_beta 90.000000
_cell_angle_gamma 90.000000
_cell_volume 3185.799628
_symmetry_space_group_name_H-M "P 4 M M"
_symmetry_group_IT_number 99
_symmetry_cell_setting 'tetragonal'
loop_
_space_group_symop_operation_xyz
x,y,z
-y,x,z
-x,-y,z
y,-x,z
-x,y,z
x,-y,z
-y,-x,z
y,x,z
loop_
_atom_site_type_symbol
_atom_site_label
_atom_site_fract_x
_atom_site_fract_y
_atom_site_fract_z
Si Si1 0.880851 0.611414 0.213110
Si Si2 0.275928 0.118178 0.358732
Si Si3 0.782658 0.382748 0.930466
Si Si4 0.881741 0.279424 0.064225
Si Si5 0.616959 0.886333 0.508062
Si Si6 0.282165 0.117371 0.792247
Si Si7 0.221065 0.617939 0.659166
O O1 0.834374 0.500000 0.204998
O O2 0.841220 0.658527 0.289851
O O3 0.846611 0.678799 0.143867
O O4 0.000000 0.604312 0.214726
O O5 0.165784 0.165784 0.354367
O O6 0.327835 0.153523 0.434812
O O7 0.261733 0.000000 0.354665
O O8 0.756057 0.500000 0.927052
O O9 0.678078 0.321923 0.932483
O O10 0.848227 0.352665 0.859448
O O11 0.849692 0.360567 0.002827
O O12 0.826305 0.173696 0.049323
O O13 0.000000 0.259168 0.060022
O O14 0.500000 0.881933 0.490404
O O15 0.645648 0.816565 0.577050
O O16 0.650207 0.000000 0.526885
O O17 0.176589 0.176589 0.793522
O O18 0.342882 0.137796 0.716592
O O19 0.257452 0.000000 0.798846
O O20 0.238234 0.500000 0.669826
O O21 0.327058 0.672943 0.673889
#
# Coordination Sequence:
#
# PCOD8306504 Si02
#       7
#     8   8   8   8   8   8   8
#     4   9  17  30  48  68  90 119 157 200 243 284
#     4  10  19  30  45  66  94 126 158 194 237 288
#     4  10  21  36  54  77 103 132 168 208 250 295
#     4  10  20  33  50  74 103 134 168 204 244 293
#     4   9  17  30  49  71  93 120 157 201 247 290
#     4  10  21  36  54  77 103 131 165 203 244 293
#     4  10  20  33  50  73 100 130 165 204 246 293
#
# _framework density 17.578005999999998
#
# number of rings (size 3 to 8) (size 9 to 14) (size 15 to 20)
#    0.000    2.286    0.000    3.000    0.000    5.571 
#    0.000    0.000    0.000    7.714    0.000    2.000 
#    0.000   11.714    0.000    0.000    0.000    0.000 
#
# Total GULP energy -694470.148966 kJ/mol
# GULP energy per Si atom -12401.252660 kJ/mol
# Density = 1.753800 g / cm^3
# Si number density = 17.578006 Si / 1000 Ang^3
#
#
#
# Elastic Constant Matrix: (Units=GPa)
#
#
# Indices 1 2 3 4 5 6 
#
# 1 97.1347 48.3186 46.2481 0.0000 0.0000 0.0000
# 2 48.3186 97.1347 46.2481 0.0000 0.0000 0.0000
# 3 46.2481 46.2481 121.4236 0.0000 0.0000 0.0000
# 4 0.0000 0.0000 0.0000 24.9996 0.0000 0.0000
# 5 0.0000 0.0000 0.0000 0.0000 24.9996 0.0000
# 6 0.0000 0.0000 0.0000 0.0000 0.0000 17.7327
#
#
#
# Elastic Compliance Matrix: (Units=1/GPa)
#
#
# Indices 1 2 3 4 5 6 
#
# 1 0.014779 -0.005706 -0.003456 0.000000 0.000000 0.000000
# 2 -0.005706 0.014779 -0.003456 0.000000 0.000000 0.000000
# 3 -0.003456 -0.003456 0.010868 0.000000 0.000000 0.000000
# 4 0.000000 0.000000 0.000000 0.040001 0.000000 0.000000
# 5 0.000000 0.000000 0.000000 0.000000 0.040001 0.000000
# 6 0.000000 0.000000 0.000000 0.000000 0.000000 0.056393
#
#
# Mechanical properties :
#
#
# Convention : Reuss Voigt Hill
#
# Bulk Modulus (GPa) = 65.82962 66.36920 66.09941
# Shear Modulus (GPa) = 24.14080 25.20492 24.67286
#
# Velocity S-wave (km/s) = 3.70990 3.79078 3.75056
# Velocity P-wave (km/s) = 7.47545 7.54977 7.51270
#
# Compressibility (1/GPa) = 0.01519073
#
# Stress axis : x y z
#
# Youngs Moduli (GPa) = 67.66463 67.66463 92.01367
#
# Poissons Ratio (x) = 0.38611 0.31796
# Poissons Ratio (y) = 0.38611 0.31796
# Poissons Ratio (z) = 0.23382 0.23382
#
# Static dielectric constant tensor:
#      x y z
#    x 3.101390 0.000000 0.000000 
#    y 0.000000 3.101390 0.000000 
#    z 0.000000 0.000000 3.523160 
# 
# 
# High freq. dielectric constant tensor:
#      x y z
#    x 1.667690 0.000000 0.000000 
#    y 0.000000 1.667690 0.000000 
#    z 0.000000 0.000000 1.702000 
# 
# From -- ./inp_files/2135.got.cif
#   From: 2010.03.12/outbox.cif.g09.slc.cpg/sg99_cif.got.tgz:2135.got - 2010.04.08 21:11:30.
