data_PCOD8306783
_publ_section_title
;
Structure prediction by ZEFSAII (Michael W. Deem and Ramdas Pophale) SiO2 
 PCOD8306783
Probable space group: P 42 C M
;
_chemical_formula_sum "Si O2"
_cell_formula_units_Z 64
_cell_length_a 11.883754
_cell_length_b 11.883754
_cell_length_c 23.431978
_cell_angle_alpha 90.000000
_cell_angle_beta 90.000000
_cell_angle_gamma 90.000000
_cell_volume 3309.148502
_symmetry_space_group_name_H-M "P 42 C M"
_symmetry_group_IT_number 101
_symmetry_cell_setting 'tetragonal'
loop_
_space_group_symop_operation_xyz
x,y,z
-y,x,1/2+z
-x,-y,z
y,-x,1/2+z
-x,y,1/2+z
x,-y,1/2+z
-y,-x,z
y,x,z
loop_
_atom_site_type_symbol
_atom_site_label
_atom_site_fract_x
_atom_site_fract_y
_atom_site_fract_z
Si Si1 0.830331 0.354545 0.543760
Si Si2 0.978661 0.372705 0.134161
Si Si3 0.499549 0.682790 0.732516
Si Si4 0.758692 0.940022 0.350139
Si Si5 0.182790 0.999549 0.225234
Si Si6 0.521339 0.127295 0.823590
Si Si7 0.145455 0.330331 0.913991
Si Si8 0.559979 0.258692 0.107611
O O1 0.756283 0.243718 0.552263
O O2 0.869294 0.369294 0.478875
O O3 0.759300 0.465337 0.559889
O O4 0.941137 0.340544 0.581819
O O5 0.850082 0.359596 0.113573
O O6 0.000000 0.500000 0.154430
O O7 0.003894 0.293757 0.187503
O O8 0.388450 0.611551 0.747120
O O9 0.611202 0.611202 0.745443
O O10 0.503894 0.793758 0.770247
O O11 0.495591 0.718230 0.666743
O O12 0.864581 0.864581 0.368719
O O13 0.781770 0.004410 0.291008
O O14 0.649918 0.859596 0.344178
O O15 0.740700 0.034664 0.397862
O O16 0.111202 0.111202 0.212308
O O17 0.111551 0.888450 0.210630
O O18 0.441138 0.159457 0.875932
O O19 0.500000 0.000000 0.803321
O O20 0.256284 0.256284 0.905488
O O21 0.635420 0.364581 0.089031
#
# Coordination Sequence:
#
# PCOD8306783 Si02
#       8
#     8   8   8   8   8   8   8   8
#     4  10  22  41  63  85 113 153 198 242 289 342
#     4  10  22  35  57  87 118 150 190 235 289 345
#     4  10  21  37  57  83 117 154 192 237 289 344
#     4  10  22  37  58  86 117 154 193 238 293 349
#     4  10  21  37  57  83 117 154 192 237 289 344
#     4  10  22  35  57  87 118 150 190 235 289 345
#     4  10  22  41  63  85 113 153 198 242 289 342
#     4  10  22  37  58  86 117 154 193 238 293 349
#
# _framework density 19.340323000000001
#
# number of rings (size 3 to 8) (size 9 to 14) (size 15 to 20)
#    0.000    2.000    0.000    2.250    7.000    6.000 
#    0.000    3.750    0.000    3.000    0.000    0.000 
#    0.000    0.000    0.000    0.000    0.000    0.000 
#
# Total GULP energy -793877.653008 kJ/mol
# GULP energy per Si atom -12404.338328 kJ/mol
# Density = 1.929630 g / cm^3
# Si number density = 19.340323 Si / 1000 Ang^3
#
#
#
# Elastic Constant Matrix: (Units=GPa)
#
#
# Indices 1 2 3 4 5 6 
#
# 1 93.2950 43.0139 67.4413 0.0000 0.0000 0.0001
# 2 43.0139 93.2950 67.4413 0.0000 0.0000 -0.0001
# 3 67.4413 67.4413 127.3599 0.0000 0.0000 0.0000
# 4 0.0000 0.0000 0.0000 33.7646 0.0000 0.0000
# 5 0.0000 0.0000 0.0000 0.0000 33.7646 0.0000
# 6 0.0001 -0.0001 0.0000 0.0000 0.0000 28.7271
#
#
#
# Elastic Compliance Matrix: (Units=1/GPa)
#
#
# Indices 1 2 3 4 5 6 
#
# 1 0.017650 -0.002238 -0.008161 0.000000 0.000000 0.000000
# 2 -0.002238 0.017650 -0.008161 0.000000 0.000000 0.000000
# 3 -0.008161 -0.008161 0.016495 0.000000 0.000000 0.000000
# 4 0.000000 0.000000 0.000000 0.029617 0.000000 0.000000
# 5 0.000000 0.000000 0.000000 0.000000 0.029617 0.000000
# 6 0.000000 0.000000 0.000000 0.000000 0.000000 0.034810
#
#
# Mechanical properties :
#
#
# Convention : Reuss Voigt Hill
#
# Bulk Modulus (GPa) = 68.14605 74.41585 71.28095
# Shear Modulus (GPa) = 26.61674 28.32148 27.46911
#
# Velocity S-wave (km/s) = 3.71378 3.83087 3.77278
# Velocity P-wave (km/s) = 7.32812 7.62417 7.47761
#
# Compressibility (1/GPa) = 0.01467436
#
# Stress axis : x y z
#
# Youngs Moduli (GPa) = 56.65674 56.65674 60.62430
#
# Poissons Ratio (x) = 0.12680 0.49477
# Poissons Ratio (y) = 0.12680 0.49477
# Poissons Ratio (z) = 0.46239 0.46239
#
# Static dielectric constant tensor:
#      x y z
#    x 3.730380 0.000000 0.000000 
#    y 0.000000 3.730380 0.000000 
#    z 0.000000 0.000000 3.371800 
# 
# 
# High freq. dielectric constant tensor:
#      x y z
#    x 1.762950 0.000000 0.000000 
#    y 0.000000 1.762950 0.000000 
#    z 0.000000 0.000000 1.740370 
# 
# From -- ./inp_files/2804.got.cif
#   From: 2010.03.12/outbox.cif.g09.slc.cpg/sg101_2_cif.got.tgz:2804.got - 2010.04.14 01:38:52.
