data_PCOD8306056
_publ_section_title
;
Structure prediction by ZEFSAII (Michael W. Deem and Ramdas Pophale) SiO2 
 PCOD8306056
Probable space group: I 4 2 2 
;
_chemical_formula_sum "Si O2"
_cell_formula_units_Z 72
_cell_length_a 19.692411
_cell_length_b 19.692411
_cell_length_c 9.565412
_cell_angle_alpha 90.000000
_cell_angle_beta 90.000000
_cell_angle_gamma 90.000000
_cell_volume 3709.381173
_symmetry_space_group_name_H-M "I 4 2 2 "
_symmetry_group_IT_number 97
_symmetry_cell_setting 'tetragonal'
loop_
_space_group_symop_operation_xyz
x,y,z
-y,x,z
-x,-y,z
y,-x,z
x,-y,-z
-x,y,-z
y,x,-z
-y,-x,-z
1/2+x,1/2+y,1/2+z
1/2-y,1/2+x,1/2+z
1/2-x,1/2-y,1/2+z
1/2+y,1/2-x,1/2+z
1/2+x,1/2-y,1/2-z
1/2-x,1/2+y,1/2-z
1/2+y,1/2+x,1/2-z
1/2-y,1/2-x,1/2-z
loop_
_atom_site_type_symbol
_atom_site_label
_atom_site_fract_x
_atom_site_fract_y
_atom_site_fract_z
Si Si1 0.239734 0.343438 0.499366
Si Si2 0.909790 0.690974 0.736764
Si Si3 0.237472 0.132110 0.540723
Si Si4 0.037914 0.232275 0.193851
Si Si5 0.500000 0.386023 0.500000
O O1 0.316639 0.316639 0.500000
O O2 0.220905 0.351619 0.661223
O O3 0.191587 0.290179 0.416039
O O4 0.237412 0.415425 0.426387
O O5 0.890391 0.609610 0.750000
O O6 0.907314 0.726937 0.586325
O O7 0.984811 0.706517 0.789358
O O8 0.165320 0.165320 0.500000
O O9 0.220668 0.079836 0.664391
O O10 0.002855 0.162064 0.139247
O O11 0.567322 0.432679 0.500000
#
# Coordination Sequence:
#
# PCOD8306056 Si02
#       5
#    16  16  16  16   8
#     4  10  19  36  60  88 115 150 198 257 312 368
#     4  10  21  36  52  82 121 155 196 248 308 367
#     4  10  22  35  58  91 121 145 196 267 321 359
#     4  12  21  37  63  86 116 163 205 247 311 374
#     4  11  26  42  60  86 120 167 216 250 296 387
#
# _framework density 19.410245
#
# number of rings (size 3 to 8) (size 9 to 14) (size 15 to 20)
#    0.000    1.444    2.222    3.333    3.111    3.556 
#    0.000    0.000    0.000    2.667    0.000   12.444 
#    0.000    0.000    0.000    0.000    0.000    0.000 
#
# Total GULP energy -446061.430263 kJ/mol
# GULP energy per Si atom -12390.595285 kJ/mol
# Density = 1.936607 g / cm^3
# Si number density = 19.410245 Si / 1000 Ang^3
#
#
#
# Elastic Constant Matrix: (Units=GPa)
#
#
# Indices 1 2 3 4 5 6 
#
# 1 111.0462 61.9891 39.2021 0.0000 0.0000 0.0000
# 2 61.9891 111.0482 39.2027 0.0000 0.0000 0.0000
# 3 39.2021 39.2027 112.5578 0.0000 0.0000 0.0000
# 4 0.0000 0.0000 0.0000 34.0111 0.0000 0.0000
# 5 0.0000 0.0000 0.0000 0.0000 34.0100 0.0000
# 6 0.0000 0.0000 0.0000 0.0000 0.0000 36.9385
#
#
#
# Elastic Compliance Matrix: (Units=1/GPa)
#
#
# Indices 1 2 3 4 5 6 
#
# 1 0.013623 -0.006761 -0.002390 0.000000 0.000000 0.000000
# 2 -0.006761 0.013623 -0.002390 0.000000 0.000000 0.000000
# 3 -0.002390 -0.002390 0.010549 0.000000 0.000000 0.000000
# 4 0.000000 0.000000 0.000000 0.029402 0.000000 0.000000
# 5 0.000000 0.000000 0.000000 0.000000 0.029403 0.000000
# 6 0.000000 0.000000 0.000000 0.000000 0.000000 0.027072
#
#
# Mechanical properties :
#
#
# Convention : Reuss Voigt Hill
#
# Bulk Modulus (GPa) = 67.96540 68.38221 68.17381
# Shear Modulus (GPa) = 32.96876 33.94247 33.45561
#
# Velocity S-wave (km/s) = 4.12579 4.18627 4.15614
# Velocity P-wave (km/s) = 7.60180 7.65982 7.63087
#
# Compressibility (1/GPa) = 0.01471337
#
# Stress axis : x y z
#
# Youngs Moduli (GPa) = 73.40453 73.40575 94.79470
#
# Poissons Ratio (x) = 0.49629 0.22655
# Poissons Ratio (y) = 0.49629 0.22656
# Poissons Ratio (z) = 0.17543 0.17544
#
# Static dielectric constant tensor:
#      x y z
#    x 3.608530 0.000000 0.000000 
#    y 0.000000 3.608520 0.000000 
#    z 0.000000 0.000000 3.614960 
# 
# 
# High freq. dielectric constant tensor:
#      x y z
#    x 1.748100 0.000000 0.000000 
#    y 0.000000 1.748100 0.000000 
#    z 0.000000 0.000000 1.765430 
# 
# From -- ./inp_files/2249.got.cif
#   From: 2010.03.12/outbox.cif.g09.slc.cpg/sg97_2_cif.got.tgz:2249.got - 2010.04.08 20:59:42.
