data_PCOD8306899
_publ_section_title
;
Structure prediction by ZEFSAII (Michael W. Deem and Ramdas Pophale) SiO2 
 PCOD8306899
Probable space group: P 42 N M
;
_chemical_formula_sum "Si O2"
_cell_formula_units_Z 64
_cell_length_a 12.414270
_cell_length_b 12.414270
_cell_length_c 21.654953
_cell_angle_alpha 90.000000
_cell_angle_beta 90.000000
_cell_angle_gamma 90.000000
_cell_volume 3337.333584
_symmetry_space_group_name_H-M "P 42 N M"
_symmetry_group_IT_number 102
_symmetry_cell_setting 'tetragonal'
loop_
_space_group_symop_operation_xyz
x,y,z
1/2-y,1/2+x,1/2+z
-x,-y,z
1/2+y,1/2-x,1/2+z
1/2-x,1/2+y,1/2+z
1/2+x,1/2-y,1/2+z
-y,-x,z
y,x,z
loop_
_atom_site_type_symbol
_atom_site_label
_atom_site_fract_x
_atom_site_fract_y
_atom_site_fract_z
Si Si1 0.791631 0.374807 0.612890
Si Si2 0.275934 0.106297 0.588648
Si Si3 0.625780 0.003274 0.291398
Si Si4 0.749199 0.076075 0.170551
Si Si5 0.560067 0.731713 0.188990
Si Si6 0.393911 0.942191 0.505131
Si Si7 0.129984 0.310632 0.886344
Si Si8 0.229006 0.408922 0.326033
O O1 0.721895 0.278106 0.583693
O O2 0.710474 0.465721 0.638685
O O3 0.864413 0.331790 0.669467
O O4 0.868130 0.427733 0.562220
O O5 0.187201 0.187201 0.561006
O O6 0.373383 0.171400 0.619058
O O7 0.223966 0.043678 0.646250
O O8 0.309147 0.030380 0.531097
O O9 0.654994 0.885316 0.319982
O O10 0.500000 0.000000 0.276172
O O11 0.686621 0.038702 0.230538
O O12 0.658785 0.094776 0.339512
O O13 0.848517 0.151484 0.188670
O O14 0.619510 0.619510 0.179183
O O15 0.530976 0.746829 0.260957
O O16 0.347258 0.863657 0.453016
O O17 0.500000 0.000000 0.478286
O O18 0.207883 0.207883 0.877433
O O19 0.004361 0.274037 0.877363
O O20 0.321724 0.321724 0.342831
#
# Coordination Sequence:
#
# PCOD8306899 Si02
#       8
#     8   8   8   8   8   8   8   8
#     4  10  20  35  56  82 116 155 191 233 285 350
#     4  10  21  35  56  89 121 150 193 246 296 351
#     4  10  20  35  61  87 118 158 199 244 290 350
#     4  11  21  33  55  89 123 155 188 239 299 350
#     4   9  18  32  56  87 118 153 189 234 293 353
#     4  11  21  39  64  82 109 154 204 246 288 345
#     4  11  24  41  59  87 118 153 203 251 301 355
#     4  10  20  37  62  89 119 157 200 248 299 351
#
# _framework density 19.176985999999999
#
# number of rings (size 3 to 8) (size 9 to 14) (size 15 to 20)
#    0.000    1.750    2.500    3.375    1.750    2.750 
#    0.000    4.375    0.000    3.375    0.000    0.000 
#    0.000    0.000    0.000    0.000    0.000    0.000 
#
# Total GULP energy -793157.493857 kJ/mol
# GULP energy per Si atom -12393.085842 kJ/mol
# Density = 1.913334 g / cm^3
# Si number density = 19.176986 Si / 1000 Ang^3
#
#
#
# Elastic Constant Matrix: (Units=GPa)
#
#
# Indices 1 2 3 4 5 6 
#
# 1 85.7795 63.7522 43.0222 0.0000 0.0000 -0.0004
# 2 63.7522 85.7795 43.0222 0.0000 0.0000 0.0004
# 3 43.0222 43.0222 66.8464 0.0000 0.0000 0.0000
# 4 0.0000 0.0000 0.0000 28.2456 0.0000 0.0000
# 5 0.0000 0.0000 0.0000 0.0000 28.2456 0.0000
# 6 -0.0004 0.0004 0.0000 0.0000 0.0000 30.8623
#
#
#
# Elastic Compliance Matrix: (Units=1/GPa)
#
#
# Indices 1 2 3 4 5 6 
#
# 1 0.028010 -0.017389 -0.006836 0.000000 0.000000 0.000001
# 2 -0.017389 0.028010 -0.006836 0.000000 0.000000 -0.000001
# 3 -0.006836 -0.006836 0.023758 0.000000 0.000000 0.000000
# 4 0.000000 0.000000 0.000000 0.035404 0.000000 0.000000
# 5 0.000000 0.000000 0.000000 0.000000 0.035404 0.000000
# 6 0.000001 -0.000001 0.000000 0.000000 0.000000 0.032402
#
#
# Mechanical properties :
#
#
# Convention : Reuss Voigt Hill
#
# Bulk Modulus (GPa) = 56.63198 59.77759 58.20478
# Shear Modulus (GPa) = 19.92091 23.37798 21.64944
#
# Velocity S-wave (km/s) = 3.22653 3.49530 3.36360
# Velocity P-wave (km/s) = 6.59363 6.89410 6.74554
#
# Compressibility (1/GPa) = 0.01765787
#
# Stress axis : x y z
#
# Youngs Moduli (GPa) = 35.70205 35.70205 42.09039
#
# Poissons Ratio (x) = 0.62081 0.28771
# Poissons Ratio (y) = 0.62081 0.28771
# Poissons Ratio (z) = 0.24404 0.24404
#
# Static dielectric constant tensor:
#      x y z
#    x 3.410340 0.000000 0.000000 
#    y 0.000000 3.410340 0.000000 
#    z 0.000000 0.000000 3.414260 
# 
# 
# High freq. dielectric constant tensor:
#      x y z
#    x 1.742840 0.000000 0.000000 
#    y 0.000000 1.742840 0.000000 
#    z 0.000000 0.000000 1.736200 
# 
# From -- ./inp_files/3452.got.cif
#   From: 2010.03.12/outbox.cif.g09.slc.cpg/sg102_2_cif.got.tgz:3452.got - 2010.04.14 01:40:42.
