data_PCOD8306776
_publ_section_title
;
Structure prediction by ZEFSAII (Michael W. Deem and Ramdas Pophale) SiO2 
 PCOD8306776
Probable space group: P 42 C M
;
_chemical_formula_sum "Si O2"
_cell_formula_units_Z 64
_cell_length_a 12.535165
_cell_length_b 12.535165
_cell_length_c 22.634173
_cell_angle_alpha 90.000000
_cell_angle_beta 90.000000
_cell_angle_gamma 90.000000
_cell_volume 3556.515787
_symmetry_space_group_name_H-M "P 42 C M"
_symmetry_group_IT_number 101
_symmetry_cell_setting 'tetragonal'
loop_
_space_group_symop_operation_xyz
x,y,z
-y,x,1/2+z
-x,-y,z
y,-x,1/2+z
-x,y,1/2+z
x,-y,1/2+z
-y,-x,z
y,x,z
loop_
_atom_site_type_symbol
_atom_site_label
_atom_site_fract_x
_atom_site_fract_y
_atom_site_fract_z
Si Si1 0.502635 0.326219 0.701290
Si Si2 0.060155 0.770929 0.551955
Si Si3 0.113053 0.284220 0.640183
Si Si4 0.729071 0.560155 0.577428
Si Si5 0.106385 0.568370 0.248503
Si Si6 0.826219 0.997366 0.428093
Si Si7 0.386946 0.784220 0.489200
Si Si8 0.393615 0.068370 0.880880
O O1 0.603198 0.396803 0.723196
O O2 0.391281 0.391281 0.710212
O O3 0.518094 0.301862 0.631624
O O4 0.499291 0.214872 0.736988
O O5 0.126499 0.873502 0.571707
O O6 0.981906 0.801861 0.497758
O O7 0.135848 0.676597 0.530872
O O8 0.000525 0.732572 0.610236
O O9 0.171552 0.171552 0.646106
O O10 0.176595 0.364153 0.598511
O O11 0.099337 0.331001 0.705370
O O12 0.626500 0.626500 0.557676
O O13 0.767428 0.500525 0.519147
O O14 0.112202 0.612202 0.314691
O O15 0.000000 0.500000 0.238058
O O16 0.891280 0.108721 0.419171
O O17 0.714872 0.000708 0.392395
O O18 0.896804 0.896804 0.406187
O O19 0.328448 0.671553 0.483276
O O20 0.400663 0.831002 0.424014
O O21 0.500000 0.000000 0.891325
#
# Coordination Sequence:
#
# PCOD8306776 Si02
#       8
#     8   8   8   8   8   8   8   8
#     4   9  18  35  60  83 106 144 188 229 273 326
#     4   9  19  33  52  82 114 141 175 222 276 334
#     4  10  21  34  54  82 107 143 181 218 275 324
#     4   9  19  33  52  82 114 141 175 222 276 334
#     4  10  22  39  55  78 111 148 188 229 273 319
#     4   9  18  35  60  83 106 144 188 229 273 326
#     4  10  21  34  54  82 107 143 181 218 275 324
#     4  10  22  39  55  78 111 148 188 229 273 319
#
# _framework density 17.995139999999999
#
# number of rings (size 3 to 8) (size 9 to 14) (size 15 to 20)
#    0.000    2.500    0.000    3.000    7.000    3.500 
#    0.000    3.750    0.000    0.000    0.000    0.000 
#    0.000    0.000    0.000    0.000    0.000    0.000 
#
# Total GULP energy -793536.842855 kJ/mol
# GULP energy per Si atom -12399.013170 kJ/mol
# Density = 1.795418 g / cm^3
# Si number density = 17.995140 Si / 1000 Ang^3
#
#
#
# Elastic Constant Matrix: (Units=GPa)
#
#
# Indices 1 2 3 4 5 6 
#
# 1 95.4542 34.0071 49.0088 0.0000 0.0000 0.0000
# 2 34.0071 95.4542 49.0088 0.0000 0.0000 0.0000
# 3 49.0088 49.0088 114.7666 0.0000 0.0000 0.0000
# 4 0.0000 0.0000 0.0000 20.1348 0.0000 0.0000
# 5 0.0000 0.0000 0.0000 0.0000 20.1348 0.0000
# 6 0.0000 0.0000 0.0000 0.0000 0.0000 20.2900
#
#
#
# Elastic Compliance Matrix: (Units=1/GPa)
#
#
# Indices 1 2 3 4 5 6 
#
# 1 0.013845 -0.002430 -0.004874 0.000000 0.000000 0.000000
# 2 -0.002430 0.013845 -0.004874 0.000000 0.000000 0.000000
# 3 -0.004874 -0.004874 0.012876 0.000000 0.000000 0.000000
# 4 0.000000 0.000000 0.000000 0.049665 0.000000 0.000000
# 5 0.000000 0.000000 0.000000 0.000000 0.049665 0.000000
# 6 0.000000 0.000000 0.000000 0.000000 0.000000 0.049285
#
#
# Mechanical properties :
#
#
# Convention : Reuss Voigt Hill
#
# Bulk Modulus (GPa) = 61.69706 63.30271 62.49988
# Shear Modulus (GPa) = 22.83716 23.68861 23.26288
#
# Velocity S-wave (km/s) = 3.56627 3.63214 3.59936
# Velocity P-wave (km/s) = 7.16363 7.26939 7.21670
#
# Compressibility (1/GPa) = 0.01620823
#
# Stress axis : x y z
#
# Youngs Moduli (GPa) = 72.23075 72.23075 77.66119
#
# Poissons Ratio (x) = 0.17549 0.37856
# Poissons Ratio (y) = 0.17549 0.37856
# Poissons Ratio (z) = 0.35209 0.35209
#
# Static dielectric constant tensor:
#      x y z
#    x 3.342350 0.000000 0.000000 
#    y 0.000000 3.342350 0.000000 
#    z 0.000000 0.000000 3.187770 
# 
# 
# High freq. dielectric constant tensor:
#      x y z
#    x 1.697290 0.000000 0.000000 
#    y 0.000000 1.697290 0.000000 
#    z 0.000000 0.000000 1.681390 
# 
# From -- ./inp_files/2796.got.cif
#   From: 2010.03.12/outbox.cif.g09.slc.cpg/sg101_2_cif.got.tgz:2796.got - 2010.04.14 01:38:52.
