data_PCOD8306402
_publ_section_title
;
Structure prediction by ZEFSAII (Michael W. Deem and Ramdas Pophale) SiO2 
 PCOD8306402
Probable space group: I 41 2 2
;
_chemical_formula_sum "Si O2"
_cell_formula_units_Z 52
_cell_length_a 11.481159
_cell_length_b 11.481159
_cell_length_c 18.002913
_cell_angle_alpha 90.000000
_cell_angle_beta 90.000000
_cell_angle_gamma 90.000000
_cell_volume 2373.090199
_symmetry_space_group_name_H-M "I 41 2 2"
_symmetry_group_IT_number 98
_symmetry_cell_setting 'tetragonal'
loop_
_space_group_symop_operation_xyz
x,y,z
-y,1/2+x,1/4+z
-x,-y,z
y,1/2-x,1/4+z
x,1/2-y,1/4-z
-x,1/2+y,1/4-z
y,x,-z
-y,-x,-z
1/2+x,1/2+y,1/2+z
1/2-y,x,3/4+z
1/2-x,1/2-y,1/2+z
1/2+y,-x,3/4+z
1/2+x,-y,3/4-z
1/2-x,y,3/4-z
1/2+y,1/2+x,1/2-z
1/2-y,1/2-x,1/2-z
loop_
_atom_site_type_symbol
_atom_site_label
_atom_site_fract_x
_atom_site_fract_y
_atom_site_fract_z
Si Si1 0.000000 0.500000 0.750000
Si Si2 0.040616 0.748472 0.803548
Si Si3 0.223569 0.614012 0.534983
Si Si4 0.299000 0.128290 0.956031
O O1 0.998127 0.615901 0.798588
O O2 0.121011 0.793586 0.735538
O O3 0.116183 0.750711 0.877986
O O4 0.929076 0.829562 0.807344
O O5 0.345232 0.654769 0.500000
O O6 0.192737 0.486401 0.505847
O O7 0.250000 0.099171 0.875000
O O8 0.224058 0.224058 0.000000
#
# Coordination Sequence:
#
# PCOD8306402 Si02
#       4
#     4  16  16  16
#     4  12  28  44  76 104 144 188 242 316 380 440
#     4  12  27  48  75 110 147 197 250 315 374 446
#     4  12  27  48  75 108 153 199 250 305 376 449
#     4  12  25  47  74 109 153 195 248 308 376 450
#
# _framework density 21.912358999999999
#
# number of rings (size 3 to 8) (size 9 to 14) (size 15 to 20)
#    0.000    0.000    6.154    3.692    4.308    0.615 
#    0.000    0.000    0.000    0.000    0.000    0.000 
#    0.000    0.000    0.000    0.000    0.000    0.000 
#
# Total GULP energy -322468.875921 kJ/mol
# GULP energy per Si atom -12402.649074 kJ/mol
# Density = 2.186249 g / cm^3
# Si number density = 21.912359 Si / 1000 Ang^3
#
#
#
# Elastic Constant Matrix: (Units=GPa)
#
#
# Indices 1 2 3 4 5 6 
#
# 1 -95.0783 259.5977 20.7890 0.0000 0.0000 0.0000
# 2 259.5977 -95.1550 20.7332 0.0000 0.0000 0.0000
# 3 20.7890 20.7332 75.0564 0.0000 0.0000 0.0000
# 4 0.0000 0.0000 0.0000 40.7555 0.0000 0.0000
# 5 0.0000 0.0000 0.0000 0.0000 40.7554 0.0000
# 6 0.0000 0.0000 0.0000 0.0000 0.0000 50.1475
#
#
#
# Elastic Compliance Matrix: (Units=1/GPa)
#
#
# Indices 1 2 3 4 5 6 
#
# 1 0.001859 0.004678 -0.001807 0.000000 0.000000 0.000000
# 2 0.004678 0.001858 -0.001809 0.000000 0.000000 0.000000
# 3 -0.001807 -0.001809 0.014323 0.000000 0.000000 0.000000
# 4 0.000000 0.000000 0.000000 0.024537 0.000000 0.000000
# 5 0.000000 0.000000 0.000000 0.000000 0.024537 0.000000
# 6 0.000000 0.000000 0.000000 0.000000 0.000000 0.019941
#
#
# Mechanical properties :
#
#
# Convention : Reuss Voigt Hill
#
# Bulk Modulus (GPa) = 49.59336 54.11812 51.85574
# Shear Modulus (GPa) = 54.55385 -1.42143 26.56621
#
# Velocity S-wave (km/s) = 4.99504 -0.80629 3.48571
# Velocity P-wave (km/s) = 7.47990 4.88716 6.31796
#
# Compressibility (1/GPa) = 0.02016399
#
# Stress axis : x y z
#
# Youngs Moduli (GPa) = 537.95197 538.19671 69.81544
#
# Poissons Ratio (x) = -2.51750 0.12616
# Poissons Ratio (y) = -2.51635 0.12629
# Poissons Ratio (z) = 0.97208 0.97353
#
# Static dielectric constant tensor:
#      x y z
#    x 3.960600 0.000000 0.000000 
#    y 0.000000 3.960530 0.000000 
#    z 0.000000 0.000000 4.095130 
# 
# 
# High freq. dielectric constant tensor:
#      x y z
#    x 1.879560 0.000000 0.000000 
#    y 0.000000 1.879560 0.000000 
#    z 0.000000 0.000000 1.866100 
# 
# From -- ./inp_files/8440.got.cif
#   From: 2010.03.12/outbox.cif.g09.slc.cpg/sg98_5_cif.got.tgz:8440.got - 2010.04.08 21:04:41.
