data_PCOD8306364
_publ_section_title
;
Structure prediction by ZEFSAII (Michael W. Deem and Ramdas Pophale) SiO2 
 PCOD8306364
Probable space group: I 41 2 2
;
_chemical_formula_sum "Si O2"
_cell_formula_units_Z 64
_cell_length_a 18.240671
_cell_length_b 18.240671
_cell_length_c 10.241814
_cell_angle_alpha 90.000000
_cell_angle_beta 90.000000
_cell_angle_gamma 90.000000
_cell_volume 3407.677642
_symmetry_space_group_name_H-M "I 41 2 2"
_symmetry_group_IT_number 98
_symmetry_cell_setting 'tetragonal'
loop_
_space_group_symop_operation_xyz
x,y,z
-y,1/2+x,1/4+z
-x,-y,z
y,1/2-x,1/4+z
x,1/2-y,1/4-z
-x,1/2+y,1/4-z
y,x,-z
-y,-x,-z
1/2+x,1/2+y,1/2+z
1/2-y,x,3/4+z
1/2-x,1/2-y,1/2+z
1/2+y,-x,3/4+z
1/2+x,-y,3/4-z
1/2-x,y,3/4-z
1/2+y,1/2+x,1/2-z
1/2-y,1/2-x,1/2-z
loop_
_atom_site_type_symbol
_atom_site_label
_atom_site_fract_x
_atom_site_fract_y
_atom_site_fract_z
Si Si1 0.806095 0.496449 0.989025
Si Si2 0.332201 0.345235 0.856588
Si Si3 0.524615 0.782774 0.483635
Si Si4 0.448094 0.568886 0.849600
O O1 0.770911 0.486675 0.130513
O O2 0.750000 0.474963 0.875000
O O3 0.830518 0.580727 0.975496
O O4 0.874959 0.442507 0.984899
O O5 0.250000 0.311694 0.875000
O O6 0.387004 0.287853 0.787449
O O7 0.364578 0.364578 0.000000
O O8 0.507638 0.750000 0.625000
O O9 0.489740 0.862176 0.461049
O O10 0.500000 0.500000 0.831842
O O11 0.423284 0.576717 0.000000
#
# Coordination Sequence:
#
# PCOD8306364 Si02
#       4
#    16  16  16  16
#     4  11  21  40  66  93 127 161 219 266 322 385
#     4  11  20  37  60  87 124 170 216 254 307 399
#     4  12  26  42  61  98 137 169 213 277 338 379
#     4  11  21  39  73  95 119 175 233 267 308 389
#
# _framework density 18.781116999999998
#
# number of rings (size 3 to 8) (size 9 to 14) (size 15 to 20)
#    0.000    0.750   10.000    0.000    0.000    3.000 
#    0.000    1.250    0.000    4.500    0.000    0.000 
#    0.000    0.000    0.000    0.000    0.000    0.000 
#
# Total GULP energy -396795.487926 kJ/mol
# GULP energy per Si atom -12399.858998 kJ/mol
# Density = 1.873837 g / cm^3
# Si number density = 18.781117 Si / 1000 Ang^3
#
#
#
# Elastic Constant Matrix: (Units=GPa)
#
#
# Indices 1 2 3 4 5 6 
#
# 1 100.7975 54.9430 51.6576 0.0000 0.0000 0.0000
# 2 54.9430 100.7972 51.6576 0.0000 0.0000 0.0000
# 3 51.6576 51.6576 151.0934 0.0000 0.0000 0.0000
# 4 0.0000 0.0000 0.0000 18.4589 0.0000 0.0000
# 5 0.0000 0.0000 0.0000 0.0000 18.4592 0.0000
# 6 0.0000 0.0000 0.0000 0.0000 0.0000 32.3263
#
#
#
# Elastic Compliance Matrix: (Units=1/GPa)
#
#
# Indices 1 2 3 4 5 6 
#
# 1 0.015056 -0.006752 -0.002839 0.000000 0.000000 0.000000
# 2 -0.006752 0.015056 -0.002839 0.000000 0.000000 0.000000
# 3 -0.002839 -0.002839 0.008560 0.000000 0.000000 0.000000
# 4 0.000000 0.000000 0.000000 0.054174 0.000000 0.000000
# 5 0.000000 0.000000 0.000000 0.000000 0.054174 0.000000
# 6 0.000000 0.000000 0.000000 0.000000 0.000000 0.030935
#
#
# Mechanical properties :
#
#
# Convention : Reuss Voigt Hill
#
# Bulk Modulus (GPa) = 72.40175 74.35606 73.37891
# Shear Modulus (GPa) = 24.10572 26.81086 25.45829
#
# Velocity S-wave (km/s) = 3.58650 3.78238 3.68574
# Velocity P-wave (km/s) = 7.46891 7.66499 7.56758
#
# Compressibility (1/GPa) = 0.01381182
#
# Stress axis : x y z
#
# Youngs Moduli (GPa) = 66.41747 66.41720 116.82470
#
# Poissons Ratio (x) = 0.44844 0.33169
# Poissons Ratio (y) = 0.44844 0.33169
# Poissons Ratio (z) = 0.18857 0.18857
#
# Static dielectric constant tensor:
#      x y z
#    x 3.499220 0.000000 0.000000 
#    y 0.000000 3.499220 0.000000 
#    z 0.000000 0.000000 3.404570 
# 
# 
# High freq. dielectric constant tensor:
#      x y z
#    x 1.719920 0.000000 0.000000 
#    y 0.000000 1.719920 0.000000 
#    z 0.000000 0.000000 1.721680 
# 
# From -- ./inp_files/3277.got.cif
#   From: 2010.03.12/outbox.cif.g09.slc.cpg/sg98_2_cif.got.tgz:3277.got - 2010.04.08 21:04:41.
