data_PCOD8306835
_publ_section_title
;
Structure prediction by ZEFSAII (Michael W. Deem and Ramdas Pophale) SiO2 
 PCOD8306835
Probable space group: P 42 N M
;
_chemical_formula_sum "Si O2"
_cell_formula_units_Z 48
_cell_length_a 13.490685
_cell_length_b 13.490685
_cell_length_c 15.199435
_cell_angle_alpha 90.000000
_cell_angle_beta 90.000000
_cell_angle_gamma 90.000000
_cell_volume 2766.275614
_symmetry_space_group_name_H-M "P 42 N M"
_symmetry_group_IT_number 102
_symmetry_cell_setting 'tetragonal'
loop_
_space_group_symop_operation_xyz
x,y,z
1/2-y,1/2+x,1/2+z
-x,-y,z
1/2+y,1/2-x,1/2+z
1/2-x,1/2+y,1/2+z
1/2+x,1/2-y,1/2+z
-y,-x,z
y,x,z
loop_
_atom_site_type_symbol
_atom_site_label
_atom_site_fract_x
_atom_site_fract_y
_atom_site_fract_z
Si Si1 0.676199 0.165216 0.603680
Si Si2 0.361911 0.206583 0.456448
Si Si3 0.544384 0.110314 0.101289
Si Si4 0.593679 0.121310 0.288808
Si Si5 0.078138 0.234074 0.939557
Si Si6 0.408267 0.860553 0.791934
O O1 0.785403 0.214598 0.602133
O O2 0.606406 0.213836 0.530785
O O3 0.625667 0.183035 0.698452
O O4 0.684967 0.047655 0.584162
O O5 0.279843 0.279843 0.497992
O O6 0.391319 0.116482 0.519121
O O7 0.459439 0.271432 0.434096
O O8 0.314008 0.159511 0.368400
O O9 0.607062 0.148755 0.185554
O O10 0.500000 0.000000 0.119614
O O11 0.625714 0.206594 0.356720
O O12 0.477862 0.102468 0.300880
O O13 0.661487 0.024627 0.308310
O O14 0.123383 0.123383 0.936551
#
# Coordination Sequence:
#
# PCOD8306835 Si02
#       6
#     8   8   8   8   8   8
#     4  10  18  31  52  79 104 132 173 216 263 322
#     4  11  22  32  49  75 105 140 176 221 269 319
#     4  11  18  34  55  78 102 136 176 226 269 308
#     4   9  16  29  51  76  97 127 170 218 264 300
#     4  10  20  32  49  73 105 142 174 214 268 321
#     4   9  16  29  49  73 100 129 164 214 264 307
#
# _framework density 17.351849000000001
#
# number of rings (size 3 to 8) (size 9 to 14) (size 15 to 20)
#    0.000    2.000    5.000    1.500    2.333    1.000 
#    0.000    0.000    0.000    0.500    0.000    0.000 
#    0.000    4.333    0.000    0.000    0.000    0.000 
#
# Total GULP energy -594868.007821 kJ/mol
# GULP energy per Si atom -12393.083496 kJ/mol
# Density = 1.731236 g / cm^3
# Si number density = 17.351849 Si / 1000 Ang^3
#
#
#
# Elastic Constant Matrix: (Units=GPa)
#
#
# Indices 1 2 3 4 5 6 
#
# 1 63.3288 37.8547 21.1647 0.0000 0.0000 0.0000
# 2 37.8547 63.3288 21.1647 0.0000 0.0000 0.0000
# 3 21.1647 21.1647 100.4020 0.0000 0.0000 0.0000
# 4 0.0000 0.0000 0.0000 14.7740 0.0000 0.0000
# 5 0.0000 0.0000 0.0000 0.0000 14.7740 0.0000
# 6 0.0000 0.0000 0.0000 0.0000 0.0000 23.1075
#
#
#
# Elastic Compliance Matrix: (Units=1/GPa)
#
#
# Indices 1 2 3 4 5 6 
#
# 1 0.025047 -0.014208 -0.002285 0.000000 0.000000 0.000000
# 2 -0.014208 0.025047 -0.002285 0.000000 0.000000 0.000000
# 3 -0.002285 -0.002285 0.010923 0.000000 0.000000 0.000000
# 4 0.000000 0.000000 0.000000 0.067686 0.000000 0.000000
# 5 0.000000 0.000000 0.000000 0.000000 0.067686 0.000000
# 6 0.000000 0.000000 0.000000 0.000000 0.000000 0.043276
#
#
# Mechanical properties :
#
#
# Convention : Reuss Voigt Hill
#
# Bulk Modulus (GPa) = 42.62272 43.04755 42.83514
# Shear Modulus (GPa) = 17.54121 20.32281 18.93201
#
# Velocity S-wave (km/s) = 3.18294 3.42602 3.30671
# Velocity P-wave (km/s) = 6.17456 6.36495 6.27048
#
# Compressibility (1/GPa) = 0.02346166
#
# Stress axis : x y z
#
# Youngs Moduli (GPa) = 39.92455 39.92455 91.54789
#
# Poissons Ratio (x) = 0.56726 0.20917
# Poissons Ratio (y) = 0.56726 0.20917
# Poissons Ratio (z) = 0.09122 0.09122
#
# Static dielectric constant tensor:
#      x y z
#    x 3.091670 0.000000 0.000000 
#    y 0.000000 3.091670 0.000000 
#    z 0.000000 0.000000 3.603250 
# 
# 
# High freq. dielectric constant tensor:
#      x y z
#    x 1.640270 0.000000 0.000000 
#    y 0.000000 1.640270 0.000000 
#    z 0.000000 0.000000 1.690840 
# 
# From -- ./inp_files/2321.got.cif
#   From: 2010.03.12/outbox.cif.g09.slc.cpg/sg102_2_cif.got.tgz:2321.got - 2010.04.14 01:40:42.
