data_PCOD8306857
_publ_section_title
;
Structure prediction by ZEFSAII (Michael W. Deem and Ramdas Pophale) SiO2 
 PCOD8306857
Probable space group: P 42 N M
;
_chemical_formula_sum "Si O2"
_cell_formula_units_Z 64
_cell_length_a 12.637699
_cell_length_b 12.637699
_cell_length_c 23.340324
_cell_angle_alpha 90.000000
_cell_angle_beta 90.000000
_cell_angle_gamma 90.000000
_cell_volume 3727.716663
_symmetry_space_group_name_H-M "P 42 N M"
_symmetry_group_IT_number 102
_symmetry_cell_setting 'tetragonal'
loop_
_space_group_symop_operation_xyz
x,y,z
1/2-y,1/2+x,1/2+z
-x,-y,z
1/2+y,1/2-x,1/2+z
1/2-x,1/2+y,1/2+z
1/2+x,1/2-y,1/2+z
-y,-x,z
y,x,z
loop_
_atom_site_type_symbol
_atom_site_label
_atom_site_fract_x
_atom_site_fract_y
_atom_site_fract_z
Si Si1 0.380720 0.880720 0.179580
Si Si2 0.708916 0.876886 0.800437
Si Si3 0.500000 0.874395 0.994412
Si Si4 0.708916 0.876886 0.058723
Si Si5 0.791084 0.623114 0.558723
Si Si6 0.623114 0.791084 0.300437
Si Si7 0.619280 0.119280 0.679580
Si Si8 0.374395 0.000000 0.364748
O O1 0.357707 0.803856 0.232527
O O2 0.303856 0.857707 0.126633
O O3 0.500000 0.865555 0.156701
O O4 0.365555 0.000000 0.202459
O O5 0.810111 0.810111 0.821556
O O6 0.605433 0.833259 0.833196
O O7 0.729480 1.000000 0.814398
O O8 0.500000 0.831547 0.929580
O O9 0.500000 0.000000 0.996740
O O10 0.605433 0.833259 0.025964
O O11 0.394567 0.833259 0.025964
O O12 0.810111 0.810111 0.037604
O O13 0.696144 0.857707 0.126633
O O14 0.729480 1.000000 0.044762
O O15 0.689889 0.689889 0.537604
O O16 0.689889 0.689889 0.321556
O O17 0.642293 0.803856 0.232527
O O18 0.666741 0.894567 0.333195
O O19 0.500000 0.000000 0.362420
#
# Coordination Sequence:
#
# PCOD8306857 Si02
#       8
#     8   8   8   8   8   8   8   8
#     4   9  15  28  50  74 100 128 170 216 250 288
#     4  10  19  31  50  76 103 133 166 207 255 304
#     4   9  18  34  52  71  95 129 173 210 239 284
#     4  10  19  31  50  76 103 133 166 207 255 304
#     4  10  19  31  50  76 103 133 166 207 255 304
#     4  10  19  31  50  76 103 133 166 207 255 304
#     4   9  15  28  50  74 100 128 170 216 250 288
#     4   9  18  34  52  71  95 129 173 210 239 284
#
# _framework density 17.168685
#
# number of rings (size 3 to 8) (size 9 to 14) (size 15 to 20)
#    0.000    2.500    2.500    0.750    0.000    1.500 
#    0.000    0.000    0.000    0.750    0.000    8.750 
#    0.000    0.000    0.000    0.000    0.000    0.000 
#
# Total GULP energy -793440.831101 kJ/mol
# GULP energy per Si atom -12397.512986 kJ/mol
# Density = 1.712961 g / cm^3
# Si number density = 17.168685 Si / 1000 Ang^3
#
#
#
# Elastic Constant Matrix: (Units=GPa)
#
#
# Indices 1 2 3 4 5 6 
#
# 1 89.8843 63.2492 31.7369 0.0000 0.0000 0.0000
# 2 63.2492 89.8843 31.7369 0.0000 0.0000 0.0000
# 3 31.7369 31.7369 74.4159 0.0000 0.0000 0.0000
# 4 0.0000 0.0000 0.0000 11.6841 0.0000 0.0000
# 5 0.0000 0.0000 0.0000 0.0000 11.6841 0.0000
# 6 0.0000 0.0000 0.0000 0.0000 0.0000 31.7989
#
#
#
# Elastic Compliance Matrix: (Units=1/GPa)
#
#
# Indices 1 2 3 4 5 6 
#
# 1 0.022739 -0.014806 -0.003383 0.000000 0.000000 0.000000
# 2 -0.014806 0.022739 -0.003383 0.000000 0.000000 0.000000
# 3 -0.003383 -0.003383 0.016324 0.000000 0.000000 0.000000
# 4 0.000000 0.000000 0.000000 0.085586 0.000000 0.000000
# 5 0.000000 0.000000 0.000000 0.000000 0.085586 0.000000
# 6 0.000000 0.000000 0.000000 0.000000 0.000000 0.031448
#
#
# Mechanical properties :
#
#
# Convention : Reuss Voigt Hill
#
# Bulk Modulus (GPa) = 53.60088 56.40337 55.00213
# Shear Modulus (GPa) = 15.93453 19.53086 17.73269
#
# Velocity S-wave (km/s) = 3.04980 3.37647 3.21729
# Velocity P-wave (km/s) = 6.60982 6.93718 6.77548
#
# Compressibility (1/GPa) = 0.01865641
#
# Stress axis : x y z
#
# Youngs Moduli (GPa) = 43.97825 43.97825 61.26102
#
# Poissons Ratio (x) = 0.65114 0.20725
# Poissons Ratio (y) = 0.65114 0.20725
# Poissons Ratio (z) = 0.14878 0.14878
#
# Static dielectric constant tensor:
#      x y z
#    x 2.968700 0.000000 0.000000 
#    y 0.000000 2.968700 0.000000 
#    z 0.000000 0.000000 3.230320 
# 
# 
# High freq. dielectric constant tensor:
#      x y z
#    x 1.639550 0.000000 0.000000 
#    y 0.000000 1.639550 0.000000 
#    z 0.000000 0.000000 1.665260 
# 
# From -- ./inp_files/3390.got.cif
#   From: 2010.03.12/outbox.cif.g09.slc.cpg/sg102_2_cif.got.tgz:3390.got - 2010.04.14 01:40:42.
