data_PCOD8306905
_publ_section_title
;
Structure prediction by ZEFSAII (Michael W. Deem and Ramdas Pophale) SiO2 
 PCOD8306905
Probable space group: P 42 N M
;
_chemical_formula_sum "Si O2"
_cell_formula_units_Z 56
_cell_length_a 15.650674
_cell_length_b 15.650674
_cell_length_c 10.208179
_cell_angle_alpha 90.000000
_cell_angle_beta 90.000000
_cell_angle_gamma 90.000000
_cell_volume 2500.428080
_symmetry_space_group_name_H-M "P 42 N M"
_symmetry_group_IT_number 102
_symmetry_cell_setting 'tetragonal'
loop_
_space_group_symop_operation_xyz
x,y,z
1/2-y,1/2+x,1/2+z
-x,-y,z
1/2+y,1/2-x,1/2+z
1/2-x,1/2+y,1/2+z
1/2+x,1/2-y,1/2+z
-y,-x,z
y,x,z
loop_
_atom_site_type_symbol
_atom_site_label
_atom_site_fract_x
_atom_site_fract_y
_atom_site_fract_z
Si Si1 0.138258 0.997112 0.722250
Si Si2 0.703461 0.836594 0.076539
Si Si3 0.098569 0.527937 0.209195
Si Si4 0.006735 0.725793 0.930367
Si Si5 0.836387 0.301303 0.101782
Si Si6 0.969414 0.276024 0.510506
Si Si7 0.750714 0.382255 0.853300
O O1 0.068285 0.068285 0.701148
O O2 0.185647 0.013181 0.858764
O O3 0.203529 0.006130 0.604512
O O4 0.096742 0.903259 0.723017
O O5 0.794420 0.794420 0.044632
O O6 0.633202 0.774980 0.008482
O O7 0.690856 0.846105 0.234635
O O8 0.699222 0.930572 0.023118
O O9 0.148624 0.480806 0.326955
O O10 0.123546 0.630778 0.208674
O O11 0.129967 0.491656 0.069192
O O12 0.000000 0.500000 0.224629
O O13 0.087333 0.743253 0.022889
O O14 0.772540 0.227461 0.163310
O O15 0.783128 0.352683 0.994330
O O16 0.013501 0.257665 0.367619
O O17 0.653719 0.346282 0.832758
#
# Coordination Sequence:
#
# PCOD8306905 Si02
#       7
#     8   8   8   8   8   8   8
#     4  10  20  36  60  86 110 141 191 253 307 356
#     4  11  23  37  55  82 119 160 201 249 310 379
#     4  10  22  38  58  87 122 156 197 254 315 373
#     4  11  23  37  57  83 119 159 201 249 304 375
#     4  10  21  38  61  86 115 156 204 253 311 382
#     4  10  20  35  59  85 111 147 194 246 301 368
#     4   9  19  37  58  82 115 152 191 241 303 368
#
# _framework density 22.396166000000001
#
# number of rings (size 3 to 8) (size 9 to 14) (size 15 to 20)
#    0.000    1.857    0.000    4.286    0.000   10.286 
#    0.000    0.000    0.000    3.429    0.000   10.000 
#    0.000    0.000    0.000    0.000    0.000    0.000 
#
# Total GULP energy -693820.768469 kJ/mol
# GULP energy per Si atom -12389.656580 kJ/mol
# Density = 2.234519 g / cm^3
# Si number density = 22.396166 Si / 1000 Ang^3
#
#
#
# Elastic Constant Matrix: (Units=GPa)
#
#
# Indices 1 2 3 4 5 6 
#
# 1 109.6307 34.3013 23.5160 0.0000 0.0000 0.0001
# 2 34.3013 109.6307 23.5160 0.0000 0.0000 -0.0001
# 3 23.5160 23.5160 28.6116 0.0000 0.0000 0.0000
# 4 0.0000 0.0000 0.0000 17.9629 0.0000 0.0000
# 5 0.0000 0.0000 0.0000 0.0000 17.9629 0.0000
# 6 0.0001 -0.0001 0.0000 0.0000 0.0000 32.1622
#
#
#
# Elastic Compliance Matrix: (Units=1/GPa)
#
#
# Indices 1 2 3 4 5 6 
#
# 1 0.011387 -0.001888 -0.007807 0.000000 0.000000 0.000000
# 2 -0.001888 0.011387 -0.007807 0.000000 0.000000 0.000000
# 3 -0.007807 -0.007807 0.047784 0.000000 0.000000 0.000000
# 4 0.000000 0.000000 0.000000 0.055670 0.000000 0.000000
# 5 0.000000 0.000000 0.000000 0.000000 0.055670 0.000000
# 6 0.000000 0.000000 0.000000 0.000000 0.000000 0.031092
#
#
# Mechanical properties :
#
#
# Convention : Reuss Voigt Hill
#
# Bulk Modulus (GPa) = 28.12670 45.61550 36.87110
# Shear Modulus (GPa) = 19.24209 24.72024 21.98116
#
# Velocity S-wave (km/s) = 2.93434 3.32591 3.13624
# Velocity P-wave (km/s) = 4.90575 5.92964 5.44183
#
# Compressibility (1/GPa) = 0.03555341
#
# Stress axis : x y z
#
# Youngs Moduli (GPa) = 87.82011 87.82011 20.92742
#
# Poissons Ratio (x) = 0.16581 0.16338
# Poissons Ratio (y) = 0.16581 0.16338
# Poissons Ratio (z) = 0.68562 0.68562
#
# Static dielectric constant tensor:
#      x y z
#    x 4.256380 0.000000 0.000000 
#    y 0.000000 4.256380 0.000000 
#    z 0.000000 0.000000 3.889780 
# 
# 
# High freq. dielectric constant tensor:
#      x y z
#    x 1.883240 0.000000 0.000000 
#    y 0.000000 1.883240 0.000000 
#    z 0.000000 0.000000 1.862710 
# 
# From -- ./inp_files/1819.got.cif
#   From: 2010.03.12/outbox.cif.g09.slc.cpg/sg102_1_cif.got.tgz:1819.got - 2010.04.14 01:40:42.
