data_PCOD8306418
_publ_section_title
;
Structure prediction by ZEFSAII (Michael W. Deem and Ramdas Pophale) SiO2 
 PCOD8306418
Probable space group: P 4 M M
;
_chemical_formula_sum "Si O2"
_cell_formula_units_Z 64
_cell_length_a 17.838181
_cell_length_b 17.838181
_cell_length_c 11.328116
_cell_angle_alpha 90.000000
_cell_angle_beta 90.000000
_cell_angle_gamma 90.000000
_cell_volume 3604.614457
_symmetry_space_group_name_H-M "P 4 M M"
_symmetry_group_IT_number 99
_symmetry_cell_setting 'tetragonal'
loop_
_space_group_symop_operation_xyz
x,y,z
-y,x,z
-x,-y,z
y,-x,z
-x,y,z
x,-y,z
-y,-x,z
y,x,z
loop_
_atom_site_type_symbol
_atom_site_label
_atom_site_fract_x
_atom_site_fract_y
_atom_site_fract_z
Si Si1 0.855623 0.585205 0.234590
Si Si2 0.915622 0.634348 0.001820
Si Si3 0.588079 0.707500 0.110087
Si Si4 0.684640 0.805586 0.650888
Si Si5 0.081731 0.195780 0.732514
Si Si6 0.220011 0.584791 0.863119
Si Si7 0.912693 0.410392 0.482921
Si Si8 0.082038 0.801618 0.008089
O O1 0.840882 0.500000 0.265692
O O2 0.913309 0.591124 0.126011
O O3 0.774856 0.618431 0.194083
O O4 0.893046 0.620258 0.351416
O O5 0.000000 0.636363 0.951830
O O6 0.866471 0.593116 0.903259
O O7 0.885918 0.718362 0.027114
O O8 0.500000 0.693018 0.128360
O O9 0.632347 0.632347 0.144534
O O10 0.605721 0.727689 0.973950
O O11 0.742471 0.742471 0.596215
O O12 0.729232 0.871759 0.714219
O O13 0.636698 0.762537 0.750839
O O14 0.630374 0.848517 0.560084
O O15 0.125063 0.125063 0.674594
O O16 0.074097 0.181964 0.870530
O O17 0.000000 0.202661 0.672705
O O18 0.234178 0.500000 0.822691
O O19 0.903680 0.500000 0.497368
O O20 0.000000 0.388400 0.511837
O O21 0.139707 0.860294 0.067369
O O22 0.000000 0.810760 0.068153
#
# Coordination Sequence:
#
# PCOD8306418 Si02
#       8
#     8   8   8   8   8   8   8   8
#     4   9  19  34  50  71  98 128 161 198 244 297
#     4  10  18  28  46  71  97 124 158 200 245 296
#     4   9  18  32  51  75 102 131 164 204 248 297
#     4  11  21  33  50  71 100 133 169 210 253 301
#     4   9  17  29  44  63  90 122 157 199 242 286
#     4  10  20  32  47  70  99 132 167 201 247 303
#     4  10  21  37  56  76 102 135 170 212 260 308
#     4   9  17  28  42  63  91 124 161 198 239 284
#
# _framework density 17.755019999999998
#
# number of rings (size 3 to 8) (size 9 to 14) (size 15 to 20)
#    0.000    2.375    1.250    2.625    0.000    4.875 
#    0.000    1.250    0.000    0.000    0.000    0.000 
#    0.000    2.250    0.000    4.625    0.000    0.250 
#
# Total GULP energy -792975.366904 kJ/mol
# GULP energy per Si atom -12390.240108 kJ/mol
# Density = 1.771461 g / cm^3
# Si number density = 17.755020 Si / 1000 Ang^3
#
#
#
# Elastic Constant Matrix: (Units=GPa)
#
#
# Indices 1 2 3 4 5 6 
#
# 1 75.2542 42.4157 16.6274 0.0000 0.0000 0.0000
# 2 42.4157 75.2542 16.6274 0.0000 0.0000 0.0000
# 3 16.6274 16.6274 53.7946 0.0000 0.0000 0.0000
# 4 0.0000 0.0000 0.0000 15.7286 0.0000 0.0000
# 5 0.0000 0.0000 0.0000 0.0000 15.7286 0.0000
# 6 0.0000 0.0000 0.0000 0.0000 0.0000 28.6068
#
#
#
# Elastic Compliance Matrix: (Units=1/GPa)
#
#
# Indices 1 2 3 4 5 6 
#
# 1 0.019882 -0.010570 -0.002878 0.000000 0.000000 0.000000
# 2 -0.010570 0.019882 -0.002878 0.000000 0.000000 0.000000
# 3 -0.002878 -0.002878 0.020368 0.000000 0.000000 0.000000
# 4 0.000000 0.000000 0.000000 0.063579 0.000000 0.000000
# 5 0.000000 0.000000 0.000000 0.000000 0.063579 0.000000
# 6 0.000000 0.000000 0.000000 0.000000 0.000000 0.034957
#
#
# Mechanical properties :
#
#
# Convention : Reuss Voigt Hill
#
# Bulk Modulus (GPa) = 36.39106 39.51599 37.95353
# Shear Modulus (GPa) = 18.93516 20.58828 19.76172
#
# Velocity S-wave (km/s) = 3.26923 3.40895 3.33982
# Velocity P-wave (km/s) = 5.89840 6.14810 6.02454
#
# Compressibility (1/GPa) = 0.02747928
#
# Stress axis : x y z
#
# Youngs Moduli (GPa) = 50.29702 50.29702 49.09548
#
# Poissons Ratio (x) = 0.53165 0.14131
# Poissons Ratio (y) = 0.53165 0.14131
# Poissons Ratio (z) = 0.14476 0.14476
#
# Static dielectric constant tensor:
#      x y z
#    x 3.369440 0.000000 0.000000 
#    y 0.000000 3.369440 0.000000 
#    z 0.000000 0.000000 3.073070 
# 
# 
# High freq. dielectric constant tensor:
#      x y z
#    x 1.685660 0.000000 0.000000 
#    y 0.000000 1.685660 0.000000 
#    z 0.000000 0.000000 1.646930 
# 
# From -- ./inp_files/1588.got.cif
#   From: 2010.03.12/outbox.cif.g09.slc.cpg/sg99_cif.got.tgz:1588.got - 2010.04.08 21:11:30.
