data_PCOD8306772
_publ_section_title
;
Structure prediction by ZEFSAII (Michael W. Deem and Ramdas Pophale) SiO2 
 PCOD8306772
Probable space group: P 42 C M
;
_chemical_formula_sum "Si O2"
_cell_formula_units_Z 48
_cell_length_a 11.215647
_cell_length_b 11.215647
_cell_length_c 18.290015
_cell_angle_alpha 90.000000
_cell_angle_beta 90.000000
_cell_angle_gamma 90.000000
_cell_volume 2300.714478
_symmetry_space_group_name_H-M "P 42 C M"
_symmetry_group_IT_number 101
_symmetry_cell_setting 'tetragonal'
loop_
_space_group_symop_operation_xyz
x,y,z
-y,x,1/2+z
-x,-y,z
y,-x,1/2+z
-x,y,1/2+z
x,-y,1/2+z
-y,-x,z
y,x,z
loop_
_atom_site_type_symbol
_atom_site_label
_atom_site_fract_x
_atom_site_fract_y
_atom_site_fract_z
Si Si1 0.187224 0.005364 0.511290
Si Si2 0.962114 0.326555 0.883226
Si Si3 0.382049 0.189657 0.248562
Si Si4 0.360658 0.160296 0.084660
Si Si5 0.406984 0.780943 0.347690
Si Si6 0.441206 0.243298 0.477276
O O1 0.087787 0.912214 0.534548
O O2 0.310575 0.963566 0.550124
O O3 0.202622 0.001262 0.422331
O O4 0.137305 0.137305 0.535272
O O5 0.898178 0.313588 0.805033
O O6 0.872863 0.377273 0.944788
O O7 0.081672 0.403163 0.872898
O O8 0.313798 0.313798 0.244611
O O9 0.386499 0.129698 0.169198
O O10 0.515477 0.220877 0.274071
O O11 0.264821 0.264821 0.074269
O O12 0.483330 0.204274 0.048045
O O13 0.278443 0.721558 0.331826
O O14 0.471336 0.708487 0.413080
O O15 0.346722 0.346722 0.498359
#
# Coordination Sequence:
#
# PCOD8306772 Si02
#       6
#     8   8   8   8   8   8
#     4  10  20  37  63  91 121 161 208 258 313 378
#     4  11  21  40  60  89 119 156 204 258 304 363
#     4  10  22  40  62  87 122 163 204 252 310 380
#     4  10  22  40  61  90 127 165 207 263 327 386
#     4  11  22  38  60  90 124 165 211 254 310 369
#     4  11  22  37  62  92 122 159 210 261 312 379
#
# _framework density 20.863081999999999
#
# number of rings (size 3 to 8) (size 9 to 14) (size 15 to 20)
#    0.000    1.500    1.667    6.000    0.000    3.000 
#    6.000    3.333    0.000    4.000    0.000    0.000 
#    0.000    0.000    0.000    0.000    0.000    0.000 
#
# Total GULP energy -594724.040117 kJ/mol
# GULP energy per Si atom -12390.084169 kJ/mol
# Density = 2.081560 g / cm^3
# Si number density = 20.863082 Si / 1000 Ang^3
#
#
#
# Elastic Constant Matrix: (Units=GPa)
#
#
# Indices 1 2 3 4 5 6 
#
# 1 102.4168 56.4445 54.4472 0.0000 0.0000 0.0000
# 2 56.4445 102.4168 54.4472 0.0000 0.0000 0.0000
# 3 54.4472 54.4472 157.3414 0.0000 0.0000 0.0000
# 4 0.0000 0.0000 0.0000 25.4505 0.0000 0.0000
# 5 0.0000 0.0000 0.0000 0.0000 25.4505 0.0000
# 6 0.0000 0.0000 0.0000 0.0000 0.0000 37.8557
#
#
#
# Elastic Compliance Matrix: (Units=1/GPa)
#
#
# Indices 1 2 3 4 5 6 
#
# 1 0.015002 -0.006750 -0.002856 0.000000 0.000000 0.000000
# 2 -0.006750 0.015002 -0.002856 0.000000 0.000000 0.000000
# 3 -0.002856 -0.002856 0.008332 0.000000 0.000000 0.000000
# 4 0.000000 0.000000 0.000000 0.039292 0.000000 0.000000
# 5 0.000000 0.000000 0.000000 0.000000 0.039292 0.000000
# 6 0.000000 0.000000 0.000000 0.000000 0.000000 0.026416
#
#
# Mechanical properties :
#
#
# Convention : Reuss Voigt Hill
#
# Bulk Modulus (GPa) = 74.54964 76.98365 75.76664
# Shear Modulus (GPa) = 28.94681 30.87372 29.91026
#
# Velocity S-wave (km/s) = 3.72891 3.85102 3.79046
# Velocity P-wave (km/s) = 7.37225 7.53349 7.45330
#
# Compressibility (1/GPa) = 0.01341388
#
# Stress axis : x y z
#
# Youngs Moduli (GPa) = 66.65663 66.65663 120.01960
#
# Poissons Ratio (x) = 0.44993 0.34273
# Poissons Ratio (y) = 0.44993 0.34273
# Poissons Ratio (z) = 0.19035 0.19035
#
# Static dielectric constant tensor:
#      x y z
#    x 3.974980 0.000000 0.000000 
#    y 0.000000 3.974980 0.000000 
#    z 0.000000 0.000000 3.808070 
# 
# 
# High freq. dielectric constant tensor:
#      x y z
#    x 1.818590 0.000000 0.000000 
#    y 0.000000 1.818590 0.000000 
#    z 0.000000 0.000000 1.800390 
# 
# From -- ./inp_files/2146.got.cif
#   From: 2010.03.12/outbox.cif.g09.slc.cpg/sg101_2_cif.got.tgz:2146.got - 2010.04.14 01:38:52.
