data_PCOD8306970
_publ_section_title
;
Structure prediction by ZEFSAII (Michael W. Deem and Ramdas Pophale) SiO2 
 PCOD8306970
Probable space group: P 4 C C
;
_chemical_formula_sum "Si O2"
_cell_formula_units_Z 40
_cell_length_a 11.590266
_cell_length_b 11.590266
_cell_length_c 14.976716
_cell_angle_alpha 90.000000
_cell_angle_beta 90.000000
_cell_angle_gamma 90.000000
_cell_volume 2011.886150
_symmetry_space_group_name_H-M "P 4 C C"
_symmetry_group_IT_number 103
_symmetry_cell_setting 'tetragonal'
loop_
_space_group_symop_operation_xyz
x,y,z
-y,x,z
-x,-y,z
y,-x,z
-x,y,1/2+z
x,-y,1/2+z
-y,-x,1/2+z
y,x,1/2+z
loop_
_atom_site_type_symbol
_atom_site_label
_atom_site_fract_x
_atom_site_fract_y
_atom_site_fract_z
Si Si1 0.602143 0.226393 0.796720
Si Si2 0.998075 0.637536 0.705947
Si Si3 0.541459 0.681004 0.109837
Si Si4 0.179565 0.644731 0.848678
Si Si5 0.393529 0.078665 0.023786
O O1 0.671988 0.113377 0.763592
O O2 0.548755 0.299432 0.715840
O O3 0.494047 0.191994 0.858669
O O4 0.694570 0.299166 0.852833
O O5 0.984653 0.681873 0.602880
O O6 0.000000 0.500000 0.696152
O O7 0.113733 0.680643 0.756257
O O8 0.414196 0.636740 0.083912
O O9 0.562008 0.798470 0.058409
O O10 0.103451 0.683156 0.935013
O O11 0.500000 0.000000 0.994081
#
# Coordination Sequence:
#
# PCOD8306970 Si02
#       5
#     8   8   8   8   8
#     4  10  19  33  56  78 113 155 189 234 293 340
#     4   8  18  37  53  75 109 151 196 234 285 340
#     4  10  20  35  52  81 122 159 190 232 295 355
#     4  11  21  35  56  85 117 149 202 239 292 357
#     4  10  21  35  55  79 112 158 198 245 281 345
#
# _framework density 19.88184
#
# number of rings (size 3 to 8) (size 9 to 14) (size 15 to 20)
#    0.000    2.200    2.000    3.000    2.800    0.400 
#    0.000    0.000    0.000    0.600    0.000    0.000 
#    0.000    5.600    0.000    0.000    0.000    0.000 
#
# Total GULP energy -495727.250478 kJ/mol
# GULP energy per Si atom -12393.181262 kJ/mol
# Density = 1.983659 g / cm^3
# Si number density = 19.881840 Si / 1000 Ang^3
#
#
#
# Elastic Constant Matrix: (Units=GPa)
#
#
# Indices 1 2 3 4 5 6 
#
# 1 69.2122 24.7467 29.9660 0.0000 0.0000 0.0000
# 2 24.7467 69.2122 29.9660 0.0000 0.0000 0.0000
# 3 29.9660 29.9660 120.0432 0.0000 0.0000 0.0000
# 4 0.0000 0.0000 0.0000 24.5125 0.0000 0.0000
# 5 0.0000 0.0000 0.0000 0.0000 24.5125 0.0000
# 6 0.0000 0.0000 0.0000 0.0000 0.0000 8.2483
#
#
#
# Elastic Compliance Matrix: (Units=1/GPa)
#
#
# Indices 1 2 3 4 5 6 
#
# 1 0.017574 -0.004915 -0.003160 0.000000 0.000000 0.000000
# 2 -0.004915 0.017574 -0.003160 0.000000 0.000000 0.000000
# 3 -0.003160 -0.003160 0.009908 0.000000 0.000000 0.000000
# 4 0.000000 0.000000 0.000000 0.040795 0.000000 0.000000
# 5 0.000000 0.000000 0.000000 0.000000 0.040795 0.000000
# 6 0.000000 0.000000 0.000000 0.000000 0.000000 0.121237
#
#
# Mechanical properties :
#
#
# Convention : Reuss Voigt Hill
#
# Bulk Modulus (GPa) = 44.27654 47.53612 45.90633
# Shear Modulus (GPa) = 17.99318 23.04059 20.51688
#
# Velocity S-wave (km/s) = 3.01160 3.40792 3.21587
# Velocity P-wave (km/s) = 5.86610 6.28064 6.07691
#
# Compressibility (1/GPa) = 0.02258532
#
# Stress axis : x y z
#
# Youngs Moduli (GPa) = 56.90247 56.90247 100.92933
#
# Poissons Ratio (x) = 0.27970 0.31893
# Poissons Ratio (y) = 0.27970 0.31893
# Poissons Ratio (z) = 0.17981 0.17981
#
# Static dielectric constant tensor:
#      x y z
#    x 3.466370 0.000000 0.000000 
#    y 0.000000 3.466370 0.000000 
#    z 0.000000 0.000000 3.922790 
# 
# 
# High freq. dielectric constant tensor:
#      x y z
#    x 1.743130 0.000000 0.000000 
#    y 0.000000 1.743130 0.000000 
#    z 0.000000 0.000000 1.785740 
# 
# From -- ./inp_files/793.got.cif
#   From: 2010.03.12/outbox.cif.g09.slc.cpg/sg103_cif.got.tgz:793.got - 2010.04.14 01:42:52.
