data_PCOD8306125
_publ_section_title
;
Structure prediction by ZEFSAII (Michael W. Deem and Ramdas Pophale) SiO2 
 PCOD8306125
Probable space group: I 4 2 2 
;
_chemical_formula_sum "Si O2"
_cell_formula_units_Z 84
_cell_length_a 12.055830
_cell_length_b 12.055830
_cell_length_c 26.749593
_cell_angle_alpha 90.000000
_cell_angle_beta 90.000000
_cell_angle_gamma 90.000000
_cell_volume 3887.867085
_symmetry_space_group_name_H-M "I 4 2 2 "
_symmetry_group_IT_number 97
_symmetry_cell_setting 'tetragonal'
loop_
_space_group_symop_operation_xyz
x,y,z
-y,x,z
-x,-y,z
y,-x,z
x,-y,-z
-x,y,-z
y,x,-z
-y,-x,-z
1/2+x,1/2+y,1/2+z
1/2-y,1/2+x,1/2+z
1/2-x,1/2-y,1/2+z
1/2+y,1/2-x,1/2+z
1/2+x,1/2-y,1/2-z
1/2-x,1/2+y,1/2-z
1/2+y,1/2+x,1/2-z
1/2-y,1/2-x,1/2-z
loop_
_atom_site_type_symbol
_atom_site_label
_atom_site_fract_x
_atom_site_fract_y
_atom_site_fract_z
Si Si1 0.632510 0.378056 0.942839
Si Si2 0.500000 0.000000 0.665684
Si Si3 0.040111 0.665626 0.078534
Si Si4 0.681078 0.264494 0.404100
Si Si5 0.336561 0.417497 0.302336
Si Si6 0.500000 0.000000 0.500000
Si Si7 0.875050 0.375050 0.750000
O O1 0.653664 0.506409 0.931859
O O2 0.711378 0.313803 0.904407
O O3 0.657212 0.342789 0.000000
O O4 0.451591 0.900098 0.631435
O O5 0.593783 0.947843 0.701409
O O6 0.115608 0.776046 0.077778
O O7 0.916615 0.708891 0.062854
O O8 0.076685 0.577678 0.035634
O O9 0.622329 0.270288 0.350738
O O10 0.451124 0.352758 0.301130
O O11 0.256969 0.391771 0.255973
#
# Coordination Sequence:
#
# PCOD8306125 Si02
#       7
#    16   8  16  16  16   4   8
#     4   9  22  41  63  93 129 176 235 296 355 407
#     4  10  22  44  64 104 136 172 232 294 344 422
#     4  11  26  42  68 101 140 188 236 291 351 415
#     4  12  23  40  66  95 134 188 223 284 352 422
#     4  11  24  45  67  98 137 177 225 282 352 426
#     4  10  28  46  64 100 142 182 252 302 334 400
#     4  11  22  42  74  99 130 182 228 287 358 426
#
# _framework density 21.605675000000002
#
# number of rings (size 3 to 8) (size 9 to 14) (size 15 to 20)
#    0.000    1.333    3.810    0.571    8.000    3.429 
#    0.000    0.000    0.000    3.429    0.000    0.000 
#    0.000    0.000    0.000    0.000    0.000    0.000 
#
# Total GULP energy -520577.371020 kJ/mol
# GULP energy per Si atom -12394.699310 kJ/mol
# Density = 2.155650 g / cm^3
# Si number density = 21.605675 Si / 1000 Ang^3
#
#
#
# Elastic Constant Matrix: (Units=GPa)
#
#
# Indices 1 2 3 4 5 6 
#
# 1 109.8045 111.8337 55.9821 0.0000 0.0000 0.0000
# 2 111.8337 109.7999 55.9845 0.0000 0.0000 0.0000
# 3 55.9821 55.9845 103.2094 0.0000 0.0000 0.0000
# 4 0.0000 0.0000 0.0000 30.7885 0.0000 0.0000
# 5 0.0000 0.0000 0.0000 0.0000 30.7885 0.0000
# 6 0.0000 0.0000 0.0000 0.0000 0.0000 40.9142
#
#
#
# Elastic Compliance Matrix: (Units=1/GPa)
#
#
# Indices 1 2 3 4 5 6 
#
# 1 -0.243012 0.249238 -0.003383 0.000000 0.000000 0.000000
# 2 0.249238 -0.243034 -0.003360 0.000000 0.000000 0.000000
# 3 -0.003383 -0.003360 0.013346 0.000000 0.000000 0.000000
# 4 0.000000 0.000000 0.000000 0.032480 0.000000 0.000000
# 5 0.000000 0.000000 0.000000 0.000000 0.032480 0.000000
# 6 0.000000 0.000000 0.000000 0.000000 0.000000 0.024441
#
#
# Mechanical properties :
#
#
# Convention : Reuss Voigt Hill
#
# Bulk Modulus (GPa) = 81.35669 85.60160 83.47915
# Shear Modulus (GPa) = -5.78573 27.09915 10.65671
#
# Velocity S-wave (km/s) = -1.63820 3.54540 2.22330
# Velocity P-wave (km/s) = 5.84455 7.51437 6.73144
#
# Compressibility (1/GPa) = 0.01229155
#
# Stress axis : x y z
#
# Youngs Moduli (GPa) = -4.11501 -4.11465 74.92764
#
# Poissons Ratio (x) = 1.02553 0.25345
# Poissons Ratio (y) = 1.02562 0.25173
# Poissons Ratio (z) = -0.01392 -0.01382
#
# Static dielectric constant tensor:
#      x y z
#    x 4.014430 0.000000 0.000000 
#    y 0.000000 4.014430 0.000000 
#    z 0.000000 0.000000 3.805210 
# 
# 
# High freq. dielectric constant tensor:
#      x y z
#    x 1.857730 0.000000 0.000000 
#    y 0.000000 1.857730 0.000000 
#    z 0.000000 0.000000 1.829530 
# 
# From -- ./inp_files/8111.got.cif
#   From: 2010.03.12/outbox.cif.g09.slc.cpg/sg97_5_cif.got.tgz:8111.got - 2010.04.08 20:59:42.
