data_PCOD8306805
_publ_section_title
;
Structure prediction by ZEFSAII (Michael W. Deem and Ramdas Pophale) SiO2 
 PCOD8306805
Probable space group: P 42 C M
;
_chemical_formula_sum "Si O2"
_cell_formula_units_Z 36
_cell_length_a 14.471556
_cell_length_b 14.471556
_cell_length_c 8.742288
_cell_angle_alpha 90.000000
_cell_angle_beta 90.000000
_cell_angle_gamma 90.000000
_cell_volume 1830.861821
_symmetry_space_group_name_H-M "P 42 C M"
_symmetry_group_IT_number 101
_symmetry_cell_setting 'tetragonal'
loop_
_space_group_symop_operation_xyz
x,y,z
-y,x,1/2+z
-x,-y,z
y,-x,1/2+z
-x,y,1/2+z
x,-y,1/2+z
-y,-x,z
y,x,z
loop_
_atom_site_type_symbol
_atom_site_label
_atom_site_fract_x
_atom_site_fract_y
_atom_site_fract_z
Si Si1 0.747853 0.105901 0.147410
Si Si2 0.500000 0.000000 0.467268
Si Si3 0.752148 0.394098 0.287124
Si Si4 0.318364 0.063694 0.319219
Si Si5 0.563694 0.818365 0.115317
O O1 0.846185 0.153816 0.182787
O O2 0.665688 0.165688 0.217266
O O3 0.747127 0.003775 0.220331
O O4 0.736735 0.099526 0.965156
O O5 0.409249 0.005376 0.363678
O O6 0.505376 0.090750 0.570858
O O7 0.653817 0.346184 0.251749
O O8 0.763266 0.400474 0.469378
O O9 0.752874 0.496225 0.214205
O O10 0.348050 0.151949 0.217267
#
# Coordination Sequence:
#
# PCOD8306805 Si02
#       5
#     8   4   8   8   8
#     4  11  22  36  56  89 122 148 191 248 294 337
#     4  12  18  28  58  92 106 152 186 232 266 364
#     4  11  22  36  56  89 122 148 191 248 294 337
#     4  12  20  35  60  86 119 156 193 233 291 351
#     4  12  20  35  60  86 119 156 193 233 291 351
#
# _framework density 19.662870999999999
#
# number of rings (size 3 to 8) (size 9 to 14) (size 15 to 20)
#    0.000    0.444    8.889    0.667    0.000    0.889 
#    0.000    2.222    0.000    4.000    0.000    0.000 
#    0.000    0.000    0.000    0.000    0.000    0.000 
#
# Total GULP energy -446497.127233 kJ/mol
# GULP energy per Si atom -12402.697979 kJ/mol
# Density = 1.961812 g / cm^3
# Si number density = 19.662871 Si / 1000 Ang^3
#
#
#
# Elastic Constant Matrix: (Units=GPa)
#
#
# Indices 1 2 3 4 5 6 
#
# 1 54.0265 52.8589 30.3071 0.0000 0.0000 0.0000
# 2 52.8589 54.0265 30.3071 0.0000 0.0000 0.0000
# 3 30.3071 30.3071 126.3543 0.0000 0.0000 0.0000
# 4 0.0000 0.0000 0.0000 6.7600 0.0000 0.0000
# 5 0.0000 0.0000 0.0000 0.0000 6.7600 0.0000
# 6 0.0000 0.0000 0.0000 0.0000 0.0000 45.9393
#
#
#
# Elastic Compliance Matrix: (Units=1/GPa)
#
#
# Indices 1 2 3 4 5 6 
#
# 1 0.433636 -0.422807 -0.002597 0.000000 0.000000 0.000000
# 2 -0.422807 0.433636 -0.002597 0.000000 0.000000 0.000000
# 3 -0.002597 -0.002597 0.009160 0.000000 0.000000 0.000000
# 4 0.000000 0.000000 0.000000 0.147928 0.000000 0.000000
# 5 0.000000 0.000000 0.000000 0.000000 0.147928 0.000000
# 6 0.000000 0.000000 0.000000 0.000000 0.000000 0.021768
#
#
# Mechanical properties :
#
#
# Convention : Reuss Voigt Hill
#
# Bulk Modulus (GPa) = 48.95165 51.26149 50.10657
# Shear Modulus (GPa) = 2.43088 19.95416 11.19252
#
# Velocity S-wave (km/s) = 1.11309 3.18907 2.38842
# Velocity P-wave (km/s) = 5.15766 6.29976 5.75710
#
# Compressibility (1/GPa) = 0.02042832
#
# Stress axis : x y z
#
# Youngs Moduli (GPa) = 2.30608 2.30608 109.16733
#
# Poissons Ratio (x) = 0.97503 0.28355
# Poissons Ratio (y) = 0.97503 0.28355
# Poissons Ratio (z) = 0.00599 0.00599
#
# Static dielectric constant tensor:
#      x y z
#    x 3.366530 0.000000 0.000000 
#    y 0.000000 3.366530 0.000000 
#    z 0.000000 0.000000 3.812480 
# 
# 
# High freq. dielectric constant tensor:
#      x y z
#    x 1.736200 0.000000 0.000000 
#    y 0.000000 1.736200 0.000000 
#    z 0.000000 0.000000 1.788170 
# 
# From -- ./inp_files/521.got.cif
#   From: 2010.03.12/outbox.cif.g09.slc.cpg/sg101_1_cif.got.tgz:521.got - 2010.04.14 01:38:52.
