data_PCOD8306977
_publ_section_title
;
Structure prediction by ZEFSAII (Michael W. Deem and Ramdas Pophale) SiO2 
 PCOD8306977
Probable space group: P 4 C C
;
_chemical_formula_sum "Si O2"
_cell_formula_units_Z 48
_cell_length_a 17.423948
_cell_length_b 17.423948
_cell_length_c 8.826273
_cell_angle_alpha 90.000000
_cell_angle_beta 90.000000
_cell_angle_gamma 90.000000
_cell_volume 2679.603207
_symmetry_space_group_name_H-M "P 4 C C"
_symmetry_group_IT_number 103
_symmetry_cell_setting 'tetragonal'
loop_
_space_group_symop_operation_xyz
x,y,z
-y,x,z
-x,-y,z
y,-x,z
-x,y,1/2+z
x,-y,1/2+z
-y,-x,1/2+z
y,x,1/2+z
loop_
_atom_site_type_symbol
_atom_site_label
_atom_site_fract_x
_atom_site_fract_y
_atom_site_fract_z
Si Si1 0.586447 0.922538 0.618210
Si Si2 0.419253 0.081842 0.255500
Si Si3 0.698725 0.803174 0.766941
Si Si4 0.195195 0.693338 0.106535
Si Si5 0.076805 0.829692 0.773338
Si Si6 0.933952 0.821168 0.603245
O O1 0.581135 0.926519 0.436797
O O2 0.504707 0.907842 0.694229
O O3 0.639450 0.850986 0.664969
O O4 0.617797 0.004562 0.681363
O O5 0.374996 0.159020 0.205970
O O6 0.725572 0.724616 0.682438
O O7 0.775331 0.850820 0.789532
O O8 0.664821 0.785531 0.934912
O O9 0.131494 0.758388 0.100994
O O10 0.103459 0.908213 0.694963
O O11 0.010864 0.787052 0.677497
O O12 0.043332 0.848991 0.936912
#
# Coordination Sequence:
#
# PCOD8306977 Si02
#       6
#     8   8   8   8   8   8
#     4  11  21  34  52  75 103 135 170 210 254 303
#     4  11  21  34  52  75 103 135 170 210 254 303
#     4  10  20  34  51  72  97 127 161 199 243 294
#     4  10  20  34  51  72  97 127 161 199 243 294
#     4  10  20  32  46  62  83 111 148 191 236 282
#     4  10  20  32  46  62  83 111 148 191 236 282
#
# _framework density 17.913101000000001
#
# number of rings (size 3 to 8) (size 9 to 14) (size 15 to 20)
#    0.000    1.667    0.000    7.000    0.000    7.000 
#    0.000    1.667    0.000    0.000    0.000    0.000 
#    0.000    0.667    0.000    6.667    0.000    4.000 
#
# Total GULP energy -594970.317278 kJ/mol
# GULP energy per Si atom -12395.214943 kJ/mol
# Density = 1.787233 g / cm^3
# Si number density = 17.913101 Si / 1000 Ang^3
#
#
#
# Elastic Constant Matrix: (Units=GPa)
#
#
# Indices 1 2 3 4 5 6 
#
# 1 52.8597 16.9747 23.2959 0.0000 0.0000 0.0000
# 2 16.9747 52.8597 23.2959 0.0000 0.0000 0.0000
# 3 23.2959 23.2959 156.4462 0.0000 0.0000 0.0000
# 4 0.0000 0.0000 0.0000 26.7225 0.0000 0.0000
# 5 0.0000 0.0000 0.0000 0.0000 26.7225 0.0000
# 6 0.0000 0.0000 0.0000 0.0000 0.0000 31.1471
#
#
#
# Elastic Compliance Matrix: (Units=1/GPa)
#
#
# Indices 1 2 3 4 5 6 
#
# 1 0.021883 -0.005984 -0.002367 0.000000 0.000000 0.000000
# 2 -0.005984 0.021883 -0.002367 0.000000 0.000000 0.000000
# 3 -0.002367 -0.002367 0.007097 0.000000 0.000000 0.000000
# 4 0.000000 0.000000 0.000000 0.037422 0.000000 0.000000
# 5 0.000000 0.000000 0.000000 0.000000 0.037422 0.000000
# 6 0.000000 0.000000 0.000000 0.000000 0.000000 0.032106
#
#
# Mechanical properties :
#
#
# Convention : Reuss Voigt Hill
#
# Bulk Modulus (GPa) = 33.98432 43.25538 38.61985
# Shear Modulus (GPa) = 26.44691 30.15836 28.30263
#
# Velocity S-wave (km/s) = 3.84656 4.10761 3.97923
# Velocity P-wave (km/s) = 6.22423 6.83348 6.53596
#
# Compressibility (1/GPa) = 0.02942533
#
# Stress axis : x y z
#
# Youngs Moduli (GPa) = 45.69772 45.69772 140.90377
#
# Poissons Ratio (x) = 0.27345 0.33359
# Poissons Ratio (y) = 0.27345 0.33359
# Poissons Ratio (z) = 0.10819 0.10819
#
# Static dielectric constant tensor:
#      x y z
#    x 3.150960 0.000000 0.000000 
#    y 0.000000 3.150960 0.000000 
#    z 0.000000 0.000000 3.792840 
# 
# 
# High freq. dielectric constant tensor:
#      x y z
#    x 1.662640 0.000000 0.000000 
#    y 0.000000 1.662640 0.000000 
#    z 0.000000 0.000000 1.721980 
# 
# From -- ./inp_files/262.got.cif
#   From: 2010.03.12/outbox.cif.g09.slc.cpg/sg103_cif.got.tgz:262.got - 2010.04.14 01:42:52.
