data_PCOD8306705
_publ_section_title
;
Structure prediction by ZEFSAII (Michael W. Deem and Ramdas Pophale) SiO2 
 PCOD8306705
Probable space group: P 42 C M
;
_chemical_formula_sum "Si O2"
_cell_formula_units_Z 48
_cell_length_a 11.252610
_cell_length_b 11.252610
_cell_length_c 18.836241
_cell_angle_alpha 90.000000
_cell_angle_beta 90.000000
_cell_angle_gamma 90.000000
_cell_volume 2385.068038
_symmetry_space_group_name_H-M "P 42 C M"
_symmetry_group_IT_number 101
_symmetry_cell_setting 'tetragonal'
loop_
_space_group_symop_operation_xyz
x,y,z
-y,x,1/2+z
-x,-y,z
y,-x,1/2+z
-x,y,1/2+z
x,-y,1/2+z
-y,-x,z
y,x,z
loop_
_atom_site_type_symbol
_atom_site_label
_atom_site_fract_x
_atom_site_fract_y
_atom_site_fract_z
Si Si1 0.352395 0.837096 0.635850
Si Si2 0.739443 0.557566 0.882555
Si Si3 0.366394 0.027088 0.519697
Si Si4 0.599601 0.900367 0.296516
Si Si5 0.458426 0.269798 0.538036
Si Si6 0.938869 0.750926 0.883971
O O1 0.225203 0.774798 0.630966
O O2 0.383204 0.864135 0.716258
O O3 0.452957 0.751487 0.603382
O O4 0.345723 0.960083 0.593562
O O5 0.610990 0.610990 0.857082
O O6 0.781063 0.440231 0.839589
O O7 0.834419 0.659567 0.869215
O O8 0.729148 0.532406 0.965790
O O9 0.358049 0.167005 0.535181
O O10 0.500000 0.000000 0.489386
O O11 0.266887 0.988491 0.463575
O O12 0.500000 0.000000 0.304217
O O13 0.722933 0.953020 0.329166
O O14 0.395359 0.395359 0.550419
O O15 0.885243 0.885243 0.875575
#
# Coordination Sequence:
#
# PCOD8306705 Si02
#       6
#     8   8   8   8   8   8
#     4  11  23  38  60  86 118 158 200 248 304 364
#     4  10  19  33  56  87 122 159 202 250 301 363
#     4  10  17  35  60  86 113 153 202 243 290 351
#     4  10  20  37  55  87 120 158 207 252 306 365
#     4  11  22  36  58  89 123 157 200 248 304 366
#     4  10  17  32  62  90 113 148 204 257 300 359
#
# _framework density 20.125211
#
# number of rings (size 3 to 8) (size 9 to 14) (size 15 to 20)
#    0.000    1.667    5.000    3.000    0.000    2.667 
#    0.000    4.167    0.000    4.500    0.000    0.000 
#    0.000    0.000    0.000    0.000    0.000    0.000 
#
# Total GULP energy -594981.293521 kJ/mol
# GULP energy per Si atom -12395.443615 kJ/mol
# Density = 2.007941 g / cm^3
# Si number density = 20.125211 Si / 1000 Ang^3
#
#
#
# Elastic Constant Matrix: (Units=GPa)
#
#
# Indices 1 2 3 4 5 6 
#
# 1 57.0197 54.7910 46.0402 0.0000 0.0000 0.0009
# 2 54.7910 57.0197 46.0402 0.0000 0.0000 -0.0009
# 3 46.0402 46.0402 152.2587 0.0000 0.0000 0.0000
# 4 0.0000 0.0000 0.0000 15.3475 0.0000 0.0000
# 5 0.0000 0.0000 0.0000 0.0000 15.3475 0.0000
# 6 0.0009 -0.0009 0.0000 0.0000 0.0000 18.9508
#
#
#
# Elastic Compliance Matrix: (Units=1/GPa)
#
#
# Indices 1 2 3 4 5 6 
#
# 1 0.230307 -0.218398 -0.003601 0.000000 0.000000 -0.000021
# 2 -0.218398 0.230307 -0.003601 0.000000 0.000000 0.000021
# 3 -0.003601 -0.003601 0.008746 0.000000 0.000000 0.000000
# 4 0.000000 0.000000 0.000000 0.065157 0.000000 0.000000
# 5 0.000000 0.000000 0.000000 0.000000 0.065157 0.000000
# 6 -0.000021 0.000021 0.000000 0.000000 0.000000 0.052768
#
#
# Mechanical properties :
#
#
# Convention : Reuss Voigt Hill
#
# Bulk Modulus (GPa) = 55.06697 62.22675 58.64686
# Shear Modulus (GPa) = 4.50574 17.89095 11.19834
#
# Velocity S-wave (km/s) = 1.49790 2.98481 2.36144
# Velocity P-wave (km/s) = 5.51482 6.54719 6.05305
#
# Compressibility (1/GPa) = 0.01815971
#
# Stress axis : x y z
#
# Youngs Moduli (GPa) = 4.34203 4.34203 114.34290
#
# Poissons Ratio (x) = 0.94829 0.41177
# Poissons Ratio (y) = 0.94829 0.41177
# Poissons Ratio (z) = 0.01564 0.01564
#
# Static dielectric constant tensor:
#      x y z
#    x 3.260630 0.000000 0.000000 
#    y 0.000000 3.260630 0.000000 
#    z 0.000000 0.000000 3.631910 
# 
# 
# High freq. dielectric constant tensor:
#      x y z
#    x 1.773080 0.000000 0.000000 
#    y 0.000000 1.773080 0.000000 
#    z 0.000000 0.000000 1.776380 
# 
# From -- ./inp_files/2143.got.cif
#   From: 2010.03.12/outbox.cif.g09.slc.cpg/sg101_2_cif.got.tgz:2143.got - 2010.04.14 01:38:52.
