data_PCOD8306934
_publ_section_title
;
Structure prediction by ZEFSAII (Michael W. Deem and Ramdas Pophale) SiO2 
 PCOD8306934
Probable space group: P 42 N M
;
_chemical_formula_sum "Si O2"
_cell_formula_units_Z 40
_cell_length_a 15.745234
_cell_length_b 15.745234
_cell_length_c 7.494401
_cell_angle_alpha 90.000000
_cell_angle_beta 90.000000
_cell_angle_gamma 90.000000
_cell_volume 1857.954891
_symmetry_space_group_name_H-M "P 42 N M"
_symmetry_group_IT_number 102
_symmetry_cell_setting 'tetragonal'
loop_
_space_group_symop_operation_xyz
x,y,z
1/2-y,1/2+x,1/2+z
-x,-y,z
1/2+y,1/2-x,1/2+z
1/2-x,1/2+y,1/2+z
1/2+x,1/2-y,1/2+z
-y,-x,z
y,x,z
loop_
_atom_site_type_symbol
_atom_site_label
_atom_site_fract_x
_atom_site_fract_y
_atom_site_fract_z
Si Si1 1.000000 0.736172 0.384820
Si Si2 0.182357 0.679881 0.345902
Si Si3 0.057088 0.192612 0.036016
Si Si4 0.817643 0.679880 0.423740
Si Si5 0.442912 0.307388 0.233624
O O1 0.913998 0.682907 0.352832
O O2 0.086002 0.682907 0.416810
O O3 0.994384 0.790484 0.566638
O O4 0.005616 0.790484 0.203002
O O5 0.235389 0.764612 0.399251
O O6 0.224158 0.598396 0.440996
O O7 0.174343 0.674344 0.134821
O O8 0.129729 0.129729 0.103633
O O9 0.000000 0.148001 0.884820
O O10 0.764611 0.764611 0.370391
O O11 0.775843 0.598395 0.328645
O O12 0.370270 0.370270 0.166009
#
# Coordination Sequence:
#
# PCOD8306934 Si02
#       5
#     8   8   8   8   8
#     4  12  22  38  69  95 122 164 222 264 312 383
#     4  10  21  41  67  92 125 172 215 259 322 388
#     4  11  24  42  65  94 130 170 213 265 323 388
#     4  10  21  41  67  92 125 172 215 259 322 388
#     4  11  24  42  65  94 130 170 213 265 323 388
#
# _framework density 21.529048
#
# number of rings (size 3 to 8) (size 9 to 14) (size 15 to 20)
#    0.000    1.200    4.000    2.400    0.000    5.200 
#    0.000    1.000    0.000    5.400    0.000    0.000 
#    0.000    0.000    0.000    0.000    0.000    0.000 
#
# Total GULP energy -495724.869510 kJ/mol
# GULP energy per Si atom -12393.121738 kJ/mol
# Density = 2.148005 g / cm^3
# Si number density = 21.529048 Si / 1000 Ang^3
#
#
#
# Elastic Constant Matrix: (Units=GPa)
#
#
# Indices 1 2 3 4 5 6 
#
# 1 82.8833 7.6279 21.1793 0.0000 0.0000 -0.0001
# 2 7.6279 82.8833 21.1793 0.0000 0.0000 0.0001
# 3 21.1793 21.1793 150.6759 0.0000 0.0000 0.0000
# 4 0.0000 0.0000 0.0000 30.9472 0.0000 0.0000
# 5 0.0000 0.0000 0.0000 0.0000 30.9472 0.0000
# 6 -0.0001 0.0001 0.0000 0.0000 0.0000 11.8408
#
#
#
# Elastic Compliance Matrix: (Units=1/GPa)
#
#
# Indices 1 2 3 4 5 6 
#
# 1 0.012557 -0.000731 -0.001662 0.000000 0.000000 0.000000
# 2 -0.000731 0.012557 -0.001662 0.000000 0.000000 0.000000
# 3 -0.001662 -0.001662 0.007104 0.000000 0.000000 0.000000
# 4 0.000000 0.000000 0.000000 0.032313 0.000000 0.000000
# 5 0.000000 0.000000 0.000000 0.000000 0.032313 0.000000
# 6 0.000000 0.000000 0.000000 0.000000 0.000000 0.084454
#
#
# Mechanical properties :
#
#
# Convention : Reuss Voigt Hill
#
# Bulk Modulus (GPa) = 41.48106 46.26840 43.87473
# Shear Modulus (GPa) = 25.32343 32.51076 28.91709
#
# Velocity S-wave (km/s) = 3.43336 3.89020 3.66890
# Velocity P-wave (km/s) = 5.91833 6.45879 6.19446
#
# Compressibility (1/GPa) = 0.02410739
#
# Stress axis : x y z
#
# Youngs Moduli (GPa) = 79.63555 79.63555 140.76405
#
# Poissons Ratio (x) = 0.05820 0.23400
# Poissons Ratio (y) = 0.05820 0.23400
# Poissons Ratio (z) = 0.13238 0.13238
#
# Static dielectric constant tensor:
#      x y z
#    x 3.724120 0.000000 0.000000 
#    y 0.000000 3.724120 0.000000 
#    z 0.000000 0.000000 4.220440 
# 
# 
# High freq. dielectric constant tensor:
#      x y z
#    x 1.825870 0.000000 0.000000 
#    y 0.000000 1.825870 0.000000 
#    z 0.000000 0.000000 1.877200 
# 
# From -- ./inp_files/933.got.cif
#   From: 2010.03.12/outbox.cif.g09.slc.cpg/sg102_1_cif.got.tgz:933.got - 2010.04.14 01:40:42.
