data_PCOD8306219
_publ_section_title
;
Structure prediction by ZEFSAII (Michael W. Deem and Ramdas Pophale) SiO2 
 PCOD8306219
Probable space group: I 41 2 2
;
_chemical_formula_sum "Si O2"
_cell_formula_units_Z 96
_cell_length_a 13.704853
_cell_length_b 13.704853
_cell_length_c 26.074645
_cell_angle_alpha 90.000000
_cell_angle_beta 90.000000
_cell_angle_gamma 90.000000
_cell_volume 4897.417937
_symmetry_space_group_name_H-M "I 41 2 2"
_symmetry_group_IT_number 98
_symmetry_cell_setting 'tetragonal'
loop_
_space_group_symop_operation_xyz
x,y,z
-y,1/2+x,1/4+z
-x,-y,z
y,1/2-x,1/4+z
x,1/2-y,1/4-z
-x,1/2+y,1/4-z
y,x,-z
-y,-x,-z
1/2+x,1/2+y,1/2+z
1/2-y,x,3/4+z
1/2-x,1/2-y,1/2+z
1/2+y,-x,3/4+z
1/2+x,-y,3/4-z
1/2-x,y,3/4-z
1/2+y,1/2+x,1/2-z
1/2-y,1/2-x,1/2-z
loop_
_atom_site_type_symbol
_atom_site_label
_atom_site_fract_x
_atom_site_fract_y
_atom_site_fract_z
Si Si1 0.000000 0.500000 0.981895
Si Si2 0.526614 0.893649 0.640302
Si Si3 0.065795 0.271727 0.415805
Si Si4 0.779292 0.720708 0.750000
Si Si5 0.119268 0.870652 0.808101
Si Si6 0.812601 0.914412 0.690525
Si Si7 0.700539 0.051186 0.765701
O O1 0.064497 0.426338 0.948615
O O2 0.074060 0.555052 0.017258
O O3 0.623644 0.892909 0.604781
O O4 0.435952 0.858341 0.607146
O O5 0.529555 0.820336 0.689255
O O6 0.500000 0.000000 0.661517
O O7 0.122266 0.231100 0.465842
O O8 0.081163 0.195805 0.370461
O O9 0.948055 0.276991 0.427775
O O10 0.778029 0.809755 0.710458
O O11 0.226868 0.859306 0.783240
O O12 0.744363 0.995175 0.717109
O O13 0.599044 0.099044 0.750000
#
# Coordination Sequence:
#
# PCOD8306219 Si02
#       7
#     8  16  16   8  16  16  16
#     4  10  18  40  56  77 111 166 196 230 306 378
#     4  10  19  33  55  85 128 164 197 236 307 375
#     4  11  21  37  59  88 116 155 205 265 310 361
#     4  12  22  38  61  91 118 152 210 258 314 372
#     4  10  18  36  58  75 117 166 200 235 299 365
#     4  11  23  35  59  84 123 157 198 249 308 378
#     4  11  22  34  54  89 125 168 202 242 288 379
#
# _framework density 19.602164999999999
#
# number of rings (size 3 to 8) (size 9 to 14) (size 15 to 20)
#    0.000    1.333    4.167    5.000    0.000    3.000 
#    0.000    0.000    3.667    0.000    0.000    0.000 
#    0.000    0.000    0.000    0.000    0.000    0.000 
#
# Total GULP energy -594665.215580 kJ/mol
# GULP energy per Si atom -12388.858658 kJ/mol
# Density = 1.955755 g / cm^3
# Si number density = 19.602165 Si / 1000 Ang^3
#
#
#
# Elastic Constant Matrix: (Units=GPa)
#
#
# Indices 1 2 3 4 5 6 
#
# 1 54.4013 9.9842 19.7321 0.0000 0.0000 0.0000
# 2 9.9842 54.4013 19.7321 0.0000 0.0000 0.0000
# 3 19.7321 19.7321 98.1281 0.0000 0.0000 0.0000
# 4 0.0000 0.0000 0.0000 25.0197 0.0000 0.0000
# 5 0.0000 0.0000 0.0000 0.0000 25.0197 0.0000
# 6 0.0000 0.0000 0.0000 0.0000 0.0000 17.3637
#
#
#
# Elastic Compliance Matrix: (Units=1/GPa)
#
#
# Indices 1 2 3 4 5 6 
#
# 1 0.020114 -0.002399 -0.003562 0.000000 0.000000 0.000000
# 2 -0.002399 0.020114 -0.003562 0.000000 0.000000 0.000000
# 3 -0.003562 -0.003562 0.011623 0.000000 0.000000 0.000000
# 4 0.000000 0.000000 0.000000 0.039968 0.000000 0.000000
# 5 0.000000 0.000000 0.000000 0.000000 0.039968 0.000000
# 6 0.000000 0.000000 0.000000 0.000000 0.000000 0.057591
#
#
# Mechanical properties :
#
#
# Convention : Reuss Voigt Hill
#
# Bulk Modulus (GPa) = 30.48381 33.98082 32.23232
# Shear Modulus (GPa) = 22.79329 23.97946 23.38638
#
# Velocity S-wave (km/s) = 3.41368 3.50137 3.45780
# Velocity P-wave (km/s) = 5.57876 5.80681 5.69393
#
# Compressibility (1/GPa) = 0.03280430
#
# Stress axis : x y z
#
# Youngs Moduli (GPa) = 49.71580 49.71580 86.03355
#
# Poissons Ratio (x) = 0.11929 0.30647
# Poissons Ratio (y) = 0.11929 0.30647
# Poissons Ratio (z) = 0.17710 0.17710
#
# Static dielectric constant tensor:
#      x y z
#    x 3.728550 0.000000 0.000000 
#    y 0.000000 3.728550 0.000000 
#    z 0.000000 0.000000 3.751310 
# 
# 
# High freq. dielectric constant tensor:
#      x y z
#    x 1.742790 0.000000 0.000000 
#    y 0.000000 1.742790 0.000000 
#    z 0.000000 0.000000 1.769960 
# 
# From -- ./inp_files/10054.got.cif
#   From: 2010.03.12/outbox.cif.g09.slc.cpg/sg98_6_cif.got.tgz:10054.got - 2010.04.08 21:04:41.
