data_PCOD8306553
_publ_section_title
;
Structure prediction by ZEFSAII (Michael W. Deem and Ramdas Pophale) SiO2 
 PCOD8306553
Probable space group: P 4 M M
;
_chemical_formula_sum "Si O2"
_cell_formula_units_Z 64
_cell_length_a 13.604678
_cell_length_b 13.604678
_cell_length_c 20.601837
_cell_angle_alpha 90.000000
_cell_angle_beta 90.000000
_cell_angle_gamma 90.000000
_cell_volume 3813.137633
_symmetry_space_group_name_H-M "P 4 M M"
_symmetry_group_IT_number 99
_symmetry_cell_setting 'tetragonal'
loop_
_space_group_symop_operation_xyz
x,y,z
-y,x,z
-x,-y,z
y,-x,z
-x,y,z
x,-y,z
-y,-x,z
y,x,z
loop_
_atom_site_type_symbol
_atom_site_label
_atom_site_fract_x
_atom_site_fract_y
_atom_site_fract_z
Si Si1 0.228348 0.612370 0.399560
Si Si2 0.115698 0.389335 0.172274
Si Si3 0.778037 0.615660 0.765689
Si Si4 0.114955 0.723445 0.655018
Si Si5 0.771654 0.386837 0.548869
Si Si6 0.385545 0.773641 0.046591
Si Si7 0.727066 0.885074 0.297795
Si Si8 0.388735 0.231674 0.906883
O O1 0.250142 0.500000 0.381478
O O2 0.327547 0.672454 0.384297
O O3 0.196289 0.623405 0.474215
O O4 0.138853 0.652901 0.356493
O O5 0.153541 0.500000 0.185400
O O6 0.154753 0.348443 0.103519
O O7 0.152518 0.321110 0.230768
O O8 0.000000 0.387323 0.168139
O O9 0.757738 0.500000 0.752893
O O10 0.675920 0.675920 0.755872
O O11 0.859862 0.655692 0.716746
O O12 0.823870 0.633703 0.838622
O O13 0.173918 0.826083 0.657744
O O14 0.142083 0.662478 0.590563
O O15 0.000000 0.748224 0.654513
O O16 0.756740 0.500000 0.569122
O O17 0.668500 0.331501 0.562336
O O18 0.500000 0.750425 0.055068
O O19 0.328948 0.671053 0.052449
O O20 0.364502 0.824822 0.975194
O O21 0.830168 0.830168 0.307862
O O22 0.749090 0.000000 0.297201
O O23 0.500000 0.264555 0.907596
O O24 0.333832 0.333832 0.906455
#
# Coordination Sequence:
#
# PCOD8306553 Si02
#       8
#     8   8   8   8   8   8   8   8
#     4   9  18  32  50  73 100 128 157 187 219 259
#     4   9  17  29  45  64  85 111 145 184 226 272
#     4   9  17  29  45  67  95 124 154 187 223 267
#     4  10  21  36  52  69  90 117 152 194 236 277
#     4   9  18  32  50  74 102 129 156 185 218 260
#     4   9  16  26  41  61  87 118 148 179 215 256
#     4  10  20  33  49  68  90 117 151 192 236 280
#     4   8  14  24  38  58  86 119 151 181 213 252
#
# _framework density 16.784078000000001
#
# number of rings (size 3 to 8) (size 9 to 14) (size 15 to 20)
#    0.000    2.875    0.000    1.125    0.000    3.125 
#    0.000    5.625    0.000    4.500    0.000    5.250 
#    0.000    0.000    0.000    7.875    0.000    0.000 
#
# Total GULP energy -793045.860142 kJ/mol
# GULP energy per Si atom -12391.341565 kJ/mol
# Density = 1.674588 g / cm^3
# Si number density = 16.784078 Si / 1000 Ang^3
#
#
#
# Elastic Constant Matrix: (Units=GPa)
#
#
# Indices 1 2 3 4 5 6 
#
# 1 78.2787 33.5027 47.6510 0.0000 0.0000 -0.0001
# 2 33.5027 78.2787 47.6510 0.0000 0.0000 0.0001
# 3 47.6510 47.6510 121.7337 0.0000 0.0000 0.0000
# 4 0.0000 0.0000 0.0000 22.2193 0.0000 0.0000
# 5 0.0000 0.0000 0.0000 0.0000 22.2193 0.0000
# 6 -0.0001 0.0001 0.0000 0.0000 0.0000 13.5848
#
#
#
# Elastic Compliance Matrix: (Units=1/GPa)
#
#
# Indices 1 2 3 4 5 6 
#
# 1 0.017880 -0.004453 -0.005256 0.000000 0.000000 0.000000
# 2 -0.004453 0.017880 -0.005256 0.000000 0.000000 0.000000
# 3 -0.005256 -0.005256 0.012329 0.000000 0.000000 0.000000
# 4 0.000000 0.000000 0.000000 0.045006 0.000000 0.000000
# 5 0.000000 0.000000 0.000000 0.000000 0.045006 0.000000
# 6 0.000000 0.000000 0.000000 0.000000 0.000000 0.073611
#
#
# Mechanical properties :
#
#
# Convention : Reuss Voigt Hill
#
# Bulk Modulus (GPa) = 55.06597 59.54448 57.30523
# Shear Modulus (GPa) = 20.18603 21.57045 20.87824
#
# Velocity S-wave (km/s) = 3.47174 3.58882 3.53077
# Velocity P-wave (km/s) = 6.99645 7.26131 7.13011
#
# Compressibility (1/GPa) = 0.01816003
#
# Stress axis : x y z
#
# Youngs Moduli (GPa) = 55.92781 55.92781 81.10777
#
# Poissons Ratio (x) = 0.24906 0.42629
# Poissons Ratio (y) = 0.24906 0.42629
# Poissons Ratio (z) = 0.29395 0.29395
#
# Static dielectric constant tensor:
#      x y z
#    x 2.928880 0.000000 0.000000 
#    y 0.000000 2.928880 0.000000 
#    z 0.000000 0.000000 3.684140 
# 
# 
# High freq. dielectric constant tensor:
#      x y z
#    x 1.625000 0.000000 0.000000 
#    y 0.000000 1.625000 0.000000 
#    z 0.000000 0.000000 1.673040 
# 
# From -- ./inp_files/2341.got.cif
#   From: 2010.03.12/outbox.cif.g09.slc.cpg/sg99_cif.got.tgz:2341.got - 2010.04.08 21:11:30.
