data_PCOD8306538
_publ_section_title
;
Structure prediction by ZEFSAII (Michael W. Deem and Ramdas Pophale) SiO2 
 PCOD8306538
Probable space group: P 4 M M
;
_chemical_formula_sum "Si O2"
_cell_formula_units_Z 56
_cell_length_a 13.761603
_cell_length_b 13.761603
_cell_length_c 18.080109
_cell_angle_alpha 90.000000
_cell_angle_beta 90.000000
_cell_angle_gamma 90.000000
_cell_volume 3424.042088
_symmetry_space_group_name_H-M "P 4 M M"
_symmetry_group_IT_number 99
_symmetry_cell_setting 'tetragonal'
loop_
_space_group_symop_operation_xyz
x,y,z
-y,x,z
-x,-y,z
y,-x,z
-x,y,z
x,-y,z
-y,-x,z
y,x,z
loop_
_atom_site_type_symbol
_atom_site_label
_atom_site_fract_x
_atom_site_fract_y
_atom_site_fract_z
Si Si1 0.384617 0.772891 0.355280
Si Si2 0.615337 0.892292 0.213958
Si Si3 0.114774 0.607395 0.619830
Si Si4 0.264839 0.111159 0.921072
Si Si5 0.726160 0.884592 0.477167
Si Si6 0.888209 0.730299 0.756475
Si Si7 0.393001 0.115434 0.052624
O O1 0.500000 0.755808 0.362241
O O2 0.329658 0.670343 0.367274
O O3 0.353446 0.814775 0.275421
O O4 0.350509 0.852465 0.414750
O O5 0.500000 0.899849 0.209166
O O6 0.653714 0.858078 0.132870
O O7 0.656746 0.000000 0.233557
O O8 0.161456 0.500000 0.609648
O O9 0.148020 0.679295 0.554836
O O10 0.149365 0.649617 0.698762
O O11 0.000000 0.597316 0.617844
O O12 0.160192 0.160192 0.922635
O O13 0.312579 0.124940 0.839571
O O14 0.245543 0.000000 0.939630
O O15 0.331737 0.159073 0.984461
O O16 0.828760 0.828760 0.467433
O O17 0.745041 0.000000 0.471937
O O18 0.828964 0.828964 0.745022
O O19 0.000000 0.757433 0.740770
O O20 0.500000 0.161657 0.045817
O O21 0.399810 0.000000 0.045402
#
# Coordination Sequence:
#
# PCOD8306538 Si02
#       7
#     8   8   8   8   8   8   8
#     4  10  20  32  47  68  92 120 155 191 228 271
#     4   8  14  26  44  64  85 109 140 181 226 271
#     4   9  17  29  45  64  86 113 143 175 213 255
#     4   9  17  27  39  57  82 113 146 178 214 259
#     4  10  20  33  50  72  96 122 152 184 220 265
#     4   9  17  28  41  59  84 113 146 182 219 262
#     4   8  14  25  41  61  84 109 139 178 223 267
#
# _framework density 16.354939999999999
#
# number of rings (size 3 to 8) (size 9 to 14) (size 15 to 20)
#    0.000    3.000    0.000    2.143    0.000    3.143 
#    0.000    4.286    0.000    2.571    0.000    0.000 
#    0.000    6.286    0.000    6.286    0.000    1.714 
#
# Total GULP energy -694004.648810 kJ/mol
# GULP energy per Si atom -12392.940157 kJ/mol
# Density = 1.631772 g / cm^3
# Si number density = 16.354940 Si / 1000 Ang^3
#
#
#
# Elastic Constant Matrix: (Units=GPa)
#
#
# Indices 1 2 3 4 5 6 
#
# 1 67.9440 33.4402 41.2735 0.0000 0.0000 0.0001
# 2 33.4402 67.9440 41.2735 0.0000 0.0000 -0.0001
# 3 41.2735 41.2735 126.4277 0.0000 0.0000 0.0000
# 4 0.0000 0.0000 0.0000 21.9086 0.0000 0.0000
# 5 0.0000 0.0000 0.0000 0.0000 21.9086 0.0000
# 6 0.0001 -0.0001 0.0000 0.0000 0.0000 12.1994
#
#
#
# Elastic Compliance Matrix: (Units=1/GPa)
#
#
# Indices 1 2 3 4 5 6 
#
# 1 0.021208 -0.007774 -0.004386 0.000000 0.000000 0.000000
# 2 -0.007774 0.021208 -0.004386 0.000000 0.000000 0.000000
# 3 -0.004386 -0.004386 0.010773 0.000000 0.000000 0.000000
# 4 0.000000 0.000000 0.000000 0.045644 0.000000 0.000000
# 5 0.000000 0.000000 0.000000 0.000000 0.045644 0.000000
# 6 0.000000 0.000000 0.000000 0.000000 0.000000 0.081971
#
#
# Mechanical properties :
#
#
# Convention : Reuss Voigt Hill
#
# Bulk Modulus (GPa) = 49.75408 54.92110 52.33759
# Shear Modulus (GPa) = 18.78003 20.95855 19.86929
#
# Velocity S-wave (km/s) = 3.39230 3.58366 3.48929
# Velocity P-wave (km/s) = 6.76987 7.12581 6.95012
#
# Compressibility (1/GPa) = 0.02009886
#
# Stress axis : x y z
#
# Youngs Moduli (GPa) = 47.15128 47.15128 92.82288
#
# Poissons Ratio (x) = 0.36655 0.40710
# Poissons Ratio (y) = 0.36655 0.40710
# Poissons Ratio (z) = 0.20679 0.20679
#
# Static dielectric constant tensor:
#      x y z
#    x 2.886200 0.000000 0.000000 
#    y 0.000000 2.886200 0.000000 
#    z 0.000000 0.000000 3.518960 
# 
# 
# High freq. dielectric constant tensor:
#      x y z
#    x 1.600460 0.000000 0.000000 
#    y 0.000000 1.600460 0.000000 
#    z 0.000000 0.000000 1.651950 
# 
# From -- ./inp_files/1803.got.cif
#   From: 2010.03.12/outbox.cif.g09.slc.cpg/sg99_cif.got.tgz:1803.got - 2010.04.08 21:11:30.
