data_PCOD8306564
_publ_section_title
;
Structure prediction by ZEFSAII (Michael W. Deem and Ramdas Pophale) SiO2 
 PCOD8306564
Probable space group: P 4 M M
;
_chemical_formula_sum "Si O2"
_cell_formula_units_Z 64
_cell_length_a 13.478193
_cell_length_b 13.478193
_cell_length_c 20.865985
_cell_angle_alpha 90.000000
_cell_angle_beta 90.000000
_cell_angle_gamma 90.000000
_cell_volume 3790.550027
_symmetry_space_group_name_H-M "P 4 M M"
_symmetry_group_IT_number 99
_symmetry_cell_setting 'tetragonal'
loop_
_space_group_symop_operation_xyz
x,y,z
-y,x,z
-x,-y,z
y,-x,z
-x,y,z
x,-y,z
-y,-x,z
y,x,z
loop_
_atom_site_type_symbol
_atom_site_label
_atom_site_fract_x
_atom_site_fract_y
_atom_site_fract_z
Si Si1 0.384363 0.776845 0.210880
Si Si2 0.611989 0.770783 0.072627
Si Si3 0.776602 0.616722 0.459524
Si Si4 0.616029 0.780236 0.933377
Si Si5 0.882495 0.389114 0.697289
Si Si6 0.115789 0.276726 0.823777
Si Si7 0.382463 0.109259 0.333975
Si Si8 0.277870 0.883347 0.569603
O O1 0.500000 0.753394 0.222006
O O2 0.326975 0.673026 0.216202
O O3 0.365206 0.828049 0.140123
O O4 0.344199 0.850544 0.265512
O O5 0.500000 0.736240 0.073181
O O6 0.668337 0.668337 0.072402
O O7 0.634498 0.827136 0.005274
O O8 0.755585 0.500000 0.462441
O O9 0.673140 0.673140 0.472017
O O10 0.818959 0.651746 0.391013
O O11 0.857536 0.645918 0.512814
O O12 0.500000 0.756497 0.922010
O O13 0.678820 0.678820 0.923394
O O14 0.652089 0.863803 0.884147
O O15 0.836353 0.500000 0.695628
O O16 0.845147 0.332741 0.760536
O O17 0.847336 0.328340 0.635394
O O18 0.000000 0.397194 0.698181
O O19 0.172952 0.172952 0.831017
O O20 0.000000 0.251702 0.819923
O O21 0.500000 0.101374 0.334083
O O22 0.335977 0.000000 0.344149
O O23 0.174088 0.825913 0.560557
O O24 0.254771 0.000000 0.569398
#
# Coordination Sequence:
#
# PCOD8306564 Si02
#       8
#     8   8   8   8   8   8   8   8
#     4   9  16  26  41  62  89 119 149 183 225 273
#     4   8  14  24  38  58  86 118 150 185 224 269
#     4  10  20  33  50  72  96 123 156 194 239 292
#     4   9  17  29  45  66  92 122 156 193 234 281
#     4   9  17  30  49  71  94 121 153 189 230 277
#     4  10  20  33  49  69  93 122 157 197 241 287
#     4   9  17  29  44  61  84 116 152 188 225 267
#     4  10  20  33  50  73 100 131 168 206 241 277
#
# _framework density 16.884093
#
# number of rings (size 3 to 8) (size 9 to 14) (size 15 to 20)
#    0.000    2.750    0.000    1.875    0.000    2.750 
#    0.000    3.125    0.000    6.750    0.000    0.000 
#    0.000   11.250    0.000    0.000    0.000    2.500 
#
# Total GULP energy -793072.130763 kJ/mol
# GULP energy per Si atom -12391.752043 kJ/mol
# Density = 1.684566 g / cm^3
# Si number density = 16.884093 Si / 1000 Ang^3
#
#
#
# Elastic Constant Matrix: (Units=GPa)
#
#
# Indices 1 2 3 4 5 6 
#
# 1 70.2096 29.1166 37.2572 0.0000 0.0000 -0.0001
# 2 29.1166 70.2096 37.2572 0.0000 0.0000 0.0001
# 3 37.2572 37.2572 147.1235 0.0000 0.0000 0.0000
# 4 0.0000 0.0000 0.0000 23.4832 0.0000 0.0000
# 5 0.0000 0.0000 0.0000 0.0000 23.4832 0.0000
# 6 -0.0001 0.0001 0.0000 0.0000 0.0000 12.3223
#
#
#
# Elastic Compliance Matrix: (Units=1/GPa)
#
#
# Indices 1 2 3 4 5 6 
#
# 1 0.018382 -0.005953 -0.003148 0.000000 0.000000 0.000000
# 2 -0.005953 0.018382 -0.003148 0.000000 0.000000 0.000000
# 3 -0.003148 -0.003148 0.008391 0.000000 0.000000 0.000000
# 4 0.000000 0.000000 0.000000 0.042584 0.000000 0.000000
# 5 0.000000 0.000000 0.000000 0.000000 0.042584 0.000000
# 6 0.000000 0.000000 0.000000 0.000000 0.000000 0.081154
#
#
# Mechanical properties :
#
#
# Convention : Reuss Voigt Hill
#
# Bulk Modulus (GPa) = 48.40438 54.97828 51.69133
# Shear Modulus (GPa) = 20.58808 24.11851 22.35329
#
# Velocity S-wave (km/s) = 3.49575 3.78362 3.64253
# Velocity P-wave (km/s) = 6.71003 7.19170 6.95504
#
# Compressibility (1/GPa) = 0.02065929
#
# Stress axis : x y z
#
# Youngs Moduli (GPa) = 54.40087 54.40087 119.17328
#
# Poissons Ratio (x) = 0.32385 0.37510
# Poissons Ratio (y) = 0.32385 0.37510
# Poissons Ratio (z) = 0.17123 0.17123
#
# Static dielectric constant tensor:
#      x y z
#    x 2.932930 0.000000 0.000000 
#    y 0.000000 2.932930 0.000000 
#    z 0.000000 0.000000 3.696100 
# 
# 
# High freq. dielectric constant tensor:
#      x y z
#    x 1.625720 0.000000 0.000000 
#    y 0.000000 1.625720 0.000000 
#    z 0.000000 0.000000 1.679170 
# 
# From -- ./inp_files/2101.got.cif
#   From: 2010.03.12/outbox.cif.g09.slc.cpg/sg99_cif.got.tgz:2101.got - 2010.04.08 21:11:30.
