data_PCOD8306760
_publ_section_title
;
Structure prediction by ZEFSAII (Michael W. Deem and Ramdas Pophale) SiO2 
 PCOD8306760
Probable space group: P 42 C M
;
_chemical_formula_sum "Si O2"
_cell_formula_units_Z 48
_cell_length_a 13.523656
_cell_length_b 13.523656
_cell_length_c 15.218544
_cell_angle_alpha 90.000000
_cell_angle_beta 90.000000
_cell_angle_gamma 90.000000
_cell_volume 2783.308427
_symmetry_space_group_name_H-M "P 42 C M"
_symmetry_group_IT_number 101
_symmetry_cell_setting 'tetragonal'
loop_
_space_group_symop_operation_xyz
x,y,z
-y,x,1/2+z
-x,-y,z
y,-x,1/2+z
-x,y,1/2+z
x,-y,1/2+z
-y,-x,z
y,x,z
loop_
_atom_site_type_symbol
_atom_site_label
_atom_site_fract_x
_atom_site_fract_y
_atom_site_fract_z
Si Si1 0.137080 0.706291 0.888020
Si Si2 0.397718 0.241870 0.230810
Si Si3 0.606628 0.056643 0.388061
Si Si4 0.602328 0.758155 0.545302
Si Si5 0.781639 0.381501 0.534974
Si Si6 0.618525 0.781668 0.741108
O O1 0.181626 0.818375 0.887931
O O2 0.170890 0.648039 0.802581
O O3 0.018734 0.699886 0.888048
O O4 0.170965 0.648214 0.973524
O O5 0.349276 0.349276 0.231665
O O6 0.375220 0.188123 0.137595
O O7 0.510839 0.266398 0.253262
O O8 0.622486 0.121099 0.475303
O O9 0.622433 0.121094 0.300811
O O10 0.500000 0.000000 0.388092
O O11 0.650720 0.650720 0.544594
O O12 0.489219 0.733667 0.522773
O O13 0.624774 0.811972 0.638498
O O14 0.703432 0.296569 0.507305
O O15 0.703511 0.703511 0.768756
#
# Coordination Sequence:
#
# PCOD8306760 Si02
#       6
#     8   8   8   8   8   8
#     4  10  20  36  52  72 105 139 178 222 269 323
#     4   9  18  33  52  77 110 144 174 210 266 332
#     4  12  21  34  53  80 103 143 182 227 271 316
#     4   9  18  33  52  77 110 144 174 210 266 332
#     4  10  20  33  51  78 110 140 177 224 267 318
#     4  10  20  33  51  78 110 140 177 224 267 318
#
# _framework density 17.245664000000001
#
# number of rings (size 3 to 8) (size 9 to 14) (size 15 to 20)
#    0.000    2.000    3.333    0.500    0.000    2.000 
#    0.000    3.333    0.000    7.000    0.000    0.000 
#    0.000   16.000    0.000    0.000    0.000    0.667 
#
# Total GULP energy -594800.634660 kJ/mol
# GULP energy per Si atom -12391.679889 kJ/mol
# Density = 1.720641 g / cm^3
# Si number density = 17.245664 Si / 1000 Ang^3
#
#
#
# Elastic Constant Matrix: (Units=GPa)
#
#
# Indices 1 2 3 4 5 6 
#
# 1 117.9580 65.3727 59.3735 0.0000 0.0000 0.0001
# 2 65.3727 117.9580 59.3735 0.0000 0.0000 -0.0001
# 3 59.3735 59.3735 114.3460 0.0000 0.0000 0.0000
# 4 0.0000 0.0000 0.0000 21.9067 0.0000 0.0000
# 5 0.0000 0.0000 0.0000 0.0000 21.9067 0.0000
# 6 0.0001 -0.0001 0.0000 0.0000 0.0000 20.8464
#
#
#
# Elastic Compliance Matrix: (Units=1/GPa)
#
#
# Indices 1 2 3 4 5 6 
#
# 1 0.013618 -0.005399 -0.004268 0.000000 0.000000 0.000000
# 2 -0.005399 0.013618 -0.004268 0.000000 0.000000 0.000000
# 3 -0.004268 -0.004268 0.013177 0.000000 0.000000 0.000000
# 4 0.000000 0.000000 0.000000 0.045648 0.000000 0.000000
# 5 0.000000 0.000000 0.000000 0.000000 0.045648 0.000000
# 6 0.000000 0.000000 0.000000 0.000000 0.000000 0.047970
#
#
# Mechanical properties :
#
#
# Convention : Reuss Voigt Hill
#
# Bulk Modulus (GPa) = 79.71586 79.83348 79.77467
# Shear Modulus (GPa) = 23.61514 24.00812 23.81163
#
# Velocity S-wave (km/s) = 3.70447 3.73517 3.71985
# Velocity P-wave (km/s) = 8.03875 8.06191 8.05034
#
# Compressibility (1/GPa) = 0.01254455
#
# Stress axis : x y z
#
# Youngs Moduli (GPa) = 73.43347 73.43347 75.88860
#
# Poissons Ratio (x) = 0.39646 0.32386
# Poissons Ratio (y) = 0.39646 0.32386
# Poissons Ratio (z) = 0.31338 0.31338
#
# Static dielectric constant tensor:
#      x y z
#    x 3.179450 0.000000 0.000000 
#    y 0.000000 3.179450 0.000000 
#    z 0.000000 0.000000 3.960230 
# 
# 
# High freq. dielectric constant tensor:
#      x y z
#    x 1.647320 0.000000 0.000000 
#    y 0.000000 1.647320 0.000000 
#    z 0.000000 0.000000 1.691780 
# 
# From -- ./inp_files/1798.got.cif
#   From: 2010.03.12/outbox.cif.g09.slc.cpg/sg101_1_cif.got.tgz:1798.got - 2010.04.14 01:38:52.
