data_PCOD8306080
_publ_section_title
;
Structure prediction by ZEFSAII (Michael W. Deem and Ramdas Pophale) SiO2 
 PCOD8306080
Probable space group: I 4 2 2 
;
_chemical_formula_sum "Si O2"
_cell_formula_units_Z 112
_cell_length_a 14.560558
_cell_length_b 14.560558
_cell_length_c 28.244788
_cell_angle_alpha 90.000000
_cell_angle_beta 90.000000
_cell_angle_gamma 90.000000
_cell_volume 5988.173247
_symmetry_space_group_name_H-M "I 4 2 2 "
_symmetry_group_IT_number 97
_symmetry_cell_setting 'tetragonal'
loop_
_space_group_symop_operation_xyz
x,y,z
-y,x,z
-x,-y,z
y,-x,z
x,-y,-z
-x,y,-z
y,x,-z
-y,-x,-z
1/2+x,1/2+y,1/2+z
1/2-y,1/2+x,1/2+z
1/2-x,1/2-y,1/2+z
1/2+y,1/2-x,1/2+z
1/2+x,1/2-y,1/2-z
1/2-x,1/2+y,1/2-z
1/2+y,1/2+x,1/2-z
1/2-y,1/2-x,1/2-z
loop_
_atom_site_type_symbol
_atom_site_label
_atom_site_fract_x
_atom_site_fract_y
_atom_site_fract_z
Si Si1 0.584522 0.623078 0.773859
Si Si2 0.632385 0.774411 0.706494
Si Si3 0.323845 0.285238 0.861935
Si Si4 0.100528 0.499857 0.653787
Si Si5 0.662127 0.119931 0.590386
Si Si6 0.914615 0.646383 0.426802
Si Si7 0.107607 0.737940 0.005469
O O1 0.476172 0.627117 0.772286
O O2 0.617568 0.672875 0.726199
O O3 0.613990 0.667817 0.822764
O O4 0.663414 0.836587 0.750000
O O5 0.705940 0.764453 0.664170
O O6 0.538221 0.820994 0.688241
O O7 0.264169 0.358509 0.891065
O O8 0.391531 0.239377 0.899412
O O9 0.121428 0.395989 0.638921
O O10 0.097349 0.557362 0.605355
O O11 0.000000 0.500000 0.678842
O O12 0.625334 0.202169 0.558078
O O13 0.656177 0.023505 0.561175
O O14 0.846266 0.635774 0.471112
O O15 0.171109 0.828892 0.000000
O O16 0.000000 0.765074 0.000000
#
# Coordination Sequence:
#
# PCOD8306080 Si02
#       7
#    16  16  16  16  16  16  16
#     4  10  21  37  56  78 110 156 203 245 294 355
#     4   9  20  36  55  79 117 151 192 248 296 360
#     4  10  20  37  56  83 115 151 195 247 298 356
#     4   9  19  34  55  86 115 147 191 244 303 358
#     4  11  21  34  63  88 116 158 197 249 304 359
#     4  10  20  37  58  88 119 149 196 242 301 364
#     4  12  24  41  63  90 122 159 197 241 297 362
#
# _framework density 18.703534000000001
#
# number of rings (size 3 to 8) (size 9 to 14) (size 15 to 20)
#    0.000    1.857    2.857    1.286    2.000    2.143 
#    0.000    0.000    0.000    0.000    0.000    1.000 
#    0.000    0.000    0.000    0.000    0.000    0.000 
#
# Total GULP energy -694153.331299 kJ/mol
# GULP energy per Si atom -12395.595202 kJ/mol
# Density = 1.866096 g / cm^3
# Si number density = 18.703534 Si / 1000 Ang^3
#
#
#
# Elastic Constant Matrix: (Units=GPa)
#
#
# Indices 1 2 3 4 5 6 
#
# 1 115.6885 48.0322 31.7542 0.0000 0.0000 0.0000
# 2 48.0322 115.6882 31.7546 0.0000 0.0000 0.0000
# 3 31.7542 31.7546 57.7604 0.0000 0.0000 0.0000
# 4 0.0000 0.0000 0.0000 20.1016 0.0000 0.0000
# 5 0.0000 0.0000 0.0000 0.0000 20.0941 0.0000
# 6 0.0000 0.0000 0.0000 0.0000 0.0000 30.3793
#
#
#
# Elastic Compliance Matrix: (Units=1/GPa)
#
#
# Indices 1 2 3 4 5 6 
#
# 1 0.011272 -0.003509 -0.004268 0.000000 0.000000 0.000000
# 2 -0.003509 0.011272 -0.004268 0.000000 0.000000 0.000000
# 3 -0.004268 -0.004268 0.022006 0.000000 0.000000 0.000000
# 4 0.000000 0.000000 0.000000 0.049747 0.000000 0.000000
# 5 0.000000 0.000000 0.000000 0.000000 0.049766 0.000000
# 6 0.000000 0.000000 0.000000 0.000000 0.000000 0.032917
#
#
# Mechanical properties :
#
#
# Convention : Reuss Voigt Hill
#
# Bulk Modulus (GPa) = 48.87465 56.91324 52.89394
# Shear Modulus (GPa) = 24.05119 25.95475 25.00297
#
# Velocity S-wave (km/s) = 3.58986 3.72922 3.66020
# Velocity P-wave (km/s) = 6.58565 7.00271 6.79738
#
# Compressibility (1/GPa) = 0.02046051
#
# Stress axis : x y z
#
# Youngs Moduli (GPa) = 88.71482 88.71415 45.44260
#
# Poissons Ratio (x) = 0.31125 0.19395
# Poissons Ratio (y) = 0.31126 0.19396
# Poissons Ratio (z) = 0.37864 0.37865
#
# Static dielectric constant tensor:
#      x y z
#    x 3.562260 0.000000 0.000000 
#    y 0.000000 3.562300 0.000000 
#    z 0.000000 0.000000 3.363010 
# 
# 
# High freq. dielectric constant tensor:
#      x y z
#    x 1.726360 0.000000 0.000000 
#    y 0.000000 1.726360 0.000000 
#    z 0.000000 0.000000 1.720860 
# 
# From -- ./inp_files/7685.got.cif
#   From: 2010.03.12/outbox.cif.g09.slc.cpg/sg97_4_cif.got.tgz:7685.got - 2010.04.08 20:59:42.
