data_PCOD8306775
_publ_section_title
;
Structure prediction by ZEFSAII (Michael W. Deem and Ramdas Pophale) SiO2 
 PCOD8306775
Probable space group: P 42 C M
;
_chemical_formula_sum "Si O2"
_cell_formula_units_Z 30
_cell_length_a 15.934601
_cell_length_b 15.934601
_cell_length_c 7.593784
_cell_angle_alpha 90.000000
_cell_angle_beta 90.000000
_cell_angle_gamma 90.000000
_cell_volume 1928.149155
_symmetry_space_group_name_H-M "P 42 C M"
_symmetry_group_IT_number 101
_symmetry_cell_setting 'tetragonal'
loop_
_space_group_symop_operation_xyz
x,y,z
-y,x,1/2+z
-x,-y,z
y,-x,1/2+z
-x,y,1/2+z
x,-y,1/2+z
-y,-x,z
y,x,z
loop_
_atom_site_type_symbol
_atom_site_label
_atom_site_fract_x
_atom_site_fract_y
_atom_site_fract_z
Si Si1 0.097141 0.592999 0.611670
Si Si2 0.107766 0.107766 0.407357
Si Si3 0.000000 0.000000 0.157357
Si Si4 0.902859 0.407001 0.203043
Si Si5 0.157502 0.711981 0.907357
O O1 0.112923 0.613870 0.407357
O O2 0.129793 0.500000 0.657357
O O3 0.147277 0.658535 0.730348
O O4 0.000000 0.600187 0.657357
O O5 0.208883 0.092210 0.407357
O O6 0.063746 0.063746 0.569370
O O7 0.063746 0.063746 0.245345
O O8 0.852723 0.341465 0.084365
O O9 0.252507 0.747494 0.907357
#
# Coordination Sequence:
#
# PCOD8306775 Si02
#       5
#     8   4   2   8   8
#     4  11  19  33  57  80 106 142 178 225 288 344
#     4   9  24  36  52  70 104 142 199 250 236 332
#     4  10  20  42  52  66  96 170 204 206 300 266
#     4  11  19  33  57  80 106 142 178 225 288 344
#     4  10  23  35  49  83 106 136 183 235 266 318
#
# _framework density 15.558961
#
# number of rings (size 3 to 8) (size 9 to 14) (size 15 to 20)
#    0.800    0.800    5.333    1.600    3.733    1.067 
#    4.800    0.000    0.000    0.000    0.000    0.000 
#    0.000    3.200    0.000    0.000    0.000    0.000 
#
# Total GULP energy -371741.099617 kJ/mol
# GULP energy per Si atom -12391.369987 kJ/mol
# Density = 1.552355 g / cm^3
# Si number density = 15.558961 Si / 1000 Ang^3
#
#
#
# Elastic Constant Matrix: (Units=GPa)
#
#
# Indices 1 2 3 4 5 6 
#
# 1 106.1974 52.7984 61.7858 0.0000 0.0000 -0.0001
# 2 52.7984 106.1974 61.7858 0.0000 0.0000 0.0001
# 3 61.7858 61.7858 175.9634 0.0000 0.0000 0.0000
# 4 0.0000 0.0000 0.0000 20.2764 0.0000 0.0000
# 5 0.0000 0.0000 0.0000 0.0000 20.2764 0.0000
# 6 -0.0001 0.0001 0.0000 0.0000 0.0000 23.6211
#
#
#
# Elastic Compliance Matrix: (Units=1/GPa)
#
#
# Indices 1 2 3 4 5 6 
#
# 1 0.013688 -0.005038 -0.003037 0.000000 0.000000 0.000000
# 2 -0.005038 0.013688 -0.003037 0.000000 0.000000 0.000000
# 3 -0.003037 -0.003037 0.007816 0.000000 0.000000 0.000000
# 4 0.000000 0.000000 0.000000 0.049319 0.000000 0.000000
# 5 0.000000 0.000000 0.000000 0.000000 0.049319 0.000000
# 6 0.000000 0.000000 0.000000 0.000000 0.000000 0.042335
#
#
# Mechanical properties :
#
#
# Convention : Reuss Voigt Hill
#
# Bulk Modulus (GPa) = 77.11923 82.34422 79.73172
# Shear Modulus (GPa) = 24.66537 26.96731 25.81634
#
# Velocity S-wave (km/s) = 3.98588 4.16773 4.07782
# Velocity P-wave (km/s) = 8.41762 8.72919 8.57482
#
# Compressibility (1/GPa) = 0.01296694
#
# Stress axis : x y z
#
# Youngs Moduli (GPa) = 73.05406 73.05406 127.94354
#
# Poissons Ratio (x) = 0.36808 0.38860
# Poissons Ratio (y) = 0.36808 0.38860
# Poissons Ratio (z) = 0.22189 0.22189
#
# Static dielectric constant tensor:
#      x y z
#    x 2.870760 0.000000 0.000000 
#    y 0.000000 2.870760 0.000000 
#    z 0.000000 0.000000 3.428370 
# 
# 
# High freq. dielectric constant tensor:
#      x y z
#    x 1.578950 0.000000 0.000000 
#    y 0.000000 1.578950 0.000000 
#    z 0.000000 0.000000 1.615620 
# 
# From -- ./inp_files/450.got.cif
#   From: 2010.03.12/outbox.cif.g09.slc.cpg/sg101_1_cif.got.tgz:450.got - 2010.04.14 01:38:52.
