data_PCOD8306930
_publ_section_title
;
Structure prediction by ZEFSAII (Michael W. Deem and Ramdas Pophale) SiO2 
 PCOD8306930
Probable space group: P 42 N M
;
_chemical_formula_sum "Si O2"
_cell_formula_units_Z 64
_cell_length_a 12.435771
_cell_length_b 12.435771
_cell_length_c 22.858118
_cell_angle_alpha 90.000000
_cell_angle_beta 90.000000
_cell_angle_gamma 90.000000
_cell_volume 3534.971384
_symmetry_space_group_name_H-M "P 42 N M"
_symmetry_group_IT_number 102
_symmetry_cell_setting 'tetragonal'
loop_
_space_group_symop_operation_xyz
x,y,z
1/2-y,1/2+x,1/2+z
-x,-y,z
1/2+y,1/2-x,1/2+z
1/2-x,1/2+y,1/2+z
1/2+x,1/2-y,1/2+z
-y,-x,z
y,x,z
loop_
_atom_site_type_symbol
_atom_site_label
_atom_site_fract_x
_atom_site_fract_y
_atom_site_fract_z
Si Si1 0.481111 0.874044 0.115770
Si Si2 0.126139 0.514431 0.459255
Si Si3 0.152583 0.671176 0.223041
Si Si4 0.873772 0.700948 0.074860
Si Si5 0.879781 0.706925 0.497495
Si Si6 0.573838 0.894871 0.843741
Si Si7 0.171943 0.001950 0.167040
Si Si8 0.821087 0.998180 0.398874
O O1 0.422549 0.839875 0.175078
O O2 0.601322 0.826029 0.112438
O O3 0.416189 0.836435 0.059755
O O4 0.500000 0.000000 0.112033
O O5 0.171193 0.582692 0.511867
O O6 0.168469 0.391485 0.458499
O O7 0.151019 0.578135 0.399039
O O8 0.000000 0.500000 0.468750
O O9 0.260724 0.739277 0.218004
O O10 0.146562 0.617337 0.286470
O O11 0.046687 0.746646 0.215111
O O12 0.775105 0.775105 0.062125
O O13 0.968500 0.759955 0.110104
O O14 0.782710 0.782710 0.512276
O O15 0.974355 0.770935 0.463057
O O16 0.511561 0.781012 0.855014
O O17 0.500000 0.000000 0.834311
O O18 0.088777 0.911224 0.146507
O O19 0.106211 0.106211 0.192013
O O20 0.896835 0.896835 0.379284
O O21 0.892985 0.107016 0.400828
#
# Coordination Sequence:
#
# PCOD8306930 Si02
#       8
#     8   8   8   8   8   8   8   8
#     4  12  20  36  56  81 118 146 188 238 283 348
#     4  11  19  38  54  82 116 148 185 234 286 341
#     4  11  23  37  58  83 109 154 197 236 286 339
#     4  11  21  33  57  85 112 149 184 229 293 346
#     4  11  20  34  58  85 115 154 189 230 291 354
#     4  11  22  37  58  82 116 153 198 245 286 341
#     4   9  19  35  54  84 120 147 182 232 287 347
#     4  10  21  37  59  90 125 156 192 244 300 352
#
# _framework density 18.104814999999999
#
# number of rings (size 3 to 8) (size 9 to 14) (size 15 to 20)
#    0.000    1.250    6.250    1.125    0.000    4.500 
#    0.000    1.250    0.000    1.875    0.000    0.000 
#    0.000    1.500    0.000    0.000    0.000    0.000 
#
# Total GULP energy -793121.903290 kJ/mol
# GULP energy per Si atom -12392.529739 kJ/mol
# Density = 1.806361 g / cm^3
# Si number density = 18.104815 Si / 1000 Ang^3
#
#
#
# Elastic Constant Matrix: (Units=GPa)
#
#
# Indices 1 2 3 4 5 6 
#
# 1 102.2717 43.7070 56.2970 0.0000 0.0000 0.0001
# 2 43.7070 102.2717 56.2970 0.0000 0.0000 -0.0001
# 3 56.2970 56.2970 116.5353 0.0000 0.0000 0.0000
# 4 0.0000 0.0000 0.0000 25.3242 0.0000 0.0000
# 5 0.0000 0.0000 0.0000 0.0000 25.3242 0.0000
# 6 0.0001 -0.0001 0.0000 0.0000 0.0000 14.6953
#
#
#
# Elastic Compliance Matrix: (Units=1/GPa)
#
#
# Indices 1 2 3 4 5 6 
#
# 1 0.013997 -0.003078 -0.005275 0.000000 0.000000 0.000000
# 2 -0.003078 0.013997 -0.005275 0.000000 0.000000 0.000000
# 3 -0.005275 -0.005275 0.013677 0.000000 0.000000 0.000000
# 4 0.000000 0.000000 0.000000 0.039488 0.000000 0.000000
# 5 0.000000 0.000000 0.000000 0.000000 0.039488 0.000000
# 6 0.000000 0.000000 0.000000 0.000000 0.000000 0.068049
#
#
# Mechanical properties :
#
#
# Convention : Reuss Voigt Hill
#
# Bulk Modulus (GPa) = 69.36747 70.40898 69.88822
# Shear Modulus (GPa) = 22.64934 24.05390 23.35162
#
# Velocity S-wave (km/s) = 3.54080 3.64894 3.59528
# Velocity P-wave (km/s) = 7.42388 7.53174 7.47800
#
# Compressibility (1/GPa) = 0.01441598
#
# Stress axis : x y z
#
# Youngs Moduli (GPa) = 71.44425 71.44425 73.11312
#
# Poissons Ratio (x) = 0.21992 0.38565
# Poissons Ratio (y) = 0.21992 0.38565
# Poissons Ratio (z) = 0.37685 0.37685
#
# Static dielectric constant tensor:
#      x y z
#    x 0.559690 0.000000 0.000000 
#    y 0.000000 0.559690 0.000000 
#    z 0.000000 0.000000 3.425740 
# 
# 
# High freq. dielectric constant tensor:
#      x y z
#    x 1.699410 0.000000 0.000000 
#    y 0.000000 1.699410 0.000000 
#    z 0.000000 0.000000 1.696630 
# 
# From -- ./inp_files/3441.got.cif
#   From: 2010.03.12/outbox.cif.g09.slc.cpg/sg102_2_cif.got.tgz:3441.got - 2010.04.14 01:40:42.
