data_PCOD8306896
_publ_section_title
;
Structure prediction by ZEFSAII (Michael W. Deem and Ramdas Pophale) SiO2 
 PCOD8306896
Probable space group: P 42 N M
;
_chemical_formula_sum "Si O2"
_cell_formula_units_Z 48
_cell_length_a 11.523183
_cell_length_b 11.523183
_cell_length_c 18.376407
_cell_angle_alpha 90.000000
_cell_angle_beta 90.000000
_cell_angle_gamma 90.000000
_cell_volume 2440.088168
_symmetry_space_group_name_H-M "P 42 N M"
_symmetry_group_IT_number 102
_symmetry_cell_setting 'tetragonal'
loop_
_space_group_symop_operation_xyz
x,y,z
1/2-y,1/2+x,1/2+z
-x,-y,z
1/2+y,1/2-x,1/2+z
1/2-x,1/2+y,1/2+z
1/2+x,1/2-y,1/2+z
-y,-x,z
y,x,z
loop_
_atom_site_type_symbol
_atom_site_label
_atom_site_fract_x
_atom_site_fract_y
_atom_site_fract_z
Si Si1 0.539513 0.124551 0.438880
Si Si2 0.236208 0.578707 0.293221
Si Si3 0.854096 0.329254 0.702285
Si Si4 0.766403 0.583111 0.045727
Si Si5 0.847083 0.335074 0.056793
Si Si6 0.739873 0.078488 0.213091
O O1 0.534938 0.221587 0.376116
O O2 0.668109 0.121357 0.472372
O O3 0.456391 0.157249 0.504931
O O4 0.500000 0.000000 0.406419
O O5 0.367175 0.632826 0.281201
O O6 0.197910 0.476955 0.239076
O O7 0.144702 0.681516 0.280461
O O8 0.778183 0.221818 0.727468
O O9 0.869336 0.337131 0.615519
O O10 0.781540 0.442704 0.727702
O O11 0.636790 0.636790 0.044224
O O12 0.760652 0.444466 0.049718
O O13 0.777789 0.222212 0.031974
O O14 0.887426 0.327306 0.139752
O O15 0.875521 0.124480 0.208730
#
# Coordination Sequence:
#
# PCOD8306896 Si02
#       6
#     8   8   8   8   8   8
#     4  10  20  36  59  85 114 156 199 243 291 347
#     4  11  23  38  61  89 120 157 198 246 299 361
#     4  11  22  36  58  85 118 160 198 241 301 361
#     4  10  20  34  56  84 117 153 192 240 292 352
#     4  10  20  35  57  84 114 154 198 238 291 352
#     4  10  20  37  60  86 116 153 201 250 293 352
#
# _framework density 19.671419
#
# number of rings (size 3 to 8) (size 9 to 14) (size 15 to 20)
#    0.000    1.667    3.333    2.000    0.000    1.667 
#    0.000    1.667    0.000    1.500    0.000    4.667 
#    0.000    0.000    0.000    0.000    0.000    0.000 
#
# Total GULP energy -594844.063825 kJ/mol
# GULP energy per Si atom -12392.584663 kJ/mol
# Density = 1.962665 g / cm^3
# Si number density = 19.671419 Si / 1000 Ang^3
#
#
#
# Elastic Constant Matrix: (Units=GPa)
#
#
# Indices 1 2 3 4 5 6 
#
# 1 68.2097 33.3024 21.1235 0.0000 0.0000 -0.0002
# 2 33.3024 68.2097 21.1235 0.0000 0.0000 0.0002
# 3 21.1235 21.1235 71.4217 0.0000 0.0000 0.0000
# 4 0.0000 0.0000 0.0000 13.3208 0.0000 0.0000
# 5 0.0000 0.0000 0.0000 0.0000 13.3208 0.0000
# 6 -0.0002 0.0002 0.0000 0.0000 0.0000 32.9776
#
#
#
# Elastic Compliance Matrix: (Units=1/GPa)
#
#
# Indices 1 2 3 4 5 6 
#
# 1 0.019941 -0.008707 -0.003322 0.000000 0.000000 0.000000
# 2 -0.008707 0.019941 -0.003322 0.000000 0.000000 0.000000
# 3 -0.003322 -0.003322 0.015967 0.000000 0.000000 0.000000
# 4 0.000000 0.000000 0.000000 0.075071 0.000000 0.000000
# 5 0.000000 0.000000 0.000000 0.000000 0.075071 0.000000
# 6 0.000000 0.000000 0.000000 0.000000 0.000000 0.030324
#
#
# Mechanical properties :
#
#
# Convention : Reuss Voigt Hill
#
# Bulk Modulus (GPa) = 39.77047 39.88224 39.82635
# Shear Modulus (GPa) = 18.15554 20.74325 19.44940
#
# Velocity S-wave (km/s) = 3.04129 3.25081 3.14779
# Velocity P-wave (km/s) = 5.70910 5.86588 5.78802
#
# Compressibility (1/GPa) = 0.02514429
#
# Stress axis : x y z
#
# Youngs Moduli (GPa) = 50.14902 50.14902 62.63057
#
# Poissons Ratio (x) = 0.43664 0.20809
# Poissons Ratio (y) = 0.43664 0.20809
# Poissons Ratio (z) = 0.16662 0.16662
#
# Static dielectric constant tensor:
#      x y z
#    x 3.565060 0.000000 0.000000 
#    y 0.000000 3.565060 0.000000 
#    z 0.000000 0.000000 3.452470 
# 
# 
# High freq. dielectric constant tensor:
#      x y z
#    x 1.757720 0.000000 0.000000 
#    y 0.000000 1.757720 0.000000 
#    z 0.000000 0.000000 1.764070 
# 
# From -- ./inp_files/2703.got.cif
#   From: 2010.03.12/outbox.cif.g09.slc.cpg/sg102_2_cif.got.tgz:2703.got - 2010.04.14 01:40:42.
