data_PCOD8306579
_publ_section_title
;
Structure prediction by ZEFSAII (Michael W. Deem and Ramdas Pophale) SiO2 
 PCOD8306579
Probable space group: P 4 M M
;
_chemical_formula_sum "Si O2"
_cell_formula_units_Z 56
_cell_length_a 13.283252
_cell_length_b 13.283252
_cell_length_c 17.863337
_cell_angle_alpha 90.000000
_cell_angle_beta 90.000000
_cell_angle_gamma 90.000000
_cell_volume 3151.892633
_symmetry_space_group_name_H-M "P 4 M M"
_symmetry_group_IT_number 99
_symmetry_cell_setting 'tetragonal'
loop_
_space_group_symop_operation_xyz
x,y,z
-y,x,z
-x,-y,z
y,-x,z
-x,y,z
x,-y,z
-y,-x,z
y,x,z
loop_
_atom_site_type_symbol
_atom_site_label
_atom_site_fract_x
_atom_site_fract_y
_atom_site_fract_z
Si Si1 0.721785 0.883734 0.058810
Si Si2 0.118153 0.719947 0.358171
Si Si3 0.880593 0.387886 0.207364
Si Si4 0.221875 0.614852 0.932610
Si Si5 0.221493 0.616100 0.762128
Si Si6 0.382941 0.217258 0.493192
Si Si7 0.718748 0.882924 0.631314
O O1 0.826580 0.826580 0.047614
O O2 0.666472 0.841401 0.132605
O O3 0.748522 0.000000 0.066928
O O4 0.650095 0.867570 0.987093
O O5 0.174416 0.825585 0.371932
O O6 0.154824 0.674139 0.279546
O O7 0.146397 0.640895 0.422542
O O8 0.000000 0.742350 0.359544
O O9 0.833952 0.500000 0.210746
O O10 0.000000 0.395232 0.205668
O O11 0.249616 0.500000 0.948806
O O12 0.322257 0.677744 0.949913
O O13 0.184839 0.629864 0.847459
O O14 0.239154 0.500000 0.741528
O O15 0.327463 0.672538 0.747954
O O16 0.135183 0.664293 0.710667
O O17 0.500000 0.245160 0.493825
O O18 0.321194 0.321194 0.488927
O O19 0.356246 0.155355 0.567376
O O20 0.824850 0.824850 0.626633
O O21 0.742153 0.000000 0.621100
#
# Coordination Sequence:
#
# PCOD8306579 Si02
#       7
#     8   8   8   8   8   8   8
#     4  10  20  33  49  70  97 129 166 207 249 295
#     4  10  20  33  50  74 103 135 172 210 247 290
#     4   9  17  30  49  71  94 123 160 201 245 291
#     4   9  18  32  50  73 100 129 162 201 245 294
#     4   9  18  32  50  74 102 130 162 200 243 293
#     4  10  21  36  54  77 103 131 165 204 247 297
#     4  10  21  36  53  74 100 130 166 206 246 291
#
# _framework density 17.767102999999999
#
# number of rings (size 3 to 8) (size 9 to 14) (size 15 to 20)
#    0.000    2.429    0.000    2.143    0.000    4.857 
#    0.000    2.857    0.000    7.714    0.000    4.000 
#    0.000   10.286    0.000    0.000    0.000    0.000 
#
# Total GULP energy -694513.684716 kJ/mol
# GULP energy per Si atom -12402.030084 kJ/mol
# Density = 1.772666 g / cm^3
# Si number density = 17.767103 Si / 1000 Ang^3
#
#
#
# Elastic Constant Matrix: (Units=GPa)
#
#
# Indices 1 2 3 4 5 6 
#
# 1 102.9486 39.9686 43.5868 0.0000 0.0000 0.0001
# 2 39.9686 102.9486 43.5868 0.0000 0.0000 -0.0001
# 3 43.5868 43.5868 114.9642 0.0000 0.0000 0.0000
# 4 0.0000 0.0000 0.0000 26.3575 0.0000 0.0000
# 5 0.0000 0.0000 0.0000 0.0000 26.3575 0.0000
# 6 0.0001 -0.0001 0.0000 0.0000 0.0000 12.0995
#
#
#
# Elastic Compliance Matrix: (Units=1/GPa)
#
#
# Indices 1 2 3 4 5 6 
#
# 1 0.012490 -0.003388 -0.003451 0.000000 0.000000 0.000000
# 2 -0.003388 0.012490 -0.003451 0.000000 0.000000 0.000000
# 3 -0.003451 -0.003451 0.011315 0.000000 0.000000 0.000000
# 4 0.000000 0.000000 0.000000 0.037940 0.000000 0.000000
# 5 0.000000 0.000000 0.000000 0.000000 0.037940 0.000000
# 6 0.000000 0.000000 0.000000 0.000000 0.000000 0.082648
#
#
# Mechanical properties :
#
#
# Convention : Reuss Voigt Hill
#
# Bulk Modulus (GPa) = 63.63149 63.90512 63.76830
# Shear Modulus (GPa) = 22.66129 25.87752 24.26941
#
# Velocity S-wave (km/s) = 3.57524 3.82053 3.69992
# Velocity P-wave (km/s) = 7.27565 7.45039 7.36354
#
# Compressibility (1/GPa) = 0.01571549
#
# Stress axis : x y z
#
# Youngs Moduli (GPa) = 80.06408 80.06408 88.37801
#
# Poissons Ratio (x) = 0.27126 0.30498
# Poissons Ratio (y) = 0.27126 0.30498
# Poissons Ratio (z) = 0.27629 0.27629
#
# Static dielectric constant tensor:
#      x y z
#    x 3.130520 0.000000 0.000000 
#    y 0.000000 3.130520 0.000000 
#    z 0.000000 0.000000 3.571020 
# 
# 
# High freq. dielectric constant tensor:
#      x y z
#    x 1.676540 0.000000 0.000000 
#    y 0.000000 1.676540 0.000000 
#    z 0.000000 0.000000 1.707220 
# 
# From -- ./inp_files/2131.got.cif
#   From: 2010.03.12/outbox.cif.g09.slc.cpg/sg99_cif.got.tgz:2131.got - 2010.04.08 21:11:30.
