data_PCOD8306531
_publ_section_title
;
Structure prediction by ZEFSAII (Michael W. Deem and Ramdas Pophale) SiO2 
 PCOD8306531
Probable space group: P 4 M M
;
_chemical_formula_sum "Si O2"
_cell_formula_units_Z 56
_cell_length_a 13.944072
_cell_length_b 13.944072
_cell_length_c 17.610167
_cell_angle_alpha 90.000000
_cell_angle_beta 90.000000
_cell_angle_gamma 90.000000
_cell_volume 3424.070576
_symmetry_space_group_name_H-M "P 4 M M"
_symmetry_group_IT_number 99
_symmetry_cell_setting 'tetragonal'
loop_
_space_group_symop_operation_xyz
x,y,z
-y,x,z
-x,-y,z
y,-x,z
-x,y,z
x,-y,z
-y,-x,z
y,x,z
loop_
_atom_site_type_symbol
_atom_site_label
_atom_site_fract_x
_atom_site_fract_y
_atom_site_fract_z
Si Si1 0.734141 0.110608 0.227530
Si Si2 0.610274 0.767132 0.949046
Si Si3 0.107183 0.613472 0.479586
Si Si4 0.386030 0.893625 0.647275
Si Si5 0.239351 0.390636 0.778022
Si Si6 0.890774 0.735735 0.051297
Si Si7 0.230552 0.613976 0.338259
O O1 0.832822 0.167179 0.246284
O O2 0.708276 0.118810 0.139224
O O3 0.645019 0.158464 0.271284
O O4 0.747564 0.000000 0.252275
O O5 0.500000 0.743568 0.967572
O O6 0.670281 0.670281 0.964085
O O7 0.646039 0.852083 0.003246
O O8 0.622380 0.804223 0.862369
O O9 0.100075 0.500000 0.475063
O O10 0.144221 0.644652 0.563522
O O11 0.182297 0.649373 0.416910
O O12 0.000000 0.655496 0.464475
O O13 0.500000 0.895938 0.654008
O O14 0.342520 0.829633 0.715023
O O15 0.344433 0.000000 0.658418
O O16 0.257849 0.500000 0.757601
O O17 0.342524 0.342524 0.773250
O O18 0.831268 0.831268 0.031388
O O19 0.000000 0.756547 0.028545
O O20 0.247864 0.500000 0.334480
O O21 0.332955 0.667046 0.330111
#
# Coordination Sequence:
#
# PCOD8306531 Si02
#       7
#     8   8   8   8   8   8   8
#     4   9  18  32  50  72  95 118 145 179 222 271
#     4   9  18  31  45  63  88 118 154 194 232 269
#     4   8  14  26  44  63  82 107 141 181 223 264
#     4   8  14  25  41  61  84 109 139 177 219 261
#     4   9  17  28  42  61  86 116 148 182 220 262
#     4   9  18  32  49  70  95 119 144 178 221 271
#     4  10  20  32  46  65  90 121 156 192 228 266
#
# _framework density 16.354804000000001
#
# number of rings (size 3 to 8) (size 9 to 14) (size 15 to 20)
#    0.000    3.143    0.000    1.286    0.000    3.571 
#    0.000    5.714    0.000    0.000    0.000    8.000 
#    0.000    0.286    0.000    3.143    0.000    5.429 
#
# Total GULP energy -694101.115405 kJ/mol
# GULP energy per Si atom -12394.662775 kJ/mol
# Density = 1.631758 g / cm^3
# Si number density = 16.354804 Si / 1000 Ang^3
#
#
#
# Elastic Constant Matrix: (Units=GPa)
#
#
# Indices 1 2 3 4 5 6 
#
# 1 87.5083 40.0787 51.0169 0.0000 0.0000 0.0001
# 2 40.0787 87.5083 51.0169 0.0000 0.0000 -0.0001
# 3 51.0169 51.0169 89.2828 0.0000 0.0000 0.0000
# 4 0.0000 0.0000 0.0000 25.0579 0.0000 0.0000
# 5 0.0000 0.0000 0.0000 0.0000 25.0579 0.0000
# 6 0.0001 -0.0001 0.0000 0.0000 0.0000 11.3070
#
#
#
# Elastic Compliance Matrix: (Units=1/GPa)
#
#
# Indices 1 2 3 4 5 6 
#
# 1 0.017759 -0.003325 -0.008247 0.000000 0.000000 0.000000
# 2 -0.003325 0.017759 -0.008247 0.000000 0.000000 0.000000
# 3 -0.008247 -0.008247 0.020626 0.000000 0.000000 0.000000
# 4 0.000000 0.000000 0.000000 0.039908 0.000000 0.000000
# 5 0.000000 0.000000 0.000000 0.000000 0.039908 0.000000
# 6 0.000000 0.000000 0.000000 0.000000 0.000000 0.088441
#
#
# Mechanical properties :
#
#
# Convention : Reuss Voigt Hill
#
# Bulk Modulus (GPa) = 60.59537 60.94718 60.77128
# Shear Modulus (GPa) = 18.55017 20.43037 19.49027
#
# Velocity S-wave (km/s) = 3.37149 3.53823 3.45587
# Velocity P-wave (km/s) = 7.23097 7.35110 7.29128
#
# Compressibility (1/GPa) = 0.01650291
#
# Stress axis : x y z
#
# Youngs Moduli (GPa) = 56.31074 56.31074 48.48353
#
# Poissons Ratio (x) = 0.18725 0.39986
# Poissons Ratio (y) = 0.18725 0.39986
# Poissons Ratio (z) = 0.46441 0.46441
#
# Static dielectric constant tensor:
#      x y z
#    x 2.971030 0.000000 0.000000 
#    y 0.000000 2.971030 0.000000 
#    z 0.000000 0.000000 3.373690 
# 
# 
# High freq. dielectric constant tensor:
#      x y z
#    x 1.609970 0.000000 0.000000 
#    y 0.000000 1.609970 0.000000 
#    z 0.000000 0.000000 1.641390 
# 
# From -- ./inp_files/1776.got.cif
#   From: 2010.03.12/outbox.cif.g09.slc.cpg/sg99_cif.got.tgz:1776.got - 2010.04.08 21:11:30.
