data_PCOD8306752
_publ_section_title
;
Structure prediction by ZEFSAII (Michael W. Deem and Ramdas Pophale) SiO2 
 PCOD8306752
Probable space group: P 42 C M
;
_chemical_formula_sum "Si O2"
_cell_formula_units_Z 64
_cell_length_a 12.259150
_cell_length_b 12.259150
_cell_length_c 23.333681
_cell_angle_alpha 90.000000
_cell_angle_beta 90.000000
_cell_angle_gamma 90.000000
_cell_volume 3506.743287
_symmetry_space_group_name_H-M "P 42 C M"
_symmetry_group_IT_number 101
_symmetry_cell_setting 'tetragonal'
loop_
_space_group_symop_operation_xyz
x,y,z
-y,x,1/2+z
-x,-y,z
y,-x,1/2+z
-x,y,1/2+z
x,-y,1/2+z
-y,-x,z
y,x,z
loop_
_atom_site_type_symbol
_atom_site_label
_atom_site_fract_x
_atom_site_fract_y
_atom_site_fract_z
Si Si1 0.218422 0.598644 0.785290
Si Si2 0.397218 0.214793 0.718233
Si Si3 0.980903 0.704623 0.224051
Si Si4 0.127894 0.688288 0.026009
Si Si5 0.315473 0.866646 0.896517
Si Si6 0.830661 0.005629 0.332149
Si Si7 0.504258 0.872647 0.110490
Si Si8 0.080452 0.259937 0.095697
O O1 0.314897 0.685104 0.776155
O O2 0.257766 0.477181 0.768744
O O3 0.119558 0.626530 0.741499
O O4 0.180252 0.594704 0.852064
O O5 0.297416 0.297416 0.710374
O O6 0.468397 0.209233 0.660342
O O7 0.355213 0.095186 0.733741
O O8 0.979596 0.808282 0.265638
O O9 0.970388 0.747183 0.159248
O O10 0.226800 0.773201 0.032943
O O11 0.151860 0.577113 0.058827
O O12 0.017401 0.744275 0.049408
O O13 0.114649 0.644770 0.960933
O O14 0.214226 0.785775 0.896479
O O15 0.275386 0.983199 0.871146
O O16 0.927359 0.927359 0.352264
O O17 0.869014 0.130987 0.340163
O O18 0.628010 0.849788 0.090153
O O19 0.500000 0.000000 0.131051
O O20 0.158303 0.158303 0.082835
#
# Coordination Sequence:
#
# PCOD8306752 Si02
#       8
#     8   8   8   8   8   8   8   8
#     4  10  20  37  60  82 107 144 190 229 268 327
#     4  12  22  33  54  84 116 144 176 232 285 325
#     4  11  19  34  52  76 110 148 182 218 275 339
#     4  10  20  36  58  83 109 143 188 230 271 324
#     4   8  17  34  56  78 104 144 188 227 270 324
#     4   9  17  29  48  75 108 145 183 224 271 326
#     4  10  19  36  54  75 109 150 187 219 265 327
#     4  11  22  35  55  81 112 148 184 228 275 325
#
# _framework density 18.250551000000002
#
# number of rings (size 3 to 8) (size 9 to 14) (size 15 to 20)
#    0.000    1.875    3.750    3.000    0.000    1.500 
#    0.000    8.750    0.000    4.875    0.000    1.750 
#    0.000    0.000    0.000    0.000    0.000    0.000 
#
# Total GULP energy -793174.572505 kJ/mol
# GULP energy per Si atom -12393.352695 kJ/mol
# Density = 1.820901 g / cm^3
# Si number density = 18.250551 Si / 1000 Ang^3
#
#
#
# Elastic Constant Matrix: (Units=GPa)
#
#
# Indices 1 2 3 4 5 6 
#
# 1 80.7038 35.9225 40.7837 0.0000 0.0000 0.0005
# 2 35.9225 80.7038 40.7837 0.0000 0.0000 -0.0005
# 3 40.7837 40.7837 129.9837 0.0000 0.0000 0.0000
# 4 0.0000 0.0000 0.0000 21.2724 0.0000 0.0000
# 5 0.0000 0.0000 0.0000 0.0000 21.2724 0.0000
# 6 0.0005 -0.0005 0.0000 0.0000 0.0000 15.5491
#
#
#
# Elastic Compliance Matrix: (Units=1/GPa)
#
#
# Indices 1 2 3 4 5 6 
#
# 1 0.016658 -0.005673 -0.003447 0.000000 0.000000 -0.000001
# 2 -0.005673 0.016658 -0.003447 0.000000 0.000000 0.000001
# 3 -0.003447 -0.003447 0.009856 0.000000 0.000000 0.000000
# 4 0.000000 0.000000 0.000000 0.047009 0.000000 0.000000
# 5 0.000000 0.000000 0.000000 0.000000 0.047009 0.000000
# 6 -0.000001 0.000001 0.000000 0.000000 0.000000 0.064312
#
#
# Mechanical properties :
#
#
# Convention : Reuss Voigt Hill
#
# Bulk Modulus (GPa) = 55.43411 58.48569 56.95990
# Shear Modulus (GPa) = 21.49168 23.21221 22.35195
#
# Velocity S-wave (km/s) = 3.43533 3.57019 3.50341
# Velocity P-wave (km/s) = 6.79523 7.00789 6.90238
#
# Compressibility (1/GPa) = 0.01803944
#
# Stress axis : x y z
#
# Youngs Moduli (GPa) = 60.03178 60.03178 101.45995
#
# Poissons Ratio (x) = 0.34056 0.34970
# Poissons Ratio (y) = 0.34056 0.34970
# Poissons Ratio (z) = 0.20691 0.20691
#
# Static dielectric constant tensor:
#      x y z
#    x 3.357100 0.000000 0.000000 
#    y 0.000000 3.357100 0.000000 
#    z 0.000000 0.000000 3.527890 
# 
# 
# High freq. dielectric constant tensor:
#      x y z
#    x 1.693000 0.000000 0.000000 
#    y 0.000000 1.693000 0.000000 
#    z 0.000000 0.000000 1.705230 
# 
# From -- ./inp_files/2805.got.cif
#   From: 2010.03.12/outbox.cif.g09.slc.cpg/sg101_2_cif.got.tgz:2805.got - 2010.04.14 01:38:52.
