data_PCOD8306300
_publ_section_title
;
Structure prediction by ZEFSAII (Michael W. Deem and Ramdas Pophale) SiO2 
 PCOD8306300
Probable space group: I 41 2 2
;
_chemical_formula_sum "Si O2"
_cell_formula_units_Z 112
_cell_length_a 14.469714
_cell_length_b 14.469714
_cell_length_c 21.737323
_cell_angle_alpha 90.000000
_cell_angle_beta 90.000000
_cell_angle_gamma 90.000000
_cell_volume 4551.200339
_symmetry_space_group_name_H-M "I 41 2 2"
_symmetry_group_IT_number 98
_symmetry_cell_setting 'tetragonal'
loop_
_space_group_symop_operation_xyz
x,y,z
-y,1/2+x,1/4+z
-x,-y,z
y,1/2-x,1/4+z
x,1/2-y,1/4-z
-x,1/2+y,1/4-z
y,x,-z
-y,-x,-z
1/2+x,1/2+y,1/2+z
1/2-y,x,3/4+z
1/2-x,1/2-y,1/2+z
1/2+y,-x,3/4+z
1/2+x,-y,3/4-z
1/2-x,y,3/4-z
1/2+y,1/2+x,1/2-z
1/2-y,1/2-x,1/2-z
loop_
_atom_site_type_symbol
_atom_site_label
_atom_site_fract_x
_atom_site_fract_y
_atom_site_fract_z
Si Si1 0.940748 0.820040 0.294255
Si Si2 0.652551 0.350743 0.407656
Si Si3 0.678214 0.070419 0.298415
Si Si4 0.539921 0.667795 0.365650
Si Si5 0.186562 0.455911 0.316190
Si Si6 0.867249 0.355167 0.934194
Si Si7 0.888620 0.760495 0.739228
O O1 0.964499 0.771089 0.358227
O O2 0.917057 0.746838 0.239944
O O3 0.846436 0.875999 0.307812
O O4 0.033593 0.884212 0.284903
O O5 0.750000 0.337513 0.375000
O O6 0.565626 0.369674 0.361120
O O7 0.653754 0.440297 0.452410
O O8 0.634741 0.255560 0.443064
O O9 0.602768 0.102768 0.250000
O O10 0.779592 0.107703 0.277865
O O11 0.645532 0.104472 0.365147
O O12 0.687922 0.959975 0.290818
O O13 0.600156 0.607780 0.414426
O O14 0.582937 0.679273 0.298884
O O15 0.250000 0.467323 0.375000
O O16 0.793302 0.706699 0.750000
#
# Coordination Sequence:
#
# PCOD8306300 Si02
#       7
#    16  16  16  16  16  16  16
#     4  11  25  44  74 107 145 196 242 312 385 455
#     4  10  21  40  69  96 142 188 232 301 375 438
#     4  11  24  46  73  99 142 183 241 313 363 444
#     4  11  24  44  66 104 146 187 256 302 370 472
#     4  11  22  39  67 106 149 189 240 301 373 459
#     4  10  24  44  69 108 138 186 250 298 380 458
#     4  12  28  48  74 104 143 202 250 314 386 449
#
# _framework density 24.608892999999998
#
# number of rings (size 3 to 8) (size 9 to 14) (size 15 to 20)
#    0.000    1.143    2.857    3.429    2.000    6.000 
#    2.571    7.143    0.000    0.000    0.000    0.000 
#    0.000    0.000    0.000    0.000    0.000    0.000 
#
# Total GULP energy -693805.639914 kJ/mol
# GULP energy per Si atom -12389.386427 kJ/mol
# Density = 2.455288 g / cm^3
# Si number density = 24.608893 Si / 1000 Ang^3
#
#
#
# Elastic Constant Matrix: (Units=GPa)
#
#
# Indices 1 2 3 4 5 6 
#
# 1 130.7812 42.5590 16.2523 0.0000 0.0000 0.0000
# 2 42.5590 130.7780 16.2524 0.0000 0.0000 0.0000
# 3 16.2523 16.2524 42.5488 0.0000 0.0000 0.0000
# 4 0.0000 0.0000 0.0000 31.3067 0.0000 0.0000
# 5 0.0000 0.0000 0.0000 0.0000 31.3064 0.0000
# 6 0.0000 0.0000 0.0000 0.0000 0.0000 36.0895
#
#
#
# Elastic Compliance Matrix: (Units=1/GPa)
#
#
# Indices 1 2 3 4 5 6 
#
# 1 0.008775 -0.002561 -0.002374 0.000000 0.000000 0.000000
# 2 -0.002561 0.008775 -0.002374 0.000000 0.000000 0.000000
# 3 -0.002374 -0.002374 0.025316 0.000000 0.000000 0.000000
# 4 0.000000 0.000000 0.000000 0.031942 0.000000 0.000000
# 5 0.000000 0.000000 0.000000 0.000000 0.031942 0.000000
# 6 0.000000 0.000000 0.000000 0.000000 0.000000 0.027709
#
#
# Mechanical properties :
#
#
# Convention : Reuss Voigt Hill
#
# Bulk Modulus (GPa) = 35.39879 50.47061 42.93470
# Shear Modulus (GPa) = 31.54764 35.01013 33.27889
#
# Velocity S-wave (km/s) = 3.58433 3.77591 3.68137
# Velocity P-wave (km/s) = 5.61656 6.28996 5.96277
#
# Compressibility (1/GPa) = 0.02824955
#
# Stress axis : x y z
#
# Youngs Moduli (GPa) = 113.96553 113.96262 39.50117
#
# Poissons Ratio (x) = 0.29181 0.09376
# Poissons Ratio (y) = 0.29181 0.09376
# Poissons Ratio (z) = 0.27051 0.27051
#
# Static dielectric constant tensor:
#      x y z
#    x 4.913260 0.000000 0.000000 
#    y 0.000000 4.913270 0.000000 
#    z 0.000000 0.000000 3.988330 
# 
# 
# High freq. dielectric constant tensor:
#      x y z
#    x 1.989250 0.000000 0.000000 
#    y 0.000000 1.989250 0.000000 
#    z 0.000000 0.000000 1.952330 
# 
# From -- ./inp_files/10098.got.cif
#   From: 2010.03.12/outbox.cif.g09.slc.cpg/sg98_6_cif.got.tgz:10098.got - 2010.04.08 21:04:41.
