data_PCOD8306214
_publ_section_title
;
Structure prediction by ZEFSAII (Michael W. Deem and Ramdas Pophale) SiO2 
 PCOD8306214
Probable space group: I 41 2 2
;
_chemical_formula_sum "Si O2"
_cell_formula_units_Z 64
_cell_length_a 12.764592
_cell_length_b 12.764592
_cell_length_c 20.418709
_cell_angle_alpha 90.000000
_cell_angle_beta 90.000000
_cell_angle_gamma 90.000000
_cell_volume 3326.918449
_symmetry_space_group_name_H-M "I 41 2 2"
_symmetry_group_IT_number 98
_symmetry_cell_setting 'tetragonal'
loop_
_space_group_symop_operation_xyz
x,y,z
-y,1/2+x,1/4+z
-x,-y,z
y,1/2-x,1/4+z
x,1/2-y,1/4-z
-x,1/2+y,1/4-z
y,x,-z
-y,-x,-z
1/2+x,1/2+y,1/2+z
1/2-y,x,3/4+z
1/2-x,1/2-y,1/2+z
1/2+y,-x,3/4+z
1/2+x,-y,3/4-z
1/2-x,y,3/4-z
1/2+y,1/2+x,1/2-z
1/2-y,1/2-x,1/2-z
loop_
_atom_site_type_symbol
_atom_site_label
_atom_site_fract_x
_atom_site_fract_y
_atom_site_fract_z
Si Si1 0.844357 0.250000 0.125000
Si Si2 0.255255 0.321076 0.684088
Si Si3 0.202825 0.009035 0.780805
Si Si4 0.000000 0.000000 0.860015
Si Si5 0.475621 0.778823 0.859935
O O1 0.771354 0.146392 0.133413
O O2 0.923051 0.219832 0.064334
O O3 0.209149 0.250000 0.625000
O O4 0.188601 0.311400 0.750000
O O5 0.371797 0.275988 0.698272
O O6 0.244574 0.444484 0.667389
O O7 0.091983 0.973977 0.809366
O O8 0.206747 0.995356 0.702951
O O9 0.011963 0.101501 0.906318
#
# Coordination Sequence:
#
# PCOD8306214 Si02
#       5
#     8  16  16   8  16
#     4  10  20  34  50  84 116 154 198 232 300 366
#     4  11  20  33  53  85 120 149 192 242 301 353
#     4  10  18  33  52  78 115 148 181 241 293 346
#     4   8  20  34  51  82 113 142 194 234 296 354
#     4  10  20  34  54  78 115 154 189 243 290 353
#
# _framework density 19.237020999999999
#
# number of rings (size 3 to 8) (size 9 to 14) (size 15 to 20)
#    0.000    2.000    3.750    0.750    0.000    0.000 
#    4.500    0.000    0.000   15.000    3.250    0.000 
#    0.000    0.000    0.000    0.000    0.000    0.000 
#
# Total GULP energy -396447.083608 kJ/mol
# GULP energy per Si atom -12388.971363 kJ/mol
# Density = 1.919324 g / cm^3
# Si number density = 19.237021 Si / 1000 Ang^3
#
#
#
# Elastic Constant Matrix: (Units=GPa)
#
#
# Indices 1 2 3 4 5 6 
#
# 1 73.5737 21.0454 32.6818 0.0000 0.0000 0.0000
# 2 21.0454 73.5738 32.6813 0.0000 0.0000 0.0000
# 3 32.6818 32.6813 109.6550 0.0000 0.0000 0.0000
# 4 0.0000 0.0000 0.0000 25.0707 0.0000 0.0000
# 5 0.0000 0.0000 0.0000 0.0000 25.0710 0.0000
# 6 0.0000 0.0000 0.0000 0.0000 0.0000 19.1597
#
#
#
# Elastic Compliance Matrix: (Units=1/GPa)
#
#
# Indices 1 2 3 4 5 6 
#
# 1 0.016173 -0.002864 -0.003967 0.000000 0.000000 0.000000
# 2 -0.002864 0.016173 -0.003966 0.000000 0.000000 0.000000
# 3 -0.003967 -0.003966 0.011484 0.000000 0.000000 0.000000
# 4 0.000000 0.000000 0.000000 0.039887 0.000000 0.000000
# 5 0.000000 0.000000 0.000000 0.000000 0.039887 0.000000
# 6 0.000000 0.000000 0.000000 0.000000 0.000000 0.052193
#
#
# Mechanical properties :
#
#
# Convention : Reuss Voigt Hill
#
# Bulk Modulus (GPa) = 44.97359 47.73549 46.35454
# Shear Modulus (GPa) = 24.41367 25.21988 24.81677
#
# Velocity S-wave (km/s) = 3.56631 3.62471 3.59563
# Velocity P-wave (km/s) = 6.35511 6.51048 6.43326
#
# Compressibility (1/GPa) = 0.02223527
#
# Stress axis : x y z
#
# Youngs Moduli (GPa) = 61.83103 61.83134 87.07848
#
# Poissons Ratio (x) = 0.17710 0.34541
# Poissons Ratio (y) = 0.17710 0.34540
# Poissons Ratio (z) = 0.24526 0.24525
#
# Static dielectric constant tensor:
#      x y z
#    x 3.486210 0.000000 0.000000 
#    y 0.000000 3.486210 0.000000 
#    z 0.000000 0.000000 3.412560 
# 
# 
# High freq. dielectric constant tensor:
#      x y z
#    x 1.730650 0.000000 0.000000 
#    y 0.000000 1.730650 0.000000 
#    z 0.000000 0.000000 1.735330 
# 
# From -- ./inp_files/7405.got.cif
#   From: 2010.03.12/outbox.cif.g09.slc.cpg/sg98_4_cif.got.tgz:7405.got - 2010.04.08 21:04:41.
