data_PCOD8306352
_publ_section_title
;
Structure prediction by ZEFSAII (Michael W. Deem and Ramdas Pophale) SiO2 
 PCOD8306352
Probable space group: I 41 2 2
;
_chemical_formula_sum "Si O2"
_cell_formula_units_Z 44
_cell_length_a 15.837745
_cell_length_b 15.837745
_cell_length_c 7.456357
_cell_angle_alpha 90.000000
_cell_angle_beta 90.000000
_cell_angle_gamma 90.000000
_cell_volume 1870.309095
_symmetry_space_group_name_H-M "I 41 2 2"
_symmetry_group_IT_number 98
_symmetry_cell_setting 'tetragonal'
loop_
_space_group_symop_operation_xyz
x,y,z
-y,1/2+x,1/4+z
-x,-y,z
y,1/2-x,1/4+z
x,1/2-y,1/4-z
-x,1/2+y,1/4-z
y,x,-z
-y,-x,-z
1/2+x,1/2+y,1/2+z
1/2-y,x,3/4+z
1/2-x,1/2-y,1/2+z
1/2+y,-x,3/4+z
1/2+x,-y,3/4-z
1/2-x,y,3/4-z
1/2+y,1/2+x,1/2-z
1/2-y,1/2-x,1/2-z
loop_
_atom_site_type_symbol
_atom_site_label
_atom_site_fract_x
_atom_site_fract_y
_atom_site_fract_z
Si Si1 0.014942 0.186720 0.367181
Si Si2 0.500000 0.500000 0.500000
Si Si3 0.634869 0.546466 0.751932
Si Si4 0.367778 0.750000 0.625000
O O1 0.927808 0.195438 0.257716
O O2 0.060386 0.275013 0.410786
O O3 0.998502 0.140200 0.557147
O O4 0.084996 0.135263 0.256619
O O5 0.581948 0.486810 0.622246
O O6 0.309513 0.809513 0.750000
#
# Coordination Sequence:
#
# PCOD8306352 Si02
#       4
#    16   4  16   8
#     4  10  24  49  76 112 150 198 247 317 381 459
#     4  12  24  42  72 112 146 204 248 308 360 446
#     4  10  24  46  74 111 153 196 251 311 382 449
#     4  12  30  54  74 106 152 208 258 314 378 450
#
# _framework density 23.525521999999999
#
# number of rings (size 3 to 8) (size 9 to 14) (size 15 to 20)
#    0.000    1.455    0.000    2.182   10.182    5.818 
#    6.545   29.091    0.000    0.000    0.000    0.000 
#    0.000    0.000    0.000    0.000    0.000    0.000 
#
# Total GULP energy -272709.490989 kJ/mol
# GULP energy per Si atom -12395.885954 kJ/mol
# Density = 2.347198 g / cm^3
# Si number density = 23.525522 Si / 1000 Ang^3
#
#
#
# Elastic Constant Matrix: (Units=GPa)
#
#
# Indices 1 2 3 4 5 6 
#
# 1 140.3704 86.7077 97.9035 0.0000 0.0000 0.0000
# 2 86.7077 140.3704 97.9035 0.0000 0.0000 0.0000
# 3 97.9035 97.9035 169.9837 0.0000 0.0000 0.0000
# 4 0.0000 0.0000 0.0000 57.0288 0.0000 0.0000
# 5 0.0000 0.0000 0.0000 0.0000 57.0288 0.0000
# 6 0.0000 0.0000 0.0000 0.0000 0.0000 44.4898
#
#
#
# Elastic Compliance Matrix: (Units=1/GPa)
#
#
# Indices 1 2 3 4 5 6 
#
# 1 0.013692 -0.004943 -0.005039 0.000000 0.000000 0.000000
# 2 -0.004943 0.013692 -0.005039 0.000000 0.000000 0.000000
# 3 -0.005039 -0.005039 0.011687 0.000000 0.000000 0.000000
# 4 0.000000 0.000000 0.000000 0.017535 0.000000 0.000000
# 5 0.000000 0.000000 0.000000 0.000000 0.017535 0.000000
# 6 0.000000 0.000000 0.000000 0.000000 0.000000 0.022477
#
#
# Mechanical properties :
#
#
# Convention : Reuss Voigt Hill
#
# Bulk Modulus (GPa) = 110.75198 112.86155 111.80677
# Shear Modulus (GPa) = 38.55951 42.92347 40.74149
#
# Velocity S-wave (km/s) = 4.05291 4.27611 4.16600
# Velocity P-wave (km/s) = 8.31150 8.51225 8.41247
#
# Compressibility (1/GPa) = 0.00902918
#
# Stress axis : x y z
#
# Youngs Moduli (GPa) = 73.03615 73.03615 85.56259
#
# Poissons Ratio (x) = 0.36102 0.43114
# Poissons Ratio (y) = 0.36102 0.43114
# Poissons Ratio (z) = 0.36802 0.36802
#
# Static dielectric constant tensor:
#      x y z
#    x 4.150040 0.000000 0.000000 
#    y 0.000000 4.150040 0.000000 
#    z 0.000000 0.000000 4.859680 
# 
# 
# High freq. dielectric constant tensor:
#      x y z
#    x 1.927860 0.000000 0.000000 
#    y 0.000000 1.927860 0.000000 
#    z 0.000000 0.000000 1.964520 
# 
# From -- ./inp_files/854.got.cif
#   From: 2010.03.12/outbox.cif.g09.slc.cpg/sg98_1_cif.got.tgz:854.got - 2010.04.08 21:04:41.
