data_PCOD8306495
_publ_section_title
;
Structure prediction by ZEFSAII (Michael W. Deem and Ramdas Pophale) SiO2 
 PCOD8306495
Probable space group: P 4 M M
;
_chemical_formula_sum "Si O2"
_cell_formula_units_Z 64
_cell_length_a 17.942523
_cell_length_b 17.942523
_cell_length_c 11.006040
_cell_angle_alpha 90.000000
_cell_angle_beta 90.000000
_cell_angle_gamma 90.000000
_cell_volume 3543.219930
_symmetry_space_group_name_H-M "P 4 M M"
_symmetry_group_IT_number 99
_symmetry_cell_setting 'tetragonal'
loop_
_space_group_symop_operation_xyz
x,y,z
-y,x,z
-x,-y,z
y,-x,z
-x,y,z
x,-y,z
-y,-x,z
y,x,z
loop_
_atom_site_type_symbol
_atom_site_label
_atom_site_fract_x
_atom_site_fract_y
_atom_site_fract_z
Si Si1 0.787642 0.088672 0.972030
Si Si2 0.302657 0.181994 0.161133
Si Si3 0.586718 0.158857 0.582487
Si Si4 0.841337 0.724076 0.739809
Si Si5 0.658946 0.919012 0.371151
Si Si6 0.917698 0.802343 0.515830
Si Si7 0.585063 0.702594 0.137659
Si Si8 0.582671 0.700059 0.424172
O O1 0.866619 0.133382 0.965435
O O2 0.738029 0.104065 0.852940
O O3 0.802943 0.000000 0.986239
O O4 0.737831 0.118513 0.083130
O O5 0.241259 0.241259 0.211164
O O6 0.349987 0.143699 0.268831
O O7 0.364797 0.229261 0.083463
O O8 0.500000 0.154009 0.619878
O O9 0.635952 0.161532 0.706253
O O10 0.608558 0.091593 0.492200
O O11 0.608118 0.229576 0.501434
O O12 0.759037 0.759037 0.768221
O O13 0.874548 0.766413 0.626287
O O14 0.746089 0.919353 0.403809
O O15 0.636243 0.000000 0.318502
O O16 0.876799 0.876799 0.470778
O O17 0.000000 0.824584 0.559066
O O18 0.500000 0.703756 0.088594
O O19 0.622812 0.622812 0.103891
O O20 0.588887 0.715841 0.281674
O O21 0.500000 0.676545 0.459795
O O22 0.632814 0.632814 0.467925
#
# Coordination Sequence:
#
# PCOD8306495 Si02
#       8
#     8   8   8   8   8   8   8   8
#     4  10  21  37  57  80 103 131 169 214 266 320
#     4  10  19  32  52  73  98 133 170 208 251 305
#     4  10  19  31  49  72  98 129 167 210 252 298
#     4   9  18  33  52  71  96 128 164 206 250 303
#     4  10  19  30  45  66  92 123 160 201 245 296
#     4   9  17  28  44  66  90 118 150 188 237 292
#     4   9  17  29  47  72 102 134 168 207 249 295
#     4   9  16  26  43  69 100 131 162 198 242 292
#
# _framework density 18.062666
#
# number of rings (size 3 to 8) (size 9 to 14) (size 15 to 20)
#    0.000    2.500    1.250    1.500    0.000    2.250 
#    0.000    1.875    0.000    4.125    0.000    1.750 
#    0.000    0.000    0.000    7.875    0.000    0.250 
#
# Total GULP energy -793093.873167 kJ/mol
# GULP energy per Si atom -12392.091768 kJ/mol
# Density = 1.802155 g / cm^3
# Si number density = 18.062666 Si / 1000 Ang^3
#
#
#
# Elastic Constant Matrix: (Units=GPa)
#
#
# Indices 1 2 3 4 5 6 
#
# 1 100.9203 48.4050 14.2879 0.0000 0.0000 0.0001
# 2 48.4050 100.9203 14.2879 0.0000 0.0000 -0.0001
# 3 14.2879 14.2879 31.1378 0.0000 0.0000 0.0000
# 4 0.0000 0.0000 0.0000 19.9203 0.0000 0.0000
# 5 0.0000 0.0000 0.0000 0.0000 19.9203 0.0000
# 6 0.0001 -0.0001 0.0000 0.0000 0.0000 20.4132
#
#
#
# Elastic Compliance Matrix: (Units=1/GPa)
#
#
# Indices 1 2 3 4 5 6 
#
# 1 0.013192 -0.005850 -0.003369 0.000000 0.000000 0.000000
# 2 -0.005850 0.013192 -0.003369 0.000000 0.000000 0.000000
# 3 -0.003369 -0.003369 0.035207 0.000000 0.000000 0.000000
# 4 0.000000 0.000000 0.000000 0.050200 0.000000 0.000000
# 5 0.000000 0.000000 0.000000 0.000000 0.050200 0.000000
# 6 0.000000 0.000000 0.000000 0.000000 0.000000 0.048988
#
#
# Mechanical properties :
#
#
# Convention : Reuss Voigt Hill
#
# Bulk Modulus (GPa) = 27.46128 42.99332 35.22730
# Shear Modulus (GPa) = 20.13759 22.45061 21.29410
#
# Velocity S-wave (km/s) = 3.34259 3.52934 3.43724
# Velocity P-wave (km/s) = 5.48941 6.36100 5.94121
#
# Compressibility (1/GPa) = 0.03641490
#
# Stress axis : x y z
#
# Youngs Moduli (GPa) = 75.80488 75.80488 28.40362
#
# Poissons Ratio (x) = 0.44348 0.09568
# Poissons Ratio (y) = 0.44348 0.09568
# Poissons Ratio (z) = 0.25536 0.25536
#
# Static dielectric constant tensor:
#      x y z
#    x 3.531490 0.000000 0.000000 
#    y 0.000000 3.531490 0.000000 
#    z 0.000000 0.000000 3.027920 
# 
# 
# High freq. dielectric constant tensor:
#      x y z
#    x 1.700400 0.000000 0.000000 
#    y 0.000000 1.700400 0.000000 
#    z 0.000000 0.000000 1.661060 
# 
# From -- ./inp_files/1599.got.cif
#   From: 2010.03.12/outbox.cif.g09.slc.cpg/sg99_cif.got.tgz:1599.got - 2010.04.08 21:11:30.
