data_PCOD8306337
_publ_section_title
;
Structure prediction by ZEFSAII (Michael W. Deem and Ramdas Pophale) SiO2 
 PCOD8306337
Probable space group: I 41 2 2
;
_chemical_formula_sum "Si O2"
_cell_formula_units_Z 64
_cell_length_a 11.595838
_cell_length_b 11.595838
_cell_length_c 16.856206
_cell_angle_alpha 90.000000
_cell_angle_beta 90.000000
_cell_angle_gamma 90.000000
_cell_volume 2266.543763
_symmetry_space_group_name_H-M "I 41 2 2"
_symmetry_group_IT_number 98
_symmetry_cell_setting 'tetragonal'
loop_
_space_group_symop_operation_xyz
x,y,z
-y,1/2+x,1/4+z
-x,-y,z
y,1/2-x,1/4+z
x,1/2-y,1/4-z
-x,1/2+y,1/4-z
y,x,-z
-y,-x,-z
1/2+x,1/2+y,1/2+z
1/2-y,x,3/4+z
1/2-x,1/2-y,1/2+z
1/2+y,-x,3/4+z
1/2+x,-y,3/4-z
1/2-x,y,3/4-z
1/2+y,1/2+x,1/2-z
1/2-y,1/2-x,1/2-z
loop_
_atom_site_type_symbol
_atom_site_label
_atom_site_fract_x
_atom_site_fract_y
_atom_site_fract_z
Si Si1 0.040962 0.130624 0.072192
Si Si2 0.537737 0.623773 0.874404
Si Si3 0.334428 0.068141 0.529197
Si Si4 0.307132 0.870393 0.996109
O O1 0.098175 0.153769 0.159546
O O2 0.934086 0.215916 0.060517
O O3 0.136180 0.136180 0.000000
O O4 0.000000 0.000000 0.072998
O O5 0.500000 0.500000 0.907654
O O6 0.641679 0.609196 0.810242
O O7 0.577020 0.699171 0.949867
O O8 0.430164 0.689255 0.832733
O O9 0.378436 0.935876 0.539880
O O10 0.262510 0.737491 0.000000
#
# Coordination Sequence:
#
# PCOD8306337 Si02
#       4
#    16  16  16  16
#     4  11  19  35  58  99 144 182 228 301 387 448
#     4  10  23  42  69 103 143 191 249 317 385 467
#     4  11  24  42  68 106 149 198 254 321 383 457
#     4  11  22  39  68 103 145 194 249 310 389 450
#
# _framework density 28.236827000000002
#
# number of rings (size 3 to 8) (size 9 to 14) (size 15 to 20)
#    0.000    1.250    5.000    2.250    0.000    9.000 
#    0.000    0.000    0.000   36.750    0.000    0.000 
#    0.000    0.000    0.000    0.000    0.000    0.000 
#
# Total GULP energy -396736.393220 kJ/mol
# GULP energy per Si atom -12398.012288 kJ/mol
# Density = 2.817256 g / cm^3
# Si number density = 28.236827 Si / 1000 Ang^3
#
#
#
# Elastic Constant Matrix: (Units=GPa)
#
#
# Indices 1 2 3 4 5 6 
#
# 1 118.7747 34.7987 15.9939 0.0000 0.0000 0.0000
# 2 34.7987 118.7756 15.9939 0.0000 0.0000 0.0000
# 3 15.9939 15.9939 60.2535 0.0000 0.0000 0.0000
# 4 0.0000 0.0000 0.0000 20.8060 0.0000 0.0000
# 5 0.0000 0.0000 0.0000 0.0000 20.8064 0.0000
# 6 0.0000 0.0000 0.0000 0.0000 0.0000 41.2979
#
#
#
# Elastic Compliance Matrix: (Units=1/GPa)
#
#
# Indices 1 2 3 4 5 6 
#
# 1 0.009400 -0.002508 -0.001830 0.000000 0.000000 0.000000
# 2 -0.002508 0.009400 -0.001830 0.000000 0.000000 0.000000
# 3 -0.001830 -0.001830 0.017568 0.000000 0.000000 0.000000
# 4 0.000000 0.000000 0.000000 0.048063 0.000000 0.000000
# 5 0.000000 0.000000 0.000000 0.000000 0.048062 0.000000
# 6 0.000000 0.000000 0.000000 0.000000 0.000000 0.024214
#
#
# Mechanical properties :
#
#
# Convention : Reuss Voigt Hill
#
# Bulk Modulus (GPa) = 41.60653 47.93075 44.76864
# Shear Modulus (GPa) = 28.24006 31.98323 30.11164
#
# Velocity S-wave (km/s) = 3.16589 3.36918 3.26911
# Velocity P-wave (km/s) = 5.30383 5.66979 5.48986
#
# Compressibility (1/GPa) = 0.02403469
#
# Stress axis : x y z
#
# Youngs Moduli (GPa) = 106.37852 106.37942 56.92214
#
# Poissons Ratio (x) = 0.26677 0.10415
# Poissons Ratio (y) = 0.26677 0.10414
# Poissons Ratio (z) = 0.19463 0.19463
#
# Static dielectric constant tensor:
#      x y z
#    x 6.073380 0.000000 0.000000 
#    y 0.000000 6.073480 0.000000 
#    z 0.000000 0.000000 5.886920 
# 
# 
# High freq. dielectric constant tensor:
#      x y z
#    x 2.143860 0.000000 0.000000 
#    y 0.000000 2.143860 0.000000 
#    z 0.000000 0.000000 2.139060 
# 
# From -- ./inp_files/8550.got.cif
#   From: 2010.03.12/outbox.cif.g09.slc.cpg/sg98_5_cif.got.tgz:8550.got - 2010.04.08 21:04:41.
