data_PCOD8306255
_publ_section_title
;
Structure prediction by ZEFSAII (Michael W. Deem and Ramdas Pophale) SiO2 
 PCOD8306255
Probable space group: I 41 2 2
;
_chemical_formula_sum "Si O2"
_cell_formula_units_Z 76
_cell_length_a 19.647186
_cell_length_b 19.647186
_cell_length_c 11.028926
_cell_angle_alpha 90.000000
_cell_angle_beta 90.000000
_cell_angle_gamma 90.000000
_cell_volume 4257.296876
_symmetry_space_group_name_H-M "I 41 2 2"
_symmetry_group_IT_number 98
_symmetry_cell_setting 'tetragonal'
loop_
_space_group_symop_operation_xyz
x,y,z
-y,1/2+x,1/4+z
-x,-y,z
y,1/2-x,1/4+z
x,1/2-y,1/4-z
-x,1/2+y,1/4-z
y,x,-z
-y,-x,-z
1/2+x,1/2+y,1/2+z
1/2-y,x,3/4+z
1/2-x,1/2-y,1/2+z
1/2+y,-x,3/4+z
1/2+x,-y,3/4-z
1/2-x,y,3/4-z
1/2+y,1/2+x,1/2-z
1/2-y,1/2-x,1/2-z
loop_
_atom_site_type_symbol
_atom_site_label
_atom_site_fract_x
_atom_site_fract_y
_atom_site_fract_z
Si Si1 0.897424 0.002935 0.951421
Si Si2 0.308880 0.870999 0.473175
Si Si3 0.039429 0.729317 0.322101
Si Si4 0.250000 0.651218 0.375000
Si Si5 0.500000 0.500000 0.000000
Si Si6 0.466120 0.880590 0.427420
O O1 0.903603 0.007468 0.807622
O O2 0.924217 0.075784 0.000000
O O3 0.822269 0.987579 0.005027
O O4 0.942650 0.942650 0.000000
O O5 0.250000 0.859909 0.375000
O O6 0.296371 0.941489 0.543709
O O7 0.302003 0.810562 0.572784
O O8 0.383860 0.876595 0.413298
O O9 0.104974 0.726554 0.235775
O O10 0.006129 0.803721 0.339112
O O11 0.568312 0.499566 0.080822
#
# Coordination Sequence:
#
# PCOD8306255 Si02
#       6
#    16  16  16   8   4  16
#     4  11  19  34  61  85 107 148 201 245 288 338
#     4  11  22  37  52  78 112 161 200 232 287 331
#     4  11  19  39  55  79 115 146 196 245 286 331
#     4  10  20  36  52  72 114 158 194 242 260 332
#     4  12  24  40  54  88 120 152 200 230 312 360
#     4  11  23  38  57  79 117 156 184 254 287 350
#
# _framework density 17.851703000000001
#
# number of rings (size 3 to 8) (size 9 to 14) (size 15 to 20)
#    0.000    1.053    6.316    3.158    0.000    2.526 
#   24.632    0.000    0.000    0.000    0.000    0.000 
#   12.632    0.000    0.000    0.000    0.000    0.000 
#
# Total GULP energy -470961.022225 kJ/mol
# GULP energy per Si atom -12393.711111 kJ/mol
# Density = 1.781107 g / cm^3
# Si number density = 17.851703 Si / 1000 Ang^3
#
#
#
# Elastic Constant Matrix: (Units=GPa)
#
#
# Indices 1 2 3 4 5 6 
#
# 1 90.2648 54.5669 48.4166 0.0000 0.0000 0.0000
# 2 54.5669 90.2642 48.4170 0.0000 0.0000 0.0000
# 3 48.4166 48.4170 89.4644 0.0000 0.0000 0.0000
# 4 0.0000 0.0000 0.0000 27.4899 0.0000 0.0000
# 5 0.0000 0.0000 0.0000 0.0000 27.4893 0.0000
# 6 0.0000 0.0000 0.0000 0.0000 0.0000 26.9858
#
#
#
# Elastic Compliance Matrix: (Units=1/GPa)
#
#
# Indices 1 2 3 4 5 6 
#
# 1 0.019416 -0.008597 -0.005855 0.000000 0.000000 0.000000
# 2 -0.008597 0.019416 -0.005855 0.000000 0.000000 0.000000
# 3 -0.005855 -0.005855 0.017515 0.000000 0.000000 0.000000
# 4 0.000000 0.000000 0.000000 0.036377 0.000000 0.000000
# 5 0.000000 0.000000 0.000000 0.000000 0.036378 0.000000
# 6 0.000000 0.000000 0.000000 0.000000 0.000000 0.037057
#
#
# Mechanical properties :
#
#
# Convention : Reuss Voigt Hill
#
# Bulk Modulus (GPa) = 63.56131 63.64383 63.60257
# Shear Modulus (GPa) = 23.58286 24.29918 23.94102
#
# Velocity S-wave (km/s) = 3.63856 3.69340 3.66608
# Velocity P-wave (km/s) = 7.30306 7.34283 7.32297
#
# Compressibility (1/GPa) = 0.01573284
#
# Stress axis : x y z
#
# Youngs Moduli (GPa) = 51.50360 51.50274 57.09318
#
# Poissons Ratio (x) = 0.44276 0.33429
# Poissons Ratio (y) = 0.44277 0.33431
# Poissons Ratio (z) = 0.30156 0.30157
#
# Static dielectric constant tensor:
#      x y z
#    x 3.351570 0.000000 0.000000 
#    y 0.000000 3.351600 0.000000 
#    z 0.000000 0.000000 3.500060 
# 
# 
# High freq. dielectric constant tensor:
#      x y z
#    x 1.663130 0.000000 0.000000 
#    y 0.000000 1.663130 0.000000 
#    z 0.000000 0.000000 1.711590 
# 
# From -- ./inp_files/5197.got.cif
#   From: 2010.03.12/outbox.cif.g09.slc.cpg/sg98_3_cif.got.tgz:5197.got - 2010.04.08 21:04:41.
