data_PCOD8306435
_publ_section_title
;
Structure prediction by ZEFSAII (Michael W. Deem and Ramdas Pophale) SiO2 
 PCOD8306435
Probable space group: P 4 M M
;
_chemical_formula_sum "Si O2"
_cell_formula_units_Z 64
_cell_length_a 13.421834
_cell_length_b 13.421834
_cell_length_c 20.940938
_cell_angle_alpha 90.000000
_cell_angle_beta 90.000000
_cell_angle_gamma 90.000000
_cell_volume 3772.418425
_symmetry_space_group_name_H-M "P 4 M M"
_symmetry_group_IT_number 99
_symmetry_cell_setting 'tetragonal'
loop_
_space_group_symop_operation_xyz
x,y,z
-y,x,z
-x,-y,z
y,-x,z
-x,y,z
x,-y,z
-y,-x,z
y,x,z
loop_
_atom_site_type_symbol
_atom_site_label
_atom_site_fract_x
_atom_site_fract_y
_atom_site_fract_z
Si Si1 0.111401 0.619213 0.329900
Si Si2 0.888916 0.381222 0.056866
Si Si3 0.222069 0.617677 0.704466
Si Si4 0.281220 0.883449 0.818334
Si Si5 0.390650 0.118536 0.193436
Si Si6 0.110456 0.382039 0.577659
Si Si7 0.773419 0.382650 0.453639
Si Si8 0.617692 0.776672 0.931335
O O1 0.110774 0.500000 0.326841
O O2 0.150620 0.661917 0.260669
O O3 0.180516 0.656412 0.387236
O O4 0.000000 0.658252 0.343779
O O5 0.893085 0.500000 0.062148
O O6 0.851302 0.337230 0.126129
O O7 0.000000 0.340888 0.041222
O O8 0.814322 0.348765 0.001181
O O9 0.241092 0.500000 0.708658
O O10 0.327617 0.672384 0.715552
O O11 0.142943 0.650763 0.757628
O O12 0.178608 0.652209 0.636461
O O13 0.177892 0.822109 0.817513
O O14 0.346020 0.858436 0.880786
O O15 0.255061 0.000000 0.817676
O O16 0.500000 0.167925 0.193039
O O17 0.400707 0.000000 0.194506
O O18 0.102465 0.500000 0.577480
O O19 0.156938 0.344899 0.511206
O O20 0.000000 0.335410 0.584494
O O21 0.758968 0.500000 0.455182
O O22 0.664793 0.335208 0.461539
O O23 0.500000 0.760604 0.925290
O O24 0.671010 0.671010 0.918141
#
# Coordination Sequence:
#
# PCOD8306435 Si02
#       8
#     8   8   8   8   8   8   8   8
#     4   8  13  23  40  60  81 105 136 180 231 272
#     4   8  13  23  41  63  84 107 139 182 230 276
#     4  10  20  33  50  74 103 134 166 195 224 263
#     4  10  21  36  54  76  99 123 154 193 239 290
#     4   7  10  18  35  59  82 103 132 174 226 277
#     4   9  17  30  48  67  86 111 146 190 236 274
#     4  10  19  29  41  59  85 117 151 184 220 268
#     4  10  20  32  46  66  92 124 162 199 234 274
#
# _framework density 16.965244999999999
#
# number of rings (size 3 to 8) (size 9 to 14) (size 15 to 20)
#    0.000    3.000    0.000    3.375    0.000    4.000 
#    0.000    0.625    0.000    4.500    0.000    0.000 
#    0.000   16.000    0.000    0.000    0.000   29.000 
#
# Total GULP energy -792957.851912 kJ/mol
# GULP energy per Si atom -12389.966436 kJ/mol
# Density = 1.692663 g / cm^3
# Si number density = 16.965245 Si / 1000 Ang^3
#
#
#
# Elastic Constant Matrix: (Units=GPa)
#
#
# Indices 1 2 3 4 5 6 
#
# 1 70.3446 35.7453 37.1554 0.0000 0.0000 0.0001
# 2 35.7453 70.3446 37.1554 0.0000 0.0000 -0.0001
# 3 37.1554 37.1554 146.2161 0.0000 0.0000 0.0000
# 4 0.0000 0.0000 0.0000 14.3267 0.0000 0.0000
# 5 0.0000 0.0000 0.0000 0.0000 14.3267 0.0000
# 6 0.0001 -0.0001 0.0000 0.0000 0.0000 9.8431
#
#
#
# Elastic Compliance Matrix: (Units=1/GPa)
#
#
# Indices 1 2 3 4 5 6 
#
# 1 0.020185 -0.008718 -0.002914 0.000000 0.000000 0.000000
# 2 -0.008718 0.020185 -0.002914 0.000000 0.000000 0.000000
# 3 -0.002914 -0.002914 0.008320 0.000000 0.000000 0.000000
# 4 0.000000 0.000000 0.000000 0.069800 0.000000 0.000000
# 5 0.000000 0.000000 0.000000 0.000000 0.069800 0.000000
# 6 0.000000 0.000000 0.000000 0.000000 0.000000 0.101594
#
#
# Mechanical properties :
#
#
# Convention : Reuss Voigt Hill
#
# Bulk Modulus (GPa) = 51.02431 56.33526 53.67979
# Shear Modulus (GPa) = 15.36063 19.48923 17.42493
#
# Velocity S-wave (km/s) = 3.01228 3.39303 3.20831
# Velocity P-wave (km/s) = 6.49919 6.97342 6.74048
#
# Compressibility (1/GPa) = 0.01959850
#
# Stress axis : x y z
#
# Youngs Moduli (GPa) = 49.54257 49.54257 120.19060
#
# Poissons Ratio (x) = 0.43189 0.35023
# Poissons Ratio (y) = 0.43189 0.35023
# Poissons Ratio (z) = 0.14436 0.14436
#
# Static dielectric constant tensor:
#      x y z
#    x 2.821480 0.000000 0.000000 
#    y 0.000000 2.821480 0.000000 
#    z 0.000000 0.000000 3.746880 
# 
# 
# High freq. dielectric constant tensor:
#      x y z
#    x 1.617160 0.000000 0.000000 
#    y 0.000000 1.617160 0.000000 
#    z 0.000000 0.000000 1.686370 
# 
# From -- ./inp_files/2253.got.cif
#   From: 2010.03.12/outbox.cif.g09.slc.cpg/sg99_cif.got.tgz:2253.got - 2010.04.08 21:11:30.
