data_PCOD8306297
_publ_section_title
;
Structure prediction by ZEFSAII (Michael W. Deem and Ramdas Pophale) SiO2 
 PCOD8306297
Probable space group: I 41 2 2
;
_chemical_formula_sum "Si O2"
_cell_formula_units_Z 56
_cell_length_a 18.743536
_cell_length_b 18.743536
_cell_length_c 7.718353
_cell_angle_alpha 90.000000
_cell_angle_beta 90.000000
_cell_angle_gamma 90.000000
_cell_volume 2711.612870
_symmetry_space_group_name_H-M "I 41 2 2"
_symmetry_group_IT_number 98
_symmetry_cell_setting 'tetragonal'
loop_
_space_group_symop_operation_xyz
x,y,z
-y,1/2+x,1/4+z
-x,-y,z
y,1/2-x,1/4+z
x,1/2-y,1/4-z
-x,1/2+y,1/4-z
y,x,-z
-y,-x,-z
1/2+x,1/2+y,1/2+z
1/2-y,x,3/4+z
1/2-x,1/2-y,1/2+z
1/2+y,-x,3/4+z
1/2+x,-y,3/4-z
1/2-x,y,3/4-z
1/2+y,1/2+x,1/2-z
1/2-y,1/2-x,1/2-z
loop_
_atom_site_type_symbol
_atom_site_label
_atom_site_fract_x
_atom_site_fract_y
_atom_site_fract_z
Si Si1 0.369074 0.410851 0.180571
Si Si2 0.342289 0.750000 0.625000
Si Si3 0.144393 0.542505 0.337155
Si Si4 0.551053 0.778873 0.939484
O O1 0.384765 0.483610 0.281501
O O2 0.393941 0.343878 0.293424
O O3 0.284470 0.403989 0.149125
O O4 0.412545 0.412545 0.000000
O O5 0.287358 0.787358 0.750000
O O6 0.395408 0.686966 0.692790
O O7 0.073843 0.573843 0.250000
O O8 0.197508 0.512876 0.187062
O O9 0.520834 0.750000 0.125000
#
# Coordination Sequence:
#
# PCOD8306297 Si02
#       4
#    16   8  16  16
#     4  10  21  40  64  90 129 166 218 263 317 383
#     4  10  22  44  68  96 124 158 210 258 328 392
#     4  11  22  42  67  91 127 169 206 263 334 382
#     4  10  21  40  62  91 128 170 217 265 315 382
#
# _framework density 20.651916
#
# number of rings (size 3 to 8) (size 9 to 14) (size 15 to 20)
#    0.000    1.714    2.857    0.857    0.000    2.286 
#   10.286   32.857    0.000    0.000    0.000    0.000 
#    0.000    0.000    0.000    0.000    0.000    0.000 
#
# Total GULP energy -346953.735276 kJ/mol
# GULP energy per Si atom -12391.204831 kJ/mol
# Density = 2.060491 g / cm^3
# Si number density = 20.651916 Si / 1000 Ang^3
#
#
#
# Elastic Constant Matrix: (Units=GPa)
#
#
# Indices 1 2 3 4 5 6 
#
# 1 134.9177 86.0962 73.5728 0.0000 0.0000 0.0000
# 2 86.0962 134.9177 73.5728 0.0000 0.0000 0.0000
# 3 73.5728 73.5728 104.3533 0.0000 0.0000 0.0000
# 4 0.0000 0.0000 0.0000 34.2825 0.0000 0.0000
# 5 0.0000 0.0000 0.0000 0.0000 34.2825 0.0000
# 6 0.0000 0.0000 0.0000 0.0000 0.0000 48.7294
#
#
#
# Elastic Compliance Matrix: (Units=1/GPa)
#
#
# Indices 1 2 3 4 5 6 
#
# 1 0.014505 -0.005978 -0.006012 0.000000 0.000000 0.000000
# 2 -0.005978 0.014505 -0.006012 0.000000 0.000000 0.000000
# 3 -0.006012 -0.006012 0.018060 0.000000 0.000000 0.000000
# 4 0.000000 0.000000 0.000000 0.029169 0.000000 0.000000
# 5 0.000000 0.000000 0.000000 0.000000 0.029169 0.000000
# 6 0.000000 0.000000 0.000000 0.000000 0.000000 0.020521
#
#
# Mechanical properties :
#
#
# Convention : Reuss Voigt Hill
#
# Bulk Modulus (GPa) = 90.36163 93.40801 91.88482
# Shear Modulus (GPa) = 30.18905 32.85534 31.52220
#
# Velocity S-wave (km/s) = 3.82750 3.99295 3.91110
# Velocity P-wave (km/s) = 7.96132 8.16003 8.06129
#
# Compressibility (1/GPa) = 0.01106664
#
# Stress axis : x y z
#
# Youngs Moduli (GPa) = 68.94168 68.94168 55.37035
#
# Poissons Ratio (x) = 0.41212 0.33289
# Poissons Ratio (y) = 0.41212 0.33289
# Poissons Ratio (z) = 0.41448 0.41448
#
# Static dielectric constant tensor:
#      x y z
#    x 3.942730 0.000000 0.000000 
#    y 0.000000 3.942730 0.000000 
#    z 0.000000 0.000000 3.850850 
# 
# 
# High freq. dielectric constant tensor:
#      x y z
#    x 1.813690 0.000000 0.000000 
#    y 0.000000 1.813690 0.000000 
#    z 0.000000 0.000000 1.798440 
# 
# From -- ./inp_files/2977.got.cif
#   From: 2010.03.12/outbox.cif.g09.slc.cpg/sg98_2_cif.got.tgz:2977.got - 2010.04.08 21:04:41.
