data_PCOD8306083
_publ_section_title
;
Structure prediction by ZEFSAII (Michael W. Deem and Ramdas Pophale) SiO2 
 PCOD8306083
Probable space group: I 4 2 2 
;
_chemical_formula_sum "Si O2"
_cell_formula_units_Z 60
_cell_length_a 13.343957
_cell_length_b 13.343957
_cell_length_c 16.490284
_cell_angle_alpha 90.000000
_cell_angle_beta 90.000000
_cell_angle_gamma 90.000000
_cell_volume 2936.279566
_symmetry_space_group_name_H-M "I 4 2 2 "
_symmetry_group_IT_number 97
_symmetry_cell_setting 'tetragonal'
loop_
_space_group_symop_operation_xyz
x,y,z
-y,x,z
-x,-y,z
y,-x,z
x,-y,-z
-x,y,-z
y,x,-z
-y,-x,-z
1/2+x,1/2+y,1/2+z
1/2-y,1/2+x,1/2+z
1/2-x,1/2-y,1/2+z
1/2+y,1/2-x,1/2+z
1/2+x,1/2-y,1/2-z
1/2-x,1/2+y,1/2-z
1/2+y,1/2+x,1/2-z
1/2-y,1/2-x,1/2-z
loop_
_atom_site_type_symbol
_atom_site_label
_atom_site_fract_x
_atom_site_fract_y
_atom_site_fract_z
Si Si1 0.694721 0.694721 0.000000
Si Si2 0.672316 0.896897 0.914297
Si Si3 0.500000 0.000000 0.000000
Si Si4 0.106365 0.126033 0.666403
Si Si5 0.212082 0.287919 0.250000
Si Si6 0.000000 0.833964 0.000000
O O1 0.684458 0.811384 0.981726
O O2 0.660904 0.626301 0.925025
O O3 0.563989 0.938680 0.934965
O O4 0.675628 0.854839 0.824389
O O5 0.759092 0.982611 0.923594
O O6 0.170576 0.194503 0.728925
O O7 0.988691 0.139954 0.682050
O O8 0.901420 0.901420 0.000000
#
# Coordination Sequence:
#
# PCOD8306083 Si02
#       6
#     8  16   4  16   8   8
#     4  10  20  37  67  90 124 160 214 266 312 371
#     4  10  22  41  61  94 126 170 212 274 316 385
#     4  10  24  40  68  90 122 168 232 254 312 384
#     4  10  22  41  65  94 125 165 209 261 319 385
#     4  10  24  41  62  93 136 162 206 270 338 373
#     4  10  20  38  64  90 122 172 224 260 312 386
#
# _framework density 20.434021000000001
#
# number of rings (size 3 to 8) (size 9 to 14) (size 15 to 20)
#    0.000    2.000    1.333    0.800    7.467    3.733 
#    4.800    2.667    0.000    0.000    0.000    0.000 
#    0.000    0.000    0.000    0.000    0.000    0.000 
#
# Total GULP energy -371774.592071 kJ/mol
# GULP energy per Si atom -12392.486402 kJ/mol
# Density = 2.038751 g / cm^3
# Si number density = 20.434021 Si / 1000 Ang^3
#
#
#
# Elastic Constant Matrix: (Units=GPa)
#
#
# Indices 1 2 3 4 5 6 
#
# 1 117.2543 70.0452 54.1302 0.0000 0.0000 0.0000
# 2 70.0452 117.2529 54.1300 0.0000 0.0000 0.0000
# 3 54.1302 54.1300 111.6147 0.0000 0.0000 0.0000
# 4 0.0000 0.0000 0.0000 23.9722 0.0000 0.0000
# 5 0.0000 0.0000 0.0000 0.0000 23.9732 0.0000
# 6 0.0000 0.0000 0.0000 0.0000 0.0000 41.8663
#
#
#
# Elastic Compliance Matrix: (Units=1/GPa)
#
#
# Indices 1 2 3 4 5 6 
#
# 1 0.014301 -0.006882 -0.003598 0.000000 0.000000 0.000000
# 2 -0.006882 0.014301 -0.003598 0.000000 0.000000 0.000000
# 3 -0.003598 -0.003598 0.012449 0.000000 0.000000 0.000000
# 4 0.000000 0.000000 0.000000 0.041715 0.000000 0.000000
# 5 0.000000 0.000000 0.000000 0.000000 0.041713 0.000000
# 6 0.000000 0.000000 0.000000 0.000000 0.000000 0.023886
#
#
# Mechanical properties :
#
#
# Convention : Reuss Voigt Hill
#
# Bulk Modulus (GPa) = 77.54929 78.08143 77.81536
# Shear Modulus (GPa) = 27.65213 29.15012 28.40113
#
# Velocity S-wave (km/s) = 3.68263 3.78106 3.73217
# Velocity P-wave (km/s) = 7.49105 7.57340 7.53234
#
# Compressibility (1/GPa) = 0.01289502
#
# Stress axis : x y z
#
# Youngs Moduli (GPa) = 69.92734 69.92641 80.32707
#
# Poissons Ratio (x) = 0.48123 0.28900
# Poissons Ratio (y) = 0.48124 0.28901
# Poissons Ratio (z) = 0.25159 0.25159
#
# Static dielectric constant tensor:
#      x y z
#    x 3.935550 0.000000 0.000000 
#    y 0.000000 3.935560 0.000000 
#    z 0.000000 0.000000 3.445840 
# 
# 
# High freq. dielectric constant tensor:
#      x y z
#    x 1.810830 0.000000 0.000000 
#    y 0.000000 1.810830 0.000000 
#    z 0.000000 0.000000 1.783310 
# 
# From -- ./inp_files/4635.got.cif
#   From: 2010.03.12/outbox.cif.g09.slc.cpg/sg97_3_cif.got.tgz:4635.got - 2010.04.08 20:59:42.
