data_PCOD8306468
_publ_section_title
;
Structure prediction by ZEFSAII (Michael W. Deem and Ramdas Pophale) SiO2 
 PCOD8306468
Probable space group: P 4 M M
;
_chemical_formula_sum "Si O2"
_cell_formula_units_Z 48
_cell_length_a 22.683005
_cell_length_b 22.683005
_cell_length_c 5.195806
_cell_angle_alpha 90.000000
_cell_angle_beta 90.000000
_cell_angle_gamma 90.000000
_cell_volume 2673.339431
_symmetry_space_group_name_H-M "P 4 M M"
_symmetry_group_IT_number 99
_symmetry_cell_setting 'tetragonal'
loop_
_space_group_symop_operation_xyz
x,y,z
-y,x,z
-x,-y,z
y,-x,z
-x,y,z
x,-y,z
-y,-x,z
y,x,z
loop_
_atom_site_type_symbol
_atom_site_label
_atom_site_fract_x
_atom_site_fract_y
_atom_site_fract_z
Si Si1 0.931383 0.760823 0.859340
Si Si2 0.433750 0.869629 0.359565
Si Si3 0.270616 0.364628 0.859562
Si Si4 0.068680 0.164829 0.359345
Si Si5 0.729641 0.434141 0.359565
Si Si6 0.130934 0.636510 0.859564
O O1 0.913608 0.797674 0.608552
O O2 0.895772 0.700877 0.859625
O O3 0.000000 0.745070 0.859429
O O4 0.913612 0.797801 0.109777
O O5 0.500000 0.896080 0.359579
O O6 0.437421 0.799738 0.359575
O O7 0.399126 0.891825 0.611127
O O8 0.399133 0.891823 0.107983
O O9 0.300351 0.300351 0.859573
O O10 0.292735 0.400452 0.611593
O O11 0.200943 0.355576 0.859558
O O12 0.292733 0.400456 0.107523
O O13 0.103752 0.103752 0.359608
O O14 0.000000 0.148079 0.359468
O O15 0.703161 0.500000 0.359570
#
# Coordination Sequence:
#
# PCOD8306468 Si02
#       6
#     8   8   8   8   8   8
#     4  10  21  37  55  76 104 140 178 208 243 307
#     4   9  17  30  50  73  96 128 173 215 249 293
#     4  10  19  29  44  71 101 121 150 199 244 286
#     4  10  21  37  57  80 104 132 170 216 261 307
#     4   9  17  30  46  64  92 129 160 188 233 290
#     4  10  19  32  50  72 100 138 169 200 257 302
#
# _framework density 17.955072000000001
#
# number of rings (size 3 to 8) (size 9 to 14) (size 15 to 20)
#    0.000    2.333    0.000    3.000    0.000    5.500 
#    0.000    0.000    0.000    6.000    0.000    0.000 
#    0.000   23.333    0.000    0.000    0.000    0.000 
#
# Total GULP energy -595286.524314 kJ/mol
# GULP energy per Si atom -12401.802590 kJ/mol
# Density = 1.791421 g / cm^3
# Si number density = 17.955072 Si / 1000 Ang^3
#
#
#
# Elastic Constant Matrix: (Units=GPa)
#
#
# Indices 1 2 3 4 5 6 
#
# 1 85.9036 62.6925 56.9015 0.0000 0.0000 0.0000
# 2 62.6925 85.9036 56.9015 0.0000 0.0000 0.0000
# 3 56.9015 56.9015 186.6540 0.0000 0.0000 0.0000
# 4 0.0000 0.0000 0.0000 72.2679 0.0000 0.0000
# 5 0.0000 0.0000 0.0000 0.0000 72.2679 0.0000
# 6 0.0000 0.0000 0.0000 0.0000 0.0000 2.9921
#
#
#
# Elastic Compliance Matrix: (Units=1/GPa)
#
#
# Indices 1 2 3 4 5 6 
#
# 1 0.025931 -0.017152 -0.002676 0.000000 0.000000 0.000000
# 2 -0.017152 0.025931 -0.002676 0.000000 0.000000 0.000000
# 3 -0.002676 -0.002676 0.006989 0.000000 0.000000 0.000000
# 4 0.000000 0.000000 0.000000 0.013837 0.000000 0.000000
# 5 0.000000 0.000000 0.000000 0.000000 0.013837 0.000000
# 6 0.000000 0.000000 0.000000 0.000000 0.000000 0.334215
#
#
# Mechanical properties :
#
#
# Convention : Reuss Voigt Hill
#
# Bulk Modulus (GPa) = 72.24136 79.05025 75.64580
# Shear Modulus (GPa) = 10.63005 41.63661 26.13333
#
# Velocity S-wave (km/s) = 2.43582 4.82075 3.81922
# Velocity P-wave (km/s) = 6.94498 8.66652 7.85307
#
# Compressibility (1/GPa) = 0.01384249
#
# Stress axis : x y z
#
# Youngs Moduli (GPa) = 38.56376 38.56376 143.07573
#
# Poissons Ratio (x) = 0.66143 0.38293
# Poissons Ratio (y) = 0.66143 0.38293
# Poissons Ratio (z) = 0.10321 0.10321
#
# Static dielectric constant tensor:
#      x y z
#    x 3.129810 0.000000 0.000000 
#    y 0.000000 3.129810 0.000000 
#    z 0.000000 0.000000 3.417990 
# 
# 
# High freq. dielectric constant tensor:
#      x y z
#    x 1.676800 0.000000 0.000000 
#    y 0.000000 1.676800 0.000000 
#    z 0.000000 0.000000 1.720760 
# 
# From -- ./inp_files/361.got.cif
#   From: 2010.03.12/outbox.cif.g09.slc.cpg/sg99_cif.got.tgz:361.got - 2010.04.08 21:11:30.
