data_PCOD8306335
_publ_section_title
;
Structure prediction by ZEFSAII (Michael W. Deem and Ramdas Pophale) SiO2 
 PCOD8306335
Probable space group: I 41 2 2
;
_chemical_formula_sum "Si O2"
_cell_formula_units_Z 88
_cell_length_a 14.642665
_cell_length_b 14.642665
_cell_length_c 18.648148
_cell_angle_alpha 90.000000
_cell_angle_beta 90.000000
_cell_angle_gamma 90.000000
_cell_volume 3998.305371
_symmetry_space_group_name_H-M "I 41 2 2"
_symmetry_group_IT_number 98
_symmetry_cell_setting 'tetragonal'
loop_
_space_group_symop_operation_xyz
x,y,z
-y,1/2+x,1/4+z
-x,-y,z
y,1/2-x,1/4+z
x,1/2-y,1/4-z
-x,1/2+y,1/4-z
y,x,-z
-y,-x,-z
1/2+x,1/2+y,1/2+z
1/2-y,x,3/4+z
1/2-x,1/2-y,1/2+z
1/2+y,-x,3/4+z
1/2+x,-y,3/4-z
1/2-x,y,3/4-z
1/2+y,1/2+x,1/2-z
1/2-y,1/2-x,1/2-z
loop_
_atom_site_type_symbol
_atom_site_label
_atom_site_fract_x
_atom_site_fract_y
_atom_site_fract_z
Si Si1 0.750000 0.487426 0.875000
Si Si2 0.533942 0.692903 0.806331
Si Si3 0.374135 0.222862 0.009900
Si Si4 0.931443 0.083500 0.417442
Si Si5 0.365838 0.033771 0.624638
Si Si6 0.147114 0.536903 0.403872
O O1 0.727562 0.547254 0.945279
O O2 0.841295 0.427321 0.882173
O O3 0.636679 0.656668 0.807243
O O4 0.484525 0.667922 0.881506
O O5 0.533960 0.803704 0.803580
O O6 0.481665 0.652092 0.738271
O O7 0.289191 0.289191 0.000000
O O8 0.414819 0.193679 0.934669
O O9 0.901201 0.098800 0.500000
O O10 0.000000 0.000000 0.409449
O O11 0.453572 0.097902 0.638128
O O12 0.382369 0.926735 0.605195
O O13 0.250000 0.557843 0.375000
#
# Coordination Sequence:
#
# PCOD8306335 Si02
#       6
#     8  16  16  16  16  16
#     4  12  22  38  66  90 134 186 226 280 360 426
#     4  11  23  42  67  93 137 177 226 290 353 404
#     4  11  23  36  64 103 135 172 228 288 356 424
#     4  11  24  41  63  99 138 182 231 283 355 434
#     4  10  23  42  65  96 134 173 224 293 347 413
#     4  10  24  43  68  97 132 178 236 285 353 424
#
# _framework density 22.009326000000001
#
# number of rings (size 3 to 8) (size 9 to 14) (size 15 to 20)
#    0.000    1.273    1.818    3.273   10.182    0.727 
#    1.636    1.818    4.000    0.000    0.000    0.000 
#    0.000    0.000    0.000    0.000    0.000    0.000 
#
# Total GULP energy -545372.561815 kJ/mol
# GULP energy per Si atom -12394.830950 kJ/mol
# Density = 2.195923 g / cm^3
# Si number density = 22.009326 Si / 1000 Ang^3
#
#
#
# Elastic Constant Matrix: (Units=GPa)
#
#
# Indices 1 2 3 4 5 6 
#
# 1 123.1205 47.9069 24.2690 0.0000 0.0000 0.0000
# 2 47.9069 123.1203 24.2691 0.0000 0.0000 0.0000
# 3 24.2690 24.2691 40.7517 0.0000 0.0000 0.0000
# 4 0.0000 0.0000 0.0000 24.0808 0.0000 0.0000
# 5 0.0000 0.0000 0.0000 0.0000 24.0807 0.0000
# 6 0.0000 0.0000 0.0000 0.0000 0.0000 45.1305
#
#
#
# Elastic Compliance Matrix: (Units=1/GPa)
#
#
# Indices 1 2 3 4 5 6 
#
# 1 0.010166 -0.003130 -0.004190 0.000000 0.000000 0.000000
# 2 -0.003130 0.010166 -0.004190 0.000000 0.000000 0.000000
# 3 -0.004190 -0.004190 0.029530 0.000000 0.000000 0.000000
# 4 0.000000 0.000000 0.000000 0.041527 0.000000 0.000000
# 5 0.000000 0.000000 0.000000 0.000000 0.041527 0.000000
# 6 0.000000 0.000000 0.000000 0.000000 0.000000 0.022158
#
#
# Mechanical properties :
#
#
# Convention : Reuss Voigt Hill
#
# Bulk Modulus (GPa) = 37.25645 53.32027 45.28836
# Shear Modulus (GPa) = 26.73213 31.36157 29.04685
#
# Velocity S-wave (km/s) = 3.48887 3.77891 3.63678
# Velocity P-wave (km/s) = 5.76142 6.58172 6.18518
#
# Compressibility (1/GPa) = 0.02684099
#
# Stress axis : x y z
#
# Youngs Moduli (GPa) = 98.36858 98.36827 33.86412
#
# Poissons Ratio (x) = 0.30786 0.14190
# Poissons Ratio (y) = 0.30786 0.14190
# Poissons Ratio (z) = 0.41219 0.41220
#
# Static dielectric constant tensor:
#      x y z
#    x 4.037020 0.000000 0.000000 
#    y 0.000000 4.037020 0.000000 
#    z 0.000000 0.000000 3.781570 
# 
# 
# High freq. dielectric constant tensor:
#      x y z
#    x 1.868150 0.000000 0.000000 
#    y 0.000000 1.868150 0.000000 
#    z 0.000000 0.000000 1.859230 
# 
# From -- ./inp_files/8787.got.cif
#   From: 2010.03.12/outbox.cif.g09.slc.cpg/sg98_5_cif.got.tgz:8787.got - 2010.04.08 21:04:41.
