data_PCOD8306890
_publ_section_title
;
Structure prediction by ZEFSAII (Michael W. Deem and Ramdas Pophale) SiO2 
 PCOD8306890
Probable space group: P 42 N M
;
_chemical_formula_sum "Si O2"
_cell_formula_units_Z 64
_cell_length_a 19.267525
_cell_length_b 19.267525
_cell_length_c 9.932638
_cell_angle_alpha 90.000000
_cell_angle_beta 90.000000
_cell_angle_gamma 90.000000
_cell_volume 3687.367894
_symmetry_space_group_name_H-M "P 42 N M"
_symmetry_group_IT_number 102
_symmetry_cell_setting 'tetragonal'
loop_
_space_group_symop_operation_xyz
x,y,z
1/2-y,1/2+x,1/2+z
-x,-y,z
1/2+y,1/2-x,1/2+z
1/2-x,1/2+y,1/2+z
1/2+x,1/2-y,1/2+z
-y,-x,z
y,x,z
loop_
_atom_site_type_symbol
_atom_site_label
_atom_site_fract_x
_atom_site_fract_y
_atom_site_fract_z
Si Si1 0.389800 0.504605 0.977380
Si Si2 0.548279 0.335270 0.247225
Si Si3 0.425831 0.314179 0.769807
Si Si4 0.016830 0.418112 0.484544
Si Si5 0.824714 0.446459 0.222964
Si Si6 0.068899 0.818449 0.958338
Si Si7 0.544927 0.834202 0.463367
Si Si8 0.340342 0.933557 0.257959
O O1 0.417566 0.582435 0.953219
O O2 0.450567 0.450567 0.957838
O O3 0.333506 0.490926 0.863042
O O4 0.362398 0.498566 0.129016
O O5 0.617819 0.382182 0.266678
O O6 0.565990 0.256975 0.200147
O O7 0.502016 0.339094 0.382165
O O8 0.356300 0.356300 0.808468
O O9 0.446470 0.328488 0.615973
O O10 0.414288 0.234995 0.811652
O O11 0.005832 0.366273 0.612569
O O12 0.096766 0.409989 0.435777
O O13 0.000000 0.500000 0.518090
O O14 0.970102 0.390765 0.363607
O O15 0.836133 0.477425 0.371049
O O16 0.858945 0.371128 0.219023
O O17 0.133527 0.866474 0.911991
O O18 0.087710 0.737110 0.931321
O O19 0.520721 0.835154 0.620622
#
# Coordination Sequence:
#
# PCOD8306890 Si02
#       8
#     8   8   8   8   8   8   8   8
#     4   9  17  30  49  73  98 126 165 211 254 298
#     4  10  20  34  52  75 106 138 172 216 262 309
#     4   9  18  33  52  74 102 135 170 210 256 309
#     4  11  21  32  53  77 104 134 174 220 261 311
#     4  10  21  34  49  76 104 135 171 213 263 306
#     4   9  18  34  53  75 104 137 176 215 258 312
#     4   9  20  33  49  75 104 133 169 215 265 302
#     4  10  20  33  51  74 101 134 171 211 259 306
#
# _framework density 17.356553999999999
#
# number of rings (size 3 to 8) (size 9 to 14) (size 15 to 20)
#    0.000    2.375    1.250    1.125    3.500    1.750 
#    0.000    3.125    0.000    0.750    0.000    8.750 
#    0.000    0.000    0.000    0.000    0.000    0.000 
#
# Total GULP energy -792893.282315 kJ/mol
# GULP energy per Si atom -12388.957536 kJ/mol
# Density = 1.731705 g / cm^3
# Si number density = 17.356554 Si / 1000 Ang^3
#
#
#
# Elastic Constant Matrix: (Units=GPa)
#
#
# Indices 1 2 3 4 5 6 
#
# 1 92.2602 38.3101 32.5415 0.0000 0.0000 0.0003
# 2 38.3101 92.2602 32.5415 0.0000 0.0000 -0.0003
# 3 32.5415 32.5415 61.2945 0.0000 0.0000 0.0000
# 4 0.0000 0.0000 0.0000 25.3758 0.0000 0.0000
# 5 0.0000 0.0000 0.0000 0.0000 25.3758 0.0000
# 6 0.0003 -0.0003 0.0000 0.0000 0.0000 16.3011
#
#
#
# Elastic Compliance Matrix: (Units=1/GPa)
#
#
# Indices 1 2 3 4 5 6 
#
# 1 0.014475 -0.004060 -0.005529 0.000000 0.000000 0.000000
# 2 -0.004060 0.014475 -0.005529 0.000000 0.000000 0.000000
# 3 -0.005529 -0.005529 0.022186 0.000000 0.000000 0.000000
# 4 0.000000 0.000000 0.000000 0.039408 0.000000 0.000000
# 5 0.000000 0.000000 0.000000 0.000000 0.039408 0.000000
# 6 0.000000 0.000000 0.000000 0.000000 0.000000 0.061346
#
#
# Mechanical properties :
#
#
# Convention : Reuss Voigt Hill
#
# Bulk Modulus (GPa) = 47.85091 50.28901 49.06996
# Shear Modulus (GPa) = 21.88175 22.90533 22.39354
#
# Velocity S-wave (km/s) = 3.55451 3.63670 3.59584
# Velocity P-wave (km/s) = 6.66898 6.83162 6.75079
#
# Compressibility (1/GPa) = 0.02089824
#
# Stress axis : x y z
#
# Youngs Moduli (GPa) = 69.08365 69.08365 45.07408
#
# Poissons Ratio (x) = 0.28051 0.24923
# Poissons Ratio (y) = 0.28051 0.24923
# Poissons Ratio (z) = 0.38198 0.38198
#
# Static dielectric constant tensor:
#      x y z
#    x 3.355780 0.000000 0.000000 
#    y 0.000000 3.355780 0.000000 
#    z 0.000000 0.000000 3.363900 
# 
# 
# High freq. dielectric constant tensor:
#      x y z
#    x 1.662610 0.000000 0.000000 
#    y 0.000000 1.662610 0.000000 
#    z 0.000000 0.000000 1.677760 
# 
# From -- ./inp_files/1234.got.cif
#   From: 2010.03.12/outbox.cif.g09.slc.cpg/sg102_1_cif.got.tgz:1234.got - 2010.04.14 01:40:42.
