data_PCOD8306054
_publ_section_title
;
Structure prediction by ZEFSAII (Michael W. Deem and Ramdas Pophale) SiO2 
 PCOD8306054
Probable space group: I 4 2 2 
;
_chemical_formula_sum "Si O2"
_cell_formula_units_Z 112
_cell_length_a 14.002588
_cell_length_b 14.002588
_cell_length_c 25.545778
_cell_angle_alpha 90.000000
_cell_angle_beta 90.000000
_cell_angle_gamma 90.000000
_cell_volume 5008.823808
_symmetry_space_group_name_H-M "I 4 2 2 "
_symmetry_group_IT_number 97
_symmetry_cell_setting 'tetragonal'
loop_
_space_group_symop_operation_xyz
x,y,z
-y,x,z
-x,-y,z
y,-x,z
x,-y,-z
-x,y,-z
y,x,-z
-y,-x,-z
1/2+x,1/2+y,1/2+z
1/2-y,1/2+x,1/2+z
1/2-x,1/2-y,1/2+z
1/2+y,1/2-x,1/2+z
1/2+x,1/2-y,1/2-z
1/2-x,1/2+y,1/2-z
1/2+y,1/2+x,1/2-z
1/2-y,1/2-x,1/2-z
loop_
_atom_site_type_symbol
_atom_site_label
_atom_site_fract_x
_atom_site_fract_y
_atom_site_fract_z
Si Si1 0.407887 0.856713 0.465784
Si Si2 0.604355 0.752451 0.821457
Si Si3 0.611680 0.985855 0.390354
Si Si4 0.798876 0.303491 0.061897
Si Si5 0.393803 0.387043 0.908565
Si Si6 0.868928 0.234677 0.873310
Si Si7 0.644499 0.444852 0.724020
O O1 0.500000 0.878158 0.500000
O O2 0.329918 0.801649 0.500967
O O3 0.433996 0.795945 0.413551
O O4 0.365769 0.955850 0.443870
O O5 0.518439 0.818233 0.843780
O O6 0.609521 0.646244 0.847815
O O7 0.701914 0.808188 0.832349
O O8 0.587427 0.733787 0.760041
O O9 0.639152 0.878637 0.404740
O O10 0.500000 0.000000 0.374401
O O11 0.683825 0.321357 0.061910
O O12 0.824332 0.203832 0.089966
O O13 0.504314 0.367034 0.923235
O O14 0.936085 0.169187 0.837690
O O15 0.622050 0.554433 0.736096
#
# Coordination Sequence:
#
# PCOD8306054 Si02
#       7
#    16  16  16  16  16  16  16
#     4  11  23  41  68  95 133 185 230 275 338 410
#     4  10  21  41  67 101 135 177 221 278 346 416
#     4  11  22  39  66 102 138 178 227 277 335 412
#     4  11  22  39  64 100 134 184 225 281 341 406
#     4  10  19  35  62  96 140 183 224 281 342 415
#     4  10  25  42  66  98 134 171 224 285 337 399
#     4  11  25  44  72  98 128 175 226 285 347 415
#
# _framework density 22.360538999999999
#
# number of rings (size 3 to 8) (size 9 to 14) (size 15 to 20)
#    0.000    1.429    2.857    2.143    4.000    1.143 
#    2.571    0.000    0.000    3.429    0.000    0.000 
#    0.000    0.000    0.000    0.000    0.000    0.000 
#
# Total GULP energy -694042.794683 kJ/mol
# GULP energy per Si atom -12393.621334 kJ/mol
# Density = 2.230965 g / cm^3
# Si number density = 22.360539 Si / 1000 Ang^3
#
#
#
# Elastic Constant Matrix: (Units=GPa)
#
#
# Indices 1 2 3 4 5 6 
#
# 1 64.3206 17.6813 33.4559 0.0000 0.0000 0.0000
# 2 17.6813 64.3206 33.4559 0.0000 0.0000 0.0000
# 3 33.4559 33.4559 125.0016 0.0000 0.0000 0.0000
# 4 0.0000 0.0000 0.0000 33.1641 0.0000 0.0000
# 5 0.0000 0.0000 0.0000 0.0000 33.1641 0.0000
# 6 0.0000 0.0000 0.0000 0.0000 0.0000 19.7894
#
#
#
# Elastic Compliance Matrix: (Units=1/GPa)
#
#
# Indices 1 2 3 4 5 6 
#
# 1 0.018522 -0.002919 -0.004176 0.000000 0.000000 0.000000
# 2 -0.002919 0.018522 -0.004176 0.000000 0.000000 0.000000
# 3 -0.004176 -0.004176 0.010235 0.000000 0.000000 0.000000
# 4 0.000000 0.000000 0.000000 0.030153 0.000000 0.000000
# 5 0.000000 0.000000 0.000000 0.000000 0.030153 0.000000
# 6 0.000000 0.000000 0.000000 0.000000 0.000000 0.050532
#
#
# Mechanical properties :
#
#
# Convention : Reuss Voigt Hill
#
# Bulk Modulus (GPa) = 40.42648 46.98103 43.70375
# Shear Modulus (GPa) = 26.46841 28.49351 27.48096
#
# Velocity S-wave (km/s) = 3.44424 3.57357 3.50950
# Velocity P-wave (km/s) = 5.82544 6.17119 6.00080
#
# Compressibility (1/GPa) = 0.02473626
#
# Stress axis : x y z
#
# Youngs Moduli (GPa) = 53.99077 53.99077 97.70225
#
# Poissons Ratio (x) = 0.15762 0.40799
# Poissons Ratio (y) = 0.15762 0.40799
# Poissons Ratio (z) = 0.22546 0.22546
#
# Static dielectric constant tensor:
#      x y z
#    x 4.130780 0.000000 0.000000 
#    y 0.000000 4.130780 0.000000 
#    z 0.000000 0.000000 3.962370 
# 
# 
# High freq. dielectric constant tensor:
#      x y z
#    x 1.876610 0.000000 0.000000 
#    y 0.000000 1.876610 0.000000 
#    z 0.000000 0.000000 1.870840 
# 
# From -- ./inp_files/7239.got.cif
#   From: 2010.03.12/outbox.cif.g09.slc.cpg/sg97_4_cif.got.tgz:7239.got - 2010.04.08 20:59:42.
