data_PCOD8306673
_publ_section_title
;
Structure prediction by ZEFSAII (Michael W. Deem and Ramdas Pophale) SiO2 
 PCOD8306673
Probable space group: P 4 B M
;
_chemical_formula_sum "Si O2"
_cell_formula_units_Z 40
_cell_length_a 15.070726
_cell_length_b 15.070726
_cell_length_c 7.829661
_cell_angle_alpha 90.000000
_cell_angle_beta 90.000000
_cell_angle_gamma 90.000000
_cell_volume 1778.325708
_symmetry_space_group_name_H-M "P 4 B M"
_symmetry_group_IT_number 100
_symmetry_cell_setting 'tetragonal'
loop_
_space_group_symop_operation_xyz
x,y,z
-y,x,z
-x,-y,z
y,-x,z
1/2-x,1/2+y,z
1/2+x,1/2-y,z
1/2-y,1/2-x,z
1/2+y,1/2+x,z
loop_
_atom_site_type_symbol
_atom_site_label
_atom_site_fract_x
_atom_site_fract_y
_atom_site_fract_z
Si Si1 0.867328 0.367328 0.285931
Si Si2 0.254619 0.981783 0.791344
Si Si3 0.278177 0.778177 0.186152
Si Si4 0.745457 0.018168 0.179567
Si Si5 0.640982 0.475068 0.485526
Si Si6 0.221880 0.278120 0.784932
Si Si7 0.132597 0.632597 0.685152
O O1 0.790733 0.290733 0.268429
O O2 0.961013 0.344586 0.194055
O O3 0.883062 0.383062 0.485517
O O4 0.344709 0.038879 0.776990
O O5 0.193763 0.037159 0.660980
O O6 0.261342 0.880186 0.729610
O O7 0.217847 0.986444 0.985429
O O8 0.380252 0.761382 0.241383
O O9 0.268209 0.768209 0.985554
O O10 0.806505 0.962888 0.309745
O O11 0.602164 0.571904 0.485764
O O12 0.290814 0.209187 0.702835
#
# Coordination Sequence:
#
# PCOD8306673 Si02
#       7
#     4   8   4   8   8   4   4
#     4  12  24  41  68  98 134 177 219 273 332 393
#     4  11  24  43  66  96 132 172 221 272 328 394
#     4  10  24  43  68  97 131 180 223 270 331 391
#     4  11  24  43  66  96 132 172 221 272 328 394
#     4  11  24  40  62  95 128 170 222 271 334 395
#     4  10  24  43  68  97 131 180 223 270 331 391
#     4  12  24  41  68  98 134 177 219 273 332 393
#
# _framework density 22.493065999999999
#
# number of rings (size 3 to 8) (size 9 to 14) (size 15 to 20)
#    0.000    1.000    2.000    4.200    2.800    5.600 
#    0.000    6.000    0.000    0.000    0.000    0.000 
#    0.000    0.000    0.000    0.000    0.000    0.000 
#
# Total GULP energy -495698.888497 kJ/mol
# GULP energy per Si atom -12392.472212 kJ/mol
# Density = 2.244187 g / cm^3
# Si number density = 22.493066 Si / 1000 Ang^3
#
#
#
# Elastic Constant Matrix: (Units=GPa)
#
#
# Indices 1 2 3 4 5 6 
#
# 1 67.9409 -15.5670 9.1044 0.0000 0.0000 -0.0002
# 2 -15.5670 67.9409 9.1044 0.0000 0.0000 0.0002
# 3 9.1044 9.1044 124.8805 0.0000 0.0000 0.0000
# 4 0.0000 0.0000 0.0000 13.0826 0.0000 0.0000
# 5 0.0000 0.0000 0.0000 0.0000 13.0826 0.0000
# 6 -0.0002 0.0002 0.0000 0.0000 0.0000 50.4924
#
#
#
# Elastic Compliance Matrix: (Units=1/GPa)
#
#
# Indices 1 2 3 4 5 6 
#
# 1 0.015782 0.003808 -0.001428 0.000000 0.000000 0.000000
# 2 0.003808 0.015782 -0.001428 0.000000 0.000000 0.000000
# 3 -0.001428 -0.001428 0.008216 0.000000 0.000000 0.000000
# 4 0.000000 0.000000 0.000000 0.076437 0.000000 0.000000
# 5 0.000000 0.000000 0.000000 0.000000 0.076437 0.000000
# 6 0.000000 0.000000 0.000000 0.000000 0.000000 0.019805
#
#
# Mechanical properties :
#
#
# Convention : Reuss Voigt Hill
#
# Bulk Modulus (GPa) = 23.99053 29.56067 26.77560
# Shear Modulus (GPa) = 22.27642 32.53956 27.40799
#
# Velocity S-wave (km/s) = 3.15043 3.80761 3.49450
# Velocity P-wave (km/s) = 4.89106 5.70098 5.31148
#
# Compressibility (1/GPa) = 0.04168311
#
# Stress axis : x y z
#
# Youngs Moduli (GPa) = 63.36144 63.36144 121.71511
#
# Poissons Ratio (x) = -0.24125 0.17384
# Poissons Ratio (y) = -0.24125 0.17384
# Poissons Ratio (z) = 0.09049 0.09049
#
# Static dielectric constant tensor:
#      x y z
#    x 4.141890 0.000000 0.000000 
#    y 0.000000 4.141890 0.000000 
#    z 0.000000 0.000000 5.673810 
# 
# 
# High freq. dielectric constant tensor:
#      x y z
#    x 1.887050 0.000000 0.000000 
#    y 0.000000 1.887050 0.000000 
#    z 0.000000 0.000000 1.897930 
# 
# From -- ./inp_files/814.got.cif
#   From: 2010.03.12/outbox.cif.g09.slc.cpg/sg100_cif.got.tgz:814.got - 2010.04.14 01:37:57.
