data_PCOD8306204
_publ_section_title
;
Structure prediction by ZEFSAII (Michael W. Deem and Ramdas Pophale) SiO2 
 PCOD8306204
Probable space group: I 41 2 2
;
_chemical_formula_sum "Si O2"
_cell_formula_units_Z 96
_cell_length_a 17.619112
_cell_length_b 17.619112
_cell_length_c 16.968517
_cell_angle_alpha 90.000000
_cell_angle_beta 90.000000
_cell_angle_gamma 90.000000
_cell_volume 5267.589465
_symmetry_space_group_name_H-M "I 41 2 2"
_symmetry_group_IT_number 98
_symmetry_cell_setting 'tetragonal'
loop_
_space_group_symop_operation_xyz
x,y,z
-y,1/2+x,1/4+z
-x,-y,z
y,1/2-x,1/4+z
x,1/2-y,1/4-z
-x,1/2+y,1/4-z
y,x,-z
-y,-x,-z
1/2+x,1/2+y,1/2+z
1/2-y,x,3/4+z
1/2-x,1/2-y,1/2+z
1/2+y,-x,3/4+z
1/2+x,-y,3/4-z
1/2-x,y,3/4-z
1/2+y,1/2+x,1/2-z
1/2-y,1/2-x,1/2-z
loop_
_atom_site_type_symbol
_atom_site_label
_atom_site_fract_x
_atom_site_fract_y
_atom_site_fract_z
Si Si1 0.366749 0.746845 0.958355
Si Si2 0.174784 0.216547 0.710985
Si Si3 0.338960 0.889314 0.054373
Si Si4 0.969192 0.797604 0.487653
Si Si5 0.583316 0.000102 0.368142
Si Si6 0.553390 0.646736 0.814347
O O1 0.366850 0.729897 0.864357
O O2 0.316805 0.683196 0.000000
O O3 0.336104 0.830905 0.981028
O O4 0.451140 0.745539 0.993690
O O5 0.163585 0.250000 0.625000
O O6 0.248606 0.251395 0.750000
O O7 0.098776 0.237037 0.758840
O O8 0.192976 0.126519 0.714717
O O9 0.417587 0.888184 0.103644
O O10 0.329358 0.975416 0.019320
O O11 0.963036 0.856641 0.558940
O O12 0.964193 0.841885 0.406368
O O13 0.575127 0.942771 0.443366
O O14 0.500000 0.000000 0.327451
#
# Coordination Sequence:
#
# PCOD8306204 Si02
#       6
#    16  16  16  16  16  16
#     4  11  21  32  50  74 107 146 173 212 250 307
#     4  12  21  34  52  75 106 139 177 215 264 312
#     4  10  22  34  49  75 107 143 182 209 261 307
#     4  11  20  30  47  77 111 142 174 202 252 308
#     4  10  18  29  45  71 113 150 174 195 237 314
#     4  10  21  33  48  74 106 145 173 211 257 317
#
# _framework density 18.224654999999998
#
# number of rings (size 3 to 8) (size 9 to 14) (size 15 to 20)
#    0.000    1.333    5.000    2.000    0.000    3.333 
#    0.000    0.000    0.000    2.000    0.000    0.000 
#    0.000    0.000    0.000    0.000    0.000    0.000 
#
# Total GULP energy -594802.079883 kJ/mol
# GULP energy per Si atom -12391.709998 kJ/mol
# Density = 1.818318 g / cm^3
# Si number density = 18.224655 Si / 1000 Ang^3
#
#
#
# Elastic Constant Matrix: (Units=GPa)
#
#
# Indices 1 2 3 4 5 6 
#
# 1 125.4525 35.4060 29.3569 0.0000 0.0000 0.0000
# 2 35.4060 125.4575 29.3548 0.0000 0.0000 0.0000
# 3 29.3569 29.3548 27.3428 0.0000 0.0000 0.0000
# 4 0.0000 0.0000 0.0000 81.0509 0.0000 0.0000
# 5 0.0000 0.0000 0.0000 0.0000 80.7856 0.0000
# 6 0.0000 0.0000 0.0000 0.0000 0.0000 13.1997
#
#
#
# Elastic Compliance Matrix: (Units=1/GPa)
#
#
# Indices 1 2 3 4 5 6 
#
# 1 0.010664 -0.000441 -0.010976 0.000000 0.000000 0.000000
# 2 -0.000441 0.010663 -0.010974 0.000000 0.000000 0.000000
# 3 -0.010976 -0.010974 0.060138 0.000000 0.000000 0.000000
# 4 0.000000 0.000000 0.000000 0.012338 0.000000 0.000000
# 5 0.000000 0.000000 0.000000 0.000000 0.012378 0.000000
# 6 0.000000 0.000000 0.000000 0.000000 0.000000 0.075759
#
#
# Mechanical properties :
#
#
# Convention : Reuss Voigt Hill
#
# Bulk Modulus (GPa) = 27.26016 51.83201 39.54609
# Shear Modulus (GPa) = 20.92481 47.28292 34.10387
#
# Velocity S-wave (km/s) = 3.39213 5.09910 4.33055
# Velocity P-wave (km/s) = 5.50748 7.94796 6.83749
#
# Compressibility (1/GPa) = 0.03668357
#
# Stress axis : x y z
#
# Youngs Moduli (GPa) = 93.77212 93.78160 16.62834
#
# Poissons Ratio (x) = 0.04140 0.18251
# Poissons Ratio (y) = 0.04140 0.18248
# Poissons Ratio (z) = 1.02922 1.02914
#
# Static dielectric constant tensor:
#      x y z
#    x 2.393170 0.000000 0.000000 
#    y 0.000000 2.398470 0.000000 
#    z 0.000000 0.000000 2.950670 
# 
# 
# High freq. dielectric constant tensor:
#      x y z
#    x 1.707810 0.000000 0.000000 
#    y 0.000000 1.707810 0.000000 
#    z 0.000000 0.000000 1.640860 
# 
# From -- ./inp_files/7694.got.cif
#   From: 2010.03.12/outbox.cif.g09.slc.cpg/sg98_4_cif.got.tgz:7694.got - 2010.04.08 21:04:41.
