data_PCOD8306550
_publ_section_title
;
Structure prediction by ZEFSAII (Michael W. Deem and Ramdas Pophale) SiO2 
 PCOD8306550
Probable space group: P 4 M M
;
_chemical_formula_sum "Si O2"
_cell_formula_units_Z 64
_cell_length_a 14.166409
_cell_length_b 14.166409
_cell_length_c 20.340206
_cell_angle_alpha 90.000000
_cell_angle_beta 90.000000
_cell_angle_gamma 90.000000
_cell_volume 4082.017850
_symmetry_space_group_name_H-M "P 4 M M"
_symmetry_group_IT_number 99
_symmetry_cell_setting 'tetragonal'
loop_
_space_group_symop_operation_xyz
x,y,z
-y,x,z
-x,-y,z
y,-x,z
-x,y,z
x,-y,z
-y,-x,z
y,x,z
loop_
_atom_site_type_symbol
_atom_site_label
_atom_site_fract_x
_atom_site_fract_y
_atom_site_fract_z
Si Si1 0.889766 0.264826 0.680320
Si Si2 0.891290 0.259052 0.195621
Si Si3 0.612524 0.768533 0.586291
Si Si4 0.260440 0.892228 0.342637
Si Si5 0.106927 0.390785 0.461242
Si Si6 0.888005 0.604781 0.939436
Si Si7 0.256914 0.107272 0.830320
Si Si8 0.888045 0.604949 0.084534
O O1 0.833686 0.166315 0.666834
O O2 0.840539 0.350774 0.641892
O O3 0.882374 0.295541 0.756360
O O4 0.000000 0.251824 0.659697
O O5 0.841498 0.158502 0.189149
O O6 0.876016 0.301164 0.268963
O O7 0.845902 0.330056 0.142261
O O8 0.000000 0.240182 0.180068
O O9 0.500000 0.750742 0.595277
O O10 0.668641 0.668641 0.589546
O O11 0.636262 0.819261 0.517683
O O12 0.167044 0.832957 0.356033
O O13 0.339605 0.861752 0.394497
O O14 0.230088 0.000000 0.352496
O O15 0.112008 0.500000 0.444725
O O16 0.000000 0.362545 0.482773
O O17 0.845856 0.500000 0.930302
O O18 0.845891 0.669494 0.881455
O O19 0.000000 0.600077 0.932817
O O20 0.859991 0.643896 0.011967
O O21 0.157069 0.157069 0.838043
O O22 0.237654 0.000000 0.849413
O O23 0.846330 0.500000 0.093687
O O24 0.000000 0.600787 0.091267
#
# Coordination Sequence:
#
# PCOD8306550 Si02
#       8
#     8   8   8   8   8   8   8   8
#     4   9  18  31  46  66  91 118 149 183 218 257
#     4   9  17  27  39  57  81 110 141 170 203 245
#     4  10  20  33  49  68  90 116 145 179 220 265
#     4   9  17  28  41  58  82 111 141 172 204 241
#     4   9  17  29  46  67  87 108 137 173 214 257
#     4   8  14  25  40  57  77 103 136 173 211 246
#     4   9  17  28  42  62  88 116 144 172 203 243
#     4   8  14  25  40  56  75 101 134 173 214 249
#
# _framework density 15.678521
#
# number of rings (size 3 to 8) (size 9 to 14) (size 15 to 20)
#    0.000    3.125    0.000    1.500    0.000    2.875 
#    0.000    6.250    0.000    0.000    0.000    5.250 
#    0.000    0.500    0.000    5.500    0.000    3.500 
#
# Total GULP energy -793156.083479 kJ/mol
# GULP energy per Si atom -12393.063804 kJ/mol
# Density = 1.564284 g / cm^3
# Si number density = 15.678521 Si / 1000 Ang^3
#
#
#
# Elastic Constant Matrix: (Units=GPa)
#
#
# Indices 1 2 3 4 5 6 
#
# 1 72.3955 39.2778 54.4084 0.0000 0.0000 0.0001
# 2 39.2778 72.3955 54.4084 0.0000 0.0000 -0.0001
# 3 54.4084 54.4084 114.4070 0.0000 0.0000 0.0000
# 4 0.0000 0.0000 0.0000 24.5768 0.0000 0.0000
# 5 0.0000 0.0000 0.0000 0.0000 24.5768 0.0000
# 6 0.0001 -0.0001 0.0000 0.0000 0.0000 13.1407
#
#
#
# Elastic Compliance Matrix: (Units=1/GPa)
#
#
# Indices 1 2 3 4 5 6 
#
# 1 0.023442 -0.006754 -0.007936 0.000000 0.000000 0.000000
# 2 -0.006754 0.023442 -0.007936 0.000000 0.000000 0.000000
# 3 -0.007936 -0.007936 0.016289 0.000000 0.000000 0.000000
# 4 0.000000 0.000000 0.000000 0.040689 0.000000 0.000000
# 5 0.000000 0.000000 0.000000 0.000000 0.040689 0.000000
# 6 0.000000 0.000000 0.000000 0.000000 0.000000 0.076100
#
#
# Mechanical properties :
#
#
# Convention : Reuss Voigt Hill
#
# Bulk Modulus (GPa) = 55.80344 61.70968 58.75656
# Shear Modulus (GPa) = 18.39077 19.86576 19.12827
#
# Velocity S-wave (km/s) = 3.42861 3.56345 3.49668
# Velocity P-wave (km/s) = 7.16543 7.50838 7.33891
#
# Compressibility (1/GPa) = 0.01792004
#
# Stress axis : x y z
#
# Youngs Moduli (GPa) = 42.65906 42.65906 61.39042
#
# Poissons Ratio (x) = 0.28811 0.48721
# Poissons Ratio (y) = 0.28811 0.48721
# Poissons Ratio (z) = 0.33855 0.33855
#
# Static dielectric constant tensor:
#      x y z
#    x 2.886460 0.000000 0.000000 
#    y 0.000000 2.886460 0.000000 
#    z 0.000000 0.000000 3.268750 
# 
# 
# High freq. dielectric constant tensor:
#      x y z
#    x 1.579830 0.000000 0.000000 
#    y 0.000000 1.579830 0.000000 
#    z 0.000000 0.000000 1.616680 
# 
# From -- ./inp_files/2091.got.cif
#   From: 2010.03.12/outbox.cif.g09.slc.cpg/sg99_cif.got.tgz:2091.got - 2010.04.08 21:11:30.
