data_PCOD8306573
_publ_section_title
;
Structure prediction by ZEFSAII (Michael W. Deem and Ramdas Pophale) SiO2 
 PCOD8306573
Probable space group: P 4 M M
;
_chemical_formula_sum "Si O2"
_cell_formula_units_Z 64
_cell_length_a 13.287749
_cell_length_b 13.287749
_cell_length_c 20.357243
_cell_angle_alpha 90.000000
_cell_angle_beta 90.000000
_cell_angle_gamma 90.000000
_cell_volume 3594.361820
_symmetry_space_group_name_H-M "P 4 M M"
_symmetry_group_IT_number 99
_symmetry_cell_setting 'tetragonal'
loop_
_space_group_symop_operation_xyz
x,y,z
-y,x,z
-x,-y,z
y,-x,z
-x,y,z
x,-y,z
-y,-x,z
y,x,z
loop_
_atom_site_type_symbol
_atom_site_label
_atom_site_fract_x
_atom_site_fract_y
_atom_site_fract_z
Si Si1 0.381893 0.779211 0.902260
Si Si2 0.782600 0.382418 0.662338
Si Si3 0.717483 0.117207 0.784135
Si Si4 0.778509 0.383759 0.426405
Si Si5 0.276777 0.884192 0.168320
Si Si6 0.115127 0.616560 0.036407
Si Si7 0.222518 0.385671 0.277068
Si Si8 0.718554 0.882894 0.541456
O O1 0.500000 0.761698 0.893627
O O2 0.326979 0.673021 0.889318
O O3 0.343700 0.861917 0.850733
O O4 0.353040 0.817759 0.974436
O O5 0.757007 0.500000 0.664415
O O6 0.677182 0.322819 0.663709
O O7 0.851012 0.353185 0.724058
O O8 0.845206 0.357568 0.597169
O O9 0.822476 0.177524 0.782462
O O10 0.743889 0.000000 0.779394
O O11 0.761603 0.500000 0.444414
O O12 0.672185 0.327816 0.438639
O O13 0.815325 0.369427 0.351563
O O14 0.864414 0.334992 0.471597
O O15 0.174093 0.825908 0.182497
O O16 0.323714 0.846101 0.099891
O O17 0.354687 0.866614 0.227850
O O18 0.248994 0.000000 0.164729
O O19 0.126628 0.500000 0.053241
O O20 0.000000 0.643579 0.019873
O O21 0.253586 0.500000 0.264714
O O22 0.321495 0.321495 0.261119
O O23 0.824340 0.824340 0.546605
O O24 0.742233 0.000000 0.550074
#
# Coordination Sequence:
#
# PCOD8306573 Si02
#       8
#     8   8   8   8   8   8   8   8
#     4  10  20  33  50  73 101 133 168 204 242 287
#     4  10  21  36  54  78 106 135 168 204 243 290
#     4  10  21  36  54  77 103 131 166 207 250 296
#     4   9  18  32  50  74 102 130 161 197 239 290
#     4  10  20  33  49  69  95 127 163 204 246 288
#     4   9  17  30  50  74  96 121 157 200 246 295
#     4   9  18  32  50  73 100 128 159 197 241 290
#     4  10  21  36  53  74 100 130 167 209 250 293
#
# _framework density 17.805665000000001
#
# number of rings (size 3 to 8) (size 9 to 14) (size 15 to 20)
#    0.000    2.375    0.000    2.250    0.000    5.125 
#    0.000    2.500    0.000    6.750    0.000    7.000 
#    0.000    0.000    0.000    0.000    0.000    0.000 
#
# Total GULP energy -793740.894046 kJ/mol
# GULP energy per Si atom -12402.201469 kJ/mol
# Density = 1.776514 g / cm^3
# Si number density = 17.805665 Si / 1000 Ang^3
#
#
#
# Elastic Constant Matrix: (Units=GPa)
#
#
# Indices 1 2 3 4 5 6 
#
# 1 110.3291 46.8678 50.0507 0.0000 0.0000 0.0000
# 2 46.8678 110.3291 50.0507 0.0000 0.0000 0.0000
# 3 50.0507 50.0507 109.8598 0.0000 0.0000 0.0000
# 4 0.0000 0.0000 0.0000 23.7304 0.0000 0.0000
# 5 0.0000 0.0000 0.0000 0.0000 23.7304 0.0000
# 6 0.0000 0.0000 0.0000 0.0000 0.0000 14.4580
#
#
#
# Elastic Compliance Matrix: (Units=1/GPa)
#
#
# Indices 1 2 3 4 5 6 
#
# 1 0.012359 -0.003398 -0.004083 0.000000 0.000000 0.000000
# 2 -0.003398 0.012359 -0.004083 0.000000 0.000000 0.000000
# 3 -0.004083 -0.004083 0.012822 0.000000 0.000000 0.000000
# 4 0.000000 0.000000 0.000000 0.042140 0.000000 0.000000
# 5 0.000000 0.000000 0.000000 0.000000 0.042140 0.000000
# 6 0.000000 0.000000 0.000000 0.000000 0.000000 0.069166
#
#
# Mechanical properties :
#
#
# Convention : Reuss Voigt Hill
#
# Bulk Modulus (GPa) = 69.37477 69.38403 69.37940
# Shear Modulus (GPa) = 22.83950 24.62034 23.72992
#
# Velocity S-wave (km/s) = 3.58538 3.72254 3.65460
# Velocity P-wave (km/s) = 7.49578 7.58474 7.54039
#
# Compressibility (1/GPa) = 0.01441446
#
# Stress axis : x y z
#
# Youngs Moduli (GPa) = 80.90987 80.90987 77.98811
#
# Poissons Ratio (x) = 0.27495 0.31839
# Poissons Ratio (y) = 0.27495 0.31839
# Poissons Ratio (z) = 0.33032 0.33032
#
# Static dielectric constant tensor:
#      x y z
#    x 3.141420 0.000000 0.000000 
#    y 0.000000 3.141420 0.000000 
#    z 0.000000 0.000000 3.544990 
# 
# 
# High freq. dielectric constant tensor:
#      x y z
#    x 1.681360 0.000000 0.000000 
#    y 0.000000 1.681360 0.000000 
#    z 0.000000 0.000000 1.708260 
# 
# From -- ./inp_files/2116.got.cif
#   From: 2010.03.12/outbox.cif.g09.slc.cpg/sg99_cif.got.tgz:2116.got - 2010.04.08 21:11:30.
