data_PCOD8306440
_publ_section_title
;
Structure prediction by ZEFSAII (Michael W. Deem and Ramdas Pophale) SiO2 
 PCOD8306440
Probable space group: P 4 M M
;
_chemical_formula_sum "Si O2"
_cell_formula_units_Z 64
_cell_length_a 14.147464
_cell_length_b 14.147464
_cell_length_c 20.484202
_cell_angle_alpha 90.000000
_cell_angle_beta 90.000000
_cell_angle_gamma 90.000000
_cell_volume 4099.928140
_symmetry_space_group_name_H-M "P 4 M M"
_symmetry_group_IT_number 99
_symmetry_cell_setting 'tetragonal'
loop_
_space_group_symop_operation_xyz
x,y,z
-y,x,z
-x,-y,z
y,-x,z
-x,y,z
x,-y,z
-y,-x,z
y,x,z
loop_
_atom_site_type_symbol
_atom_site_label
_atom_site_fract_x
_atom_site_fract_y
_atom_site_fract_z
Si Si1 0.611707 0.894665 0.896150
Si Si2 0.112581 0.605115 0.379533
Si Si3 0.608063 0.107716 0.139423
Si Si4 0.241075 0.391679 0.633364
Si Si5 0.736053 0.110700 0.262962
Si Si6 0.765820 0.610964 0.015187
Si Si7 0.104299 0.387689 0.523124
Si Si8 0.237024 0.608643 0.780373
O O1 0.500000 0.903690 0.901108
O O2 0.642117 0.847110 0.827793
O O3 0.656655 0.000000 0.899960
O O4 0.648078 0.830149 0.955552
O O5 0.152948 0.500000 0.364454
O O6 0.149132 0.678280 0.325500
O O7 0.145652 0.639559 0.451640
O O8 0.000000 0.599841 0.378402
O O9 0.500000 0.121160 0.162255
O O10 0.674273 0.133750 0.199661
O O11 0.633514 0.176960 0.080679
O O12 0.624722 0.000000 0.115963
O O13 0.260795 0.500000 0.616853
O O14 0.341301 0.341301 0.627007
O O15 0.168961 0.346546 0.581069
O O16 0.199499 0.378498 0.706345
O O17 0.835024 0.164977 0.258561
O O18 0.758890 0.000000 0.268862
O O19 0.741903 0.500000 0.008639
O O20 0.667451 0.667451 0.015605
O O21 0.097812 0.500000 0.528439
O O22 0.000000 0.343653 0.532356
O O23 0.265208 0.500000 0.794294
O O24 0.330388 0.669613 0.794103
#
# Coordination Sequence:
#
# PCOD8306440 Si02
#       8
#     8   8   8   8   8   8   8   8
#     4   9  17  29  44  61  81 106 136 170 207 241
#     4   8  14  26  43  61  80 102 132 173 216 253
#     4   9  17  30  48  67  85 107 138 177 216 246
#     4   9  17  27  39  57  82 112 142 169 199 239
#     4  10  19  29  42  61  85 112 140 169 204 249
#     4  10  19  30  45  65  90 117 142 168 198 238
#     4   8  14  25  41  60  81 104 132 170 215 255
#     4   9  17  28  41  59  84 112 141 171 202 242
#
# _framework density 15.610029000000001
#
# number of rings (size 3 to 8) (size 9 to 14) (size 15 to 20)
#    0.000    3.000    0.000    2.250    0.000    4.500 
#    0.000    3.750    0.000    2.250    0.000    0.000 
#    0.000   13.500    0.000    6.000    0.000    1.625 
#
# Total GULP energy -793342.863540 kJ/mol
# GULP energy per Si atom -12395.982243 kJ/mol
# Density = 1.557450 g / cm^3
# Si number density = 15.610029 Si / 1000 Ang^3
#
#
#
# Elastic Constant Matrix: (Units=GPa)
#
#
# Indices 1 2 3 4 5 6 
#
# 1 68.2952 42.8779 52.7645 0.0000 0.0000 -0.0003
# 2 42.8779 68.2952 52.7645 0.0000 0.0000 0.0003
# 3 52.7645 52.7645 123.2700 0.0000 0.0000 0.0000
# 4 0.0000 0.0000 0.0000 18.9416 0.0000 0.0000
# 5 0.0000 0.0000 0.0000 0.0000 18.9416 0.0000
# 6 -0.0003 0.0003 0.0000 0.0000 0.0000 18.3185
#
#
#
# Elastic Compliance Matrix: (Units=1/GPa)
#
#
# Indices 1 2 3 4 5 6 
#
# 1 0.027247 -0.012096 -0.006485 0.000000 0.000000 0.000001
# 2 -0.012096 0.027247 -0.006485 0.000000 0.000000 -0.000001
# 3 -0.006485 -0.006485 0.013664 0.000000 0.000000 0.000000
# 4 0.000000 0.000000 0.000000 0.052794 0.000000 0.000000
# 5 0.000000 0.000000 0.000000 0.000000 0.052794 0.000000
# 6 0.000001 -0.000001 0.000000 0.000000 0.000000 0.054590
#
#
# Mechanical properties :
#
#
# Convention : Reuss Voigt Hill
#
# Bulk Modulus (GPa) = 55.47791 61.85267 58.66529
# Shear Modulus (GPa) = 17.57611 18.67060 18.12335
#
# Velocity S-wave (km/s) = 3.35916 3.46217 3.41105
# Velocity P-wave (km/s) = 7.11775 7.46270 7.29226
#
# Compressibility (1/GPa) = 0.01802519
#
# Stress axis : x y z
#
# Youngs Moduli (GPa) = 36.70110 36.70110 73.18433
#
# Poissons Ratio (x) = 0.44394 0.47462
# Poissons Ratio (y) = 0.44394 0.47462
# Poissons Ratio (z) = 0.23801 0.23801
#
# Static dielectric constant tensor:
#      x y z
#    x 2.810200 0.000000 0.000000 
#    y 0.000000 2.810200 0.000000 
#    z 0.000000 0.000000 3.278840 
# 
# 
# High freq. dielectric constant tensor:
#      x y z
#    x 1.571980 0.000000 0.000000 
#    y 0.000000 1.571980 0.000000 
#    z 0.000000 0.000000 1.618060 
# 
# From -- ./inp_files/2110.got.cif
#   From: 2010.03.12/outbox.cif.g09.slc.cpg/sg99_cif.got.tgz:2110.got - 2010.04.08 21:11:30.
