data_PCOD8306514
_publ_section_title
;
Structure prediction by ZEFSAII (Michael W. Deem and Ramdas Pophale) SiO2 
 PCOD8306514
Probable space group: P 4 M M
;
_chemical_formula_sum "Si O2"
_cell_formula_units_Z 56
_cell_length_a 15.342492
_cell_length_b 15.342492
_cell_length_c 13.295943
_cell_angle_alpha 90.000000
_cell_angle_beta 90.000000
_cell_angle_gamma 90.000000
_cell_volume 3129.759423
_symmetry_space_group_name_H-M "P 4 M M"
_symmetry_group_IT_number 99
_symmetry_cell_setting 'tetragonal'
loop_
_space_group_symop_operation_xyz
x,y,z
-y,x,z
-x,-y,z
y,-x,z
-x,y,z
x,-y,z
-y,-x,z
y,x,z
loop_
_atom_site_type_symbol
_atom_site_label
_atom_site_fract_x
_atom_site_fract_y
_atom_site_fract_z
Si Si1 0.362989 0.220992 0.615280
Si Si2 0.261873 0.405429 0.397886
Si Si3 0.099350 0.600003 0.977532
Si Si4 0.257559 0.403992 0.834413
Si Si5 0.903768 0.766163 0.550906
Si Si6 0.692740 0.097224 0.336965
Si Si7 0.900958 0.239886 0.119238
O O1 0.275247 0.275247 0.620922
O O2 0.417118 0.250893 0.518110
O O3 0.416222 0.233757 0.717101
O O4 0.327037 0.122728 0.600488
O O5 0.291219 0.500000 0.356468
O O6 0.334325 0.334325 0.368905
O O7 0.170318 0.381729 0.345889
O O8 0.112279 0.500000 0.015136
O O9 0.168533 0.623163 0.890243
O O10 0.000000 0.612251 0.937066
O O11 0.118385 0.666439 0.068301
O O12 0.289839 0.500000 0.870702
O O13 0.333504 0.333504 0.854848
O O14 0.845959 0.845959 0.589350
O O15 0.894548 0.758401 0.430443
O O16 0.000000 0.787800 0.586798
O O17 0.749147 0.113200 0.237675
O O18 0.649973 0.000000 0.334547
O O19 0.834274 0.165727 0.079245
O O20 0.000000 0.209761 0.095084
#
# Coordination Sequence:
#
# PCOD8306514 Si02
#       7
#     8   8   8   8   8   8   8
#     4   8  16  30  45  63  89 121 155 189 228 272
#     4  10  19  31  47  68  96 127 159 195 233 278
#     4   9  19  34  50  70  95 123 158 197 233 273
#     4  10  19  32  51  73  97 124 154 191 236 285
#     4   9  16  27  43  64  92 124 158 196 236 280
#     4   9  18  32  49  68  92 123 158 196 237 277
#     4  10  19  32  51  73  98 126 155 191 235 282
#
# _framework density 17.892748999999998
#
# number of rings (size 3 to 8) (size 9 to 14) (size 15 to 20)
#    0.000    2.714    0.000    3.000    0.000    2.000 
#    0.000    1.429    0.000    7.714    0.000    0.000 
#    0.000    6.857    0.000    0.000    0.000    0.286 
#
# Total GULP energy -693902.474059 kJ/mol
# GULP energy per Si atom -12391.115608 kJ/mol
# Density = 1.785202 g / cm^3
# Si number density = 17.892749 Si / 1000 Ang^3
#
#
#
# Elastic Constant Matrix: (Units=GPa)
#
#
# Indices 1 2 3 4 5 6 
#
# 1 117.8787 68.7520 24.8836 0.0000 0.0000 0.0000
# 2 68.7520 117.8787 24.8836 0.0000 0.0000 0.0000
# 3 24.8836 24.8836 34.7679 0.0000 0.0000 0.0000
# 4 0.0000 0.0000 0.0000 19.0255 0.0000 0.0000
# 5 0.0000 0.0000 0.0000 0.0000 19.0255 0.0000
# 6 0.0000 0.0000 0.0000 0.0000 0.0000 18.3682
#
#
#
# Elastic Compliance Matrix: (Units=1/GPa)
#
#
# Indices 1 2 3 4 5 6 
#
# 1 0.013489 -0.006867 -0.004739 0.000000 0.000000 0.000000
# 2 -0.006867 0.013489 -0.004739 0.000000 0.000000 0.000000
# 3 -0.004739 -0.004739 0.035546 0.000000 0.000000 0.000000
# 4 0.000000 0.000000 0.000000 0.052561 0.000000 0.000000
# 5 0.000000 0.000000 0.000000 0.000000 0.052561 0.000000
# 6 0.000000 0.000000 0.000000 0.000000 0.000000 0.054442
#
#
# Mechanical properties :
#
#
# Convention : Reuss Voigt Hill
#
# Bulk Modulus (GPa) = 33.52041 56.39598 44.95820
# Shear Modulus (GPa) = 18.88767 21.41759 20.15263
#
# Velocity S-wave (km/s) = 3.25253 3.46352 3.35968
# Velocity P-wave (km/s) = 5.73411 6.89797 6.34279
#
# Compressibility (1/GPa) = 0.02983257
#
# Stress axis : x y z
#
# Youngs Moduli (GPa) = 74.13589 74.13589 28.13238
#
# Poissons Ratio (x) = 0.50907 0.13333
# Poissons Ratio (y) = 0.50907 0.13333
# Poissons Ratio (z) = 0.35136 0.35136
#
# Static dielectric constant tensor:
#      x y z
#    x 3.279060 0.000000 0.000000 
#    y 0.000000 3.279060 0.000000 
#    z 0.000000 0.000000 3.215570 
# 
# 
# High freq. dielectric constant tensor:
#      x y z
#    x 1.690150 0.000000 0.000000 
#    y 0.000000 1.690150 0.000000 
#    z 0.000000 0.000000 1.667950 
# 
# From -- ./inp_files/1507.got.cif
#   From: 2010.03.12/outbox.cif.g09.slc.cpg/sg99_cif.got.tgz:1507.got - 2010.04.08 21:11:30.
