data_PCOD8306787
_publ_section_title
;
Structure prediction by ZEFSAII (Michael W. Deem and Ramdas Pophale) SiO2 
 PCOD8306787
Probable space group: P 42 C M
;
_chemical_formula_sum "Si O2"
_cell_formula_units_Z 48
_cell_length_a 11.054146
_cell_length_b 11.054146
_cell_length_c 19.043702
_cell_angle_alpha 90.000000
_cell_angle_beta 90.000000
_cell_angle_gamma 90.000000
_cell_volume 2327.028860
_symmetry_space_group_name_H-M "P 42 C M"
_symmetry_group_IT_number 101
_symmetry_cell_setting 'tetragonal'
loop_
_space_group_symop_operation_xyz
x,y,z
-y,x,1/2+z
-x,-y,z
y,-x,1/2+z
-x,y,1/2+z
x,-y,1/2+z
-y,-x,z
y,x,z
loop_
_atom_site_type_symbol
_atom_site_label
_atom_site_fract_x
_atom_site_fract_y
_atom_site_fract_z
Si Si1 0.754606 0.051800 0.498250
Si Si2 0.494662 0.304261 0.651301
Si Si3 0.102073 0.602073 0.901624
Si Si4 0.403256 0.903256 0.747507
Si Si5 0.745398 0.448198 0.498251
Si Si6 0.804262 0.994662 0.651301
O O1 0.884393 0.115608 0.481254
O O2 0.653612 0.153609 0.503423
O O3 0.721650 0.951621 0.439821
O O4 0.755817 0.981466 0.572286
O O5 0.604103 0.395898 0.653499
O O6 0.369224 0.369224 0.674068
O O7 0.527750 0.199110 0.704602
O O8 0.481467 0.255811 0.572287
O O9 0.143750 0.643750 0.823371
O O10 0.000000 0.500000 0.903430
O O11 0.221649 0.548377 0.939822
O O12 0.500000 0.000000 0.769835
O O13 0.300893 0.972251 0.704600
O O14 0.615611 0.384390 0.481256
O O15 0.869225 0.869225 0.674069
O O16 0.895896 0.104105 0.653502
#
# Coordination Sequence:
#
# PCOD8306787 Si02
#       6
#     8   8   8   8   8   8
#     4   9  17  33  58  82 111 154 200 247 298 351
#     4  10  21  38  60  85 115 156 204 247 294 353
#     4   9  20  35  55  85 117 153 196 239 296 358
#     4  11  23  37  57  89 125 158 193 242 302 360
#     4   9  17  33  58  82 111 154 200 247 298 351
#     4  10  21  38  60  85 115 156 204 247 294 353
#
# _framework density 20.627161000000001
#
# number of rings (size 3 to 8) (size 9 to 14) (size 15 to 20)
#    0.000    2.333    1.667    0.500    2.333    2.000 
#    0.000    6.667    0.000    4.000    0.000    0.000 
#    0.000    0.000    0.000    0.000    0.000    0.000 
#
# Total GULP energy -594935.672732 kJ/mol
# GULP energy per Si atom -12394.493182 kJ/mol
# Density = 2.058021 g / cm^3
# Si number density = 20.627161 Si / 1000 Ang^3
#
#
#
# Elastic Constant Matrix: (Units=GPa)
#
#
# Indices 1 2 3 4 5 6 
#
# 1 64.1917 52.8865 66.6445 0.0000 0.0000 0.0000
# 2 52.8865 64.1917 66.6445 0.0000 0.0000 0.0000
# 3 66.6445 66.6445 174.3404 0.0000 0.0000 0.0000
# 4 0.0000 0.0000 0.0000 -5.8932 0.0000 0.0000
# 5 0.0000 0.0000 0.0000 0.0000 -5.8932 0.0000
# 6 0.0000 0.0000 0.0000 0.0000 0.0000 31.5925
#
#
#
# Elastic Compliance Matrix: (Units=1/GPa)
#
#
# Indices 1 2 3 4 5 6 
#
# 1 0.051789 -0.036666 -0.005781 0.000000 0.000000 0.000000
# 2 -0.036666 0.051789 -0.005781 0.000000 0.000000 0.000000
# 3 -0.005781 -0.005781 0.010156 0.000000 0.000000 0.000000
# 4 0.000000 0.000000 0.000000 -0.169687 0.000000 0.000000
# 5 0.000000 0.000000 0.000000 0.000000 -0.169687 0.000000
# 6 0.000000 0.000000 0.000000 0.000000 0.000000 0.031653
#
#
# Mechanical properties :
#
#
# Convention : Reuss Voigt Hill
#
# Bulk Modulus (GPa) = 57.87942 75.00833 66.44388
# Shear Modulus (GPa) = -54.48244 11.73110 -21.37567
#
# Velocity S-wave (km/s) = -5.14493 2.38737 -3.22263
# Velocity P-wave (km/s) = 2.67825 6.63643 4.29355
#
# Compressibility (1/GPa) = 0.01727730
#
# Stress axis : x y z
#
# Youngs Moduli (GPa) = 19.30912 19.30912 98.46817
#
# Poissons Ratio (x) = 0.70800 0.56923
# Poissons Ratio (y) = 0.70800 0.56923
# Poissons Ratio (z) = 0.11162 0.11162
#
# Static dielectric constant tensor:
#      x y z
#    x 3.786590 0.000000 0.000000 
#    y 0.000000 3.786590 0.000000 
#    z 0.000000 0.000000 3.960780 
# 
# 
# High freq. dielectric constant tensor:
#      x y z
#    x 1.801960 0.000000 0.000000 
#    y 0.000000 1.801960 0.000000 
#    z 0.000000 0.000000 1.802520 
# 
# From -- ./inp_files/2150.got.cif
#   From: 2010.03.12/outbox.cif.g09.slc.cpg/sg101_2_cif.got.tgz:2150.got - 2010.04.14 01:38:52.
