data_PCOD8306358
_publ_section_title
;
Structure prediction by ZEFSAII (Michael W. Deem and Ramdas Pophale) SiO2 
 PCOD8306358
Probable space group: I 41 2 2
;
_chemical_formula_sum "Si O2"
_cell_formula_units_Z 24
_cell_length_a 7.692641
_cell_length_b 7.692641
_cell_length_c 13.971083
_cell_angle_alpha 90.000000
_cell_angle_beta 90.000000
_cell_angle_gamma 90.000000
_cell_volume 826.762944
_symmetry_space_group_name_H-M "I 41 2 2"
_symmetry_group_IT_number 98
_symmetry_cell_setting 'tetragonal'
loop_
_space_group_symop_operation_xyz
x,y,z
-y,1/2+x,1/4+z
-x,-y,z
y,1/2-x,1/4+z
x,1/2-y,1/4-z
-x,1/2+y,1/4-z
y,x,-z
-y,-x,-z
1/2+x,1/2+y,1/2+z
1/2-y,x,3/4+z
1/2-x,1/2-y,1/2+z
1/2+y,-x,3/4+z
1/2+x,-y,3/4-z
1/2-x,y,3/4-z
1/2+y,1/2+x,1/2-z
1/2-y,1/2-x,1/2-z
loop_
_atom_site_type_symbol
_atom_site_label
_atom_site_fract_x
_atom_site_fract_y
_atom_site_fract_z
Si Si1 0.694153 0.561441 0.172202
Si Si2 0.250000 0.575457 0.375000
O O1 0.500000 0.500000 0.162298
O O2 0.708459 0.750000 0.125000
O O3 0.761318 0.550665 0.282822
O O4 0.810044 0.423824 0.111700
#
# Coordination Sequence:
#
# PCOD8306358 Si02
#       2
#    16   8
#     4  11  24  54  92 137 191 248 313 396 469 563
#     4  10  26  54  86 144 190 248 318 378 492 556
#
# _framework density 29.028873000000001
#
# number of rings (size 3 to 8) (size 9 to 14) (size 15 to 20)
#    0.000    1.333    3.333    0.000    0.000    2.667 
#   18.000    6.667    0.000   16.000    0.000    0.000 
#    0.000    0.000    0.000    0.000    0.000    0.000 
#
# Total GULP energy -148785.265157 kJ/mol
# GULP energy per Si atom -12398.772096 kJ/mol
# Density = 2.896280 g / cm^3
# Si number density = 29.028873 Si / 1000 Ang^3
#
#
#
# Elastic Constant Matrix: (Units=GPa)
#
#
# Indices 1 2 3 4 5 6 
#
# 1 292.3997 116.7223 105.4219 0.0000 0.0000 0.0000
# 2 116.7223 292.3997 105.4219 0.0000 0.0000 0.0000
# 3 105.4219 105.4219 181.9335 0.0000 0.0000 0.0000
# 4 0.0000 0.0000 0.0000 33.0802 0.0000 0.0000
# 5 0.0000 0.0000 0.0000 0.0000 33.0802 0.0000
# 6 0.0000 0.0000 0.0000 0.0000 0.0000 52.4062
#
#
#
# Elastic Compliance Matrix: (Units=1/GPa)
#
#
# Indices 1 2 3 4 5 6 
#
# 1 0.004589 -0.001104 -0.002019 0.000000 0.000000 0.000000
# 2 -0.001104 0.004589 -0.002019 0.000000 0.000000 0.000000
# 3 -0.002019 -0.002019 0.007837 0.000000 0.000000 0.000000
# 4 0.000000 0.000000 0.000000 0.030230 0.000000 0.000000
# 5 0.000000 0.000000 0.000000 0.000000 0.030230 0.000000
# 6 0.000000 0.000000 0.000000 0.000000 0.000000 0.019082
#
#
# Mechanical properties :
#
#
# Convention : Reuss Voigt Hill
#
# Bulk Modulus (GPa) = 148.60584 157.98500 153.29542
# Shear Modulus (GPa) = 45.83678 52.99110 49.41394
#
# Velocity S-wave (km/s) = 3.97798 4.27718 4.13029
# Velocity P-wave (km/s) = 8.50898 8.88447 8.69875
#
# Compressibility (1/GPa) = 0.00672921
#
# Stress axis : x y z
#
# Youngs Moduli (GPa) = 217.93129 217.93129 127.60360
#
# Poissons Ratio (x) = 0.24052 0.25768
# Poissons Ratio (y) = 0.24052 0.25768
# Poissons Ratio (z) = 0.44008 0.44008
#
# Static dielectric constant tensor:
#      x y z
#    x 7.179580 0.000000 0.000000 
#    y 0.000000 7.179580 0.000000 
#    z 0.000000 0.000000 5.638000 
# 
# 
# High freq. dielectric constant tensor:
#      x y z
#    x 2.236940 0.000000 0.000000 
#    y 0.000000 2.236940 0.000000 
#    z 0.000000 0.000000 2.185160 
# 
# From -- ./inp_files/5666.got.cif
#   From: 2010.03.12/outbox.cif.g09.slc.cpg/sg98_3_cif.got.tgz:5666.got - 2010.04.08 21:04:41.
