data_PCOD8306019
_publ_section_title
;
Structure prediction by ZEFSAII (Michael W. Deem and Ramdas Pophale) SiO2 
 PCOD8306019
Probable space group: I 4 2 2 
;
_chemical_formula_sum "Si O2"
_cell_formula_units_Z 80
_cell_length_a 17.725038
_cell_length_b 17.725038
_cell_length_c 14.049943
_cell_angle_alpha 90.000000
_cell_angle_beta 90.000000
_cell_angle_gamma 90.000000
_cell_volume 4414.168550
_symmetry_space_group_name_H-M "I 4 2 2 "
_symmetry_group_IT_number 97
_symmetry_cell_setting 'tetragonal'
loop_
_space_group_symop_operation_xyz
x,y,z
-y,x,z
-x,-y,z
y,-x,z
x,-y,-z
-x,y,-z
y,x,-z
-y,-x,-z
1/2+x,1/2+y,1/2+z
1/2-y,1/2+x,1/2+z
1/2-x,1/2-y,1/2+z
1/2+y,1/2-x,1/2+z
1/2+x,1/2-y,1/2-z
1/2-x,1/2+y,1/2-z
1/2+y,1/2+x,1/2-z
1/2-y,1/2-x,1/2-z
loop_
_atom_site_type_symbol
_atom_site_label
_atom_site_fract_x
_atom_site_fract_y
_atom_site_fract_z
Si Si1 0.385705 0.239500 0.255123
Si Si2 0.863380 0.763742 0.247672
Si Si3 0.934096 0.543251 0.099670
Si Si4 0.785364 0.483016 0.602423
Si Si5 0.730731 0.986972 0.612474
O O1 0.331103 0.168898 0.250000
O O2 0.339031 0.315850 0.268841
O O3 0.438648 0.221040 0.343147
O O4 0.433895 0.252800 0.159431
O O5 0.809684 0.690317 0.250000
O O6 0.918209 0.759839 0.157011
O O7 0.914306 0.774927 0.344264
O O8 0.954918 0.629688 0.086625
O O9 0.853819 0.533095 0.149808
O O10 0.000000 0.500000 0.158928
O O11 0.926188 0.500000 0.000000
O O12 0.748467 0.500000 0.500000
O O13 0.742397 0.000000 0.500000
#
# Coordination Sequence:
#
# PCOD8306019 Si02
#       5
#    16  16  16  16  16
#     4  10  23  36  55  84 117 155 196 231 286 348
#     4  10  21  39  54  81 120 154 191 237 284 342
#     4  10  17  28  53  84 116 140 179 220 270 349
#     4  11  21  36  57  84 116 157 189 233 283 339
#     4  10  21  36  57  83 113 151 191 235 288 338
#
# _framework density 18.123457999999999
#
# number of rings (size 3 to 8) (size 9 to 14) (size 15 to 20)
#    0.000    1.800    4.000    1.200    2.800    1.600 
#    0.000    7.000    0.000    9.600    0.000   11.200 
#    0.000    0.000    0.000    0.000    0.000    0.000 
#
# Total GULP energy -495662.657990 kJ/mol
# GULP energy per Si atom -12391.566450 kJ/mol
# Density = 1.808221 g / cm^3
# Si number density = 18.123458 Si / 1000 Ang^3
#
#
#
# Elastic Constant Matrix: (Units=GPa)
#
#
# Indices 1 2 3 4 5 6 
#
# 1 107.7336 61.7735 48.5392 0.0000 0.0000 0.0000
# 2 61.7735 107.7340 48.5389 0.0000 0.0000 0.0000
# 3 48.5392 48.5389 131.2565 0.0000 0.0000 0.0000
# 4 0.0000 0.0000 0.0000 18.6368 0.0000 0.0000
# 5 0.0000 0.0000 0.0000 0.0000 18.6260 0.0000
# 6 0.0000 0.0000 0.0000 0.0000 0.0000 28.9349
#
#
#
# Elastic Compliance Matrix: (Units=1/GPa)
#
#
# Indices 1 2 3 4 5 6 
#
# 1 0.014621 -0.007137 -0.002768 0.000000 0.000000 0.000000
# 2 -0.007137 0.014621 -0.002768 0.000000 0.000000 0.000000
# 3 -0.002768 -0.002768 0.009666 0.000000 0.000000 0.000000
# 4 0.000000 0.000000 0.000000 0.053657 0.000000 0.000000
# 5 0.000000 0.000000 0.000000 0.000000 0.053689 0.000000
# 6 0.000000 0.000000 0.000000 0.000000 0.000000 0.034560
#
#
# Mechanical properties :
#
#
# Convention : Reuss Voigt Hill
#
# Bulk Modulus (GPa) = 73.72637 73.82526 73.77581
# Shear Modulus (GPa) = 23.73266 25.76438 24.74852
#
# Velocity S-wave (km/s) = 3.62263 3.77451 3.69935
# Velocity P-wave (km/s) = 7.63324 7.73427 7.68392
#
# Compressibility (1/GPa) = 0.01356367
#
# Stress axis : x y z
#
# Youngs Moduli (GPa) = 68.39337 68.39385 103.45785
#
# Poissons Ratio (x) = 0.48810 0.28636
# Poissons Ratio (y) = 0.48810 0.28635
# Poissons Ratio (z) = 0.18930 0.18930
#
# Static dielectric constant tensor:
#      x y z
#    x 3.481320 0.000000 0.000000 
#    y 0.000000 3.481340 0.000000 
#    z 0.000000 0.000000 3.444470 
# 
# 
# High freq. dielectric constant tensor:
#      x y z
#    x 1.694870 0.000000 0.000000 
#    y 0.000000 1.694870 0.000000 
#    z 0.000000 0.000000 1.705010 
# 
# From -- ./inp_files/4722.got.cif
#   From: 2010.03.12/outbox.cif.g09.slc.cpg/sg97_3_cif.got.tgz:4722.got - 2010.04.08 20:59:42.
