data_PCOD8306261
_publ_section_title
;
Structure prediction by ZEFSAII (Michael W. Deem and Ramdas Pophale) SiO2 
 PCOD8306261
Probable space group: I 41 2 2
;
_chemical_formula_sum "Si O2"
_cell_formula_units_Z 64
_cell_length_a 18.811028
_cell_length_b 18.811028
_cell_length_c 9.450435
_cell_angle_alpha 90.000000
_cell_angle_beta 90.000000
_cell_angle_gamma 90.000000
_cell_volume 3344.081545
_symmetry_space_group_name_H-M "I 41 2 2"
_symmetry_group_IT_number 98
_symmetry_cell_setting 'tetragonal'
loop_
_space_group_symop_operation_xyz
x,y,z
-y,1/2+x,1/4+z
-x,-y,z
y,1/2-x,1/4+z
x,1/2-y,1/4-z
-x,1/2+y,1/4-z
y,x,-z
-y,-x,-z
1/2+x,1/2+y,1/2+z
1/2-y,x,3/4+z
1/2-x,1/2-y,1/2+z
1/2+y,-x,3/4+z
1/2+x,-y,3/4-z
1/2-x,y,3/4-z
1/2+y,1/2+x,1/2-z
1/2-y,1/2-x,1/2-z
loop_
_atom_site_type_symbol
_atom_site_label
_atom_site_fract_x
_atom_site_fract_y
_atom_site_fract_z
Si Si1 0.080337 0.475921 0.468910
Si Si2 0.678895 0.071433 0.781227
Si Si3 0.675269 0.533248 0.711073
Si Si4 0.939363 0.828617 0.476975
O O1 0.116096 0.525800 0.353008
O O2 0.077800 0.394236 0.412299
O O3 0.127719 0.483012 0.609760
O O4 0.000000 0.500000 0.501150
O O5 0.750000 0.072529 0.875000
O O6 0.651285 0.151285 0.750000
O O7 0.689976 0.038388 0.626434
O O8 0.747325 0.578129 0.684610
O O9 0.666853 0.514530 0.877945
O O10 0.862141 0.862141 0.500000
#
# Coordination Sequence:
#
# PCOD8306261 Si02
#       4
#    16  16  16  16
#     4  11  21  37  63  96 124 161 217 267 320 378
#     4  12  24  42  66  90 127 170 211 270 327 383
#     4  10  20  36  60  90 128 161 207 255 319 378
#     4   9  20  37  59  87 129 168 202 260 321 381
#
# _framework density 19.138290000000001
#
# number of rings (size 3 to 8) (size 9 to 14) (size 15 to 20)
#    0.000    1.500    5.000    0.750    0.000    4.500 
#    0.000    0.000   16.500    0.000    0.000    0.000 
#    0.000    0.000    0.000    0.000    0.000    0.000 
#
# Total GULP energy -396529.002134 kJ/mol
# GULP energy per Si atom -12391.531317 kJ/mol
# Density = 1.909473 g / cm^3
# Si number density = 19.138290 Si / 1000 Ang^3
#
#
#
# Elastic Constant Matrix: (Units=GPa)
#
#
# Indices 1 2 3 4 5 6 
#
# 1 110.7571 48.6679 50.8003 0.0000 0.0000 0.0000
# 2 48.6679 110.7571 50.8003 0.0000 0.0000 0.0000
# 3 50.8003 50.8003 103.0020 0.0000 0.0000 0.0000
# 4 0.0000 0.0000 0.0000 27.0751 0.0000 0.0000
# 5 0.0000 0.0000 0.0000 0.0000 27.0751 0.0000
# 6 0.0000 0.0000 0.0000 0.0000 0.0000 21.5990
#
#
#
# Elastic Compliance Matrix: (Units=1/GPa)
#
#
# Indices 1 2 3 4 5 6 
#
# 1 0.012627 -0.003479 -0.004512 0.000000 0.000000 0.000000
# 2 -0.003479 0.012627 -0.004512 0.000000 0.000000 0.000000
# 3 -0.004512 -0.004512 0.014159 0.000000 0.000000 0.000000
# 4 0.000000 0.000000 0.000000 0.036934 0.000000 0.000000
# 5 0.000000 0.000000 0.000000 0.000000 0.036934 0.000000
# 6 0.000000 0.000000 0.000000 0.000000 0.000000 0.046298
#
#
# Mechanical properties :
#
#
# Convention : Reuss Voigt Hill
#
# Bulk Modulus (GPa) = 69.40706 69.45036 69.42871
# Shear Modulus (GPa) = 26.40098 26.76635 26.58367
#
# Velocity S-wave (km/s) = 3.71817 3.74381 3.73101
# Velocity P-wave (km/s) = 7.40121 7.41995 7.41058
#
# Compressibility (1/GPa) = 0.01440776
#
# Stress axis : x y z
#
# Youngs Moduli (GPa) = 79.19642 79.19642 70.62727
#
# Poissons Ratio (x) = 0.27553 0.31865
# Poissons Ratio (y) = 0.27553 0.31865
# Poissons Ratio (z) = 0.35731 0.35731
#
# Static dielectric constant tensor:
#      x y z
#    x 3.543180 0.000000 0.000000 
#    y 0.000000 3.543180 0.000000 
#    z 0.000000 0.000000 3.725950 
# 
# 
# High freq. dielectric constant tensor:
#      x y z
#    x 1.730470 0.000000 0.000000 
#    y 0.000000 1.730470 0.000000 
#    z 0.000000 0.000000 1.759880 
# 
# From -- ./inp_files/3288.got.cif
#   From: 2010.03.12/outbox.cif.g09.slc.cpg/sg98_2_cif.got.tgz:3288.got - 2010.04.08 21:04:41.
