data_PCOD8306085
_publ_section_title
;
Structure prediction by ZEFSAII (Michael W. Deem and Ramdas Pophale) SiO2 
 PCOD8306085
Probable space group: I 4 2 2 
;
_chemical_formula_sum "Si O2"
_cell_formula_units_Z 120
_cell_length_a 17.538089
_cell_length_b 17.538089
_cell_length_c 20.060271
_cell_angle_alpha 90.000000
_cell_angle_beta 90.000000
_cell_angle_gamma 90.000000
_cell_volume 6170.229745
_symmetry_space_group_name_H-M "I 4 2 2 "
_symmetry_group_IT_number 97
_symmetry_cell_setting 'tetragonal'
loop_
_space_group_symop_operation_xyz
x,y,z
-y,x,z
-x,-y,z
y,-x,z
x,-y,-z
-x,y,-z
y,x,-z
-y,-x,-z
1/2+x,1/2+y,1/2+z
1/2-y,1/2+x,1/2+z
1/2-x,1/2-y,1/2+z
1/2+y,1/2-x,1/2+z
1/2+x,1/2-y,1/2-z
1/2-x,1/2+y,1/2-z
1/2+y,1/2+x,1/2-z
1/2-y,1/2-x,1/2-z
loop_
_atom_site_type_symbol
_atom_site_label
_atom_site_fract_x
_atom_site_fract_y
_atom_site_fract_z
Si Si1 0.173151 0.190106 0.191842
Si Si2 0.000000 0.180051 0.000000
Si Si3 0.943361 0.891952 0.875909
Si Si4 0.708927 0.687627 0.840962
Si Si5 0.795240 0.433364 0.083533
Si Si6 0.973007 0.581639 0.923729
Si Si7 0.792365 0.580895 0.400503
Si Si8 0.276955 0.106151 0.563452
O O1 0.171907 0.103549 0.163693
O O2 0.252314 0.222902 0.165269
O O3 0.164528 0.184724 0.271126
O O4 0.106431 0.246186 0.165186
O O5 0.944278 0.127317 0.045273
O O6 0.055242 0.231141 0.044870
O O7 0.031287 0.898399 0.855925
O O8 0.748236 0.607075 0.857595
O O9 0.648291 0.708234 0.898557
O O10 0.883097 0.408584 0.082916
O O11 0.790749 0.523536 0.096204
O O12 0.757063 0.406385 0.014048
O O13 0.000000 0.500000 0.895095
O O14 0.011892 0.650181 0.881725
O O15 0.000000 0.589804 0.000000
O O16 0.842771 0.648085 0.431095
#
# Coordination Sequence:
#
# PCOD8306085 Si02
#       8
#    16   8  16  16  16  16  16  16
#     4  10  24  42  56  84 120 170 217 255 308 361
#     4  12  22  35  59  98 124 176 204 252 309 364
#     4  11  24  40  58  85 129 171 214 258 297 358
#     4  10  24  41  62  85 117 163 213 261 306 382
#     4  11  20  36  62  95 122 159 199 258 324 375
#     4  11  18  32  57  98 136 159 196 252 321 388
#     4  11  20  35  58  90 126 168 200 252 306 377
#     4  10  20  38  61  89 123 152 198 260 320 370
#
# _framework density 19.448222000000001
#
# number of rings (size 3 to 8) (size 9 to 14) (size 15 to 20)
#    0.000    1.333    4.667    1.600    3.733    1.600 
#    0.000    0.000    0.000    0.400    0.000    1.867 
#    0.000    0.000    0.000    0.000    0.000    0.000 
#
# Total GULP energy -743772.665631 kJ/mol
# GULP energy per Si atom -12396.211094 kJ/mol
# Density = 1.940396 g / cm^3
# Si number density = 19.448222 Si / 1000 Ang^3
#
#
#
# Elastic Constant Matrix: (Units=GPa)
#
#
# Indices 1 2 3 4 5 6 
#
# 1 88.0386 32.3627 41.3675 0.0000 0.0000 0.0000
# 2 32.3627 88.0386 41.3675 0.0000 0.0000 0.0000
# 3 41.3675 41.3675 90.3503 0.0000 0.0000 0.0000
# 4 0.0000 0.0000 0.0000 28.1730 0.0000 0.0000
# 5 0.0000 0.0000 0.0000 0.0000 28.1731 0.0000
# 6 0.0000 0.0000 0.0000 0.0000 0.0000 20.2829
#
#
#
# Elastic Compliance Matrix: (Units=1/GPa)
#
#
# Indices 1 2 3 4 5 6 
#
# 1 0.015040 -0.002921 -0.005548 0.000000 0.000000 0.000000
# 2 -0.002921 0.015040 -0.005548 0.000000 0.000000 0.000000
# 3 -0.005548 -0.005548 0.016149 0.000000 0.000000 0.000000
# 4 0.000000 0.000000 0.000000 0.035495 0.000000 0.000000
# 5 0.000000 0.000000 0.000000 0.000000 0.035495 0.000000
# 6 0.000000 0.000000 0.000000 0.000000 0.000000 0.049303
#
#
# Mechanical properties :
#
#
# Convention : Reuss Voigt Hill
#
# Bulk Modulus (GPa) = 54.97051 55.18033 55.07542
# Shear Modulus (GPa) = 24.92262 25.41444 25.16853
#
# Velocity S-wave (km/s) = 3.58367 3.61886 3.60130
# Velocity P-wave (km/s) = 6.74166 6.77466 6.75818
#
# Compressibility (1/GPa) = 0.01819157
#
# Stress axis : x y z
#
# Youngs Moduli (GPa) = 66.49087 66.49086 61.92420
#
# Poissons Ratio (x) = 0.19425 0.34358
# Poissons Ratio (y) = 0.19425 0.34358
# Poissons Ratio (z) = 0.36892 0.36892
#
# Static dielectric constant tensor:
#      x y z
#    x 3.694140 0.000000 0.000000 
#    y 0.000000 3.694140 0.000000 
#    z 0.000000 0.000000 3.335660 
# 
# 
# High freq. dielectric constant tensor:
#      x y z
#    x 1.763420 0.000000 0.000000 
#    y 0.000000 1.763420 0.000000 
#    z 0.000000 0.000000 1.725360 
# 
# From -- ./inp_files/6852.got.cif
#   From: 2010.03.12/outbox.cif.g09.slc.cpg/sg97_4_cif.got.tgz:6852.got - 2010.04.08 20:59:42.
