data_PCOD8306013
_publ_section_title
;
Structure prediction by ZEFSAII (Michael W. Deem and Ramdas Pophale) SiO2 
 PCOD8306013
Probable space group: P 43 21 2
;
_chemical_formula_sum "Si O2"
_cell_formula_units_Z 64
_cell_length_a 12.000000
_cell_length_b 12.000000
_cell_length_c 24.000000
_cell_angle_alpha 90.000000
_cell_angle_beta 90.000000
_cell_angle_gamma 90.000000
_cell_volume 3456.000000
_symmetry_space_group_name_H-M "P 43 21 2"
_symmetry_group_IT_number 96
_symmetry_cell_setting 'tetragonal'
loop_
_space_group_symop_operation_xyz
x,y,z
1/2-y,1/2+x,3/4+z
-x,-y,1/2+z
1/2+y,1/2-x,1/4+z
1/2+x,1/2-y,1/4-z
1/2-x,1/2+y,3/4-z
y,x,-z
-y,-x,1/2-z
loop_
_atom_site_type_symbol
_atom_site_label
_atom_site_fract_x
_atom_site_fract_y
_atom_site_fract_z
Si Si1 0.386572 0.953238 0.861170
Si Si2 0.768132 0.816174 0.562810
Si Si3 0.312211 0.822084 0.584006
Si Si4 0.801909 0.943152 0.923916
Si Si5 0.226082 0.567090 0.202652
Si Si6 0.690734 0.134352 0.479062
Si Si7 0.524099 0.605341 0.792512
Si Si8 0.985393 0.631708 0.172983
O O1 0.366456 0.852893 0.819696
O O2 0.346102 0.934410 0.924393
O O3 0.518439 0.970524 0.861375
O O4 0.321001 0.054129 0.830985
O O5 0.777571 0.777571 0.500000
O O6 0.781820 0.711413 0.603047
O O7 0.858224 0.913841 0.576756
O O8 0.256515 0.735842 0.540031
O O9 0.268029 0.946180 0.575219
O O10 0.866752 0.826894 0.924609
O O11 0.727369 0.948180 0.869206
O O12 0.883279 0.050910 0.917805
O O13 0.732151 0.951212 0.980951
O O14 0.114755 0.638014 0.190394
O O15 0.788360 0.067164 0.508782
O O16 0.587743 0.145846 0.521133
O O17 0.493991 0.506010 0.750000
#
# Coordination Sequence:
#
# PCOD8306013 Si02
#       8
#     8   8   8   8   8   8   8   8
#     4  10  21  38  59  88 121 159 196 251 313 359
#     4  10  21  36  60  91 119 153 199 250 304 368
#     4  10  21  38  63  87 121 159 197 258 306 365
#     4  11  22  40  62  86 120 166 208 253 300 367
#     4  10  22  41  59  88 121 160 210 254 302 368
#     4  11  21  39  60  89 122 153 206 251 304 373
#     4  11  19  36  62  87 115 158 202 247 294 369
#     4  11  24  37  60  91 119 163 202 255 311 363
#
# _framework density 18.518519000000001
#
# number of rings (size 3 to 8) (size 9 to 14) (size 15 to 20)
#    0.000    1.500    3.750    2.250    1.750    1.000 
#    4.500    0.000    0.000    0.000    0.000    0.000 
#    0.000    0.000    0.000    0.000    0.000    0.000 
#
# Total GULP energy -793467.395085 kJ/mol
# GULP energy per Si atom -12397.928048 kJ/mol
# Density = 1.847637 g / cm^3
# Si number density = 18.518519 Si / 1000 Ang^3
#
#
#
# Elastic Constant Matrix: (Units=GPa)
#
#
# Indices 1 2 3 4 5 6 
#
# 1 103.7130 48.5136 52.2942 0.0000 0.0000 0.0000
# 2 48.5136 103.7138 52.2944 0.0000 0.0000 0.0000
# 3 52.2942 52.2944 95.9448 0.0000 0.0000 0.0000
# 4 0.0000 0.0000 0.0000 26.7501 0.0000 0.0000
# 5 0.0000 0.0000 0.0000 0.0000 26.7501 0.0000
# 6 0.0000 0.0000 0.0000 0.0000 0.0000 28.4360
#
#
#
# Elastic Compliance Matrix: (Units=1/GPa)
#
#
# Indices 1 2 3 4 5 6 
#
# 1 0.014309 -0.003807 -0.005724 0.000000 0.000000 0.000000
# 2 -0.003807 0.014309 -0.005724 0.000000 0.000000 0.000000
# 3 -0.005724 -0.005724 0.016662 0.000000 0.000000 0.000000
# 4 0.000000 0.000000 0.000000 0.037383 0.000000 0.000000
# 5 0.000000 0.000000 0.000000 0.000000 0.037383 0.000000
# 6 0.000000 0.000000 0.000000 0.000000 0.000000 0.035167
#
#
# Mechanical properties :
#
#
# Convention : Reuss Voigt Hill
#
# Bulk Modulus (GPa) = 67.70447 67.73066 67.71756
# Shear Modulus (GPa) = 26.22658 26.40521 26.31590
#
# Velocity S-wave (km/s) = 3.76737 3.78018 3.77378
# Velocity P-wave (km/s) = 7.45412 7.46371 7.45892
#
# Compressibility (1/GPa) = 0.01477007
#
# Stress axis : x y z
#
# Youngs Moduli (GPa) = 69.88621 69.88671 60.01566
#
# Poissons Ratio (x) = 0.26607 0.34353
# Poissons Ratio (y) = 0.26606 0.34353
# Poissons Ratio (z) = 0.40003 0.40003
#
# Static dielectric constant tensor:
#      x y z
#    x 3.611710 0.000000 0.000000 
#    y 0.000000 3.611710 0.000000 
#    z 0.000000 0.000000 3.359690 
# 
# 
# High freq. dielectric constant tensor:
#      x y z
#    x 1.729220 0.000000 0.000000 
#    y 0.000000 1.729220 0.000000 
#    z 0.000000 0.000000 1.709940 
# 
# From -- ./inp_files/3966.got.cif
#   From: 2010.03.12/outbox.ucp.g09.slc.cvg/sg96_2_cif.got.tgz:3966.got - 2010.05.04 20:17:49.
