data_PCOD8306339
_publ_section_title
;
Structure prediction by ZEFSAII (Michael W. Deem and Ramdas Pophale) SiO2 
 PCOD8306339
Probable space group: I 41 2 2
;
_chemical_formula_sum "Si O2"
_cell_formula_units_Z 88
_cell_length_a 11.335924
_cell_length_b 11.335924
_cell_length_c 30.071291
_cell_angle_alpha 90.000000
_cell_angle_beta 90.000000
_cell_angle_gamma 90.000000
_cell_volume 3864.256308
_symmetry_space_group_name_H-M "I 41 2 2"
_symmetry_group_IT_number 98
_symmetry_cell_setting 'tetragonal'
loop_
_space_group_symop_operation_xyz
x,y,z
-y,1/2+x,1/4+z
-x,-y,z
y,1/2-x,1/4+z
x,1/2-y,1/4-z
-x,1/2+y,1/4-z
y,x,-z
-y,-x,-z
1/2+x,1/2+y,1/2+z
1/2-y,x,3/4+z
1/2-x,1/2-y,1/2+z
1/2+y,-x,3/4+z
1/2+x,-y,3/4-z
1/2-x,y,3/4-z
1/2+y,1/2+x,1/2-z
1/2-y,1/2-x,1/2-z
loop_
_atom_site_type_symbol
_atom_site_label
_atom_site_fract_x
_atom_site_fract_y
_atom_site_fract_z
Si Si1 0.269697 0.842864 0.660831
Si Si2 0.087756 0.310222 0.381322
Si Si3 0.750000 0.900134 0.375000
Si Si4 0.163835 0.339682 0.481418
Si Si5 0.362104 0.014842 0.804362
Si Si6 0.025486 0.625006 0.554437
O O1 0.223287 0.750000 0.625000
O O2 0.387142 0.804605 0.686761
O O3 0.168034 0.864583 0.698083
O O4 0.308075 0.951699 0.630000
O O5 0.134139 0.179235 0.373072
O O6 0.113960 0.341176 0.431913
O O7 0.150701 0.402441 0.347986
O O8 0.739064 0.982111 0.418142
O O9 0.213727 0.213727 0.500000
O O10 0.276515 0.429864 0.483978
O O11 0.048568 0.379540 0.508735
O O12 0.500000 0.000000 0.789268
O O13 0.000000 0.500000 0.578877
#
# Coordination Sequence:
#
# PCOD8306339 Si02
#       6
#    16  16   8  16  16  16
#     4  11  24  43  71 102 139 186 233 296 356 415
#     4  11  21  43  78 102 133 189 244 277 348 446
#     4  12  20  44  72  94 134 190 244 266 334 450
#     4  12  24  42  70 110 140 184 236 297 350 433
#     4  10  23  43  75 106 140 182 234 297 366 424
#     4  12  26  42  68 101 139 187 232 284 351 419
#
# _framework density 22.772815999999999
#
# number of rings (size 3 to 8) (size 9 to 14) (size 15 to 20)
#    0.000    0.727    6.364    1.091    2.545    4.000 
#    0.000    2.727    0.000    1.091    0.000    0.000 
#    0.000    0.000    0.000    0.000    0.000    0.000 
#
# Total GULP energy -545130.599136 kJ/mol
# GULP energy per Si atom -12389.331799 kJ/mol
# Density = 2.272098 g / cm^3
# Si number density = 22.772816 Si / 1000 Ang^3
#
#
#
# Elastic Constant Matrix: (Units=GPa)
#
#
# Indices 1 2 3 4 5 6 
#
# 1 117.4161 36.4655 46.0473 0.0000 0.0000 0.0000
# 2 36.4655 117.4161 46.0473 0.0000 0.0000 0.0000
# 3 46.0473 46.0473 103.6254 0.0000 0.0000 0.0000
# 4 0.0000 0.0000 0.0000 30.7830 0.0000 0.0000
# 5 0.0000 0.0000 0.0000 0.0000 30.7830 0.0000
# 6 0.0000 0.0000 0.0000 0.0000 0.0000 32.7463
#
#
#
# Elastic Compliance Matrix: (Units=1/GPa)
#
#
# Indices 1 2 3 4 5 6 
#
# 1 0.010603 -0.001750 -0.003934 0.000000 0.000000 0.000000
# 2 -0.001750 0.010603 -0.003934 0.000000 0.000000 0.000000
# 3 -0.003934 -0.003934 0.013146 0.000000 0.000000 0.000000
# 4 0.000000 0.000000 0.000000 0.032485 0.000000 0.000000
# 5 0.000000 0.000000 0.000000 0.000000 0.032485 0.000000
# 6 0.000000 0.000000 0.000000 0.000000 0.000000 0.030538
#
#
# Mechanical properties :
#
#
# Convention : Reuss Voigt Hill
#
# Bulk Modulus (GPa) = 66.15304 66.17529 66.16417
# Shear Modulus (GPa) = 32.43896 32.85565 32.64730
#
# Velocity S-wave (km/s) = 3.77830 3.80249 3.79041
# Velocity P-wave (km/s) = 6.93875 6.95705 6.94790
#
# Compressibility (1/GPa) = 0.01511646
#
# Stress axis : x y z
#
# Youngs Moduli (GPa) = 94.31272 94.31272 76.06714
#
# Poissons Ratio (x) = 0.16506 0.29924
# Poissons Ratio (y) = 0.16506 0.29924
# Poissons Ratio (z) = 0.37101 0.37101
#
# Static dielectric constant tensor:
#      x y z
#    x 4.344380 0.000000 0.000000 
#    y 0.000000 4.344380 0.000000 
#    z 0.000000 0.000000 3.876940 
# 
# 
# High freq. dielectric constant tensor:
#      x y z
#    x 1.904470 0.000000 0.000000 
#    y 0.000000 1.904470 0.000000 
#    z 0.000000 0.000000 1.885250 
# 
# From -- ./inp_files/11972.got.cif
#   From: 2010.03.12/outbox.cif.g09.slc.cpg/sg98_6_cif.got.tgz:11972.got - 2010.04.08 21:04:41.
