data_PCOD8306280
_publ_section_title
;
Structure prediction by ZEFSAII (Michael W. Deem and Ramdas Pophale) SiO2 
 PCOD8306280
Probable space group: I 41 2 2
;
_chemical_formula_sum "Si O2"
_cell_formula_units_Z 96
_cell_length_a 21.770312
_cell_length_b 21.770312
_cell_length_c 10.044541
_cell_angle_alpha 90.000000
_cell_angle_beta 90.000000
_cell_angle_gamma 90.000000
_cell_volume 4760.574896
_symmetry_space_group_name_H-M "I 41 2 2"
_symmetry_group_IT_number 98
_symmetry_cell_setting 'tetragonal'
loop_
_space_group_symop_operation_xyz
x,y,z
-y,1/2+x,1/4+z
-x,-y,z
y,1/2-x,1/4+z
x,1/2-y,1/4-z
-x,1/2+y,1/4-z
y,x,-z
-y,-x,-z
1/2+x,1/2+y,1/2+z
1/2-y,x,3/4+z
1/2-x,1/2-y,1/2+z
1/2+y,-x,3/4+z
1/2+x,-y,3/4-z
1/2-x,y,3/4-z
1/2+y,1/2+x,1/2-z
1/2-y,1/2-x,1/2-z
loop_
_atom_site_type_symbol
_atom_site_label
_atom_site_fract_x
_atom_site_fract_y
_atom_site_fract_z
Si Si1 0.211641 0.788360 0.500000
Si Si2 0.571785 0.428216 0.000000
Si Si3 0.069551 0.788433 0.501259
Si Si4 0.750000 0.814607 0.875000
Si Si5 0.280403 0.964051 0.744758
Si Si6 0.654462 0.917651 0.856071
Si Si7 0.432660 0.508862 0.276266
Si Si8 0.898210 0.398210 0.250000
O O1 0.235401 0.750000 0.625000
O O2 0.140541 0.775014 0.470722
O O3 0.641505 0.440830 0.959014
O O4 0.556575 0.470367 0.125390
O O5 0.044318 0.750000 0.625000
O O6 0.029937 0.770509 0.371113
O O7 0.728552 0.771448 0.750000
O O8 0.693903 0.860464 0.915908
O O9 0.330807 0.914370 0.694343
O O10 0.303122 0.032799 0.779638
O O11 0.250000 0.934447 0.875000
O O12 0.606137 0.893863 0.750000
O O13 0.612392 0.949329 0.970844
O O14 0.500000 0.500000 0.338752
O O15 0.402361 0.558592 0.371835
#
# Coordination Sequence:
#
# PCOD8306280 Si02
#       8
#     8   8  16   8  16  16  16   8
#     4   9  20  35  51  72 104 150 203 254 308 358
#     4  11  23  36  53  79 118 158 194 248 313 375
#     4  10  21  36  52  75 113 155 195 250 312 366
#     4  10  22  44  74 102 138 172 210 272 330 398
#     4  11  21  36  59  86 115 154 208 257 306 372
#     4  10  21  39  69  97 125 164 214 268 318 386
#     4  11  21  38  60  89 122 160 201 256 316 379
#     4  10  21  35  58  85 111 148 206 260 303 359
#
# _framework density 20.165631000000001
#
# number of rings (size 3 to 8) (size 9 to 14) (size 15 to 20)
#    0.000    1.667    0.833    5.500    0.000    4.000 
#    0.000    1.667    7.333    0.000    0.000    0.000 
#    0.000    0.000    0.000    0.000    0.000    0.000 
#
# Total GULP energy -594961.394088 kJ/mol
# GULP energy per Si atom -12395.029044 kJ/mol
# Density = 2.011973 g / cm^3
# Si number density = 20.165631 Si / 1000 Ang^3
#
#
#
# Elastic Constant Matrix: (Units=GPa)
#
#
# Indices 1 2 3 4 5 6 
#
# 1 88.0386 49.1934 43.2398 0.0000 0.0000 0.0000
# 2 49.1934 88.0395 43.2393 0.0000 0.0000 0.0000
# 3 43.2398 43.2393 126.1334 0.0000 0.0000 0.0000
# 4 0.0000 0.0000 0.0000 24.5486 0.0000 0.0000
# 5 0.0000 0.0000 0.0000 0.0000 24.5493 0.0000
# 6 0.0000 0.0000 0.0000 0.0000 0.0000 36.7962
#
#
#
# Elastic Compliance Matrix: (Units=1/GPa)
#
#
# Indices 1 2 3 4 5 6 
#
# 1 0.017519 -0.008224 -0.003186 0.000000 0.000000 0.000000
# 2 -0.008224 0.017519 -0.003186 0.000000 0.000000 0.000000
# 3 -0.003186 -0.003186 0.010113 0.000000 0.000000 0.000000
# 4 0.000000 0.000000 0.000000 0.040736 0.000000 0.000000
# 5 0.000000 0.000000 0.000000 0.000000 0.040734 0.000000
# 6 0.000000 0.000000 0.000000 0.000000 0.000000 0.027177
#
#
# Mechanical properties :
#
#
# Convention : Reuss Voigt Hill
#
# Bulk Modulus (GPa) = 62.66839 63.72851 63.19845
# Shear Modulus (GPa) = 26.55201 28.28141 27.41671
#
# Velocity S-wave (km/s) = 3.63257 3.74900 3.69124
# Velocity P-wave (km/s) = 6.98129 7.10008 7.04093
#
# Compressibility (1/GPa) = 0.01595701
#
# Stress axis : x y z
#
# Youngs Moduli (GPa) = 57.08079 57.08174 98.88536
#
# Poissons Ratio (x) = 0.46944 0.31509
# Poissons Ratio (y) = 0.46944 0.31507
# Poissons Ratio (z) = 0.18188 0.18188
#
# Static dielectric constant tensor:
#      x y z
#    x 3.939470 0.000000 0.000000 
#    y 0.000000 3.939470 0.000000 
#    z 0.000000 0.000000 3.431610 
# 
# 
# High freq. dielectric constant tensor:
#      x y z
#    x 1.788920 0.000000 0.000000 
#    y 0.000000 1.788920 0.000000 
#    z 0.000000 0.000000 1.777570 
# 
# From -- ./inp_files/3793.got.cif
#   From: 2010.03.12/outbox.cif.g09.slc.cpg/sg98_2_cif.got.tgz:3793.got - 2010.04.08 21:04:41.
