data_PCOD8306652
_publ_section_title
;
Structure prediction by ZEFSAII (Michael W. Deem and Ramdas Pophale) SiO2 
 PCOD8306652
Probable space group: P 4 B M
;
_chemical_formula_sum "Si O2"
_cell_formula_units_Z 40
_cell_length_a 16.453581
_cell_length_b 16.453581
_cell_length_c 7.783868
_cell_angle_alpha 90.000000
_cell_angle_beta 90.000000
_cell_angle_gamma 90.000000
_cell_volume 2107.251296
_symmetry_space_group_name_H-M "P 4 B M"
_symmetry_group_IT_number 100
_symmetry_cell_setting 'tetragonal'
loop_
_space_group_symop_operation_xyz
x,y,z
-y,x,z
-x,-y,z
y,-x,z
1/2-x,1/2+y,z
1/2+x,1/2-y,z
1/2-y,1/2-x,z
1/2+y,1/2+x,z
loop_
_atom_site_type_symbol
_atom_site_label
_atom_site_fract_x
_atom_site_fract_y
_atom_site_fract_z
Si Si1 0.943143 0.116751 0.911820
Si Si2 0.922013 0.290815 0.421988
Si Si3 0.368284 0.995707 0.114345
Si Si4 0.943143 0.116751 0.316871
Si Si5 0.077987 0.709185 0.806702
O O1 0.904306 0.194805 0.819413
O O2 0.037228 0.106929 0.854877
O O3 0.937600 0.128464 0.114345
O O4 0.838697 0.338697 0.379012
O O5 0.904306 0.194805 0.409277
O O6 0.951955 0.312584 0.614345
O O7 0.992116 0.314637 0.285906
O O8 0.404380 0.904380 0.114345
O O9 0.441430 0.058571 0.114346
O O10 0.314638 0.007884 0.942784
O O11 0.037228 0.106929 0.373814
O O12 0.161303 0.661303 0.849678
#
# Coordination Sequence:
#
# PCOD8306652 Si02
#       5
#     8   8   8   8   8
#     4   9  18  34  57  82 107 140 184 228 270 321
#     4  10  20  34  55  82 110 142 181 224 270 322
#     4   9  18  34  54  75 104 142 179 216 262 314
#     4   9  18  34  57  82 107 140 184 228 270 321
#     4  10  20  34  55  82 110 142 181 224 270 322
#
# _framework density 18.982074999999998
#
# number of rings (size 3 to 8) (size 9 to 14) (size 15 to 20)
#    0.000    2.600    2.000    1.200    0.000    2.400 
#    0.000    8.000    0.000    0.000    0.000    0.000 
#    0.000    0.000    0.000    0.000    0.000    0.000 
#
# Total GULP energy -495890.246999 kJ/mol
# GULP energy per Si atom -12397.256175 kJ/mol
# Density = 1.893887 g / cm^3
# Si number density = 18.982075 Si / 1000 Ang^3
#
#
#
# Elastic Constant Matrix: (Units=GPa)
#
#
# Indices 1 2 3 4 5 6 
#
# 1 94.7622 47.0029 37.4952 0.0000 0.0000 0.0000
# 2 47.0029 94.7622 37.4952 0.0000 0.0000 0.0000
# 3 37.4952 37.4952 105.3566 0.0000 0.0000 0.0000
# 4 0.0000 0.0000 0.0000 15.8200 0.0000 0.0000
# 5 0.0000 0.0000 0.0000 0.0000 15.8200 0.0000
# 6 0.0000 0.0000 0.0000 0.0000 0.0000 19.6580
#
#
#
# Elastic Compliance Matrix: (Units=1/GPa)
#
#
# Indices 1 2 3 4 5 6 
#
# 1 0.014814 -0.006124 -0.003093 0.000000 0.000000 0.000000
# 2 -0.006124 0.014814 -0.003093 0.000000 0.000000 0.000000
# 3 -0.003093 -0.003093 0.011693 0.000000 0.000000 0.000000
# 4 0.000000 0.000000 0.000000 0.063211 0.000000 0.000000
# 5 0.000000 0.000000 0.000000 0.000000 0.063211 0.000000
# 6 0.000000 0.000000 0.000000 0.000000 0.000000 0.050870
#
#
# Mechanical properties :
#
#
# Convention : Reuss Voigt Hill
#
# Bulk Modulus (GPa) = 59.87287 59.87417 59.87352
# Shear Modulus (GPa) = 20.09651 21.78544 20.94098
#
# Velocity S-wave (km/s) = 3.25731 3.39143 3.32504
# Velocity P-wave (km/s) = 6.76440 6.85176 6.80822
#
# Compressibility (1/GPa) = 0.01670205
#
# Stress axis : x y z
#
# Youngs Moduli (GPa) = 67.50325 67.50325 85.52253
#
# Poissons Ratio (x) = 0.41341 0.26449
# Poissons Ratio (y) = 0.41341 0.26449
# Poissons Ratio (z) = 0.20876 0.20876
#
# Static dielectric constant tensor:
#      x y z
#    x 3.448180 0.000000 0.000000 
#    y 0.000000 3.448180 0.000000 
#    z 0.000000 0.000000 3.505490 
# 
# 
# High freq. dielectric constant tensor:
#      x y z
#    x 1.718390 0.000000 0.000000 
#    y 0.000000 1.718390 0.000000 
#    z 0.000000 0.000000 1.744380 
# 
# From -- ./inp_files/771.got.cif
#   From: 2010.03.12/outbox.cif.g09.slc.cpg/sg100_cif.got.tgz:771.got - 2010.04.14 01:37:57.
