data_PCOD8306521
_publ_section_title
;
Structure prediction by ZEFSAII (Michael W. Deem and Ramdas Pophale) SiO2 
 PCOD8306521
Probable space group: P 4 M M
;
_chemical_formula_sum "Si O2"
_cell_formula_units_Z 48
_cell_length_a 23.458670
_cell_length_b 23.458670
_cell_length_c 5.062941
_cell_angle_alpha 90.000000
_cell_angle_beta 90.000000
_cell_angle_gamma 90.000000
_cell_volume 2786.183002
_symmetry_space_group_name_H-M "P 4 M M"
_symmetry_group_IT_number 99
_symmetry_cell_setting 'tetragonal'
loop_
_space_group_symop_operation_xyz
x,y,z
-y,x,z
-x,-y,z
y,-x,z
-x,y,z
x,-y,z
-y,-x,z
y,x,z
loop_
_atom_site_type_symbol
_atom_site_label
_atom_site_fract_x
_atom_site_fract_y
_atom_site_fract_z
Si Si1 0.765172 0.328226 0.046980
Si Si2 0.896684 0.103317 0.469002
Si Si3 0.226311 0.068396 0.468638
Si Si4 0.062127 0.937874 0.966913
Si Si5 0.240352 0.858601 0.950682
Si Si6 0.716338 0.621402 0.558922
Si Si7 0.500000 0.592676 0.049981
Si Si8 0.666343 0.500000 0.549147
O O1 0.719383 0.280617 0.981802
O O2 0.757972 0.354483 0.334922
O O3 0.826289 0.298396 0.027843
O O4 0.753437 0.376450 0.826800
O O5 0.917755 0.163562 0.574266
O O6 0.936457 0.063544 0.650187
O O7 0.898144 0.101857 0.149647
O O8 0.259386 0.106554 0.686401
O O9 0.240176 0.000000 0.473575
O O10 0.231361 0.093850 0.176017
O O11 0.000000 0.921059 0.066583
O O12 0.186017 0.813984 0.923544
O O13 0.657200 0.657200 0.571343
O O14 0.703551 0.555897 0.495383
O O15 0.443591 0.556410 0.996707
O O16 0.500000 0.645562 0.851343
O O17 0.500000 0.612926 0.351684
#
# Coordination Sequence:
#
# PCOD8306521 Si02
#       8
#     8   4   8   4   8   8   4   4
#     4   9  19  33  55  73  96 125 172 219 255 312
#     4  12  22  37  46  66  90 124 158 200 240 298
#     4  12  23  35  52  74  99 127 163 210 254 304
#     4  11  22  34  46  58  78 116 162 202 238 274
#     4  11  20  38  55  74  94 129 168 209 258 309
#     4  10  19  33  49  77 102 138 177 214 261 299
#     4  11  22  34  46  66  96 150 206 238 255 278
#     4  12  22  33  52  72 110 144 177 232 270 308
#
# _framework density 17.227869999999999
#
# number of rings (size 3 to 8) (size 9 to 14) (size 15 to 20)
#    0.000    1.167    1.667    6.500    0.000    5.333 
#    0.000    0.000    0.000    0.000    0.000    0.000 
#    0.000    0.000    0.000   52.500    0.000    0.000 
#
# Total GULP energy -594644.867731 kJ/mol
# GULP energy per Si atom -12388.434744 kJ/mol
# Density = 1.718866 g / cm^3
# Si number density = 17.227870 Si / 1000 Ang^3
#
#
#
# Elastic Constant Matrix: (Units=GPa)
#
#
# Indices 1 2 3 4 5 6 
#
# 1 61.4028 30.4523 4.4007 0.0000 0.0000 -0.0048
# 2 30.4523 61.4028 4.4007 0.0000 0.0000 0.0048
# 3 4.4007 4.4007 72.0020 0.0000 0.0000 0.0000
# 4 0.0000 0.0000 0.0000 20.5616 0.0000 0.0000
# 5 0.0000 0.0000 0.0000 0.0000 20.5616 0.0000
# 6 -0.0048 0.0048 0.0000 0.0000 0.0000 -52.3420
#
#
#
# Elastic Compliance Matrix: (Units=1/GPa)
#
#
# Indices 1 2 3 4 5 6 
#
# 1 0.021630 -0.010679 -0.000669 0.000000 0.000000 -0.000003
# 2 -0.010679 0.021630 -0.000669 0.000000 0.000000 0.000003
# 3 -0.000669 -0.000669 0.013970 0.000000 0.000000 0.000000
# 4 0.000000 0.000000 0.000000 0.048634 0.000000 0.000000
# 5 0.000000 0.000000 0.000000 0.000000 0.048634 0.000000
# 6 -0.000003 0.000003 0.000000 0.000000 0.000000 -0.019105
#
#
# Mechanical properties :
#
#
# Convention : Reuss Voigt Hill
#
# Bulk Modulus (GPa) = 30.12521 30.36833 30.24677
# Shear Modulus (GPa) = 29.32629 8.12650 18.72639
#
# Velocity S-wave (km/s) = 4.13032 2.17424 3.30052
# Velocity P-wave (km/s) = 6.34589 4.89579 5.66741
#
# Compressibility (1/GPa) = 0.03319479
#
# Stress axis : x y z
#
# Youngs Moduli (GPa) = 46.23156 46.23156 71.58032
#
# Poissons Ratio (x) = 0.49373 0.04791
# Poissons Ratio (y) = 0.49373 0.04791
# Poissons Ratio (z) = 0.03094 0.03094
#
# Static dielectric constant tensor:
#      x y z
#    x 3.088230 0.000000 0.000000 
#    y 0.000000 3.088230 0.000000 
#    z 0.000000 0.000000 3.274290 
# 
# 
# High freq. dielectric constant tensor:
#      x y z
#    x 1.635050 0.000000 0.000000 
#    y 0.000000 1.635050 0.000000 
#    z 0.000000 0.000000 1.692000 
# 
# From -- ./inp_files/399.got.cif
#   From: 2010.03.12/outbox.cif.g09.slc.cpg/sg99_cif.got.tgz:399.got - 2010.04.08 21:11:30.
