data_PCOD8306841
_publ_section_title
;
Structure prediction by ZEFSAII (Michael W. Deem and Ramdas Pophale) SiO2 
 PCOD8306841
Probable space group: P 42 N M
;
_chemical_formula_sum "Si O2"
_cell_formula_units_Z 44
_cell_length_a 13.713495
_cell_length_b 13.713495
_cell_length_c 11.769006
_cell_angle_alpha 90.000000
_cell_angle_beta 90.000000
_cell_angle_gamma 90.000000
_cell_volume 2213.278622
_symmetry_space_group_name_H-M "P 42 N M"
_symmetry_group_IT_number 102
_symmetry_cell_setting 'tetragonal'
loop_
_space_group_symop_operation_xyz
x,y,z
1/2-y,1/2+x,1/2+z
-x,-y,z
1/2+y,1/2-x,1/2+z
1/2-x,1/2+y,1/2+z
1/2+x,1/2-y,1/2+z
-y,-x,z
y,x,z
loop_
_atom_site_type_symbol
_atom_site_label
_atom_site_fract_x
_atom_site_fract_y
_atom_site_fract_z
Si Si1 0.495265 0.657494 0.175380
Si Si2 0.453868 0.184059 0.998017
Si Si3 0.000000 0.500000 0.625146
Si Si4 0.581663 0.744518 0.389175
Si Si5 0.434452 0.827115 0.781645
Si Si6 0.251475 0.595348 0.550408
O O1 0.385672 0.614329 0.169063
O O2 0.570622 0.570622 0.182566
O O3 0.517925 0.719457 0.064851
O O4 0.506586 0.723208 0.287127
O O5 0.339691 0.160533 0.009026
O O6 0.517730 0.093087 0.044070
O O7 0.481804 0.207228 0.868010
O O8 0.910418 0.481644 0.706063
O O9 0.657449 0.657449 0.412162
O O10 0.640649 0.841213 0.355667
O O11 0.513951 0.757214 0.500317
O O12 0.407555 0.744790 0.688763
O O13 0.350674 0.649327 0.510353
#
# Coordination Sequence:
#
# PCOD8306841 Si02
#       6
#     8   8   4   8   8   8
#     4  10  21  39  62  86 117 161 210 258 303 360
#     4  11  22  36  61  91 125 157 203 253 309 371
#     4  10  18  34  58  88 122 154 200 244 306 362
#     4  11  22  41  64  88 119 159 207 255 302 367
#     4  11  21  37  61  89 121 159 196 252 311 366
#     4  11  23  40  63  88 122 165 204 251 311 367
#
# _framework density 19.880009999999999
#
# number of rings (size 3 to 8) (size 9 to 14) (size 15 to 20)
#    0.000    1.273    3.636    5.455    0.000    2.545 
#    0.000    1.818    0.000    0.000    0.000    0.000 
#    0.000    0.000    0.000    0.000    0.000    0.000 
#
# Total GULP energy -545505.224838 kJ/mol
# GULP energy per Si atom -12397.846019 kJ/mol
# Density = 1.983476 g / cm^3
# Si number density = 19.880010 Si / 1000 Ang^3
#
#
#
# Elastic Constant Matrix: (Units=GPa)
#
#
# Indices 1 2 3 4 5 6 
#
# 1 46.8055 0.7683 27.2300 0.0000 0.0000 -0.0002
# 2 0.7683 46.8055 27.2300 0.0000 0.0000 0.0002
# 3 27.2300 27.2300 121.8929 0.0000 0.0000 0.0000
# 4 0.0000 0.0000 0.0000 -6.7220 0.0000 0.0000
# 5 0.0000 0.0000 0.0000 0.0000 -6.7220 0.0000
# 6 -0.0002 0.0002 0.0000 0.0000 0.0000 26.7556
#
#
#
# Elastic Compliance Matrix: (Units=1/GPa)
#
#
# Indices 1 2 3 4 5 6 
#
# 1 0.024982 0.003260 -0.006309 0.000000 0.000000 0.000000
# 2 0.003260 0.024982 -0.006309 0.000000 0.000000 0.000000
# 3 -0.006309 -0.006309 0.011023 0.000000 0.000000 0.000000
# 4 0.000000 0.000000 0.000000 -0.148765 0.000000 0.000000
# 5 0.000000 0.000000 0.000000 0.000000 -0.148765 0.000000
# 6 0.000000 0.000000 0.000000 0.000000 0.000000 0.037375
#
#
# Mechanical properties :
#
#
# Convention : Reuss Voigt Hill
#
# Bulk Modulus (GPa) = 23.65692 36.21780 29.93736
# Shear Modulus (GPa) = -30.05497 13.34735 -8.35381
#
# Velocity S-wave (km/s) = -3.89243 2.59394 -2.05213
# Velocity P-wave (km/s) = 2.87674 5.21815 3.07843
#
# Compressibility (1/GPa) = 0.04227093
#
# Stress axis : x y z
#
# Youngs Moduli (GPa) = 40.02890 40.02890 90.72146
#
# Poissons Ratio (x) = -0.13051 0.57237
# Poissons Ratio (y) = -0.13051 0.57237
# Poissons Ratio (z) = 0.25255 0.25255
#
# Static dielectric constant tensor:
#      x y z
#    x 3.908750 0.000000 0.000000 
#    y 0.000000 3.908750 0.000000 
#    z 0.000000 0.000000 3.851940 
# 
# 
# High freq. dielectric constant tensor:
#      x y z
#    x 1.768390 0.000000 0.000000 
#    y 0.000000 1.768390 0.000000 
#    z 0.000000 0.000000 1.781610 
# 
# From -- ./inp_files/1708.got.cif
#   From: 2010.03.12/outbox.cif.g09.slc.cpg/sg102_1_cif.got.tgz:1708.got - 2010.04.14 01:40:42.
