data_PCOD8306412
_publ_section_title
;
Structure prediction by ZEFSAII (Michael W. Deem and Ramdas Pophale) SiO2 
 PCOD8306412
Probable space group: P 4 M M
;
_chemical_formula_sum "Si O2"
_cell_formula_units_Z 48
_cell_length_a 22.486206
_cell_length_b 22.486206
_cell_length_c 7.784355
_cell_angle_alpha 90.000000
_cell_angle_beta 90.000000
_cell_angle_gamma 90.000000
_cell_volume 3935.999217
_symmetry_space_group_name_H-M "P 4 M M"
_symmetry_group_IT_number 99
_symmetry_cell_setting 'tetragonal'
loop_
_space_group_symop_operation_xyz
x,y,z
-y,x,z
-x,-y,z
y,-x,z
-x,y,z
x,-y,z
-y,-x,z
y,x,z
loop_
_atom_site_type_symbol
_atom_site_label
_atom_site_fract_x
_atom_site_fract_y
_atom_site_fract_z
Si Si1 0.065885 0.570698 0.506940
Si Si2 0.865895 0.568769 0.184611
Si Si3 0.733442 0.570742 0.202173
Si Si4 0.719105 0.623908 0.848535
Si Si5 0.429779 0.846176 0.808301
Si Si6 0.661014 0.431704 0.527278
O O1 0.062384 0.500000 0.506762
O O2 0.087841 0.596638 0.321868
O O3 0.111570 0.591359 0.654345
O O4 0.000000 0.596954 0.542041
O O5 0.862958 0.500000 0.231515
O O6 0.800494 0.595452 0.213835
O O7 0.883915 0.578463 0.985153
O O8 0.731654 0.500000 0.176927
O O9 0.703590 0.592825 0.377138
O O10 0.702043 0.600677 0.037801
O O11 0.691711 0.691711 0.828828
O O12 0.789717 0.615131 0.813034
O O13 0.687610 0.581512 0.712379
O O14 0.500000 0.826438 0.790969
O O15 0.650521 0.500000 0.500943
O O16 0.597011 0.402990 0.505419
#
# Coordination Sequence:
#
# PCOD8306412 Si02
#       6
#     8   8   8   8   8   8
#     4   9  16  24  35  52  72  92 112 132 156 194
#     4   8  14  23  35  49  64  83 105 129 158 193
#     4   9  16  27  41  53  65  82 105 136 174 212
#     4  10  18  27  40  55  68  84 110 141 170 203
#     4   9  16  26  38  51  69  91 111 135 170 206
#     4  10  19  28  38  50  63  80 102 131 168 211
#
# _framework density 12.195126
#
# number of rings (size 3 to 8) (size 9 to 14) (size 15 to 20)
#    0.000    2.833    0.000    4.000    0.000    3.500 
#    0.000    3.333    0.000    0.000    0.000    2.333 
#    0.000    0.000    0.000    0.000    0.000    0.000 
#
# Total GULP energy -594633.110130 kJ/mol
# GULP energy per Si atom -12388.189794 kJ/mol
# Density = 1.216737 g / cm^3
# Si number density = 12.195126 Si / 1000 Ang^3
#
#
#
# Elastic Constant Matrix: (Units=GPa)
#
#
# Indices 1 2 3 4 5 6 
#
# 1 40.8149 26.9954 30.1720 0.0000 0.0000 0.0004
# 2 26.9954 40.8149 30.1720 0.0000 0.0000 -0.0004
# 3 30.1720 30.1720 74.8188 0.0000 0.0000 0.0000
# 4 0.0000 0.0000 0.0000 11.8862 0.0000 0.0000
# 5 0.0000 0.0000 0.0000 0.0000 11.8862 0.0000
# 6 0.0004 -0.0004 0.0000 0.0000 0.0000 5.1942
#
#
#
# Elastic Compliance Matrix: (Units=1/GPa)
#
#
# Indices 1 2 3 4 5 6 
#
# 1 0.047682 -0.024680 -0.009276 0.000000 0.000000 -0.000006
# 2 -0.024680 0.047682 -0.009276 0.000000 0.000000 0.000006
# 3 -0.009276 -0.009276 0.020847 0.000000 0.000000 0.000000
# 4 0.000000 0.000000 0.000000 0.084131 0.000000 0.000000
# 5 0.000000 0.000000 0.000000 0.000000 0.084131 0.000000
# 6 -0.000006 0.000006 0.000000 0.000000 0.000000 0.192524
#
#
# Mechanical properties :
#
#
# Convention : Reuss Voigt Hill
#
# Bulk Modulus (GPa) = 33.61706 36.79192 35.20449
# Shear Modulus (GPa) = 8.72029 10.40059 9.56044
#
# Velocity S-wave (km/s) = 2.67697 2.92352 2.80296
# Velocity P-wave (km/s) = 6.09760 6.45220 6.27740
#
# Compressibility (1/GPa) = 0.02974680
#
# Stress axis : x y z
#
# Youngs Moduli (GPa) = 20.97247 20.97247 47.96881
#
# Poissons Ratio (x) = 0.51760 0.44495
# Poissons Ratio (y) = 0.51760 0.44495
# Poissons Ratio (z) = 0.19454 0.19454
#
# Static dielectric constant tensor:
#      x y z
#    x 2.359370 0.000000 0.000000 
#    y 0.000000 2.359370 0.000000 
#    z 0.000000 0.000000 2.813640 
# 
# 
# High freq. dielectric constant tensor:
#      x y z
#    x 1.422130 0.000000 0.000000 
#    y 0.000000 1.422130 0.000000 
#    z 0.000000 0.000000 1.489480 
# 
# From -- ./inp_files/1061.got.cif
#   From: 2010.03.12/outbox.cif.g09.slc.cpg/sg99_cif.got.tgz:1061.got - 2010.04.08 21:11:30.
