data_PCOD8306239
_publ_section_title
;
Structure prediction by ZEFSAII (Michael W. Deem and Ramdas Pophale) SiO2 
 PCOD8306239
Probable space group: I 41 2 2
;
_chemical_formula_sum "Si O2"
_cell_formula_units_Z 88
_cell_length_a 14.603408
_cell_length_b 14.603408
_cell_length_c 18.809010
_cell_angle_alpha 90.000000
_cell_angle_beta 90.000000
_cell_angle_gamma 90.000000
_cell_volume 4011.200542
_symmetry_space_group_name_H-M "I 41 2 2"
_symmetry_group_IT_number 98
_symmetry_cell_setting 'tetragonal'
loop_
_space_group_symop_operation_xyz
x,y,z
-y,1/2+x,1/4+z
-x,-y,z
y,1/2-x,1/4+z
x,1/2-y,1/4-z
-x,1/2+y,1/4-z
y,x,-z
-y,-x,-z
1/2+x,1/2+y,1/2+z
1/2-y,x,3/4+z
1/2-x,1/2-y,1/2+z
1/2+y,-x,3/4+z
1/2+x,-y,3/4-z
1/2-x,y,3/4-z
1/2+y,1/2+x,1/2-z
1/2-y,1/2-x,1/2-z
loop_
_atom_site_type_symbol
_atom_site_label
_atom_site_fract_x
_atom_site_fract_y
_atom_site_fract_z
Si Si1 0.421901 0.563884 0.917874
Si Si2 0.217288 0.072187 0.976471
Si Si3 0.757499 0.024216 0.121743
Si Si4 0.913360 0.444648 0.332863
Si Si5 0.250000 0.458718 0.875000
Si Si6 0.634881 0.781505 0.985970
O O1 0.500000 0.500000 0.880595
O O2 0.418663 0.666261 0.886586
O O3 0.322088 0.523127 0.911994
O O4 0.439306 0.560695 0.000000
O O5 0.254075 0.015606 0.043149
O O6 0.298394 0.140691 0.952746
O O7 0.128184 0.128184 0.000000
O O8 0.181050 0.004894 0.912186
O O9 0.766745 0.944127 0.179264
O O10 0.847477 0.090736 0.124903
O O11 0.926838 0.426838 0.250000
O O12 0.000000 0.500000 0.364963
O O13 0.194476 0.401028 0.934915
O O14 0.686302 0.686302 0.000000
#
# Coordination Sequence:
#
# PCOD8306239 Si02
#       6
#    16  16  16  16   8  16
#     4  11  23  43  71  95 135 188 228 285 352 404
#     4  10  19  36  65  97 135 177 219 281 349 402
#     4  11  21  38  67  95 131 181 235 260 344 423
#     4   9  16  36  62  87 134 183 213 261 336 412
#     4  12  24  44  70 100 138 170 228 292 352 402
#     4  11  22  36  65 105 136 164 224 296 343 400
#
# _framework density 21.938569000000001
#
# number of rings (size 3 to 8) (size 9 to 14) (size 15 to 20)
#    0.000    1.455    5.455    3.273    0.000    2.182 
#    0.000    5.455    4.000    0.000    0.000    0.000 
#    0.000    0.000    0.000    0.000    0.000    0.000 
#
# Total GULP energy -545307.646539 kJ/mol
# GULP energy per Si atom -12393.355603 kJ/mol
# Density = 2.188864 g / cm^3
# Si number density = 21.938569 Si / 1000 Ang^3
#
#
#
# Elastic Constant Matrix: (Units=GPa)
#
#
# Indices 1 2 3 4 5 6 
#
# 1 166.0285 20.1073 29.9051 0.0000 0.0000 0.0000
# 2 20.1073 166.0275 29.9055 0.0000 0.0000 0.0000
# 3 29.9051 29.9055 45.7398 0.0000 0.0000 0.0000
# 4 0.0000 0.0000 0.0000 35.9411 0.0000 0.0000
# 5 0.0000 0.0000 0.0000 0.0000 35.9413 0.0000
# 6 0.0000 0.0000 0.0000 0.0000 0.0000 39.2045
#
#
#
# Elastic Compliance Matrix: (Units=1/GPa)
#
#
# Indices 1 2 3 4 5 6 
#
# 1 0.006827 -0.000026 -0.004447 0.000000 0.000000 0.000000
# 2 -0.000026 0.006827 -0.004447 0.000000 0.000000 0.000000
# 3 -0.004447 -0.004447 0.027678 0.000000 0.000000 0.000000
# 4 0.000000 0.000000 0.000000 0.027823 0.000000 0.000000
# 5 0.000000 0.000000 0.000000 0.000000 0.027823 0.000000
# 6 0.000000 0.000000 0.000000 0.000000 0.000000 0.025507
#
#
# Mechanical properties :
#
#
# Convention : Reuss Voigt Hill
#
# Bulk Modulus (GPa) = 42.56586 59.73684 51.15135
# Shear Modulus (GPa) = 33.74833 42.07591 37.91212
#
# Velocity S-wave (km/s) = 3.92638 4.38413 4.16156
# Velocity P-wave (km/s) = 6.32454 7.27432 6.81599
#
# Compressibility (1/GPa) = 0.02349300
#
# Stress axis : x y z
#
# Youngs Moduli (GPa) = 146.47418 146.47268 36.13039
#
# Poissons Ratio (x) = 0.00379 0.16066
# Poissons Ratio (y) = 0.00379 0.16067
# Poissons Ratio (z) = 0.65133 0.65134
#
# Static dielectric constant tensor:
#      x y z
#    x 4.149730 0.000000 0.000000 
#    y 0.000000 4.149720 0.000000 
#    z 0.000000 0.000000 3.511500 
# 
# 
# High freq. dielectric constant tensor:
#      x y z
#    x 1.862120 0.000000 0.000000 
#    y 0.000000 1.862120 0.000000 
#    z 0.000000 0.000000 1.848340 
# 
# From -- ./inp_files/8813.got.cif
#   From: 2010.03.12/outbox.cif.g09.slc.cpg/sg98_5_cif.got.tgz:8813.got - 2010.04.08 21:04:41.
