data_PCOD8306578
_publ_section_title
;
Structure prediction by ZEFSAII (Michael W. Deem and Ramdas Pophale) SiO2 
 PCOD8306578
Probable space group: P 4 M M
;
_chemical_formula_sum "Si O2"
_cell_formula_units_Z 64
_cell_length_a 13.493050
_cell_length_b 13.493050
_cell_length_c 20.205135
_cell_angle_alpha 90.000000
_cell_angle_beta 90.000000
_cell_angle_gamma 90.000000
_cell_volume 3678.595336
_symmetry_space_group_name_H-M "P 4 M M"
_symmetry_group_IT_number 99
_symmetry_cell_setting 'tetragonal'
loop_
_space_group_symop_operation_xyz
x,y,z
-y,x,z
-x,-y,z
y,-x,z
-x,y,z
x,-y,z
-y,-x,z
y,x,z
loop_
_atom_site_type_symbol
_atom_site_label
_atom_site_fract_x
_atom_site_fract_y
_atom_site_fract_z
Si Si1 0.722740 0.114781 0.762360
Si Si2 0.386138 0.773899 0.872465
Si Si3 0.613862 0.773897 0.652255
Si Si4 0.610733 0.882435 0.262360
Si Si5 0.774198 0.613600 0.023975
Si Si6 0.724137 0.115570 0.392655
Si Si7 0.225803 0.613600 0.500744
Si Si8 0.115570 0.275864 0.132064
O O1 0.825426 0.174575 0.762362
O O2 0.658429 0.139441 0.827312
O O3 0.658433 0.139443 0.697407
O O4 0.750109 0.000000 0.762359
O O5 0.500000 0.754916 0.853911
O O6 0.328861 0.671140 0.858724
O O7 0.373736 0.808357 0.948186
O O8 0.500000 0.754918 0.670809
O O9 0.671137 0.671137 0.665995
O O10 0.626264 0.808354 0.576534
O O11 0.500000 0.836855 0.262360
O O12 0.668289 0.845593 0.327258
O O13 0.668290 0.845594 0.197461
O O14 0.603950 0.000000 0.262360
O O15 0.752163 0.500000 0.041372
O O16 0.673498 0.673498 0.038761
O O17 0.863118 0.654377 0.069105
O O18 0.828281 0.171720 0.399498
O O19 0.654379 0.136883 0.455614
O O20 0.748426 0.000000 0.389128
O O21 0.247836 0.500000 0.483345
O O22 0.326504 0.673497 0.485957
O O23 0.171720 0.171720 0.125221
O O24 0.000000 0.251574 0.135591
#
# Coordination Sequence:
#
# PCOD8306578 Si02
#       8
#     8   8   8   8   8   8   8   8
#     4  10  21  36  52  70  94 124 161 204 244 284
#     4   9  18  32  50  74 102 129 158 193 235 286
#     4   9  18  32  50  74 102 129 158 193 235 286
#     4   9  17  30  49  71  93 119 153 193 238 287
#     4   9  18  32  50  73 100 129 161 197 238 286
#     4  10  20  33  49  70  97 129 166 206 245 286
#     4   9  18  32  50  73 100 129 161 197 238 286
#     4  10  20  33  49  70  97 129 166 206 245 286
#
# _framework density 17.397945
#
# number of rings (size 3 to 8) (size 9 to 14) (size 15 to 20)
#    0.000    2.625    0.000    1.500    0.000    4.375 
#    0.000    5.000    0.000    4.500    0.000    7.000 
#    0.000    9.000    0.000    0.000    0.000    0.000 
#
# Total GULP energy -793707.659734 kJ/mol
# GULP energy per Si atom -12401.682183 kJ/mol
# Density = 1.735835 g / cm^3
# Si number density = 17.397945 Si / 1000 Ang^3
#
#
#
# Elastic Constant Matrix: (Units=GPa)
#
#
# Indices 1 2 3 4 5 6 
#
# 1 108.4648 41.9521 53.8188 0.0000 0.0000 0.0003
# 2 41.9521 108.4648 53.8188 0.0000 0.0000 -0.0003
# 3 53.8188 53.8188 107.6728 0.0000 0.0000 0.0000
# 4 0.0000 0.0000 0.0000 26.7453 0.0000 0.0000
# 5 0.0000 0.0000 0.0000 0.0000 26.7453 0.0000
# 6 0.0003 -0.0003 0.0000 0.0000 0.0000 11.8026
#
#
#
# Elastic Compliance Matrix: (Units=1/GPa)
#
#
# Indices 1 2 3 4 5 6 
#
# 1 0.012693 -0.002342 -0.005173 0.000000 0.000000 0.000000
# 2 -0.002342 0.012693 -0.005173 0.000000 0.000000 0.000000
# 3 -0.005173 -0.005173 0.014459 0.000000 0.000000 0.000000
# 4 0.000000 0.000000 0.000000 0.037390 0.000000 0.000000
# 5 0.000000 0.000000 0.000000 0.000000 0.037390 0.000000
# 6 0.000000 0.000000 0.000000 0.000000 0.000000 0.084727
#
#
# Mechanical properties :
#
#
# Convention : Reuss Voigt Hill
#
# Bulk Modulus (GPa) = 69.12798 69.30909 69.21853
# Shear Modulus (GPa) = 21.78164 24.72613 23.25388
#
# Velocity S-wave (km/s) = 3.54215 3.77398 3.65990
# Velocity P-wave (km/s) = 7.51989 7.67558 7.59814
#
# Compressibility (1/GPa) = 0.01446592
#
# Stress axis : x y z
#
# Youngs Moduli (GPa) = 78.78668 78.78668 69.16026
#
# Poissons Ratio (x) = 0.18453 0.35780
# Poissons Ratio (y) = 0.18453 0.35780
# Poissons Ratio (z) = 0.40760 0.40760
#
# Static dielectric constant tensor:
#      x y z
#    x 3.087270 0.000000 0.000000 
#    y 0.000000 3.087270 0.000000 
#    z 0.000000 0.000000 3.478880 
# 
# 
# High freq. dielectric constant tensor:
#      x y z
#    x 1.661450 0.000000 0.000000 
#    y 0.000000 1.661450 0.000000 
#    z 0.000000 0.000000 1.688560 
# 
# From -- ./inp_files/2316.got.cif
#   From: 2010.03.12/outbox.cif.g09.slc.cpg/sg99_cif.got.tgz:2316.got - 2010.04.08 21:11:30.
