data_PCOD8306142
_publ_section_title
;
Structure prediction by ZEFSAII (Michael W. Deem and Ramdas Pophale) SiO2 
 PCOD8306142
Probable space group: I 4 2 2 
;
_chemical_formula_sum "Si O2"
_cell_formula_units_Z 108
_cell_length_a 14.022518
_cell_length_b 14.022518
_cell_length_c 25.154049
_cell_angle_alpha 90.000000
_cell_angle_beta 90.000000
_cell_angle_gamma 90.000000
_cell_volume 4946.066087
_symmetry_space_group_name_H-M "I 4 2 2 "
_symmetry_group_IT_number 97
_symmetry_cell_setting 'tetragonal'
loop_
_space_group_symop_operation_xyz
x,y,z
-y,x,z
-x,-y,z
y,-x,z
x,-y,-z
-x,y,-z
y,x,-z
-y,-x,-z
1/2+x,1/2+y,1/2+z
1/2-y,1/2+x,1/2+z
1/2-x,1/2-y,1/2+z
1/2+y,1/2-x,1/2+z
1/2+x,1/2-y,1/2-z
1/2-x,1/2+y,1/2-z
1/2+y,1/2+x,1/2-z
1/2-y,1/2-x,1/2-z
loop_
_atom_site_type_symbol
_atom_site_label
_atom_site_fract_x
_atom_site_fract_y
_atom_site_fract_z
Si Si1 0.500000 0.500000 0.905880
Si Si2 0.221893 0.707588 0.388668
Si Si3 0.157770 0.007279 0.735385
Si Si4 0.316928 0.577861 0.877468
Si Si5 0.829444 0.434918 0.297285
Si Si6 0.891389 0.105107 0.062850
Si Si7 0.527829 0.169594 0.940661
Si Si8 0.500000 0.000000 0.637395
O O1 0.429196 0.589160 0.893918
O O2 0.221359 0.815735 0.368727
O O3 0.211467 0.641706 0.337749
O O4 0.324576 0.687457 0.414074
O O5 0.141121 0.686318 0.433490
O O6 0.200305 0.015152 0.675831
O O7 0.090146 0.098524 0.743729
O O8 0.245313 0.004443 0.776447
O O9 0.265381 0.530334 0.928130
O O10 0.876831 0.376831 0.250000
O O11 0.906853 0.501732 0.325628
O O12 0.997992 0.133350 0.082490
O O13 0.889295 0.110706 0.000000
O O14 0.491215 0.091966 0.899218
O O15 0.500000 0.137196 0.000000
#
# Coordination Sequence:
#
# PCOD8306142 Si02
#       8
#     4  16  16  16  16  16  16   8
#     4  12  20  44  73  88 136 188 224 280 357 400
#     4  11  25  42  66 105 137 177 233 290 350 421
#     4  11  21  40  69  99 133 176 225 278 345 412
#     4  12  22  42  70  95 136 183 226 283 348 416
#     4  11  24  42  66  95 136 175 226 283 344 423
#     4   9  21  45  73  99 136 183 228 285 357 421
#     4  11  25  42  64  94 131 175 231 289 342 416
#     4  10  24  48  62  86 132 180 222 282 360 418
#
# _framework density 21.835533999999999
#
# number of rings (size 3 to 8) (size 9 to 14) (size 15 to 20)
#    0.000    1.185    2.963    3.556    2.074    4.741 
#    5.333    4.815    0.000    0.000    0.000    0.000 
#    0.000    0.000    0.000    0.000    0.000    0.000 
#
# Total GULP energy -668978.162883 kJ/mol
# GULP energy per Si atom -12388.484498 kJ/mol
# Density = 2.178584 g / cm^3
# Si number density = 21.835534 Si / 1000 Ang^3
#
#
#
# Elastic Constant Matrix: (Units=GPa)
#
#
# Indices 1 2 3 4 5 6 
#
# 1 117.6458 65.1835 42.4114 0.0000 0.0000 0.0000
# 2 65.1835 117.6458 42.4113 0.0000 0.0000 0.0000
# 3 42.4114 42.4113 96.4787 0.0000 0.0000 0.0000
# 4 0.0000 0.0000 0.0000 20.1866 0.0000 0.0000
# 5 0.0000 0.0000 0.0000 0.0000 20.1873 0.0000
# 6 0.0000 0.0000 0.0000 0.0000 0.0000 37.3191
#
#
#
# Elastic Compliance Matrix: (Units=1/GPa)
#
#
# Indices 1 2 3 4 5 6 
#
# 1 0.012966 -0.006095 -0.003020 0.000000 0.000000 0.000000
# 2 -0.006095 0.012966 -0.003020 0.000000 0.000000 0.000000
# 3 -0.003020 -0.003020 0.013020 0.000000 0.000000 0.000000
# 4 0.000000 0.000000 0.000000 0.049538 0.000000 0.000000
# 5 0.000000 0.000000 0.000000 0.000000 0.049536 0.000000
# 6 0.000000 0.000000 0.000000 0.000000 0.000000 0.026796
#
#
# Mechanical properties :
#
#
# Convention : Reuss Voigt Hill
#
# Bulk Modulus (GPa) = 68.11682 70.19809 69.15745
# Shear Modulus (GPa) = 25.77478 27.65620 26.71549
#
# Velocity S-wave (km/s) = 3.43943 3.56275 3.50163
# Velocity P-wave (km/s) = 6.85828 7.01018 6.93465
#
# Compressibility (1/GPa) = 0.01468066
#
# Stress axis : x y z
#
# Youngs Moduli (GPa) = 77.12428 77.12435 76.80214
#
# Poissons Ratio (x) = 0.47009 0.23197
# Poissons Ratio (y) = 0.47009 0.23197
# Poissons Ratio (z) = 0.23295 0.23294
#
# Static dielectric constant tensor:
#      x y z
#    x 4.204040 0.000000 0.000000 
#    y 0.000000 4.204030 0.000000 
#    z 0.000000 0.000000 3.813400 
# 
# 
# High freq. dielectric constant tensor:
#      x y z
#    x 1.872560 0.000000 0.000000 
#    y 0.000000 1.872560 0.000000 
#    z 0.000000 0.000000 1.841580 
# 
# From -- ./inp_files/7295.got.cif
#   From: 2010.03.12/outbox.cif.g09.slc.cpg/sg97_4_cif.got.tgz:7295.got - 2010.04.08 20:59:42.
