data_PCOD8306991
_publ_section_title
;
Structure prediction by ZEFSAII (Michael W. Deem and Ramdas Pophale) SiO2 
 PCOD8306991
Probable space group: P 4 C C
;
_chemical_formula_sum "Si O2"
_cell_formula_units_Z 36
_cell_length_a 11.862879
_cell_length_b 11.862879
_cell_length_c 12.305707
_cell_angle_alpha 90.000000
_cell_angle_beta 90.000000
_cell_angle_gamma 90.000000
_cell_volume 1731.756282
_symmetry_space_group_name_H-M "P 4 C C"
_symmetry_group_IT_number 103
_symmetry_cell_setting 'tetragonal'
loop_
_space_group_symop_operation_xyz
x,y,z
-y,x,z
-x,-y,z
y,-x,z
-x,y,1/2+z
x,-y,1/2+z
-y,-x,1/2+z
y,x,1/2+z
loop_
_atom_site_type_symbol
_atom_site_label
_atom_site_fract_x
_atom_site_fract_y
_atom_site_fract_z
Si Si1 0.521649 0.198083 0.867360
Si Si2 0.894228 0.845271 0.822133
Si Si3 0.342653 0.148742 0.157072
Si Si4 0.705060 0.273296 0.447574
Si Si5 0.500000 0.000000 0.021509
O O1 0.563547 0.183115 0.744702
O O2 0.388392 0.219802 0.866888
O O3 0.592743 0.298149 0.925171
O O4 0.552472 0.092059 0.942034
O O5 0.873937 0.780536 0.708024
O O6 0.828453 0.776447 0.915841
O O7 0.029005 0.845398 0.832272
O O8 0.394365 0.041363 0.094380
O O9 0.325659 0.250544 0.072256
#
# Coordination Sequence:
#
# PCOD8306991 Si02
#       5
#     8   8   8   8   4
#     4  10  23  41  61  98 124 170 222 273 325 397
#     4  10  24  40  60  94 131 171 217 271 328 401
#     4  10  23  38  68  93 125 177 212 279 333 386
#     4  10  24  40  65  93 132 167 219 276 327 399
#     4  10  22  36  66  94 124 168 222 268 322 404
#
# _framework density 20.788145
#
# number of rings (size 3 to 8) (size 9 to 14) (size 15 to 20)
#    0.000    2.000    0.000    0.667   18.667    5.778 
#    0.000    2.222    0.000   10.667    0.000    0.000 
#    0.000    0.000    0.000    0.000    0.000    0.000 
#
# Total GULP energy -446103.194305 kJ/mol
# GULP energy per Si atom -12391.755397 kJ/mol
# Density = 2.074083 g / cm^3
# Si number density = 20.788145 Si / 1000 Ang^3
#
#
#
# Elastic Constant Matrix: (Units=GPa)
#
#
# Indices 1 2 3 4 5 6 
#
# 1 96.5013 29.4300 40.7016 0.0000 0.0000 0.0000
# 2 29.4300 96.5013 40.7016 0.0000 0.0000 0.0000
# 3 40.7016 40.7016 131.3293 0.0000 0.0000 0.0000
# 4 0.0000 0.0000 0.0000 36.9577 0.0000 0.0000
# 5 0.0000 0.0000 0.0000 0.0000 36.9577 0.0000
# 6 0.0000 0.0000 0.0000 0.0000 0.0000 34.4183
#
#
#
# Elastic Compliance Matrix: (Units=1/GPa)
#
#
# Indices 1 2 3 4 5 6 
#
# 1 0.012420 -0.002490 -0.003078 0.000000 0.000000 0.000000
# 2 -0.002490 0.012420 -0.003078 0.000000 0.000000 0.000000
# 3 -0.003078 -0.003078 0.009522 0.000000 0.000000 0.000000
# 4 0.000000 0.000000 0.000000 0.027058 0.000000 0.000000
# 5 0.000000 0.000000 0.000000 0.000000 0.027058 0.000000
# 6 0.000000 0.000000 0.000000 0.000000 0.000000 0.029054
#
#
# Mechanical properties :
#
#
# Convention : Reuss Voigt Hill
#
# Bulk Modulus (GPa) = 58.57482 60.66648 59.62065
# Shear Modulus (GPa) = 35.58405 35.89997 35.74201
#
# Velocity S-wave (km/s) = 4.14182 4.16016 4.15100
# Velocity P-wave (km/s) = 7.14920 7.23343 7.19144
#
# Compressibility (1/GPa) = 0.01707218
#
# Stress axis : x y z
#
# Youngs Moduli (GPa) = 80.51617 80.51617 105.01934
#
# Poissons Ratio (x) = 0.20046 0.32321
# Poissons Ratio (y) = 0.20046 0.32321
# Poissons Ratio (z) = 0.24779 0.24779
#
# Static dielectric constant tensor:
#      x y z
#    x 3.952010 0.000000 0.000000 
#    y 0.000000 3.952010 0.000000 
#    z 0.000000 0.000000 3.716910 
# 
# 
# High freq. dielectric constant tensor:
#      x y z
#    x 1.815060 0.000000 0.000000 
#    y 0.000000 1.815060 0.000000 
#    z 0.000000 0.000000 1.813590 
# 
# From -- ./inp_files/522.got.cif
#   From: 2010.03.12/outbox.cif.g09.slc.cpg/sg103_cif.got.tgz:522.got - 2010.04.14 01:42:52.
