data_PCOD8306727
_publ_section_title
;
Structure prediction by ZEFSAII (Michael W. Deem and Ramdas Pophale) SiO2 
 PCOD8306727
Probable space group: P 42 C M
;
_chemical_formula_sum "Si O2"
_cell_formula_units_Z 64
_cell_length_a 12.779753
_cell_length_b 12.779753
_cell_length_c 22.577500
_cell_angle_alpha 90.000000
_cell_angle_beta 90.000000
_cell_angle_gamma 90.000000
_cell_volume 3687.404413
_symmetry_space_group_name_H-M "P 42 C M"
_symmetry_group_IT_number 101
_symmetry_cell_setting 'tetragonal'
loop_
_space_group_symop_operation_xyz
x,y,z
-y,x,1/2+z
-x,-y,z
y,-x,1/2+z
-x,y,1/2+z
x,-y,1/2+z
-y,-x,z
y,x,z
loop_
_atom_site_type_symbol
_atom_site_label
_atom_site_fract_x
_atom_site_fract_y
_atom_site_fract_z
Si Si1 0.829364 0.994649 0.643220
Si Si2 0.505735 0.667059 0.899053
Si Si3 0.360027 0.183449 0.340600
Si Si4 0.748837 0.423583 0.018270
Si Si5 0.613351 0.951533 0.450150
Si Si6 0.912943 0.747124 0.029415
Si Si7 0.767044 0.399397 0.604415
Si Si8 0.134406 0.689064 0.712441
O O1 0.918888 0.081113 0.646101
O O2 0.777227 0.999020 0.578142
O O3 0.741730 0.023602 0.693019
O O4 0.879613 0.879613 0.654757
O O5 0.426425 0.573576 0.888486
O O6 0.623505 0.623505 0.886413
O O7 0.472069 0.760531 0.854413
O O8 0.499729 0.704948 0.966918
O O9 0.266618 0.266618 0.345305
O O10 0.340628 0.095087 0.389538
O O11 0.363030 0.126843 0.277041
O O12 0.679989 0.320012 0.024753
O O13 0.865991 0.390903 0.002102
O O14 0.748910 0.483383 0.080996
O O15 0.500000 0.000000 0.438415
O O16 0.696195 0.037861 0.471060
O O17 0.850686 0.850686 0.009169
O O18 0.833438 0.663975 0.056634
O O19 0.654320 0.345681 0.613869
O O20 0.831170 0.401423 0.666248
O O21 0.222314 0.777687 0.710507
#
# Coordination Sequence:
#
# PCOD8306727 Si02
#       8
#     8   8   8   8   8   8   8   8
#     4   8  14  26  48  75  98 125 164 207 250 299
#     4   8  14  25  42  66  94 123 158 200 246 295
#     4   9  18  32  49  69  97 134 172 213 251 294
#     4  10  19  30  47  74 104 129 160 209 259 307
#     4  11  20  33  51  72 100 135 171 201 253 311
#     4   9  18  32  50  74 102 129 162 205 255 310
#     4   9  16  29  50  74  99 129 162 200 251 310
#     4   8  15  29  48  68  97 134 170 208 251 299
#
# _framework density 17.356383000000001
#
# number of rings (size 3 to 8) (size 9 to 14) (size 15 to 20)
#    0.000    3.000    1.250    3.000    0.000    1.750 
#    0.000    1.250    5.500    3.000    0.000    0.000 
#    0.000    0.000    0.000    0.000    0.000    0.000 
#
# Total GULP energy -793198.648241 kJ/mol
# GULP energy per Si atom -12393.728879 kJ/mol
# Density = 1.731688 g / cm^3
# Si number density = 17.356383 Si / 1000 Ang^3
#
#
#
# Elastic Constant Matrix: (Units=GPa)
#
#
# Indices 1 2 3 4 5 6 
#
# 1 56.0619 22.3110 35.8522 0.0000 0.0000 -0.0001
# 2 22.3110 56.0619 35.8522 0.0000 0.0000 0.0001
# 3 35.8522 35.8522 106.5102 0.0000 0.0000 0.0000
# 4 0.0000 0.0000 0.0000 20.2630 0.0000 0.0000
# 5 0.0000 0.0000 0.0000 0.0000 20.2630 0.0000
# 6 -0.0001 0.0001 0.0000 0.0000 0.0000 27.5790
#
#
#
# Elastic Compliance Matrix: (Units=1/GPa)
#
#
# Indices 1 2 3 4 5 6 
#
# 1 0.024033 -0.005596 -0.006206 0.000000 0.000000 0.000000
# 2 -0.005596 0.024033 -0.006206 0.000000 0.000000 0.000000
# 3 -0.006206 -0.006206 0.013567 0.000000 0.000000 0.000000
# 4 0.000000 0.000000 0.000000 0.049351 0.000000 0.000000
# 5 0.000000 0.000000 0.000000 0.000000 0.049351 0.000000
# 6 0.000000 0.000000 0.000000 0.000000 0.000000 0.036260
#
#
# Mechanical properties :
#
#
# Convention : Reuss Voigt Hill
#
# Bulk Modulus (GPa) = 39.03622 45.18497 42.11059
# Shear Modulus (GPa) = 20.73396 21.92891 21.33144
#
# Velocity S-wave (km/s) = 3.46005 3.55836 3.50955
# Velocity P-wave (km/s) = 6.20503 6.55536 6.38260
#
# Compressibility (1/GPa) = 0.02561723
#
# Stress axis : x y z
#
# Youngs Moduli (GPa) = 41.60901 41.60901 73.70864
#
# Poissons Ratio (x) = 0.23283 0.45746
# Poissons Ratio (y) = 0.23283 0.45746
# Poissons Ratio (z) = 0.25824 0.25824
#
# Static dielectric constant tensor:
#      x y z
#    x 3.217810 0.000000 0.000000 
#    y 0.000000 3.217810 0.000000 
#    z 0.000000 0.000000 3.208250 
# 
# 
# High freq. dielectric constant tensor:
#      x y z
#    x 1.653550 0.000000 0.000000 
#    y 0.000000 1.653550 0.000000 
#    z 0.000000 0.000000 1.650300 
# 
# From -- ./inp_files/2768.got.cif
#   From: 2010.03.12/outbox.cif.g09.slc.cpg/sg101_2_cif.got.tgz:2768.got - 2010.04.14 01:38:52.
