data_PCOD8306045
_publ_section_title
;
Structure prediction by ZEFSAII (Michael W. Deem and Ramdas Pophale) SiO2 
 PCOD8306045
Probable space group: I 4 2 2 
;
_chemical_formula_sum "Si O2"
_cell_formula_units_Z 112
_cell_length_a 32.199003
_cell_length_b 32.199003
_cell_length_c 5.168757
_cell_angle_alpha 90.000000
_cell_angle_beta 90.000000
_cell_angle_gamma 90.000000
_cell_volume 5358.842144
_symmetry_space_group_name_H-M "I 4 2 2 "
_symmetry_group_IT_number 97
_symmetry_cell_setting 'tetragonal'
loop_
_space_group_symop_operation_xyz
x,y,z
-y,x,z
-x,-y,z
y,-x,z
x,-y,-z
-x,y,-z
y,x,-z
-y,-x,-z
1/2+x,1/2+y,1/2+z
1/2-y,1/2+x,1/2+z
1/2-x,1/2-y,1/2+z
1/2+y,1/2-x,1/2+z
1/2+x,1/2-y,1/2-z
1/2-x,1/2+y,1/2-z
1/2+y,1/2+x,1/2-z
1/2-y,1/2-x,1/2-z
loop_
_atom_site_type_symbol
_atom_site_label
_atom_site_fract_x
_atom_site_fract_y
_atom_site_fract_z
Si Si1 0.390430 0.359261 0.749783
Si Si2 0.981786 0.837415 0.250069
Si Si3 0.609158 0.219435 0.161642
Si Si4 0.756031 0.519146 0.248975
Si Si5 0.666792 0.896127 0.151700
Si Si6 0.788777 0.822466 0.744817
Si Si7 0.049491 0.589088 0.015148
O O1 0.388631 0.388631 0.500000
O O2 0.432683 0.334190 0.750660
O O3 0.353050 0.327369 0.748289
O O4 0.388493 0.388493 0.000000
O O5 0.999489 0.790516 0.250131
O O6 0.000000 0.861132 0.500000
O O7 0.000000 0.861096 0.000000
O O8 0.568845 0.245233 0.251470
O O9 0.614232 0.182742 0.365990
O O10 0.650628 0.247074 0.199395
O O11 0.598280 0.203025 0.870416
O O12 0.779454 0.500000 0.500000
O O13 0.779715 0.500000 0.000000
O O14 0.644648 0.855353 0.250000
O O15 0.634275 0.933773 0.109974
O O16 0.791918 0.791918 0.500000
O O17 0.792651 0.792651 0.000000
O O18 0.071998 0.571998 0.750000
O O19 0.057474 0.557474 0.250000
O O20 0.000000 0.592770 0.000000
#
# Coordination Sequence:
#
# PCOD8306045 Si02
#       7
#    16  16  16  16  16  16  16
#     4  10  19  32  51  77 110 146 190 231 278 345
#     4  10  19  32  49  73 115 151 174 218 284 338
#     4  12  22  40  65  84 115 160 207 240 305 373
#     4  10  21  34  51  84 120 148 186 228 274 346
#     4  11  25  43  64  88 120 161 201 251 299 356
#     4  10  21  36  57  86 115 145 194 252 301 356
#     4  11  24  44  69 101 137 172 214 264 316 371
#
# _framework density 20.900037000000001
#
# number of rings (size 3 to 8) (size 9 to 14) (size 15 to 20)
#    0.000    1.429    1.429    5.143    0.000    2.571 
#    0.000    1.429    0.000    8.571    0.000    0.000 
#    0.000   20.000    0.000    0.000    0.000    0.000 
#
# Total GULP energy -693746.787969 kJ/mol
# GULP energy per Si atom -12388.335499 kJ/mol
# Density = 2.085247 g / cm^3
# Si number density = 20.900037 Si / 1000 Ang^3
#
#
#
# Elastic Constant Matrix: (Units=GPa)
#
#
# Indices 1 2 3 4 5 6 
#
# 1 72.3920 37.0480 41.6764 0.0000 0.0000 0.0000
# 2 37.0480 72.3993 41.6781 0.0000 0.0000 0.0000
# 3 41.6764 41.6781 190.1743 0.0000 0.0000 0.0000
# 4 0.0000 0.0000 0.0000 35.0449 0.0000 0.0000
# 5 0.0000 0.0000 0.0000 0.0000 35.0434 0.0000
# 6 0.0000 0.0000 0.0000 0.0000 0.0000 20.1181
#
#
#
# Elastic Compliance Matrix: (Units=1/GPa)
#
#
# Indices 1 2 3 4 5 6 
#
# 1 0.019630 -0.008661 -0.002404 0.000000 0.000000 0.000000
# 2 -0.008661 0.019628 -0.002404 0.000000 0.000000 0.000000
# 3 -0.002404 -0.002404 0.006312 0.000000 0.000000 0.000000
# 4 0.000000 0.000000 0.000000 0.028535 0.000000 0.000000
# 5 0.000000 0.000000 0.000000 0.000000 0.028536 0.000000
# 6 0.000000 0.000000 0.000000 0.000000 0.000000 0.049707
#
#
# Mechanical properties :
#
#
# Convention : Reuss Voigt Hill
#
# Bulk Modulus (GPa) = 53.66846 63.97452 58.82149
# Shear Modulus (GPa) = 26.95484 32.34548 29.65016
#
# Velocity S-wave (km/s) = 3.59514 3.93826 3.77060
# Velocity P-wave (km/s) = 6.55498 7.16631 6.86745
#
# Compressibility (1/GPa) = 0.01863292
#
# Stress axis : x y z
#
# Youngs Moduli (GPa) = 50.94217 50.94747 158.43204
#
# Poissons Ratio (x) = 0.44127 0.38083
# Poissons Ratio (y) = 0.44123 0.38080
# Poissons Ratio (z) = 0.12245 0.12245
#
# Static dielectric constant tensor:
#      x y z
#    x 3.506480 0.000000 0.000000 
#    y 0.000000 3.506480 0.000000 
#    z 0.000000 0.000000 5.009190 
# 
# 
# High freq. dielectric constant tensor:
#      x y z
#    x 1.794480 0.000000 0.000000 
#    y 0.000000 1.794480 0.000000 
#    z 0.000000 0.000000 1.852130 
# 
# From -- ./inp_files/1161.got.cif
#   From: 2010.03.12/outbox.cif.g09.slc.cpg/sg97_1_cif.got.tgz:1161.got - 2010.04.08 20:59:42.
