data_PCOD8306145
_publ_section_title
;
Structure prediction by ZEFSAII (Michael W. Deem and Ramdas Pophale) SiO2 
 PCOD8306145
Probable space group: I 4 2 2 
;
_chemical_formula_sum "Si O2"
_cell_formula_units_Z 64
_cell_length_a 21.593993
_cell_length_b 21.593993
_cell_length_c 6.541971
_cell_angle_alpha 90.000000
_cell_angle_beta 90.000000
_cell_angle_gamma 90.000000
_cell_volume 3050.524569
_symmetry_space_group_name_H-M "I 4 2 2 "
_symmetry_group_IT_number 97
_symmetry_cell_setting 'tetragonal'
loop_
_space_group_symop_operation_xyz
x,y,z
-y,x,z
-x,-y,z
y,-x,z
x,-y,-z
-x,y,-z
y,x,-z
-y,-x,-z
1/2+x,1/2+y,1/2+z
1/2-y,1/2+x,1/2+z
1/2-x,1/2-y,1/2+z
1/2+y,1/2-x,1/2+z
1/2+x,1/2-y,1/2-z
1/2-x,1/2+y,1/2-z
1/2+y,1/2+x,1/2-z
1/2-y,1/2-x,1/2-z
loop_
_atom_site_type_symbol
_atom_site_label
_atom_site_fract_x
_atom_site_fract_y
_atom_site_fract_z
Si Si1 0.130145 0.721757 0.723948
Si Si2 0.358556 0.060943 0.402363
Si Si3 0.940508 0.752086 0.887248
Si Si4 0.074007 0.830617 0.470569
O O1 0.203724 0.703724 0.750000
O O2 0.104064 0.665325 0.586171
O O3 0.113486 0.787883 0.626779
O O4 0.106300 0.721311 0.955836
O O5 0.406031 0.093970 0.250000
O O6 0.299544 0.036719 0.273971
O O7 0.390729 0.000000 0.500000
O O8 0.909953 0.808127 0.759089
O O9 0.000000 0.779995 0.000000
O O10 0.099616 0.900385 0.500000
O O11 0.000000 0.828279 0.500000
#
# Coordination Sequence:
#
# PCOD8306145 Si02
#       4
#    16  16  16  16
#     4  11  21  39  66  96 128 170 219 280 349 416
#     4  11  21  33  59  91 125 173 232 281 344 417
#     4  11  19  39  68  90 126 171 224 279 341 413
#     4  11  25  44  66 100 135 178 230 285 342 411
#
# _framework density 20.979998999999999
#
# number of rings (size 3 to 8) (size 9 to 14) (size 15 to 20)
#    0.000    1.000    7.500    1.500    0.000    1.250 
#    4.500    0.000    0.000   15.000    0.000    0.000 
#    0.000    0.000    0.000    0.000    0.000    0.000 
#
# Total GULP energy -396529.716708 kJ/mol
# GULP energy per Si atom -12391.553647 kJ/mol
# Density = 2.093225 g / cm^3
# Si number density = 20.979999 Si / 1000 Ang^3
#
#
#
# Elastic Constant Matrix: (Units=GPa)
#
#
# Indices 1 2 3 4 5 6 
#
# 1 85.5510 64.3177 43.0467 0.0000 0.0000 0.0000
# 2 64.3177 85.5428 43.0452 0.0000 0.0000 0.0000
# 3 43.0467 43.0452 140.9398 0.0000 0.0000 0.0000
# 4 0.0000 0.0000 0.0000 22.4225 0.0000 0.0000
# 5 0.0000 0.0000 0.0000 0.0000 22.4226 0.0000
# 6 0.0000 0.0000 0.0000 0.0000 0.0000 32.3822
#
#
#
# Elastic Compliance Matrix: (Units=1/GPa)
#
#
# Indices 1 2 3 4 5 6 
#
# 1 0.027597 -0.019506 -0.002471 0.000000 0.000000 0.000000
# 2 -0.019506 0.027600 -0.002472 0.000000 0.000000 0.000000
# 3 -0.002471 -0.002472 0.008605 0.000000 0.000000 0.000000
# 4 0.000000 0.000000 0.000000 0.044598 0.000000 0.000000
# 5 0.000000 0.000000 0.000000 0.000000 0.044598 0.000000
# 6 0.000000 0.000000 0.000000 0.000000 0.000000 0.030881
#
#
# Mechanical properties :
#
#
# Convention : Reuss Voigt Hill
#
# Bulk Modulus (GPa) = 67.09800 68.09477 67.59639
# Shear Modulus (GPa) = 21.03083 26.22040 23.62561
#
# Velocity S-wave (km/s) = 3.16954 3.53906 3.35938
# Velocity P-wave (km/s) = 6.74136 7.01622 6.88017
#
# Compressibility (1/GPa) = 0.01490357
#
# Stress axis : x y z
#
# Youngs Moduli (GPa) = 36.23536 36.23172 116.21145
#
# Poissons Ratio (x) = 0.70674 0.28721
# Poissons Ratio (y) = 0.70681 0.28725
# Poissons Ratio (z) = 0.08955 0.08956
#
# Static dielectric constant tensor:
#      x y z
#    x 3.538800 0.000000 0.000000 
#    y 0.000000 3.538820 0.000000 
#    z 0.000000 0.000000 4.257100 
# 
# 
# High freq. dielectric constant tensor:
#      x y z
#    x 1.795750 0.000000 0.000000 
#    y 0.000000 1.795750 0.000000 
#    z 0.000000 0.000000 1.850270 
# 
# From -- ./inp_files/744.got.cif
#   From: 2010.03.12/outbox.cif.g09.slc.cpg/sg97_1_cif.got.tgz:744.got - 2010.04.08 20:59:42.
