data_PCOD8306560
_publ_section_title
;
Structure prediction by ZEFSAII (Michael W. Deem and Ramdas Pophale) SiO2 
 PCOD8306560
Probable space group: P 4 M M
;
_chemical_formula_sum "Si O2"
_cell_formula_units_Z 64
_cell_length_a 13.955909
_cell_length_b 13.955909
_cell_length_c 20.742033
_cell_angle_alpha 90.000000
_cell_angle_beta 90.000000
_cell_angle_gamma 90.000000
_cell_volume 4039.871755
_symmetry_space_group_name_H-M "P 4 M M"
_symmetry_group_IT_number 99
_symmetry_cell_setting 'tetragonal'
loop_
_space_group_symop_operation_xyz
x,y,z
-y,x,z
-x,-y,z
y,-x,z
-x,y,z
x,-y,z
-y,-x,z
y,x,z
loop_
_atom_site_type_symbol
_atom_site_label
_atom_site_fract_x
_atom_site_fract_y
_atom_site_fract_z
Si Si1 0.731550 0.888181 0.574050
Si Si2 0.386844 0.893396 0.794915
Si Si3 0.230055 0.387960 0.913888
Si Si4 0.385984 0.228891 0.672091
Si Si5 0.388094 0.767343 0.192747
Si Si6 0.890861 0.261696 0.427700
Si Si7 0.608378 0.238243 0.053620
Si Si8 0.609807 0.888432 0.312203
O O1 0.831351 0.831351 0.586877
O O2 0.645274 0.841686 0.614489
O O3 0.698162 0.877331 0.499913
O O4 0.746696 0.000000 0.592389
O O5 0.500000 0.902939 0.793430
O O6 0.352378 0.848618 0.862661
O O7 0.353690 0.823918 0.737554
O O8 0.341436 0.000000 0.787399
O O9 0.255529 0.500000 0.902734
O O10 0.327447 0.327447 0.904767
O O11 0.183151 0.370675 0.985779
O O12 0.500000 0.248018 0.668425
O O13 0.330603 0.330603 0.667801
O O14 0.500000 0.745830 0.202290
O O15 0.332860 0.667141 0.198868
O O16 0.368122 0.816249 0.121498
O O17 0.349660 0.838603 0.247733
O O18 0.837991 0.162010 0.418471
O O19 0.850144 0.337768 0.376295
O O20 0.000000 0.238446 0.412633
O O21 0.500000 0.270856 0.054834
O O22 0.662558 0.337443 0.052034
O O23 0.500000 0.862320 0.323006
O O24 0.626198 0.000000 0.301811
#
# Coordination Sequence:
#
# PCOD8306560 Si02
#       8
#     8   8   8   8   8   8   8   8
#     4   9  18  31  47  69  94 119 149 183 219 261
#     4   9  17  29  44  61  82 110 142 173 206 245
#     4   9  16  26  40  59  84 111 139 172 209 252
#     4  10  20  33  49  69  92 118 149 184 221 263
#     4   9  16  26  40  57  78 105 136 171 211 252
#     4   9  17  29  45  65  88 112 139 173 213 256
#     4   8  14  23  35  53  77 105 136 169 206 248
#     4   9  17  28  41  58  80 107 140 175 210 251
#
# _framework density 15.842086999999999
#
# number of rings (size 3 to 8) (size 9 to 14) (size 15 to 20)
#    0.000    3.000    0.000    1.125    0.000    2.000 
#    0.000    5.625    0.000    6.000    0.000    0.000 
#    0.000    5.250    0.000    0.000    0.000   29.000 
#
# Total GULP energy -792885.365911 kJ/mol
# GULP energy per Si atom -12388.833842 kJ/mol
# Density = 1.580603 g / cm^3
# Si number density = 15.842087 Si / 1000 Ang^3
#
#
#
# Elastic Constant Matrix: (Units=GPa)
#
#
# Indices 1 2 3 4 5 6 
#
# 1 63.5255 32.7965 49.5312 0.0000 0.0000 -0.0001
# 2 32.7965 63.5255 49.5312 0.0000 0.0000 0.0001
# 3 49.5312 49.5312 137.9937 0.0000 0.0000 0.0000
# 4 0.0000 0.0000 0.0000 23.1491 0.0000 0.0000
# 5 0.0000 0.0000 0.0000 0.0000 23.1491 0.0000
# 6 -0.0001 0.0001 0.0000 0.0000 0.0000 15.1256
#
#
#
# Elastic Compliance Matrix: (Units=1/GPa)
#
#
# Indices 1 2 3 4 5 6 
#
# 1 0.024500 -0.008043 -0.005907 0.000000 0.000000 0.000000
# 2 -0.008043 0.024500 -0.005907 0.000000 0.000000 0.000000
# 3 -0.005907 -0.005907 0.011487 0.000000 0.000000 0.000000
# 4 0.000000 0.000000 0.000000 0.043198 0.000000 0.000000
# 5 0.000000 0.000000 0.000000 0.000000 0.043198 0.000000
# 6 0.000000 0.000000 0.000000 0.000000 0.000000 0.066113
#
#
# Mechanical properties :
#
#
# Convention : Reuss Voigt Hill
#
# Bulk Modulus (GPa) = 48.13945 58.75139 53.44542
# Shear Modulus (GPa) = 19.25787 21.16383 20.21085
#
# Velocity S-wave (km/s) = 3.49035 3.65900 3.57567
# Velocity P-wave (km/s) = 6.83348 7.41735 7.13139
#
# Compressibility (1/GPa) = 0.02077298
#
# Stress axis : x y z
#
# Youngs Moduli (GPa) = 40.81677 40.81677 87.05336
#
# Poissons Ratio (x) = 0.32828 0.51423
# Poissons Ratio (y) = 0.32828 0.51423
# Poissons Ratio (z) = 0.24111 0.24111
#
# Static dielectric constant tensor:
#      x y z
#    x 2.862140 0.000000 0.000000 
#    y 0.000000 2.862140 0.000000 
#    z 0.000000 0.000000 3.549320 
# 
# 
# High freq. dielectric constant tensor:
#      x y z
#    x 1.584820 0.000000 0.000000 
#    y 0.000000 1.584820 0.000000 
#    z 0.000000 0.000000 1.632970 
# 
# From -- ./inp_files/2070.got.cif
#   From: 2010.03.12/outbox.cif.g09.slc.cpg/sg99_cif.got.tgz:2070.got - 2010.04.08 21:11:30.
