data_PCOD8306589
_publ_section_title
;
Structure prediction by ZEFSAII (Michael W. Deem and Ramdas Pophale) SiO2 
 PCOD8306589
Probable space group: P 4 M M
;
_chemical_formula_sum "Si O2"
_cell_formula_units_Z 56
_cell_length_a 13.607956
_cell_length_b 13.607956
_cell_length_c 17.745811
_cell_angle_alpha 90.000000
_cell_angle_beta 90.000000
_cell_angle_gamma 90.000000
_cell_volume 3286.106576
_symmetry_space_group_name_H-M "P 4 M M"
_symmetry_group_IT_number 99
_symmetry_cell_setting 'tetragonal'
loop_
_space_group_symop_operation_xyz
x,y,z
-y,x,z
-x,-y,z
y,-x,z
-x,y,z
x,-y,z
-y,-x,z
y,x,z
loop_
_atom_site_type_symbol
_atom_site_label
_atom_site_fract_x
_atom_site_fract_y
_atom_site_fract_z
Si Si1 0.612753 0.230788 0.310180
Si Si2 0.113761 0.727608 0.856204
Si Si3 0.888713 0.729678 0.028894
Si Si4 0.227292 0.612609 0.141953
Si Si5 0.222412 0.615900 0.731669
Si Si6 0.115141 0.610541 0.453504
Si Si7 0.116406 0.724940 0.601498
O O1 0.500000 0.255025 0.322613
O O2 0.666078 0.333923 0.319607
O O3 0.631904 0.186393 0.226697
O O4 0.650949 0.156485 0.374218
O O5 0.168614 0.831387 0.840706
O O6 0.164444 0.641529 0.808281
O O7 0.000000 0.741388 0.833165
O O8 0.125173 0.695331 0.942851
O O9 0.825756 0.825756 0.047947
O O10 0.857654 0.640565 0.083088
O O11 0.000000 0.759032 0.045592
O O12 0.256665 0.500000 0.130281
O O13 0.325021 0.674979 0.125508
O O14 0.244370 0.500000 0.728751
O O15 0.325964 0.674037 0.727383
O O16 0.151617 0.646551 0.663216
O O17 0.153074 0.500000 0.470827
O O18 0.147691 0.681982 0.520598
O O19 0.000000 0.610315 0.444676
O O20 0.170821 0.829180 0.613475
O O21 0.000000 0.741930 0.608813
#
# Coordination Sequence:
#
# PCOD8306589 Si02
#       7
#     8   8   8   8   8   8   8
#     4   9  17  29  45  65  90 119 150 187 231 277
#     4   9  18  32  50  73  99 126 156 190 230 276
#     4   9  18  32  49  70  96 124 155 192 233 278
#     4   9  18  31  46  66  92 122 157 196 237 281
#     4  10  21  36  53  73  97 125 158 195 233 275
#     4   9  17  29  46  68  92 119 153 191 230 274
#     4  10  20  33  50  72  97 126 159 194 233 276
#
# _framework density 17.041443000000001
#
# number of rings (size 3 to 8) (size 9 to 14) (size 15 to 20)
#    0.000    2.714    0.000    1.286    0.000    4.000 
#    0.000    5.714    0.000    2.571    0.000    6.000 
#    0.000    3.429    0.000    0.000    0.000    0.000 
#
# Total GULP energy -694297.860329 kJ/mol
# GULP energy per Si atom -12398.176077 kJ/mol
# Density = 1.700266 g / cm^3
# Si number density = 17.041443 Si / 1000 Ang^3
#
#
#
# Elastic Constant Matrix: (Units=GPa)
#
#
# Indices 1 2 3 4 5 6 
#
# 1 90.6643 41.9104 52.0933 0.0000 0.0000 0.0000
# 2 41.9104 90.6643 52.0933 0.0000 0.0000 0.0000
# 3 52.0933 52.0933 108.6610 0.0000 0.0000 0.0000
# 4 0.0000 0.0000 0.0000 26.6599 0.0000 0.0000
# 5 0.0000 0.0000 0.0000 0.0000 26.6599 0.0000
# 6 0.0000 0.0000 0.0000 0.0000 0.0000 16.7690
#
#
#
# Elastic Compliance Matrix: (Units=1/GPa)
#
#
# Indices 1 2 3 4 5 6 
#
# 1 0.016307 -0.004204 -0.005802 0.000000 0.000000 0.000000
# 2 -0.004204 0.016307 -0.005802 0.000000 0.000000 0.000000
# 3 -0.005802 -0.005802 0.014766 0.000000 0.000000 0.000000
# 4 0.000000 0.000000 0.000000 0.037510 0.000000 0.000000
# 5 0.000000 0.000000 0.000000 0.000000 0.037510 0.000000
# 6 0.000000 0.000000 0.000000 0.000000 0.000000 0.059634
#
#
# Mechanical properties :
#
#
# Convention : Reuss Voigt Hill
#
# Bulk Modulus (GPa) = 63.44018 64.68708 64.06363
# Shear Modulus (GPa) = 22.84099 23.61057 23.22578
#
# Velocity S-wave (km/s) = 3.66501 3.72624 3.69575
# Velocity P-wave (km/s) = 7.43085 7.52026 7.47569
#
# Compressibility (1/GPa) = 0.01576288
#
# Stress axis : x y z
#
# Youngs Moduli (GPa) = 61.32358 61.32358 67.72232
#
# Poissons Ratio (x) = 0.25782 0.39294
# Poissons Ratio (y) = 0.25782 0.39294
# Poissons Ratio (z) = 0.35581 0.35581
#
# Static dielectric constant tensor:
#      x y z
#    x 3.095120 0.000000 0.000000 
#    y 0.000000 3.095120 0.000000 
#    z 0.000000 0.000000 3.484640 
# 
# 
# High freq. dielectric constant tensor:
#      x y z
#    x 1.647350 0.000000 0.000000 
#    y 0.000000 1.647350 0.000000 
#    z 0.000000 0.000000 1.673730 
# 
# From -- ./inp_files/1845.got.cif
#   From: 2010.03.12/outbox.cif.g09.slc.cpg/sg99_cif.got.tgz:1845.got - 2010.04.08 21:11:30.
