data_PCOD8306741
_publ_section_title
;
Structure prediction by ZEFSAII (Michael W. Deem and Ramdas Pophale) SiO2 
 PCOD8306741
Probable space group: P 42 C M
;
_chemical_formula_sum "Si O2"
_cell_formula_units_Z 48
_cell_length_a 12.860344
_cell_length_b 12.860344
_cell_length_c 17.369628
_cell_angle_alpha 90.000000
_cell_angle_beta 90.000000
_cell_angle_gamma 90.000000
_cell_volume 2872.735814
_symmetry_space_group_name_H-M "P 42 C M"
_symmetry_group_IT_number 101
_symmetry_cell_setting 'tetragonal'
loop_
_space_group_symop_operation_xyz
x,y,z
-y,x,1/2+z
-x,-y,z
y,-x,1/2+z
-x,y,1/2+z
x,-y,1/2+z
-y,-x,z
y,x,z
loop_
_atom_site_type_symbol
_atom_site_label
_atom_site_fract_x
_atom_site_fract_y
_atom_site_fract_z
Si Si1 0.391860 0.943156 0.001830
Si Si2 0.056845 0.608140 0.824108
Si Si3 0.778984 0.388553 0.130278
Si Si4 0.611448 0.778984 0.195661
Si Si5 0.243850 0.922425 0.597465
Si Si6 0.756150 0.077576 0.228475
O O1 0.394129 0.836127 0.048417
O O2 0.500000 0.000000 0.018457
O O3 0.294267 0.014849 0.026766
O O4 0.377465 0.915141 0.912969
O O5 0.163874 0.605869 0.777523
O O6 0.000000 0.500000 0.807481
O O7 0.985152 0.705733 0.799172
O O8 0.672733 0.327268 0.117433
O O9 0.748623 0.500001 0.162969
O O10 0.852506 0.334055 0.192343
O O11 0.672733 0.672733 0.208505
O O12 0.665946 0.852509 0.133598
O O13 0.148360 0.851641 0.567223
O O14 0.200542 0.000002 0.662969
O O15 0.851640 0.148361 0.258719
#
# Coordination Sequence:
#
# PCOD8306741 Si02
#       6
#     8   8   8   8   8   8
#     4  10  19  32  53  77 104 137 170 212 260 306
#     4  10  19  32  53  77 104 137 170 212 260 306
#     4  10  19  33  53  75 101 134 174 215 254 301
#     4  10  19  33  53  75 101 134 174 215 254 301
#     4   9  18  31  51  76 103 137 173 210 252 300
#     4   9  18  31  51  76 103 137 173 210 252 300
#
# _framework density 16.708812000000002
#
# number of rings (size 3 to 8) (size 9 to 14) (size 15 to 20)
#    0.000    2.333    3.333    0.000    0.000    2.000 
#    0.000    0.000    0.000    1.000    0.000   11.667 
#    0.000    0.000    0.000    0.000    0.000    0.000 
#
# Total GULP energy -595230.525389 kJ/mol
# GULP energy per Si atom -12400.635946 kJ/mol
# Density = 1.667078 g / cm^3
# Si number density = 16.708812 Si / 1000 Ang^3
#
#
#
# Elastic Constant Matrix: (Units=GPa)
#
#
# Indices 1 2 3 4 5 6 
#
# 1 103.6129 68.9532 57.8039 0.0000 0.0000 -0.0001
# 2 68.9532 103.6129 57.8039 0.0000 0.0000 0.0001
# 3 57.8039 57.8039 98.6469 0.0000 0.0000 0.0000
# 4 0.0000 0.0000 0.0000 16.8457 0.0000 0.0000
# 5 0.0000 0.0000 0.0000 0.0000 16.8457 0.0000
# 6 -0.0001 0.0001 0.0000 0.0000 0.0000 28.8013
#
#
#
# Elastic Compliance Matrix: (Units=1/GPa)
#
#
# Indices 1 2 3 4 5 6 
#
# 1 0.019196 -0.009656 -0.005590 0.000000 0.000000 0.000000
# 2 -0.009656 0.019196 -0.005590 0.000000 0.000000 0.000000
# 3 -0.005590 -0.005590 0.016688 0.000000 0.000000 0.000000
# 4 0.000000 0.000000 0.000000 0.059362 0.000000 0.000000
# 5 0.000000 0.000000 0.000000 0.000000 0.059362 0.000000
# 6 0.000000 0.000000 0.000000 0.000000 0.000000 0.034721
#
#
# Mechanical properties :
#
#
# Convention : Reuss Voigt Hill
#
# Bulk Modulus (GPa) = 74.58316 74.99941 74.79128
# Shear Modulus (GPa) = 19.63347 20.58597 20.10972
#
# Velocity S-wave (km/s) = 3.43160 3.51385 3.47297
# Velocity P-wave (km/s) = 7.77400 7.83878 7.80646
#
# Compressibility (1/GPa) = 0.01340785
#
# Stress axis : x y z
#
# Youngs Moduli (GPa) = 52.09445 52.09445 59.92210
#
# Poissons Ratio (x) = 0.50303 0.33497
# Poissons Ratio (y) = 0.50303 0.33497
# Poissons Ratio (z) = 0.29121 0.29121
#
# Static dielectric constant tensor:
#      x y z
#    x 3.139720 0.000000 0.000000 
#    y 0.000000 3.139720 0.000000 
#    z 0.000000 0.000000 2.951870 
# 
# 
# High freq. dielectric constant tensor:
#      x y z
#    x 1.642350 0.000000 0.000000 
#    y 0.000000 1.642350 0.000000 
#    z 0.000000 0.000000 1.630520 
# 
# From -- ./inp_files/2128.got.cif
#   From: 2010.03.12/outbox.cif.g09.slc.cpg/sg101_2_cif.got.tgz:2128.got - 2010.04.14 01:38:52.
