data_PCOD8306232
_publ_section_title
;
Structure prediction by ZEFSAII (Michael W. Deem and Ramdas Pophale) SiO2 
 PCOD8306232
Probable space group: I 41 2 2
;
_chemical_formula_sum "Si O2"
_cell_formula_units_Z 128
_cell_length_a 24.524098
_cell_length_b 24.524098
_cell_length_c 12.164810
_cell_angle_alpha 90.000000
_cell_angle_beta 90.000000
_cell_angle_gamma 90.000000
_cell_volume 7316.298499
_symmetry_space_group_name_H-M "I 41 2 2"
_symmetry_group_IT_number 98
_symmetry_cell_setting 'tetragonal'
loop_
_space_group_symop_operation_xyz
x,y,z
-y,1/2+x,1/4+z
-x,-y,z
y,1/2-x,1/4+z
x,1/2-y,1/4-z
-x,1/2+y,1/4-z
y,x,-z
-y,-x,-z
1/2+x,1/2+y,1/2+z
1/2-y,x,3/4+z
1/2-x,1/2-y,1/2+z
1/2+y,-x,3/4+z
1/2+x,-y,3/4-z
1/2-x,y,3/4-z
1/2+y,1/2+x,1/2-z
1/2-y,1/2-x,1/2-z
loop_
_atom_site_type_symbol
_atom_site_label
_atom_site_fract_x
_atom_site_fract_y
_atom_site_fract_z
Si Si1 0.517408 0.769962 0.250615
Si Si2 0.590711 0.992944 0.028713
Si Si3 0.187049 0.452157 0.388621
Si Si4 0.417434 0.508786 0.755166
Si Si5 0.330111 0.028947 0.641345
Si Si6 0.270839 0.140467 0.253706
Si Si7 0.881507 0.468425 0.756280
Si Si8 0.666143 0.846582 0.623095
O O1 0.503587 0.725932 0.344974
O O2 0.579283 0.787854 0.282550
O O3 0.471659 0.816784 0.265659
O O4 0.513899 0.750000 0.125000
O O5 0.548253 0.948277 0.987700
O O6 0.564649 0.049741 0.988612
O O7 0.590899 0.994546 0.161515
O O8 0.651688 0.985263 0.978838
O O9 0.250000 0.469990 0.375000
O O10 0.161328 0.466821 0.271379
O O11 0.183722 0.387991 0.422977
O O12 0.374419 0.511881 0.657422
O O13 0.391302 0.504749 0.875813
O O14 0.339139 0.089652 0.594293
O O15 0.250000 0.136840 0.375000
O O16 0.325579 0.174422 0.250000
O O17 0.223514 0.170697 0.181707
O O18 0.906788 0.406788 0.750000
O O19 0.669154 0.830847 0.750000
#
# Coordination Sequence:
#
# PCOD8306232 Si02
#       8
#    16  16  16  16  16  16  16  16
#     4  10  19  35  54  76 102 139 175 221 269 315
#     4  10  21  33  51  79 109 140 175 223 274 320
#     4  11  22  35  52  74 103 141 179 221 269 319
#     4  10  19  34  54  78 106 137 179 223 268 327
#     4  10  19  35  55  75 101 133 178 220 263 319
#     4  10  23  35  48  70  95 128 179 229 270 311
#     4  10  20  34  53  79 110 141 173 217 271 333
#     4   9  20  37  53  69  94 131 177 222 270 308
#
# _framework density 17.495184999999999
#
# number of rings (size 3 to 8) (size 9 to 14) (size 15 to 20)
#    0.000    2.000    2.500    1.125    0.000    8.000 
#    0.000    1.250    0.000    0.000    0.000    0.000 
#    0.000    1.000    0.000    0.000    0.000    0.000 
#
# Total GULP energy -792926.110656 kJ/mol
# GULP energy per Si atom -12389.470479 kJ/mol
# Density = 1.745537 g / cm^3
# Si number density = 17.495185 Si / 1000 Ang^3
#
#
#
# Elastic Constant Matrix: (Units=GPa)
#
#
# Indices 1 2 3 4 5 6 
#
# 1 76.9958 45.7264 23.8560 0.0000 0.0000 0.0000
# 2 45.7264 76.9969 23.8563 0.0000 0.0000 0.0000
# 3 23.8560 23.8563 61.3427 0.0000 0.0000 0.0000
# 4 0.0000 0.0000 0.0000 27.7554 0.0000 0.0000
# 5 0.0000 0.0000 0.0000 0.0000 27.7561 0.0000
# 6 0.0000 0.0000 0.0000 0.0000 0.0000 30.7839
#
#
#
# Elastic Compliance Matrix: (Units=1/GPa)
#
#
# Indices 1 2 3 4 5 6 
#
# 1 0.020790 -0.011190 -0.003733 0.000000 0.000000 0.000000
# 2 -0.011190 0.020790 -0.003733 0.000000 0.000000 0.000000
# 3 -0.003733 -0.003733 0.019206 0.000000 0.000000 0.000000
# 4 0.000000 0.000000 0.000000 0.036029 0.000000 0.000000
# 5 0.000000 0.000000 0.000000 0.000000 0.036028 0.000000
# 6 0.000000 0.000000 0.000000 0.000000 0.000000 0.032484
#
#
# Mechanical properties :
#
#
# Convention : Reuss Voigt Hill
#
# Bulk Modulus (GPa) = 42.60411 44.69033 43.64722
# Shear Modulus (GPa) = 23.75702 25.38553 24.57127
#
# Velocity S-wave (km/s) = 3.68899 3.81333 3.75168
# Velocity P-wave (km/s) = 6.52301 6.70735 6.61582
#
# Compressibility (1/GPa) = 0.02347191
#
# Stress axis : x y z
#
# Youngs Moduli (GPa) = 48.10028 48.10088 52.06783
#
# Poissons Ratio (x) = 0.53824 0.19439
# Poissons Ratio (y) = 0.53823 0.19439
# Poissons Ratio (z) = 0.17958 0.17958
#
# Static dielectric constant tensor:
#      x y z
#    x 3.136350 0.000000 0.000000 
#    y 0.000000 3.136360 0.000000 
#    z 0.000000 0.000000 3.331910 
# 
# 
# High freq. dielectric constant tensor:
#      x y z
#    x 1.651370 0.000000 0.000000 
#    y 0.000000 1.651370 0.000000 
#    z 0.000000 0.000000 1.688910 
# 
# From -- ./inp_files/5512.got.cif
#   From: 2010.03.12/outbox.cif.g09.slc.cpg/sg98_3_cif.got.tgz:5512.got - 2010.04.08 21:04:41.
