data_PCOD8306021
_publ_section_title
;
Structure prediction by ZEFSAII (Michael W. Deem and Ramdas Pophale) SiO2 
 PCOD8306021
Probable space group: I 4 2 2 
;
_chemical_formula_sum "Si O2"
_cell_formula_units_Z 112
_cell_length_a 20.901791
_cell_length_b 20.901791
_cell_length_c 16.524609
_cell_angle_alpha 90.000000
_cell_angle_beta 90.000000
_cell_angle_gamma 90.000000
_cell_volume 7219.351605
_symmetry_space_group_name_H-M "I 4 2 2 "
_symmetry_group_IT_number 97
_symmetry_cell_setting 'tetragonal'
loop_
_space_group_symop_operation_xyz
x,y,z
-y,x,z
-x,-y,z
y,-x,z
x,-y,-z
-x,y,-z
y,x,-z
-y,-x,-z
1/2+x,1/2+y,1/2+z
1/2-y,1/2+x,1/2+z
1/2-x,1/2-y,1/2+z
1/2+y,1/2-x,1/2+z
1/2+x,1/2-y,1/2-z
1/2-x,1/2+y,1/2-z
1/2+y,1/2+x,1/2-z
1/2-y,1/2-x,1/2-z
loop_
_atom_site_type_symbol
_atom_site_label
_atom_site_fract_x
_atom_site_fract_y
_atom_site_fract_z
Si Si1 0.987664 0.741826 0.088081
Si Si2 0.779859 0.875210 0.144888
Si Si3 0.741503 0.748006 0.905749
Si Si4 0.842809 0.173825 0.707197
Si Si5 0.583579 0.444024 0.758921
Si Si6 0.297086 0.869798 0.187399
Si Si7 0.876109 0.083562 0.080567
O O1 0.939473 0.698993 0.143743
O O2 0.956285 0.810972 0.071612
O O3 0.056726 0.745935 0.131003
O O4 0.000000 0.709559 0.000000
O O5 0.735367 0.813234 0.128221
O O6 0.800608 0.874651 0.238504
O O7 0.840443 0.862914 0.086250
O O8 0.696591 0.691530 0.871890
O O9 0.709150 0.815422 0.881186
O O10 0.741134 0.741134 0.000000
O O11 0.908853 0.137607 0.688056
O O12 0.863897 0.234010 0.759693
O O13 0.587555 0.517054 0.784608
O O14 0.588763 0.439108 0.661400
O O15 0.356679 0.856679 0.250000
O O16 0.921708 0.078293 0.000000
#
# Coordination Sequence:
#
# PCOD8306021 Si02
#       7
#    16  16  16  16  16  16  16
#     4  12  19  25  43  69  96 134 172 200 241 277
#     4  10  18  27  42  63  94 126 160 197 228 285
#     4  10  17  31  47  66  89 119 160 209 251 284
#     4   9  18  29  47  61  89 127 169 194 241 282
#     4  10  20  30  41  60  89 129 173 197 222 278
#     4   9  18  31  44  64  94 134 166 198 242 298
#     4  11  18  25  35  57  97 135 165 196 219 263
#
# _framework density 15.513859
#
# number of rings (size 3 to 8) (size 9 to 14) (size 15 to 20)
#    0.000    1.857    5.714    4.286    0.000    0.000 
#    0.000    0.714    0.000    0.857    0.000    1.000 
#    0.000    2.286    0.000    6.000    1.429    0.000 
#
# Total GULP energy -693848.712935 kJ/mol
# GULP energy per Si atom -12390.155588 kJ/mol
# Density = 1.547855 g / cm^3
# Si number density = 15.513859 Si / 1000 Ang^3
#
#
#
# Elastic Constant Matrix: (Units=GPa)
#
#
# Indices 1 2 3 4 5 6 
#
# 1 54.8955 13.8042 20.6579 0.0000 0.0000 0.0000
# 2 13.8042 54.8957 20.6580 0.0000 0.0000 0.0000
# 3 20.6579 20.6580 50.9009 0.0000 0.0000 0.0000
# 4 0.0000 0.0000 0.0000 19.6463 0.0000 0.0000
# 5 0.0000 0.0000 0.0000 0.0000 19.6462 0.0000
# 6 0.0000 0.0000 0.0000 0.0000 0.0000 14.7513
#
#
#
# Elastic Compliance Matrix: (Units=1/GPa)
#
#
# Indices 1 2 3 4 5 6 
#
# 1 0.021796 -0.002540 -0.007815 0.000000 0.000000 0.000000
# 2 -0.002540 0.021796 -0.007815 0.000000 0.000000 0.000000
# 3 -0.007815 -0.007815 0.025989 0.000000 0.000000 0.000000
# 4 0.000000 0.000000 0.000000 0.050900 0.000000 0.000000
# 5 0.000000 0.000000 0.000000 0.000000 0.050901 0.000000
# 6 0.000000 0.000000 0.000000 0.000000 0.000000 0.067791
#
#
# Mechanical properties :
#
#
# Convention : Reuss Voigt Hill
#
# Bulk Modulus (GPa) = 30.08290 30.10357 30.09323
# Shear Modulus (GPa) = 17.44634 17.84688 17.64661
#
# Velocity S-wave (km/s) = 3.35709 3.39541 3.37630
# Velocity P-wave (km/s) = 5.87025 5.90069 5.88549
#
# Compressibility (1/GPa) = 0.03324148
#
# Stress axis : x y z
#
# Youngs Moduli (GPa) = 45.87995 45.88010 38.47730
#
# Poissons Ratio (x) = 0.11654 0.30070
# Poissons Ratio (y) = 0.11654 0.30070
# Poissons Ratio (z) = 0.35855 0.35855
#
# Static dielectric constant tensor:
#      x y z
#    x 2.974330 0.000000 0.000000 
#    y 0.000000 2.974330 0.000000 
#    z 0.000000 0.000000 2.957940 
# 
# 
# High freq. dielectric constant tensor:
#      x y z
#    x 1.570630 0.000000 0.000000 
#    y 0.000000 1.570630 0.000000 
#    z 0.000000 0.000000 1.577560 
# 
# From -- ./inp_files/5998.got.cif
#   From: 2010.03.12/outbox.cif.g09.slc.cpg/sg97_3_cif.got.tgz:5998.got - 2010.04.08 20:59:42.
