data_PCOD8306466
_publ_section_title
;
Structure prediction by ZEFSAII (Michael W. Deem and Ramdas Pophale) SiO2 
 PCOD8306466
Probable space group: P 4 M M
;
_chemical_formula_sum "Si O2"
_cell_formula_units_Z 56
_cell_length_a 21.688761
_cell_length_b 21.688761
_cell_length_c 7.015177
_cell_angle_alpha 90.000000
_cell_angle_beta 90.000000
_cell_angle_gamma 90.000000
_cell_volume 3299.955773
_symmetry_space_group_name_H-M "P 4 M M"
_symmetry_group_IT_number 99
_symmetry_cell_setting 'tetragonal'
loop_
_space_group_symop_operation_xyz
x,y,z
-y,x,z
-x,-y,z
y,-x,z
-x,y,z
x,-y,z
-y,-x,z
y,x,z
loop_
_atom_site_type_symbol
_atom_site_label
_atom_site_fract_x
_atom_site_fract_y
_atom_site_fract_z
Si Si1 0.268137 0.635235 0.965390
Si Si2 0.323480 0.072149 0.185158
Si Si3 0.431327 0.763829 0.598987
Si Si4 0.166702 0.733363 0.926992
Si Si5 0.431090 0.667206 0.294648
Si Si6 0.130037 0.653750 0.585939
Si Si7 0.927871 0.430632 0.902897
O O1 0.327524 0.672477 0.884380
O O2 0.245504 0.583295 0.820710
O O3 0.213974 0.683132 0.008563
O O4 0.283616 0.601885 0.160511
O O5 0.268806 0.108871 0.073649
O O6 0.325081 0.088954 0.408165
O O7 0.389472 0.088702 0.088285
O O8 0.308345 0.000000 0.164694
O O9 0.500000 0.792244 0.577521
O O10 0.428754 0.696851 0.503280
O O11 0.379263 0.808141 0.507503
O O12 0.198835 0.801166 0.922178
O O13 0.145515 0.714352 0.712834
O O14 0.500000 0.655201 0.222358
O O15 0.398556 0.601445 0.297714
O O16 0.096926 0.601841 0.713030
O O17 0.899983 0.500000 0.926726
O O18 0.000000 0.435720 0.877112
#
# Coordination Sequence:
#
# PCOD8306466 Si02
#       7
#     8   8   8   8   8   8   8
#     4   9  17  31  49  66  86 112 144 188 238 283
#     4  10  20  33  50  72 101 136 169 202 241 285
#     4  10  19  29  43  64  87 113 148 191 237 283
#     4   9  19  34  52  74  98 126 160 198 240 287
#     4  10  20  32  46  63  83 109 142 184 237 296
#     4  10  19  31  47  69  95 126 163 204 247 289
#     4   9  18  31  45  64  94 133 175 212 243 280
#
# _framework density 16.969925
#
# number of rings (size 3 to 8) (size 9 to 14) (size 15 to 20)
#    0.000    2.429    0.000    2.571    0.000    3.000 
#    0.000    5.000    0.000    0.000    0.000    2.000 
#    0.000    0.286    0.000    0.571    0.000    0.000 
#
# Total GULP energy -694214.374230 kJ/mol
# GULP energy per Si atom -12396.685254 kJ/mol
# Density = 1.693130 g / cm^3
# Si number density = 16.969925 Si / 1000 Ang^3
#
#
#
# Elastic Constant Matrix: (Units=GPa)
#
#
# Indices 1 2 3 4 5 6 
#
# 1 75.6038 33.6008 39.5502 0.0000 0.0000 0.0002
# 2 33.6008 75.6038 39.5502 0.0000 0.0000 -0.0002
# 3 39.5502 39.5502 81.2295 0.0000 0.0000 0.0000
# 4 0.0000 0.0000 0.0000 22.3289 0.0000 0.0000
# 5 0.0000 0.0000 0.0000 0.0000 22.3289 0.0000
# 6 0.0002 -0.0002 0.0000 0.0000 0.0000 24.5200
#
#
#
# Elastic Compliance Matrix: (Units=1/GPa)
#
#
# Indices 1 2 3 4 5 6 
#
# 1 0.018977 -0.004831 -0.006888 0.000000 0.000000 0.000000
# 2 -0.004831 0.018977 -0.006888 0.000000 0.000000 0.000000
# 3 -0.006888 -0.006888 0.019018 0.000000 0.000000 0.000000
# 4 0.000000 0.000000 0.000000 0.044785 0.000000 0.000000
# 5 0.000000 0.000000 0.000000 0.000000 0.044785 0.000000
# 6 0.000000 0.000000 0.000000 0.000000 0.000000 0.040783
#
#
# Mechanical properties :
#
#
# Convention : Reuss Voigt Hill
#
# Bulk Modulus (GPa) = 50.60864 50.87105 50.73984
# Shear Modulus (GPa) = 21.63344 21.81795 21.72569
#
# Velocity S-wave (km/s) = 3.57432 3.58953 3.58194
# Velocity P-wave (km/s) = 6.84994 6.87182 6.86089
#
# Compressibility (1/GPa) = 0.01975947
#
# Stress axis : x y z
#
# Youngs Moduli (GPa) = 52.69547 52.69547 52.58202
#
# Poissons Ratio (x) = 0.25457 0.36217
# Poissons Ratio (y) = 0.25457 0.36217
# Poissons Ratio (z) = 0.36295 0.36295
#
# Static dielectric constant tensor:
#      x y z
#    x 3.178710 0.000000 0.000000 
#    y 0.000000 3.178710 0.000000 
#    z 0.000000 0.000000 3.048450 
# 
# 
# High freq. dielectric constant tensor:
#      x y z
#    x 1.637780 0.000000 0.000000 
#    y 0.000000 1.637780 0.000000 
#    z 0.000000 0.000000 1.653700 
# 
# From -- ./inp_files/480.got.cif
#   From: 2010.03.12/outbox.cif.g09.slc.cpg/sg99_cif.got.tgz:480.got - 2010.04.08 21:11:30.
