data_PCOD8306086
_publ_section_title
;
Structure prediction by ZEFSAII (Michael W. Deem and Ramdas Pophale) SiO2 
 PCOD8306086
Probable space group: I 4 2 2 
;
_chemical_formula_sum "Si O2"
_cell_formula_units_Z 96
_cell_length_a 19.398713
_cell_length_b 19.398713
_cell_length_c 12.258226
_cell_angle_alpha 90.000000
_cell_angle_beta 90.000000
_cell_angle_gamma 90.000000
_cell_volume 4612.893836
_symmetry_space_group_name_H-M "I 4 2 2 "
_symmetry_group_IT_number 97
_symmetry_cell_setting 'tetragonal'
loop_
_space_group_symop_operation_xyz
x,y,z
-y,x,z
-x,-y,z
y,-x,z
x,-y,-z
-x,y,-z
y,x,-z
-y,-x,-z
1/2+x,1/2+y,1/2+z
1/2-y,1/2+x,1/2+z
1/2-x,1/2-y,1/2+z
1/2+y,1/2-x,1/2+z
1/2+x,1/2-y,1/2-z
1/2-x,1/2+y,1/2-z
1/2+y,1/2+x,1/2-z
1/2-y,1/2-x,1/2-z
loop_
_atom_site_type_symbol
_atom_site_label
_atom_site_fract_x
_atom_site_fract_y
_atom_site_fract_z
Si Si1 0.112886 0.003098 0.712665
Si Si2 0.275793 0.830186 0.482538
Si Si3 0.689074 0.092762 0.698321
Si Si4 0.187905 0.917930 0.869233
Si Si5 0.545983 0.243882 0.176851
Si Si6 0.276496 0.613267 0.599449
O O1 0.144035 0.987029 0.834609
O O2 0.069419 0.934025 0.689576
O O3 0.181235 0.014719 0.639161
O O4 0.198875 0.801126 0.500000
O O5 0.302098 0.855053 0.598667
O O6 0.276619 0.891826 0.398105
O O7 0.321240 0.770157 0.429406
O O8 0.616175 0.116175 0.750000
O O9 0.752060 0.098083 0.782959
O O10 0.685941 0.013165 0.659887
O O11 0.138110 0.851827 0.863791
O O12 0.217856 0.932040 0.989273
O O13 0.568575 0.243383 0.303871
#
# Coordination Sequence:
#
# PCOD8306086 Si02
#       6
#    16  16  16  16  16  16
#     4  10  21  39  59  86 136 188 218 251 307 399
#     4  12  23  39  67  96 129 166 221 282 337 379
#     4  11  22  42  61  89 125 171 212 274 334 396
#     4  10  20  38  61  92 124 163 226 267 325 376
#     4  11  25  39  64  95 133 169 223 265 329 400
#     4  11  20  40  61  96 124 164 209 289 335 376
#
# _framework density 20.811230999999999
#
# number of rings (size 3 to 8) (size 9 to 14) (size 15 to 20)
#    0.000    1.167    5.000    2.000    2.333    2.667 
#    0.000    0.000    0.000    2.000    0.000    4.667 
#    0.000    0.000    0.000    0.000    0.000    0.000 
#
# Total GULP energy -594730.311022 kJ/mol
# GULP energy per Si atom -12390.214813 kJ/mol
# Density = 2.076386 g / cm^3
# Si number density = 20.811231 Si / 1000 Ang^3
#
#
#
# Elastic Constant Matrix: (Units=GPa)
#
#
# Indices 1 2 3 4 5 6 
#
# 1 63.0858 34.6611 6.5962 0.0000 0.0000 0.0000
# 2 34.6611 63.0874 6.5966 0.0000 0.0000 0.0000
# 3 6.5962 6.5966 46.4508 0.0000 0.0000 0.0000
# 4 0.0000 0.0000 0.0000 20.8267 0.0000 0.0000
# 5 0.0000 0.0000 0.0000 0.0000 20.8308 0.0000
# 6 0.0000 0.0000 0.0000 0.0000 0.0000 40.3023
#
#
#
# Elastic Compliance Matrix: (Units=1/GPa)
#
#
# Indices 1 2 3 4 5 6 
#
# 1 0.022805 -0.012375 -0.001481 0.000000 0.000000 0.000000
# 2 -0.012375 0.022805 -0.001481 0.000000 0.000000 0.000000
# 3 -0.001481 -0.001481 0.021949 0.000000 0.000000 0.000000
# 4 0.000000 0.000000 0.000000 0.048015 0.000000 0.000000
# 5 0.000000 0.000000 0.000000 0.000000 0.048006 0.000000
# 6 0.000000 0.000000 0.000000 0.000000 0.000000 0.024812
#
#
# Mechanical properties :
#
#
# Convention : Reuss Voigt Hill
#
# Bulk Modulus (GPa) = 27.11150 29.81464 28.46307
# Shear Modulus (GPa) = 21.61122 24.70998 23.16060
#
# Velocity S-wave (km/s) = 3.22598 3.44952 3.33962
# Velocity P-wave (km/s) = 5.18956 5.49753 5.34577
#
# Compressibility (1/GPa) = 0.03688472
#
# Stress axis : x y z
#
# Youngs Moduli (GPa) = 43.84952 43.85060 45.56054
#
# Poissons Ratio (x) = 0.54264 0.06748
# Poissons Ratio (y) = 0.54262 0.06749
# Poissons Ratio (z) = 0.06494 0.06496
#
# Static dielectric constant tensor:
#      x y z
#    x 3.978090 0.000000 0.000000 
#    y 0.000000 3.977960 0.000000 
#    z 0.000000 0.000000 3.817210 
# 
# 
# High freq. dielectric constant tensor:
#      x y z
#    x 1.810820 0.000000 0.000000 
#    y 0.000000 1.810820 0.000000 
#    z 0.000000 0.000000 1.812540 
# 
# From -- ./inp_files/3884.got.cif
#   From: 2010.03.12/outbox.cif.g09.slc.cpg/sg97_2_cif.got.tgz:3884.got - 2010.04.08 20:59:42.
