data_PCOD8306718
_publ_section_title
;
Structure prediction by ZEFSAII (Michael W. Deem and Ramdas Pophale) SiO2 
 PCOD8306718
Probable space group: P 42 C M
;
_chemical_formula_sum "Si O2"
_cell_formula_units_Z 64
_cell_length_a 12.508006
_cell_length_b 12.508006
_cell_length_c 22.726645
_cell_angle_alpha 90.000000
_cell_angle_beta 90.000000
_cell_angle_gamma 90.000000
_cell_volume 3555.588476
_symmetry_space_group_name_H-M "P 42 C M"
_symmetry_group_IT_number 101
_symmetry_cell_setting 'tetragonal'
loop_
_space_group_symop_operation_xyz
x,y,z
-y,x,1/2+z
-x,-y,z
y,-x,1/2+z
-x,y,1/2+z
x,-y,1/2+z
-y,-x,z
y,x,z
loop_
_atom_site_type_symbol
_atom_site_label
_atom_site_fract_x
_atom_site_fract_y
_atom_site_fract_z
Si Si1 0.326030 0.498288 0.835420
Si Si2 0.109382 0.434180 0.383178
Si Si3 0.069745 0.393684 0.509416
Si Si4 0.781348 0.609639 0.613968
Si Si5 0.070426 0.241274 0.683844
Si Si6 0.001708 0.173930 0.062912
Si Si7 0.940359 0.386524 0.760264
Si Si8 0.446008 0.271056 0.207459
O O1 0.391589 0.608412 0.846236
O O2 0.396669 0.396669 0.854526
O O3 0.217433 0.495172 0.874125
O O4 0.298669 0.486351 0.766086
O O5 0.118374 0.369719 0.444452
O O6 0.103062 0.357538 0.325705
O O7 0.000000 0.500000 0.385055
O O8 0.163941 0.426808 0.553665
O O9 0.004709 0.287387 0.529100
O O10 0.000000 0.500000 0.506426
O O11 0.698903 0.698903 0.594233
O O12 0.869684 0.656561 0.657543
O O13 0.722061 0.515662 0.648377
O O14 0.151775 0.151775 0.707160
O O15 0.993694 0.193367 0.633215
O O16 0.009562 0.284880 0.740832
O O17 0.895382 0.104619 0.048129
O O18 0.108583 0.108583 0.044432
O O19 0.845571 0.394682 0.713258
O O20 0.000000 0.500000 0.761526
O O21 0.353367 0.353367 0.196267
#
# Coordination Sequence:
#
# PCOD8306718 Si02
#       8
#     8   8   8   8   8   8   8   8
#     4   9  18  34  57  81 107 143 183 224 271 324
#     4   9  20  37  52  78 110 146 186 227 264 317
#     4  10  21  37  55  76 110 145 185 225 265 312
#     4  10  20  33  52  77 103 139 176 212 263 317
#     4   9  18  31  51  80 107 135 174 218 267 323
#     4   9  19  36  58  80 103 139 184 226 268 318
#     4  10  18  33  54  76 108 144 180 216 264 324
#     4  10  20  32  51  81 111 137 170 219 276 330
#
# _framework density 17.999832000000001
#
# number of rings (size 3 to 8) (size 9 to 14) (size 15 to 20)
#    0.000    2.500    1.250    1.500    3.500    2.250 
#    0.000    3.750    0.000    0.000    0.000    1.750 
#    0.000    0.000    0.000    0.000    0.000    0.000 
#
# Total GULP energy -793194.334815 kJ/mol
# GULP energy per Si atom -12393.661481 kJ/mol
# Density = 1.795886 g / cm^3
# Si number density = 17.999832 Si / 1000 Ang^3
#
#
#
# Elastic Constant Matrix: (Units=GPa)
#
#
# Indices 1 2 3 4 5 6 
#
# 1 81.2203 25.0116 31.9916 0.0000 0.0000 -0.0003
# 2 25.0116 81.2203 31.9916 0.0000 0.0000 0.0003
# 3 31.9916 31.9916 94.9175 0.0000 0.0000 0.0000
# 4 0.0000 0.0000 0.0000 16.4411 0.0000 0.0000
# 5 0.0000 0.0000 0.0000 0.0000 16.4411 0.0000
# 6 -0.0003 0.0003 0.0000 0.0000 0.0000 26.0652
#
#
#
# Elastic Compliance Matrix: (Units=1/GPa)
#
#
# Indices 1 2 3 4 5 6 
#
# 1 0.014801 -0.002990 -0.003981 0.000000 0.000000 0.000000
# 2 -0.002990 0.014801 -0.003981 0.000000 0.000000 0.000000
# 3 -0.003981 -0.003981 0.013219 0.000000 0.000000 0.000000
# 4 0.000000 0.000000 0.000000 0.060823 0.000000 0.000000
# 5 0.000000 0.000000 0.000000 0.000000 0.060823 0.000000
# 6 0.000000 0.000000 0.000000 0.000000 0.000000 0.038365
#
#
# Mechanical properties :
#
#
# Convention : Reuss Voigt Hill
#
# Bulk Modulus (GPa) = 47.80679 48.37199 48.08939
# Shear Modulus (GPa) = 21.57883 23.01368 22.29626
#
# Velocity S-wave (km/s) = 3.46618 3.57956 3.52332
# Velocity P-wave (km/s) = 6.52966 6.63447 6.58227
#
# Compressibility (1/GPa) = 0.02091753
#
# Stress axis : x y z
#
# Youngs Moduli (GPa) = 67.56327 67.56327 75.64907
#
# Poissons Ratio (x) = 0.20201 0.30115
# Poissons Ratio (y) = 0.20201 0.30115
# Poissons Ratio (z) = 0.26896 0.26896
#
# Static dielectric constant tensor:
#      x y z
#    x 2.914710 0.000000 0.000000 
#    y 0.000000 2.914710 0.000000 
#    z 0.000000 0.000000 3.517340 
# 
# 
# High freq. dielectric constant tensor:
#      x y z
#    x 1.689480 0.000000 0.000000 
#    y 0.000000 1.689480 0.000000 
#    z 0.000000 0.000000 1.685650 
# 
# From -- ./inp_files/2760.got.cif
#   From: 2010.03.12/outbox.cif.g09.slc.cpg/sg101_2_cif.got.tgz:2760.got - 2010.04.14 01:38:52.
