data_PCOD8306479
_publ_section_title
;
Structure prediction by ZEFSAII (Michael W. Deem and Ramdas Pophale) SiO2 
 PCOD8306479
Probable space group: P 4 M M
;
_chemical_formula_sum "Si O2"
_cell_formula_units_Z 64
_cell_length_a 13.876320
_cell_length_b 13.876320
_cell_length_c 20.433392
_cell_angle_alpha 90.000000
_cell_angle_beta 90.000000
_cell_angle_gamma 90.000000
_cell_volume 3934.495743
_symmetry_space_group_name_H-M "P 4 M M"
_symmetry_group_IT_number 99
_symmetry_cell_setting 'tetragonal'
loop_
_space_group_symop_operation_xyz
x,y,z
-y,x,z
-x,-y,z
y,-x,z
-x,y,z
x,-y,z
-y,-x,z
y,x,z
loop_
_atom_site_type_symbol
_atom_site_label
_atom_site_fract_x
_atom_site_fract_y
_atom_site_fract_z
Si Si1 0.234295 0.388984 0.198010
Si Si2 0.271802 0.114447 0.592275
Si Si3 0.771848 0.386395 0.698083
Si Si4 0.610767 0.765530 0.343391
Si Si5 0.610635 0.109389 0.826894
Si Si6 0.267389 0.887082 0.953072
Si Si7 0.112290 0.608793 0.465425
Si Si8 0.112615 0.389875 0.076183
O O1 0.259317 0.500000 0.187891
O O2 0.334023 0.334023 0.188336
O O3 0.190764 0.369974 0.270750
O O4 0.158640 0.352841 0.143916
O O5 0.169521 0.169521 0.599147
O O6 0.347306 0.150600 0.646314
O O7 0.318396 0.141512 0.522747
O O8 0.254484 0.000000 0.600327
O O9 0.753270 0.500000 0.686183
O O10 0.670523 0.329478 0.691921
O O11 0.817255 0.366430 0.768800
O O12 0.500000 0.739012 0.352787
O O13 0.666475 0.666475 0.353717
O O14 0.645194 0.841232 0.397814
O O15 0.500000 0.116263 0.848729
O O16 0.673625 0.140813 0.888546
O O17 0.635128 0.000000 0.804640
O O18 0.164727 0.835274 0.951164
O O19 0.247323 0.000000 0.957067
O O20 0.326804 0.849720 0.015713
O O21 0.145808 0.500000 0.483733
O O22 0.000000 0.610819 0.452960
O O23 0.140751 0.500000 0.061279
O O24 0.000000 0.377605 0.085266
#
# Coordination Sequence:
#
# PCOD8306479 Si02
#       8
#     8   8   8   8   8   8   8   8
#     4   9  17  28  42  61  85 113 143 175 213 258
#     4  10  20  33  50  71  94 121 153 189 230 274
#     4  10  20  33  50  72  97 125 156 189 225 266
#     4   9  17  28  42  61  86 115 145 177 213 255
#     4   9  17  30  49  71  92 115 147 186 224 262
#     4  10  19  30  45  64  88 117 146 178 216 259
#     4   9  17  29  46  67  89 114 146 183 222 264
#     4   9  17  29  45  64  84 107 139 180 223 262
#
# _framework density 16.266380000000002
#
# number of rings (size 3 to 8) (size 9 to 14) (size 15 to 20)
#    0.000    2.625    0.000    2.250    0.000    3.875 
#    0.000    3.750    0.000    0.000    0.000    3.500 
#    0.000    9.000    0.000   23.250    0.000    0.500 
#
# Total GULP energy -793469.298140 kJ/mol
# GULP energy per Si atom -12397.957783 kJ/mol
# Density = 1.622936 g / cm^3
# Si number density = 16.266380 Si / 1000 Ang^3
#
#
#
# Elastic Constant Matrix: (Units=GPa)
#
#
# Indices 1 2 3 4 5 6 
#
# 1 72.1045 47.0435 54.7557 0.0000 0.0000 0.0001
# 2 47.0435 72.1045 54.7557 0.0000 0.0000 -0.0001
# 3 54.7557 54.7557 123.6038 0.0000 0.0000 0.0000
# 4 0.0000 0.0000 0.0000 25.2474 0.0000 0.0000
# 5 0.0000 0.0000 0.0000 0.0000 25.2474 0.0000
# 6 0.0001 -0.0001 0.0000 0.0000 0.0000 24.6990
#
#
#
# Elastic Compliance Matrix: (Units=1/GPa)
#
#
# Indices 1 2 3 4 5 6 
#
# 1 0.027030 -0.012873 -0.006272 0.000000 0.000000 0.000000
# 2 -0.012873 0.027030 -0.006272 0.000000 0.000000 0.000000
# 3 -0.006272 -0.006272 0.013647 0.000000 0.000000 0.000000
# 4 0.000000 0.000000 0.000000 0.039608 0.000000 0.000000
# 5 0.000000 0.000000 0.000000 0.000000 0.039608 0.000000
# 6 0.000000 0.000000 0.000000 0.000000 0.000000 0.040488
#
#
# Mechanical properties :
#
#
# Convention : Reuss Voigt Hill
#
# Bulk Modulus (GPa) = 59.25882 64.54694 61.90288
# Shear Modulus (GPa) = 20.50298 22.45596 21.47947
#
# Velocity S-wave (km/s) = 3.55413 3.71956 3.63779
# Velocity P-wave (km/s) = 7.30423 7.62982 7.46880
#
# Compressibility (1/GPa) = 0.01687513
#
# Stress axis : x y z
#
# Youngs Moduli (GPa) = 36.99599 36.99599 73.27671
#
# Poissons Ratio (x) = 0.47624 0.45956
# Poissons Ratio (y) = 0.47624 0.45956
# Poissons Ratio (z) = 0.23202 0.23202
#
# Static dielectric constant tensor:
#      x y z
#    x 2.963450 0.000000 0.000000 
#    y 0.000000 2.963450 0.000000 
#    z 0.000000 0.000000 3.315050 
# 
# 
# High freq. dielectric constant tensor:
#      x y z
#    x 1.615370 0.000000 0.000000 
#    y 0.000000 1.615370 0.000000 
#    z 0.000000 0.000000 1.641720 
# 
# From -- ./inp_files/2074.got.cif
#   From: 2010.03.12/outbox.cif.g09.slc.cpg/sg99_cif.got.tgz:2074.got - 2010.04.08 21:11:30.
