data_PCOD8306482
_publ_section_title
;
Structure prediction by ZEFSAII (Michael W. Deem and Ramdas Pophale) SiO2 
 PCOD8306482
Probable space group: P 4 M M
;
_chemical_formula_sum "Si O2"
_cell_formula_units_Z 56
_cell_length_a 13.726676
_cell_length_b 13.726676
_cell_length_c 18.293625
_cell_angle_alpha 90.000000
_cell_angle_beta 90.000000
_cell_angle_gamma 90.000000
_cell_volume 3446.914714
_symmetry_space_group_name_H-M "P 4 M M"
_symmetry_group_IT_number 99
_symmetry_cell_setting 'tetragonal'
loop_
_space_group_symop_operation_xyz
x,y,z
-y,x,z
-x,-y,z
y,-x,z
-x,y,z
x,-y,z
-y,-x,z
y,x,z
loop_
_atom_site_type_symbol
_atom_site_label
_atom_site_fract_x
_atom_site_fract_y
_atom_site_fract_z
Si Si1 0.265703 0.110117 0.637640
Si Si2 0.889763 0.385681 0.340283
Si Si3 0.886613 0.728694 0.480201
Si Si4 0.885250 0.723859 0.796846
Si Si5 0.773764 0.385129 0.916954
Si Si6 0.615257 0.108853 0.058925
Si Si7 0.384991 0.228772 0.199328
O O1 0.164518 0.164518 0.638131
O O2 0.321713 0.134029 0.560726
O O3 0.320786 0.132162 0.714447
O O4 0.232702 0.000000 0.636711
O O5 0.884846 0.500000 0.348583
O O6 0.850021 0.342971 0.416600
O O7 0.822589 0.350634 0.273882
O O8 0.000000 0.351458 0.323925
O O9 0.830077 0.830077 0.473193
O O10 0.000000 0.751996 0.470323
O O11 0.824514 0.824514 0.808313
O O12 0.845808 0.640639 0.850492
O O13 0.000000 0.743938 0.811516
O O14 0.751481 0.500000 0.916775
O O15 0.671264 0.328737 0.909768
O O16 0.827003 0.349631 0.990629
O O17 0.500000 0.100398 0.057902
O O18 0.649886 0.159801 0.133374
O O19 0.660707 0.000000 0.054642
O O20 0.500000 0.248137 0.196828
O O21 0.332908 0.332908 0.192809
#
# Coordination Sequence:
#
# PCOD8306482 Si02
#       7
#     8   8   8   8   8   8   8
#     4   8  14  24  38  58  85 115 145 178 216 260
#     4   9  17  29  44  61  82 110 145 184 223 260
#     4   9  16  26  41  61  86 114 142 175 216 263
#     4   9  17  29  45  66  92 121 153 188 227 272
#     4  10  20  33  49  69  93 121 153 189 229 271
#     4   9  17  30  48  68  89 113 141 173 210 253
#     4  10  19  30  45  65  89 116 146 180 218 261
#
# _framework density 16.246413
#
# number of rings (size 3 to 8) (size 9 to 14) (size 15 to 20)
#    0.000    2.857    0.000    1.714    0.000    3.286 
#    0.000    3.571    0.000    5.143    0.000    0.000 
#    0.000   11.714    0.000    9.000    0.000    0.000 
#
# Total GULP energy -693809.858356 kJ/mol
# GULP energy per Si atom -12389.461756 kJ/mol
# Density = 1.620944 g / cm^3
# Si number density = 16.246413 Si / 1000 Ang^3
#
#
#
# Elastic Constant Matrix: (Units=GPa)
#
#
# Indices 1 2 3 4 5 6 
#
# 1 59.5009 31.8672 43.2853 0.0000 0.0000 0.0001
# 2 31.8672 59.5009 43.2853 0.0000 0.0000 -0.0001
# 3 43.2853 43.2853 152.3037 0.0000 0.0000 0.0000
# 4 0.0000 0.0000 0.0000 23.7585 0.0000 0.0000
# 5 0.0000 0.0000 0.0000 0.0000 23.7585 0.0000
# 6 0.0001 -0.0001 0.0000 0.0000 0.0000 17.2118
#
#
#
# Elastic Compliance Matrix: (Units=1/GPa)
#
#
# Indices 1 2 3 4 5 6 
#
# 1 0.025583 -0.010605 -0.004257 0.000000 0.000000 0.000000
# 2 -0.010605 0.025583 -0.004257 0.000000 0.000000 0.000000
# 3 -0.004257 -0.004257 0.008985 0.000000 0.000000 0.000000
# 4 0.000000 0.000000 0.000000 0.042090 0.000000 0.000000
# 5 0.000000 0.000000 0.000000 0.000000 0.042090 0.000000
# 6 0.000000 0.000000 0.000000 0.000000 0.000000 0.058100
#
#
# Mechanical properties :
#
#
# Convention : Reuss Voigt Hill
#
# Bulk Modulus (GPa) = 45.63242 56.46456 51.04849
# Shear Modulus (GPa) = 20.16350 23.13694 21.65022
#
# Velocity S-wave (km/s) = 3.52675 3.77785 3.65446
# Velocity P-wave (km/s) = 6.68825 7.33895 7.02114
#
# Compressibility (1/GPa) = 0.02191424
#
# Stress axis : x y z
#
# Youngs Moduli (GPa) = 39.08867 39.08867 111.29126
#
# Poissons Ratio (x) = 0.41453 0.47375
# Poissons Ratio (y) = 0.41453 0.47375
# Poissons Ratio (z) = 0.16639 0.16639
#
# Static dielectric constant tensor:
#      x y z
#    x 2.865970 0.000000 0.000000 
#    y 0.000000 2.865970 0.000000 
#    z 0.000000 0.000000 3.629790 
# 
# 
# High freq. dielectric constant tensor:
#      x y z
#    x 1.600840 0.000000 0.000000 
#    y 0.000000 1.600840 0.000000 
#    z 0.000000 0.000000 1.652800 
# 
# From -- ./inp_files/1774.got.cif
#   From: 2010.03.12/outbox.cif.g09.slc.cpg/sg99_cif.got.tgz:1774.got - 2010.04.08 21:11:30.
