data_PCOD8306439
_publ_section_title
;
Structure prediction by ZEFSAII (Michael W. Deem and Ramdas Pophale) SiO2 
 PCOD8306439
Probable space group: P 4 M M
;
_chemical_formula_sum "Si O2"
_cell_formula_units_Z 56
_cell_length_a 13.948165
_cell_length_b 13.948165
_cell_length_c 17.877819
_cell_angle_alpha 90.000000
_cell_angle_beta 90.000000
_cell_angle_gamma 90.000000
_cell_volume 3478.153050
_symmetry_space_group_name_H-M "P 4 M M"
_symmetry_group_IT_number 99
_symmetry_cell_setting 'tetragonal'
loop_
_space_group_symop_operation_xyz
x,y,z
-y,x,z
-x,-y,z
y,-x,z
-x,y,z
x,-y,z
-y,-x,z
y,x,z
loop_
_atom_site_type_symbol
_atom_site_label
_atom_site_fract_x
_atom_site_fract_y
_atom_site_fract_z
Si Si1 0.730392 0.113973 0.884170
Si Si2 0.237823 0.609102 0.601952
Si Si3 0.888860 0.390010 0.465794
Si Si4 0.113348 0.265852 0.324886
Si Si5 0.611863 0.768505 0.771657
Si Si6 0.113549 0.606768 0.023142
Si Si7 0.113822 0.393047 0.189039
O O1 0.832338 0.167663 0.875110
O O2 0.656487 0.144961 0.819517
O O3 0.748043 0.000000 0.880078
O O4 0.683605 0.148574 0.962381
O O5 0.264381 0.500000 0.587137
O O6 0.335725 0.664276 0.588802
O O7 0.159779 0.645504 0.542433
O O8 0.198187 0.624350 0.685766
O O9 0.864268 0.500000 0.447037
O O10 0.853406 0.327106 0.396330
O O11 0.000000 0.375065 0.479566
O O12 0.162001 0.162001 0.328501
O O13 0.152691 0.320129 0.251211
O O14 0.000000 0.249906 0.322749
O O15 0.500000 0.752461 0.791956
O O16 0.669109 0.669109 0.787183
O O17 0.154660 0.500000 0.005517
O O18 0.147151 0.640053 0.106013
O O19 0.000000 0.600798 0.020461
O O20 0.153313 0.500000 0.205500
O O21 0.000000 0.395474 0.193725
#
# Coordination Sequence:
#
# PCOD8306439 Si02
#       7
#     8   8   8   8   8   8   8
#     4  10  20  32  46  65  90 121 156 192 228 266
#     4   9  17  29  45  66  92 117 140 170 210 261
#     4   9  17  29  45  64  84 108 142 183 223 258
#     4  10  19  29  42  60  84 115 147 179 216 258
#     4   9  18  31  47  69  94 119 148 181 221 271
#     4   8  14  26  45  66  85 107 137 175 219 262
#     4   8  14  26  44  64  84 106 136 176 218 256
#
# _framework density 16.1005
#
# number of rings (size 3 to 8) (size 9 to 14) (size 15 to 20)
#    0.000    3.000    0.000    2.143    0.000    4.286 
#    0.000    2.857    0.000    0.000    0.000    4.000 
#    0.000    6.000    0.000   10.571    0.000    1.143 
#
# Total GULP energy -694111.139573 kJ/mol
# GULP energy per Si atom -12394.841778 kJ/mol
# Density = 1.606385 g / cm^3
# Si number density = 16.100500 Si / 1000 Ang^3
#
#
#
# Elastic Constant Matrix: (Units=GPa)
#
#
# Indices 1 2 3 4 5 6 
#
# 1 70.2690 40.5726 52.4824 0.0000 0.0000 -0.0001
# 2 40.5726 70.2690 52.4824 0.0000 0.0000 0.0001
# 3 52.4824 52.4824 122.0076 0.0000 0.0000 0.0000
# 4 0.0000 0.0000 0.0000 22.1203 0.0000 0.0000
# 5 0.0000 0.0000 0.0000 0.0000 22.1203 0.0000
# 6 -0.0001 0.0001 0.0000 0.0000 0.0000 18.3300
#
#
#
# Elastic Compliance Matrix: (Units=1/GPa)
#
#
# Indices 1 2 3 4 5 6 
#
# 1 0.024449 -0.009226 -0.006548 0.000000 0.000000 0.000000
# 2 -0.009226 0.024449 -0.006548 0.000000 0.000000 0.000000
# 3 -0.006548 -0.006548 0.013830 0.000000 0.000000 0.000000
# 4 0.000000 0.000000 0.000000 0.045207 0.000000 0.000000
# 5 0.000000 0.000000 0.000000 0.000000 0.045207 0.000000
# 6 0.000000 0.000000 0.000000 0.000000 0.000000 0.054555
#
#
# Mechanical properties :
#
#
# Convention : Reuss Voigt Hill
#
# Bulk Modulus (GPa) = 55.30165 61.51339 58.40752
# Shear Modulus (GPa) = 19.35217 20.31464 19.83341
#
# Velocity S-wave (km/s) = 3.47069 3.55595 3.51358
# Velocity P-wave (km/s) = 7.10516 7.42621 7.26746
#
# Compressibility (1/GPa) = 0.01808264
#
# Stress axis : x y z
#
# Youngs Moduli (GPa) = 40.90219 40.90219 72.30776
#
# Poissons Ratio (x) = 0.37735 0.47349
# Poissons Ratio (y) = 0.37735 0.47349
# Poissons Ratio (z) = 0.26784 0.26784
#
# Static dielectric constant tensor:
#      x y z
#    x 2.869250 0.000000 0.000000 
#    y 0.000000 2.869250 0.000000 
#    z 0.000000 0.000000 3.419120 
# 
# 
# High freq. dielectric constant tensor:
#      x y z
#    x 1.597870 0.000000 0.000000 
#    y 0.000000 1.597870 0.000000 
#    z 0.000000 0.000000 1.635770 
# 
# From -- ./inp_files/2155.got.cif
#   From: 2010.03.12/outbox.cif.g09.slc.cpg/sg99_cif.got.tgz:2155.got - 2010.04.08 21:11:30.
