data_PCOD8306386
_publ_section_title
;
Structure prediction by ZEFSAII (Michael W. Deem and Ramdas Pophale) SiO2 
 PCOD8306386
Probable space group: I 41 2 2
;
_chemical_formula_sum "Si O2"
_cell_formula_units_Z 88
_cell_length_a 14.317468
_cell_length_b 14.317468
_cell_length_c 19.648299
_cell_angle_alpha 90.000000
_cell_angle_beta 90.000000
_cell_angle_gamma 90.000000
_cell_volume 4027.702649
_symmetry_space_group_name_H-M "I 41 2 2"
_symmetry_group_IT_number 98
_symmetry_cell_setting 'tetragonal'
loop_
_space_group_symop_operation_xyz
x,y,z
-y,1/2+x,1/4+z
-x,-y,z
y,1/2-x,1/4+z
x,1/2-y,1/4-z
-x,1/2+y,1/4-z
y,x,-z
-y,-x,-z
1/2+x,1/2+y,1/2+z
1/2-y,x,3/4+z
1/2-x,1/2-y,1/2+z
1/2+y,-x,3/4+z
1/2+x,-y,3/4-z
1/2-x,y,3/4-z
1/2+y,1/2+x,1/2-z
1/2-y,1/2-x,1/2-z
loop_
_atom_site_type_symbol
_atom_site_label
_atom_site_fract_x
_atom_site_fract_y
_atom_site_fract_z
Si Si1 0.654997 0.097877 0.646510
Si Si2 0.559677 0.704689 0.489411
Si Si3 0.712233 0.322342 0.809100
Si Si4 0.750000 0.004878 0.875000
Si Si5 0.710791 0.834914 0.449480
Si Si6 0.513879 0.111162 0.989910
O O1 0.739963 0.169159 0.643935
O O2 0.560276 0.156813 0.644879
O O3 0.647097 0.020526 0.587571
O O4 0.678342 0.043804 0.715903
O O5 0.604567 0.604567 0.500000
O O6 0.557835 0.768111 0.558437
O O7 0.622958 0.765546 0.438511
O O8 0.750000 0.381787 0.875000
O O9 0.783275 0.283275 0.750000
O O10 0.633950 0.385237 0.773105
O O11 0.787888 0.787888 0.500000
O O12 0.750000 0.853984 0.375000
O O13 0.673356 0.933332 0.477212
O O14 0.500000 0.000000 0.996852
#
# Coordination Sequence:
#
# PCOD8306386 Si02
#       6
#    16  16  16   8  16  16
#     4  12  23  42  66 101 145 178 223 288 359 431
#     4  11  27  41  69  97 140 185 235 287 361 433
#     4  12  23  46  72 101 139 192 233 289 363 426
#     4  12  24  42  64 104 140 182 228 280 366 438
#     4  11  25  47  71  98 141 190 243 298 361 416
#     4  12  26  43  73 106 141 184 246 297 349 426
#
# _framework density 21.848683000000001
#
# number of rings (size 3 to 8) (size 9 to 14) (size 15 to 20)
#    0.000    0.364    2.727    6.545   10.182    0.727 
#    0.000    0.000    0.000    0.000    0.000    0.000 
#    0.000    0.000    0.000    0.000    0.000    0.000 
#
# Total GULP energy -545165.844972 kJ/mol
# GULP energy per Si atom -12390.132840 kJ/mol
# Density = 2.179895 g / cm^3
# Si number density = 21.848683 Si / 1000 Ang^3
#
#
#
# Elastic Constant Matrix: (Units=GPa)
#
#
# Indices 1 2 3 4 5 6 
#
# 1 97.8065 42.7450 46.9527 0.0000 0.0000 0.0000
# 2 42.7450 97.8065 46.9527 0.0000 0.0000 0.0000
# 3 46.9527 46.9527 154.7103 0.0000 0.0000 0.0000
# 4 0.0000 0.0000 0.0000 36.0052 0.0000 0.0000
# 5 0.0000 0.0000 0.0000 0.0000 36.0052 0.0000
# 6 0.0000 0.0000 0.0000 0.0000 0.0000 39.1432
#
#
#
# Elastic Compliance Matrix: (Units=1/GPa)
#
#
# Indices 1 2 3 4 5 6 
#
# 1 0.013543 -0.004619 -0.002708 0.000000 0.000000 0.000000
# 2 -0.004619 0.013543 -0.002708 0.000000 0.000000 0.000000
# 3 -0.002708 -0.002708 0.008108 0.000000 0.000000 0.000000
# 4 0.000000 0.000000 0.000000 0.027774 0.000000 0.000000
# 5 0.000000 0.000000 0.000000 0.000000 0.027774 0.000000
# 6 0.000000 0.000000 0.000000 0.000000 0.000000 0.025547
#
#
# Mechanical properties :
#
#
# Convention : Reuss Voigt Hill
#
# Bulk Modulus (GPa) = 66.12587 69.29154 67.70871
# Shear Modulus (GPa) = 35.36066 36.47559 35.91812
#
# Velocity S-wave (km/s) = 4.02734 4.09034 4.05896
# Velocity P-wave (km/s) = 7.20812 7.35466 7.28176
#
# Compressibility (1/GPa) = 0.01512267
#
# Stress axis : x y z
#
# Youngs Moduli (GPa) = 73.83911 73.83912 123.34029
#
# Poissons Ratio (x) = 0.34103 0.33406
# Poissons Ratio (y) = 0.34103 0.33406
# Poissons Ratio (z) = 0.19999 0.19999
#
# Static dielectric constant tensor:
#      x y z
#    x 3.932380 0.000000 0.000000 
#    y 0.000000 3.932380 0.000000 
#    z 0.000000 0.000000 4.272210 
# 
# 
# High freq. dielectric constant tensor:
#      x y z
#    x 1.861150 0.000000 0.000000 
#    y 0.000000 1.861150 0.000000 
#    z 0.000000 0.000000 1.876810 
# 
# From -- ./inp_files/8802.got.cif
#   From: 2010.03.12/outbox.cif.g09.slc.cpg/sg98_5_cif.got.tgz:8802.got - 2010.04.08 21:04:41.
