data_PCOD8306173
_publ_section_title
;
Structure prediction by ZEFSAII (Michael W. Deem and Ramdas Pophale) SiO2 
 PCOD8306173
Probable space group: I 4 2 2 
;
_chemical_formula_sum "Si O2"
_cell_formula_units_Z 112
_cell_length_a 14.317733
_cell_length_b 14.317733
_cell_length_c 26.144322
_cell_angle_alpha 90.000000
_cell_angle_beta 90.000000
_cell_angle_gamma 90.000000
_cell_volume 5359.520081
_symmetry_space_group_name_H-M "I 4 2 2 "
_symmetry_group_IT_number 97
_symmetry_cell_setting 'tetragonal'
loop_
_space_group_symop_operation_xyz
x,y,z
-y,x,z
-x,-y,z
y,-x,z
x,-y,-z
-x,y,-z
y,x,-z
-y,-x,-z
1/2+x,1/2+y,1/2+z
1/2-y,1/2+x,1/2+z
1/2-x,1/2-y,1/2+z
1/2+y,1/2-x,1/2+z
1/2+x,1/2-y,1/2-z
1/2-x,1/2+y,1/2-z
1/2+y,1/2+x,1/2-z
1/2-y,1/2-x,1/2-z
loop_
_atom_site_type_symbol
_atom_site_label
_atom_site_fract_x
_atom_site_fract_y
_atom_site_fract_z
Si Si1 0.928144 0.136662 0.788569
Si Si2 0.193062 0.591015 0.650809
Si Si3 0.095017 0.246001 0.512251
Si Si4 0.250764 0.082109 0.369525
Si Si5 0.058478 0.402806 0.044753
Si Si6 0.106698 0.218957 0.322414
Si Si7 0.411127 0.934291 0.806003
O O1 0.889713 0.197360 0.837181
O O2 0.902282 0.189078 0.736092
O O3 0.038936 0.124209 0.791126
O O4 0.166867 0.568419 0.592350
O O5 0.127023 0.671036 0.674112
O O6 0.178888 0.496158 0.682490
O O7 0.187384 0.187384 0.500000
O O8 0.096368 0.272225 0.571337
O O9 0.082825 0.336710 0.475908
O O10 0.000000 0.186980 0.500000
O O11 0.192326 0.168935 0.349677
O O12 0.351895 0.078259 0.345449
O O13 0.195788 0.987079 0.354687
O O14 0.000000 0.500000 0.057120
O O15 0.000000 0.350546 0.000000
O O16 0.393631 0.893631 0.750000
O O17 0.500000 0.000000 0.810875
#
# Coordination Sequence:
#
# PCOD8306173 Si02
#       7
#    16  16  16  16  16  16  16
#     4  11  26  49  68  96 140 191 234 283 352 435
#     4  12  25  42  69 103 136 178 231 294 349 413
#     4  12  25  44  66 101 141 184 234 290 346 421
#     4  12  25  43  68  97 137 183 226 282 346 418
#     4  11  23  45  74 104 139 183 238 297 363 422
#     4  12  25  43  70 103 138 182 237 279 351 426
#     4  11  24  39  62  99 134 166 213 278 347 403
#
# _framework density 20.897393000000001
#
# number of rings (size 3 to 8) (size 9 to 14) (size 15 to 20)
#    0.000    0.429    4.286    5.143    4.000    1.000 
#    2.571    1.429    0.000    0.000    0.000    1.000 
#    0.000    0.000    0.000    0.000    0.000    0.000 
#
# Total GULP energy -694164.793036 kJ/mol
# GULP energy per Si atom -12395.799876 kJ/mol
# Density = 2.084983 g / cm^3
# Si number density = 20.897393 Si / 1000 Ang^3
#
#
#
# Elastic Constant Matrix: (Units=GPa)
#
#
# Indices 1 2 3 4 5 6 
#
# 1 98.1893 34.7914 54.1224 0.0000 0.0000 0.0000
# 2 34.7914 98.1893 54.1224 0.0000 0.0000 0.0000
# 3 54.1224 54.1224 167.8430 0.0000 0.0000 0.0000
# 4 0.0000 0.0000 0.0000 -126.3984 0.0000 0.0000
# 5 0.0000 0.0000 0.0000 0.0000 -126.3984 0.0000
# 6 0.0000 0.0000 0.0000 0.0000 0.0000 23.5392
#
#
#
# Elastic Compliance Matrix: (Units=1/GPa)
#
#
# Indices 1 2 3 4 5 6 
#
# 1 0.012985 -0.002789 -0.003288 0.000000 0.000000 0.000000
# 2 -0.002789 0.012985 -0.003288 0.000000 0.000000 0.000000
# 3 -0.003288 -0.003288 0.008078 0.000000 0.000000 0.000000
# 4 0.000000 0.000000 0.000000 -0.007911 0.000000 0.000000
# 5 0.000000 0.000000 0.000000 0.000000 -0.007911 0.000000
# 6 0.000000 0.000000 0.000000 0.000000 0.000000 0.042482
#
#
# Mechanical properties :
#
#
# Convention : Reuss Voigt Hill
#
# Bulk Modulus (GPa) = 65.27719 72.25489 68.76604
# Shear Modulus (GPa) = 59.14200 -31.10584 14.01808
#
# Velocity S-wave (km/s) = 5.32565 -3.86230 2.59280
# Velocity P-wave (km/s) = 8.31394 3.84204 6.47622
#
# Compressibility (1/GPa) = 0.01531929
#
# Stress axis : x y z
#
# Youngs Moduli (GPa) = 77.01329 77.01329 123.78795
#
# Poissons Ratio (x) = 0.21476 0.40699
# Poissons Ratio (y) = 0.21476 0.40699
# Poissons Ratio (z) = 0.25321 0.25321
#
# Static dielectric constant tensor:
#      x y z
#    x 4.549180 0.000000 0.000000 
#    y 0.000000 4.549180 0.000000 
#    z 0.000000 0.000000 3.893210 
# 
# 
# High freq. dielectric constant tensor:
#      x y z
#    x 1.819710 0.000000 0.000000 
#    y 0.000000 1.819710 0.000000 
#    z 0.000000 0.000000 1.827590 
# 
# From -- ./inp_files/7244.got.cif
#   From: 2010.03.12/outbox.cif.g09.slc.cpg/sg97_4_cif.got.tgz:7244.got - 2010.04.08 20:59:42.
