data_PCOD8306864
_publ_section_title
;
Structure prediction by ZEFSAII (Michael W. Deem and Ramdas Pophale) SiO2 
 PCOD8306864
Probable space group: P 42 N M
;
_chemical_formula_sum "Si O2"
_cell_formula_units_Z 56
_cell_length_a 22.982094
_cell_length_b 22.982094
_cell_length_c 6.243870
_cell_angle_alpha 90.000000
_cell_angle_beta 90.000000
_cell_angle_gamma 90.000000
_cell_volume 3297.866306
_symmetry_space_group_name_H-M "P 42 N M"
_symmetry_group_IT_number 102
_symmetry_cell_setting 'tetragonal'
loop_
_space_group_symop_operation_xyz
x,y,z
1/2-y,1/2+x,1/2+z
-x,-y,z
1/2+y,1/2-x,1/2+z
1/2-x,1/2+y,1/2+z
1/2+x,1/2-y,1/2+z
-y,-x,z
y,x,z
loop_
_atom_site_type_symbol
_atom_site_label
_atom_site_fract_x
_atom_site_fract_y
_atom_site_fract_z
Si Si1 0.991825 0.640851 0.493450
Si Si2 0.792634 0.635560 0.331905
Si Si3 0.536703 0.772624 0.663944
Si Si4 0.369271 0.277891 0.935449
Si Si5 0.782942 0.309651 0.209950
Si Si6 0.100795 0.591600 0.659037
Si Si7 0.561524 0.201895 0.371034
O O1 0.028360 0.670674 0.306569
O O2 0.032562 0.592404 0.603389
O O3 0.936653 0.607731 0.393909
O O4 0.972721 0.693293 0.649542
O O5 0.792694 0.581195 0.486416
O O6 0.805696 0.695237 0.462182
O O7 0.843779 0.626850 0.162400
O O8 0.732941 0.632171 0.192653
O O9 0.566982 0.723017 0.816966
O O10 0.475434 0.756125 0.538242
O O11 0.341099 0.341099 0.888965
O O12 0.329346 0.226765 0.843009
O O13 0.719231 0.280770 0.222494
O O14 0.774850 0.374221 0.310959
O O15 0.137587 0.560140 0.474646
#
# Coordination Sequence:
#
# PCOD8306864 Si02
#       7
#     8   8   8   8   8   8   8
#     4  11  22  35  51  64  91 127 175 221 255 298
#     4  11  17  33  52  70  94 127 167 211 260 303
#     4  10  20  32  52  72  93 130 166 200 252 310
#     4  10  19  32  51  76 103 126 160 211 256 307
#     4  10  20  31  48  77 103 128 166 206 255 311
#     4  11  21  33  51  65  88 129 173 220 260 299
#     4  11  20  34  53  68  95 135 167 207 256 305
#
# _framework density 16.980678000000001
#
# number of rings (size 3 to 8) (size 9 to 14) (size 15 to 20)
#    0.000    1.429    5.714    1.286    0.000    0.571 
#    0.000    2.143    0.000    0.000    0.000    0.000 
#    0.000    0.571    0.000    0.429    0.000    0.143 
#
# Total GULP energy -693739.690985 kJ/mol
# GULP energy per Si atom -12388.208768 kJ/mol
# Density = 1.694203 g / cm^3
# Si number density = 16.980678 Si / 1000 Ang^3
#
#
#
# Elastic Constant Matrix: (Units=GPa)
#
#
# Indices 1 2 3 4 5 6 
#
# 1 59.2407 32.2017 25.6923 0.0000 0.0000 0.0000
# 2 32.2017 59.2407 25.6923 0.0000 0.0000 0.0000
# 3 25.6923 25.6923 83.8272 0.0000 0.0000 0.0000
# 4 0.0000 0.0000 0.0000 23.9620 0.0000 0.0000
# 5 0.0000 0.0000 0.0000 0.0000 23.9620 0.0000
# 6 0.0000 0.0000 0.0000 0.0000 0.0000 25.7345
#
#
#
# Elastic Compliance Matrix: (Units=1/GPa)
#
#
# Indices 1 2 3 4 5 6 
#
# 1 0.025097 -0.011886 -0.004049 0.000000 0.000000 0.000000
# 2 -0.011886 0.025097 -0.004049 0.000000 0.000000 0.000000
# 3 -0.004049 -0.004049 0.014411 0.000000 0.000000 0.000000
# 4 0.000000 0.000000 0.000000 0.041733 0.000000 0.000000
# 5 0.000000 0.000000 0.000000 0.000000 0.041733 0.000000
# 6 0.000000 0.000000 0.000000 0.000000 0.000000 0.038858
#
#
# Mechanical properties :
#
#
# Convention : Reuss Voigt Hill
#
# Bulk Modulus (GPa) = 40.58895 41.05348 40.82122
# Shear Modulus (GPa) = 21.26652 22.64651 21.95651
#
# Velocity S-wave (km/s) = 3.54276 3.65590 3.59977
# Velocity P-wave (km/s) = 6.37885 6.48459 6.43194
#
# Compressibility (1/GPa) = 0.02463724
#
# Stress axis : x y z
#
# Youngs Moduli (GPa) = 39.84475 39.84475 69.38990
#
# Poissons Ratio (x) = 0.47360 0.28097
# Poissons Ratio (y) = 0.47360 0.28097
# Poissons Ratio (z) = 0.16134 0.16134
#
# Static dielectric constant tensor:
#      x y z
#    x 3.056850 0.000000 0.000000 
#    y 0.000000 3.056850 0.000000 
#    z 0.000000 0.000000 3.577590 
# 
# 
# High freq. dielectric constant tensor:
#      x y z
#    x 1.616960 0.000000 0.000000 
#    y 0.000000 1.616960 0.000000 
#    z 0.000000 0.000000 1.683870 
# 
# From -- ./inp_files/419.got.cif
#   From: 2010.03.12/outbox.cif.g09.slc.cpg/sg102_1_cif.got.tgz:419.got - 2010.04.14 01:40:42.
