data_PCOD8306099
_publ_section_title
;
Structure prediction by ZEFSAII (Michael W. Deem and Ramdas Pophale) SiO2 
 PCOD8306099
Probable space group: I 4 2 2 
;
_chemical_formula_sum "Si O2"
_cell_formula_units_Z 80
_cell_length_a 14.188912
_cell_length_b 14.188912
_cell_length_c 20.447702
_cell_angle_alpha 90.000000
_cell_angle_beta 90.000000
_cell_angle_gamma 90.000000
_cell_volume 4116.638180
_symmetry_space_group_name_H-M "I 4 2 2 "
_symmetry_group_IT_number 97
_symmetry_cell_setting 'tetragonal'
loop_
_space_group_symop_operation_xyz
x,y,z
-y,x,z
-x,-y,z
y,-x,z
x,-y,-z
-x,y,-z
y,x,-z
-y,-x,-z
1/2+x,1/2+y,1/2+z
1/2-y,1/2+x,1/2+z
1/2-x,1/2-y,1/2+z
1/2+y,1/2-x,1/2+z
1/2+x,1/2-y,1/2-z
1/2-x,1/2+y,1/2-z
1/2+y,1/2+x,1/2-z
1/2-y,1/2-x,1/2-z
loop_
_atom_site_type_symbol
_atom_site_label
_atom_site_fract_x
_atom_site_fract_y
_atom_site_fract_z
Si Si1 0.962258 0.233622 0.932865
Si Si2 0.367554 0.576589 0.217998
Si Si3 0.197455 0.861759 0.854250
Si Si4 0.178380 0.392850 0.017757
Si Si5 0.818282 0.794929 0.601039
O O1 0.900015 0.155985 0.894195
O O2 0.908005 0.331372 0.952571
O O3 0.053400 0.256243 0.888138
O O4 0.000000 0.187077 0.000000
O O5 0.372099 0.466151 0.224402
O O6 0.308031 0.614221 0.278202
O O7 0.326321 0.595429 0.145942
O O8 0.247673 0.761207 0.852432
O O9 0.265536 0.386043 0.069427
O O10 0.148302 0.500000 0.000000
O O11 0.217368 0.347244 0.951907
#
# Coordination Sequence:
#
# PCOD8306099 Si02
#       5
#    16  16  16  16  16
#     4  11  21  37  60  87 121 154 197 248 307 363
#     4  11  22  37  58  86 117 154 200 246 302 361
#     4  11  21  38  57  85 121 158 195 244 304 368
#     4  10  21  38  61  88 115 151 202 248 301 352
#     4  10  21  38  60  83 116 158 196 244 299 363
#
# _framework density 19.433333999999999
#
# number of rings (size 3 to 8) (size 9 to 14) (size 15 to 20)
#    0.000    1.400    4.000    2.400    0.000    0.800 
#    0.000    1.000    0.000    4.800    0.000    2.800 
#    0.000    0.000    0.000    0.000    0.000    0.000 
#
# Total GULP energy -495599.446865 kJ/mol
# GULP energy per Si atom -12389.986172 kJ/mol
# Density = 1.938910 g / cm^3
# Si number density = 19.433334 Si / 1000 Ang^3
#
#
#
# Elastic Constant Matrix: (Units=GPa)
#
#
# Indices 1 2 3 4 5 6 
#
# 1 73.2535 17.3727 26.9098 0.0000 0.0000 0.0000
# 2 17.3727 73.2535 26.9098 0.0000 0.0000 0.0000
# 3 26.9098 26.9098 105.7484 0.0000 0.0000 0.0000
# 4 0.0000 0.0000 0.0000 30.5130 0.0000 0.0000
# 5 0.0000 0.0000 0.0000 0.0000 30.5130 0.0000
# 6 0.0000 0.0000 0.0000 0.0000 0.0000 22.9317
#
#
#
# Elastic Compliance Matrix: (Units=1/GPa)
#
#
# Indices 1 2 3 4 5 6 
#
# 1 0.015447 -0.002448 -0.003308 0.000000 0.000000 0.000000
# 2 -0.002448 0.015447 -0.003308 0.000000 0.000000 0.000000
# 3 -0.003308 -0.003308 0.011140 0.000000 0.000000 0.000000
# 4 0.000000 0.000000 0.000000 0.032773 0.000000 0.000000
# 5 0.000000 0.000000 0.000000 0.000000 0.032773 0.000000
# 6 0.000000 0.000000 0.000000 0.000000 0.000000 0.043608
#
#
# Mechanical properties :
#
#
# Convention : Reuss Voigt Hill
#
# Bulk Modulus (GPa) = 41.83023 43.84889 42.83956
# Shear Modulus (GPa) = 28.20338 28.86243 28.53290
#
# Velocity S-wave (km/s) = 3.81371 3.85801 3.83593
# Velocity P-wave (km/s) = 6.40033 6.51601 6.45843
#
# Compressibility (1/GPa) = 0.02390616
#
# Stress axis : x y z
#
# Youngs Moduli (GPa) = 64.73766 64.73766 89.76760
#
# Poissons Ratio (x) = 0.15849 0.29693
# Poissons Ratio (y) = 0.15849 0.29693
# Poissons Ratio (z) = 0.21414 0.21414
#
# Static dielectric constant tensor:
#      x y z
#    x 3.473430 0.000000 0.000000 
#    y 0.000000 3.473430 0.000000 
#    z 0.000000 0.000000 3.664410 
# 
# 
# High freq. dielectric constant tensor:
#      x y z
#    x 1.745620 0.000000 0.000000 
#    y 0.000000 1.745620 0.000000 
#    z 0.000000 0.000000 1.769170 
# 
# From -- ./inp_files/6423.got.cif
#   From: 2010.03.12/outbox.cif.g09.slc.cpg/sg97_4_cif.got.tgz:6423.got - 2010.04.08 20:59:42.
