data_PCOD8306966
_publ_section_title
;
Structure prediction by ZEFSAII (Michael W. Deem and Ramdas Pophale) SiO2 
 PCOD8306966
Probable space group: P 4 C C
;
_chemical_formula_sum "Si O2"
_cell_formula_units_Z 56
_cell_length_a 11.353253
_cell_length_b 11.353253
_cell_length_c 24.176724
_cell_angle_alpha 90.000000
_cell_angle_beta 90.000000
_cell_angle_gamma 90.000000
_cell_volume 3116.291568
_symmetry_space_group_name_H-M "P 4 C C"
_symmetry_group_IT_number 103
_symmetry_cell_setting 'tetragonal'
loop_
_space_group_symop_operation_xyz
x,y,z
-y,x,z
-x,-y,z
y,-x,z
-x,y,1/2+z
x,-y,1/2+z
-y,-x,1/2+z
y,x,1/2+z
loop_
_atom_site_type_symbol
_atom_site_label
_atom_site_fract_x
_atom_site_fract_y
_atom_site_fract_z
Si Si1 0.440259 0.681900 0.734580
Si Si2 0.815656 0.046318 0.466653
Si Si3 0.503217 0.140380 0.906710
Si Si4 0.683259 0.553512 0.606169
Si Si5 0.320676 0.850192 0.816651
Si Si6 0.101016 0.720788 0.849022
Si Si7 0.885917 0.427066 0.021138
O O1 0.353709 0.573783 0.749698
O O2 0.433423 0.714573 0.670404
O O3 0.401401 0.796902 0.768429
O O4 0.789859 0.048531 0.401343
O O5 0.701870 0.073308 0.502763
O O6 0.915332 0.141409 0.481579
O O7 0.622437 0.183697 0.876882
O O8 0.392078 0.177254 0.868965
O O9 0.500000 0.000000 0.911890
O O10 0.491525 0.184537 0.970108
O O11 0.578789 0.643668 0.591489
O O12 0.798580 0.586574 0.572143
O O13 0.188245 0.801697 0.813436
O O14 0.317795 0.991848 0.809790
O O15 0.000000 0.500000 0.040603
#
# Coordination Sequence:
#
# PCOD8306966 Si02
#       7
#     8   8   8   8   8   8   8
#     4   9  19  38  60  78 101 140 185 230 284 340
#     4  10  20  35  54  79 115 161 194 219 268 348
#     4   8  18  32  45  73 110 140 170 216 271 310
#     4   9  20  39  60  80 108 147 189 240 293 343
#     4  11  19  32  52  78 112 141 183 226 268 329
#     4  10  19  30  51  77 108 147 181 217 265 328
#     4  10  21  33  56  86 114 144 190 240 281 330
#
# _framework density 17.970075999999999
#
# number of rings (size 3 to 8) (size 9 to 14) (size 15 to 20)
#    0.000    2.429    1.429    2.571    2.000    1.429 
#    0.000    5.000    0.000    1.714    0.000    0.000 
#    0.000    0.000    0.000    0.000    0.000    0.000 
#
# Total GULP energy -694257.961998 kJ/mol
# GULP energy per Si atom -12397.463607 kJ/mol
# Density = 1.792918 g / cm^3
# Si number density = 17.970076 Si / 1000 Ang^3
#
#
#
# Elastic Constant Matrix: (Units=GPa)
#
#
# Indices 1 2 3 4 5 6 
#
# 1 94.5678 40.0883 46.1844 0.0000 0.0000 0.0000
# 2 40.0883 94.5678 46.1844 0.0000 0.0000 0.0000
# 3 46.1844 46.1844 77.5017 0.0000 0.0000 0.0000
# 4 0.0000 0.0000 0.0000 27.5910 0.0000 0.0000
# 5 0.0000 0.0000 0.0000 0.0000 27.5910 0.0000
# 6 0.0000 0.0000 0.0000 0.0000 0.0000 22.7941
#
#
#
# Elastic Compliance Matrix: (Units=1/GPa)
#
#
# Indices 1 2 3 4 5 6 
#
# 1 0.015458 -0.002897 -0.007485 0.000000 0.000000 0.000000
# 2 -0.002897 0.015458 -0.007485 0.000000 0.000000 0.000000
# 3 -0.007485 -0.007485 0.021824 0.000000 0.000000 0.000000
# 4 0.000000 0.000000 0.000000 0.036244 0.000000 0.000000
# 5 0.000000 0.000000 0.000000 0.000000 0.036244 0.000000
# 6 0.000000 0.000000 0.000000 0.000000 0.000000 0.043871
#
#
# Mechanical properties :
#
#
# Convention : Reuss Voigt Hill
#
# Bulk Modulus (GPa) = 58.80637 59.06126 58.93381
# Shear Modulus (GPa) = 23.75268 24.54058 24.14663
#
# Velocity S-wave (km/s) = 3.63959 3.69946 3.66965
# Velocity P-wave (km/s) = 7.10336 7.15443 7.12894
#
# Compressibility (1/GPa) = 0.01700496
#
# Stress axis : x y z
#
# Youngs Moduli (GPa) = 64.69058 64.69058 45.82103
#
# Poissons Ratio (x) = 0.18743 0.34298
# Poissons Ratio (y) = 0.18743 0.34298
# Poissons Ratio (z) = 0.48422 0.48422
#
# Static dielectric constant tensor:
#      x y z
#    x 3.330080 0.000000 0.000000 
#    y 0.000000 3.330080 0.000000 
#    z 0.000000 0.000000 3.107350 
# 
# 
# High freq. dielectric constant tensor:
#      x y z
#    x 1.694570 0.000000 0.000000 
#    y 0.000000 1.694570 0.000000 
#    z 0.000000 0.000000 1.666340 
# 
# From -- ./inp_files/1254.got.cif
#   From: 2010.03.12/outbox.cif.g09.slc.cpg/sg103_cif.got.tgz:1254.got - 2010.04.14 01:42:52.
