data_PCOD8306483
_publ_section_title
;
Structure prediction by ZEFSAII (Michael W. Deem and Ramdas Pophale) SiO2 
 PCOD8306483
Probable space group: P 4 M M
;
_chemical_formula_sum "Si O2"
_cell_formula_units_Z 56
_cell_length_a 15.546948
_cell_length_b 15.546948
_cell_length_c 13.679703
_cell_angle_alpha 90.000000
_cell_angle_beta 90.000000
_cell_angle_gamma 90.000000
_cell_volume 3306.488073
_symmetry_space_group_name_H-M "P 4 M M"
_symmetry_group_IT_number 99
_symmetry_cell_setting 'tetragonal'
loop_
_space_group_symop_operation_xyz
x,y,z
-y,x,z
-x,-y,z
y,-x,z
-x,y,z
x,-y,z
-y,-x,z
y,x,z
loop_
_atom_site_type_symbol
_atom_site_label
_atom_site_fract_x
_atom_site_fract_y
_atom_site_fract_z
Si Si1 0.652479 0.214170 0.436700
Si Si2 0.407086 0.265581 0.641511
Si Si3 0.765078 0.903310 0.911960
Si Si4 0.225759 0.093962 0.555279
Si Si5 0.240724 0.099325 0.136345
Si Si6 0.404438 0.098270 0.267218
Si Si7 0.095701 0.652813 0.732541
O O1 0.704798 0.295203 0.390743
O O2 0.594171 0.247630 0.525763
O O3 0.720027 0.147364 0.478874
O O4 0.596121 0.165439 0.356584
O O5 0.500000 0.308341 0.664648
O O6 0.329328 0.329328 0.673438
O O7 0.406631 0.175060 0.700191
O O8 0.841270 0.841270 0.878743
O O9 0.681993 0.888220 0.843984
O O10 0.800060 0.000000 0.899661
O O11 0.736928 0.885780 0.023109
O O12 0.129938 0.129938 0.563226
O O13 0.264006 0.096736 0.663724
O O14 0.220809 0.000000 0.510454
O O15 0.162342 0.162342 0.169525
O O16 0.328665 0.123089 0.192435
O O17 0.213122 0.000000 0.156229
O O18 0.500000 0.107063 0.218894
O O19 0.391646 0.000000 0.304376
O O20 0.000000 0.608222 0.723642
#
# Coordination Sequence:
#
# PCOD8306483 Si02
#       7
#     8   8   8   8   8   8   8
#     4   9  17  30  47  64  84 111 144 185 230 273
#     4  10  20  33  49  70  95 122 153 188 226 271
#     4   9  16  27  44  65  91 123 156 191 230 269
#     4   9  16  25  38  58  85 117 150 182 218 261
#     4   9  18  31  47  68  93 122 155 189 226 269
#     4  10  19  30  45  65  89 117 149 187 230 274
#     4   9  17  30  47  66  90 119 151 188 227 265
#
# _framework density 16.936399000000002
#
# number of rings (size 3 to 8) (size 9 to 14) (size 15 to 20)
#    0.000    2.714    0.000    3.429    0.000    1.429 
#    0.000    2.143    0.000    5.143    0.000    2.000 
#    0.000    2.571    0.000    0.000    0.000    2.000 
#
# Total GULP energy -693888.066959 kJ/mol
# GULP energy per Si atom -12390.858339 kJ/mol
# Density = 1.689785 g / cm^3
# Si number density = 16.936399 Si / 1000 Ang^3
#
#
#
# Elastic Constant Matrix: (Units=GPa)
#
#
# Indices 1 2 3 4 5 6 
#
# 1 88.9250 48.6778 26.7081 0.0000 0.0000 0.0013
# 2 48.6778 88.9250 26.7081 0.0000 0.0000 -0.0013
# 3 26.7081 26.7081 53.6875 0.0000 0.0000 0.0000
# 4 0.0000 0.0000 0.0000 7.6702 0.0000 0.0000
# 5 0.0000 0.0000 0.0000 0.0000 7.6702 0.0000
# 6 0.0013 -0.0013 0.0000 0.0000 0.0000 9.0225
#
#
#
# Elastic Compliance Matrix: (Units=1/GPa)
#
#
# Indices 1 2 3 4 5 6 
#
# 1 0.016927 -0.007920 -0.004481 0.000000 0.000000 -0.000004
# 2 -0.007920 0.016927 -0.004481 0.000000 0.000000 0.000004
# 3 -0.004481 -0.004481 0.023084 0.000000 0.000000 0.000000
# 4 0.000000 0.000000 0.000000 0.130375 0.000000 0.000000
# 5 0.000000 0.000000 0.000000 0.000000 0.130375 0.000000
# 6 -0.000004 0.000004 0.000000 0.000000 0.000000 0.110834
#
#
# Mechanical properties :
#
#
# Convention : Reuss Voigt Hill
#
# Bulk Modulus (GPa) = 43.14951 48.41396 45.78174
# Shear Modulus (GPa) = 10.63812 13.50214 12.07013
#
# Velocity S-wave (km/s) = 2.50895 2.82658 2.67249
# Velocity P-wave (km/s) = 5.82459 6.26902 6.05088
#
# Compressibility (1/GPa) = 0.02317523
#
# Stress axis : x y z
#
# Youngs Moduli (GPa) = 59.07884 59.07884 43.31963
#
# Poissons Ratio (x) = 0.46790 0.19410
# Poissons Ratio (y) = 0.46790 0.19410
# Poissons Ratio (z) = 0.26471 0.26471
#
# Static dielectric constant tensor:
#      x y z
#    x 3.159540 0.000000 0.000000 
#    y 0.000000 3.159540 0.000000 
#    z 0.000000 0.000000 3.075850 
# 
# 
# High freq. dielectric constant tensor:
#      x y z
#    x 1.643870 0.000000 0.000000 
#    y 0.000000 1.643870 0.000000 
#    z 0.000000 0.000000 1.635970 
# 
# From -- ./inp_files/1795.got.cif
#   From: 2010.03.12/outbox.cif.g09.slc.cpg/sg99_cif.got.tgz:1795.got - 2010.04.08 21:11:30.
