data_PCOD8306637
_publ_section_title
;
Structure prediction by ZEFSAII (Michael W. Deem and Ramdas Pophale) SiO2 
 PCOD8306637
Probable space group: P 4 B M
;
_chemical_formula_sum "Si O2"
_cell_formula_units_Z 56
_cell_length_a 15.884652
_cell_length_b 15.884652
_cell_length_c 12.536606
_cell_angle_alpha 90.000000
_cell_angle_beta 90.000000
_cell_angle_gamma 90.000000
_cell_volume 3163.263620
_symmetry_space_group_name_H-M "P 4 B M"
_symmetry_group_IT_number 100
_symmetry_cell_setting 'tetragonal'
loop_
_space_group_symop_operation_xyz
x,y,z
-y,x,z
-x,-y,z
y,-x,z
1/2-x,1/2+y,z
1/2+x,1/2-y,z
1/2-y,1/2-x,z
1/2+y,1/2+x,z
loop_
_atom_site_type_symbol
_atom_site_label
_atom_site_fract_x
_atom_site_fract_y
_atom_site_fract_z
Si Si1 0.806751 0.557647 0.248650
Si Si2 0.681302 0.680618 0.332667
Si Si3 0.401010 0.237831 0.133340
Si Si4 0.117583 0.069980 0.724729
Si Si5 0.617668 0.739873 0.545887
Si Si6 0.620351 0.433995 0.970559
Si Si7 0.005009 0.366818 0.469038
O O1 0.864745 0.635256 0.209268
O O2 0.716182 0.590471 0.293032
O O3 0.795519 0.496510 0.146708
O O4 0.850678 0.505186 0.342645
O O5 0.762084 0.737917 0.350524
O O6 0.619428 0.718504 0.245223
O O7 0.632483 0.676763 0.445672
O O8 0.338110 0.161891 0.105724
O O9 0.393354 0.305332 0.039154
O O10 0.187470 0.116023 0.654141
O O11 0.142912 0.081643 0.847554
O O12 0.028750 0.113187 0.698670
O O13 0.690927 0.809074 0.552598
O O14 0.525728 0.784184 0.532212
O O15 0.612237 0.532808 0.997333
O O16 0.938717 0.438717 0.492575
O O17 0.098264 0.401737 0.504939
#
# Coordination Sequence:
#
# PCOD8306637 Si02
#       7
#     8   8   8   8   8   8   8
#     4  10  19  31  48  71 104 141 171 201 248 309
#     4   9  19  31  44  72 107 136 164 205 254 294
#     4  11  20  32  52  77 105 133 169 215 259 307
#     4   9  20  37  55  74  99 134 173 217 264 311
#     4  10  19  32  51  77 108 136 173 218 257 305
#     4   9  19  38  58  74  96 132 177 216 261 318
#     4   9  17  30  48  70 100 138 172 200 243 309
#
# _framework density 17.703234999999999
#
# number of rings (size 3 to 8) (size 9 to 14) (size 15 to 20)
#    0.000    2.429    1.429    2.143    2.000    1.429 
#    0.000    0.000    0.000    4.286    0.000    2.000 
#    0.000    0.000    0.000    0.000    0.000    0.000 
#
# Total GULP energy -694154.028794 kJ/mol
# GULP energy per Si atom -12395.607657 kJ/mol
# Density = 1.766294 g / cm^3
# Si number density = 17.703235 Si / 1000 Ang^3
#
#
#
# Elastic Constant Matrix: (Units=GPa)
#
#
# Indices 1 2 3 4 5 6 
#
# 1 77.9997 38.4053 40.0713 0.0000 0.0000 0.0001
# 2 38.4053 77.9997 40.0713 0.0000 0.0000 -0.0001
# 3 40.0713 40.0713 68.8996 0.0000 0.0000 0.0000
# 4 0.0000 0.0000 0.0000 27.9773 0.0000 0.0000
# 5 0.0000 0.0000 0.0000 0.0000 27.9773 0.0000
# 6 0.0001 -0.0001 0.0000 0.0000 0.0000 22.4248
#
#
#
# Elastic Compliance Matrix: (Units=1/GPa)
#
#
# Indices 1 2 3 4 5 6 
#
# 1 0.019792 -0.005464 -0.008333 0.000000 0.000000 0.000000
# 2 -0.005464 0.019792 -0.008333 0.000000 0.000000 0.000000
# 3 -0.008333 -0.008333 0.024206 0.000000 0.000000 0.000000
# 4 0.000000 0.000000 0.000000 0.035743 0.000000 0.000000
# 5 0.000000 0.000000 0.000000 0.000000 0.035743 0.000000
# 6 0.000000 0.000000 0.000000 0.000000 0.000000 0.044593
#
#
# Mechanical properties :
#
#
# Convention : Reuss Voigt Hill
#
# Bulk Modulus (GPa) = 51.20199 51.33275 51.26737
# Shear Modulus (GPa) = 21.67881 22.76597 22.22239
#
# Velocity S-wave (km/s) = 3.50318 3.58994 3.54683
# Velocity P-wave (km/s) = 6.73411 6.80021 6.76724
#
# Compressibility (1/GPa) = 0.01953049
#
# Stress axis : x y z
#
# Youngs Moduli (GPa) = 50.52575 50.52575 41.31133
#
# Poissons Ratio (x) = 0.27608 0.34424
# Poissons Ratio (y) = 0.27608 0.34424
# Poissons Ratio (z) = 0.42102 0.42102
#
# Static dielectric constant tensor:
#      x y z
#    x 3.328890 0.000000 0.000000 
#    y 0.000000 3.328890 0.000000 
#    z 0.000000 0.000000 3.017470 
# 
# 
# High freq. dielectric constant tensor:
#      x y z
#    x 1.682740 0.000000 0.000000 
#    y 0.000000 1.682740 0.000000 
#    z 0.000000 0.000000 1.658810 
# 
# From -- ./inp_files/1309.got.cif
#   From: 2010.03.12/outbox.cif.g09.slc.cpg/sg100_cif.got.tgz:1309.got - 2010.04.14 01:37:57.
