data_PCOD8306025
_publ_section_title
;
Structure prediction by ZEFSAII (Michael W. Deem and Ramdas Pophale) SiO2 
 PCOD8306025
Probable space group: I 4 2 2 
;
_chemical_formula_sum "Si O2"
_cell_formula_units_Z 84
_cell_length_a 24.280369
_cell_length_b 24.280369
_cell_length_c 8.702405
_cell_angle_alpha 90.000000
_cell_angle_beta 90.000000
_cell_angle_gamma 90.000000
_cell_volume 5130.383808
_symmetry_space_group_name_H-M "I 4 2 2 "
_symmetry_group_IT_number 97
_symmetry_cell_setting 'tetragonal'
loop_
_space_group_symop_operation_xyz
x,y,z
-y,x,z
-x,-y,z
y,-x,z
x,-y,-z
-x,y,-z
y,x,-z
-y,-x,-z
1/2+x,1/2+y,1/2+z
1/2-y,1/2+x,1/2+z
1/2-x,1/2-y,1/2+z
1/2+y,1/2-x,1/2+z
1/2+x,1/2-y,1/2-z
1/2-x,1/2+y,1/2-z
1/2+y,1/2+x,1/2-z
1/2-y,1/2-x,1/2-z
loop_
_atom_site_type_symbol
_atom_site_label
_atom_site_fract_x
_atom_site_fract_y
_atom_site_fract_z
Si Si1 0.908385 0.418661 0.081016
Si Si2 0.760696 0.839111 0.416232
Si Si3 0.247577 0.832587 0.929069
Si Si4 0.500000 0.000000 0.000000
Si Si5 0.322784 0.897303 0.144917
Si Si6 0.944408 0.293227 0.555208
O O1 0.895145 0.395145 0.250000
O O2 0.959320 0.461108 0.098054
O O3 0.923602 0.369825 0.962808
O O4 0.852682 0.446659 0.025149
O O5 0.814951 0.814951 0.500000
O O6 0.769966 0.855424 0.238185
O O7 0.712700 0.794789 0.419969
O O8 0.743330 0.892635 0.509330
O O9 0.192189 0.807812 0.000000
O O10 0.271109 0.879690 0.040580
O O11 0.346809 0.846809 0.250000
O O12 0.301296 0.944394 0.260367
O O13 0.000000 0.262403 0.500000
#
# Coordination Sequence:
#
# PCOD8306025 Si02
#       6
#    16  16  16   4  16  16
#     4  11  23  36  49  64  89 124 174 225 262 297
#     4  10  19  32  52  75 100 127 159 203 258 314
#     4  10  18  29  52  77  98 124 160 203 256 312
#     4  12  26  36  52  62  86 128 190 228 272 288
#     4  10  20  34  47  67  94 124 159 207 254 299
#     4  11  22  36  51  70  99 130 166 209 261 302
#
# _framework density 16.373045000000001
#
# number of rings (size 3 to 8) (size 9 to 14) (size 15 to 20)
#    0.000    1.524    4.762    2.571    5.333    1.524 
#    0.000    0.000    0.000    0.000    0.000    0.000 
#    0.000    0.381    0.000    0.000    0.000    4.000 
#
# Total GULP energy -520607.283595 kJ/mol
# GULP energy per Si atom -12395.411514 kJ/mol
# Density = 1.633578 g / cm^3
# Si number density = 16.373045 Si / 1000 Ang^3
#
#
#
# Elastic Constant Matrix: (Units=GPa)
#
#
# Indices 1 2 3 4 5 6 
#
# 1 59.1834 47.2856 38.3395 0.0000 0.0000 0.0000
# 2 47.2856 59.1826 38.3390 0.0000 0.0000 0.0000
# 3 38.3395 38.3390 149.3300 0.0000 0.0000 0.0000
# 4 0.0000 0.0000 0.0000 12.4185 0.0000 0.0000
# 5 0.0000 0.0000 0.0000 0.0000 12.4191 0.0000
# 6 0.0000 0.0000 0.0000 0.0000 0.0000 24.3315
#
#
#
# Elastic Compliance Matrix: (Units=1/GPa)
#
#
# Indices 1 2 3 4 5 6 
#
# 1 0.047787 -0.036265 -0.002959 0.000000 0.000000 0.000000
# 2 -0.036265 0.047788 -0.002958 0.000000 0.000000 0.000000
# 3 -0.002959 -0.002958 0.008216 0.000000 0.000000 0.000000
# 4 0.000000 0.000000 0.000000 0.080525 0.000000 0.000000
# 5 0.000000 0.000000 0.000000 0.000000 0.080521 0.000000
# 6 0.000000 0.000000 0.000000 0.000000 0.000000 0.041099
#
#
# Mechanical properties :
#
#
# Convention : Reuss Voigt Hill
#
# Bulk Modulus (GPa) = 51.47190 57.29160 54.38175
# Shear Modulus (GPa) = 12.60158 19.41594 16.00876
#
# Velocity S-wave (km/s) = 2.77727 3.44735 3.13029
# Velocity P-wave (km/s) = 6.46448 7.13534 6.80818
#
# Compressibility (1/GPa) = 0.01942808
#
# Stress axis : x y z
#
# Youngs Moduli (GPa) = 20.92598 20.92576 121.71816
#
# Poissons Ratio (x) = 0.75886 0.36011
# Poissons Ratio (y) = 0.75887 0.36009
# Poissons Ratio (z) = 0.06191 0.06191
#
# Static dielectric constant tensor:
#      x y z
#    x 2.917850 0.000000 0.000000 
#    y 0.000000 2.917850 0.000000 
#    z 0.000000 0.000000 3.470540 
# 
# 
# High freq. dielectric constant tensor:
#      x y z
#    x 1.589500 0.000000 0.000000 
#    y 0.000000 1.589500 0.000000 
#    z 0.000000 0.000000 1.657510 
# 
# From -- ./inp_files/2406.got.cif
#   From: 2010.03.12/outbox.cif.g09.slc.cpg/sg97_2_cif.got.tgz:2406.got - 2010.04.08 20:59:42.
