data_PCOD8306688
_publ_section_title
;
Structure prediction by ZEFSAII (Michael W. Deem and Ramdas Pophale) SiO2 
 PCOD8306688
Probable space group: P 4 B M
;
_chemical_formula_sum "Si O2"
_cell_formula_units_Z 40
_cell_length_a 15.901937
_cell_length_b 15.901937
_cell_length_c 9.123740
_cell_angle_alpha 90.000000
_cell_angle_beta 90.000000
_cell_angle_gamma 90.000000
_cell_volume 2307.134735
_symmetry_space_group_name_H-M "P 4 B M"
_symmetry_group_IT_number 100
_symmetry_cell_setting 'tetragonal'
loop_
_space_group_symop_operation_xyz
x,y,z
-y,x,z
-x,-y,z
y,-x,z
1/2-x,1/2+y,z
1/2+x,1/2-y,z
1/2-y,1/2-x,z
1/2+y,1/2+x,z
loop_
_atom_site_type_symbol
_atom_site_label
_atom_site_fract_x
_atom_site_fract_y
_atom_site_fract_z
Si Si1 0.450477 0.185510 0.755050
Si Si2 0.070534 0.429467 0.263372
Si Si3 0.429467 0.929467 0.592581
Si Si4 0.127050 0.036361 0.101999
Si Si5 0.127050 0.036360 0.753955
Si Si6 0.950477 0.314490 0.100904
O O1 0.368116 0.131885 0.710684
O O2 0.534383 0.151087 0.677513
O O3 0.436909 0.280692 0.697793
O O4 0.466404 0.181153 0.927977
O O5 0.096441 0.403559 0.427977
O O6 0.151088 0.465617 0.178441
O O7 0.000000 0.500000 0.264984
O O8 0.500000 0.000000 0.590966
O O9 0.219308 0.063092 0.158161
O O10 0.057432 0.102877 0.159197
O O11 0.126620 0.035618 0.927977
O O12 0.057432 0.102877 0.696758
O O13 0.868116 0.368116 0.145271
#
# Coordination Sequence:
#
# PCOD8306688 Si02
#       6
#     8   4   4   8   8   8
#     4   9  16  27  44  68  93 115 147 190 226 260
#     4   9  17  29  45  63  87 121 149 174 221 276
#     4   9  17  29  45  63  87 121 149 174 221 276
#     4   8  14  26  43  64  92 123 151 182 224 268
#     4   8  14  26  43  64  92 123 151 182 224 268
#     4   9  16  27  44  68  93 115 147 190 226 260
#
# _framework density 17.337523000000001
#
# number of rings (size 3 to 8) (size 9 to 14) (size 15 to 20)
#    0.000    3.400    0.000    1.800    0.000    2.400 
#    3.600    0.000    0.000    2.400    0.000    2.800 
#    0.000    0.000    0.000    0.000    0.000    0.000 
#
# Total GULP energy -495713.479569 kJ/mol
# GULP energy per Si atom -12392.836989 kJ/mol
# Density = 1.729806 g / cm^3
# Si number density = 17.337523 Si / 1000 Ang^3
#
#
#
# Elastic Constant Matrix: (Units=GPa)
#
#
# Indices 1 2 3 4 5 6 
#
# 1 129.5550 63.0450 22.2454 0.0000 0.0000 -0.0001
# 2 63.0450 129.5550 22.2454 0.0000 0.0000 0.0001
# 3 22.2454 22.2454 30.9292 0.0000 0.0000 0.0000
# 4 0.0000 0.0000 0.0000 5.0245 0.0000 0.0000
# 5 0.0000 0.0000 0.0000 0.0000 5.0245 0.0000
# 6 -0.0001 0.0001 0.0000 0.0000 0.0000 17.8585
#
#
#
# Elastic Compliance Matrix: (Units=1/GPa)
#
#
# Indices 1 2 3 4 5 6 
#
# 1 0.010631 -0.004404 -0.004478 0.000000 0.000000 0.000000
# 2 -0.004404 0.010631 -0.004478 0.000000 0.000000 0.000000
# 3 -0.004478 -0.004478 0.038774 0.000000 0.000000 0.000000
# 4 0.000000 0.000000 0.000000 0.199025 0.000000 0.000000
# 5 0.000000 0.000000 0.000000 0.000000 0.199025 0.000000
# 6 0.000000 0.000000 0.000000 0.000000 0.000000 0.055996
#
#
# Mechanical properties :
#
#
# Convention : Reuss Voigt Hill
#
# Bulk Modulus (GPa) = 30.01780 56.12341 43.07061
# Shear Modulus (GPa) = 9.05949 17.74840 13.40394
#
# Velocity S-wave (km/s) = 2.28839 3.20300 2.78352
# Velocity P-wave (km/s) = 4.93291 6.79119 5.93523
#
# Compressibility (1/GPa) = 0.03331356
#
# Stress axis : x y z
#
# Youngs Moduli (GPa) = 94.06477 94.06477 25.79053
#
# Poissons Ratio (x) = 0.41429 0.11550
# Poissons Ratio (y) = 0.41429 0.11550
# Poissons Ratio (z) = 0.42126 0.42126
#
# Static dielectric constant tensor:
#      x y z
#    x 3.410690 0.000000 0.000000 
#    y 0.000000 3.410690 0.000000 
#    z 0.000000 0.000000 2.888960 
# 
# 
# High freq. dielectric constant tensor:
#      x y z
#    x 1.663750 0.000000 0.000000 
#    y 0.000000 1.663750 0.000000 
#    z 0.000000 0.000000 1.624010 
# 
# From -- ./inp_files/800.got.cif
#   From: 2010.03.12/outbox.cif.g09.slc.cpg/sg100_cif.got.tgz:800.got - 2010.04.14 01:37:57.
