data_PCOD8306529
_publ_section_title
;
Structure prediction by ZEFSAII (Michael W. Deem and Ramdas Pophale) SiO2 
 PCOD8306529
Probable space group: P 4 M M
;
_chemical_formula_sum "Si O2"
_cell_formula_units_Z 64
_cell_length_a 13.666901
_cell_length_b 13.666901
_cell_length_c 20.353251
_cell_angle_alpha 90.000000
_cell_angle_beta 90.000000
_cell_angle_gamma 90.000000
_cell_volume 3801.665358
_symmetry_space_group_name_H-M "P 4 M M"
_symmetry_group_IT_number 99
_symmetry_cell_setting 'tetragonal'
loop_
_space_group_symop_operation_xyz
x,y,z
-y,x,z
-x,-y,z
y,-x,z
-x,y,z
x,-y,z
-y,-x,z
y,x,z
loop_
_atom_site_type_symbol
_atom_site_label
_atom_site_fract_x
_atom_site_fract_y
_atom_site_fract_z
Si Si1 0.392254 0.883503 0.906920
Si Si2 0.771700 0.385361 0.638786
Si Si3 0.616576 0.108682 0.763722
Si Si4 0.887255 0.270625 0.386184
Si Si5 0.273589 0.886420 0.171727
Si Si6 0.111291 0.735059 0.024323
Si Si7 0.224161 0.384998 0.279995
Si Si8 0.729481 0.888049 0.537575
O O1 0.500000 0.837472 0.913130
O O2 0.345914 0.855270 0.835693
O O3 0.398605 0.000000 0.911995
O O4 0.331767 0.839508 0.968016
O O5 0.750726 0.500000 0.638451
O O6 0.668920 0.331081 0.627975
O O7 0.817510 0.348151 0.707489
O O8 0.846821 0.360072 0.580415
O O9 0.500000 0.103646 0.765906
O O10 0.657770 0.000000 0.748111
O O11 0.831880 0.168121 0.372146
O O12 0.837826 0.357066 0.344581
O O13 0.877456 0.301632 0.461889
O O14 0.000000 0.256242 0.365493
O O15 0.172035 0.827966 0.183491
O O16 0.311892 0.875610 0.096714
O O17 0.358420 0.841375 0.216775
O O18 0.254750 0.000000 0.189453
O O19 0.159005 0.840996 0.023044
O O20 0.000000 0.753315 0.006373
O O21 0.246964 0.500000 0.280428
O O22 0.327133 0.327133 0.278553
O O23 0.828319 0.828319 0.553209
O O24 0.750244 0.000000 0.556355
#
# Coordination Sequence:
#
# PCOD8306529 Si02
#       8
#     8   8   8   8   8   8   8   8
#     4   8  14  25  41  62  87 112 141 181 225 266
#     4  10  20  32  46  65  89 118 154 194 234 276
#     4   8  14  26  44  64  85 109 140 182 230 276
#     4   9  18  32  50  74 102 128 154 184 219 263
#     4   9  18  31  46  67  94 122 154 190 227 270
#     4   9  17  28  42  62  89 120 151 180 212 255
#     4  10  21  36  52  70  93 120 153 193 232 272
#     4   9  18  32  50  73  99 125 153 185 222 266
#
# _framework density 16.834727000000001
#
# number of rings (size 3 to 8) (size 9 to 14) (size 15 to 20)
#    0.000    3.000    0.000    1.500    0.000    4.000 
#    0.000    5.000    0.000    2.250    0.000    3.500 
#    0.000    3.250    0.000    0.250    0.000    0.000 
#
# Total GULP energy -793296.892570 kJ/mol
# GULP energy per Si atom -12395.263946 kJ/mol
# Density = 1.679641 g / cm^3
# Si number density = 16.834727 Si / 1000 Ang^3
#
#
#
# Elastic Constant Matrix: (Units=GPa)
#
#
# Indices 1 2 3 4 5 6 
#
# 1 91.6596 39.7072 49.7814 0.0000 0.0000 0.0001
# 2 39.7072 91.6596 49.7814 0.0000 0.0000 -0.0001
# 3 49.7814 49.7814 110.1182 0.0000 0.0000 0.0000
# 4 0.0000 0.0000 0.0000 24.1752 0.0000 0.0000
# 5 0.0000 0.0000 0.0000 0.0000 24.1752 0.0000
# 6 0.0001 -0.0001 0.0000 0.0000 0.0000 12.4185
#
#
#
# Elastic Compliance Matrix: (Units=1/GPa)
#
#
# Indices 1 2 3 4 5 6 
#
# 1 0.015414 -0.003834 -0.005235 0.000000 0.000000 0.000000
# 2 -0.003834 0.015414 -0.005235 0.000000 0.000000 0.000000
# 3 -0.005235 -0.005235 0.013814 0.000000 0.000000 0.000000
# 4 0.000000 0.000000 0.000000 0.041365 0.000000 0.000000
# 5 0.000000 0.000000 0.000000 0.000000 0.041365 0.000000
# 6 0.000000 0.000000 0.000000 0.000000 0.000000 0.080525
#
#
# Mechanical properties :
#
#
# Convention : Reuss Voigt Hill
#
# Bulk Modulus (GPa) = 62.36654 63.55305 62.95979
# Shear Modulus (GPa) = 20.67395 22.43159 21.55277
#
# Velocity S-wave (km/s) = 3.50816 3.65425 3.58195
# Velocity P-wave (km/s) = 7.31686 7.45908 7.38831
#
# Compressibility (1/GPa) = 0.01603424
#
# Stress axis : x y z
#
# Youngs Moduli (GPa) = 64.87571 64.87571 72.38899
#
# Poissons Ratio (x) = 0.24875 0.37895
# Poissons Ratio (y) = 0.24875 0.37895
# Poissons Ratio (z) = 0.33962 0.33962
#
# Static dielectric constant tensor:
#      x y z
#    x 2.967260 0.000000 0.000000 
#    y 0.000000 2.967260 0.000000 
#    z 0.000000 0.000000 3.529160 
# 
# 
# High freq. dielectric constant tensor:
#      x y z
#    x 1.626530 0.000000 0.000000 
#    y 0.000000 1.626530 0.000000 
#    z 0.000000 0.000000 1.669010 
# 
# From -- ./inp_files/2240.got.cif
#   From: 2010.03.12/outbox.cif.g09.slc.cpg/sg99_cif.got.tgz:2240.got - 2010.04.08 21:11:30.
