data_PCOD8306661
_publ_section_title
;
Structure prediction by ZEFSAII (Michael W. Deem and Ramdas Pophale) SiO2 
 PCOD8306661
Probable space group: P 4 B M
;
_chemical_formula_sum "Si O2"
_cell_formula_units_Z 40
_cell_length_a 12.965115
_cell_length_b 12.965115
_cell_length_c 11.936397
_cell_angle_alpha 90.000000
_cell_angle_beta 90.000000
_cell_angle_gamma 90.000000
_cell_volume 2006.439188
_symmetry_space_group_name_H-M "P 4 B M"
_symmetry_group_IT_number 100
_symmetry_cell_setting 'tetragonal'
loop_
_space_group_symop_operation_xyz
x,y,z
-y,x,z
-x,-y,z
y,-x,z
1/2-x,1/2+y,z
1/2+x,1/2-y,z
1/2-y,1/2-x,z
1/2+y,1/2+x,z
loop_
_atom_site_type_symbol
_atom_site_label
_atom_site_fract_x
_atom_site_fract_y
_atom_site_fract_z
Si Si1 0.004397 0.664747 0.146550
Si Si2 0.462512 0.660399 0.310266
Si Si3 0.261799 0.067987 0.679607
Si Si4 0.880898 0.785052 0.547791
Si Si5 0.495459 0.832616 0.903495
O O1 0.118591 0.618591 0.178685
O O2 0.931824 0.568177 0.128709
O O3 0.952752 0.733997 0.242735
O O4 0.004138 0.723131 0.025602
O O5 0.377963 0.576366 0.276007
O O6 0.445484 0.674426 0.442214
O O7 0.360233 0.139768 0.660743
O O8 0.159395 0.122866 0.629402
O O9 0.284058 0.961647 0.615524
O O10 0.250304 0.034200 0.810034
O O11 0.785217 0.714784 0.507590
O O12 0.379885 0.879885 0.879484
O O13 0.572044 0.927957 0.904404
#
# Coordination Sequence:
#
# PCOD8306661 Si02
#       5
#     8   8   8   8   8
#     4   9  19  37  62  90 118 150 192 243 296 348
#     4  11  23  40  59  78 115 160 197 239 290 344
#     4  10  21  37  58  86 119 152 192 237 285 348
#     4  11  22  37  60  86 114 152 196 237 289 345
#     4   8  15  33  59  85 117 151 185 237 295 342
#
# _framework density 19.935815999999999
#
# number of rings (size 3 to 8) (size 9 to 14) (size 15 to 20)
#    0.000    2.200    2.000    2.400    0.000    4.000 
#    3.600    0.000    0.000    0.000    0.000    0.000 
#    0.000    0.000    0.000    0.000    0.000    0.000 
#
# Total GULP energy -495539.767454 kJ/mol
# GULP energy per Si atom -12388.494186 kJ/mol
# Density = 1.989044 g / cm^3
# Si number density = 19.935816 Si / 1000 Ang^3
#
#
#
# Elastic Constant Matrix: (Units=GPa)
#
#
# Indices 1 2 3 4 5 6 
#
# 1 67.8008 22.1474 45.9315 0.0000 0.0000 0.0001
# 2 22.1474 67.8008 45.9315 0.0000 0.0000 -0.0001
# 3 45.9315 45.9315 139.0941 0.0000 0.0000 0.0000
# 4 0.0000 0.0000 0.0000 30.6525 0.0000 0.0000
# 5 0.0000 0.0000 0.0000 0.0000 30.6525 0.0000
# 6 0.0001 -0.0001 0.0000 0.0000 0.0000 6.6242
#
#
#
# Elastic Compliance Matrix: (Units=1/GPa)
#
#
# Indices 1 2 3 4 5 6 
#
# 1 0.019339 -0.002565 -0.005539 0.000000 0.000000 0.000000
# 2 -0.002565 0.019339 -0.005539 0.000000 0.000000 0.000000
# 3 -0.005539 -0.005539 0.010848 0.000000 0.000000 0.000000
# 4 0.000000 0.000000 0.000000 0.032624 0.000000 0.000000
# 5 0.000000 0.000000 0.000000 0.000000 0.032624 0.000000
# 6 0.000000 0.000000 0.000000 0.000000 0.000000 0.150962
#
#
# Mechanical properties :
#
#
# Convention : Reuss Voigt Hill
#
# Bulk Modulus (GPa) = 44.96416 55.85738 50.41077
# Shear Modulus (GPa) = 16.64243 24.29818 20.47031
#
# Velocity S-wave (km/s) = 2.89243 3.49495 3.20786
# Velocity P-wave (km/s) = 5.81019 6.66075 6.24996
#
# Compressibility (1/GPa) = 0.02223993
#
# Stress axis : x y z
#
# Youngs Moduli (GPa) = 51.70766 51.70766 92.18482
#
# Poissons Ratio (x) = 0.13262 0.51064
# Poissons Ratio (y) = 0.13262 0.51064
# Poissons Ratio (z) = 0.28643 0.28643
#
# Static dielectric constant tensor:
#      x y z
#    x 3.466590 0.000000 0.000000 
#    y 0.000000 3.466590 0.000000 
#    z 0.000000 0.000000 3.991030 
# 
# 
# High freq. dielectric constant tensor:
#      x y z
#    x 1.760650 0.000000 0.000000 
#    y 0.000000 1.760650 0.000000 
#    z 0.000000 0.000000 1.784600 
# 
# From -- ./inp_files/1182.got.cif
#   From: 2010.03.12/outbox.cif.g09.slc.cpg/sg100_cif.got.tgz:1182.got - 2010.04.14 01:37:57.
