data_PCOD8306289
_publ_section_title
;
Structure prediction by ZEFSAII (Michael W. Deem and Ramdas Pophale) SiO2 
 PCOD8306289
Probable space group: I 41 2 2
;
_chemical_formula_sum "Si O2"
_cell_formula_units_Z 72
_cell_length_a 20.061993
_cell_length_b 20.061993
_cell_length_c 9.309716
_cell_angle_alpha 90.000000
_cell_angle_beta 90.000000
_cell_angle_gamma 90.000000
_cell_volume 3747.007667
_symmetry_space_group_name_H-M "I 41 2 2"
_symmetry_group_IT_number 98
_symmetry_cell_setting 'tetragonal'
loop_
_space_group_symop_operation_xyz
x,y,z
-y,1/2+x,1/4+z
-x,-y,z
y,1/2-x,1/4+z
x,1/2-y,1/4-z
-x,1/2+y,1/4-z
y,x,-z
-y,-x,-z
1/2+x,1/2+y,1/2+z
1/2-y,x,3/4+z
1/2-x,1/2-y,1/2+z
1/2+y,-x,3/4+z
1/2+x,-y,3/4-z
1/2-x,y,3/4-z
1/2+y,1/2+x,1/2-z
1/2-y,1/2-x,1/2-z
loop_
_atom_site_type_symbol
_atom_site_label
_atom_site_fract_x
_atom_site_fract_y
_atom_site_fract_z
Si Si1 0.800678 0.199323 0.000000
Si Si2 0.047822 0.696604 0.246739
Si Si3 0.076875 0.481896 0.375305
Si Si4 0.893548 0.640201 0.903547
Si Si5 0.434658 0.274577 0.280841
O O1 0.782213 0.250000 0.125000
O O2 0.877064 0.210218 0.949978
O O3 0.026473 0.750000 0.125000
O O4 0.043359 0.621972 0.180255
O O5 0.999158 0.699812 0.384026
O O6 0.075060 0.424941 0.250000
O O7 0.112607 0.458746 0.519134
O O8 0.000000 0.500000 0.407011
O O9 0.894993 0.605007 0.750000
O O10 0.897388 0.719298 0.877700
O O11 0.830422 0.621451 0.001865
O O12 0.460358 0.250000 0.125000
#
# Coordination Sequence:
#
# PCOD8306289 Si02
#       5
#     8  16  16  16  16
#     4  10  24  42  63  88 122 152 197 254 308 372
#     4  11  21  38  64  90 117 158 205 251 307 366
#     4  11  21  34  60  92 123 153 198 251 306 360
#     4  10  21  38  61  86 127 163 203 248 297 361
#     4  10  21  38  62  86 124 164 203 248 299 360
#
# _framework density 19.215333000000001
#
# number of rings (size 3 to 8) (size 9 to 14) (size 15 to 20)
#    0.000    1.556    4.444    1.333    0.000    1.333 
#    0.000    0.000   39.111    0.000    0.000    0.000 
#    0.000    0.000    0.000    0.000    0.000    0.000 
#
# Total GULP energy -446119.668126 kJ/mol
# GULP energy per Si atom -12392.213004 kJ/mol
# Density = 1.917160 g / cm^3
# Si number density = 19.215333 Si / 1000 Ang^3
#
#
#
# Elastic Constant Matrix: (Units=GPa)
#
#
# Indices 1 2 3 4 5 6 
#
# 1 121.1539 62.1346 68.3669 0.0000 0.0000 0.0000
# 2 62.1346 121.1536 68.3673 0.0000 0.0000 0.0000
# 3 68.3669 68.3673 101.8622 0.0000 0.0000 0.0000
# 4 0.0000 0.0000 0.0000 37.4476 0.0000 0.0000
# 5 0.0000 0.0000 0.0000 0.0000 37.4468 0.0000
# 6 0.0000 0.0000 0.0000 0.0000 0.0000 30.2576
#
#
#
# Elastic Compliance Matrix: (Units=1/GPa)
#
#
# Indices 1 2 3 4 5 6 
#
# 1 0.013935 -0.003008 -0.007334 0.000000 0.000000 0.000000
# 2 -0.003008 0.013935 -0.007334 0.000000 0.000000 0.000000
# 3 -0.007334 -0.007334 0.019662 0.000000 0.000000 0.000000
# 4 0.000000 0.000000 0.000000 0.026704 0.000000 0.000000
# 5 0.000000 0.000000 0.000000 0.000000 0.026705 0.000000
# 6 0.000000 0.000000 0.000000 0.000000 0.000000 0.033050
#
#
# Mechanical properties :
#
#
# Convention : Reuss Voigt Hill
#
# Bulk Modulus (GPa) = 82.10037 82.43413 82.26725
# Shear Modulus (GPa) = 28.83456 30.71713 29.77584
#
# Velocity S-wave (km/s) = 3.87796 4.00255 3.94075
# Velocity P-wave (km/s) = 7.92910 8.02209 7.97573
#
# Compressibility (1/GPa) = 0.01218021
#
# Stress axis : x y z
#
# Youngs Moduli (GPa) = 71.76035 71.75952 50.85985
#
# Poissons Ratio (x) = 0.21587 0.37300
# Poissons Ratio (y) = 0.21588 0.37301
# Poissons Ratio (z) = 0.52628 0.52629
#
# Static dielectric constant tensor:
#      x y z
#    x 3.529740 0.000000 0.000000 
#    y 0.000000 3.529770 0.000000 
#    z 0.000000 0.000000 3.619460 
# 
# 
# High freq. dielectric constant tensor:
#      x y z
#    x 1.747300 0.000000 0.000000 
#    y 0.000000 1.747300 0.000000 
#    z 0.000000 0.000000 1.747820 
# 
# From -- ./inp_files/3426.got.cif
#   From: 2010.03.12/outbox.cif.g09.slc.cpg/sg98_2_cif.got.tgz:3426.got - 2010.04.08 21:04:41.
