data_PCOD8306382
_publ_section_title
;
Structure prediction by ZEFSAII (Michael W. Deem and Ramdas Pophale) SiO2 
 PCOD8306382
Probable space group: I 41 2 2
;
_chemical_formula_sum "Si O2"
_cell_formula_units_Z 48
_cell_length_a 14.549531
_cell_length_b 14.549531
_cell_length_c 10.341094
_cell_angle_alpha 90.000000
_cell_angle_beta 90.000000
_cell_angle_gamma 90.000000
_cell_volume 2189.094321
_symmetry_space_group_name_H-M "I 41 2 2"
_symmetry_group_IT_number 98
_symmetry_cell_setting 'tetragonal'
loop_
_space_group_symop_operation_xyz
x,y,z
-y,1/2+x,1/4+z
-x,-y,z
y,1/2-x,1/4+z
x,1/2-y,1/4-z
-x,1/2+y,1/4-z
y,x,-z
-y,-x,-z
1/2+x,1/2+y,1/2+z
1/2-y,x,3/4+z
1/2-x,1/2-y,1/2+z
1/2+y,-x,3/4+z
1/2+x,-y,3/4-z
1/2-x,y,3/4-z
1/2+y,1/2+x,1/2-z
1/2-y,1/2-x,1/2-z
loop_
_atom_site_type_symbol
_atom_site_label
_atom_site_fract_x
_atom_site_fract_y
_atom_site_fract_z
Si Si1 0.148179 0.636998 0.891922
Si Si2 0.786164 0.966146 0.732710
Si Si3 0.677753 0.561344 0.764956
O O1 0.250000 0.683032 0.875000
O O2 0.110151 0.610151 0.750000
O O3 0.156742 0.546312 0.977276
O O4 0.075864 0.704717 0.960155
O O5 0.750000 0.946674 0.875000
O O6 0.718159 0.920772 0.627947
O O7 0.884443 0.916995 0.717370
O O8 0.750000 0.592162 0.875000
#
# Coordination Sequence:
#
# PCOD8306382 Si02
#       3
#    16  16  16
#     4  11  23  46  72  99 128 180 239 283 342 405
#     4  12  26  44  69 105 146 176 225 290 342 405
#     4  11  24  44  72 103 136 192 229 269 341 411
#
# _framework density 21.926877000000001
#
# number of rings (size 3 to 8) (size 9 to 14) (size 15 to 20)
#    0.000    0.667    6.667    3.000    0.000    8.000 
#    0.000    3.333    0.000    0.000    0.000    0.000 
#    0.000    0.000    0.000    0.000    0.000    0.000 
#
# Total GULP energy -297621.043107 kJ/mol
# GULP energy per Si atom -12400.876796 kJ/mol
# Density = 2.187697 g / cm^3
# Si number density = 21.926877 Si / 1000 Ang^3
#
#
#
# Elastic Constant Matrix: (Units=GPa)
#
#
# Indices 1 2 3 4 5 6 
#
# 1 82.6140 44.8458 21.7258 0.0000 0.0000 0.0000
# 2 44.8458 82.6140 21.7258 0.0000 0.0000 0.0000
# 3 21.7258 21.7258 164.1036 0.0000 0.0000 0.0000
# 4 0.0000 0.0000 0.0000 24.2673 0.0000 0.0000
# 5 0.0000 0.0000 0.0000 0.0000 24.2673 0.0000
# 6 0.0000 0.0000 0.0000 0.0000 0.0000 36.8987
#
#
#
# Elastic Compliance Matrix: (Units=1/GPa)
#
#
# Indices 1 2 3 4 5 6 
#
# 1 0.017347 -0.009130 -0.001088 0.000000 0.000000 0.000000
# 2 -0.009130 0.017347 -0.001088 0.000000 0.000000 0.000000
# 3 -0.001088 -0.001088 0.006382 0.000000 0.000000 0.000000
# 4 0.000000 0.000000 0.000000 0.041208 0.000000 0.000000
# 5 0.000000 0.000000 0.000000 0.000000 0.041208 0.000000
# 6 0.000000 0.000000 0.000000 0.000000 0.000000 0.027101
#
#
# Mechanical properties :
#
#
# Convention : Reuss Voigt Hill
#
# Bulk Modulus (GPa) = 54.16094 56.21405 55.18750
# Shear Modulus (GPa) = 27.87713 33.15563 30.51638
#
# Velocity S-wave (km/s) = 3.56949 3.89279 3.73464
# Velocity P-wave (km/s) = 6.46086 6.77479 6.61969
#
# Compressibility (1/GPa) = 0.01846349
#
# Stress axis : x y z
#
# Youngs Moduli (GPa) = 57.64726 57.64726 156.69721
#
# Poissons Ratio (x) = 0.52634 0.17045
# Poissons Ratio (y) = 0.52634 0.17045
# Poissons Ratio (z) = 0.06271 0.06271
#
# Static dielectric constant tensor:
#      x y z
#    x 3.864910 0.000000 0.000000 
#    y 0.000000 3.864910 0.000000 
#    z 0.000000 0.000000 4.116090 
# 
# 
# High freq. dielectric constant tensor:
#      x y z
#    x 1.853570 0.000000 0.000000 
#    y 0.000000 1.853570 0.000000 
#    z 0.000000 0.000000 1.875800 
# 
# From -- ./inp_files/2763.got.cif
#   From: 2010.03.12/outbox.cif.g09.slc.cpg/sg98_2_cif.got.tgz:2763.got - 2010.04.08 21:04:41.
