data_PCOD8306948
_publ_section_title
;
Structure prediction by ZEFSAII (Michael W. Deem and Ramdas Pophale) SiO2 
 PCOD8306948
Probable space group: P 42 N M
;
_chemical_formula_sum "Si O2"
_cell_formula_units_Z 64
_cell_length_a 21.681272
_cell_length_b 21.681272
_cell_length_c 10.019923
_cell_angle_alpha 90.000000
_cell_angle_beta 90.000000
_cell_angle_gamma 90.000000
_cell_volume 4710.140911
_symmetry_space_group_name_H-M "P 42 N M"
_symmetry_group_IT_number 102
_symmetry_cell_setting 'tetragonal'
loop_
_space_group_symop_operation_xyz
x,y,z
1/2-y,1/2+x,1/2+z
-x,-y,z
1/2+y,1/2-x,1/2+z
1/2-x,1/2+y,1/2+z
1/2+x,1/2-y,1/2+z
-y,-x,z
y,x,z
loop_
_atom_site_type_symbol
_atom_site_label
_atom_site_fract_x
_atom_site_fract_y
_atom_site_fract_z
Si Si1 0.333915 0.431094 0.536100
Si Si2 0.662533 0.233803 0.228608
Si Si3 0.837469 0.266197 0.025794
Si Si4 0.166085 0.068906 0.718302
Si Si5 0.666086 0.431094 0.536101
Si Si6 0.568906 0.666084 0.218301
Si Si7 0.233803 0.337468 0.228608
Si Si8 0.766197 0.337469 0.525795
O O1 0.392267 0.392267 0.592272
O O2 0.269669 0.398396 0.577780
O O3 0.335950 0.500000 0.596623
O O4 0.337651 0.432581 0.377201
O O5 0.718166 0.281835 0.234547
O O6 0.678159 0.178158 0.127201
O O7 0.601607 0.269671 0.176618
O O8 0.651847 0.206317 0.377201
O O9 0.781839 0.218162 0.019856
O O10 0.848153 0.293684 0.877201
O O11 0.107731 0.107731 0.662135
O O12 0.164051 0.000000 0.657780
O O13 0.162353 0.067419 0.877202
O O14 0.607734 0.392266 0.592269
O O15 0.730332 0.398396 0.577784
O O16 0.607733 0.607733 0.162130
O O17 0.601605 0.730330 0.176621
O O18 0.281836 0.281836 0.234545
O O19 0.178159 0.321842 0.127200
O O20 0.718162 0.281839 0.519858
#
# Coordination Sequence:
#
# PCOD8306948 Si02
#       8
#     8   8   8   8   8   8   8   8
#     4   8  13  20  30  46  68  92 116 140 165 195
#     4   8  13  21  33  48  65  85 109 137 168 199
#     4   8  13  21  33  48  65  85 109 137 168 199
#     4   8  13  20  30  46  68  92 116 140 165 195
#     4   8  13  20  30  46  68  92 116 140 165 195
#     4   8  13  20  30  46  68  92 116 140 165 195
#     4   8  13  21  33  48  65  85 109 137 168 199
#     4   8  13  21  33  48  65  85 109 137 168 199
#
# _framework density 13.587704
#
# number of rings (size 3 to 8) (size 9 to 14) (size 15 to 20)
#    0.000    4.000    0.000    3.000    0.000    0.500 
#    0.000    2.500    0.000    1.500    0.000    0.000 
#    0.000    1.000    0.000   32.000    0.000   21.000 
#
# Total GULP energy -792884.260860 kJ/mol
# GULP energy per Si atom -12388.816576 kJ/mol
# Density = 1.355678 g / cm^3
# Si number density = 13.587704 Si / 1000 Ang^3
#
#
#
# Elastic Constant Matrix: (Units=GPa)
#
#
# Indices 1 2 3 4 5 6 
#
# 1 72.8682 68.3240 30.3475 0.0000 0.0000 0.0000
# 2 68.3240 72.8682 30.3475 0.0000 0.0000 0.0000
# 3 30.3475 30.3475 36.1592 0.0000 0.0000 0.0000
# 4 0.0000 0.0000 0.0000 12.3597 0.0000 0.0000
# 5 0.0000 0.0000 0.0000 0.0000 12.3597 0.0000
# 6 0.0000 0.0000 0.0000 0.0000 0.0000 14.9758
#
#
#
# Elastic Compliance Matrix: (Units=1/GPa)
#
#
# Indices 1 2 3 4 5 6 
#
# 1 0.115571 -0.104491 -0.009299 0.000000 0.000000 0.000000
# 2 -0.104491 0.115571 -0.009299 0.000000 0.000000 0.000000
# 3 -0.009299 -0.009299 0.043265 0.000000 0.000000 0.000000
# 4 0.000000 0.000000 0.000000 0.080908 0.000000 0.000000
# 5 0.000000 0.000000 0.000000 0.000000 0.080908 0.000000
# 6 0.000000 0.000000 0.000000 0.000000 0.000000 0.066774
#
#
# Mechanical properties :
#
#
# Convention : Reuss Voigt Hill
#
# Bulk Modulus (GPa) = 35.42591 48.88150 42.15370
# Shear Modulus (GPa) = 6.59122 11.46413 9.02767
#
# Velocity S-wave (km/s) = 2.20486 2.90783 2.58039
# Velocity P-wave (km/s) = 5.71056 6.87945 6.32208
#
# Compressibility (1/GPa) = 0.02822793
#
# Stress axis : x y z
#
# Youngs Moduli (GPa) = 8.65270 8.65270 23.11356
#
# Poissons Ratio (x) = 0.90413 0.21494
# Poissons Ratio (y) = 0.90413 0.21494
# Poissons Ratio (z) = 0.08046 0.08046
#
# Static dielectric constant tensor:
#      x y z
#    x 2.792200 0.000000 0.000000 
#    y 0.000000 2.792200 0.000000 
#    z 0.000000 0.000000 2.582880 
# 
# 
# High freq. dielectric constant tensor:
#      x y z
#    x 1.495580 0.000000 0.000000 
#    y 0.000000 1.495580 0.000000 
#    z 0.000000 0.000000 1.476240 
# 
# From -- ./inp_files/1959.got.cif
#   From: 2010.03.12/outbox.cif.g09.slc.cpg/sg102_1_cif.got.tgz:1959.got - 2010.04.14 01:40:42.
