data_PCOD8306258
_publ_section_title
;
Structure prediction by ZEFSAII (Michael W. Deem and Ramdas Pophale) SiO2 
 PCOD8306258
Probable space group: I 41 2 2
;
_chemical_formula_sum "Si O2"
_cell_formula_units_Z 120
_cell_length_a 20.214641
_cell_length_b 20.214641
_cell_length_c 14.797147
_cell_angle_alpha 90.000000
_cell_angle_beta 90.000000
_cell_angle_gamma 90.000000
_cell_volume 6046.583493
_symmetry_space_group_name_H-M "I 41 2 2"
_symmetry_group_IT_number 98
_symmetry_cell_setting 'tetragonal'
loop_
_space_group_symop_operation_xyz
x,y,z
-y,1/2+x,1/4+z
-x,-y,z
y,1/2-x,1/4+z
x,1/2-y,1/4-z
-x,1/2+y,1/4-z
y,x,-z
-y,-x,-z
1/2+x,1/2+y,1/2+z
1/2-y,x,3/4+z
1/2-x,1/2-y,1/2+z
1/2+y,-x,3/4+z
1/2+x,-y,3/4-z
1/2-x,y,3/4-z
1/2+y,1/2+x,1/2-z
1/2-y,1/2-x,1/2-z
loop_
_atom_site_type_symbol
_atom_site_label
_atom_site_fract_x
_atom_site_fract_y
_atom_site_fract_z
Si Si1 0.074873 0.733077 0.361247
Si Si2 0.359600 0.085823 0.543255
Si Si3 0.269802 0.440327 0.547878
Si Si4 0.707812 0.802186 0.047328
Si Si5 0.326687 0.658256 0.895346
Si Si6 0.602765 0.397236 0.500000
Si Si7 0.692180 0.470543 0.807527
Si Si8 0.038134 0.117290 0.072562
O O1 0.133633 0.784338 0.345384
O O2 0.099854 0.665648 0.315319
O O3 0.059270 0.724861 0.467155
O O4 0.010999 0.766272 0.310152
O O5 0.329742 0.051638 0.631292
O O6 0.310628 0.146827 0.520305
O O7 0.434048 0.106490 0.574309
O O8 0.357492 0.032195 0.462346
O O9 0.224478 0.377821 0.574992
O O10 0.307174 0.437533 0.451033
O O11 0.687027 0.750000 0.125000
O O12 0.772835 0.772835 0.000000
O O13 0.250000 0.669694 0.875000
O O14 0.349556 0.587342 0.855494
O O15 0.342267 0.657733 0.000000
O O16 0.540462 0.393960 0.569015
O O17 0.750000 0.495657 0.875000
O O18 0.066465 0.066465 0.000000
#
# Coordination Sequence:
#
# PCOD8306258 Si02
#       8
#    16  16  16  16  16   8  16  16
#     4  10  21  39  60  88 129 161 205 259 317 387
#     4  10  20  36  58  86 117 153 204 257 295 373
#     4   9  20  36  55  83 121 161 194 253 322 363
#     4  12  22  35  58  88 116 156 208 261 312 365
#     4  11  21  39  65  93 117 162 211 263 319 378
#     4  10  21  36  62  98 126 168 204 258 321 396
#     4  10  20  38  61  87 117 161 208 255 313 372
#     4   9  18  35  59  83 120 165 202 243 306 384
#
# _framework density 19.845915999999999
#
# number of rings (size 3 to 8) (size 9 to 14) (size 15 to 20)
#    0.000    1.867    4.000    2.600    0.933    0.000 
#    2.400    0.000    0.000    0.000    0.000    0.933 
#    0.000    0.000    0.000    0.000    0.000    0.000 
#
# Total GULP energy -743344.799474 kJ/mol
# GULP energy per Si atom -12389.079991 kJ/mol
# Density = 1.980075 g / cm^3
# Si number density = 19.845916 Si / 1000 Ang^3
#
#
#
# Elastic Constant Matrix: (Units=GPa)
#
#
# Indices 1 2 3 4 5 6 
#
# 1 112.0353 66.6795 48.5117 0.0000 0.0000 0.0000
# 2 66.6795 112.0353 48.5115 0.0000 0.0000 0.0000
# 3 48.5117 48.5115 94.4642 0.0000 0.0000 0.0000
# 4 0.0000 0.0000 0.0000 32.7392 0.0000 0.0000
# 5 0.0000 0.0000 0.0000 0.0000 32.7394 0.0000
# 6 0.0000 0.0000 0.0000 0.0000 0.0000 19.9109
#
#
#
# Elastic Compliance Matrix: (Units=1/GPa)
#
#
# Indices 1 2 3 4 5 6 
#
# 1 0.014903 -0.007145 -0.003984 0.000000 0.000000 0.000000
# 2 -0.007145 0.014903 -0.003984 0.000000 0.000000 0.000000
# 3 -0.003984 -0.003984 0.014678 0.000000 0.000000 0.000000
# 4 0.000000 0.000000 0.000000 0.030544 0.000000 0.000000
# 5 0.000000 0.000000 0.000000 0.000000 0.030544 0.000000
# 6 0.000000 0.000000 0.000000 0.000000 0.000000 0.050224
#
#
# Mechanical properties :
#
#
# Convention : Reuss Voigt Hill
#
# Bulk Modulus (GPa) = 70.13607 71.77112 70.95359
# Shear Modulus (GPa) = 26.20862 27.40002 26.80432
#
# Velocity S-wave (km/s) = 3.63796 3.71972 3.67907
# Velocity P-wave (km/s) = 7.28446 7.39535 7.34011
#
# Compressibility (1/GPa) = 0.01425800
#
# Stress axis : x y z
#
# Youngs Moduli (GPa) = 67.09944 67.09959 68.12751
#
# Poissons Ratio (x) = 0.47940 0.27145
# Poissons Ratio (y) = 0.47940 0.27145
# Poissons Ratio (z) = 0.26735 0.26735
#
# Static dielectric constant tensor:
#      x y z
#    x 3.706020 0.000000 0.000000 
#    y 0.000000 3.706040 0.000000 
#    z 0.000000 0.000000 3.662050 
# 
# 
# High freq. dielectric constant tensor:
#      x y z
#    x 1.767190 0.000000 0.000000 
#    y 0.000000 1.767190 0.000000 
#    z 0.000000 0.000000 1.763710 
# 
# From -- ./inp_files/6772.got.cif
#   From: 2010.03.12/outbox.cif.g09.slc.cpg/sg98_4_cif.got.tgz:6772.got - 2010.04.08 21:04:41.
