data_PCOD8306876
_publ_section_title
;
Structure prediction by ZEFSAII (Michael W. Deem and Ramdas Pophale) SiO2 
 PCOD8306876
Probable space group: P 42 N M
;
_chemical_formula_sum "Si O2"
_cell_formula_units_Z 64
_cell_length_a 12.041991
_cell_length_b 12.041991
_cell_length_c 22.874666
_cell_angle_alpha 90.000000
_cell_angle_beta 90.000000
_cell_angle_gamma 90.000000
_cell_volume 3317.044960
_symmetry_space_group_name_H-M "P 42 N M"
_symmetry_group_IT_number 102
_symmetry_cell_setting 'tetragonal'
loop_
_space_group_symop_operation_xyz
x,y,z
1/2-y,1/2+x,1/2+z
-x,-y,z
1/2+y,1/2-x,1/2+z
1/2-x,1/2+y,1/2+z
1/2+x,1/2-y,1/2+z
-y,-x,z
y,x,z
loop_
_atom_site_type_symbol
_atom_site_label
_atom_site_fract_x
_atom_site_fract_y
_atom_site_fract_z
Si Si1 0.499810 0.320418 0.063230
Si Si2 0.360327 0.817959 0.732330
Si Si3 0.818938 0.995322 0.906815
Si Si4 0.285188 0.108138 0.463560
Si Si5 0.580232 0.900469 0.352213
Si Si6 0.242839 0.941393 0.158542
Si Si7 0.124086 0.520127 0.150252
Si Si8 0.238832 0.942340 0.028427
O O1 0.605577 0.394424 0.083009
O O2 0.386687 0.386687 0.069808
O O3 0.487832 0.211791 0.101578
O O4 0.512935 0.286997 0.994877
O O5 0.243941 0.756060 0.722244
O O6 0.381630 0.831116 0.801129
O O7 0.457756 0.742659 0.704221
O O8 0.354556 0.941394 0.705868
O O9 0.892921 0.107080 0.904244
O O10 0.712630 0.011635 0.865273
O O11 0.779598 0.973144 0.974128
O O12 0.889074 0.889074 0.884993
O O13 0.208677 0.208677 0.439888
O O14 0.352900 0.059220 0.409449
O O15 0.366680 0.154280 0.514262
O O16 0.500000 0.000000 0.333428
O O17 0.132748 0.867253 0.167383
O O18 0.351224 0.863939 0.169568
O O19 0.253438 0.995691 0.092911
O O20 0.000000 0.500000 0.125454
O O21 0.129366 0.870635 0.034671
#
# Coordination Sequence:
#
# PCOD8306876 Si02
#       8
#     8   8   8   8   8   8   8   8
#     4  10  19  33  56  86 119 152 190 235 282 342
#     4  11  24  41  58  81 113 156 201 240 286 344
#     4   9  18  35  61  90 115 142 184 242 298 345
#     4   9  17  33  57  81 108 149 191 228 279 345
#     4  11  22  40  61  80 113 153 196 238 290 349
#     4  10  19  35  60  87 115 152 196 241 288 340
#     4  10  20  35  57  82 118 151 190 236 291 347
#     4   8  14  28  54  84 113 145 180 224 285 347
#
# _framework density 19.294281000000002
#
# number of rings (size 3 to 8) (size 9 to 14) (size 15 to 20)
#    0.000    2.250    1.250    3.750    0.000    1.250 
#    2.250    5.625    0.000    4.500    0.000    0.000 
#    0.000    0.000    0.000    0.000    0.000    0.000 
#
# Total GULP energy -793313.334981 kJ/mol
# GULP energy per Si atom -12395.520859 kJ/mol
# Density = 1.925037 g / cm^3
# Si number density = 19.294281 Si / 1000 Ang^3
#
#
#
# Elastic Constant Matrix: (Units=GPa)
#
#
# Indices 1 2 3 4 5 6 
#
# 1 88.1702 33.2687 38.6288 0.0000 0.0000 0.0002
# 2 33.2687 88.1702 38.6288 0.0000 0.0000 -0.0002
# 3 38.6288 38.6288 101.1698 0.0000 0.0000 0.0000
# 4 0.0000 0.0000 0.0000 26.2376 0.0000 0.0000
# 5 0.0000 0.0000 0.0000 0.0000 26.2376 0.0000
# 6 0.0002 -0.0002 0.0000 0.0000 0.0000 28.9194
#
#
#
# Elastic Compliance Matrix: (Units=1/GPa)
#
#
# Indices 1 2 3 4 5 6 
#
# 1 0.014546 -0.003669 -0.004153 0.000000 0.000000 0.000000
# 2 -0.003669 0.014546 -0.004153 0.000000 0.000000 0.000000
# 3 -0.004153 -0.004153 0.013056 0.000000 0.000000 0.000000
# 4 0.000000 0.000000 0.000000 0.038113 0.000000 0.000000
# 5 0.000000 0.000000 0.000000 0.000000 0.038113 0.000000
# 6 0.000000 0.000000 0.000000 0.000000 0.000000 0.034579
#
#
# Mechanical properties :
#
#
# Convention : Reuss Voigt Hill
#
# Bulk Modulus (GPa) = 54.95332 55.39587 55.17459
# Shear Modulus (GPa) = 27.32728 27.41119 27.36923
#
# Velocity S-wave (km/s) = 3.76751 3.77329 3.77040
# Velocity P-wave (km/s) = 6.88978 6.91064 6.90022
#
# Compressibility (1/GPa) = 0.01819726
#
# Stress axis : x y z
#
# Youngs Moduli (GPa) = 68.74962 68.74962 76.59472
#
# Poissons Ratio (x) = 0.25224 0.31809
# Poissons Ratio (y) = 0.25224 0.31809
# Poissons Ratio (z) = 0.28551 0.28551
#
# Static dielectric constant tensor:
#      x y z
#    x 3.446160 0.000000 0.000000 
#    y 0.000000 3.446160 0.000000 
#    z 0.000000 0.000000 3.483020 
# 
# 
# High freq. dielectric constant tensor:
#      x y z
#    x 1.740050 0.000000 0.000000 
#    y 0.000000 1.740050 0.000000 
#    z 0.000000 0.000000 1.741900 
# 
# From -- ./inp_files/3394.got.cif
#   From: 2010.03.12/outbox.cif.g09.slc.cpg/sg102_2_cif.got.tgz:3394.got - 2010.04.14 01:40:42.
