data_PCOD8306037
_publ_section_title
;
Structure prediction by ZEFSAII (Michael W. Deem and Ramdas Pophale) SiO2 
 PCOD8306037
Probable space group: I 4 2 2 
;
_chemical_formula_sum "Si O2"
_cell_formula_units_Z 112
_cell_length_a 14.460664
_cell_length_b 14.460664
_cell_length_c 27.315962
_cell_angle_alpha 90.000000
_cell_angle_beta 90.000000
_cell_angle_gamma 90.000000
_cell_volume 5712.062757
_symmetry_space_group_name_H-M "I 4 2 2 "
_symmetry_group_IT_number 97
_symmetry_cell_setting 'tetragonal'
loop_
_space_group_symop_operation_xyz
x,y,z
-y,x,z
-x,-y,z
y,-x,z
x,-y,-z
-x,y,-z
y,x,-z
-y,-x,-z
1/2+x,1/2+y,1/2+z
1/2-y,1/2+x,1/2+z
1/2-x,1/2-y,1/2+z
1/2+y,1/2-x,1/2+z
1/2+x,1/2-y,1/2-z
1/2-x,1/2+y,1/2-z
1/2+y,1/2+x,1/2-z
1/2-y,1/2-x,1/2-z
loop_
_atom_site_type_symbol
_atom_site_label
_atom_site_fract_x
_atom_site_fract_y
_atom_site_fract_z
Si Si1 0.924208 0.680131 0.107435
Si Si2 0.506322 0.103421 0.171764
Si Si3 0.569399 0.631829 0.887775
Si Si4 0.188404 0.626540 0.375686
Si Si5 0.729969 0.390490 0.790837
Si Si6 0.707479 0.665893 0.313016
Si Si7 0.253969 0.708537 0.944193
O O1 0.899663 0.577219 0.126168
O O2 0.911605 0.755963 0.150018
O O3 0.857598 0.706456 0.061949
O O4 0.031725 0.686785 0.092777
O O5 0.407248 0.138592 0.153409
O O6 0.543421 0.178536 0.211214
O O7 0.500000 0.000000 0.195230
O O8 0.461934 0.623305 0.900046
O O9 0.575312 0.656283 0.830340
O O10 0.611421 0.710127 0.922689
O O11 0.273910 0.624470 0.336764
O O12 0.199799 0.709515 0.413559
O O13 0.680869 0.385853 0.737561
O O14 0.759333 0.288023 0.805390
O O15 0.281037 0.718964 0.000000
#
# Coordination Sequence:
#
# PCOD8306037 Si02
#       7
#    16  16  16  16  16  16  16
#     4   9  19  37  56  86 116 143 190 244 292 357
#     4   9  17  33  58  83 115 150 187 240 295 349
#     4  11  23  39  59  82 115 158 198 240 288 353
#     4  10  19  37  59  82 114 154 189 236 302 348
#     4  10  18  34  54  80 122 149 194 234 274 346
#     4   9  19  33  53  82 114 155 184 228 284 338
#     4  11  23  39  60  82 111 152 192 245 307 357
#
# _framework density 19.607628999999999
#
# number of rings (size 3 to 8) (size 9 to 14) (size 15 to 20)
#    0.000    2.143    4.286    0.857    0.000    2.286 
#    2.571   12.143    0.000    9.429    0.000    4.000 
#    0.000    0.000    0.000    0.000    0.000    0.000 
#
# Total GULP energy -694143.719999 kJ/mol
# GULP energy per Si atom -12395.423571 kJ/mol
# Density = 1.956300 g / cm^3
# Si number density = 19.607629 Si / 1000 Ang^3
#
#
#
# Elastic Constant Matrix: (Units=GPa)
#
#
# Indices 1 2 3 4 5 6 
#
# 1 81.1638 41.9534 26.9490 0.0000 0.0000 0.0000
# 2 41.9534 81.1638 26.9491 0.0000 0.0000 0.0000
# 3 26.9490 26.9491 96.2663 0.0000 0.0000 0.0000
# 4 0.0000 0.0000 0.0000 11.4285 0.0000 0.0000
# 5 0.0000 0.0000 0.0000 0.0000 11.4281 0.0000
# 6 0.0000 0.0000 0.0000 0.0000 0.0000 25.4741
#
#
#
# Elastic Compliance Matrix: (Units=1/GPa)
#
#
# Indices 1 2 3 4 5 6 
#
# 1 0.017380 -0.008123 -0.002591 0.000000 0.000000 0.000000
# 2 -0.008123 0.017380 -0.002591 0.000000 0.000000 0.000000
# 3 -0.002591 -0.002591 0.011839 0.000000 0.000000 0.000000
# 4 0.000000 0.000000 0.000000 0.087500 0.000000 0.000000
# 5 0.000000 0.000000 0.000000 0.000000 0.087504 0.000000
# 6 0.000000 0.000000 0.000000 0.000000 0.000000 0.039256
#
#
# Mechanical properties :
#
#
# Convention : Reuss Voigt Hill
#
# Bulk Modulus (GPa) = 50.03295 50.03296 50.03295
# Shear Modulus (GPa) = 16.99910 20.51564 18.75737
#
# Velocity S-wave (km/s) = 2.94762 3.23818 3.09631
# Velocity P-wave (km/s) = 6.09566 6.28916 6.19317
#
# Compressibility (1/GPa) = 0.01998683
#
# Stress axis : x y z
#
# Youngs Moduli (GPa) = 57.53703 57.53699 84.46861
#
# Poissons Ratio (x) = 0.46739 0.21889
# Poissons Ratio (y) = 0.46739 0.21889
# Poissons Ratio (z) = 0.14910 0.14910
#
# Static dielectric constant tensor:
#      x y z
#    x 3.612450 0.000000 0.000000 
#    y 0.000000 3.612450 0.000000 
#    z 0.000000 0.000000 3.381250 
# 
# 
# High freq. dielectric constant tensor:
#      x y z
#    x 1.763100 0.000000 0.000000 
#    y 0.000000 1.763100 0.000000 
#    z 0.000000 0.000000 1.728950 
# 
# From -- ./inp_files/7671.got.cif
#   From: 2010.03.12/outbox.cif.g09.slc.cpg/sg97_4_cif.got.tgz:7671.got - 2010.04.08 20:59:42.
