data_PCOD8306588
_publ_section_title
;
Structure prediction by ZEFSAII (Michael W. Deem and Ramdas Pophale) SiO2 
 PCOD8306588
Probable space group: P 4 M M
;
_chemical_formula_sum "Si O2"
_cell_formula_units_Z 64
_cell_length_a 13.576420
_cell_length_b 13.576420
_cell_length_c 20.738928
_cell_angle_alpha 90.000000
_cell_angle_beta 90.000000
_cell_angle_gamma 90.000000
_cell_volume 3822.582203
_symmetry_space_group_name_H-M "P 4 M M"
_symmetry_group_IT_number 99
_symmetry_cell_setting 'tetragonal'
loop_
_space_group_symop_operation_xyz
x,y,z
-y,x,z
-x,-y,z
y,-x,z
-x,y,z
x,-y,z
-y,-x,z
y,x,z
loop_
_atom_site_type_symbol
_atom_site_label
_atom_site_fract_x
_atom_site_fract_y
_atom_site_fract_z
Si Si1 0.113089 0.730193 0.807360
Si Si2 0.223448 0.386186 0.561014
Si Si3 0.616340 0.778682 0.280920
Si Si4 0.232168 0.389061 0.421262
Si Si5 0.721584 0.884204 0.169281
Si Si6 0.775365 0.616634 0.057221
Si Si7 0.726560 0.113005 0.663556
Si Si8 0.615440 0.889297 0.930364
O O1 0.166157 0.833844 0.815106
O O2 0.132590 0.685398 0.736010
O O3 0.151600 0.656279 0.862436
O O4 0.000000 0.754055 0.817890
O O5 0.252515 0.500000 0.569841
O O6 0.321593 0.321593 0.571972
O O7 0.175678 0.366646 0.489033
O O8 0.141346 0.358754 0.613461
O O9 0.500000 0.760909 0.267190
O O10 0.675069 0.675069 0.271164
O O11 0.634783 0.823329 0.353607
O O12 0.660150 0.860806 0.233753
O O13 0.266210 0.500000 0.419827
O O14 0.334549 0.334549 0.422700
O O15 0.824626 0.824626 0.167674
O O16 0.652448 0.854068 0.109714
O O17 0.745451 0.000000 0.166291
O O18 0.758621 0.500000 0.063712
O O19 0.670705 0.670705 0.067699
O O20 0.817757 0.648016 0.987818
O O21 0.824626 0.175375 0.649497
O O22 0.755903 0.000000 0.653891
O O23 0.500000 0.890136 0.923221
O O24 0.654025 0.000000 0.944873
#
# Coordination Sequence:
#
# PCOD8306588 Si02
#       8
#     8   8   8   8   8   8   8   8
#     4   9  17  29  45  65  89 115 144 181 225 273
#     4   9  17  29  45  66  92 121 152 186 225 270
#     4   9  17  29  46  70  98 126 155 185 220 265
#     4   8  14  25  41  62  90 121 151 184 221 263
#     4  10  21  36  53  72  93 119 153 192 233 275
#     4  10  20  33  50  72  97 126 158 190 225 265
#     4   9  18  31  46  65  88 116 151 190 233 278
#     4   9  17  29  46  68  92 119 152 187 222 262
#
# _framework density 16.742609000000002
#
# number of rings (size 3 to 8) (size 9 to 14) (size 15 to 20)
#    0.000    2.875    0.000    1.125    0.000    3.125 
#    0.000    5.625    0.000    4.500    0.000    1.750 
#    0.000    8.000    0.000    0.000    0.000    0.000 
#
# Total GULP energy -792972.014506 kJ/mol
# GULP energy per Si atom -12390.187727 kJ/mol
# Density = 1.670450 g / cm^3
# Si number density = 16.742609 Si / 1000 Ang^3
#
#
#
# Elastic Constant Matrix: (Units=GPa)
#
#
# Indices 1 2 3 4 5 6 
#
# 1 74.5495 32.9389 50.8655 0.0000 0.0000 0.0001
# 2 32.9389 74.5495 50.8655 0.0000 0.0000 -0.0001
# 3 50.8655 50.8655 143.5487 0.0000 0.0000 0.0000
# 4 0.0000 0.0000 0.0000 23.4232 0.0000 0.0000
# 5 0.0000 0.0000 0.0000 0.0000 23.4232 0.0000
# 6 0.0001 -0.0001 0.0000 0.0000 0.0000 14.5119
#
#
#
# Elastic Compliance Matrix: (Units=1/GPa)
#
#
# Indices 1 2 3 4 5 6 
#
# 1 0.019015 -0.005017 -0.004960 0.000000 0.000000 0.000000
# 2 -0.005017 0.019015 -0.004960 0.000000 0.000000 0.000000
# 3 -0.004960 -0.004960 0.010481 0.000000 0.000000 0.000000
# 4 0.000000 0.000000 0.000000 0.042693 0.000000 0.000000
# 5 0.000000 0.000000 0.000000 0.000000 0.042693 0.000000
# 6 0.000000 0.000000 0.000000 0.000000 0.000000 0.068909
#
#
# Mechanical properties :
#
#
# Convention : Reuss Voigt Hill
#
# Bulk Modulus (GPa) = 53.65751 62.44308 58.05030
# Shear Modulus (GPa) = 20.92991 22.80350 21.86671
#
# Velocity S-wave (km/s) = 3.53951 3.69454 3.61785
# Velocity P-wave (km/s) = 6.98729 7.45495 7.22491
#
# Compressibility (1/GPa) = 0.01863672
#
# Stress axis : x y z
#
# Youngs Moduli (GPa) = 52.59014 52.59014 95.40763
#
# Poissons Ratio (x) = 0.26386 0.47322
# Poissons Ratio (y) = 0.26386 0.47322
# Poissons Ratio (z) = 0.26085 0.26085
#
# Static dielectric constant tensor:
#      x y z
#    x 2.965460 0.000000 0.000000 
#    y 0.000000 2.965460 0.000000 
#    z 0.000000 0.000000 3.695120 
# 
# 
# High freq. dielectric constant tensor:
#      x y z
#    x 1.625990 0.000000 0.000000 
#    y 0.000000 1.625990 0.000000 
#    z 0.000000 0.000000 1.670800 
# 
# From -- ./inp_files/2258.got.cif
#   From: 2010.03.12/outbox.cif.g09.slc.cpg/sg99_cif.got.tgz:2258.got - 2010.04.08 21:11:30.
