data_PCOD8306117
_publ_section_title
;
Structure prediction by ZEFSAII (Michael W. Deem and Ramdas Pophale) SiO2 
 PCOD8306117
Probable space group: I 4 2 2 
;
_chemical_formula_sum "Si O2"
_cell_formula_units_Z 96
_cell_length_a 17.426362
_cell_length_b 17.426362
_cell_length_c 16.477511
_cell_angle_alpha 90.000000
_cell_angle_beta 90.000000
_cell_angle_gamma 90.000000
_cell_volume 5003.859111
_symmetry_space_group_name_H-M "I 4 2 2 "
_symmetry_group_IT_number 97
_symmetry_cell_setting 'tetragonal'
loop_
_space_group_symop_operation_xyz
x,y,z
-y,x,z
-x,-y,z
y,-x,z
x,-y,-z
-x,y,-z
y,x,-z
-y,-x,-z
1/2+x,1/2+y,1/2+z
1/2-y,1/2+x,1/2+z
1/2-x,1/2-y,1/2+z
1/2+y,1/2-x,1/2+z
1/2+x,1/2-y,1/2-z
1/2-x,1/2+y,1/2-z
1/2+y,1/2+x,1/2-z
1/2-y,1/2-x,1/2-z
loop_
_atom_site_type_symbol
_atom_site_label
_atom_site_fract_x
_atom_site_fract_y
_atom_site_fract_z
Si Si1 0.027579 0.317590 0.686976
Si Si2 0.470915 0.082901 0.346691
Si Si3 0.788336 0.853336 0.378182
Si Si4 0.835616 0.717178 0.000543
Si Si5 0.855087 0.297714 0.667666
Si Si6 0.665969 0.000000 0.000000
Si Si7 0.589926 0.410075 0.000000
O O1 0.069623 0.381460 0.630470
O O2 0.021185 0.352675 0.777131
O O3 0.081024 0.242351 0.682387
O O4 0.945851 0.292561 0.651422
O O5 0.519165 0.111082 0.423889
O O6 0.500000 0.000000 0.316521
O O7 0.723219 0.830753 0.444191
O O8 0.813812 0.783969 0.320095
O O9 0.866926 0.878003 0.421373
O O10 0.838038 0.683385 0.090862
O O11 0.805461 0.805461 0.000000
O O12 0.925242 0.715978 0.973638
O O13 0.845716 0.345716 0.750000
O O14 0.607623 0.500000 0.000000
#
# Coordination Sequence:
#
# PCOD8306117 Si02
#       7
#    16  16  16  16  16   8   8
#     4  11  22  37  57  83 121 162 197 254 312 374
#     4  11  23  37  57  89 127 163 205 261 318 384
#     4  11  22  39  60  85 118 159 207 250 309 376
#     4  10  22  38  57  86 116 154 201 250 301 373
#     4  11  22  37  57  81 117 156 198 248 303 366
#     4  12  21  38  62  89 120 168 210 258 322 381
#     4  11  22  40  64  90 120 158 207 266 314 370
#
# _framework density 19.185193000000002
#
# number of rings (size 3 to 8) (size 9 to 14) (size 15 to 20)
#    0.000    1.083    4.167    5.250    2.333    0.000 
#    0.000    0.000    0.000    0.250    0.000    0.000 
#    0.000    5.667    0.000    0.000    0.000    0.167 
#
# Total GULP energy -594823.503412 kJ/mol
# GULP energy per Si atom -12392.156321 kJ/mol
# Density = 1.914153 g / cm^3
# Si number density = 19.185193 Si / 1000 Ang^3
#
#
#
# Elastic Constant Matrix: (Units=GPa)
#
#
# Indices 1 2 3 4 5 6 
#
# 1 110.6125 51.0205 26.5849 0.0000 0.0000 0.0000
# 2 51.0205 110.6143 26.5851 0.0000 0.0000 0.0000
# 3 26.5849 26.5851 76.8804 0.0000 0.0000 0.0000
# 4 0.0000 0.0000 0.0000 22.3073 0.0000 0.0000
# 5 0.0000 0.0000 0.0000 0.0000 22.3073 0.0000
# 6 0.0000 0.0000 0.0000 0.0000 0.0000 34.2134
#
#
#
# Elastic Compliance Matrix: (Units=1/GPa)
#
#
# Indices 1 2 3 4 5 6 
#
# 1 0.011881 -0.004900 -0.002414 0.000000 0.000000 0.000000
# 2 -0.004900 0.011881 -0.002414 0.000000 0.000000 0.000000
# 3 -0.002414 -0.002414 0.014677 0.000000 0.000000 0.000000
# 4 0.000000 0.000000 0.000000 0.044828 0.000000 0.000000
# 5 0.000000 0.000000 0.000000 0.000000 0.044828 0.000000
# 6 0.000000 0.000000 0.000000 0.000000 0.000000 0.029228
#
#
# Mechanical properties :
#
#
# Convention : Reuss Voigt Hill
#
# Bulk Modulus (GPa) = 52.67979 56.27649 54.47814
# Shear Modulus (GPa) = 27.30653 28.69336 27.99994
#
# Velocity S-wave (km/s) = 3.77677 3.87149 3.82443
# Velocity P-wave (km/s) = 6.82179 7.02720 6.92526
#
# Compressibility (1/GPa) = 0.01898261
#
# Stress axis : x y z
#
# Youngs Moduli (GPa) = 84.16929 84.17065 68.13513
#
# Poissons Ratio (x) = 0.41242 0.16448
# Poissons Ratio (y) = 0.41241 0.16448
# Poissons Ratio (z) = 0.20318 0.20319
#
# Static dielectric constant tensor:
#      x y z
#    x 3.663830 0.000000 0.000000 
#    y 0.000000 3.663800 0.000000 
#    z 0.000000 0.000000 3.291770 
# 
# 
# High freq. dielectric constant tensor:
#      x y z
#    x 1.744790 0.000000 0.000000 
#    y 0.000000 1.744790 0.000000 
#    z 0.000000 0.000000 1.737920 
# 
# From -- ./inp_files/5797.got.cif
#   From: 2010.03.12/outbox.cif.g09.slc.cpg/sg97_3_cif.got.tgz:5797.got - 2010.04.08 20:59:42.
