data_PCOD8306990
_publ_section_title
;
Structure prediction by ZEFSAII (Michael W. Deem and Ramdas Pophale) SiO2 
 PCOD8306990
Probable space group: P 4 C C
;
_chemical_formula_sum "Si O2"
_cell_formula_units_Z 48
_cell_length_a 11.583718
_cell_length_b 11.583718
_cell_length_c 17.480878
_cell_angle_alpha 90.000000
_cell_angle_beta 90.000000
_cell_angle_gamma 90.000000
_cell_volume 2345.628309
_symmetry_space_group_name_H-M "P 4 C C"
_symmetry_group_IT_number 103
_symmetry_cell_setting 'tetragonal'
loop_
_space_group_symop_operation_xyz
x,y,z
-y,x,z
-x,-y,z
y,-x,z
-x,y,1/2+z
x,-y,1/2+z
-y,-x,1/2+z
y,x,1/2+z
loop_
_atom_site_type_symbol
_atom_site_label
_atom_site_fract_x
_atom_site_fract_y
_atom_site_fract_z
Si Si1 0.309457 0.482177 0.822930
Si Si2 0.819704 0.936882 0.305356
Si Si3 0.499779 0.875116 0.194065
Si Si4 0.122858 0.696749 0.575635
Si Si5 0.893443 0.261871 0.133043
Si Si6 0.593333 0.101282 0.910632
O O1 0.396969 0.375346 0.825474
O O2 0.233583 0.476052 0.746847
O O3 0.221500 0.471428 0.893027
O O4 0.787814 0.904795 0.218505
O O5 0.708749 0.911483 0.358631
O O6 0.929903 0.854336 0.321572
O O7 0.381939 0.856998 0.149786
O O8 0.600262 0.883414 0.131830
O O9 0.500000 0.000000 0.239500
O O10 0.225378 0.787523 0.579846
O O11 0.115330 0.626890 0.498174
O O12 0.007497 0.772494 0.586463
O O13 0.500000 0.000000 0.898975
#
# Coordination Sequence:
#
# PCOD8306990 Si02
#       6
#     8   8   8   8   8   8
#     4  11  25  42  67  98 131 175 229 285 344 412
#     4  11  25  44  70 107 140 181 233 294 360 431
#     4  10  21  39  66  97 128 175 231 277 337 412
#     4  11  26  41  66  99 138 177 229 284 350 420
#     4  11  21  41  69  94 133 181 224 282 340 423
#     4  12  28  44  70 101 142 186 231 292 359 430
#
# _framework density 20.463598999999999
#
# number of rings (size 3 to 8) (size 9 to 14) (size 15 to 20)
#    0.000    1.000    3.333    3.000    7.000    1.667 
#    0.000    0.000    0.000    2.000    0.000    0.000 
#    0.000    0.000    0.000    0.000    0.000    0.000 
#
# Total GULP energy -594886.706865 kJ/mol
# GULP energy per Si atom -12393.473060 kJ/mol
# Density = 2.041702 g / cm^3
# Si number density = 20.463599 Si / 1000 Ang^3
#
#
#
# Elastic Constant Matrix: (Units=GPa)
#
#
# Indices 1 2 3 4 5 6 
#
# 1 126.8021 64.0052 31.0375 0.0000 0.0000 0.0000
# 2 64.0052 126.8021 31.0375 0.0000 0.0000 0.0000
# 3 31.0375 31.0375 94.0924 0.0000 0.0000 0.0000
# 4 0.0000 0.0000 0.0000 18.6078 0.0000 0.0000
# 5 0.0000 0.0000 0.0000 0.0000 18.6078 0.0000
# 6 0.0000 0.0000 0.0000 0.0000 0.0000 36.1999
#
#
#
# Elastic Compliance Matrix: (Units=1/GPa)
#
#
# Indices 1 2 3 4 5 6 
#
# 1 0.010898 -0.005027 -0.001937 0.000000 0.000000 0.000000
# 2 -0.005027 0.010898 -0.001937 0.000000 0.000000 0.000000
# 3 -0.001937 -0.001937 0.011905 0.000000 0.000000 0.000000
# 4 0.000000 0.000000 0.000000 0.053741 0.000000 0.000000
# 5 0.000000 0.000000 0.000000 0.000000 0.053741 0.000000
# 6 0.000000 0.000000 0.000000 0.000000 0.000000 0.027624
#
#
# Mechanical properties :
#
#
# Convention : Reuss Voigt Hill
#
# Bulk Modulus (GPa) = 62.88941 66.65080 64.77011
# Shear Modulus (GPa) = 26.05431 29.45753 27.75592
#
# Velocity S-wave (km/s) = 3.57207 3.79820 3.68687
# Velocity P-wave (km/s) = 6.91462 7.20252 7.06003
#
# Compressibility (1/GPa) = 0.01590093
#
# Stress axis : x y z
#
# Youngs Moduli (GPa) = 91.76297 91.76297 83.99501
#
# Poissons Ratio (x) = 0.46127 0.16266
# Poissons Ratio (y) = 0.46127 0.16266
# Poissons Ratio (z) = 0.17771 0.17771
#
# Static dielectric constant tensor:
#      x y z
#    x 4.062270 0.000000 0.000000 
#    y 0.000000 4.062270 0.000000 
#    z 0.000000 0.000000 3.529930 
# 
# 
# High freq. dielectric constant tensor:
#      x y z
#    x 1.816100 0.000000 0.000000 
#    y 0.000000 1.816100 0.000000 
#    z 0.000000 0.000000 1.785940 
# 
# From -- ./inp_files/1022.got.cif
#   From: 2010.03.12/outbox.cif.g09.slc.cpg/sg103_cif.got.tgz:1022.got - 2010.04.14 01:42:52.
