data_PCOD8306044
_publ_section_title
;
Structure prediction by ZEFSAII (Michael W. Deem and Ramdas Pophale) SiO2 
 PCOD8306044
Probable space group: I 4 2 2 
;
_chemical_formula_sum "Si O2"
_cell_formula_units_Z 112
_cell_length_a 16.584871
_cell_length_b 16.584871
_cell_length_c 21.835519
_cell_angle_alpha 90.000000
_cell_angle_beta 90.000000
_cell_angle_gamma 90.000000
_cell_volume 6006.033008
_symmetry_space_group_name_H-M "I 4 2 2 "
_symmetry_group_IT_number 97
_symmetry_cell_setting 'tetragonal'
loop_
_space_group_symop_operation_xyz
x,y,z
-y,x,z
-x,-y,z
y,-x,z
x,-y,-z
-x,y,-z
y,x,-z
-y,-x,-z
1/2+x,1/2+y,1/2+z
1/2-y,1/2+x,1/2+z
1/2-x,1/2-y,1/2+z
1/2+y,1/2-x,1/2+z
1/2+x,1/2-y,1/2-z
1/2-x,1/2+y,1/2-z
1/2+y,1/2+x,1/2-z
1/2-y,1/2-x,1/2-z
loop_
_atom_site_type_symbol
_atom_site_label
_atom_site_fract_x
_atom_site_fract_y
_atom_site_fract_z
Si Si1 0.191974 0.696977 0.470176
Si Si2 0.419940 0.786274 0.743848
Si Si3 0.448963 0.707699 0.559419
Si Si4 0.435952 0.812042 0.878222
Si Si5 0.948596 0.120118 0.180555
Si Si6 0.985983 0.364790 0.130802
Si Si7 0.616355 0.939799 0.550649
O O1 0.220158 0.779843 0.500000
O O2 0.270382 0.644113 0.453623
O O3 0.141828 0.727298 0.410765
O O4 0.140532 0.643520 0.516962
O O5 0.333993 0.833993 0.750000
O O6 0.454313 0.774856 0.812045
O O7 0.409674 0.697260 0.715187
O O8 0.484217 0.836597 0.702366
O O9 0.500000 0.680439 0.500000
O O10 0.446518 0.634256 0.607447
O O11 0.490309 0.786474 0.588113
O O12 0.417902 0.907203 0.878152
O O13 0.515784 0.804662 0.920344
O O14 0.042231 0.104809 0.198593
O O15 0.060150 0.419489 0.109239
O O16 0.575661 0.000000 0.500000
#
# Coordination Sequence:
#
# PCOD8306044 Si02
#       7
#    16  16  16  16  16  16  16
#     4  10  21  33  50  79 114 147 182 227 286 340
#     4   9  19  39  58  79 111 147 191 236 287 331
#     4  10  19  31  52  80 114 147 184 221 269 329
#     4   9  19  33  52  77 106 143 183 230 282 339
#     4  10  23  40  59  82 112 151 196 240 275 327
#     4   9  17  30  52  78 110 146 177 219 274 339
#     4  10  19  31  50  79 112 144 184 226 283 350
#
# _framework density 18.647915000000001
#
# number of rings (size 3 to 8) (size 9 to 14) (size 15 to 20)
#    0.000    2.429    1.429    1.286    2.000    3.429 
#    2.571    2.857    0.000    0.000    0.000    0.000 
#    0.000   14.000    0.000    0.000    0.000    0.000 
#
# Total GULP energy -693838.959539 kJ/mol
# GULP energy per Si atom -12389.981420 kJ/mol
# Density = 1.860547 g / cm^3
# Si number density = 18.647915 Si / 1000 Ang^3
#
#
#
# Elastic Constant Matrix: (Units=GPa)
#
#
# Indices 1 2 3 4 5 6 
#
# 1 66.0122 36.1514 36.5315 0.0000 0.0000 0.0000
# 2 36.1514 66.0108 36.5310 0.0000 0.0000 0.0000
# 3 36.5315 36.5310 137.3970 0.0000 0.0000 0.0000
# 4 0.0000 0.0000 0.0000 22.4939 0.0000 0.0000
# 5 0.0000 0.0000 0.0000 0.0000 22.4941 0.0000
# 6 0.0000 0.0000 0.0000 0.0000 0.0000 14.1030
#
#
#
# Elastic Compliance Matrix: (Units=1/GPa)
#
#
# Indices 1 2 3 4 5 6 
#
# 1 0.022788 -0.010702 -0.003214 0.000000 0.000000 0.000000
# 2 -0.010702 0.022788 -0.003214 0.000000 0.000000 0.000000
# 3 -0.003214 -0.003214 0.008987 0.000000 0.000000 0.000000
# 4 0.000000 0.000000 0.000000 0.044457 0.000000 0.000000
# 5 0.000000 0.000000 0.000000 0.000000 0.044456 0.000000
# 6 0.000000 0.000000 0.000000 0.000000 0.000000 0.070907
#
#
# Mechanical properties :
#
#
# Convention : Reuss Voigt Hill
#
# Bulk Modulus (GPa) = 49.24713 54.20529 51.72621
# Shear Modulus (GPa) = 19.57649 22.49861 21.03755
#
# Velocity S-wave (km/s) = 3.24357 3.47723 3.36243
# Velocity P-wave (km/s) = 6.36348 6.72699 6.54776
#
# Compressibility (1/GPa) = 0.02030575
#
# Stress axis : x y z
#
# Youngs Moduli (GPa) = 43.88322 43.88229 111.27152
#
# Poissons Ratio (x) = 0.46961 0.35758
# Poissons Ratio (y) = 0.46962 0.35758
# Poissons Ratio (z) = 0.14102 0.14102
#
# Static dielectric constant tensor:
#      x y z
#    x 3.210620 0.000000 0.000000 
#    y 0.000000 3.210620 0.000000 
#    z 0.000000 0.000000 3.680930 
# 
# 
# High freq. dielectric constant tensor:
#      x y z
#    x 1.698450 0.000000 0.000000 
#    y 0.000000 1.698450 0.000000 
#    z 0.000000 0.000000 1.730920 
# 
# From -- ./inp_files/6801.got.cif
#   From: 2010.03.12/outbox.cif.g09.slc.cpg/sg97_4_cif.got.tgz:6801.got - 2010.04.08 20:59:42.
