data_PCOD8306229
_publ_section_title
;
Structure prediction by ZEFSAII (Michael W. Deem and Ramdas Pophale) SiO2 
 PCOD8306229
Probable space group: I 41 2 2
;
_chemical_formula_sum "Si O2"
_cell_formula_units_Z 80
_cell_length_a 29.638374
_cell_length_b 29.638374
_cell_length_c 5.031927
_cell_angle_alpha 90.000000
_cell_angle_beta 90.000000
_cell_angle_gamma 90.000000
_cell_volume 4420.211804
_symmetry_space_group_name_H-M "I 41 2 2"
_symmetry_group_IT_number 98
_symmetry_cell_setting 'tetragonal'
loop_
_space_group_symop_operation_xyz
x,y,z
-y,1/2+x,1/4+z
-x,-y,z
y,1/2-x,1/4+z
x,1/2-y,1/4-z
-x,1/2+y,1/4-z
y,x,-z
-y,-x,-z
1/2+x,1/2+y,1/2+z
1/2-y,x,3/4+z
1/2-x,1/2-y,1/2+z
1/2+y,-x,3/4+z
1/2+x,-y,3/4-z
1/2-x,y,3/4-z
1/2+y,1/2+x,1/2-z
1/2-y,1/2-x,1/2-z
loop_
_atom_site_type_symbol
_atom_site_label
_atom_site_fract_x
_atom_site_fract_y
_atom_site_fract_z
Si Si1 0.915806 0.915806 0.000000
Si Si2 0.583834 0.780513 0.381619
Si Si3 0.871213 0.440204 0.694491
Si Si4 0.517333 0.220230 0.379364
Si Si5 0.912989 0.481381 0.202013
Si Si6 0.873057 0.873057 0.500000
O O1 0.904163 0.885334 0.748472
O O2 0.907605 0.968127 0.945918
O O3 0.601566 0.750000 0.625000
O O4 0.533010 0.799182 0.447990
O O5 0.618386 0.821559 0.336168
O O6 0.583759 0.750000 0.125000
O O7 0.888877 0.388877 0.750000
O O8 0.817515 0.446260 0.707369
O O9 0.881754 0.451262 0.389977
O O10 0.896851 0.474253 0.897900
O O11 0.535857 0.250000 0.625000
O O12 0.510665 0.250000 0.125000
O O13 0.964522 0.464522 0.250000
#
# Coordination Sequence:
#
# PCOD8306229 Si02
#       6
#     8  16  16  16  16   8
#     4  12  21  32  50  76 105 130 174 215 244 301
#     4  10  21  37  55  77 104 130 163 210 259 313
#     4  10  20  34  50  71 102 140 177 213 255 306
#     4  10  19  32  52  75 102 135 171 211 258 303
#     4  10  20  32  47  68 102 143 175 206 248 297
#     4  12  24  36  57  80  99 132 170 217 270 315
#
# _framework density 18.098678
#
# number of rings (size 3 to 8) (size 9 to 14) (size 15 to 20)
#    0.000    1.600    0.000    6.300    0.000    3.200 
#    0.000    4.000    0.000    1.200    0.000    0.000 
#    0.000    1.600    0.000    0.000    0.000    0.000 
#
# Total GULP energy -495832.064258 kJ/mol
# GULP energy per Si atom -12395.801606 kJ/mol
# Density = 1.805749 g / cm^3
# Si number density = 18.098678 Si / 1000 Ang^3
#
#
#
# Elastic Constant Matrix: (Units=GPa)
#
#
# Indices 1 2 3 4 5 6 
#
# 1 97.8475 63.0517 28.1922 0.0000 0.0000 0.0000
# 2 63.0517 97.8475 28.1922 0.0000 0.0000 0.0000
# 3 28.1922 28.1922 108.1508 0.0000 0.0000 0.0000
# 4 0.0000 0.0000 0.0000 25.7405 0.0000 0.0000
# 5 0.0000 0.0000 0.0000 0.0000 25.7405 0.0000
# 6 0.0000 0.0000 0.0000 0.0000 0.0000 35.8995
#
#
#
# Elastic Compliance Matrix: (Units=1/GPa)
#
#
# Indices 1 2 3 4 5 6 
#
# 1 0.017790 -0.010950 -0.001783 0.000000 0.000000 0.000000
# 2 -0.010950 0.017790 -0.001783 0.000000 0.000000 0.000000
# 3 -0.001783 -0.001783 0.010176 0.000000 0.000000 0.000000
# 4 0.000000 0.000000 0.000000 0.038849 0.000000 0.000000
# 5 0.000000 0.000000 0.000000 0.000000 0.038849 0.000000
# 6 0.000000 0.000000 0.000000 0.000000 0.000000 0.027856
#
#
# Mechanical properties :
#
#
# Convention : Reuss Voigt Hill
#
# Bulk Modulus (GPa) = 59.79523 60.30199 60.04861
# Shear Modulus (GPa) = 26.89401 29.77005 28.33203
#
# Velocity S-wave (km/s) = 3.85900 4.06011 3.96083
# Velocity P-wave (km/s) = 7.27778 7.44111 7.35989
#
# Compressibility (1/GPa) = 0.01672374
#
# Stress axis : x y z
#
# Youngs Moduli (GPa) = 56.21284 56.21284 98.27132
#
# Poissons Ratio (x) = 0.61551 0.17522
# Poissons Ratio (y) = 0.61551 0.17522
# Poissons Ratio (z) = 0.10023 0.10023
#
# Static dielectric constant tensor:
#      x y z
#    x 3.225590 0.000000 0.000000 
#    y 0.000000 3.225590 0.000000 
#    z 0.000000 0.000000 3.509570 
# 
# 
# High freq. dielectric constant tensor:
#      x y z
#    x 1.675150 0.000000 0.000000 
#    y 0.000000 1.675150 0.000000 
#    z 0.000000 0.000000 1.728570 
# 
# From -- ./inp_files/1783.got.cif
#   From: 2010.03.12/outbox.cif.g09.slc.cpg/sg98_1_cif.got.tgz:1783.got - 2010.04.08 21:04:41.
