data_PCOD8306855
_publ_section_title
;
Structure prediction by ZEFSAII (Michael W. Deem and Ramdas Pophale) SiO2 
 PCOD8306855
Probable space group: P 42 N M
;
_chemical_formula_sum "Si O2"
_cell_formula_units_Z 64
_cell_length_a 11.640625
_cell_length_b 11.640625
_cell_length_c 28.603166
_cell_angle_alpha 90.000000
_cell_angle_beta 90.000000
_cell_angle_gamma 90.000000
_cell_volume 3875.847707
_symmetry_space_group_name_H-M "P 42 N M"
_symmetry_group_IT_number 102
_symmetry_cell_setting 'tetragonal'
loop_
_space_group_symop_operation_xyz
x,y,z
1/2-y,1/2+x,1/2+z
-x,-y,z
1/2+y,1/2-x,1/2+z
1/2-x,1/2+y,1/2+z
1/2+x,1/2-y,1/2+z
-y,-x,z
y,x,z
loop_
_atom_site_type_symbol
_atom_site_label
_atom_site_fract_x
_atom_site_fract_y
_atom_site_fract_z
Si Si1 0.470795 0.874074 0.987470
Si Si2 0.658443 0.159874 0.563003
Si Si3 0.273076 0.907923 0.053197
Si Si4 0.761298 0.424235 0.710940
Si Si5 0.685016 0.506386 0.805586
Si Si6 0.236770 0.417238 0.162804
Si Si7 0.499388 0.688942 0.908403
Si Si8 0.850585 0.331959 0.154728
O O1 0.494904 0.789404 0.945529
O O2 0.500000 0.000000 0.968236
O O3 0.547021 0.844208 0.032176
O O4 0.340823 0.868140 0.006636
O O5 0.765196 0.234805 0.545859
O O6 0.544805 0.236677 0.556170
O O7 0.670015 0.124278 0.616722
O O8 0.145432 0.854569 0.050844
O O9 0.340104 0.862121 0.098893
O O10 0.633261 0.366740 0.700509
O O11 0.770080 0.470377 0.764038
O O12 0.854569 0.323728 0.706445
O O13 0.801703 0.526026 0.676711
O O14 0.581822 0.418179 0.810571
O O15 0.631549 0.631549 0.793799
O O16 0.745948 0.508383 0.856521
O O17 0.371090 0.371090 0.160750
O O18 0.216184 0.552226 0.170739
O O19 0.384372 0.615629 0.914114
O O20 0.610319 0.610319 0.917874
O O21 0.771235 0.228766 0.171446
#
# Coordination Sequence:
#
# PCOD8306855 Si02
#       8
#     8   8   8   8   8   8   8   8
#     4  10  19  31  48  67  96 131 158 198 237 284
#     4  10  19  32  48  65  90 125 162 201 241 281
#     4  10  20  31  45  66  93 124 159 199 241 283
#     4  10  19  31  52  76  98 127 161 201 248 299
#     4   8  15  29  48  73 103 127 151 195 252 298
#     4  10  20  34  49  66  93 130 169 204 240 286
#     4   9  17  31  52  74  97 124 157 201 247 292
#     4  11  21  32  48  68  96 131 164 203 244 286
#
# _framework density 16.512518
#
# number of rings (size 3 to 8) (size 9 to 14) (size 15 to 20)
#    0.000    2.250    2.500    2.250    0.000    1.250 
#    0.000    2.500    0.000    0.000    0.000    0.000 
#    0.000    0.000    0.000   14.625    0.000    0.125 
#
# Total GULP energy -793003.263370 kJ/mol
# GULP energy per Si atom -12390.675990 kJ/mol
# Density = 1.647493 g / cm^3
# Si number density = 16.512518 Si / 1000 Ang^3
#
#
#
# Elastic Constant Matrix: (Units=GPa)
#
#
# Indices 1 2 3 4 5 6 
#
# 1 58.1952 16.6040 17.1630 0.0000 0.0000 -0.0005
# 2 16.6040 58.1952 17.1630 0.0000 0.0000 0.0005
# 3 17.1630 17.1630 82.2921 0.0000 0.0000 0.0000
# 4 0.0000 0.0000 0.0000 21.1982 0.0000 0.0000
# 5 0.0000 0.0000 0.0000 0.0000 21.1982 0.0000
# 6 -0.0005 0.0005 0.0000 0.0000 0.0000 19.7144
#
#
#
# Elastic Compliance Matrix: (Units=1/GPa)
#
#
# Indices 1 2 3 4 5 6 
#
# 1 0.019414 -0.004630 -0.003083 0.000000 0.000000 0.000001
# 2 -0.004630 0.019414 -0.003083 0.000000 0.000000 -0.000001
# 3 -0.003083 -0.003083 0.013438 0.000000 0.000000 0.000000
# 4 0.000000 0.000000 0.000000 0.047174 0.000000 0.000000
# 5 0.000000 0.000000 0.000000 0.000000 0.047174 0.000000
# 6 0.000001 -0.000001 0.000000 0.000000 0.000000 0.050724
#
#
# Mechanical properties :
#
#
# Convention : Reuss Voigt Hill
#
# Bulk Modulus (GPa) = 32.60234 33.39359 32.99797
# Shear Modulus (GPa) = 21.81929 22.27232 22.04581
#
# Velocity S-wave (km/s) = 3.63902 3.67661 3.65786
# Velocity P-wave (km/s) = 6.11911 6.18792 6.15361
#
# Compressibility (1/GPa) = 0.03067265
#
# Stress axis : x y z
#
# Youngs Moduli (GPa) = 51.50960 51.50960 74.41594
#
# Poissons Ratio (x) = 0.23848 0.22945
# Poissons Ratio (y) = 0.23848 0.22945
# Poissons Ratio (z) = 0.15882 0.15882
#
# Static dielectric constant tensor:
#      x y z
#    x 3.062510 0.000000 0.000000 
#    y 0.000000 3.062510 0.000000 
#    z 0.000000 0.000000 3.134530 
# 
# 
# High freq. dielectric constant tensor:
#      x y z
#    x 1.625510 0.000000 0.000000 
#    y 0.000000 1.625510 0.000000 
#    z 0.000000 0.000000 1.623600 
# 
# From -- ./inp_files/3542.got.cif
#   From: 2010.03.12/outbox.cif.g09.slc.cpg/sg102_2_cif.got.tgz:3542.got - 2010.04.14 01:40:42.
