data_PCOD8306327
_publ_section_title
;
Structure prediction by ZEFSAII (Michael W. Deem and Ramdas Pophale) SiO2 
 PCOD8306327
Probable space group: I 41 2 2
;
_chemical_formula_sum "Si O2"
_cell_formula_units_Z 88
_cell_length_a 11.932856
_cell_length_b 11.932856
_cell_length_c 26.047114
_cell_angle_alpha 90.000000
_cell_angle_beta 90.000000
_cell_angle_gamma 90.000000
_cell_volume 3708.928067
_symmetry_space_group_name_H-M "I 41 2 2"
_symmetry_group_IT_number 98
_symmetry_cell_setting 'tetragonal'
loop_
_space_group_symop_operation_xyz
x,y,z
-y,1/2+x,1/4+z
-x,-y,z
y,1/2-x,1/4+z
x,1/2-y,1/4-z
-x,1/2+y,1/4-z
y,x,-z
-y,-x,-z
1/2+x,1/2+y,1/2+z
1/2-y,x,3/4+z
1/2-x,1/2-y,1/2+z
1/2+y,-x,3/4+z
1/2+x,-y,3/4-z
1/2-x,y,3/4-z
1/2+y,1/2+x,1/2-z
1/2-y,1/2-x,1/2-z
loop_
_atom_site_type_symbol
_atom_site_label
_atom_site_fract_x
_atom_site_fract_y
_atom_site_fract_z
Si Si1 0.706975 0.400622 0.616627
Si Si2 0.587110 0.250000 0.125000
Si Si3 0.364266 0.181011 0.895311
Si Si4 0.206891 0.393131 0.798400
Si Si5 0.889294 0.561171 0.497514
Si Si6 0.140396 0.767537 0.210512
O O1 0.833724 0.353966 0.607536
O O2 0.695039 0.532928 0.605221
O O3 0.674121 0.375202 0.676213
O O4 0.622374 0.338171 0.577719
O O5 0.514890 0.290741 0.075471
O O6 0.250000 0.122169 0.875000
O O7 0.333450 0.307290 0.909276
O O8 0.412627 0.105828 0.940580
O O9 0.120026 0.379975 0.750000
O O10 0.333082 0.356877 0.782555
O O11 0.788218 0.471308 0.494363
O O12 0.000000 0.500000 0.518975
O O13 0.241050 0.741050 0.250000
#
# Coordination Sequence:
#
# PCOD8306327 Si02
#       6
#    16   8  16  16  16  16
#     4  10  25  43  68 103 136 184 240 296 343 424
#     4  10  22  44  70 100 140 182 240 290 352 430
#     4  11  24  42  67  96 142 176 230 286 355 427
#     4  10  24  43  65 104 135 182 227 284 361 429
#     4  11  24  41  70  96 138 186 228 291 359 413
#     4  10  23  42  70 103 132 176 243 286 347 413
#
# _framework density 23.726531000000001
#
# number of rings (size 3 to 8) (size 9 to 14) (size 15 to 20)
#    0.000    1.818    2.727    0.000   10.182    0.727 
#    0.000    2.727    0.000    0.000    0.000    0.000 
#    0.000    0.000    0.000    0.000    0.000    0.000 
#
# Total GULP energy -545245.399387 kJ/mol
# GULP energy per Si atom -12391.940895 kJ/mol
# Density = 2.367253 g / cm^3
# Si number density = 23.726531 Si / 1000 Ang^3
#
#
#
# Elastic Constant Matrix: (Units=GPa)
#
#
# Indices 1 2 3 4 5 6 
#
# 1 142.9230 39.6588 23.2069 0.0000 0.0000 0.0000
# 2 39.6588 142.9228 23.2071 0.0000 0.0000 0.0000
# 3 23.2069 23.2071 58.0623 0.0000 0.0000 0.0000
# 4 0.0000 0.0000 0.0000 27.5203 0.0000 0.0000
# 5 0.0000 0.0000 0.0000 0.0000 27.5206 0.0000
# 6 0.0000 0.0000 0.0000 0.0000 0.0000 30.7653
#
#
#
# Elastic Compliance Matrix: (Units=1/GPa)
#
#
# Indices 1 2 3 4 5 6 
#
# 1 0.007890 -0.001794 -0.002437 0.000000 0.000000 0.000000
# 2 -0.001794 0.007890 -0.002437 0.000000 0.000000 0.000000
# 3 -0.002437 -0.002437 0.019171 0.000000 0.000000 0.000000
# 4 0.000000 0.000000 0.000000 0.036337 0.000000 0.000000
# 5 0.000000 0.000000 0.000000 0.000000 0.036336 0.000000
# 6 0.000000 0.000000 0.000000 0.000000 0.000000 0.032504
#
#
# Mechanical properties :
#
#
# Convention : Reuss Voigt Hill
#
# Bulk Modulus (GPa) = 46.26026 57.33928 51.79977
# Shear Modulus (GPa) = 31.12000 34.35024 32.73512
#
# Velocity S-wave (km/s) = 3.62555 3.80907 3.71844
# Velocity P-wave (km/s) = 6.08816 6.60034 6.34942
#
# Compressibility (1/GPa) = 0.02161683
#
# Stress axis : x y z
#
# Youngs Moduli (GPa) = 126.74014 126.73983 52.16287
#
# Poissons Ratio (x) = 0.22734 0.12710
# Poissons Ratio (y) = 0.22734 0.12711
# Poissons Ratio (z) = 0.30882 0.30883
#
# Static dielectric constant tensor:
#      x y z
#    x 4.252710 0.000000 0.000000 
#    y 0.000000 4.252710 0.000000 
#    z 0.000000 0.000000 4.385070 
# 
# 
# High freq. dielectric constant tensor:
#      x y z
#    x 1.931320 0.000000 0.000000 
#    y 0.000000 1.931320 0.000000 
#    z 0.000000 0.000000 1.938630 
# 
# From -- ./inp_files/11945.got.cif
#   From: 2010.03.12/outbox.cif.g09.slc.cpg/sg98_6_cif.got.tgz:11945.got - 2010.04.08 21:04:41.
