data_PCOD8306973
_publ_section_title
;
Structure prediction by ZEFSAII (Michael W. Deem and Ramdas Pophale) SiO2 
 PCOD8306973
Probable space group: P 4 C C
;
_chemical_formula_sum "Si O2"
_cell_formula_units_Z 60
_cell_length_a 11.749165
_cell_length_b 11.749165
_cell_length_c 23.990505
_cell_angle_alpha 90.000000
_cell_angle_beta 90.000000
_cell_angle_gamma 90.000000
_cell_volume 3311.718360
_symmetry_space_group_name_H-M "P 4 C C"
_symmetry_group_IT_number 103
_symmetry_cell_setting 'tetragonal'
loop_
_space_group_symop_operation_xyz
x,y,z
-y,x,z
-x,-y,z
y,-x,z
-x,y,1/2+z
x,-y,1/2+z
-y,-x,1/2+z
y,x,1/2+z
loop_
_atom_site_type_symbol
_atom_site_label
_atom_site_fract_x
_atom_site_fract_y
_atom_site_fract_z
Si Si1 0.855146 0.879545 0.209150
Si Si2 0.169017 0.928390 0.523169
Si Si3 0.548742 0.326955 0.651977
Si Si4 0.675817 0.882266 0.120431
Si Si5 0.104029 0.152710 0.394318
Si Si6 0.000000 0.500000 0.690436
Si Si7 0.492777 0.221584 0.264579
Si Si8 0.741004 0.742008 0.307114
O O1 0.786277 0.838473 0.154750
O O2 0.798511 0.823126 0.262087
O O3 0.984792 0.841661 0.208901
O O4 0.283397 0.901804 0.557418
O O5 0.188157 0.898444 0.458823
O O6 0.059031 0.854884 0.539351
O O7 0.638861 0.422330 0.634237
O O8 0.579883 0.214634 0.617996
O O9 0.552779 0.311775 0.718948
O O10 0.613006 0.988342 0.151300
O O11 0.185617 0.242699 0.363548
O O12 0.971019 0.154669 0.377845
O O13 0.105668 0.516149 0.731441
O O14 0.391134 0.216221 0.310847
O O15 0.608339 0.257764 0.294274
#
# Coordination Sequence:
#
# PCOD8306973 Si02
#       8
#     8   8   8   8   8   4   8   8
#     4  11  21  32  49  81 116 148 183 225 289 361
#     4   9  19  37  61  84 110 148 194 243 292 359
#     4  10  19  35  53  75 107 152 197 225 266 338
#     4  11  20  34  55  82 117 153 184 241 292 353
#     4   9  20  39  62  85 111 149 198 246 300 357
#     4  10  22  36  48  88 130 150 178 236 304 356
#     4  11  22  35  54  82 118 156 193 230 286 355
#     4  12  22  36  57  82 113 159 192 244 286 350
#
# _framework density 18.117481999999999
#
# number of rings (size 3 to 8) (size 9 to 14) (size 15 to 20)
#    0.000    1.600    4.000    3.200    1.867    5.600 
#    0.000    0.000    8.800    0.000    0.000    0.000 
#    0.000    0.000    0.000    0.000    0.000    0.000 
#
# Total GULP energy -743540.488839 kJ/mol
# GULP energy per Si atom -12392.341481 kJ/mol
# Density = 1.807625 g / cm^3
# Si number density = 18.117482 Si / 1000 Ang^3
#
#
#
# Elastic Constant Matrix: (Units=GPa)
#
#
# Indices 1 2 3 4 5 6 
#
# 1 103.0261 45.6701 42.5200 0.0000 0.0000 0.0000
# 2 45.6701 103.0261 42.5200 0.0000 0.0000 0.0000
# 3 42.5200 42.5200 72.0749 0.0000 0.0000 0.0000
# 4 0.0000 0.0000 0.0000 30.1811 0.0000 0.0000
# 5 0.0000 0.0000 0.0000 0.0000 30.1811 0.0000
# 6 0.0000 0.0000 0.0000 0.0000 0.0000 13.7031
#
#
#
# Elastic Compliance Matrix: (Units=1/GPa)
#
#
# Indices 1 2 3 4 5 6 
#
# 1 0.013792 -0.003643 -0.005988 0.000000 0.000000 0.000000
# 2 -0.003643 0.013792 -0.005988 0.000000 0.000000 0.000000
# 3 -0.005988 -0.005988 0.020939 0.000000 0.000000 0.000000
# 4 0.000000 0.000000 0.000000 0.033133 0.000000 0.000000
# 5 0.000000 0.000000 0.000000 0.000000 0.033133 0.000000
# 6 0.000000 0.000000 0.000000 0.000000 0.000000 0.072976
#
#
# Mechanical properties :
#
#
# Convention : Reuss Voigt Hill
#
# Bulk Modulus (GPa) = 57.84467 59.94966 58.89717
# Shear Modulus (GPa) = 22.24547 24.64087 23.44317
#
# Velocity S-wave (km/s) = 3.50786 3.69190 3.60106
# Velocity P-wave (km/s) = 6.95727 7.16483 7.06181
#
# Compressibility (1/GPa) = 0.01728768
#
# Stress axis : x y z
#
# Youngs Moduli (GPa) = 72.50471 72.50471 47.75753
#
# Poissons Ratio (x) = 0.26412 0.28595
# Poissons Ratio (y) = 0.26412 0.28595
# Poissons Ratio (z) = 0.43413 0.43413
#
# Static dielectric constant tensor:
#      x y z
#    x 3.465970 0.000000 0.000000 
#    y 0.000000 3.465970 0.000000 
#    z 0.000000 0.000000 3.169060 
# 
# 
# High freq. dielectric constant tensor:
#      x y z
#    x 1.706290 0.000000 0.000000 
#    y 0.000000 1.706290 0.000000 
#    z 0.000000 0.000000 1.665270 
# 
# From -- ./inp_files/1332.got.cif
#   From: 2010.03.12/outbox.cif.g09.slc.cpg/sg103_cif.got.tgz:1332.got - 2010.04.14 01:42:52.
