data_PCOD8306126
_publ_section_title
;
Structure prediction by ZEFSAII (Michael W. Deem and Ramdas Pophale) SiO2 
 PCOD8306126
Probable space group: I 4 2 2 
;
_chemical_formula_sum "Si O2"
_cell_formula_units_Z 116
_cell_length_a 17.687838
_cell_length_b 17.687838
_cell_length_c 17.765684
_cell_angle_alpha 90.000000
_cell_angle_beta 90.000000
_cell_angle_gamma 90.000000
_cell_volume 5558.165023
_symmetry_space_group_name_H-M "I 4 2 2 "
_symmetry_group_IT_number 97
_symmetry_cell_setting 'tetragonal'
loop_
_space_group_symop_operation_xyz
x,y,z
-y,x,z
-x,-y,z
y,-x,z
x,-y,-z
-x,y,-z
y,x,-z
-y,-x,-z
1/2+x,1/2+y,1/2+z
1/2-y,1/2+x,1/2+z
1/2-x,1/2-y,1/2+z
1/2+y,1/2-x,1/2+z
1/2+x,1/2-y,1/2-z
1/2-x,1/2+y,1/2-z
1/2+y,1/2+x,1/2-z
1/2-y,1/2-x,1/2-z
loop_
_atom_site_type_symbol
_atom_site_label
_atom_site_fract_x
_atom_site_fract_y
_atom_site_fract_z
Si Si1 0.216513 0.095865 0.811979
Si Si2 0.784982 0.281743 0.575213
Si Si3 0.000000 0.500000 0.500000
Si Si4 0.055109 0.644848 0.561264
Si Si5 0.995978 0.268018 0.311175
Si Si6 0.876286 0.006979 0.082117
Si Si7 0.122976 0.994182 0.413240
Si Si8 0.780747 0.829541 0.292565
O O1 0.247483 0.151936 0.875516
O O2 0.182186 0.021194 0.851673
O O3 0.160777 0.141702 0.755423
O O4 0.277259 0.052649 0.759892
O O5 0.736089 0.263912 0.500000
O O6 0.865000 0.314796 0.550045
O O7 0.795633 0.204376 0.623469
O O8 0.056142 0.553570 0.549328
O O9 0.000000 0.683380 0.500000
O O10 0.016932 0.657693 0.642157
O O11 0.015331 0.194058 0.359714
O O12 0.907342 0.265657 0.292145
O O13 0.930222 0.078972 0.091381
O O14 0.837044 0.000000 0.000000
O O15 0.077936 0.070902 0.395038
O O16 0.148016 0.000000 0.500000
O O17 0.732495 0.767505 0.250000
#
# Coordination Sequence:
#
# PCOD8306126 Si02
#       8
#    16  16   4  16  16  16  16  16
#     4  11  23  40  64  96 137 180 229 274 347 418
#     4  11  24  44  70  99 134 177 227 294 356 425
#     4   8  24  48  64  98 132 170 246 290 348 428
#     4  10  22  45  70  98 131 176 229 294 356 415
#     4  12  21  38  66  96 130 181 226 275 352 410
#     4   9  19  36  58  88 132 177 222 271 318 387
#     4   9  19  33  52  92 142 179 215 257 312 403
#     4  10  23  43  63  96 141 170 226 289 347 422
#
# _framework density 20.870197999999998
#
# number of rings (size 3 to 8) (size 9 to 14) (size 15 to 20)
#    0.414    1.379    1.379    3.724    1.931    0.000 
#    3.724    1.379    0.000    0.000    0.000    0.000 
#    0.000    0.000    0.000    0.000    0.000    0.000 
#
# Total GULP energy -718556.067441 kJ/mol
# GULP energy per Si atom -12388.897715 kJ/mol
# Density = 2.082270 g / cm^3
# Si number density = 20.870198 Si / 1000 Ang^3
#
#
#
# Elastic Constant Matrix: (Units=GPa)
#
#
# Indices 1 2 3 4 5 6 
#
# 1 91.6451 16.2361 45.3328 0.0000 0.0000 0.0000
# 2 16.2361 91.6475 45.3335 0.0000 0.0000 0.0000
# 3 45.3328 45.3335 135.9888 0.0000 0.0000 0.0000
# 4 0.0000 0.0000 0.0000 33.0386 0.0000 0.0000
# 5 0.0000 0.0000 0.0000 0.0000 33.0376 0.0000
# 6 0.0000 0.0000 0.0000 0.0000 0.0000 19.8953
#
#
#
# Elastic Compliance Matrix: (Units=1/GPa)
#
#
# Indices 1 2 3 4 5 6 
#
# 1 0.013069 -0.000192 -0.004293 0.000000 0.000000 0.000000
# 2 -0.000192 0.013069 -0.004293 0.000000 0.000000 0.000000
# 3 -0.004293 -0.004293 0.010216 0.000000 0.000000 0.000000
# 4 0.000000 0.000000 0.000000 0.030268 0.000000 0.000000
# 5 0.000000 0.000000 0.000000 0.000000 0.030269 0.000000
# 6 0.000000 0.000000 0.000000 0.000000 0.000000 0.050263
#
#
# Mechanical properties :
#
#
# Convention : Reuss Voigt Hill
#
# Bulk Modulus (GPa) = 53.19472 59.23181 56.21327
# Shear Modulus (GPa) = 29.24432 31.35291 30.29861
#
# Velocity S-wave (km/s) = 3.74739 3.88013 3.81434
# Velocity P-wave (km/s) = 6.65339 6.96538 6.81117
#
# Compressibility (1/GPa) = 0.01879886
#
# Stress axis : x y z
#
# Youngs Moduli (GPa) = 76.51667 76.51853 97.89003
#
# Poissons Ratio (x) = 0.01468 0.42021
# Poissons Ratio (y) = 0.01468 0.42021
# Poissons Ratio (z) = 0.32846 0.32847
#
# Static dielectric constant tensor:
#      x y z
#    x 3.683610 0.000000 0.000000 
#    y 0.000000 3.683600 0.000000 
#    z 0.000000 0.000000 4.024970 
# 
# 
# High freq. dielectric constant tensor:
#      x y z
#    x 1.804840 0.000000 0.000000 
#    y 0.000000 1.804840 0.000000 
#    z 0.000000 0.000000 1.828980 
# 
# From -- ./inp_files/5907.got.cif
#   From: 2010.03.12/outbox.cif.g09.slc.cpg/sg97_3_cif.got.tgz:5907.got - 2010.04.08 20:59:42.
