data_PCOD8306733
_publ_section_title
;
Structure prediction by ZEFSAII (Michael W. Deem and Ramdas Pophale) SiO2 
 PCOD8306733
Probable space group: P 42 C M
;
_chemical_formula_sum "Si O2"
_cell_formula_units_Z 56
_cell_length_a 11.584782
_cell_length_b 11.584782
_cell_length_c 23.274557
_cell_angle_alpha 90.000000
_cell_angle_beta 90.000000
_cell_angle_gamma 90.000000
_cell_volume 3123.612521
_symmetry_space_group_name_H-M "P 42 C M"
_symmetry_group_IT_number 101
_symmetry_cell_setting 'tetragonal'
loop_
_space_group_symop_operation_xyz
x,y,z
-y,x,1/2+z
-x,-y,z
y,-x,1/2+z
-x,y,1/2+z
x,-y,1/2+z
-y,-x,z
y,x,z
loop_
_atom_site_type_symbol
_atom_site_label
_atom_site_fract_x
_atom_site_fract_y
_atom_site_fract_z
Si Si1 0.900589 0.280789 0.576860
Si Si2 0.503393 0.314019 0.386396
Si Si3 0.659332 0.843256 0.574717
Si Si4 0.126354 0.462786 0.291296
Si Si5 0.549692 0.268273 0.513174
Si Si6 0.345528 0.162055 0.700674
Si Si7 0.920418 0.739086 0.208366
O O1 0.850444 0.149557 0.566743
O O2 0.824672 0.366789 0.540171
O O3 0.890146 0.309857 0.644780
O O4 0.029371 0.304721 0.552158
O O5 0.608156 0.391845 0.360532
O O6 0.394539 0.394539 0.401012
O O7 0.462804 0.214950 0.343446
O O8 0.546133 0.253517 0.444665
O O9 0.781541 0.781541 0.582164
O O10 0.578179 0.762332 0.535592
O O11 0.600212 0.854785 0.637258
O O12 0.168101 0.551266 0.244090
O O13 0.129040 0.340211 0.259420
O O14 0.000000 0.500000 0.314175
O O15 0.602115 0.397886 0.527545
O O16 0.282787 0.282787 0.706579
O O17 0.255619 0.058553 0.714318
O O18 0.866258 0.866258 0.216633
#
# Coordination Sequence:
#
# PCOD8306733 Si02
#       7
#     8   8   8   8   8   8   8
#     4   9  18  32  51  74  99 129 162 197 238 284
#     4  10  21  36  52  69  92 123 159 200 241 282
#     4  10  19  31  50  74 101 131 159 195 240 285
#     4  10  19  31  49  72  96 123 156 194 236 281
#     4  10  20  34  51  70  94 126 164 202 242 290
#     4   9  18  31  47  70  99 128 157 189 230 281
#     4   9  17  30  49  72  97 125 157 193 232 277
#
# _framework density 17.927959000000001
#
# number of rings (size 3 to 8) (size 9 to 14) (size 15 to 20)
#    0.000    2.429    0.000    2.571    0.000    4.857 
#    0.000    3.571    0.000    1.714    0.000    0.000 
#    0.000    6.857    0.000    0.000    0.000    0.000 
#
# Total GULP energy -693794.849822 kJ/mol
# GULP energy per Si atom -12389.193747 kJ/mol
# Density = 1.788715 g / cm^3
# Si number density = 17.927959 Si / 1000 Ang^3
#
#
#
# Elastic Constant Matrix: (Units=GPa)
#
#
# Indices 1 2 3 4 5 6 
#
# 1 44.4370 27.2890 18.7333 0.0000 0.0000 0.0001
# 2 27.2890 44.4370 18.7333 0.0000 0.0000 -0.0001
# 3 18.7333 18.7333 66.9377 0.0000 0.0000 0.0000
# 4 0.0000 0.0000 0.0000 29.8439 0.0000 0.0000
# 5 0.0000 0.0000 0.0000 0.0000 29.8439 0.0000
# 6 0.0001 -0.0001 0.0000 0.0000 0.0000 28.9212
#
#
#
# Elastic Compliance Matrix: (Units=1/GPa)
#
#
# Indices 1 2 3 4 5 6 
#
# 1 0.037322 -0.020993 -0.004570 0.000000 0.000000 0.000000
# 2 -0.020993 0.037322 -0.004570 0.000000 0.000000 0.000000
# 3 -0.004570 -0.004570 0.017497 0.000000 0.000000 0.000000
# 4 0.000000 0.000000 0.000000 0.033508 0.000000 0.000000
# 5 0.000000 0.000000 0.000000 0.000000 0.033508 0.000000
# 6 0.000000 0.000000 0.000000 0.000000 0.000000 0.034577
#
#
# Mechanical properties :
#
#
# Convention : Reuss Voigt Hill
#
# Bulk Modulus (GPa) = 31.37180 31.70251 31.53716
# Shear Modulus (GPa) = 18.89463 23.79220 21.34341
#
# Velocity S-wave (km/s) = 3.24993 3.64689 3.45412
# Velocity P-wave (km/s) = 5.62313 5.95439 5.79113
#
# Compressibility (1/GPa) = 0.03187576
#
# Stress axis : x y z
#
# Youngs Moduli (GPa) = 26.79357 26.79357 57.15225
#
# Poissons Ratio (x) = 0.56249 0.26118
# Poissons Ratio (y) = 0.56249 0.26118
# Poissons Ratio (z) = 0.12244 0.12244
#
# Static dielectric constant tensor:
#      x y z
#    x 3.360210 0.000000 0.000000 
#    y 0.000000 3.360210 0.000000 
#    z 0.000000 0.000000 3.204280 
# 
# 
# High freq. dielectric constant tensor:
#      x y z
#    x 1.694130 0.000000 0.000000 
#    y 0.000000 1.694130 0.000000 
#    z 0.000000 0.000000 1.678200 
# 
# From -- ./inp_files/2504.got.cif
#   From: 2010.03.12/outbox.cif.g09.slc.cpg/sg101_2_cif.got.tgz:2504.got - 2010.04.14 01:38:52.
