data_PCOD8306676
_publ_section_title
;
Structure prediction by ZEFSAII (Michael W. Deem and Ramdas Pophale) SiO2 
 PCOD8306676
Probable space group: P 4 B M
;
_chemical_formula_sum "Si O2"
_cell_formula_units_Z 56
_cell_length_a 15.043773
_cell_length_b 15.043773
_cell_length_c 12.066242
_cell_angle_alpha 90.000000
_cell_angle_beta 90.000000
_cell_angle_gamma 90.000000
_cell_volume 2730.772838
_symmetry_space_group_name_H-M "P 4 B M"
_symmetry_group_IT_number 100
_symmetry_cell_setting 'tetragonal'
loop_
_space_group_symop_operation_xyz
x,y,z
-y,x,z
-x,-y,z
y,-x,z
1/2-x,1/2+y,z
1/2+x,1/2-y,z
1/2-y,1/2-x,z
1/2+y,1/2+x,z
loop_
_atom_site_type_symbol
_atom_site_label
_atom_site_fract_x
_atom_site_fract_y
_atom_site_fract_z
Si Si1 0.747743 0.394676 0.785400
Si Si2 0.495529 0.856058 0.950227
Si Si3 0.252257 0.605324 0.360041
Si Si4 0.606937 0.401600 0.947982
Si Si5 0.504472 0.143943 0.195215
Si Si6 0.859046 0.953069 0.572721
Si Si7 0.401600 0.393063 0.197461
O O1 0.821000 0.321000 0.753658
O O2 0.788176 0.477565 0.854110
O O3 0.671946 0.349636 0.863600
O O4 0.702840 0.434583 0.677262
O O5 0.568845 0.931156 0.957957
O O6 0.400532 0.900532 0.920477
O O7 0.489506 0.809454 0.072721
O O8 0.178998 0.678998 0.391781
O O9 0.211827 0.522432 0.291331
O O10 0.297159 0.565418 0.468181
O O11 0.328054 0.650363 0.281842
O O12 0.622554 0.505864 0.924524
O O13 0.633922 0.376627 0.072721
O O14 0.431153 0.068848 0.187491
O O15 0.599467 0.099467 0.224963
O O16 0.944448 0.888977 0.572720
O O17 0.505864 0.377447 0.220918
#
# Coordination Sequence:
#
# PCOD8306676 Si02
#       7
#     8   8   8   8   8   8   8
#     4  11  21  35  58  87 116 143 181 238 292 332
#     4   8  15  30  53  82 118 158 189 209 248 324
#     4  11  21  35  58  87 116 143 181 238 292 332
#     4   9  18  34  56  81 112 153 196 230 268 330
#     4   8  15  30  53  82 118 158 189 209 248 324
#     4  11  25  46  66  77  97 143 196 237 280 341
#     4   9  18  34  56  81 112 153 196 230 268 330
#
# _framework density 20.507014999999999
#
# number of rings (size 3 to 8) (size 9 to 14) (size 15 to 20)
#    0.000    2.429    0.000    4.714    0.000    4.000 
#    0.000    7.857    0.000    5.143    0.000    0.000 
#    0.000    0.000    0.000    0.000    0.000    0.000 
#
# Total GULP energy -693973.923164 kJ/mol
# GULP energy per Si atom -12392.391485 kJ/mol
# Density = 2.046034 g / cm^3
# Si number density = 20.507015 Si / 1000 Ang^3
#
#
#
# Elastic Constant Matrix: (Units=GPa)
#
#
# Indices 1 2 3 4 5 6 
#
# 1 93.2578 37.2810 63.2885 0.0000 0.0000 0.0000
# 2 37.2810 93.2578 63.2885 0.0000 0.0000 0.0000
# 3 63.2885 63.2885 162.4047 0.0000 0.0000 0.0000
# 4 0.0000 0.0000 0.0000 22.1841 0.0000 0.0000
# 5 0.0000 0.0000 0.0000 0.0000 22.1841 0.0000
# 6 0.0000 0.0000 0.0000 0.0000 0.0000 22.4656
#
#
#
# Elastic Compliance Matrix: (Units=1/GPa)
#
#
# Indices 1 2 3 4 5 6 
#
# 1 0.015089 -0.002776 -0.004798 0.000000 0.000000 0.000000
# 2 -0.002776 0.015089 -0.004798 0.000000 0.000000 0.000000
# 3 -0.004798 -0.004798 0.009897 0.000000 0.000000 0.000000
# 4 0.000000 0.000000 0.000000 0.045077 0.000000 0.000000
# 5 0.000000 0.000000 0.000000 0.000000 0.045077 0.000000
# 6 0.000000 0.000000 0.000000 0.000000 0.000000 0.044512
#
#
# Mechanical properties :
#
#
# Convention : Reuss Voigt Hill
#
# Bulk Modulus (GPa) = 65.23057 75.18182 70.20619
# Shear Modulus (GPa) = 24.43822 25.70426 25.07124
#
# Velocity S-wave (km/s) = 3.45585 3.54423 3.50032
# Velocity P-wave (km/s) = 6.91388 7.31368 7.11659
#
# Compressibility (1/GPa) = 0.01533024
#
# Stress axis : x y z
#
# Youngs Moduli (GPa) = 66.27353 66.27353 101.03692
#
# Poissons Ratio (x) = 0.18395 0.48483
# Poissons Ratio (y) = 0.18395 0.48483
# Poissons Ratio (z) = 0.31801 0.31801
#
# Static dielectric constant tensor:
#      x y z
#    x 3.795960 0.000000 0.000000 
#    y 0.000000 3.795960 0.000000 
#    z 0.000000 0.000000 3.849320 
# 
# 
# High freq. dielectric constant tensor:
#      x y z
#    x 1.796350 0.000000 0.000000 
#    y 0.000000 1.796350 0.000000 
#    z 0.000000 0.000000 1.798760 
# 
# From -- ./inp_files/1322.got.cif
#   From: 2010.03.12/outbox.cif.g09.slc.cpg/sg100_cif.got.tgz:1322.got - 2010.04.14 01:37:57.
