data_PCOD8306569
_publ_section_title
;
Structure prediction by ZEFSAII (Michael W. Deem and Ramdas Pophale) SiO2 
 PCOD8306569
Probable space group: P 4 M M
;
_chemical_formula_sum "Si O2"
_cell_formula_units_Z 64
_cell_length_a 13.455725
_cell_length_b 13.455725
_cell_length_c 20.298963
_cell_angle_alpha 90.000000
_cell_angle_beta 90.000000
_cell_angle_gamma 90.000000
_cell_volume 3675.259910
_symmetry_space_group_name_H-M "P 4 M M"
_symmetry_group_IT_number 99
_symmetry_cell_setting 'tetragonal'
loop_
_space_group_symop_operation_xyz
x,y,z
-y,x,z
-x,-y,z
y,-x,z
-x,y,z
x,-y,z
-y,-x,z
y,x,z
loop_
_atom_site_type_symbol
_atom_site_label
_atom_site_fract_x
_atom_site_fract_y
_atom_site_fract_z
Si Si1 0.886633 0.272103 0.090640
Si Si2 0.115078 0.723195 0.239136
Si Si3 0.220671 0.616303 0.352113
Si Si4 0.613350 0.225446 0.732885
Si Si5 0.609416 0.881927 0.966575
Si Si6 0.116385 0.720913 0.470533
Si Si7 0.225093 0.385410 0.582037
Si Si8 0.274580 0.115336 0.838939
O O1 0.831960 0.168041 0.083164
O O2 0.872854 0.315796 0.164154
O O3 0.000000 0.247260 0.075024
O O4 0.844459 0.349428 0.037037
O O5 0.172625 0.827376 0.250399
O O6 0.161929 0.638077 0.284605
O O7 0.000000 0.741881 0.257005
O O8 0.244380 0.500000 0.357099
O O9 0.325026 0.674975 0.354636
O O10 0.150016 0.649336 0.411625
O O11 0.500000 0.251355 0.748840
O O12 0.675528 0.324473 0.748514
O O13 0.626481 0.191024 0.657495
O O14 0.649715 0.135595 0.778981
O O15 0.500000 0.835527 0.957840
O O16 0.677841 0.844708 0.906836
O O17 0.602986 0.000000 0.965052
O O18 0.174383 0.825618 0.466957
O O19 0.138658 0.663888 0.538618
O O20 0.000000 0.743924 0.465322
O O21 0.241010 0.500000 0.562443
O O22 0.329659 0.329659 0.568812
O O23 0.171436 0.171436 0.826624
O O24 0.249726 0.000000 0.842046
#
# Coordination Sequence:
#
# PCOD8306569 Si02
#       8
#     8   8   8   8   8   8   8   8
#     4   9  17  29  45  67  96 127 159 195 234 279
#     4   9  18  31  47  70  99 130 165 203 241 283
#     4  10  21  36  53  74  99 126 159 199 242 290
#     4   9  18  32  50  73 100 129 162 200 241 285
#     4   9  17  29  45  65  89 118 153 192 234 281
#     4  10  21  36  53  74 100 129 163 201 239 283
#     4   9  18  32  50  74 102 130 162 200 241 286
#     4  10  20  33  49  69  94 124 159 200 244 291
#
# _framework density 17.413734000000002
#
# number of rings (size 3 to 8) (size 9 to 14) (size 15 to 20)
#    0.000    2.625    0.000    1.500    0.000    4.375 
#    0.000    5.000    0.000    6.750    0.000    3.500 
#    0.000    2.250    0.000    0.500    0.000    0.125 
#
# Total GULP energy -793585.251650 kJ/mol
# GULP energy per Si atom -12399.769557 kJ/mol
# Density = 1.737410 g / cm^3
# Si number density = 17.413734 Si / 1000 Ang^3
#
#
#
# Elastic Constant Matrix: (Units=GPa)
#
#
# Indices 1 2 3 4 5 6 
#
# 1 105.9895 43.4504 50.4715 0.0000 0.0000 -0.0004
# 2 43.4504 105.9895 50.4715 0.0000 0.0000 0.0004
# 3 50.4715 50.4715 107.8937 0.0000 0.0000 0.0000
# 4 0.0000 0.0000 0.0000 25.4327 0.0000 0.0000
# 5 0.0000 0.0000 0.0000 0.0000 25.4327 0.0000
# 6 -0.0004 0.0004 0.0000 0.0000 0.0000 12.2998
#
#
#
# Elastic Compliance Matrix: (Units=1/GPa)
#
#
# Indices 1 2 3 4 5 6 
#
# 1 0.012886 -0.003104 -0.004576 0.000000 0.000000 0.000001
# 2 -0.003104 0.012886 -0.004576 0.000000 0.000000 -0.000001
# 3 -0.004576 -0.004576 0.013550 0.000000 0.000000 0.000000
# 4 0.000000 0.000000 0.000000 0.039319 0.000000 0.000000
# 5 0.000000 0.000000 0.000000 0.000000 0.039319 0.000000
# 6 0.000001 -0.000001 0.000000 0.000000 0.000000 0.081302
#
#
# Mechanical properties :
#
#
# Convention : Reuss Voigt Hill
#
# Bulk Modulus (GPa) = 67.52045 67.62883 67.57464
# Shear Modulus (GPa) = 21.86145 24.33165 23.09655
#
# Velocity S-wave (km/s) = 3.54703 3.74206 3.64585
# Velocity P-wave (km/s) = 7.45880 7.58891 7.52413
#
# Compressibility (1/GPa) = 0.01481033
#
# Stress axis : x y z
#
# Youngs Moduli (GPa) = 77.60110 77.60110 73.80138
#
# Poissons Ratio (x) = 0.24084 0.33774
# Poissons Ratio (y) = 0.24084 0.33774
# Poissons Ratio (z) = 0.35513 0.35513
#
# Static dielectric constant tensor:
#      x y z
#    x 3.103450 0.000000 0.000000 
#    y 0.000000 3.103450 0.000000 
#    z 0.000000 0.000000 3.536200 
# 
# 
# High freq. dielectric constant tensor:
#      x y z
#    x 1.658800 0.000000 0.000000 
#    y 0.000000 1.658800 0.000000 
#    z 0.000000 0.000000 1.691590 
# 
# From -- ./inp_files/2270.got.cif
#   From: 2010.03.12/outbox.cif.g09.slc.cpg/sg99_cif.got.tgz:2270.got - 2010.04.08 21:11:30.
