data_PCOD8306950
_publ_section_title
;
Structure prediction by ZEFSAII (Michael W. Deem and Ramdas Pophale) SiO2 
 PCOD8306950
Probable space group: P 42 N M
;
_chemical_formula_sum "Si O2"
_cell_formula_units_Z 48
_cell_length_a 10.107903
_cell_length_b 10.107903
_cell_length_c 24.024844
_cell_angle_alpha 90.000000
_cell_angle_beta 90.000000
_cell_angle_gamma 90.000000
_cell_volume 2454.611177
_symmetry_space_group_name_H-M "P 42 N M"
_symmetry_group_IT_number 102
_symmetry_cell_setting 'tetragonal'
loop_
_space_group_symop_operation_xyz
x,y,z
1/2-y,1/2+x,1/2+z
-x,-y,z
1/2+y,1/2-x,1/2+z
1/2-x,1/2+y,1/2+z
1/2+x,1/2-y,1/2+z
-y,-x,z
y,x,z
loop_
_atom_site_type_symbol
_atom_site_label
_atom_site_fract_x
_atom_site_fract_y
_atom_site_fract_z
Si Si1 0.506212 0.715603 0.365980
Si Si2 0.005993 0.216877 0.203598
Si Si3 0.784398 0.006213 0.418284
Si Si4 0.174665 0.395710 0.807766
Si Si5 0.716877 0.494008 0.580666
Si Si6 0.174665 0.395709 0.476498
O O1 0.393848 0.606153 0.372062
O O2 0.646606 0.646606 0.350825
O O3 0.466202 0.822127 0.318228
O O4 0.509584 0.792109 0.424606
O O5 0.146500 0.146500 0.215597
O O6 0.979732 0.329175 0.250501
O O7 0.007676 0.283431 0.142132
O O8 0.892863 0.107138 0.205744
O O9 0.893849 0.893849 0.412202
O O10 0.677875 0.966202 0.466035
O O11 0.707891 0.009582 0.359658
O O12 0.853393 0.146608 0.433438
O O13 0.288668 0.288668 0.802733
O O14 0.646499 0.353502 0.568667
O O15 0.607139 0.607139 0.578520
O O16 0.829176 0.520268 0.533763
O O17 0.288666 0.288666 0.481531
#
# Coordination Sequence:
#
# PCOD8306950 Si02
#       6
#     8   8   8   8   8   8
#     4   9  17  28  42  62  88 117 150 188 229 275
#     4   8  13  22  39  64  92 121 154 194 238 279
#     4   9  17  28  42  62  88 117 150 188 229 275
#     4   9  16  26  41  62  89 119 149 186 234 281
#     4   8  13  22  39  64  92 121 154 194 238 279
#     4   9  16  26  41  62  89 119 149 186 234 281
#
# _framework density 19.555031
#
# number of rings (size 3 to 8) (size 9 to 14) (size 15 to 20)
#    0.000    3.333    0.000    2.000    0.000    4.667 
#    0.000    0.000    0.000    1.000    0.000   11.667 
#    0.000    8.000    0.000    0.667    0.000    0.333 
#
# Total GULP energy -594712.361003 kJ/mol
# GULP energy per Si atom -12389.840854 kJ/mol
# Density = 1.951052 g / cm^3
# Si number density = 19.555031 Si / 1000 Ang^3
#
#
#
# Elastic Constant Matrix: (Units=GPa)
#
#
# Indices 1 2 3 4 5 6 
#
# 1 48.9865 32.7659 63.3564 0.0000 0.0000 -0.0001
# 2 32.7659 48.9865 63.3564 0.0000 0.0000 0.0001
# 3 63.3564 63.3564 176.8622 0.0000 0.0000 0.0000
# 4 0.0000 0.0000 0.0000 14.8165 0.0000 0.0000
# 5 0.0000 0.0000 0.0000 0.0000 14.8165 0.0000
# 6 -0.0001 0.0001 0.0000 0.0000 0.0000 20.6060
#
#
#
# Elastic Compliance Matrix: (Units=1/GPa)
#
#
# Indices 1 2 3 4 5 6 
#
# 1 0.044576 -0.017074 -0.009852 0.000000 0.000000 0.000000
# 2 -0.017074 0.044576 -0.009852 0.000000 0.000000 0.000000
# 3 -0.009852 -0.009852 0.012713 0.000000 0.000000 0.000000
# 4 0.000000 0.000000 0.000000 0.067492 0.000000 0.000000
# 5 0.000000 0.000000 0.000000 0.000000 0.067492 0.000000
# 6 0.000000 0.000000 0.000000 0.000000 0.000000 0.048530
#
#
# Mechanical properties :
#
#
# Convention : Reuss Voigt Hill
#
# Bulk Modulus (GPa) = 35.32438 65.97695 50.65066
# Shear Modulus (GPa) = 13.57327 17.73823 15.65575
#
# Velocity S-wave (km/s) = 2.63745 3.01507 2.83256
# Velocity P-wave (km/s) = 5.23241 6.77740 6.05439
#
# Compressibility (1/GPa) = 0.02830906
#
# Stress axis : x y z
#
# Youngs Moduli (GPa) = 22.43353 22.43353 78.66248
#
# Poissons Ratio (x) = 0.38303 0.77498
# Poissons Ratio (y) = 0.38303 0.77498
# Poissons Ratio (z) = 0.22101 0.22101
#
# Static dielectric constant tensor:
#      x y z
#    x 3.514420 0.000000 0.000000 
#    y 0.000000 3.514420 0.000000 
#    z 0.000000 0.000000 3.927010 
# 
# 
# High freq. dielectric constant tensor:
#      x y z
#    x 1.741840 0.000000 0.000000 
#    y 0.000000 1.741840 0.000000 
#    z 0.000000 0.000000 1.747080 
# 
# From -- ./inp_files/3033.got.cif
#   From: 2010.03.12/outbox.cif.g09.slc.cpg/sg102_2_cif.got.tgz:3033.got - 2010.04.14 01:40:42.
