data_PCOD8306353
_publ_section_title
;
Structure prediction by ZEFSAII (Michael W. Deem and Ramdas Pophale) SiO2 
 PCOD8306353
Probable space group: I 41 2 2
;
_chemical_formula_sum "Si O2"
_cell_formula_units_Z 72
_cell_length_a 17.825443
_cell_length_b 17.825443
_cell_length_c 9.340692
_cell_angle_alpha 90.000000
_cell_angle_beta 90.000000
_cell_angle_gamma 90.000000
_cell_volume 2967.971426
_symmetry_space_group_name_H-M "I 41 2 2"
_symmetry_group_IT_number 98
_symmetry_cell_setting 'tetragonal'
loop_
_space_group_symop_operation_xyz
x,y,z
-y,1/2+x,1/4+z
-x,-y,z
y,1/2-x,1/4+z
x,1/2-y,1/4-z
-x,1/2+y,1/4-z
y,x,-z
-y,-x,-z
1/2+x,1/2+y,1/2+z
1/2-y,x,3/4+z
1/2-x,1/2-y,1/2+z
1/2+y,-x,3/4+z
1/2+x,-y,3/4-z
1/2-x,y,3/4-z
1/2+y,1/2+x,1/2-z
1/2-y,1/2-x,1/2-z
loop_
_atom_site_type_symbol
_atom_site_label
_atom_site_fract_x
_atom_site_fract_y
_atom_site_fract_z
Si Si1 0.250000 0.834938 0.875000
Si Si2 0.395795 0.895795 0.250000
Si Si3 0.237504 0.446348 0.116730
Si Si4 0.750000 0.444911 0.875000
Si Si5 0.196645 0.303355 0.750000
Si Si6 0.032637 0.854929 0.219305
Si Si7 0.414847 0.085154 0.750000
O O1 0.280651 0.780651 0.750000
O O2 0.178082 0.887148 0.831454
O O3 0.393753 0.813628 0.187256
O O4 0.456404 0.902791 0.381058
O O5 0.281686 0.481162 0.251229
O O6 0.159174 0.408460 0.154928
O O7 0.213239 0.507613 0.001882
O O8 0.294165 0.389403 0.041269
O O9 0.250000 0.277399 0.875000
O O10 0.990716 0.908426 0.100095
#
# Coordination Sequence:
#
# PCOD8306353 Si02
#       7
#     8   8  16   8   8  16   8
#     4  12  30  53  86 123 154 210 284 354 420 475
#     4  10  26  48  77 108 154 204 264 331 406 476
#     4  11  23  45  72 108 152 206 260 328 384 474
#     4  10  24  49  72 103 152 198 260 326 388 477
#     4  12  23  38  68 106 150 205 271 318 381 454
#     4  11  26  49  80 117 163 205 272 334 409 497
#     4  12  23  48  79 111 164 211 252 333 407 488
#
# _framework density 24.258991000000002
#
# number of rings (size 3 to 8) (size 9 to 14) (size 15 to 20)
#    0.000    0.889    3.333    2.000    7.778    0.000 
#    0.000    6.111    0.000    0.000    0.000    0.000 
#    0.000    0.000    0.000    0.000    0.000    0.000 
#
# Total GULP energy -446131.464889 kJ/mol
# GULP energy per Si atom -12392.540691 kJ/mol
# Density = 2.420378 g / cm^3
# Si number density = 24.258991 Si / 1000 Ang^3
#
#
#
# Elastic Constant Matrix: (Units=GPa)
#
#
# Indices 1 2 3 4 5 6 
#
# 1 91.0209 95.1856 75.5617 0.0000 0.0000 0.0000
# 2 95.1856 91.0247 75.5581 0.0000 0.0000 0.0000
# 3 75.5617 75.5581 166.1800 0.0000 0.0000 0.0000
# 4 0.0000 0.0000 0.0000 42.4823 0.0000 0.0000
# 5 0.0000 0.0000 0.0000 0.0000 42.4815 0.0000
# 6 0.0000 0.0000 0.0000 0.0000 0.0000 48.2411
#
#
#
# Elastic Compliance Matrix: (Units=1/GPa)
#
#
# Indices 1 2 3 4 5 6 
#
# 1 -0.115863 0.124367 -0.003864 0.000000 0.000000 0.000000
# 2 0.124367 -0.115849 -0.003876 0.000000 0.000000 0.000000
# 3 -0.003864 -0.003876 0.009537 0.000000 0.000000 0.000000
# 4 0.000000 0.000000 0.000000 0.023539 0.000000 0.000000
# 5 0.000000 0.000000 0.000000 0.000000 0.023540 0.000000
# 6 0.000000 0.000000 0.000000 0.000000 0.000000 0.020729
#
#
# Mechanical properties :
#
#
# Convention : Reuss Voigt Hill
#
# Bulk Modulus (GPa) = 90.25853 93.42628 91.84240
# Shear Modulus (GPa) = -13.02327 33.43566 10.20620
#
# Velocity S-wave (km/s) = -2.31950 3.71655 2.05337
# Velocity P-wave (km/s) = 5.48758 7.55067 6.60023
#
# Compressibility (1/GPa) = 0.01107929
#
# Stress axis : x y z
#
# Youngs Moduli (GPa) = -8.63087 -8.63196 104.85840
#
# Poissons Ratio (x) = 1.07353 0.40516
# Poissons Ratio (y) = 1.07339 0.40641
# Poissons Ratio (z) = -0.03335 -0.03346
#
# Static dielectric constant tensor:
#      x y z
#    x 4.250780 0.000000 0.000000 
#    y 0.000000 4.250780 0.000000 
#    z 0.000000 0.000000 4.924620 
# 
# 
# High freq. dielectric constant tensor:
#      x y z
#    x 1.957530 0.000000 0.000000 
#    y 0.000000 1.957530 0.000000 
#    z 0.000000 0.000000 1.988520 
# 
# From -- ./inp_files/3525.got.cif
#   From: 2010.03.12/outbox.cif.g09.slc.cpg/sg98_2_cif.got.tgz:3525.got - 2010.04.08 21:04:41.
