data_PCOD8306892
_publ_section_title
;
Structure prediction by ZEFSAII (Michael W. Deem and Ramdas Pophale) SiO2 
 PCOD8306892
Probable space group: P 42 N M
;
_chemical_formula_sum "Si O2"
_cell_formula_units_Z 40
_cell_length_a 16.415368
_cell_length_b 16.415368
_cell_length_c 7.756489
_cell_angle_alpha 90.000000
_cell_angle_beta 90.000000
_cell_angle_gamma 90.000000
_cell_volume 2090.096930
_symmetry_space_group_name_H-M "P 42 N M"
_symmetry_group_IT_number 102
_symmetry_cell_setting 'tetragonal'
loop_
_space_group_symop_operation_xyz
x,y,z
1/2-y,1/2+x,1/2+z
-x,-y,z
1/2+y,1/2-x,1/2+z
1/2-x,1/2+y,1/2+z
1/2+x,1/2-y,1/2+z
-y,-x,z
y,x,z
loop_
_atom_site_type_symbol
_atom_site_label
_atom_site_fract_x
_atom_site_fract_y
_atom_site_fract_z
Si Si1 0.131445 0.004328 0.766870
Si Si2 0.433774 0.104100 0.574947
Si Si3 0.580846 0.714110 0.966252
Si Si4 0.433774 0.104100 0.958794
Si Si5 0.285890 0.419154 0.567489
O O1 0.096565 0.096565 0.766871
O O2 0.183100 0.990789 0.592139
O O3 0.057205 0.942796 0.766867
O O4 0.183099 0.990788 0.941603
O O5 0.403365 0.085654 0.766870
O O6 0.532868 0.103050 0.576631
O O7 0.400986 0.192336 0.516608
O O8 0.396950 0.032867 0.457110
O O9 0.663578 0.663578 0.997463
O O10 0.599014 0.807664 0.017133
O O11 0.551550 0.706748 0.766871
O O12 0.336421 0.336421 0.536280
#
# Coordination Sequence:
#
# PCOD8306892 Si02
#       5
#     8   8   8   8   8
#     4   9  18  32  54  79 102 138 177 212 260 314
#     4  10  20  33  54  78 104 139 180 221 264 314
#     4   9  19  35  54  77 107 141 176 218 268 317
#     4  10  20  33  54  78 104 139 180 221 264 314
#     4   9  19  35  54  77 107 141 176 218 268 317
#
# _framework density 19.137868000000001
#
# number of rings (size 3 to 8) (size 9 to 14) (size 15 to 20)
#    0.000    2.600    0.000    2.400    5.600    0.800 
#    0.000    6.000    0.000    2.400    0.000    0.000 
#    0.000    0.000    0.000    0.000    0.000    0.000 
#
# Total GULP energy -495792.195205 kJ/mol
# GULP energy per Si atom -12394.804880 kJ/mol
# Density = 1.909431 g / cm^3
# Si number density = 19.137868 Si / 1000 Ang^3
#
#
#
# Elastic Constant Matrix: (Units=GPa)
#
#
# Indices 1 2 3 4 5 6 
#
# 1 77.7889 37.3717 23.0825 0.0000 0.0000 0.0000
# 2 37.3717 77.7889 23.0825 0.0000 0.0000 0.0000
# 3 23.0825 23.0825 72.6522 0.0000 0.0000 0.0000
# 4 0.0000 0.0000 0.0000 22.6510 0.0000 0.0000
# 5 0.0000 0.0000 0.0000 0.0000 22.6510 0.0000
# 6 0.0000 0.0000 0.0000 0.0000 0.0000 16.2264
#
#
#
# Elastic Compliance Matrix: (Units=1/GPa)
#
#
# Indices 1 2 3 4 5 6 
#
# 1 0.017346 -0.007396 -0.003162 0.000000 0.000000 0.000000
# 2 -0.007396 0.017346 -0.003162 0.000000 0.000000 0.000000
# 3 -0.003162 -0.003162 0.015773 0.000000 0.000000 0.000000
# 4 0.000000 0.000000 0.000000 0.044148 0.000000 0.000000
# 5 0.000000 0.000000 0.000000 0.000000 0.044148 0.000000
# 6 0.000000 0.000000 0.000000 0.000000 0.000000 0.061628
#
#
# Mechanical properties :
#
#
# Convention : Reuss Voigt Hill
#
# Bulk Modulus (GPa) = 43.42383 43.92259 43.67321
# Shear Modulus (GPa) = 21.23111 21.95191 21.59151
#
# Velocity S-wave (km/s) = 3.33434 3.39047 3.36253
# Velocity P-wave (km/s) = 6.12887 6.19092 6.15997
#
# Compressibility (1/GPa) = 0.02302883
#
# Stress axis : x y z
#
# Youngs Moduli (GPa) = 57.64886 57.64886 63.39905
#
# Poissons Ratio (x) = 0.42634 0.20044
# Poissons Ratio (y) = 0.42634 0.20044
# Poissons Ratio (z) = 0.18226 0.18226
#
# Static dielectric constant tensor:
#      x y z
#    x 3.449140 0.000000 0.000000 
#    y 0.000000 3.449140 0.000000 
#    z 0.000000 0.000000 3.594450 
# 
# 
# High freq. dielectric constant tensor:
#      x y z
#    x 1.725180 0.000000 0.000000 
#    y 0.000000 1.725180 0.000000 
#    z 0.000000 0.000000 1.756220 
# 
# From -- ./inp_files/932.got.cif
#   From: 2010.03.12/outbox.cif.g09.slc.cpg/sg102_1_cif.got.tgz:932.got - 2010.04.14 01:40:42.
