data_PCOD8306202
_publ_section_title
;
Structure prediction by ZEFSAII (Michael W. Deem and Ramdas Pophale) SiO2 
 PCOD8306202
Probable space group: I 41 2 2
;
_chemical_formula_sum "Si O2"
_cell_formula_units_Z 96
_cell_length_a 16.143554
_cell_length_b 16.143554
_cell_length_c 24.933932
_cell_angle_alpha 90.000000
_cell_angle_beta 90.000000
_cell_angle_gamma 90.000000
_cell_volume 6498.140126
_symmetry_space_group_name_H-M "I 41 2 2"
_symmetry_group_IT_number 98
_symmetry_cell_setting 'tetragonal'
loop_
_space_group_symop_operation_xyz
x,y,z
-y,1/2+x,1/4+z
-x,-y,z
y,1/2-x,1/4+z
x,1/2-y,1/4-z
-x,1/2+y,1/4-z
y,x,-z
-y,-x,-z
1/2+x,1/2+y,1/2+z
1/2-y,x,3/4+z
1/2-x,1/2-y,1/2+z
1/2+y,-x,3/4+z
1/2+x,-y,3/4-z
1/2-x,y,3/4-z
1/2+y,1/2+x,1/2-z
1/2-y,1/2-x,1/2-z
loop_
_atom_site_type_symbol
_atom_site_label
_atom_site_fract_x
_atom_site_fract_y
_atom_site_fract_z
Si Si1 0.370868 0.725792 0.337103
Si Si2 0.505493 0.798973 0.176204
Si Si3 0.078172 0.421829 0.750000
Si Si4 0.080468 0.651920 0.516596
Si Si5 0.106425 0.546148 0.658875
Si Si6 0.000000 0.000000 0.681579
Si Si7 0.811038 0.243369 0.947282
O O1 0.404713 0.653564 0.298042
O O2 0.440603 0.796010 0.341045
O O3 0.286029 0.763503 0.312739
O O4 0.351975 0.693375 0.397533
O O5 0.542740 0.750000 0.125000
O O6 0.579318 0.842496 0.210135
O O7 0.457540 0.739237 0.216586
O O8 0.441828 0.866801 0.152574
O O9 0.078940 0.505084 0.714509
O O10 0.169417 0.640443 0.545940
O O11 0.016660 0.578538 0.530222
O O12 0.079448 0.488265 0.608181
O O13 0.815377 0.184624 0.000000
#
# Coordination Sequence:
#
# PCOD8306202 Si02
#       7
#    16  16   8  16  16   8  16
#     4  10  18  28  45  63  90 131 157 185 228 268
#     4  12  19  29  41  61  93 132 161 195 219 258
#     4  12  23  28  42  68  94 132 170 188 211 272
#     4  11  20  29  43  61  98 127 159 189 230 272
#     4  12  19  28  42  61  95 132 169 180 215 271
#     4  12  22  29  40  66  93 130 160 194 224 274
#     4   9  17  28  45  67  89 120 161 188 224 282
#
# _framework density 14.773457000000001
#
# number of rings (size 3 to 8) (size 9 to 14) (size 15 to 20)
#    0.000    1.000    8.333    1.000    0.000    0.000 
#    0.000    0.000    0.000    0.000    0.000    0.583 
#   10.000    0.000    0.000    0.000    0.000    0.000 
#
# Total GULP energy -594864.955437 kJ/mol
# GULP energy per Si atom -12393.019905 kJ/mol
# Density = 1.473983 g / cm^3
# Si number density = 14.773457 Si / 1000 Ang^3
#
#
#
# Elastic Constant Matrix: (Units=GPa)
#
#
# Indices 1 2 3 4 5 6 
#
# 1 47.0287 26.0600 39.8014 0.0000 0.0000 0.0000
# 2 26.0600 47.0289 39.8013 0.0000 0.0000 0.0000
# 3 39.8014 39.8013 133.7440 0.0000 0.0000 0.0000
# 4 0.0000 0.0000 0.0000 25.8833 0.0000 0.0000
# 5 0.0000 0.0000 0.0000 0.0000 25.8832 0.0000
# 6 0.0000 0.0000 0.0000 0.0000 0.0000 14.6523
#
#
#
# Elastic Compliance Matrix: (Units=1/GPa)
#
#
# Indices 1 2 3 4 5 6 
#
# 1 0.033967 -0.013723 -0.006024 0.000000 0.000000 0.000000
# 2 -0.013723 0.033966 -0.006024 0.000000 0.000000 0.000000
# 3 -0.006024 -0.006024 0.011063 0.000000 0.000000 0.000000
# 4 0.000000 0.000000 0.000000 0.038635 0.000000 0.000000
# 5 0.000000 0.000000 0.000000 0.000000 0.038635 0.000000
# 6 0.000000 0.000000 0.000000 0.000000 0.000000 0.068249
#
#
# Mechanical properties :
#
#
# Convention : Reuss Voigt Hill
#
# Bulk Modulus (GPa) = 36.42744 48.79191 42.60967
# Shear Modulus (GPa) = 17.53105 21.42636 19.47871
#
# Velocity S-wave (km/s) = 3.44853 3.81245 3.63505
# Velocity P-wave (km/s) = 6.36925 7.24418 6.82076
#
# Compressibility (1/GPa) = 0.02745183
#
# Stress axis : x y z
#
# Youngs Moduli (GPa) = 29.44070 29.44092 90.39538
#
# Poissons Ratio (x) = 0.40403 0.54457
# Poissons Ratio (y) = 0.40403 0.54456
# Poissons Ratio (z) = 0.17736 0.17736
#
# Static dielectric constant tensor:
#      x y z
#    x 2.619300 0.000000 0.000000 
#    y 0.000000 2.619290 0.000000 
#    z 0.000000 0.000000 3.204050 
# 
# 
# High freq. dielectric constant tensor:
#      x y z
#    x 1.522120 0.000000 0.000000 
#    y 0.000000 1.522120 0.000000 
#    z 0.000000 0.000000 1.586630 
# 
# From -- ./inp_files/10944.got.cif
#   From: 2010.03.12/outbox.cif.g09.slc.cpg/sg98_6_cif.got.tgz:10944.got - 2010.04.08 21:04:41.
