data_PCOD8306613
_publ_section_title
;
Structure prediction by ZEFSAII (Michael W. Deem and Ramdas Pophale) SiO2 
 PCOD8306613
Probable space group: P 4 M M
;
_chemical_formula_sum "Si O2"
_cell_formula_units_Z 64
_cell_length_a 13.790100
_cell_length_b 13.790100
_cell_length_c 20.206090
_cell_angle_alpha 90.000000
_cell_angle_beta 90.000000
_cell_angle_gamma 90.000000
_cell_volume 3842.528648
_symmetry_space_group_name_H-M "P 4 M M"
_symmetry_group_IT_number 99
_symmetry_cell_setting 'tetragonal'
loop_
_space_group_symop_operation_xyz
x,y,z
-y,x,z
-x,-y,z
y,-x,z
-x,y,z
x,-y,z
-y,-x,z
y,x,z
loop_
_atom_site_type_symbol
_atom_site_label
_atom_site_fract_x
_atom_site_fract_y
_atom_site_fract_z
Si Si1 0.611938 0.112364 0.185320
Si Si2 0.732805 0.889745 0.820856
Si Si3 0.271586 0.113280 0.455738
Si Si4 0.264673 0.110771 0.306476
Si Si5 0.112304 0.730979 0.668309
Si Si6 0.224988 0.384798 0.563226
Si Si7 0.388527 0.230336 0.915184
Si Si8 0.234771 0.388763 0.063716
O O1 0.500000 0.135597 0.194515
O O2 0.661901 0.153375 0.251771
O O3 0.653483 0.161669 0.118770
O O4 0.632725 0.000000 0.176208
O O5 0.828772 0.828772 0.837579
O O6 0.701556 0.877952 0.744770
O O7 0.643562 0.854583 0.865698
O O8 0.757657 0.000000 0.838204
O O9 0.169883 0.169883 0.468075
O O10 0.307769 0.125441 0.380085
O O11 0.356029 0.160366 0.499795
O O12 0.255771 0.000000 0.473739
O O13 0.162237 0.162237 0.299493
O O14 0.242740 0.000000 0.291665
O O15 0.167213 0.832788 0.653639
O O16 0.162939 0.644611 0.627765
O O17 0.000000 0.743644 0.647321
O O18 0.244742 0.500000 0.563411
O O19 0.328108 0.328108 0.562251
O O20 0.500000 0.256402 0.901991
O O21 0.327724 0.327724 0.901329
O O22 0.372314 0.191523 0.990139
O O23 0.256056 0.500000 0.077456
O O24 0.337516 0.337516 0.070815
#
# Coordination Sequence:
#
# PCOD8306613 Si02
#       8
#     8   8   8   8   8   8   8   8
#     4   9  17  28  42  62  87 114 146 183 221 262
#     4   9  18  32  49  70  96 124 154 188 224 265
#     4   9  18  31  47  70  97 123 153 187 225 271
#     4   9  17  29  45  65  90 119 149 181 217 259
#     4   9  18  32  50  73  99 125 153 185 223 268
#     4  10  21  36  52  70  93 121 155 194 231 269
#     4   9  18  31  46  66  91 118 151 190 231 276
#     4   9  17  29  45  64  86 113 144 180 224 271
#
# _framework density 16.655698000000001
#
# number of rings (size 3 to 8) (size 9 to 14) (size 15 to 20)
#    0.000    2.875    0.000    0.750    0.000    3.625 
#    0.000    7.500    0.000    2.250    0.000    3.500 
#    0.000    6.000    0.000    0.000    0.000    0.000 
#
# Total GULP energy -793387.241835 kJ/mol
# GULP energy per Si atom -12396.675654 kJ/mol
# Density = 1.661779 g / cm^3
# Si number density = 16.655698 Si / 1000 Ang^3
#
#
#
# Elastic Constant Matrix: (Units=GPa)
#
#
# Indices 1 2 3 4 5 6 
#
# 1 94.9708 46.9815 56.2882 0.0000 0.0000 0.0000
# 2 46.9815 94.9708 56.2882 0.0000 0.0000 0.0000
# 3 56.2882 56.2882 109.1251 0.0000 0.0000 0.0000
# 4 0.0000 0.0000 0.0000 26.9231 0.0000 0.0000
# 5 0.0000 0.0000 0.0000 0.0000 26.9231 0.0000
# 6 0.0000 0.0000 0.0000 0.0000 0.0000 17.0015
#
#
#
# Elastic Compliance Matrix: (Units=1/GPa)
#
#
# Indices 1 2 3 4 5 6 
#
# 1 0.016380 -0.004458 -0.006149 0.000000 0.000000 0.000000
# 2 -0.004458 0.016380 -0.006149 0.000000 0.000000 0.000000
# 3 -0.006149 -0.006149 0.015507 0.000000 0.000000 0.000000
# 4 0.000000 0.000000 0.000000 0.037143 0.000000 0.000000
# 5 0.000000 0.000000 0.000000 0.000000 0.037143 0.000000
# 6 0.000000 0.000000 0.000000 0.000000 0.000000 0.058818
#
#
# Mechanical properties :
#
#
# Convention : Reuss Voigt Hill
#
# Bulk Modulus (GPa) = 67.78125 68.68696 68.23410
# Shear Modulus (GPa) = 22.74779 23.47014 23.10897
#
# Velocity S-wave (km/s) = 3.69964 3.75792 3.72889
# Velocity P-wave (km/s) = 7.68333 7.75617 7.71984
#
# Compressibility (1/GPa) = 0.01475334
#
# Stress axis : x y z
#
# Youngs Moduli (GPa) = 61.05152 61.05152 64.48524
#
# Poissons Ratio (x) = 0.27219 0.39653
# Poissons Ratio (y) = 0.27219 0.39653
# Poissons Ratio (z) = 0.37541 0.37541
#
# Static dielectric constant tensor:
#      x y z
#    x 3.040210 0.000000 0.000000 
#    y 0.000000 3.040210 0.000000 
#    z 0.000000 0.000000 3.473180 
# 
# 
# High freq. dielectric constant tensor:
#      x y z
#    x 1.629800 0.000000 0.000000 
#    y 0.000000 1.629800 0.000000 
#    z 0.000000 0.000000 1.657520 
# 
# From -- ./inp_files/2275.got.cif
#   From: 2010.03.12/outbox.cif.g09.slc.cpg/sg99_cif.got.tgz:2275.got - 2010.04.08 21:11:30.
