data_PCOD8306694
_publ_section_title
;
Structure prediction by ZEFSAII (Michael W. Deem and Ramdas Pophale) SiO2 
 PCOD8306694
Probable space group: P 42 C M
;
_chemical_formula_sum "Si O2"
_cell_formula_units_Z 64
_cell_length_a 13.954364
_cell_length_b 13.954364
_cell_length_c 18.730032
_cell_angle_alpha 90.000000
_cell_angle_beta 90.000000
_cell_angle_gamma 90.000000
_cell_volume 3647.191895
_symmetry_space_group_name_H-M "P 42 C M"
_symmetry_group_IT_number 101
_symmetry_cell_setting 'tetragonal'
loop_
_space_group_symop_operation_xyz
x,y,z
-y,x,1/2+z
-x,-y,z
y,-x,1/2+z
-x,y,1/2+z
x,-y,1/2+z
-y,-x,z
y,x,z
loop_
_atom_site_type_symbol
_atom_site_label
_atom_site_fract_x
_atom_site_fract_y
_atom_site_fract_z
Si Si1 0.247756 0.597697 0.344720
Si Si2 0.299524 0.447864 0.001816
Si Si3 0.583515 0.735687 0.251556
Si Si4 0.813177 0.336820 0.612350
Si Si5 0.000435 0.392282 0.054510
Si Si6 0.964091 0.394562 0.389713
Si Si7 0.300717 0.151307 0.365733
Si Si8 0.357689 0.791599 0.018797
O O1 0.305399 0.694602 0.327943
O O2 0.284369 0.548307 0.417049
O O3 0.266289 0.524969 0.279372
O O4 0.136509 0.625509 0.351767
O O5 0.407822 0.407822 0.018002
O O6 0.224079 0.374360 0.036080
O O7 0.278217 0.552317 0.034804
O O8 0.628437 0.628437 0.253921
O O9 0.586907 0.777778 0.171520
O O10 0.648693 0.806824 0.296973
O O11 0.768459 0.231542 0.628910
O O12 0.928977 0.330601 0.606017
O O13 0.000000 0.500000 0.083393
O O14 0.891761 0.355322 0.061059
O O15 0.043416 0.389339 0.974941
O O16 0.000000 0.500000 0.366229
O O17 0.036196 0.310273 0.362732
O O18 0.190221 0.190221 0.369597
O O19 0.359896 0.187522 0.434438
O O20 0.262339 0.737662 0.043683
#
# Coordination Sequence:
#
# PCOD8306694 Si02
#       8
#     8   8   8   8   8   8   8   8
#     4  11  20  32  52  78 106 137 176 224 266 304
#     4  10  18  31  50  75 103 140 183 212 249 311
#     4  10  20  35  51  74 107 138 172 215 259 316
#     4  10  20  34  53  75 103 138 177 217 259 311
#     4  10  17  31  52  75 102 136 173 215 266 306
#     4  10  16  29  51  77 104 133 170 221 265 300
#     4   9  17  30  49  72 101 136 176 214 261 313
#     4  10  18  30  50  78 108 134 169 222 271 311
#
# _framework density 17.547746
#
# number of rings (size 3 to 8) (size 9 to 14) (size 15 to 20)
#    0.000    2.000    5.000    0.750    0.000    0.500 
#    2.250    1.875    0.000    3.000    0.000    3.500 
#    0.000    3.000    0.000    0.125    0.000    0.000 
#
# Total GULP energy -793181.147268 kJ/mol
# GULP energy per Si atom -12393.455426 kJ/mol
# Density = 1.750781 g / cm^3
# Si number density = 17.547746 Si / 1000 Ang^3
#
#
#
# Elastic Constant Matrix: (Units=GPa)
#
#
# Indices 1 2 3 4 5 6 
#
# 1 126.4383 81.0941 30.0892 0.0000 0.0000 -0.0001
# 2 81.0941 126.4383 30.0892 0.0000 0.0000 0.0001
# 3 30.0892 30.0892 40.7535 0.0000 0.0000 0.0000
# 4 0.0000 0.0000 0.0000 20.2184 0.0000 0.0000
# 5 0.0000 0.0000 0.0000 0.0000 20.2184 0.0000
# 6 -0.0001 0.0001 0.0000 0.0000 0.0000 21.4412
#
#
#
# Elastic Compliance Matrix: (Units=1/GPa)
#
#
# Indices 1 2 3 4 5 6 
#
# 1 0.014092 -0.007961 -0.004527 0.000000 0.000000 0.000000
# 2 -0.007961 0.014092 -0.004527 0.000000 0.000000 0.000000
# 3 -0.004527 -0.004527 0.031222 0.000000 0.000000 0.000000
# 4 0.000000 0.000000 0.000000 0.049460 0.000000 0.000000
# 5 0.000000 0.000000 0.000000 0.000000 0.049460 0.000000
# 6 0.000000 0.000000 0.000000 0.000000 0.000000 0.046639
#
#
# Mechanical properties :
#
#
# Convention : Reuss Voigt Hill
#
# Bulk Modulus (GPa) = 39.40506 64.01945 51.71225
# Shear Modulus (GPa) = 20.20574 22.53278 21.36926
#
# Velocity S-wave (km/s) = 3.39702 3.58730 3.49345
# Velocity P-wave (km/s) = 6.15556 7.32943 6.76799
#
# Compressibility (1/GPa) = 0.02537745
#
# Stress axis : x y z
#
# Youngs Moduli (GPa) = 70.96051 70.96051 32.02850
#
# Poissons Ratio (x) = 0.56493 0.14499
# Poissons Ratio (y) = 0.56493 0.14499
# Poissons Ratio (z) = 0.32122 0.32122
#
# Static dielectric constant tensor:
#      x y z
#    x 3.288770 0.000000 0.000000 
#    y 0.000000 3.288770 0.000000 
#    z 0.000000 0.000000 3.082100 
# 
# 
# High freq. dielectric constant tensor:
#      x y z
#    x 1.661610 0.000000 0.000000 
#    y 0.000000 1.661610 0.000000 
#    z 0.000000 0.000000 1.658360 
# 
# From -- ./inp_files/2302.got.cif
#   From: 2010.03.12/outbox.cif.g09.slc.cpg/sg101_2_cif.got.tgz:2302.got - 2010.04.14 01:38:52.
