data_PCOD8306002
_publ_section_title
;
Structure prediction by ZEFSAII (Michael W. Deem and Ramdas Pophale) SiO2 
 PCOD8306002
Probable space group: P 43 21 2
;
_chemical_formula_sum "Si O2"
_cell_formula_units_Z 48
_cell_length_a 11.405517
_cell_length_b 11.405517
_cell_length_c 17.195150
_cell_angle_alpha 90.000000
_cell_angle_beta 90.000000
_cell_angle_gamma 90.000000
_cell_volume 2236.845154
_symmetry_space_group_name_H-M "P 43 21 2"
_symmetry_group_IT_number 96
_symmetry_cell_setting 'tetragonal'
loop_
_space_group_symop_operation_xyz
x,y,z
1/2-y,1/2+x,3/4+z
-x,-y,1/2+z
1/2+y,1/2-x,1/4+z
1/2+x,1/2-y,1/4-z
1/2-x,1/2+y,3/4-z
y,x,-z
-y,-x,1/2-z
loop_
_atom_site_type_symbol
_atom_site_label
_atom_site_fract_x
_atom_site_fract_y
_atom_site_fract_z
Si Si1 0.666276 0.815010 0.328149
Si Si2 0.883314 0.035567 0.165449
Si Si3 0.808005 0.731691 0.838880
Si Si4 0.887173 0.895034 0.590839
Si Si5 0.934193 0.546039 0.939307
Si Si6 0.812840 0.568610 0.103711
O O1 0.625908 0.715965 0.387981
O O2 0.709991 0.757248 0.247538
O O3 0.769126 0.889916 0.367328
O O4 0.564045 0.903096 0.302804
O O5 0.927347 0.072654 0.250000
O O6 0.990089 0.039716 0.105098
O O7 0.836037 0.903148 0.164498
O O8 0.864752 0.613607 0.872027
O O9 0.701032 0.765467 0.894294
O O10 0.871988 0.871988 0.500000
O O11 0.786065 0.974003 0.627885
O O12 0.948316 0.411100 0.918453
O O13 0.863012 0.549608 0.018568
#
# Coordination Sequence:
#
# PCOD8306002 Si02
#       6
#     8   8   8   8   8   8
#     4  11  24  46  71 101 142 186 233 297 357 425
#     4  11  25  44  71 102 141 188 232 295 359 422
#     4  11  24  47  72 102 141 184 232 300 357 427
#     4  12  28  43  72 105 147 190 244 295 354 436
#     4  11  26  45  74 103 141 184 236 292 362 427
#     4  12  27  44  73 104 141 186 238 292 354 431
#
# _framework density 21.458794999999999
#
# number of rings (size 3 to 8) (size 9 to 14) (size 15 to 20)
#    0.000    0.667    3.333    3.000    7.000    2.667 
#    0.000    0.000    0.000    0.000    0.000    0.000 
#    0.000    0.000    0.000    0.000    0.000    0.000 
#
# Total GULP energy -595505.301539 kJ/mol
# GULP energy per Si atom -12406.360449 kJ/mol
# Density = 2.140995 g / cm^3
# Si number density = 21.458795 Si / 1000 Ang^3
#
#
#
# Elastic Constant Matrix: (Units=GPa)
#
#
# Indices 1 2 3 4 5 6 
#
# 1 95.3189 46.4963 22.9717 0.0000 0.0000 0.0000
# 2 46.4963 95.3191 22.9719 0.0000 0.0000 0.0000
# 3 22.9717 22.9719 100.6536 0.0000 0.0000 0.0000
# 4 0.0000 0.0000 0.0000 33.0704 0.0000 0.0000
# 5 0.0000 0.0000 0.0000 0.0000 33.0700 0.0000
# 6 0.0000 0.0000 0.0000 0.0000 0.0000 25.9270
#
#
#
# Elastic Compliance Matrix: (Units=1/GPa)
#
#
# Indices 1 2 3 4 5 6 
#
# 1 0.014048 -0.006434 -0.001738 0.000000 0.000000 0.000000
# 2 -0.006434 0.014048 -0.001738 0.000000 0.000000 0.000000
# 3 -0.001738 -0.001738 0.010728 0.000000 0.000000 0.000000
# 4 0.000000 0.000000 0.000000 0.030238 0.000000 0.000000
# 5 0.000000 0.000000 0.000000 0.000000 0.030239 0.000000
# 6 0.000000 0.000000 0.000000 0.000000 0.000000 0.038570
#
#
# Mechanical properties :
#
#
# Convention : Reuss Voigt Hill
#
# Bulk Modulus (GPa) = 52.61527 52.90794 52.76160
# Shear Modulus (GPa) = 30.48285 31.67025 31.07655
#
# Velocity S-wave (km/s) = 3.77308 3.84586 3.80965
# Velocity P-wave (km/s) = 6.59954 6.66558 6.63265
#
# Compressibility (1/GPa) = 0.01900589
#
# Stress axis : x y z
#
# Youngs Moduli (GPa) = 71.18270 71.18281 93.21145
#
# Poissons Ratio (x) = 0.45798 0.16198
# Poissons Ratio (y) = 0.45798 0.16199
# Poissons Ratio (z) = 0.12370 0.12370
#
# Static dielectric constant tensor:
#      x y z
#    x 3.950650 0.000000 0.000000 
#    y 0.000000 3.950650 0.000000 
#    z 0.000000 0.000000 3.958930 
# 
# 
# High freq. dielectric constant tensor:
#      x y z
#    x 1.850560 0.000000 0.000000 
#    y 0.000000 1.850560 0.000000 
#    z 0.000000 0.000000 1.860190 
# 
# From -- ./inp_files/3092.got.cif
#   From: 2010.03.12/outbox.cif.g09.slc.cpg/sg96_2_cif.got.tgz:3092.got - 2010.04.08 20:56:49.
