data_PCOD8306419
_publ_section_title
;
Structure prediction by ZEFSAII (Michael W. Deem and Ramdas Pophale) SiO2 
 PCOD8306419
Probable space group: P 4 M M
;
_chemical_formula_sum "Si O2"
_cell_formula_units_Z 64
_cell_length_a 19.710782
_cell_length_b 19.710782
_cell_length_c 9.815555
_cell_angle_alpha 90.000000
_cell_angle_beta 90.000000
_cell_angle_gamma 90.000000
_cell_volume 3813.489635
_symmetry_space_group_name_H-M "P 4 M M"
_symmetry_group_IT_number 99
_symmetry_cell_setting 'tetragonal'
loop_
_space_group_symop_operation_xyz
x,y,z
-y,x,z
-x,-y,z
y,-x,z
-x,y,z
x,-y,z
-y,-x,z
y,x,z
loop_
_atom_site_type_symbol
_atom_site_label
_atom_site_fract_x
_atom_site_fract_y
_atom_site_fract_z
Si Si1 0.332376 0.781057 0.730540
Si Si2 0.756273 0.864974 0.279188
Si Si3 0.188494 0.076146 0.028230
Si Si4 0.688100 0.578661 0.916790
Si Si5 0.339889 0.773976 0.417923
Si Si6 0.312835 0.422949 0.228064
Si Si7 0.925434 0.817933 0.536297
Si Si8 0.076036 0.280156 0.774149
O O1 0.260535 0.739466 0.740293
O O2 0.389630 0.744935 0.819766
O O3 0.359168 0.785415 0.575429
O O4 0.328263 0.858114 0.789976
O O5 0.795335 0.795335 0.249334
O O6 0.751384 0.905093 0.136219
O O7 0.684007 0.844399 0.345848
O O8 0.798762 0.912193 0.380751
O O9 0.123810 0.123810 0.049103
O O10 0.163216 0.000000 0.054201
O O11 0.218463 0.083665 0.878510
O O12 0.677751 0.500000 0.879494
O O13 0.616296 0.616296 0.893134
O O14 0.712329 0.588348 0.072937
O O15 0.279458 0.720543 0.411107
O O16 0.403981 0.747301 0.332227
O O17 0.333971 0.500000 0.253533
O O18 0.379253 0.379253 0.260171
O O19 0.872960 0.872960 0.592064
O O20 0.917828 0.749811 0.623230
O O21 0.000000 0.849655 0.549994
O O22 0.000000 0.314404 0.792599
#
# Coordination Sequence:
#
# PCOD8306419 Si02
#       8
#     8   8   8   8   8   8   8   8
#     4  10  18  31  52  74 100 132 171 216 259 299
#     4   9  17  29  44  63  88 117 153 198 249 289
#     4  10  20  31  44  64  91 124 161 201 249 307
#     4   9  19  33  52  80 111 142 172 201 236 285
#     4   9  17  29  47  70  94 125 162 205 249 286
#     4   9  18  32  49  75 108 138 168 196 229 279
#     4  10  18  29  44  62  89 122 157 197 245 302
#     4  10  20  32  47  69  96 125 164 212 263 310
#
# _framework density 16.782529
#
# number of rings (size 3 to 8) (size 9 to 14) (size 15 to 20)
#    0.000    2.500    1.250    1.500    1.750    1.000 
#    0.000    1.250    0.000    4.875    0.000    3.500 
#    0.000    2.000    0.000    0.000    0.000    0.000 
#
# Total GULP energy -793183.091761 kJ/mol
# GULP energy per Si atom -12393.485809 kJ/mol
# Density = 1.674433 g / cm^3
# Si number density = 16.782529 Si / 1000 Ang^3
#
#
#
# Elastic Constant Matrix: (Units=GPa)
#
#
# Indices 1 2 3 4 5 6 
#
# 1 86.4504 52.6116 37.3825 0.0000 0.0000 0.0000
# 2 52.6116 86.4504 37.3825 0.0000 0.0000 0.0000
# 3 37.3825 37.3825 78.0812 0.0000 0.0000 0.0000
# 4 0.0000 0.0000 0.0000 22.9547 0.0000 0.0000
# 5 0.0000 0.0000 0.0000 0.0000 22.9547 0.0000
# 6 0.0000 0.0000 0.0000 0.0000 0.0000 17.6610
#
#
#
# Elastic Compliance Matrix: (Units=1/GPa)
#
#
# Indices 1 2 3 4 5 6 
#
# 1 0.019618 -0.009934 -0.004636 0.000000 0.000000 0.000000
# 2 -0.009934 0.019618 -0.004636 0.000000 0.000000 0.000000
# 3 -0.004636 -0.004636 0.017246 0.000000 0.000000 0.000000
# 4 0.000000 0.000000 0.000000 0.043564 0.000000 0.000000
# 5 0.000000 0.000000 0.000000 0.000000 0.043564 0.000000
# 6 0.000000 0.000000 0.000000 0.000000 0.000000 0.056622
#
#
# Mechanical properties :
#
#
# Convention : Reuss Voigt Hill
#
# Bulk Modulus (GPa) = 55.34338 56.19277 55.76808
# Shear Modulus (GPa) = 20.43588 20.95446 20.69517
#
# Velocity S-wave (km/s) = 3.49332 3.53737 3.51542
# Velocity P-wave (km/s) = 7.02278 7.08799 7.05546
#
# Compressibility (1/GPa) = 0.01806901
#
# Stress axis : x y z
#
# Youngs Moduli (GPa) = 50.97426 50.97426 57.98295
#
# Poissons Ratio (x) = 0.50638 0.26882
# Poissons Ratio (y) = 0.50638 0.26882
# Poissons Ratio (z) = 0.23633 0.23633
#
# Static dielectric constant tensor:
#      x y z
#    x 3.015450 0.000000 0.000000 
#    y 0.000000 3.015450 0.000000 
#    z 0.000000 0.000000 3.324390 
# 
# 
# High freq. dielectric constant tensor:
#      x y z
#    x 1.619860 0.000000 0.000000 
#    y 0.000000 1.619860 0.000000 
#    z 0.000000 0.000000 1.663560 
# 
# From -- ./inp_files/1174.got.cif
#   From: 2010.03.12/outbox.cif.g09.slc.cpg/sg99_cif.got.tgz:1174.got - 2010.04.08 21:11:30.
