data_PCOD8306681
_publ_section_title
;
Structure prediction by ZEFSAII (Michael W. Deem and Ramdas Pophale) SiO2 
 PCOD8306681
Probable space group: P 4 B M
;
_chemical_formula_sum "Si O2"
_cell_formula_units_Z 56
_cell_length_a 13.424091
_cell_length_b 13.424091
_cell_length_c 15.991718
_cell_angle_alpha 90.000000
_cell_angle_beta 90.000000
_cell_angle_gamma 90.000000
_cell_volume 2881.807039
_symmetry_space_group_name_H-M "P 4 B M"
_symmetry_group_IT_number 100
_symmetry_cell_setting 'tetragonal'
loop_
_space_group_symop_operation_xyz
x,y,z
-y,x,z
-x,-y,z
y,-x,z
1/2-x,1/2+y,z
1/2+x,1/2-y,z
1/2-y,1/2-x,z
1/2+y,1/2+x,z
loop_
_atom_site_type_symbol
_atom_site_label
_atom_site_fract_x
_atom_site_fract_y
_atom_site_fract_z
Si Si1 0.386798 0.731565 0.947610
Si Si2 0.334145 0.500000 0.702294
Si Si3 0.584291 0.250132 0.540503
Si Si4 0.121974 0.889903 0.110991
Si Si5 0.731565 0.386798 0.456977
Si Si6 0.389903 0.378026 0.293596
Si Si7 0.084291 0.750132 0.864084
O O1 0.339873 0.839873 0.935398
O O2 0.505348 0.746316 0.940605
O O3 0.344838 0.657027 0.875879
O O4 0.346841 0.688913 0.036449
O O5 0.401728 0.401728 0.702294
O O6 0.261138 0.483343 0.623503
O O7 0.261138 0.516657 0.781084
O O8 0.647240 0.147240 0.541193
O O9 0.657027 0.344838 0.528708
O O10 0.505348 0.253684 0.463983
O O11 0.153548 0.846452 0.202294
O O12 0.007422 0.862594 0.101775
O O13 0.839873 0.339873 0.469190
O O14 0.688913 0.346841 0.368139
O O15 0.507422 0.362594 0.302812
O O16 0.147240 0.647240 0.863394
#
# Coordination Sequence:
#
# PCOD8306681 Si02
#       7
#     8   8   8   8   8   8   8
#     4  11  22  37  60  87 120 161 201 247 302 371
#     4  11  22  38  64  91 112 154 207 256 308 365
#     4  11  24  40  61  90 121 154 201 256 308 367
#     4   9  17  31  56  88 118 150 197 254 304 346
#     4  11  22  37  60  87 120 161 201 247 302 371
#     4   9  17  31  56  88 118 150 197 254 304 346
#     4  11  24  40  61  90 121 154 201 256 308 367
#
# _framework density 19.432251999999998
#
# number of rings (size 3 to 8) (size 9 to 14) (size 15 to 20)
#    0.000    1.571    5.714    0.857    0.000    3.429 
#    0.000    0.000    0.000    0.000    0.000    0.000 
#    0.000    0.000    0.000    0.000    0.000    0.000 
#
# Total GULP energy -693832.580508 kJ/mol
# GULP energy per Si atom -12389.867509 kJ/mol
# Density = 1.938802 g / cm^3
# Si number density = 19.432252 Si / 1000 Ang^3
#
#
#
# Elastic Constant Matrix: (Units=GPa)
#
#
# Indices 1 2 3 4 5 6 
#
# 1 86.2385 49.9511 30.1276 0.0000 0.0000 0.0000
# 2 49.9511 86.2385 30.1276 0.0000 0.0000 0.0000
# 3 30.1276 30.1276 112.3764 0.0000 0.0000 0.0000
# 4 0.0000 0.0000 0.0000 19.3719 0.0000 0.0000
# 5 0.0000 0.0000 0.0000 0.0000 19.3719 0.0000
# 6 0.0000 0.0000 0.0000 0.0000 0.0000 26.4077
#
#
#
# Elastic Compliance Matrix: (Units=1/GPa)
#
#
# Indices 1 2 3 4 5 6 
#
# 1 0.017944 -0.009613 -0.002233 0.000000 0.000000 0.000000
# 2 -0.009613 0.017944 -0.002233 0.000000 0.000000 0.000000
# 3 -0.002233 -0.002233 0.010096 0.000000 0.000000 0.000000
# 4 0.000000 0.000000 0.000000 0.051621 0.000000 0.000000
# 5 0.000000 0.000000 0.000000 0.000000 0.051621 0.000000
# 6 0.000000 0.000000 0.000000 0.000000 0.000000 0.037868
#
#
# Mechanical properties :
#
#
# Convention : Reuss Voigt Hill
#
# Bulk Modulus (GPa) = 56.10379 56.14064 56.12222
# Shear Modulus (GPa) = 22.60428 24.67344 23.63886
#
# Velocity S-wave (km/s) = 3.41432 3.56717 3.49159
# Velocity P-wave (km/s) = 6.66916 6.77639 6.72299
#
# Compressibility (1/GPa) = 0.01782411
#
# Stress axis : x y z
#
# Youngs Moduli (GPa) = 55.72797 55.72797 99.04685
#
# Poissons Ratio (x) = 0.53574 0.22122
# Poissons Ratio (y) = 0.53574 0.22122
# Poissons Ratio (z) = 0.12447 0.12447
#
# Static dielectric constant tensor:
#      x y z
#    x 3.242090 0.000000 0.000000 
#    y 0.000000 3.242090 0.000000 
#    z 0.000000 0.000000 3.751190 
# 
# 
# High freq. dielectric constant tensor:
#      x y z
#    x 1.734710 0.000000 0.000000 
#    y 0.000000 1.734710 0.000000 
#    z 0.000000 0.000000 1.767740 
# 
# From -- ./inp_files/1427.got.cif
#   From: 2010.03.12/outbox.cif.g09.slc.cpg/sg100_cif.got.tgz:1427.got - 2010.04.14 01:37:57.
