data_PCOD8306871
_publ_section_title
;
Structure prediction by ZEFSAII (Michael W. Deem and Ramdas Pophale) SiO2 
 PCOD8306871
Probable space group: P 42 N M
;
_chemical_formula_sum "Si O2"
_cell_formula_units_Z 56
_cell_length_a 11.681987
_cell_length_b 11.681987
_cell_length_c 22.994006
_cell_angle_alpha 90.000000
_cell_angle_beta 90.000000
_cell_angle_gamma 90.000000
_cell_volume 3137.964872
_symmetry_space_group_name_H-M "P 42 N M"
_symmetry_group_IT_number 102
_symmetry_cell_setting 'tetragonal'
loop_
_space_group_symop_operation_xyz
x,y,z
1/2-y,1/2+x,1/2+z
-x,-y,z
1/2+y,1/2-x,1/2+z
1/2-x,1/2+y,1/2+z
1/2+x,1/2-y,1/2+z
-y,-x,z
y,x,z
loop_
_atom_site_type_symbol
_atom_site_label
_atom_site_fract_x
_atom_site_fract_y
_atom_site_fract_z
Si Si1 0.498735 0.686541 0.185770
Si Si2 0.938157 0.244849 0.813757
Si Si3 0.346499 0.164508 0.493944
Si Si4 0.726198 0.905816 0.367345
Si Si5 0.279391 0.098912 0.005779
Si Si6 0.156648 0.339341 0.880308
Si Si7 0.524759 0.873239 0.088267
O O1 0.377687 0.622314 0.181405
O O2 0.601302 0.601302 0.170746
O O3 0.511131 0.738762 0.249545
O O4 0.500618 0.788072 0.140171
O O5 0.879284 0.120717 0.831209
O O6 0.838653 0.339991 0.815398
O O7 0.037495 0.289831 0.856057
O O8 0.243903 0.243903 0.515508
O O9 0.334072 0.129910 0.427188
O O10 0.463226 0.235078 0.501871
O O11 0.345129 0.052599 0.532897
O O12 0.860056 0.860056 0.367757
O O13 0.704648 0.039756 0.356213
O O14 0.153178 0.153178 0.008002
O O15 0.346108 0.135892 0.064289
O O16 0.348885 0.145743 0.949818
O O17 0.251094 0.251094 0.859583
O O18 0.500000 0.000000 0.112246
#
# Coordination Sequence:
#
# PCOD8306871 Si02
#       7
#     8   8   8   8   8   8   8
#     4  10  21  38  57  80 112 144 180 231 278 320
#     4  10  21  36  57  82 108 143 187 227 275 332
#     4  10  19  33  52  75 104 141 182 225 267 319
#     4  10  20  35  54  76 107 145 185 227 271 324
#     4  10  20  32  49  76 107 140 179 222 268 324
#     4  11  21  33  53  78 110 146 179 226 278 327
#     4  10  20  34  55  78 108 142 186 221 265 325
#
# _framework density 17.845962
#
# number of rings (size 3 to 8) (size 9 to 14) (size 15 to 20)
#    0.000    1.857    2.857    1.714    0.000    2.571 
#    0.000    1.429    0.000    0.000    0.000    0.000 
#    0.000    6.857    0.000    0.000    0.000    0.000 
#
# Total GULP energy -694083.665079 kJ/mol
# GULP energy per Si atom -12394.351162 kJ/mol
# Density = 1.780534 g / cm^3
# Si number density = 17.845962 Si / 1000 Ang^3
#
#
#
# Elastic Constant Matrix: (Units=GPa)
#
#
# Indices 1 2 3 4 5 6 
#
# 1 67.4810 29.6276 18.3013 0.0000 0.0000 -0.0002
# 2 29.6276 67.4810 18.3013 0.0000 0.0000 0.0002
# 3 18.3013 18.3013 59.6186 0.0000 0.0000 0.0000
# 4 0.0000 0.0000 0.0000 19.9480 0.0000 0.0000
# 5 0.0000 0.0000 0.0000 0.0000 19.9480 0.0000
# 6 -0.0002 0.0002 0.0000 0.0000 0.0000 22.7190
#
#
#
# Elastic Compliance Matrix: (Units=1/GPa)
#
#
# Indices 1 2 3 4 5 6 
#
# 1 0.019031 -0.007386 -0.003575 0.000000 0.000000 0.000000
# 2 -0.007386 0.019031 -0.003575 0.000000 0.000000 0.000000
# 3 -0.003575 -0.003575 0.018968 0.000000 0.000000 0.000000
# 4 0.000000 0.000000 0.000000 0.050130 0.000000 0.000000
# 5 0.000000 0.000000 0.000000 0.000000 0.050130 0.000000
# 6 0.000000 0.000000 0.000000 0.000000 0.000000 0.044016
#
#
# Mechanical properties :
#
#
# Convention : Reuss Voigt Hill
#
# Bulk Modulus (GPa) = 35.76626 36.33789 36.05207
# Shear Modulus (GPa) = 20.85950 21.07969 20.96960
#
# Velocity S-wave (km/s) = 3.42257 3.44059 3.43159
# Velocity P-wave (km/s) = 5.97527 6.01579 5.99556
#
# Compressibility (1/GPa) = 0.02795931
#
# Stress axis : x y z
#
# Youngs Moduli (GPa) = 52.54466 52.54466 52.72035
#
# Poissons Ratio (x) = 0.38811 0.18846
# Poissons Ratio (y) = 0.38811 0.18846
# Poissons Ratio (z) = 0.18783 0.18783
#
# Static dielectric constant tensor:
#      x y z
#    x 3.388320 0.000000 0.000000 
#    y 0.000000 3.388320 0.000000 
#    z 0.000000 0.000000 3.172960 
# 
# 
# High freq. dielectric constant tensor:
#      x y z
#    x 1.692770 0.000000 0.000000 
#    y 0.000000 1.692770 0.000000 
#    z 0.000000 0.000000 1.673090 
# 
# From -- ./inp_files/3107.got.cif
#   From: 2010.03.12/outbox.cif.g09.slc.cpg/sg102_2_cif.got.tgz:3107.got - 2010.04.14 01:40:42.
