data_PCOD8306715
_publ_section_title
;
Structure prediction by ZEFSAII (Michael W. Deem and Ramdas Pophale) SiO2 
 PCOD8306715
Probable space group: P 42 C M
;
_chemical_formula_sum "Si O2"
_cell_formula_units_Z 36
_cell_length_a 14.066476
_cell_length_b 14.066476
_cell_length_c 9.796362
_cell_angle_alpha 90.000000
_cell_angle_beta 90.000000
_cell_angle_gamma 90.000000
_cell_volume 1938.364486
_symmetry_space_group_name_H-M "P 42 C M"
_symmetry_group_IT_number 101
_symmetry_cell_setting 'tetragonal'
loop_
_space_group_symop_operation_xyz
x,y,z
-y,x,1/2+z
-x,-y,z
y,-x,1/2+z
-x,y,1/2+z
x,-y,1/2+z
-y,-x,z
y,x,z
loop_
_atom_site_type_symbol
_atom_site_label
_atom_site_fract_x
_atom_site_fract_y
_atom_site_fract_z
Si Si1 0.689484 0.053445 0.300130
Si Si2 0.500000 0.000000 0.931006
Si Si3 0.750763 0.402165 0.269091
Si Si4 0.250763 0.097835 0.092921
Si Si5 0.553445 0.810516 0.061882
O O1 0.592043 0.998129 0.334752
O O2 0.664547 0.157695 0.242541
O O3 0.752561 0.063413 0.436323
O O4 0.747921 0.994893 0.188594
O O5 0.501871 0.092042 0.027262
O O6 0.656430 0.343571 0.233730
O O7 0.747440 0.436588 0.425689
O O8 0.752079 0.494894 0.173418
O O9 0.156429 0.156429 0.128283
O O10 0.342305 0.164547 0.119471
#
# Coordination Sequence:
#
# PCOD8306715 Si02
#       5
#     8   4   8   8   8
#     4  10  18  32  53  80 107 135 170 215 264 308
#     4   8  16  30  52  82 104 126 164 222 272 306
#     4  10  20  35  55  78 106 137 171 215 262 310
#     4  10  20  35  55  78 106 137 171 215 262 310
#     4  10  18  32  53  80 107 135 170 215 264 308
#
# _framework density 18.572358999999999
#
# number of rings (size 3 to 8) (size 9 to 14) (size 15 to 20)
#    0.000    2.667    0.000    8.000    0.000    1.778 
#    0.000   12.222    0.000   10.667    0.000    0.000 
#    0.000    0.000    0.000    0.000    0.000    0.000 
#
# Total GULP energy -446379.532571 kJ/mol
# GULP energy per Si atom -12399.431460 kJ/mol
# Density = 1.853009 g / cm^3
# Si number density = 18.572359 Si / 1000 Ang^3
#
#
#
# Elastic Constant Matrix: (Units=GPa)
#
#
# Indices 1 2 3 4 5 6 
#
# 1 46.4986 37.3070 36.9525 0.0000 0.0000 0.0000
# 2 37.3070 46.4986 36.9525 0.0000 0.0000 0.0000
# 3 36.9525 36.9525 91.4166 0.0000 0.0000 0.0000
# 4 0.0000 0.0000 0.0000 9.6481 0.0000 0.0000
# 5 0.0000 0.0000 0.0000 0.0000 9.6481 0.0000
# 6 0.0000 0.0000 0.0000 0.0000 0.0000 38.4141
#
#
#
# Elastic Compliance Matrix: (Units=1/GPa)
#
#
# Indices 1 2 3 4 5 6 
#
# 1 0.063668 -0.045126 -0.007495 0.000000 0.000000 0.000000
# 2 -0.045126 0.063668 -0.007495 0.000000 0.000000 0.000000
# 3 -0.007495 -0.007495 0.016998 0.000000 0.000000 0.000000
# 4 0.000000 0.000000 0.000000 0.103647 0.000000 0.000000
# 5 0.000000 0.000000 0.000000 0.000000 0.103647 0.000000
# 6 0.000000 0.000000 0.000000 0.000000 0.000000 0.026032
#
#
# Mechanical properties :
#
#
# Convention : Reuss Voigt Hill
#
# Bulk Modulus (GPa) = 41.49035 45.20422 43.34729
# Shear Modulus (GPa) = 9.88281 16.42217 13.15249
#
# Velocity S-wave (km/s) = 2.30928 2.97682 2.66404
# Velocity P-wave (km/s) = 5.43127 6.01728 5.73177
#
# Compressibility (1/GPa) = 0.02410199
#
# Stress axis : x y z
#
# Youngs Moduli (GPa) = 15.70636 15.70636 58.82954
#
# Poissons Ratio (x) = 0.70877 0.44093
# Poissons Ratio (y) = 0.70877 0.44093
# Poissons Ratio (z) = 0.11772 0.11772
#
# Static dielectric constant tensor:
#      x y z
#    x 3.178110 0.000000 0.000000 
#    y 0.000000 3.178110 0.000000 
#    z 0.000000 0.000000 3.414820 
# 
# 
# High freq. dielectric constant tensor:
#      x y z
#    x 1.696040 0.000000 0.000000 
#    y 0.000000 1.696040 0.000000 
#    z 0.000000 0.000000 1.724760 
# 
# From -- ./inp_files/522.got.cif
#   From: 2010.03.12/outbox.cif.g09.slc.cpg/sg101_1_cif.got.tgz:522.got - 2010.04.14 01:38:52.
