data_PCOD8306599
_publ_section_title
;
Structure prediction by ZEFSAII (Michael W. Deem and Ramdas Pophale) SiO2 
 PCOD8306599
Probable space group: P 4 M M
;
_chemical_formula_sum "Si O2"
_cell_formula_units_Z 64
_cell_length_a 13.316175
_cell_length_b 13.316175
_cell_length_c 20.281191
_cell_angle_alpha 90.000000
_cell_angle_beta 90.000000
_cell_angle_gamma 90.000000
_cell_volume 3596.271266
_symmetry_space_group_name_H-M "P 4 M M"
_symmetry_group_IT_number 99
_symmetry_cell_setting 'tetragonal'
loop_
_space_group_symop_operation_xyz
x,y,z
-y,x,z
-x,-y,z
y,-x,z
-x,y,z
x,-y,z
-y,-x,z
y,x,z
loop_
_atom_site_type_symbol
_atom_site_label
_atom_site_fract_x
_atom_site_fract_y
_atom_site_fract_z
Si Si1 0.884976 0.276847 0.090640
Si Si2 0.115295 0.722689 0.241356
Si Si3 0.219273 0.616660 0.355302
Si Si4 0.615617 0.115091 0.727650
Si Si5 0.615496 0.780349 0.977009
Si Si6 0.116684 0.718293 0.475756
Si Si7 0.221393 0.382404 0.593291
Si Si8 0.278189 0.117155 0.861332
O O1 0.828148 0.171853 0.078241
O O2 0.873567 0.313067 0.165947
O O3 0.000000 0.257909 0.071409
O O4 0.838092 0.363129 0.045222
O O5 0.172031 0.827970 0.253952
O O6 0.163918 0.636025 0.285911
O O7 0.000000 0.740580 0.260796
O O8 0.244241 0.500000 0.362477
O O9 0.324389 0.675611 0.359620
O O10 0.145043 0.651435 0.412914
O O11 0.500000 0.130739 0.746480
O O12 0.646254 0.182323 0.665630
O O13 0.680241 0.149347 0.790128
O O14 0.637339 0.000000 0.709049
O O15 0.500000 0.749848 0.974497
O O16 0.677965 0.677965 0.971754
O O17 0.640687 0.853840 0.916482
O O18 0.177543 0.822458 0.476054
O O19 0.139003 0.653543 0.540873
O O20 0.000000 0.745775 0.473312
O O21 0.240561 0.500000 0.585167
O O22 0.326744 0.326744 0.580312
O O23 0.174130 0.174130 0.874905
O O24 0.255636 0.000000 0.865280
#
# Coordination Sequence:
#
# PCOD8306599 Si02
#       8
#     8   8   8   8   8   8   8   8
#     4   9  18  32  50  74 103 133 165 201 241 287
#     4   9  18  32  50  74 103 133 166 203 243 289
#     4  10  21  36  53  74 100 130 166 207 248 291
#     4   9  17  30  50  74  97 125 164 207 249 292
#     4  10  21  36  53  73  97 125 160 203 248 294
#     4  10  21  36  54  77 103 130 162 200 243 293
#     4  10  20  33  50  73 101 133 169 208 248 290
#     4  10  20  33  50  73 101 132 165 201 241 287
#
# _framework density 17.796212000000001
#
# number of rings (size 3 to 8) (size 9 to 14) (size 15 to 20)
#    0.000    2.375    0.000    2.250    0.000    5.125 
#    0.000    2.500    0.000    6.750    0.000    7.000 
#    0.000    0.000    0.000    0.000    0.000    0.000 
#
# Total GULP energy -793775.414656 kJ/mol
# GULP energy per Si atom -12402.740854 kJ/mol
# Density = 1.775571 g / cm^3
# Si number density = 17.796212 Si / 1000 Ang^3
#
#
#
# Elastic Constant Matrix: (Units=GPa)
#
#
# Indices 1 2 3 4 5 6 
#
# 1 113.7618 45.7420 50.8229 0.0000 0.0000 -0.0001
# 2 45.7420 113.7618 50.8229 0.0000 0.0000 0.0001
# 3 50.8229 50.8229 102.5361 0.0000 0.0000 0.0000
# 4 0.0000 0.0000 0.0000 24.4985 0.0000 0.0000
# 5 0.0000 0.0000 0.0000 0.0000 24.4985 0.0000
# 6 -0.0001 0.0001 0.0000 0.0000 0.0000 14.2975
#
#
#
# Elastic Compliance Matrix: (Units=1/GPa)
#
#
# Indices 1 2 3 4 5 6 
#
# 1 0.011933 -0.002769 -0.004542 0.000000 0.000000 0.000000
# 2 -0.002769 0.011933 -0.004542 0.000000 0.000000 0.000000
# 3 -0.004542 -0.004542 0.014255 0.000000 0.000000 0.000000
# 4 0.000000 0.000000 0.000000 0.040819 0.000000 0.000000
# 5 0.000000 0.000000 0.000000 0.000000 0.040819 0.000000
# 6 0.000000 0.000000 0.000000 0.000000 0.000000 0.069942
#
#
# Mechanical properties :
#
#
# Convention : Reuss Voigt Hill
#
# Bulk Modulus (GPa) = 69.37408 69.42610 69.40009
# Shear Modulus (GPa) = 22.91343 24.83701 23.87522
#
# Velocity S-wave (km/s) = 3.59213 3.73987 3.66675
# Velocity P-wave (km/s) = 7.50144 7.59903 7.55040
#
# Compressibility (1/GPa) = 0.01441461
#
# Stress axis : x y z
#
# Youngs Moduli (GPa) = 83.80248 83.80248 70.14862
#
# Poissons Ratio (x) = 0.23203 0.31863
# Poissons Ratio (y) = 0.23203 0.31863
# Poissons Ratio (z) = 0.38065 0.38065
#
# Static dielectric constant tensor:
#      x y z
#    x 3.138710 0.000000 0.000000 
#    y 0.000000 3.138710 0.000000 
#    z 0.000000 0.000000 3.523200 
# 
# 
# High freq. dielectric constant tensor:
#      x y z
#    x 1.681070 0.000000 0.000000 
#    y 0.000000 1.681070 0.000000 
#    z 0.000000 0.000000 1.707830 
# 
# From -- ./inp_files/2302.got.cif
#   From: 2010.03.12/outbox.cif.g09.slc.cpg/sg99_cif.got.tgz:2302.got - 2010.04.08 21:11:30.
