data_PCOD8306998
_publ_section_title
;
Structure prediction by ZEFSAII (Michael W. Deem and Ramdas Pophale) SiO2 
 PCOD8306998
Probable space group: P 4 C C
;
_chemical_formula_sum "Si O2"
_cell_formula_units_Z 56
_cell_length_a 11.333251
_cell_length_b 11.333251
_cell_length_c 19.458359
_cell_angle_alpha 90.000000
_cell_angle_beta 90.000000
_cell_angle_gamma 90.000000
_cell_volume 2499.281798
_symmetry_space_group_name_H-M "P 4 C C"
_symmetry_group_IT_number 103
_symmetry_cell_setting 'tetragonal'
loop_
_space_group_symop_operation_xyz
x,y,z
-y,x,z
-x,-y,z
y,-x,z
-x,y,1/2+z
x,-y,1/2+z
-y,-x,1/2+z
y,x,1/2+z
loop_
_atom_site_type_symbol
_atom_site_label
_atom_site_fract_x
_atom_site_fract_y
_atom_site_fract_z
Si Si1 0.135481 0.490413 0.059360
Si Si2 0.139306 0.672272 0.675207
Si Si3 0.877627 0.432342 0.810138
Si Si4 0.697368 0.877829 0.146279
Si Si5 0.181074 0.933264 0.358064
Si Si6 0.696761 0.488899 0.928528
Si Si7 0.823508 0.927578 0.012896
O O1 0.157431 0.363038 0.094821
O O2 0.158484 0.563107 0.130926
O O3 0.000000 0.500000 0.032331
O O4 0.225019 0.513795 0.997335
O O5 0.164548 0.565225 0.730389
O O6 0.226608 0.782874 0.688557
O O7 0.002251 0.712550 0.685416
O O8 0.894405 0.291370 0.814059
O O9 0.779699 0.485293 0.861154
O O10 0.000000 0.500000 0.823196
O O11 0.726775 0.885297 0.065159
O O12 0.223872 0.913188 0.436018
O O13 0.068822 0.851135 0.343065
O O14 0.623429 0.610287 0.927320
O O15 0.937168 0.849993 0.026999
#
# Coordination Sequence:
#
# PCOD8306998 Si02
#       7
#     8   8   8   8   8   8   8
#     4  10  22  43  67 100 134 171 218 276 347 409
#     4  11  26  40  65  96 136 177 224 273 338 416
#     4  12  27  45  67  95 139 187 229 287 347 416
#     4  11  20  38  63  95 130 177 216 273 336 408
#     4   9  21  39  64 100 137 181 228 283 348 423
#     4  11  26  47  73 100 128 172 235 293 343 408
#     4   9  16  31  56  89 127 160 210 271 333 395
#
# _framework density 22.406435999999999
#
# number of rings (size 3 to 8) (size 9 to 14) (size 15 to 20)
#    0.000    1.571    1.429    4.286    4.000    2.571 
#    0.000    0.000    0.000    1.714    0.000    0.000 
#    0.000    0.000    0.000    0.000    0.000    0.000 
#
# Total GULP energy -693871.933330 kJ/mol
# GULP energy per Si atom -12390.570238 kJ/mol
# Density = 2.235544 g / cm^3
# Si number density = 22.406436 Si / 1000 Ang^3
#
#
#
# Elastic Constant Matrix: (Units=GPa)
#
#
# Indices 1 2 3 4 5 6 
#
# 1 96.9440 47.9636 48.0034 0.0000 0.0000 0.0000
# 2 47.9636 96.9440 48.0034 0.0000 0.0000 0.0000
# 3 48.0034 48.0034 110.9920 0.0000 0.0000 0.0000
# 4 0.0000 0.0000 0.0000 29.0459 0.0000 0.0000
# 5 0.0000 0.0000 0.0000 0.0000 29.0459 0.0000
# 6 0.0000 0.0000 0.0000 0.0000 0.0000 34.1017
#
#
#
# Elastic Compliance Matrix: (Units=1/GPa)
#
#
# Indices 1 2 3 4 5 6 
#
# 1 0.015044 -0.005372 -0.004183 0.000000 0.000000 0.000000
# 2 -0.005372 0.015044 -0.004183 0.000000 0.000000 0.000000
# 3 -0.004183 -0.004183 0.012628 0.000000 0.000000 0.000000
# 4 0.000000 0.000000 0.000000 0.034428 0.000000 0.000000
# 5 0.000000 0.000000 0.000000 0.000000 0.034428 0.000000
# 6 0.000000 0.000000 0.000000 0.000000 0.000000 0.029324
#
#
# Mechanical properties :
#
#
# Convention : Reuss Voigt Hill
#
# Bulk Modulus (GPa) = 65.61682 65.86902 65.74292
# Shear Modulus (GPa) = 28.82595 29.16599 28.99597
#
# Velocity S-wave (km/s) = 3.59068 3.61179 3.60125
# Velocity P-wave (km/s) = 6.82195 6.84504 6.83350
#
# Compressibility (1/GPa) = 0.01523999
#
# Stress axis : x y z
#
# Youngs Moduli (GPa) = 66.46972 66.46972 79.18787
#
# Poissons Ratio (x) = 0.35707 0.33127
# Poissons Ratio (y) = 0.35707 0.33127
# Poissons Ratio (z) = 0.27806 0.27806
#
# Static dielectric constant tensor:
#      x y z
#    x 4.112980 0.000000 0.000000 
#    y 0.000000 4.112980 0.000000 
#    z 0.000000 0.000000 4.019930 
# 
# 
# High freq. dielectric constant tensor:
#      x y z
#    x 1.881600 0.000000 0.000000 
#    y 0.000000 1.881600 0.000000 
#    z 0.000000 0.000000 1.892950 
# 
# From -- ./inp_files/1279.got.cif
#   From: 2010.03.12/outbox.cif.g09.slc.cpg/sg103_cif.got.tgz:1279.got - 2010.04.14 01:42:52.
