data_PCOD8306177
_publ_section_title
;
Structure prediction by ZEFSAII (Michael W. Deem and Ramdas Pophale) SiO2 
 PCOD8306177
Probable space group: I 4 2 2 
;
_chemical_formula_sum "Si O2"
_cell_formula_units_Z 112
_cell_length_a 14.234909
_cell_length_b 14.234909
_cell_length_c 25.753959
_cell_angle_alpha 90.000000
_cell_angle_beta 90.000000
_cell_angle_gamma 90.000000
_cell_volume 5218.592554
_symmetry_space_group_name_H-M "I 4 2 2 "
_symmetry_group_IT_number 97
_symmetry_cell_setting 'tetragonal'
loop_
_space_group_symop_operation_xyz
x,y,z
-y,x,z
-x,-y,z
y,-x,z
x,-y,-z
-x,y,-z
y,x,-z
-y,-x,-z
1/2+x,1/2+y,1/2+z
1/2-y,1/2+x,1/2+z
1/2-x,1/2-y,1/2+z
1/2+y,1/2-x,1/2+z
1/2+x,1/2-y,1/2-z
1/2-x,1/2+y,1/2-z
1/2+y,1/2+x,1/2-z
1/2-y,1/2-x,1/2-z
loop_
_atom_site_type_symbol
_atom_site_label
_atom_site_fract_x
_atom_site_fract_y
_atom_site_fract_z
Si Si1 0.935086 0.137719 0.760711
Si Si2 0.241294 0.589964 0.646882
Si Si3 0.109533 0.259155 0.510848
Si Si4 0.261469 0.080037 0.373623
Si Si5 0.099857 0.243427 0.026723
Si Si6 0.121314 0.227123 0.339144
Si Si7 0.409278 0.945899 0.810566
O O1 0.911035 0.163725 0.819853
O O2 0.905458 0.221325 0.721632
O O3 0.044385 0.123160 0.749718
O O4 0.271960 0.576426 0.587328
O O5 0.193746 0.690167 0.652759
O O6 0.179092 0.508533 0.673308
O O7 0.159191 0.159191 0.500000
O O8 0.121277 0.288499 0.570532
O O9 0.159768 0.341193 0.477741
O O10 0.000000 0.250024 0.500000
O O11 0.165691 0.128252 0.355247
O O12 0.345563 0.106266 0.335842
O O13 0.244621 0.968498 0.375660
O O14 0.158131 0.158131 0.000000
O O15 0.000000 0.254461 0.000000
O O16 0.425109 0.925109 0.750000
O O17 0.500000 0.000000 0.833281
#
# Coordination Sequence:
#
# PCOD8306177 Si02
#       7
#    16  16  16  16  16  16  16
#     4  11  26  45  65 101 142 180 231 284 341 424
#     4  12  26  44  74  99 140 187 234 288 356 418
#     4  11  24  45  67 100 137 177 237 298 348 420
#     4  12  24  43  70  94 138 180 227 286 352 413
#     4  11  26  48  72 104 141 181 244 301 355 424
#     4  12  24  43  68 103 135 187 229 277 354 422
#     4  11  25  43  67 104 141 176 230 286 344 427
#
# _framework density 21.461724
#
# number of rings (size 3 to 8) (size 9 to 14) (size 15 to 20)
#    0.000    0.571    2.857    5.571    6.000    0.857 
#    0.000    1.429    0.000    0.000    0.000    0.000 
#    0.000    0.000    0.000    0.000    0.000    0.000 
#
# Total GULP energy -694532.610991 kJ/mol
# GULP energy per Si atom -12402.368053 kJ/mol
# Density = 2.141288 g / cm^3
# Si number density = 21.461724 Si / 1000 Ang^3
#
#
#
# Elastic Constant Matrix: (Units=GPa)
#
#
# Indices 1 2 3 4 5 6 
#
# 1 55.2848 59.9510 16.5238 0.0000 0.0000 0.0000
# 2 59.9510 55.2848 16.5238 0.0000 0.0000 0.0000
# 3 16.5238 16.5238 142.2436 0.0000 0.0000 0.0000
# 4 0.0000 0.0000 0.0000 30.3033 0.0000 0.0000
# 5 0.0000 0.0000 0.0000 0.0000 30.3033 0.0000
# 6 0.0000 0.0000 0.0000 0.0000 0.0000 -30.0850
#
#
#
# Elastic Compliance Matrix: (Units=1/GPa)
#
#
# Indices 1 2 3 4 5 6 
#
# 1 -0.102665 0.111642 -0.001043 0.000000 0.000000 0.000000
# 2 0.111642 -0.102665 -0.001043 0.000000 0.000000 0.000000
# 3 -0.001043 -0.001043 0.007272 0.000000 0.000000 0.000000
# 4 0.000000 0.000000 0.000000 0.033000 0.000000 0.000000
# 5 0.000000 0.000000 0.000000 0.000000 0.033000 0.000000
# 6 0.000000 0.000000 0.000000 0.000000 0.000000 -0.033239
#
#
# Mechanical properties :
#
#
# Convention : Reuss Voigt Hill
#
# Bulk Modulus (GPa) = 47.49447 48.75668 48.12557
# Shear Modulus (GPa) = -13.24887 16.75863 1.75488
#
# Velocity S-wave (km/s) = -2.48730 2.79742 0.90524
# Velocity P-wave (km/s) = 3.73216 5.76206 4.85440
#
# Compressibility (1/GPa) = 0.02105508
#
# Stress axis : x y z
#
# Youngs Moduli (GPa) = -9.74044 -9.74044 137.50487
#
# Poissons Ratio (x) = 1.08744 0.14339
# Poissons Ratio (y) = 1.08744 0.14339
# Poissons Ratio (z) = -0.01016 -0.01016
#
# Static dielectric constant tensor:
#      x y z
#    x 4.044030 0.000000 0.000000 
#    y 0.000000 4.044030 0.000000 
#    z 0.000000 0.000000 4.128400 
# 
# 
# High freq. dielectric constant tensor:
#      x y z
#    x 1.847510 0.000000 0.000000 
#    y 0.000000 1.847510 0.000000 
#    z 0.000000 0.000000 1.857200 
# 
# From -- ./inp_files/7246.got.cif
#   From: 2010.03.12/outbox.cif.g09.slc.cpg/sg97_4_cif.got.tgz:7246.got - 2010.04.08 20:59:42.
