data_PCOD8306413
_publ_section_title
;
Structure prediction by ZEFSAII (Michael W. Deem and Ramdas Pophale) SiO2 
 PCOD8306413
Probable space group: P 4 M M
;
_chemical_formula_sum "Si O2"
_cell_formula_units_Z 64
_cell_length_a 17.479310
_cell_length_b 17.479310
_cell_length_c 13.503674
_cell_angle_alpha 90.000000
_cell_angle_beta 90.000000
_cell_angle_gamma 90.000000
_cell_volume 4125.727258
_symmetry_space_group_name_H-M "P 4 M M"
_symmetry_group_IT_number 99
_symmetry_cell_setting 'tetragonal'
loop_
_space_group_symop_operation_xyz
x,y,z
-y,x,z
-x,-y,z
y,-x,z
-x,y,z
x,-y,z
-y,-x,z
y,x,z
loop_
_atom_site_type_symbol
_atom_site_label
_atom_site_fract_x
_atom_site_fract_y
_atom_site_fract_z
Si Si1 0.701984 0.584063 0.800730
Si Si2 0.087701 0.413470 0.054528
Si Si3 0.692979 0.814435 0.917885
Si Si4 0.195925 0.680930 0.426368
Si Si5 0.085113 0.203556 0.535509
Si Si6 0.272248 0.148354 0.714014
Si Si7 0.793961 0.414013 0.613448
Si Si8 0.913081 0.587952 0.287231
O O1 0.702394 0.500000 0.846689
O O2 0.618072 0.618072 0.816477
O O3 0.763949 0.631701 0.860415
O O4 0.719277 0.583556 0.683152
O O5 0.113113 0.500000 0.024629
O O6 0.138632 0.348318 0.003529
O O7 0.000000 0.401045 0.022656
O O8 0.097438 0.402082 0.170744
O O9 0.760869 0.760869 0.962966
O O10 0.726892 0.870713 0.831742
O O11 0.267720 0.732281 0.387809
O O12 0.134683 0.733759 0.480045
O O13 0.226857 0.618040 0.504519
O O14 0.152109 0.639902 0.336695
O O15 0.119595 0.119595 0.516006
O O16 0.086682 0.221968 0.653672
O O17 0.000000 0.204538 0.493554
O O18 0.233343 0.233343 0.698682
O O19 0.357826 0.145828 0.667923
O O20 0.828834 0.500000 0.603564
O O21 0.900138 0.500000 0.318535
O O22 0.000000 0.612446 0.317699
#
# Coordination Sequence:
#
# PCOD8306413 Si02
#       8
#     8   8   8   8   8   8   8   8
#     4   9  16  25  38  57  82 112 142 170 199 231
#     4   9  18  31  45  62  85 110 134 165 208 254
#     4   9  16  27  44  63  83 108 137 169 203 240
#     4  10  18  28  43  62  84 107 134 169 207 246
#     4   9  17  28  42  60  82 108 135 164 198 236
#     4   8  15  27  40  57  82 110 138 166 197 233
#     4   9  15  24  39  57  79 107 137 166 197 234
#     4   9  18  32  47  62  82 108 137 169 206 249
#
# _framework density 15.512416
#
# number of rings (size 3 to 8) (size 9 to 14) (size 15 to 20)
#    0.000    3.000    0.000    4.500    0.000    1.750 
#    0.000    0.000    0.000    3.375    0.000    3.500 
#    0.000    3.500    0.000   12.000    0.000    5.750 
#
# Total GULP energy -792883.362009 kJ/mol
# GULP energy per Si atom -12388.802531 kJ/mol
# Density = 1.547711 g / cm^3
# Si number density = 15.512416 Si / 1000 Ang^3
#
#
#
# Elastic Constant Matrix: (Units=GPa)
#
#
# Indices 1 2 3 4 5 6 
#
# 1 74.1782 32.3919 29.6788 0.0000 0.0000 0.0000
# 2 32.3919 74.1782 29.6788 0.0000 0.0000 0.0000
# 3 29.6788 29.6788 57.5929 0.0000 0.0000 0.0000
# 4 0.0000 0.0000 0.0000 20.8686 0.0000 0.0000
# 5 0.0000 0.0000 0.0000 0.0000 20.8686 0.0000
# 6 0.0000 0.0000 0.0000 0.0000 0.0000 22.9931
#
#
#
# Elastic Compliance Matrix: (Units=1/GPa)
#
#
# Indices 1 2 3 4 5 6 
#
# 1 0.018546 -0.005385 -0.006782 0.000000 0.000000 0.000000
# 2 -0.005385 0.018546 -0.006782 0.000000 0.000000 0.000000
# 3 -0.006782 -0.006782 0.024353 0.000000 0.000000 0.000000
# 4 0.000000 0.000000 0.000000 0.047919 0.000000 0.000000
# 5 0.000000 0.000000 0.000000 0.000000 0.047919 0.000000
# 6 0.000000 0.000000 0.000000 0.000000 0.000000 0.043491
#
#
# Mechanical properties :
#
#
# Convention : Reuss Voigt Hill
#
# Bulk Modulus (GPa) = 42.46884 43.27203 42.87044
# Shear Modulus (GPa) = 20.28214 20.55938 20.42076
#
# Velocity S-wave (km/s) = 3.61983 3.64449 3.63218
# Velocity P-wave (km/s) = 6.70132 6.75761 6.72952
#
# Compressibility (1/GPa) = 0.02354667
#
# Stress axis : x y z
#
# Youngs Moduli (GPa) = 53.91953 53.91953 41.06236
#
# Poissons Ratio (x) = 0.29036 0.27849
# Poissons Ratio (y) = 0.29036 0.27849
# Poissons Ratio (z) = 0.36569 0.36569
#
# Static dielectric constant tensor:
#      x y z
#    x 2.926140 0.000000 0.000000 
#    y 0.000000 2.926140 0.000000 
#    z 0.000000 0.000000 2.865640 
# 
# 
# High freq. dielectric constant tensor:
#      x y z
#    x 1.582140 0.000000 0.000000 
#    y 0.000000 1.582140 0.000000 
#    z 0.000000 0.000000 1.579210 
# 
# From -- ./inp_files/1626.got.cif
#   From: 2010.03.12/outbox.cif.g09.slc.cpg/sg99_cif.got.tgz:1626.got - 2010.04.08 21:11:30.
