data_PCOD8306792
_publ_section_title
;
Structure prediction by ZEFSAII (Michael W. Deem and Ramdas Pophale) SiO2 
 PCOD8306792
Probable space group: P 42 C M
;
_chemical_formula_sum "Si O2"
_cell_formula_units_Z 40
_cell_length_a 18.478706
_cell_length_b 18.478706
_cell_length_c 5.152112
_cell_angle_alpha 90.000000
_cell_angle_beta 90.000000
_cell_angle_gamma 90.000000
_cell_volume 1759.253432
_symmetry_space_group_name_H-M "P 42 C M"
_symmetry_group_IT_number 101
_symmetry_cell_setting 'tetragonal'
loop_
_space_group_symop_operation_xyz
x,y,z
-y,x,1/2+z
-x,-y,z
y,-x,1/2+z
-x,y,1/2+z
x,-y,1/2+z
-y,-x,z
y,x,z
loop_
_atom_site_type_symbol
_atom_site_label
_atom_site_fract_x
_atom_site_fract_y
_atom_site_fract_z
Si Si1 0.360855 0.179509 0.934940
Si Si2 0.164898 0.045579 0.443703
Si Si3 0.081671 0.471293 0.133715
Si Si4 0.275474 0.838204 0.926219
Si Si5 0.326515 0.550106 0.451654
O O1 0.338282 0.168408 0.638895
O O2 0.417017 0.245611 0.950298
O O3 0.391850 0.100140 0.028185
O O4 0.297816 0.192462 0.143810
O O5 0.102583 0.102583 0.380723
O O6 0.244479 0.080617 0.406984
O O7 0.157003 0.981012 0.238598
O O8 0.119283 0.477251 0.415435
O O9 0.000000 0.500000 0.183651
O O10 0.211779 0.788222 0.035550
O O11 0.338181 0.501965 0.706584
O O12 0.384854 0.615147 0.444356
#
# Coordination Sequence:
#
# PCOD8306792 Si02
#       5
#     8   8   8   8   8
#     4  12  23  43  70  98 130 181 227 273 334 414
#     4  11  24  44  66  97 137 173 223 283 336 404
#     4  10  21  40  59  89 132 172 210 261 314 377
#     4  11  24  43  66  96 134 170 220 287 337 387
#     4  12  26  44  70 100 136 177 231 288 351 423
#
# _framework density 22.736916000000001
#
# number of rings (size 3 to 8) (size 9 to 14) (size 15 to 20)
#    0.000    0.800    0.000    7.800    0.000    5.600 
#   21.600    0.000    0.000    0.000    0.000    0.000 
#    0.000    0.000    0.000    0.000    0.000    0.000 
#
# Total GULP energy -495529.359853 kJ/mol
# GULP energy per Si atom -12388.233996 kJ/mol
# Density = 2.268517 g / cm^3
# Si number density = 22.736916 Si / 1000 Ang^3
#
#
#
# Elastic Constant Matrix: (Units=GPa)
#
#
# Indices 1 2 3 4 5 6 
#
# 1 96.7005 48.5193 19.7237 0.0000 0.0000 -0.0003
# 2 48.5193 96.7005 19.7237 0.0000 0.0000 0.0003
# 3 19.7237 19.7237 134.0516 0.0000 0.0000 0.0000
# 4 0.0000 0.0000 0.0000 32.1408 0.0000 0.0000
# 5 0.0000 0.0000 0.0000 0.0000 32.1408 0.0000
# 6 -0.0003 0.0003 0.0000 0.0000 0.0000 48.9877
#
#
#
# Elastic Compliance Matrix: (Units=1/GPa)
#
#
# Indices 1 2 3 4 5 6 
#
# 1 0.013964 -0.006791 -0.001055 0.000000 0.000000 0.000000
# 2 -0.006791 0.013964 -0.001055 0.000000 0.000000 0.000000
# 3 -0.001055 -0.001055 0.007770 0.000000 0.000000 0.000000
# 4 0.000000 0.000000 0.000000 0.031113 0.000000 0.000000
# 5 0.000000 0.000000 0.000000 0.000000 0.031113 0.000000
# 6 0.000000 0.000000 0.000000 0.000000 0.000000 0.020413
#
#
# Mechanical properties :
#
#
# Convention : Reuss Voigt Hill
#
# Bulk Modulus (GPa) = 55.88313 55.93177 55.90745
# Shear Modulus (GPa) = 35.18496 38.61959 36.90228
#
# Velocity S-wave (km/s) = 3.93807 4.12581 4.03303
# Velocity P-wave (km/s) = 6.73122 6.88108 6.80657
#
# Compressibility (1/GPa) = 0.01789449
#
# Stress axis : x y z
#
# Youngs Moduli (GPa) = 71.61327 71.61327 128.69388
#
# Poissons Ratio (x) = 0.48633 0.13582
# Poissons Ratio (y) = 0.48633 0.13582
# Poissons Ratio (z) = 0.07558 0.07558
#
# Static dielectric constant tensor:
#      x y z
#    x 4.162910 0.000000 0.000000 
#    y 0.000000 4.162910 0.000000 
#    z 0.000000 0.000000 4.572760 
# 
# 
# High freq. dielectric constant tensor:
#      x y z
#    x 1.894990 0.000000 0.000000 
#    y 0.000000 1.894990 0.000000 
#    z 0.000000 0.000000 1.929100 
# 
# From -- ./inp_files/95.got.cif
#   From: 2010.03.12/outbox.cif.g09.slc.cpg/sg101_1_cif.got.tgz:95.got - 2010.04.14 01:38:52.
