data_PCOD8306703
_publ_section_title
;
Structure prediction by ZEFSAII (Michael W. Deem and Ramdas Pophale) SiO2 
 PCOD8306703
Probable space group: P 42 C M
;
_chemical_formula_sum "Si O2"
_cell_formula_units_Z 56
_cell_length_a 12.206352
_cell_length_b 12.206352
_cell_length_c 19.634252
_cell_angle_alpha 90.000000
_cell_angle_beta 90.000000
_cell_angle_gamma 90.000000
_cell_volume 2925.405949
_symmetry_space_group_name_H-M "P 42 C M"
_symmetry_group_IT_number 101
_symmetry_cell_setting 'tetragonal'
loop_
_space_group_symop_operation_xyz
x,y,z
-y,x,1/2+z
-x,-y,z
y,-x,1/2+z
-x,y,1/2+z
x,-y,1/2+z
-y,-x,z
y,x,z
loop_
_atom_site_type_symbol
_atom_site_label
_atom_site_fract_x
_atom_site_fract_y
_atom_site_fract_z
Si Si1 0.997922 0.826720 0.739070
Si Si2 0.082375 0.595215 0.559271
Si Si3 0.744202 0.000080 0.885052
Si Si4 0.207210 0.388094 0.346710
Si Si5 0.388028 0.792902 0.423360
Si Si6 0.173281 0.997918 0.031034
Si Si7 0.404790 0.082381 0.210816
O O1 0.884699 0.884699 0.714647
O O2 0.998557 0.822652 0.820534
O O3 0.010924 0.706517 0.708073
O O4 0.100466 0.899534 0.714574
O O5 0.178966 0.597790 0.503701
O O6 0.131512 0.574497 0.635042
O O7 0.000000 0.500000 0.537377
O O8 0.010901 0.706511 0.562027
O O9 0.666714 0.894061 0.884364
O O10 0.666855 0.106200 0.885742
O O11 0.822653 0.001506 0.949570
O O12 0.314153 0.314153 0.352076
O O13 0.235143 0.500046 0.385037
O O14 0.178971 0.402248 0.266383
O O15 0.313895 0.686106 0.417925
O O16 0.115269 0.884732 0.055491
O O17 0.100506 0.100506 0.055500
O O18 0.500000 0.000000 0.232704
#
# Coordination Sequence:
#
# PCOD8306703 Si02
#       7
#     8   8   8   8   8   8   8
#     4  10  19  30  49  79 113 145 177 220 273 325
#     4  10  21  37  56  79 111 150 187 223 268 330
#     4  10  17  31  52  78 110 143 183 226 272 326
#     4  11  22  36  58  83 109 143 183 232 280 326
#     4  11  22  36  58  83 109 143 183 232 280 326
#     4  10  19  30  49  79 113 145 177 220 273 325
#     4  10  21  37  56  79 111 150 187 223 268 330
#
# _framework density 19.142641999999999
#
# number of rings (size 3 to 8) (size 9 to 14) (size 15 to 20)
#    0.000    1.714    0.000    9.000    0.000    4.286 
#    0.000    1.429    0.000    2.571    0.000    2.000 
#    0.000    0.000    0.000    0.000    0.000    0.000 
#
# Total GULP energy -694312.761839 kJ/mol
# GULP energy per Si atom -12398.442176 kJ/mol
# Density = 1.909907 g / cm^3
# Si number density = 19.142642 Si / 1000 Ang^3
#
#
#
# Elastic Constant Matrix: (Units=GPa)
#
#
# Indices 1 2 3 4 5 6 
#
# 1 137.3140 69.9267 30.1574 0.0000 0.0000 0.0021
# 2 69.9267 137.3140 30.1574 0.0000 0.0000 -0.0021
# 3 30.1574 30.1574 94.3729 0.0000 0.0000 0.0000
# 4 0.0000 0.0000 0.0000 4.2383 0.0000 0.0000
# 5 0.0000 0.0000 0.0000 0.0000 4.2383 0.0000
# 6 0.0021 -0.0021 0.0000 0.0000 0.0000 -10.6029
#
#
#
# Elastic Compliance Matrix: (Units=1/GPa)
#
#
# Indices 1 2 3 4 5 6 
#
# 1 0.010080 -0.004760 -0.001700 0.000000 0.000000 0.000003
# 2 -0.004760 0.010080 -0.001700 0.000000 0.000000 -0.000003
# 3 -0.001700 -0.001700 0.011683 0.000000 0.000000 0.000000
# 4 0.000000 0.000000 0.000000 0.235946 0.000000 0.000000
# 5 0.000000 0.000000 0.000000 0.000000 0.235946 0.000000
# 6 0.000003 -0.000003 0.000000 0.000000 0.000000 -0.094314
#
#
# Mechanical properties :
#
#
# Convention : Reuss Voigt Hill
#
# Bulk Modulus (GPa) = 64.42174 69.94267 67.18220
# Shear Modulus (GPa) = 11.60325 15.49202 13.54763
#
# Velocity S-wave (km/s) = 2.46468 2.84789 2.66319
# Velocity P-wave (km/s) = 6.46731 6.88701 6.68046
#
# Compressibility (1/GPa) = 0.01552271
#
# Stress axis : x y z
#
# Youngs Moduli (GPa) = 99.20787 99.20787 85.59591
#
# Poissons Ratio (x) = 0.47221 0.14552
# Poissons Ratio (y) = 0.47221 0.14552
# Poissons Ratio (z) = 0.16866 0.16866
#
# Static dielectric constant tensor:
#      x y z
#    x 3.437520 0.000000 0.000000 
#    y 0.000000 3.437520 0.000000 
#    z 0.000000 0.000000 3.593130 
# 
# 
# High freq. dielectric constant tensor:
#      x y z
#    x 1.734620 0.000000 0.000000 
#    y 0.000000 1.734620 0.000000 
#    z 0.000000 0.000000 1.755800 
# 
# From -- ./inp_files/2559.got.cif
#   From: 2010.03.12/outbox.cif.g09.slc.cpg/sg101_2_cif.got.tgz:2559.got - 2010.04.14 01:38:52.
