data_PCOD8306221
_publ_section_title
;
Structure prediction by ZEFSAII (Michael W. Deem and Ramdas Pophale) SiO2 
 PCOD8306221
Probable space group: I 41 2 2
;
_chemical_formula_sum "Si O2"
_cell_formula_units_Z 60
_cell_length_a 15.330103
_cell_length_b 15.330103
_cell_length_c 13.198342
_cell_angle_alpha 90.000000
_cell_angle_beta 90.000000
_cell_angle_gamma 90.000000
_cell_volume 3101.769515
_symmetry_space_group_name_H-M "I 41 2 2"
_symmetry_group_IT_number 98
_symmetry_cell_setting 'tetragonal'
loop_
_space_group_symop_operation_xyz
x,y,z
-y,1/2+x,1/4+z
-x,-y,z
y,1/2-x,1/4+z
x,1/2-y,1/4-z
-x,1/2+y,1/4-z
y,x,-z
-y,-x,-z
1/2+x,1/2+y,1/2+z
1/2-y,x,3/4+z
1/2-x,1/2-y,1/2+z
1/2+y,-x,3/4+z
1/2+x,-y,3/4-z
1/2-x,y,3/4-z
1/2+y,1/2+x,1/2-z
1/2-y,1/2-x,1/2-z
loop_
_atom_site_type_symbol
_atom_site_label
_atom_site_fract_x
_atom_site_fract_y
_atom_site_fract_z
Si Si1 0.631121 0.868814 0.957346
Si Si2 0.192186 0.946360 0.776597
Si Si3 0.162363 0.955314 0.138815
Si Si4 0.500000 0.500000 0.500000
Si Si5 0.805126 0.805126 0.000000
O O1 0.536127 0.822151 0.966993
O O2 0.702740 0.819495 0.026630
O O3 0.665321 0.864474 0.842309
O O4 0.629375 0.970423 0.990277
O O5 0.250000 0.962306 0.875000
O O6 0.130416 0.862808 0.797040
O O7 0.253156 0.931149 0.678427
O O8 0.085501 0.994923 0.069367
#
# Coordination Sequence:
#
# PCOD8306221 Si02
#       5
#    16  16  16   4   8
#     4  11  18  32  47  80 114 145 178 230 292 341
#     4  12  19  31  48  79 115 149 183 224 283 347
#     4  12  22  31  51  80 117 149 183 228 292 336
#     4  12  18  28  48  76 112 140 162 232 266 344
#     4  10  19  26  51  74 116 143 173 226 284 362
#
# _framework density 19.343796000000001
#
# number of rings (size 3 to 8) (size 9 to 14) (size 15 to 20)
#    0.000    0.533   10.667    0.800    0.000    0.000 
#    0.000    0.000    0.000    0.000   20.800    0.000 
#    0.000    0.000    0.000    0.000    0.000    0.000 
#
# Total GULP energy -371708.485608 kJ/mol
# GULP energy per Si atom -12390.282854 kJ/mol
# Density = 1.929977 g / cm^3
# Si number density = 19.343796 Si / 1000 Ang^3
#
#
#
# Elastic Constant Matrix: (Units=GPa)
#
#
# Indices 1 2 3 4 5 6 
#
# 1 118.3679 54.7741 34.8740 0.0000 0.0000 0.0000
# 2 54.7741 118.3679 34.8740 0.0000 0.0000 0.0000
# 3 34.8740 34.8740 32.8936 0.0000 0.0000 0.0000
# 4 0.0000 0.0000 0.0000 25.8457 0.0000 0.0000
# 5 0.0000 0.0000 0.0000 0.0000 25.8457 0.0000
# 6 0.0000 0.0000 0.0000 0.0000 0.0000 32.6203
#
#
#
# Elastic Compliance Matrix: (Units=1/GPa)
#
#
# Indices 1 2 3 4 5 6 
#
# 1 0.012903 -0.002822 -0.010688 0.000000 0.000000 0.000000
# 2 -0.002822 0.012903 -0.010688 0.000000 0.000000 0.000000
# 3 -0.010688 -0.010688 0.053064 0.000000 0.000000 0.000000
# 4 0.000000 0.000000 0.000000 0.038691 0.000000 0.000000
# 5 0.000000 0.000000 0.000000 0.000000 0.038691 0.000000
# 6 0.000000 0.000000 0.000000 0.000000 0.000000 0.030656
#
#
# Mechanical properties :
#
#
# Convention : Reuss Voigt Hill
#
# Bulk Modulus (GPa) = 32.81472 57.63041 45.22256
# Shear Modulus (GPa) = 20.36968 26.53615 23.45292
#
# Velocity S-wave (km/s) = 3.24857 3.70782 3.48577
# Velocity P-wave (km/s) = 5.57420 6.94176 6.29522
#
# Compressibility (1/GPa) = 0.03047413
#
# Stress axis : x y z
#
# Youngs Moduli (GPa) = 77.50132 77.50132 18.84503
#
# Poissons Ratio (x) = 0.21869 0.20142
# Poissons Ratio (y) = 0.21869 0.20142
# Poissons Ratio (z) = 0.82835 0.82835
#
# Static dielectric constant tensor:
#      x y z
#    x 3.964960 0.000000 0.000000 
#    y 0.000000 3.964960 0.000000 
#    z 0.000000 0.000000 3.231410 
# 
# 
# High freq. dielectric constant tensor:
#      x y z
#    x 1.752200 0.000000 0.000000 
#    y 0.000000 1.752200 0.000000 
#    z 0.000000 0.000000 1.686570 
# 
# From -- ./inp_files/6285.got.cif
#   From: 2010.03.12/outbox.cif.g09.slc.cpg/sg98_4_cif.got.tgz:6285.got - 2010.04.08 21:04:41.
