data_PCOD8306657
_publ_section_title
;
Structure prediction by ZEFSAII (Michael W. Deem and Ramdas Pophale) SiO2 
 PCOD8306657
Probable space group: P 4 B M
;
_chemical_formula_sum "Si O2"
_cell_formula_units_Z 56
_cell_length_a 13.420700
_cell_length_b 13.420700
_cell_length_c 16.153376
_cell_angle_alpha 90.000000
_cell_angle_beta 90.000000
_cell_angle_gamma 90.000000
_cell_volume 2909.468363
_symmetry_space_group_name_H-M "P 4 B M"
_symmetry_group_IT_number 100
_symmetry_cell_setting 'tetragonal'
loop_
_space_group_symop_operation_xyz
x,y,z
-y,x,z
-x,-y,z
y,-x,z
1/2-x,1/2+y,z
1/2+x,1/2-y,z
1/2-y,1/2-x,z
1/2+y,1/2+x,z
loop_
_atom_site_type_symbol
_atom_site_label
_atom_site_fract_x
_atom_site_fract_y
_atom_site_fract_z
Si Si1 0.163579 0.502215 0.539340
Si Si2 0.774408 0.888015 0.114449
Si Si3 0.232230 0.106189 0.929006
Si Si4 0.661228 0.994459 0.353404
Si Si5 0.835466 0.016042 0.670351
Si Si6 0.410999 0.744997 0.838542
Si Si7 0.250419 0.915943 0.199925
O O1 0.101257 0.601257 0.565222
O O2 0.205026 0.515179 0.445757
O O3 0.259334 0.483654 0.594844
O O4 0.093507 0.406494 0.546911
O O5 0.677050 0.822951 0.125330
O O6 0.857277 0.852215 0.181518
O O7 0.740808 0.999868 0.130981
O O8 0.815542 0.882070 0.020555
O O9 0.335086 0.164915 0.923320
O O10 0.154120 0.148381 0.861966
O O11 0.259201 0.992200 0.910340
O O12 0.612044 0.887957 0.325718
O O13 0.573960 0.073960 0.355370
O O14 0.747599 0.031584 0.290625
O O15 0.772096 0.029404 0.753695
O O16 0.911379 0.107884 0.665793
O O17 0.343365 0.843365 0.832253
O O18 0.343955 0.843955 0.187276
#
# Coordination Sequence:
#
# PCOD8306657 Si02
#       7
#     8   8   8   8   8   8   8
#     4   9  19  37  61  89 119 151 190 238 291 347
#     4  10  21  36  56  84 115 149 194 242 291 348
#     4  10  22  38  57  84 115 149 193 242 291 350
#     4   8  15  32  58  84 112 149 191 234 282 339
#     4  11  23  40  60  85 117 154 194 237 289 352
#     4  11  22  39  62  83 111 153 195 239 293 350
#     4  10  20  36  56  82 116 152 195 241 286 345
#
# _framework density 19.247502999999998
#
# number of rings (size 3 to 8) (size 9 to 14) (size 15 to 20)
#    0.000    2.143    1.429    2.571    0.000    5.143 
#    2.571    2.857    0.000    0.000    0.000    0.000 
#    0.000    0.000    0.000    0.000    0.000    0.000 
#
# Total GULP energy -694202.335376 kJ/mol
# GULP energy per Si atom -12396.470275 kJ/mol
# Density = 1.920369 g / cm^3
# Si number density = 19.247503 Si / 1000 Ang^3
#
#
#
# Elastic Constant Matrix: (Units=GPa)
#
#
# Indices 1 2 3 4 5 6 
#
# 1 103.1132 37.9266 55.9077 0.0000 0.0000 0.0001
# 2 37.9266 103.1132 55.9077 0.0000 0.0000 -0.0001
# 3 55.9077 55.9077 100.2666 0.0000 0.0000 0.0000
# 4 0.0000 0.0000 0.0000 33.4941 0.0000 0.0000
# 5 0.0000 0.0000 0.0000 0.0000 33.4941 0.0000
# 6 0.0001 -0.0001 0.0000 0.0000 0.0000 15.8880
#
#
#
# Elastic Compliance Matrix: (Units=1/GPa)
#
#
# Indices 1 2 3 4 5 6 
#
# 1 0.014024 -0.001316 -0.007086 0.000000 0.000000 0.000000
# 2 -0.001316 0.014024 -0.007086 0.000000 0.000000 0.000000
# 3 -0.007086 -0.007086 0.017875 0.000000 0.000000 0.000000
# 4 0.000000 0.000000 0.000000 0.029856 0.000000 0.000000
# 5 0.000000 0.000000 0.000000 0.000000 0.029856 0.000000
# 6 0.000000 0.000000 0.000000 0.000000 0.000000 0.062941
#
#
# Mechanical properties :
#
#
# Convention : Reuss Voigt Hill
#
# Bulk Modulus (GPa) = 66.89920 67.33078 67.11499
# Shear Modulus (GPa) = 24.44577 27.02530 25.73554
#
# Velocity S-wave (km/s) = 3.56768 3.75119 3.66058
# Velocity P-wave (km/s) = 7.19749 7.33617 7.26716
#
# Compressibility (1/GPa) = 0.01494786
#
# Stress axis : x y z
#
# Youngs Moduli (GPa) = 71.30565 71.30565 55.94332
#
# Poissons Ratio (x) = 0.09387 0.39640
# Poissons Ratio (y) = 0.09387 0.39640
# Poissons Ratio (z) = 0.50525 0.50525
#
# Static dielectric constant tensor:
#      x y z
#    x 3.446560 0.000000 0.000000 
#    y 0.000000 3.446560 0.000000 
#    z 0.000000 0.000000 3.702260 
# 
# 
# High freq. dielectric constant tensor:
#      x y z
#    x 1.739930 0.000000 0.000000 
#    y 0.000000 1.739930 0.000000 
#    z 0.000000 0.000000 1.756190 
# 
# From -- ./inp_files/1433.got.cif
#   From: 2010.03.12/outbox.cif.g09.slc.cpg/sg100_cif.got.tgz:1433.got - 2010.04.14 01:37:57.
