data_PCOD8306457
_publ_section_title
;
Structure prediction by ZEFSAII (Michael W. Deem and Ramdas Pophale) SiO2 
 PCOD8306457
Probable space group: P 4 M M
;
_chemical_formula_sum "Si O2"
_cell_formula_units_Z 56
_cell_length_a 13.810297
_cell_length_b 13.810297
_cell_length_c 18.021746
_cell_angle_alpha 90.000000
_cell_angle_beta 90.000000
_cell_angle_gamma 90.000000
_cell_volume 3437.184949
_symmetry_space_group_name_H-M "P 4 M M"
_symmetry_group_IT_number 99
_symmetry_cell_setting 'tetragonal'
loop_
_space_group_symop_operation_xyz
x,y,z
-y,x,z
-x,-y,z
y,-x,z
-x,y,z
x,-y,z
-y,-x,z
y,x,z
loop_
_atom_site_type_symbol
_atom_site_label
_atom_site_fract_x
_atom_site_fract_y
_atom_site_fract_z
Si Si1 0.385399 0.772773 0.150790
Si Si2 0.769726 0.614398 0.435527
Si Si3 0.262612 0.889950 0.866981
Si Si4 0.606657 0.115201 0.736943
Si Si5 0.729004 0.887612 0.034354
Si Si6 0.615311 0.892447 0.574835
Si Si7 0.891731 0.614421 0.294067
O O1 0.500000 0.751927 0.149468
O O2 0.329751 0.670250 0.145557
O O3 0.357458 0.842668 0.082748
O O4 0.350698 0.827277 0.225107
O O5 0.749964 0.500000 0.433629
O O6 0.666711 0.666711 0.426664
O O7 0.818310 0.649940 0.512057
O O8 0.840823 0.647811 0.369802
O O9 0.158427 0.841573 0.863351
O O10 0.331773 0.841564 0.805125
O O11 0.243940 0.000000 0.846189
O O12 0.307070 0.877851 0.949269
O O13 0.500000 0.160857 0.744721
O O14 0.651830 0.142863 0.656266
O O15 0.600004 0.000000 0.742860
O O16 0.829008 0.829008 0.048285
O O17 0.746981 0.000000 0.055233
O O18 0.500000 0.897829 0.576600
O O19 0.655953 0.000000 0.556781
O O20 0.900719 0.500000 0.292270
O O21 0.000000 0.659836 0.289858
#
# Coordination Sequence:
#
# PCOD8306457 Si02
#       7
#     8   8   8   8   8   8   8
#     4  10  20  33  49  70  96 124 153 184 220 265
#     4  10  19  29  42  62  88 117 148 179 214 261
#     4   9  17  28  42  62  88 116 145 177 215 263
#     4   8  14  25  41  61  84 109 139 178 223 266
#     4   9  18  31  46  66  91 119 153 191 231 275
#     4   8  14  26  43  61  82 108 140 182 227 263
#     4   9  17  30  48  67  86 110 141 178 218 254
#
# _framework density 16.292403
#
# number of rings (size 3 to 8) (size 9 to 14) (size 15 to 20)
#    0.000    3.000    0.000    2.143    0.000    4.286 
#    0.000    2.857    0.000    2.571    0.000    0.000 
#    0.000   12.857    0.000    0.286    0.000    0.143 
#
# Total GULP energy -694077.235181 kJ/mol
# GULP energy per Si atom -12394.236343 kJ/mol
# Density = 1.625532 g / cm^3
# Si number density = 16.292403 Si / 1000 Ang^3
#
#
#
# Elastic Constant Matrix: (Units=GPa)
#
#
# Indices 1 2 3 4 5 6 
#
# 1 71.5659 36.8788 45.9137 0.0000 0.0000 0.0000
# 2 36.8788 71.5659 45.9137 0.0000 0.0000 0.0000
# 3 45.9137 45.9137 125.2874 0.0000 0.0000 0.0000
# 4 0.0000 0.0000 0.0000 20.9185 0.0000 0.0000
# 5 0.0000 0.0000 0.0000 0.0000 20.9185 0.0000
# 6 0.0000 0.0000 0.0000 0.0000 0.0000 14.7833
#
#
#
# Elastic Compliance Matrix: (Units=1/GPa)
#
#
# Indices 1 2 3 4 5 6 
#
# 1 0.021100 -0.007729 -0.004900 0.000000 0.000000 0.000000
# 2 -0.007729 0.021100 -0.004900 0.000000 0.000000 0.000000
# 3 -0.004900 -0.004900 0.011573 0.000000 0.000000 0.000000
# 4 0.000000 0.000000 0.000000 0.047805 0.000000 0.000000
# 5 0.000000 0.000000 0.000000 0.000000 0.047805 0.000000
# 6 0.000000 0.000000 0.000000 0.000000 0.000000 0.067644
#
#
# Mechanical properties :
#
#
# Convention : Reuss Voigt Hill
#
# Bulk Modulus (GPa) = 53.43503 58.42573 55.93038
# Shear Modulus (GPa) = 19.35571 20.63824 19.99697
#
# Velocity S-wave (km/s) = 3.45051 3.56299 3.50720
# Velocity P-wave (km/s) = 6.98165 7.27084 7.12771
#
# Compressibility (1/GPa) = 0.01871431
#
# Stress axis : x y z
#
# Youngs Moduli (GPa) = 47.39402 47.39402 86.40925
#
# Poissons Ratio (x) = 0.36633 0.42338
# Poissons Ratio (y) = 0.36633 0.42338
# Poissons Ratio (z) = 0.23222 0.23222
#
# Static dielectric constant tensor:
#      x y z
#    x 2.894680 0.000000 0.000000 
#    y 0.000000 2.894680 0.000000 
#    z 0.000000 0.000000 3.460750 
# 
# 
# High freq. dielectric constant tensor:
#      x y z
#    x 1.600260 0.000000 0.000000 
#    y 0.000000 1.600260 0.000000 
#    z 0.000000 0.000000 1.647310 
# 
# From -- ./inp_files/1828.got.cif
#   From: 2010.03.12/outbox.cif.g09.slc.cpg/sg99_cif.got.tgz:1828.got - 2010.04.08 21:11:30.
