data_PCOD8306427
_publ_section_title
;
Structure prediction by ZEFSAII (Michael W. Deem and Ramdas Pophale) SiO2 
 PCOD8306427
Probable space group: P 4 M M
;
_chemical_formula_sum "Si O2"
_cell_formula_units_Z 64
_cell_length_a 13.976459
_cell_length_b 13.976459
_cell_length_c 20.564632
_cell_angle_alpha 90.000000
_cell_angle_beta 90.000000
_cell_angle_gamma 90.000000
_cell_volume 4017.124132
_symmetry_space_group_name_H-M "P 4 M M"
_symmetry_group_IT_number 99
_symmetry_cell_setting 'tetragonal'
loop_
_space_group_symop_operation_xyz
x,y,z
-y,x,z
-x,-y,z
y,-x,z
-x,y,z
x,-y,z
-y,-x,z
y,x,z
loop_
_atom_site_type_symbol
_atom_site_label
_atom_site_fract_x
_atom_site_fract_y
_atom_site_fract_z
Si Si1 0.113426 0.734776 0.088710
Si Si2 0.393028 0.886678 0.206936
Si Si3 0.891242 0.740259 0.461577
Si Si4 0.613412 0.893815 0.827273
Si Si5 0.230409 0.386218 0.706003
Si Si6 0.886588 0.606173 0.970301
Si Si7 0.606091 0.113646 0.350497
Si Si8 0.731835 0.888702 0.608872
O O1 0.160913 0.839088 0.088265
O O2 0.151825 0.678273 0.151993
O O3 0.000000 0.749472 0.088943
O O4 0.150745 0.677307 0.025672
O O5 0.500000 0.845257 0.195473
O O6 0.355021 0.856857 0.278835
O O7 0.398569 0.000000 0.201520
O O8 0.842801 0.842801 0.456802
O O9 0.843049 0.669980 0.408551
O O10 0.879693 0.697947 0.534034
O O11 0.000000 0.759056 0.443166
O O12 0.500000 0.902205 0.827244
O O13 0.646763 0.817474 0.773820
O O14 0.646456 0.857786 0.898840
O O15 0.656027 0.000000 0.811995
O O16 0.248107 0.500000 0.701815
O O17 0.331998 0.331998 0.698947
O O18 0.156973 0.354678 0.649728
O O19 0.842835 0.500000 0.981917
O O20 0.000000 0.598373 0.974307
O O21 0.500000 0.155853 0.359433
O O22 0.602616 0.000000 0.356682
O O23 0.830728 0.830728 0.621655
O O24 0.748301 0.000000 0.627808
#
# Coordination Sequence:
#
# PCOD8306427 Si02
#       8
#     8   8   8   8   8   8   8   8
#     4  10  19  28  39  57  82 113 144 170 201 245
#     4   8  14  26  43  59  75  98 132 177 221 249
#     4   9  17  28  42  62  89 118 145 171 200 241
#     4   8  14  26  45  67  87 106 132 171 218 261
#     4  10  20  32  46  65  89 117 148 181 218 262
#     4   8  14  26  44  64  84 105 134 176 218 249
#     4   8  14  25  41  60  80 103 133 170 212 250
#     4   9  18  31  46  66  90 116 148 184 221 260
#
# _framework density 15.931794
#
# number of rings (size 3 to 8) (size 9 to 14) (size 15 to 20)
#    0.000    3.250    0.000    2.250    0.000    4.250 
#    0.000    2.500    0.000    0.000    0.000    3.500 
#    0.000    7.250    0.000    5.500    0.000    1.500 
#
# Total GULP energy -793076.462912 kJ/mol
# GULP energy per Si atom -12391.819733 kJ/mol
# Density = 1.589553 g / cm^3
# Si number density = 15.931794 Si / 1000 Ang^3
#
#
#
# Elastic Constant Matrix: (Units=GPa)
#
#
# Indices 1 2 3 4 5 6 
#
# 1 64.7771 34.0686 47.1990 0.0000 0.0000 0.0003
# 2 34.0686 64.7771 47.1990 0.0000 0.0000 -0.0003
# 3 47.1990 47.1990 124.5494 0.0000 0.0000 0.0000
# 4 0.0000 0.0000 0.0000 18.4032 0.0000 0.0000
# 5 0.0000 0.0000 0.0000 0.0000 18.4032 0.0000
# 6 0.0003 -0.0003 0.0000 0.0000 0.0000 11.6456
#
#
#
# Elastic Compliance Matrix: (Units=1/GPa)
#
#
# Indices 1 2 3 4 5 6 
#
# 1 0.024209 -0.008355 -0.006008 0.000000 0.000000 -0.000001
# 2 -0.008355 0.024209 -0.006008 0.000000 0.000000 0.000001
# 3 -0.006008 -0.006008 0.012583 0.000000 0.000000 0.000000
# 4 0.000000 0.000000 0.000000 0.054339 0.000000 0.000000
# 5 0.000000 0.000000 0.000000 0.000000 0.054339 0.000000
# 6 -0.000001 0.000001 0.000000 0.000000 0.000000 0.085870
#
#
# Mechanical properties :
#
#
# Convention : Reuss Voigt Hill
#
# Bulk Modulus (GPa) = 49.36069 56.78186 53.07127
# Shear Modulus (GPa) = 16.49926 18.06617 17.28271
#
# Velocity S-wave (km/s) = 3.22159 3.37110 3.29719
# Velocity P-wave (km/s) = 6.69985 7.13235 6.91948
#
# Compressibility (1/GPa) = 0.02025904
#
# Stress axis : x y z
#
# Youngs Moduli (GPa) = 41.30612 41.30612 79.47418
#
# Poissons Ratio (x) = 0.34510 0.47750
# Poissons Ratio (y) = 0.34510 0.47750
# Poissons Ratio (z) = 0.24818 0.24818
#
# Static dielectric constant tensor:
#      x y z
#    x 2.798920 0.000000 0.000000 
#    y 0.000000 2.798920 0.000000 
#    z 0.000000 0.000000 3.485900 
# 
# 
# High freq. dielectric constant tensor:
#      x y z
#    x 1.579750 0.000000 0.000000 
#    y 0.000000 1.579750 0.000000 
#    z 0.000000 0.000000 1.632320 
# 
# From -- ./inp_files/2063.got.cif
#   From: 2010.03.12/outbox.cif.g09.slc.cpg/sg99_cif.got.tgz:2063.got - 2010.04.08 21:11:30.
