data_PCOD8306904
_publ_section_title
;
Structure prediction by ZEFSAII (Michael W. Deem and Ramdas Pophale) SiO2 
 PCOD8306904
Probable space group: P 42 N M
;
_chemical_formula_sum "Si O2"
_cell_formula_units_Z 64
_cell_length_a 11.916823
_cell_length_b 11.916823
_cell_length_c 22.794177
_cell_angle_alpha 90.000000
_cell_angle_beta 90.000000
_cell_angle_gamma 90.000000
_cell_volume 3237.016357
_symmetry_space_group_name_H-M "P 42 N M"
_symmetry_group_IT_number 102
_symmetry_cell_setting 'tetragonal'
loop_
_space_group_symop_operation_xyz
x,y,z
1/2-y,1/2+x,1/2+z
-x,-y,z
1/2+y,1/2-x,1/2+z
1/2-x,1/2+y,1/2+z
1/2+x,1/2-y,1/2+z
-y,-x,z
y,x,z
loop_
_atom_site_type_symbol
_atom_site_label
_atom_site_fract_x
_atom_site_fract_y
_atom_site_fract_z
Si Si1 0.159545 0.469265 0.961000
Si Si2 0.938228 0.757701 0.154530
Si Si3 0.998564 0.178762 0.551593
Si Si4 0.070358 0.256130 0.021068
Si Si5 0.478395 0.126528 0.139031
Si Si6 0.719315 0.095973 0.926633
Si Si7 0.889031 0.433448 0.344974
Si Si8 0.173658 0.353264 0.724044
O O1 0.108649 0.594237 0.954141
O O2 0.152603 0.409638 0.898416
O O3 0.287643 0.482167 0.983187
O O4 0.098338 0.387809 0.009090
O O5 0.869533 0.869533 0.171478
O O6 0.979782 0.760766 0.086651
O O7 0.856208 0.649972 0.159355
O O8 0.040320 0.744783 0.200176
O O9 0.894211 0.105790 0.574412
O O10 0.013371 0.292164 0.587144
O O11 0.113028 0.113028 0.558548
O O12 0.184089 0.184089 0.014020
O O13 0.977217 0.212853 0.974698
O O14 0.552741 0.155124 0.195026
O O15 0.500000 0.000000 0.117394
O O16 0.787848 0.212153 0.915069
O O17 0.705243 0.025225 0.865709
O O18 0.853660 0.350849 0.293154
O O19 0.000000 0.500000 0.325429
O O20 0.242932 0.242932 0.708632
#
# Coordination Sequence:
#
# PCOD8306904 Si02
#       8
#     8   8   8   8   8   8   8   8
#     4  10  20  36  60  87 117 153 196 242 286 349
#     4  10  21  38  61  87 119 161 202 245 296 352
#     4  11  22  35  54  85 124 157 189 239 300 355
#     4  10  20  35  58  88 122 160 199 237 290 360
#     4  10  21  36  60  84 116 155 202 242 286 348
#     4  10  22  37  60  92 121 151 192 249 306 356
#     4   9  20  41  63  81 112 155 205 247 288 349
#     4  11  24  40  60  89 118 152 201 251 301 354
#
# _framework density 19.771294000000001
#
# number of rings (size 3 to 8) (size 9 to 14) (size 15 to 20)
#    0.000    1.875    1.250    3.750    3.500    4.000 
#    0.000    8.125    0.000    1.500    0.000    0.000 
#    0.000    0.000    0.000    0.000    0.000    0.000 
#
# Total GULP energy -793096.393002 kJ/mol
# GULP energy per Si atom -12392.131141 kJ/mol
# Density = 1.972629 g / cm^3
# Si number density = 19.771294 Si / 1000 Ang^3
#
#
#
# Elastic Constant Matrix: (Units=GPa)
#
#
# Indices 1 2 3 4 5 6 
#
# 1 78.0595 36.7371 41.5736 0.0000 0.0000 -0.0006
# 2 36.7371 78.0595 41.5736 0.0000 0.0000 0.0006
# 3 41.5736 41.5736 92.0355 0.0000 0.0000 0.0000
# 4 0.0000 0.0000 0.0000 23.5548 0.0000 0.0000
# 5 0.0000 0.0000 0.0000 0.0000 23.5548 0.0000
# 6 -0.0006 0.0006 0.0000 0.0000 0.0000 17.1223
#
#
#
# Elastic Compliance Matrix: (Units=1/GPa)
#
#
# Indices 1 2 3 4 5 6 
#
# 1 0.018573 -0.005626 -0.005848 0.000000 0.000000 0.000001
# 2 -0.005626 0.018573 -0.005848 0.000000 0.000000 -0.000001
# 3 -0.005848 -0.005848 0.016149 0.000000 0.000000 0.000000
# 4 0.000000 0.000000 0.000000 0.042454 0.000000 0.000000
# 5 0.000000 0.000000 0.000000 0.000000 0.042454 0.000000
# 6 0.000001 -0.000001 0.000000 0.000000 0.000000 0.058403
#
#
# Mechanical properties :
#
#
# Convention : Reuss Voigt Hill
#
# Bulk Modulus (GPa) = 53.62044 54.21367 53.91705
# Shear Modulus (GPa) = 21.05529 21.39775 21.22652
#
# Velocity S-wave (km/s) = 3.26689 3.29335 3.28014
# Velocity P-wave (km/s) = 6.43500 6.47622 6.45565
#
# Compressibility (1/GPa) = 0.01864961
#
# Stress axis : x y z
#
# Youngs Moduli (GPa) = 53.84023 53.84023 61.92376
#
# Poissons Ratio (x) = 0.30293 0.36215
# Poissons Ratio (y) = 0.30293 0.36215
# Poissons Ratio (z) = 0.31487 0.31487
#
# Static dielectric constant tensor:
#      x y z
#    x 3.610610 0.000000 0.000000 
#    y 0.000000 3.610610 0.000000 
#    z 0.000000 0.000000 3.615340 
# 
# 
# High freq. dielectric constant tensor:
#      x y z
#    x 1.765680 0.000000 0.000000 
#    y 0.000000 1.765680 0.000000 
#    z 0.000000 0.000000 1.760020 
# 
# From -- ./inp_files/3405.got.cif
#   From: 2010.03.12/outbox.cif.g09.slc.cpg/sg102_2_cif.got.tgz:3405.got - 2010.04.14 01:40:42.
