data_PCOD8306472
_publ_section_title
;
Structure prediction by ZEFSAII (Michael W. Deem and Ramdas Pophale) SiO2 
 PCOD8306472
Probable space group: P 4 M M
;
_chemical_formula_sum "Si O2"
_cell_formula_units_Z 64
_cell_length_a 14.046963
_cell_length_b 14.046963
_cell_length_c 20.607983
_cell_angle_alpha 90.000000
_cell_angle_beta 90.000000
_cell_angle_gamma 90.000000
_cell_volume 4066.308875
_symmetry_space_group_name_H-M "P 4 M M"
_symmetry_group_IT_number 99
_symmetry_cell_setting 'tetragonal'
loop_
_space_group_symop_operation_xyz
x,y,z
-y,x,z
-x,-y,z
y,-x,z
-x,y,z
x,-y,z
-y,-x,z
y,x,z
loop_
_atom_site_type_symbol
_atom_site_label
_atom_site_fract_x
_atom_site_fract_y
_atom_site_fract_z
Si Si1 0.268103 0.111204 0.387130
Si Si2 0.887319 0.606047 0.268449
Si Si3 0.111925 0.730484 0.669152
Si Si4 0.765564 0.610420 0.761101
Si Si5 0.107122 0.741117 0.527779
Si Si6 0.608590 0.110484 0.025665
Si Si7 0.887422 0.266965 0.148193
Si Si8 0.608390 0.239251 0.908337
O O1 0.171686 0.171686 0.377493
O O2 0.346733 0.146154 0.335915
O O3 0.314085 0.128259 0.459694
O O4 0.242533 0.000000 0.375914
O O5 0.842698 0.500000 0.263673
O O6 0.851968 0.670152 0.208781
O O7 0.000000 0.597925 0.265674
O O8 0.171469 0.828532 0.679548
O O9 0.148133 0.649167 0.717591
O O10 0.129980 0.687587 0.595879
O O11 0.000000 0.750634 0.681861
O O12 0.746093 0.500000 0.745036
O O13 0.668297 0.668297 0.746700
O O14 0.798836 0.624910 0.835412
O O15 0.160216 0.839785 0.526183
O O16 0.000000 0.774549 0.528800
O O17 0.500000 0.136531 0.044278
O O18 0.676042 0.143147 0.084002
O O19 0.619604 0.000000 0.012383
O O20 0.641788 0.159417 0.959011
O O21 0.834076 0.165925 0.149425
O O22 0.000000 0.246665 0.150830
O O23 0.500000 0.267590 0.919707
O O24 0.665190 0.334811 0.921951
#
# Coordination Sequence:
#
# PCOD8306472 Si02
#       8
#     8   8   8   8   8   8   8   8
#     4   9  16  26  41  62  88 115 141 170 205 248
#     4   9  17  29  43  58  79 108 140 173 206 239
#     4   9  17  29  44  63  88 117 149 184 220 260
#     4   9  18  31  46  65  88 114 145 182 225 271
#     4   8  14  24  38  57  83 114 144 174 208 246
#     4   9  17  29  45  65  88 114 144 175 204 237
#     4  10  19  30  45  64  86 112 140 171 208 249
#     4   9  17  29  45  65  88 112 139 173 214 260
#
# _framework density 15.739088000000001
#
# number of rings (size 3 to 8) (size 9 to 14) (size 15 to 20)
#    0.000    3.000    0.000    1.125    0.000    3.000 
#    0.000    5.625    0.000    4.500    0.000    0.000 
#    0.000   14.000    0.000    0.000    0.000    0.000 
#
# Total GULP energy -793006.290214 kJ/mol
# GULP energy per Si atom -12390.723285 kJ/mol
# Density = 1.570327 g / cm^3
# Si number density = 15.739088 Si / 1000 Ang^3
#
#
#
# Elastic Constant Matrix: (Units=GPa)
#
#
# Indices 1 2 3 4 5 6 
#
# 1 70.7136 37.8862 55.6775 0.0000 0.0000 -0.0004
# 2 37.8862 70.7136 55.6775 0.0000 0.0000 0.0004
# 3 55.6775 55.6775 133.4476 0.0000 0.0000 0.0000
# 4 0.0000 0.0000 0.0000 23.2482 0.0000 0.0000
# 5 0.0000 0.0000 0.0000 0.0000 23.2482 0.0000
# 6 -0.0004 0.0004 0.0000 0.0000 0.0000 16.6875
#
#
#
# Elastic Compliance Matrix: (Units=1/GPa)
#
#
# Indices 1 2 3 4 5 6 
#
# 1 0.023278 -0.007185 -0.006714 0.000000 0.000000 0.000001
# 2 -0.007185 0.023278 -0.006714 0.000000 0.000000 -0.000001
# 3 -0.006714 -0.006714 0.013096 0.000000 0.000000 0.000000
# 4 0.000000 0.000000 0.000000 0.043014 0.000000 0.000000
# 5 0.000000 0.000000 0.000000 0.000000 0.043014 0.000000
# 6 0.000001 -0.000001 0.000000 0.000000 0.000000 0.059925
#
#
# Mechanical properties :
#
#
# Convention : Reuss Voigt Hill
#
# Bulk Modulus (GPa) = 54.27503 63.70637 58.99070
# Shear Modulus (GPa) = 19.76496 21.01234 20.38865
#
# Velocity S-wave (km/s) = 3.54755 3.65779 3.60309
# Velocity P-wave (km/s) = 7.16514 7.64223 7.40753
#
# Compressibility (1/GPa) = 0.01842468
#
# Stress axis : x y z
#
# Youngs Moduli (GPa) = 42.95982 42.95982 76.35746
#
# Poissons Ratio (x) = 0.30866 0.51269
# Poissons Ratio (y) = 0.30866 0.51269
# Poissons Ratio (z) = 0.28844 0.28844
#
# Static dielectric constant tensor:
#      x y z
#    x 2.843220 0.000000 0.000000 
#    y 0.000000 2.843220 0.000000 
#    z 0.000000 0.000000 3.436010 
# 
# 
# High freq. dielectric constant tensor:
#      x y z
#    x 1.582230 0.000000 0.000000 
#    y 0.000000 1.582230 0.000000 
#    z 0.000000 0.000000 1.625580 
# 
# From -- ./inp_files/2056.got.cif
#   From: 2010.03.12/outbox.cif.g09.slc.cpg/sg99_cif.got.tgz:2056.got - 2010.04.08 21:11:30.
