data_PCOD8306955
_publ_section_title
;
Structure prediction by ZEFSAII (Michael W. Deem and Ramdas Pophale) SiO2 
 PCOD8306955
Probable space group: P 42 N M
;
_chemical_formula_sum "Si O2"
_cell_formula_units_Z 56
_cell_length_a 14.145761
_cell_length_b 14.145761
_cell_length_c 17.246373
_cell_angle_alpha 90.000000
_cell_angle_beta 90.000000
_cell_angle_gamma 90.000000
_cell_volume 3451.043289
_symmetry_space_group_name_H-M "P 42 N M"
_symmetry_group_IT_number 102
_symmetry_cell_setting 'tetragonal'
loop_
_space_group_symop_operation_xyz
x,y,z
1/2-y,1/2+x,1/2+z
-x,-y,z
1/2+y,1/2-x,1/2+z
1/2-x,1/2+y,1/2+z
1/2+x,1/2-y,1/2+z
-y,-x,z
y,x,z
loop_
_atom_site_type_symbol
_atom_site_label
_atom_site_fract_x
_atom_site_fract_y
_atom_site_fract_z
Si Si1 0.306802 0.153848 0.117510
Si Si2 0.944782 0.206926 0.693369
Si Si3 0.420394 0.579607 0.112183
Si Si4 0.079607 0.079607 0.443040
Si Si5 0.346152 0.806802 0.437718
Si Si6 0.989348 0.641939 0.804408
Si Si7 0.793073 0.055220 0.361857
Si Si8 0.141939 0.510652 0.750819
O O1 0.206476 0.206476 0.138092
O O2 0.390718 0.228139 0.131242
O O3 0.330510 0.062081 0.170207
O O4 0.306849 0.122418 0.027614
O O5 0.879258 0.120742 0.720990
O O6 0.040826 0.171526 0.654725
O O7 0.977138 0.259700 0.770035
O O8 0.500000 0.500000 0.107145
O O9 0.388130 0.611871 0.027612
O O10 0.040826 0.171527 0.400500
O O11 0.000000 0.000000 0.448078
O O12 0.293525 0.706476 0.417135
O O13 0.437919 0.830511 0.385020
O O14 0.271861 0.890717 0.423985
O O15 0.921701 0.584922 0.743224
O O16 0.084924 0.578302 0.812003
O O17 0.879258 0.120743 0.334236
O O18 0.740299 0.022865 0.285191
#
# Coordination Sequence:
#
# PCOD8306955 Si02
#       8
#     8   8   4   4   8   8   8   8
#     4   9  17  30  49  70  93 125 160 192 226 271
#     4   9  17  29  46  68  92 121 154 189 234 282
#     4   9  16  26  42  66  95 117 142 186 232 281
#     4   9  16  26  42  66  95 117 142 186 232 281
#     4   9  17  30  49  70  93 125 160 192 226 271
#     4   9  18  32  47  69  94 120 154 196 232 275
#     4   9  17  29  46  68  92 121 154 189 234 282
#     4   9  18  32  47  69  94 120 154 196 232 275
#
# _framework density 16.226977000000002
#
# number of rings (size 3 to 8) (size 9 to 14) (size 15 to 20)
#    0.000    3.000    0.000    0.857    2.000    3.429 
#    0.000   12.857    0.000    0.857    0.000    2.000 
#    0.000    0.000    0.000    0.000    0.000    0.000 
#
# Total GULP energy -693803.019829 kJ/mol
# GULP energy per Si atom -12389.339640 kJ/mol
# Density = 1.619004 g / cm^3
# Si number density = 16.226977 Si / 1000 Ang^3
#
#
#
# Elastic Constant Matrix: (Units=GPa)
#
#
# Indices 1 2 3 4 5 6 
#
# 1 64.6670 38.5706 44.2490 0.0000 0.0000 0.0003
# 2 38.5706 64.6670 44.2490 0.0000 0.0000 -0.0003
# 3 44.2490 44.2490 90.8021 0.0000 0.0000 0.0000
# 4 0.0000 0.0000 0.0000 20.0726 0.0000 0.0000
# 5 0.0000 0.0000 0.0000 0.0000 20.0726 0.0000
# 6 0.0003 -0.0003 0.0000 0.0000 0.0000 18.7220
#
#
#
# Elastic Compliance Matrix: (Units=1/GPa)
#
#
# Indices 1 2 3 4 5 6 
#
# 1 0.027478 -0.010842 -0.008107 0.000000 0.000000 -0.000001
# 2 -0.010842 0.027478 -0.008107 0.000000 0.000000 0.000001
# 3 -0.008107 -0.008107 0.018914 0.000000 0.000000 0.000000
# 4 0.000000 0.000000 0.000000 0.049819 0.000000 0.000000
# 5 0.000000 0.000000 0.000000 0.000000 0.049819 0.000000
# 6 -0.000001 0.000001 0.000000 0.000000 0.000000 0.053413
#
#
# Mechanical properties :
#
#
# Convention : Reuss Voigt Hill
#
# Bulk Modulus (GPa) = 50.61156 52.69705 51.65431
# Shear Modulus (GPa) = 17.38415 17.97791 17.68103
#
# Velocity S-wave (km/s) = 3.27664 3.33213 3.30450
# Velocity P-wave (km/s) = 6.75075 6.88110 6.81624
#
# Compressibility (1/GPa) = 0.01975833
#
# Stress axis : x y z
#
# Youngs Moduli (GPa) = 36.39319 36.39319 52.87062
#
# Poissons Ratio (x) = 0.39457 0.42861
# Poissons Ratio (y) = 0.39457 0.42861
# Poissons Ratio (z) = 0.29503 0.29503
#
# Static dielectric constant tensor:
#      x y z
#    x 3.147200 0.000000 0.000000 
#    y 0.000000 3.147200 0.000000 
#    z 0.000000 0.000000 2.859800 
# 
# 
# High freq. dielectric constant tensor:
#      x y z
#    x 1.619840 0.000000 0.000000 
#    y 0.000000 1.619840 0.000000 
#    z 0.000000 0.000000 1.601480 
# 
# From -- ./inp_files/2826.got.cif
#   From: 2010.03.12/outbox.cif.g09.slc.cpg/sg102_2_cif.got.tgz:2826.got - 2010.04.14 01:40:42.
