data_PCOD8306764
_publ_section_title
;
Structure prediction by ZEFSAII (Michael W. Deem and Ramdas Pophale) SiO2 
 PCOD8306764
Probable space group: P 42 C M
;
_chemical_formula_sum "Si O2"
_cell_formula_units_Z 64
_cell_length_a 11.533505
_cell_length_b 11.533505
_cell_length_c 23.649802
_cell_angle_alpha 90.000000
_cell_angle_beta 90.000000
_cell_angle_gamma 90.000000
_cell_volume 3145.937756
_symmetry_space_group_name_H-M "P 42 C M"
_symmetry_group_IT_number 101
_symmetry_cell_setting 'tetragonal'
loop_
_space_group_symop_operation_xyz
x,y,z
-y,x,1/2+z
-x,-y,z
y,-x,1/2+z
-x,y,1/2+z
x,-y,1/2+z
-y,-x,z
y,x,z
loop_
_atom_site_type_symbol
_atom_site_label
_atom_site_fract_x
_atom_site_fract_y
_atom_site_fract_z
Si Si1 0.634501 0.021150 0.815630
Si Si2 0.239792 0.941990 0.542609
Si Si3 0.446185 0.258450 0.428852
Si Si4 0.743723 0.933358 0.427137
Si Si5 0.645140 0.831458 0.726400
Si Si6 0.250727 0.570771 0.539807
Si Si7 0.902275 0.593095 0.602361
Si Si8 0.261180 0.553247 0.800588
O O1 0.715537 0.996490 0.869683
O O2 0.644148 0.154493 0.794779
O O3 0.500000 0.000000 0.831009
O O4 0.678464 0.939238 0.765692
O O5 0.112829 0.887172 0.559269
O O6 0.333493 0.843934 0.553805
O O7 0.235835 0.976130 0.477014
O O8 0.279706 0.055070 0.579585
O O9 0.374914 0.374914 0.440367
O O10 0.366166 0.147174 0.440447
O O11 0.551806 0.253432 0.472319
O O12 0.495441 0.260252 0.364913
O O13 0.858928 0.858928 0.417655
O O14 0.759897 0.759897 0.712711
O O15 0.594035 0.881242 0.668805
O O16 0.551574 0.748984 0.756783
O O17 0.376467 0.623534 0.558748
O O18 0.217363 0.450489 0.572011
O O19 0.000000 0.500000 0.587078
O O20 0.379580 0.620421 0.786915
#
# Coordination Sequence:
#
# PCOD8306764 Si02
#       8
#     8   8   8   8   8   8   8   8
#     4   9  19  35  59  86 114 154 202 237 285 346
#     4  10  22  37  59  87 113 150 199 251 305 357
#     4   9  18  33  55  86 122 157 189 232 293 360
#     4  10  20  34  57  87 119 152 189 239 297 355
#     4  11  24  39  58  87 120 157 198 247 302 356
#     4  10  21  35  57  90 119 151 196 246 301 360
#     4  10  21  41  62  80 116 156 205 254 296 352
#     4   9  19  37  61  87 117 157 202 245 294 355
#
# _framework density 20.343696999999999
#
# number of rings (size 3 to 8) (size 9 to 14) (size 15 to 20)
#    0.000    2.250    1.250    2.250    5.250    3.250 
#    0.000    5.000    0.000    2.625    0.000    0.000 
#    0.000    0.000    0.000    0.000    0.000    0.000 
#
# Total GULP energy -793317.370798 kJ/mol
# GULP energy per Si atom -12395.583919 kJ/mol
# Density = 2.029739 g / cm^3
# Si number density = 20.343697 Si / 1000 Ang^3
#
#
#
# Elastic Constant Matrix: (Units=GPa)
#
#
# Indices 1 2 3 4 5 6 
#
# 1 60.4482 34.1700 36.8715 0.0000 0.0000 -0.0003
# 2 34.1700 60.4482 36.8715 0.0000 0.0000 0.0003
# 3 36.8715 36.8715 112.7026 0.0000 0.0000 0.0000
# 4 0.0000 0.0000 0.0000 12.3793 0.0000 0.0000
# 5 0.0000 0.0000 0.0000 0.0000 12.3793 0.0000
# 6 -0.0003 0.0003 0.0000 0.0000 0.0000 20.6532
#
#
#
# Elastic Compliance Matrix: (Units=1/GPa)
#
#
# Indices 1 2 3 4 5 6 
#
# 1 0.026120 -0.011934 -0.004641 0.000000 0.000000 0.000000
# 2 -0.011934 0.026120 -0.004641 0.000000 0.000000 0.000000
# 3 -0.004641 -0.004641 0.011910 0.000000 0.000000 0.000000
# 4 0.000000 0.000000 0.000000 0.080780 0.000000 0.000000
# 5 0.000000 0.000000 0.000000 0.000000 0.080780 0.000000
# 6 0.000000 0.000000 0.000000 0.000000 0.000000 0.048419
#
#
# Mechanical properties :
#
#
# Convention : Reuss Voigt Hill
#
# Bulk Modulus (GPa) = 46.04629 49.93613 47.99121
# Shear Modulus (GPa) = 15.44164 17.46145 16.45155
#
# Velocity S-wave (km/s) = 2.75805 2.93289 2.84682
# Velocity P-wave (km/s) = 5.72938 6.00572 5.86918
#
# Compressibility (1/GPa) = 0.02171728
#
# Stress axis : x y z
#
# Youngs Moduli (GPa) = 38.28467 38.28467 83.96601
#
# Poissons Ratio (x) = 0.45690 0.38969
# Poissons Ratio (y) = 0.45690 0.38969
# Poissons Ratio (z) = 0.17768 0.17768
#
# Static dielectric constant tensor:
#      x y z
#    x 3.756750 0.000000 0.000000 
#    y 0.000000 3.756750 0.000000 
#    z 0.000000 0.000000 3.536160 
# 
# 
# High freq. dielectric constant tensor:
#      x y z
#    x 1.783180 0.000000 0.000000 
#    y 0.000000 1.783180 0.000000 
#    z 0.000000 0.000000 1.785800 
# 
# From -- ./inp_files/2821.got.cif
#   From: 2010.03.12/outbox.cif.g09.slc.cpg/sg101_2_cif.got.tgz:2821.got - 2010.04.14 01:38:52.
