data_PCOD8306618
_publ_section_title
;
Structure prediction by ZEFSAII (Michael W. Deem and Ramdas Pophale) SiO2 
 PCOD8306618
Probable space group: P 4 M M
;
_chemical_formula_sum "Si O2"
_cell_formula_units_Z 48
_cell_length_a 21.868736
_cell_length_b 21.868736
_cell_length_c 5.045084
_cell_angle_alpha 90.000000
_cell_angle_beta 90.000000
_cell_angle_gamma 90.000000
_cell_volume 2412.769116
_symmetry_space_group_name_H-M "P 4 M M"
_symmetry_group_IT_number 99
_symmetry_cell_setting 'tetragonal'
loop_
_space_group_symop_operation_xyz
x,y,z
-y,x,z
-x,-y,z
y,-x,z
-x,y,z
x,-y,z
-y,-x,z
y,x,z
loop_
_atom_site_type_symbol
_atom_site_label
_atom_site_fract_x
_atom_site_fract_y
_atom_site_fract_z
Si Si1 0.668801 0.429873 0.913820
Si Si2 0.070829 0.168779 0.911038
Si Si3 0.871527 0.630507 0.435295
Si Si4 0.774232 0.873147 0.409519
Si Si5 0.929436 0.429006 0.942439
Si Si6 0.746298 0.570291 0.417237
O O1 0.649856 0.500000 0.874883
O O2 0.608255 0.391746 0.859937
O O3 0.721348 0.411720 0.705551
O O4 0.693526 0.415971 0.205596
O O5 0.103331 0.103331 0.946694
O O6 0.099060 0.216933 0.118151
O O7 0.000000 0.158584 0.966076
O O8 0.080910 0.195025 0.618292
O O9 0.869912 0.702946 0.470318
O O10 0.888038 0.599406 0.713144
O O11 0.804243 0.611032 0.345918
O O12 0.919103 0.608170 0.213357
O O13 0.806093 0.806093 0.431772
O O14 0.911529 0.500000 0.984029
O O15 0.000000 0.422333 0.860907
O O16 0.766984 0.500000 0.403687
#
# Coordination Sequence:
#
# PCOD8306618 Si02
#       6
#     8   8   8   8   8   8
#     4  10  21  37  57  83 113 145 185 234 288 342
#     4  10  21  39  61  85 117 151 185 232 280 326
#     4  12  23  39  63  83 111 157 195 224 280 348
#     4  10  23  39  56  85 119 149 187 236 281 326
#     4  11  24  40  59  88 120 146 185 240 284 327
#     4  10  21  37  57  82 111 145 189 237 280 330
#
# _framework density 19.894155999999999
#
# number of rings (size 3 to 8) (size 9 to 14) (size 15 to 20)
#    0.000    1.500    0.000    5.000    0.000    8.333 
#    0.000    1.667    0.000    6.000    0.000    0.000 
#    0.000    0.000    0.000    0.000    0.000    0.000 
#
# Total GULP energy -595497.668060 kJ/mol
# GULP energy per Si atom -12406.201418 kJ/mol
# Density = 1.984888 g / cm^3
# Si number density = 19.894156 Si / 1000 Ang^3
#
#
#
# Elastic Constant Matrix: (Units=GPa)
#
#
# Indices 1 2 3 4 5 6 
#
# 1 112.0120 49.3901 14.5468 0.0000 0.0000 0.0016
# 2 49.3901 112.0120 14.5468 0.0000 0.0000 -0.0016
# 3 14.5468 14.5468 83.1862 0.0000 0.0000 0.0000
# 4 0.0000 0.0000 0.0000 24.0309 0.0000 0.0000
# 5 0.0000 0.0000 0.0000 0.0000 24.0309 0.0000
# 6 0.0016 -0.0016 0.0000 0.0000 0.0000 18.2126
#
#
#
# Elastic Compliance Matrix: (Units=1/GPa)
#
#
# Indices 1 2 3 4 5 6 
#
# 1 0.011183 -0.004786 -0.001119 0.000000 0.000000 -0.000001
# 2 -0.004786 0.011183 -0.001119 0.000000 0.000000 0.000001
# 3 -0.001119 -0.001119 0.012412 0.000000 0.000000 0.000000
# 4 0.000000 0.000000 0.000000 0.041613 0.000000 0.000000
# 5 0.000000 0.000000 0.000000 0.000000 0.041613 0.000000
# 6 -0.000001 0.000001 0.000000 0.000000 0.000000 0.054907
#
#
# Mechanical properties :
#
#
# Convention : Reuss Voigt Hill
#
# Bulk Modulus (GPa) = 48.23378 51.57530 49.90454
# Shear Modulus (GPa) = 25.79061 28.50332 27.14697
#
# Velocity S-wave (km/s) = 3.60445 3.78927 3.69802
# Velocity P-wave (km/s) = 6.45140 6.71758 6.58584
#
# Compressibility (1/GPa) = 0.02073236
#
# Stress axis : x y z
#
# Youngs Moduli (GPa) = 89.42067 89.42067 80.56410
#
# Poissons Ratio (x) = 0.42794 0.09013
# Poissons Ratio (y) = 0.42794 0.09013
# Poissons Ratio (z) = 0.10004 0.10004
#
# Static dielectric constant tensor:
#      x y z
#    x 3.511560 0.000000 0.000000 
#    y 0.000000 3.511560 0.000000 
#    z 0.000000 0.000000 3.759520 
# 
# 
# High freq. dielectric constant tensor:
#      x y z
#    x 1.773730 0.000000 0.000000 
#    y 0.000000 1.773730 0.000000 
#    z 0.000000 0.000000 1.794060 
# 
# From -- ./inp_files/376.got.cif
#   From: 2010.03.12/outbox.cif.g09.slc.cpg/sg99_cif.got.tgz:376.got - 2010.04.08 21:11:30.
