data_PCOD8306467
_publ_section_title
;
Structure prediction by ZEFSAII (Michael W. Deem and Ramdas Pophale) SiO2 
 PCOD8306467
Probable space group: P 4 M M
;
_chemical_formula_sum "Si O2"
_cell_formula_units_Z 64
_cell_length_a 18.038888
_cell_length_b 18.038888
_cell_length_c 11.233581
_cell_angle_alpha 90.000000
_cell_angle_beta 90.000000
_cell_angle_gamma 90.000000
_cell_volume 3655.423886
_symmetry_space_group_name_H-M "P 4 M M"
_symmetry_group_IT_number 99
_symmetry_cell_setting 'tetragonal'
loop_
_space_group_symop_operation_xyz
x,y,z
-y,x,z
-x,-y,z
y,-x,z
-x,y,z
x,-y,z
-y,-x,z
y,x,z
loop_
_atom_site_type_symbol
_atom_site_label
_atom_site_fract_x
_atom_site_fract_y
_atom_site_fract_z
Si Si1 0.788174 0.088777 0.987230
Si Si2 0.301960 0.182494 0.173040
Si Si3 0.585608 0.150811 0.594691
Si Si4 0.913489 0.709308 0.740245
Si Si5 0.656485 0.919462 0.376519
Si Si6 0.918859 0.802350 0.518607
Si Si7 0.585074 0.702109 0.181665
Si Si8 0.583379 0.701587 0.460150
O O1 0.867000 0.133001 0.987786
O O2 0.743766 0.105961 0.866999
O O3 0.802608 0.000000 0.004473
O O4 0.733416 0.120589 0.087634
O O5 0.236372 0.236372 0.221710
O O6 0.348475 0.142107 0.275746
O O7 0.365531 0.235199 0.113014
O O8 0.500000 0.146000 0.631647
O O9 0.633886 0.132131 0.712511
O O10 0.602059 0.093777 0.487744
O O11 0.608246 0.230562 0.543007
O O12 0.889395 0.769566 0.642711
O O13 0.000000 0.689859 0.728472
O O14 0.741156 0.920058 0.417510
O O15 0.635400 0.000000 0.323638
O O16 0.866876 0.866876 0.471867
O O17 0.000000 0.836793 0.538163
O O18 0.500000 0.702271 0.136791
O O19 0.620691 0.620691 0.157986
O O20 0.591439 0.721810 0.321413
O O21 0.500000 0.678141 0.488937
O O22 0.633054 0.633054 0.498251
#
# Coordination Sequence:
#
# PCOD8306467 Si02
#       8
#     8   8   8   8   8   8   8   8
#     4  10  21  37  56  77 101 132 172 218 268 319
#     4  10  19  32  51  72  99 134 168 208 256 305
#     4  10  19  31  49  73 100 129 164 206 249 299
#     4   9  19  34  49  68  95 126 163 206 252 303
#     4  10  19  29  44  67  93 124 161 198 241 297
#     4   9  17  28  43  64  89 117 151 193 241 294
#     4   9  17  30  48  72 102 133 166 204 246 294
#     4   9  17  28  44  69  99 129 161 197 239 289
#
# _framework density 17.508229
#
# number of rings (size 3 to 8) (size 9 to 14) (size 15 to 20)
#    0.000    2.500    1.250    2.250    0.000    4.000 
#    0.000    1.875    0.000    4.125    0.000    1.750 
#    0.000    0.000    0.000    3.750    0.000    0.250 
#
# Total GULP energy -793136.409505 kJ/mol
# GULP energy per Si atom -12392.756399 kJ/mol
# Density = 1.746838 g / cm^3
# Si number density = 17.508229 Si / 1000 Ang^3
#
#
#
# Elastic Constant Matrix: (Units=GPa)
#
#
# Indices 1 2 3 4 5 6 
#
# 1 95.6909 55.8586 15.9128 0.0000 0.0000 0.0001
# 2 55.8586 95.6909 15.9128 0.0000 0.0000 -0.0001
# 3 15.9128 15.9128 33.5121 0.0000 0.0000 0.0000
# 4 0.0000 0.0000 0.0000 19.8151 0.0000 0.0000
# 5 0.0000 0.0000 0.0000 0.0000 19.8151 0.0000
# 6 0.0001 -0.0001 0.0000 0.0000 0.0000 19.0240
#
#
#
# Elastic Compliance Matrix: (Units=1/GPa)
#
#
# Indices 1 2 3 4 5 6 
#
# 1 0.016217 -0.008888 -0.003480 0.000000 0.000000 0.000000
# 2 -0.008888 0.016217 -0.003480 0.000000 0.000000 0.000000
# 3 -0.003480 -0.003480 0.033145 0.000000 0.000000 0.000000
# 4 0.000000 0.000000 0.000000 0.050467 0.000000 0.000000
# 5 0.000000 0.000000 0.000000 0.000000 0.050467 0.000000
# 6 0.000000 0.000000 0.000000 0.000000 0.000000 0.052565
#
#
# Mechanical properties :
#
#
# Convention : Reuss Voigt Hill
#
# Bulk Modulus (GPa) = 29.51354 44.47359 36.99357
# Shear Modulus (GPa) = 19.07894 20.87815 19.97855
#
# Velocity S-wave (km/s) = 3.30466 3.45697 3.38167
# Velocity P-wave (km/s) = 5.60844 6.43357 6.03513
#
# Compressibility (1/GPa) = 0.03388275
#
# Stress axis : x y z
#
# Youngs Moduli (GPa) = 61.66249 61.66249 30.17040
#
# Poissons Ratio (x) = 0.54805 0.10500
# Poissons Ratio (y) = 0.54805 0.10500
# Poissons Ratio (z) = 0.21460 0.21460
#
# Static dielectric constant tensor:
#      x y z
#    x 3.331810 0.000000 0.000000 
#    y 0.000000 3.331810 0.000000 
#    z 0.000000 0.000000 2.958550 
# 
# 
# High freq. dielectric constant tensor:
#      x y z
#    x 1.680750 0.000000 0.000000 
#    y 0.000000 1.680750 0.000000 
#    z 0.000000 0.000000 1.635530 
# 
# From -- ./inp_files/1598.got.cif
#   From: 2010.03.12/outbox.cif.g09.slc.cpg/sg99_cif.got.tgz:1598.got - 2010.04.08 21:11:30.
