data_PCOD8306542
_publ_section_title
;
Structure prediction by ZEFSAII (Michael W. Deem and Ramdas Pophale) SiO2 
 PCOD8306542
Probable space group: P 4 M M
;
_chemical_formula_sum "Si O2"
_cell_formula_units_Z 56
_cell_length_a 13.412569
_cell_length_b 13.412569
_cell_length_c 18.080025
_cell_angle_alpha 90.000000
_cell_angle_beta 90.000000
_cell_angle_gamma 90.000000
_cell_volume 3252.542387
_symmetry_space_group_name_H-M "P 4 M M"
_symmetry_group_IT_number 99
_symmetry_cell_setting 'tetragonal'
loop_
_space_group_symop_operation_xyz
x,y,z
-y,x,z
-x,-y,z
y,-x,z
-x,y,z
x,-y,z
-y,-x,z
y,x,z
loop_
_atom_site_type_symbol
_atom_site_label
_atom_site_fract_x
_atom_site_fract_y
_atom_site_fract_z
Si Si1 0.780072 0.616696 0.021920
Si Si2 0.881221 0.609650 0.593036
Si Si3 0.268657 0.886824 0.728867
Si Si4 0.889512 0.381441 0.432594
Si Si5 0.721416 0.115633 0.893899
Si Si6 0.617638 0.223202 0.287577
Si Si7 0.883047 0.280971 0.157160
O O1 0.757346 0.500000 0.030731
O O2 0.674798 0.674798 0.024631
O O3 0.852250 0.654025 0.086645
O O4 0.837729 0.635863 0.945175
O O5 0.834130 0.500000 0.598263
O O6 0.835686 0.668088 0.663196
O O7 0.852613 0.658606 0.513239
O O8 0.000000 0.603514 0.598910
O O9 0.159858 0.840143 0.731015
O O10 0.319082 0.873254 0.809635
O O11 0.251168 0.000000 0.708353
O O12 0.896111 0.500000 0.437524
O O13 0.813814 0.348891 0.368686
O O14 0.000000 0.339046 0.414512
O O15 0.825183 0.174818 0.906662
O O16 0.741273 0.000000 0.913485
O O17 0.500000 0.240175 0.280847
O O18 0.671615 0.328386 0.271464
O O19 0.653020 0.140585 0.229235
O O20 0.823562 0.176439 0.158884
O O21 0.000000 0.256630 0.154254
#
# Coordination Sequence:
#
# PCOD8306542 Si02
#       7
#     8   8   8   8   8   8   8
#     4  10  21  36  53  74  99 126 158 194 231 274
#     4   8  14  25  41  62  87 113 145 188 234 277
#     4   9  17  28  42  62  89 120 152 185 223 270
#     4   8  14  26  44  64  86 113 147 190 237 281
#     4   9  18  31  46  67  94 123 158 197 236 281
#     4  10  20  32  47  69  95 124 160 198 236 280
#     4  10  21  36  54  77 102 127 157 191 228 273
#
# _framework density 17.217300999999999
#
# number of rings (size 3 to 8) (size 9 to 14) (size 15 to 20)
#    0.000    2.857    0.000    2.143    0.000    4.429 
#    0.000    2.857    0.000    5.143    0.000    0.000 
#    0.000    3.714    0.000    0.286    0.000    0.000 
#
# Total GULP energy -694038.730217 kJ/mol
# GULP energy per Si atom -12393.548754 kJ/mol
# Density = 1.717811 g / cm^3
# Si number density = 17.217301 Si / 1000 Ang^3
#
#
#
# Elastic Constant Matrix: (Units=GPa)
#
#
# Indices 1 2 3 4 5 6 
#
# 1 87.9329 40.3401 45.3937 0.0000 0.0000 0.0003
# 2 40.3401 87.9329 45.3937 0.0000 0.0000 -0.0003
# 3 45.3937 45.3937 129.0848 0.0000 0.0000 0.0000
# 4 0.0000 0.0000 0.0000 24.1319 0.0000 0.0000
# 5 0.0000 0.0000 0.0000 0.0000 24.1319 0.0000
# 6 0.0003 -0.0003 0.0000 0.0000 0.0000 12.6724
#
#
#
# Elastic Compliance Matrix: (Units=1/GPa)
#
#
# Indices 1 2 3 4 5 6 
#
# 1 0.015695 -0.005316 -0.003650 0.000000 0.000000 0.000000
# 2 -0.005316 0.015695 -0.003650 0.000000 0.000000 0.000000
# 3 -0.003650 -0.003650 0.010314 0.000000 0.000000 0.000000
# 4 0.000000 0.000000 0.000000 0.041439 0.000000 0.000000
# 5 0.000000 0.000000 0.000000 0.000000 0.041439 0.000000
# 6 0.000000 0.000000 0.000000 0.000000 0.000000 0.078912
#
#
# Mechanical properties :
#
#
# Convention : Reuss Voigt Hill
#
# Bulk Modulus (GPa) = 60.70705 63.02286 61.86495
# Shear Modulus (GPa) = 21.34773 23.77546 22.56160
#
# Velocity S-wave (km/s) = 3.52504 3.72008 3.62388
# Velocity P-wave (km/s) = 7.20443 7.42535 7.31572
#
# Compressibility (1/GPa) = 0.01647255
#
# Stress axis : x y z
#
# Youngs Moduli (GPa) = 63.71312 63.71312 96.95665
#
# Poissons Ratio (x) = 0.33871 0.35388
# Poissons Ratio (y) = 0.33871 0.35388
# Poissons Ratio (z) = 0.23255 0.23255
#
# Static dielectric constant tensor:
#      x y z
#    x 2.999880 0.000000 0.000000 
#    y 0.000000 2.999880 0.000000 
#    z 0.000000 0.000000 3.682470 
# 
# 
# High freq. dielectric constant tensor:
#      x y z
#    x 1.640310 0.000000 0.000000 
#    y 0.000000 1.640310 0.000000 
#    z 0.000000 0.000000 1.690330 
# 
# From -- ./inp_files/2133.got.cif
#   From: 2010.03.12/outbox.cif.g09.slc.cpg/sg99_cif.got.tgz:2133.got - 2010.04.08 21:11:30.
