data_PCOD8306975
_publ_section_title
;
Structure prediction by ZEFSAII (Michael W. Deem and Ramdas Pophale) SiO2 
 PCOD8306975
Probable space group: P 4 C C
;
_chemical_formula_sum "Si O2"
_cell_formula_units_Z 48
_cell_length_a 12.124197
_cell_length_b 12.124197
_cell_length_c 18.128486
_cell_angle_alpha 90.000000
_cell_angle_beta 90.000000
_cell_angle_gamma 90.000000
_cell_volume 2664.817700
_symmetry_space_group_name_H-M "P 4 C C"
_symmetry_group_IT_number 103
_symmetry_cell_setting 'tetragonal'
loop_
_space_group_symop_operation_xyz
x,y,z
-y,x,z
-x,-y,z
y,-x,z
-x,y,1/2+z
x,-y,1/2+z
-y,-x,1/2+z
y,x,1/2+z
loop_
_atom_site_type_symbol
_atom_site_label
_atom_site_fract_x
_atom_site_fract_y
_atom_site_fract_z
Si Si1 0.523535 0.836578 0.699350
Si Si2 0.575328 0.106871 0.502575
Si Si3 0.320624 0.500306 0.577108
Si Si4 0.976465 0.336578 0.145512
Si Si5 0.924672 0.606871 0.342286
Si Si6 0.999694 0.179376 0.267754
O O1 0.507012 0.716137 0.663426
O O2 0.405736 0.898821 0.702603
O O3 0.581494 0.831046 0.779900
O O4 0.601179 0.905736 0.642259
O O5 0.504437 0.214188 0.524363
O O6 0.668954 0.081494 0.564962
O O7 0.629539 0.129539 0.422431
O O8 0.500000 0.000000 0.498010
O O9 0.391108 0.391043 0.560729
O O10 0.992988 0.216137 0.181435
O O11 0.000000 0.500000 0.346852
O O12 0.995563 0.714188 0.320499
O O13 0.108957 0.108892 0.284132
#
# Coordination Sequence:
#
# PCOD8306975 Si02
#       6
#     8   8   8   8   8   8
#     4   9  15  32  54  79 103 140 187 229 271 327
#     4  10  19  36  56  81 113 150 193 233 274 341
#     4  10  21  37  56  84 116 146 183 240 295 332
#     4   9  15  32  54  79 103 140 187 229 271 327
#     4  10  19  36  56  81 113 150 193 233 274 341
#     4  10  21  37  56  84 116 146 183 240 295 332
#
# _framework density 18.012488000000001
#
# number of rings (size 3 to 8) (size 9 to 14) (size 15 to 20)
#    0.000    2.333    6.667    0.000    0.000    5.333 
#    6.000    0.000    0.000    4.000    0.000    0.000 
#    0.000    0.000    0.000    0.000    0.000    0.000 
#
# Total GULP energy -594694.280415 kJ/mol
# GULP energy per Si atom -12389.464175 kJ/mol
# Density = 1.797149 g / cm^3
# Si number density = 18.012488 Si / 1000 Ang^3
#
#
#
# Elastic Constant Matrix: (Units=GPa)
#
#
# Indices 1 2 3 4 5 6 
#
# 1 97.6878 39.6711 36.9962 0.0000 0.0000 0.0000
# 2 39.6711 97.6878 36.9962 0.0000 0.0000 0.0000
# 3 36.9962 36.9962 151.9211 0.0000 0.0000 0.0000
# 4 0.0000 0.0000 0.0000 12.0204 0.0000 0.0000
# 5 0.0000 0.0000 0.0000 0.0000 12.0204 0.0000
# 6 0.0000 0.0000 0.0000 0.0000 0.0000 13.9592
#
#
#
# Elastic Compliance Matrix: (Units=1/GPa)
#
#
# Indices 1 2 3 4 5 6 
#
# 1 0.012808 -0.004428 -0.002041 0.000000 0.000000 0.000000
# 2 -0.004428 0.012808 -0.002041 0.000000 0.000000 0.000000
# 3 -0.002041 -0.002041 0.007576 0.000000 0.000000 0.000000
# 4 0.000000 0.000000 0.000000 0.083192 0.000000 0.000000
# 5 0.000000 0.000000 0.000000 0.000000 0.083192 0.000000
# 6 0.000000 0.000000 0.000000 0.000000 0.000000 0.071637
#
#
# Mechanical properties :
#
#
# Convention : Reuss Voigt Hill
#
# Bulk Modulus (GPa) = 61.83245 63.84710 62.83977
# Shear Modulus (GPa) = 17.02863 23.17556 20.10210
#
# Velocity S-wave (km/s) = 3.07804 3.59087 3.34430
# Velocity P-wave (km/s) = 6.85817 7.26054 7.06222
#
# Compressibility (1/GPa) = 0.01617274
#
# Stress axis : x y z
#
# Youngs Moduli (GPa) = 78.07675 78.07675 131.99202
#
# Poissons Ratio (x) = 0.34576 0.26934
# Poissons Ratio (y) = 0.34576 0.26934
# Poissons Ratio (z) = 0.15932 0.15932
#
# Static dielectric constant tensor:
#      x y z
#    x 3.164210 0.000000 0.000000 
#    y 0.000000 3.164210 0.000000 
#    z 0.000000 0.000000 4.006810 
# 
# 
# High freq. dielectric constant tensor:
#      x y z
#    x 1.678450 0.000000 0.000000 
#    y 0.000000 1.678450 0.000000 
#    z 0.000000 0.000000 1.690270 
# 
# From -- ./inp_files/1222.got.cif
#   From: 2010.03.12/outbox.cif.g09.slc.cpg/sg103_cif.got.tgz:1222.got - 2010.04.14 01:42:52.
