data_PCOD8306079
_publ_section_title
;
Structure prediction by ZEFSAII (Michael W. Deem and Ramdas Pophale) SiO2 
 PCOD8306079
Probable space group: I 4 2 2 
;
_chemical_formula_sum "Si O2"
_cell_formula_units_Z 96
_cell_length_a 23.123787
_cell_length_b 23.123787
_cell_length_c 9.438390
_cell_angle_alpha 90.000000
_cell_angle_beta 90.000000
_cell_angle_gamma 90.000000
_cell_volume 5046.797036
_symmetry_space_group_name_H-M "I 4 2 2 "
_symmetry_group_IT_number 97
_symmetry_cell_setting 'tetragonal'
loop_
_space_group_symop_operation_xyz
x,y,z
-y,x,z
-x,-y,z
y,-x,z
x,-y,-z
-x,y,-z
y,x,-z
-y,-x,-z
1/2+x,1/2+y,1/2+z
1/2-y,1/2+x,1/2+z
1/2-x,1/2-y,1/2+z
1/2+y,1/2-x,1/2+z
1/2+x,1/2-y,1/2-z
1/2-x,1/2+y,1/2-z
1/2+y,1/2+x,1/2-z
1/2-y,1/2-x,1/2-z
loop_
_atom_site_type_symbol
_atom_site_label
_atom_site_fract_x
_atom_site_fract_y
_atom_site_fract_z
Si Si1 0.396250 0.755486 0.767205
Si Si2 0.378709 0.798046 0.067313
Si Si3 0.919179 0.500992 0.332252
Si Si4 0.192808 0.213908 0.253215
Si Si5 0.981847 0.290564 0.771742
Si Si6 0.721043 0.877997 0.955737
O O1 0.384933 0.797238 0.898847
O O2 0.355468 0.698266 0.780203
O O3 0.465878 0.744747 0.757619
O O4 0.374559 0.784717 0.622937
O O5 0.345856 0.740436 0.120551
O O6 0.442394 0.799891 0.133352
O O7 0.339755 0.854005 0.108923
O O8 0.935742 0.500000 0.500000
O O9 0.940802 0.559199 0.250000
O O10 0.851288 0.490449 0.316164
O O11 0.948003 0.448003 0.250000
O O12 0.256609 0.243392 0.250000
O O13 0.161484 0.226548 0.102839
O O14 0.943227 0.268198 0.902699
#
# Coordination Sequence:
#
# PCOD8306079 Si02
#       6
#    16  16  16  16  16  16
#     4  12  21  31  52  82 104 128 172 217 264 316
#     4  10  21  37  56  74 101 138 177 217 258 305
#     4  11  23  38  53  69  93 130 178 226 265 303
#     4   9  19  35  54  77 103 130 164 213 267 313
#     4  11  24  37  49  71 105 139 170 211 259 304
#     4  10  20  37  56  74 101 138 176 217 259 306
#
# _framework density 19.021964000000001
#
# number of rings (size 3 to 8) (size 9 to 14) (size 15 to 20)
#    0.000    1.500    0.000    8.000    0.000    8.667 
#    0.000    0.000    0.000    0.000    0.000    0.000 
#    0.000   10.667    0.000   53.333    0.000   20.000 
#
# Total GULP energy -594772.853209 kJ/mol
# GULP energy per Si atom -12391.101109 kJ/mol
# Density = 1.897867 g / cm^3
# Si number density = 19.021964 Si / 1000 Ang^3
#
#
#
# Elastic Constant Matrix: (Units=GPa)
#
#
# Indices 1 2 3 4 5 6 
#
# 1 93.3500 45.3685 19.5377 0.0000 0.0000 0.0000
# 2 45.3685 93.3503 19.5380 0.0000 0.0000 0.0000
# 3 19.5377 19.5380 126.9622 0.0000 0.0000 0.0000
# 4 0.0000 0.0000 0.0000 20.4592 0.0000 0.0000
# 5 0.0000 0.0000 0.0000 0.0000 20.4593 0.0000
# 6 0.0000 0.0000 0.0000 0.0000 0.0000 20.3690
#
#
#
# Elastic Compliance Matrix: (Units=1/GPa)
#
#
# Indices 1 2 3 4 5 6 
#
# 1 0.014188 -0.006653 -0.001160 0.000000 0.000000 0.000000
# 2 -0.006653 0.014188 -0.001160 0.000000 0.000000 0.000000
# 3 -0.001160 -0.001160 0.008233 0.000000 0.000000 0.000000
# 4 0.000000 0.000000 0.000000 0.048878 0.000000 0.000000
# 5 0.000000 0.000000 0.000000 0.000000 0.048878 0.000000
# 6 0.000000 0.000000 0.000000 0.000000 0.000000 0.049094
#
#
# Mechanical properties :
#
#
# Convention : Reuss Voigt Hill
#
# Bulk Modulus (GPa) = 53.57398 53.61677 53.59537
# Shear Modulus (GPa) = 24.08179 27.53871 25.81025
#
# Velocity S-wave (km/s) = 3.56195 3.80904 3.68756
# Velocity P-wave (km/s) = 6.71878 6.89877 6.80937
#
# Compressibility (1/GPa) = 0.01866578
#
# Stress axis : x y z
#
# Youngs Moduli (GPa) = 70.48005 70.48028 121.45854
#
# Poissons Ratio (x) = 0.46890 0.14084
# Poissons Ratio (y) = 0.46890 0.14085
# Poissons Ratio (z) = 0.08173 0.08173
#
# Static dielectric constant tensor:
#      x y z
#    x 3.387510 0.000000 0.000000 
#    y 0.000000 3.387510 0.000000 
#    z 0.000000 0.000000 3.762930 
# 
# 
# High freq. dielectric constant tensor:
#      x y z
#    x 1.707530 0.000000 0.000000 
#    y 0.000000 1.707530 0.000000 
#    z 0.000000 0.000000 1.771050 
# 
# From -- ./inp_files/2465.got.cif
#   From: 2010.03.12/outbox.cif.g09.slc.cpg/sg97_2_cif.got.tgz:2465.got - 2010.04.08 20:59:42.
