data_PCOD8306609
_publ_section_title
;
Structure prediction by ZEFSAII (Michael W. Deem and Ramdas Pophale) SiO2 
 PCOD8306609
Probable space group: P 4 M M
;
_chemical_formula_sum "Si O2"
_cell_formula_units_Z 40
_cell_length_a 18.581885
_cell_length_b 18.581885
_cell_length_c 5.205182
_cell_angle_alpha 90.000000
_cell_angle_beta 90.000000
_cell_angle_gamma 90.000000
_cell_volume 1797.278815
_symmetry_space_group_name_H-M "P 4 M M"
_symmetry_group_IT_number 99
_symmetry_cell_setting 'tetragonal'
loop_
_space_group_symop_operation_xyz
x,y,z
-y,x,z
-x,-y,z
y,-x,z
-x,y,z
x,-y,z
-y,-x,z
y,x,z
loop_
_atom_site_type_symbol
_atom_site_label
_atom_site_fract_x
_atom_site_fract_y
_atom_site_fract_z
Si Si1 0.281230 0.083811 0.046750
Si Si2 0.799838 0.914344 0.551028
Si Si3 0.416190 0.218772 0.620229
Si Si4 0.585656 0.700162 0.115957
Si Si5 0.581678 0.081678 0.333494
O O1 0.236595 0.113631 0.289668
O O2 0.366265 0.099385 0.093156
O O3 0.266690 0.000000 0.035243
O O4 0.252083 0.115718 0.779247
O O5 0.878077 0.878077 0.579186
O O6 0.810692 0.000000 0.560138
O O7 0.500000 0.233320 0.631717
O O8 0.384284 0.247919 0.887732
O O9 0.400621 0.133735 0.573838
O O10 0.386365 0.263403 0.377311
O O11 0.500000 0.689309 0.106862
O O12 0.621923 0.621923 0.087803
O O13 0.500000 0.093990 0.232865
O O14 0.593996 0.000000 0.434117
#
# Coordination Sequence:
#
# PCOD8306609 Si02
#       5
#     8   8   8   8   8
#     4   9  19  35  54  79 111 141 172 221 276 313
#     4  10  20  36  56  78 108 144 180 220 268 318
#     4   9  19  35  54  79 111 141 172 221 276 313
#     4  10  20  36  56  78 108 144 180 220 268 318
#     4   9  18  36  61  84 106 140 185 222 258 319
#
# _framework density 22.255870000000002
#
# number of rings (size 3 to 8) (size 9 to 14) (size 15 to 20)
#    0.000    2.600    0.000    1.200    0.000    2.000 
#    0.000   12.000    0.000   24.000    0.000    0.000 
#    0.000    0.000    0.000    0.000    0.000    0.000 
#
# Total GULP energy -495764.009949 kJ/mol
# GULP energy per Si atom -12394.100249 kJ/mol
# Density = 2.220521 g / cm^3
# Si number density = 22.255870 Si / 1000 Ang^3
#
#
#
# Elastic Constant Matrix: (Units=GPa)
#
#
# Indices 1 2 3 4 5 6 
#
# 1 82.3429 38.4362 21.0639 0.0000 0.0000 0.0000
# 2 38.4362 82.3429 21.0639 0.0000 0.0000 0.0000
# 3 21.0639 21.0639 125.4348 0.0000 0.0000 0.0000
# 4 0.0000 0.0000 0.0000 13.8655 0.0000 0.0000
# 5 0.0000 0.0000 0.0000 0.0000 13.8655 0.0000
# 6 0.0000 0.0000 0.0000 0.0000 0.0000 15.3664
#
#
#
# Elastic Compliance Matrix: (Units=1/GPa)
#
#
# Indices 1 2 3 4 5 6 
#
# 1 0.015785 -0.006990 -0.001477 0.000000 0.000000 0.000000
# 2 -0.006990 0.015785 -0.001477 0.000000 0.000000 0.000000
# 3 -0.001477 -0.001477 0.008468 0.000000 0.000000 0.000000
# 4 0.000000 0.000000 0.000000 0.072121 0.000000 0.000000
# 5 0.000000 0.000000 0.000000 0.000000 0.072121 0.000000
# 6 0.000000 0.000000 0.000000 0.000000 0.000000 0.065077
#
#
# Mechanical properties :
#
#
# Convention : Reuss Voigt Hill
#
# Bulk Modulus (GPa) = 49.62726 50.13876 49.88301
# Shear Modulus (GPa) = 18.11837 22.58994 20.35415
#
# Velocity S-wave (km/s) = 2.85633 3.18938 3.02744
# Velocity P-wave (km/s) = 5.76412 6.01166 5.88919
#
# Compressibility (1/GPa) = 0.02015021
#
# Stress axis : x y z
#
# Youngs Moduli (GPa) = 63.35069 63.35069 118.08773
#
# Poissons Ratio (x) = 0.44285 0.17440
# Poissons Ratio (y) = 0.44285 0.17440
# Poissons Ratio (z) = 0.09356 0.09356
#
# Static dielectric constant tensor:
#      x y z
#    x 3.823200 0.000000 0.000000 
#    y 0.000000 3.823200 0.000000 
#    z 0.000000 0.000000 4.400340 
# 
# 
# High freq. dielectric constant tensor:
#      x y z
#    x 1.860750 0.000000 0.000000 
#    y 0.000000 1.860750 0.000000 
#    z 0.000000 0.000000 1.883340 
# 
# From -- ./inp_files/271.got.cif
#   From: 2010.03.12/outbox.cif.g09.slc.cpg/sg99_cif.got.tgz:271.got - 2010.04.08 21:11:30.
