data_PCOD8306866
_publ_section_title
;
Structure prediction by ZEFSAII (Michael W. Deem and Ramdas Pophale) SiO2 
 PCOD8306866
Probable space group: P 42 N M
;
_chemical_formula_sum "Si O2"
_cell_formula_units_Z 48
_cell_length_a 12.206001
_cell_length_b 12.206001
_cell_length_c 19.179479
_cell_angle_alpha 90.000000
_cell_angle_beta 90.000000
_cell_angle_gamma 90.000000
_cell_volume 2857.482689
_symmetry_space_group_name_H-M "P 42 N M"
_symmetry_group_IT_number 102
_symmetry_cell_setting 'tetragonal'
loop_
_space_group_symop_operation_xyz
x,y,z
1/2-y,1/2+x,1/2+z
-x,-y,z
1/2+y,1/2-x,1/2+z
1/2-x,1/2+y,1/2+z
1/2+x,1/2-y,1/2+z
-y,-x,z
y,x,z
loop_
_atom_site_type_symbol
_atom_site_label
_atom_site_fract_x
_atom_site_fract_y
_atom_site_fract_z
Si Si1 0.126488 0.694823 0.664640
Si Si2 0.869703 0.499998 0.568336
Si Si3 0.694824 0.126487 0.315267
Si Si4 0.805182 0.373509 0.815266
Si Si5 0.869703 0.499997 0.411571
Si Si6 0.126491 0.305181 0.664641
O O1 0.193210 0.806791 0.657073
O O2 0.171856 0.608608 0.607815
O O3 0.140691 0.640691 0.739952
O O4 0.999998 0.723791 0.651727
O O5 0.822433 0.499999 0.489953
O O6 0.828142 0.608603 0.607816
O O7 0.000000 0.500000 0.568952
O O8 0.806793 0.193208 0.322834
O O9 0.608610 0.171855 0.372092
O O10 0.640692 0.140688 0.239954
O O11 0.723792 0.999997 0.328181
O O12 0.693217 0.306784 0.822835
O O13 0.891400 0.328142 0.872089
O O14 0.000000 0.500000 0.410954
O O15 0.193215 0.193215 0.657073
#
# Coordination Sequence:
#
# PCOD8306866 Si02
#       6
#     8   8   8   8   8   8
#     4  10  19  32  52  76 103 136 172 213 258 303
#     4   9  18  32  52  75  99 133 171 207 250 302
#     4  10  19  32  52  76 103 136 172 213 258 303
#     4  10  19  32  52  76 103 136 172 213 258 303
#     4   9  18  32  52  75  99 133 171 207 250 302
#     4  10  19  32  52  76 103 136 172 213 258 303
#
# _framework density 16.798002
#
# number of rings (size 3 to 8) (size 9 to 14) (size 15 to 20)
#    0.000    2.333    3.333    0.000    0.000    2.000 
#    0.000    0.000    0.000    1.000    0.000   11.667 
#    0.000    0.000    0.000    0.000    0.000    0.000 
#
# Total GULP energy -595227.891353 kJ/mol
# GULP energy per Si atom -12400.581070 kJ/mol
# Density = 1.675977 g / cm^3
# Si number density = 16.798002 Si / 1000 Ang^3
#
#
#
# Elastic Constant Matrix: (Units=GPa)
#
#
# Indices 1 2 3 4 5 6 
#
# 1 88.7434 48.4370 39.5170 0.0000 0.0000 0.0002
# 2 48.4370 88.7434 39.5170 0.0000 0.0000 -0.0002
# 3 39.5170 39.5170 141.7443 0.0000 0.0000 0.0000
# 4 0.0000 0.0000 0.0000 12.0555 0.0000 0.0000
# 5 0.0000 0.0000 0.0000 0.0000 12.0555 0.0000
# 6 0.0002 -0.0002 0.0000 0.0000 0.0000 9.6738
#
#
#
# Elastic Compliance Matrix: (Units=1/GPa)
#
#
# Indices 1 2 3 4 5 6 
#
# 1 0.016747 -0.008063 -0.002421 0.000000 0.000000 0.000000
# 2 -0.008063 0.016747 -0.002421 0.000000 0.000000 0.000000
# 3 -0.002421 -0.002421 0.008405 0.000000 0.000000 0.000000
# 4 0.000000 0.000000 0.000000 0.082950 0.000000 0.000000
# 5 0.000000 0.000000 0.000000 0.000000 0.082950 0.000000
# 6 0.000000 0.000000 0.000000 0.000000 0.000000 0.103372
#
#
# Mechanical properties :
#
#
# Convention : Reuss Voigt Hill
#
# Bulk Modulus (GPa) = 62.15267 63.79701 62.97484
# Shear Modulus (GPa) = 14.60517 19.54095 17.07306
#
# Velocity S-wave (km/s) = 2.95186 3.41440 3.19152
# Velocity P-wave (km/s) = 6.97842 7.32158 7.15206
#
# Compressibility (1/GPa) = 0.01608941
#
# Stress axis : x y z
#
# Youngs Moduli (GPa) = 59.71111 59.71111 118.97736
#
# Poissons Ratio (x) = 0.48143 0.28807
# Poissons Ratio (y) = 0.48143 0.28807
# Poissons Ratio (z) = 0.14457 0.14457
#
# Static dielectric constant tensor:
#      x y z
#    x 2.950410 0.000000 0.000000 
#    y 0.000000 2.950410 0.000000 
#    z 0.000000 0.000000 3.415200 
# 
# 
# High freq. dielectric constant tensor:
#      x y z
#    x 1.633000 0.000000 0.000000 
#    y 0.000000 1.633000 0.000000 
#    z 0.000000 0.000000 1.656060 
# 
# From -- ./inp_files/2709.got.cif
#   From: 2010.03.12/outbox.cif.g09.slc.cpg/sg102_2_cif.got.tgz:2709.got - 2010.04.14 01:40:42.
