data_PCOD8306828
_publ_section_title
;
Structure prediction by ZEFSAII (Michael W. Deem and Ramdas Pophale) SiO2 
 PCOD8306828
Probable space group: P 42 N M
;
_chemical_formula_sum "Si O2"
_cell_formula_units_Z 56
_cell_length_a 14.338998
_cell_length_b 14.338998
_cell_length_c 15.344898
_cell_angle_alpha 90.000000
_cell_angle_beta 90.000000
_cell_angle_gamma 90.000000
_cell_volume 3155.016351
_symmetry_space_group_name_H-M "P 42 N M"
_symmetry_group_IT_number 102
_symmetry_cell_setting 'tetragonal'
loop_
_space_group_symop_operation_xyz
x,y,z
1/2-y,1/2+x,1/2+z
-x,-y,z
1/2+y,1/2-x,1/2+z
1/2-x,1/2+y,1/2+z
1/2+x,1/2-y,1/2+z
-y,-x,z
y,x,z
loop_
_atom_site_type_symbol
_atom_site_label
_atom_site_fract_x
_atom_site_fract_y
_atom_site_fract_z
Si Si1 0.817689 0.335948 0.936360
Si Si2 0.289988 0.864484 0.394050
Si Si3 0.925089 0.925089 0.518978
Si Si4 0.261846 0.000477 0.548857
Si Si5 0.911744 0.553555 0.185569
Si Si6 0.390240 0.005592 0.880904
Si Si7 0.270944 0.032614 0.277282
Si Si8 0.077413 0.077413 0.320154
O O1 0.762162 0.237839 0.946419
O O2 0.787694 0.390675 0.850814
O O3 0.929236 0.323419 0.926822
O O4 0.806366 0.401446 0.020416
O O5 0.228907 0.771094 0.380966
O O6 0.398301 0.842093 0.412246
O O7 0.248140 0.925733 0.471849
O O8 0.293335 0.927303 0.306793
O O9 0.842942 0.971118 0.576547
O O10 0.890946 0.890946 0.420517
O O11 0.000000 0.000000 0.496380
O O12 0.320535 0.953728 0.625735
O O13 0.887616 0.505528 0.277009
O O14 0.939753 0.663041 0.196109
O O15 0.000000 0.500000 0.142539
O O16 0.500000 0.000000 0.911079
O O17 0.160797 0.037109 0.260517
O O18 0.000000 0.000000 0.329118
#
# Coordination Sequence:
#
# PCOD8306828 Si02
#       8
#     8   8   4   8   8   8   8   4
#     4  10  17  31  55  79 106 141 182 222 265 319
#     4  11  20  34  57  85 108 136 183 235 279 318
#     4  11  20  34  50  80 118 139 173 222 283 332
#     4  11  20  32  53  82 111 144 173 221 284 335
#     4  10  21  35  52  77 110 144 178 220 274 322
#     4  10  18  36  55  79 109 142 181 228 270 316
#     4  10  17  33  52  79 110 139 176 219 273 330
#     4  11  18  30  58  84 108 142 172 225 276 328
#
# _framework density 17.749513
#
# number of rings (size 3 to 8) (size 9 to 14) (size 15 to 20)
#    0.000    1.571   10.000    0.857    2.000    0.000 
#    3.857    0.000    0.000    0.429    0.000    0.000 
#    0.000    0.000    0.000    0.000    0.000    0.000 
#
# Total GULP energy -693792.528690 kJ/mol
# GULP energy per Si atom -12389.152298 kJ/mol
# Density = 1.770911 g / cm^3
# Si number density = 17.749513 Si / 1000 Ang^3
#
#
#
# Elastic Constant Matrix: (Units=GPa)
#
#
# Indices 1 2 3 4 5 6 
#
# 1 121.6539 62.8642 27.1194 0.0000 0.0000 0.0000
# 2 62.8642 121.6539 27.1194 0.0000 0.0000 0.0000
# 3 27.1194 27.1194 35.3740 0.0000 0.0000 0.0000
# 4 0.0000 0.0000 0.0000 13.3164 0.0000 0.0000
# 5 0.0000 0.0000 0.0000 0.0000 13.3164 0.0000
# 6 0.0000 0.0000 0.0000 0.0000 0.0000 33.3512
#
#
#
# Elastic Compliance Matrix: (Units=1/GPa)
#
#
# Indices 1 2 3 4 5 6 
#
# 1 0.012003 -0.005007 -0.005364 0.000000 0.000000 0.000000
# 2 -0.005007 0.012003 -0.005364 0.000000 0.000000 0.000000
# 3 -0.005364 -0.005364 0.036493 0.000000 0.000000 0.000000
# 4 0.000000 0.000000 0.000000 0.075095 0.000000 0.000000
# 5 0.000000 0.000000 0.000000 0.000000 0.075095 0.000000
# 6 0.000000 0.000000 0.000000 0.000000 0.000000 0.029984
#
#
# Mechanical properties :
#
#
# Convention : Reuss Voigt Hill
#
# Bulk Modulus (GPa) = 34.44558 56.98752 45.71655
# Shear Modulus (GPa) = 17.74190 22.76872 20.25531
#
# Velocity S-wave (km/s) = 3.16503 3.58548 3.38179
# Velocity P-wave (km/s) = 5.72758 7.02261 6.40790
#
# Compressibility (1/GPa) = 0.02903130
#
# Stress axis : x y z
#
# Youngs Moduli (GPa) = 83.31272 83.31272 27.40228
#
# Poissons Ratio (x) = 0.41713 0.14697
# Poissons Ratio (y) = 0.41713 0.14697
# Poissons Ratio (z) = 0.44685 0.44685
#
# Static dielectric constant tensor:
#      x y z
#    x 3.479940 0.000000 0.000000 
#    y 0.000000 3.479940 0.000000 
#    z 0.000000 0.000000 2.862920 
# 
# 
# High freq. dielectric constant tensor:
#      x y z
#    x 1.683110 0.000000 0.000000 
#    y 0.000000 1.683110 0.000000 
#    z 0.000000 0.000000 1.633000 
# 
# From -- ./inp_files/2824.got.cif
#   From: 2010.03.12/outbox.cif.g09.slc.cpg/sg102_2_cif.got.tgz:2824.got - 2010.04.14 01:40:42.
