data_PCOD8306712
_publ_section_title
;
Structure prediction by ZEFSAII (Michael W. Deem and Ramdas Pophale) SiO2 
 PCOD8306712
Probable space group: P 42 C M
;
_chemical_formula_sum "Si O2"
_cell_formula_units_Z 64
_cell_length_a 19.995203
_cell_length_b 19.995203
_cell_length_c 9.654231
_cell_angle_alpha 90.000000
_cell_angle_beta 90.000000
_cell_angle_gamma 90.000000
_cell_volume 3859.840168
_symmetry_space_group_name_H-M "P 42 C M"
_symmetry_group_IT_number 101
_symmetry_cell_setting 'tetragonal'
loop_
_space_group_symop_operation_xyz
x,y,z
-y,x,1/2+z
-x,-y,z
y,-x,1/2+z
-x,y,1/2+z
x,-y,1/2+z
-y,-x,z
y,x,z
loop_
_atom_site_type_symbol
_atom_site_label
_atom_site_fract_x
_atom_site_fract_y
_atom_site_fract_z
Si Si1 0.136316 0.246435 0.799690
Si Si2 0.824166 0.931541 0.573687
Si Si3 0.763892 0.651229 0.712311
Si Si4 0.860809 0.246252 0.825904
Si Si5 0.674663 0.562513 0.215479
Si Si6 0.806609 0.917125 0.068827
Si Si7 0.649714 0.762263 0.399929
Si Si8 0.676566 0.435587 0.395001
O O1 0.195916 0.195916 0.766308
O O2 0.072823 0.219525 0.713501
O O3 0.163498 0.319980 0.758910
O O4 0.113418 0.244684 0.957853
O O5 0.898058 0.898058 0.586147
O O6 0.779682 0.890636 0.467329
O O7 0.831906 0.008637 0.532259
O O8 0.708952 0.708952 0.717279
O O9 0.769117 0.620981 0.556627
O O10 0.743185 0.594005 0.822125
O O11 0.798480 0.201521 0.775823
O O12 0.917010 0.238267 0.707793
O O13 0.834008 0.321773 0.848037
O O14 0.613648 0.613648 0.221924
O O15 0.739893 0.592906 0.291837
O O16 0.652392 0.498232 0.303582
O O17 0.692049 0.544947 0.055268
O O18 0.874189 0.874189 0.080442
O O19 0.709499 0.709499 0.403482
O O20 0.616996 0.383005 0.390414
#
# Coordination Sequence:
#
# PCOD8306712 Si02
#       8
#     8   8   8   8   8   8   8   8
#     4   9  17  29  45  65  89 121 159 204 254 292
#     4  10  18  31  46  62  91 129 168 200 238 296
#     4   9  16  29  49  69  91 122 160 204 250 288
#     4   9  17  29  45  65  89 121 159 204 254 292
#     4  10  21  34  50  74 104 137 169 199 229 270
#     4  10  20  29  42  66  95 127 162 204 244 288
#     4   9  16  29  49  69  91 122 160 204 250 288
#     4  10  21  34  50  74 104 137 169 199 229 270
#
# _framework density 16.580998000000001
#
# number of rings (size 3 to 8) (size 9 to 14) (size 15 to 20)
#    0.000    2.500    1.250    1.500    1.750    2.000 
#    0.000    1.250    0.000    4.500    0.000    0.000 
#    0.000    6.000    0.000    0.000    0.000    0.000 
#
# Total GULP energy -793177.056885 kJ/mol
# GULP energy per Si atom -12393.391514 kJ/mol
# Density = 1.654326 g / cm^3
# Si number density = 16.580998 Si / 1000 Ang^3
#
#
#
# Elastic Constant Matrix: (Units=GPa)
#
#
# Indices 1 2 3 4 5 6 
#
# 1 43.8687 38.0435 34.2625 0.0000 0.0000 0.0003
# 2 38.0435 43.8687 34.2625 0.0000 0.0000 -0.0003
# 3 34.2625 34.2625 106.5417 0.0000 0.0000 0.0000
# 4 0.0000 0.0000 0.0000 21.4304 0.0000 0.0000
# 5 0.0000 0.0000 0.0000 0.0000 21.4304 0.0000
# 6 0.0003 -0.0003 0.0000 0.0000 0.0000 12.7045
#
#
#
# Elastic Compliance Matrix: (Units=1/GPa)
#
#
# Indices 1 2 3 4 5 6 
#
# 1 0.094185 -0.077484 -0.005371 0.000000 0.000000 -0.000004
# 2 -0.077484 0.094185 -0.005371 0.000000 0.000000 0.000004
# 3 -0.005371 -0.005371 0.012840 0.000000 0.000000 0.000000
# 4 0.000000 0.000000 0.000000 0.046663 0.000000 0.000000
# 5 0.000000 0.000000 0.000000 0.000000 0.046663 0.000000
# 6 -0.000004 0.000004 0.000000 0.000000 0.000000 0.078712
#
#
# Mechanical properties :
#
#
# Convention : Reuss Voigt Hill
#
# Bulk Modulus (GPa) = 40.38878 45.26846 42.82862
# Shear Modulus (GPa) = 8.96135 16.96044 12.96090
#
# Velocity S-wave (km/s) = 2.32730 3.20173 2.79887
# Velocity P-wave (km/s) = 5.62433 6.40537 6.02751
#
# Compressibility (1/GPa) = 0.02475935
#
# Stress axis : x y z
#
# Youngs Moduli (GPa) = 10.61742 10.61742 77.87883
#
# Poissons Ratio (x) = 0.82267 0.41828
# Poissons Ratio (y) = 0.82267 0.41828
# Poissons Ratio (z) = 0.05703 0.05703
#
# Static dielectric constant tensor:
#      x y z
#    x 2.936780 0.000000 0.000000 
#    y 0.000000 2.936780 0.000000 
#    z 0.000000 0.000000 3.357440 
# 
# 
# High freq. dielectric constant tensor:
#      x y z
#    x 1.605380 0.000000 0.000000 
#    y 0.000000 1.605380 0.000000 
#    z 0.000000 0.000000 1.661310 
# 
# From -- ./inp_files/841.got.cif
#   From: 2010.03.12/outbox.cif.g09.slc.cpg/sg101_1_cif.got.tgz:841.got - 2010.04.14 01:38:52.
