data_PCOD8306068
_publ_section_title
;
Structure prediction by ZEFSAII (Michael W. Deem and Ramdas Pophale) SiO2 
 PCOD8306068
Probable space group: I 4 2 2 
;
_chemical_formula_sum "Si O2"
_cell_formula_units_Z 80
_cell_length_a 30.340053
_cell_length_b 30.340053
_cell_length_c 5.243376
_cell_angle_alpha 90.000000
_cell_angle_beta 90.000000
_cell_angle_gamma 90.000000
_cell_volume 4826.626268
_symmetry_space_group_name_H-M "I 4 2 2 "
_symmetry_group_IT_number 97
_symmetry_cell_setting 'tetragonal'
loop_
_space_group_symop_operation_xyz
x,y,z
-y,x,z
-x,-y,z
y,-x,z
x,-y,-z
-x,y,-z
y,x,-z
-y,-x,-z
1/2+x,1/2+y,1/2+z
1/2-y,1/2+x,1/2+z
1/2-x,1/2-y,1/2+z
1/2+y,1/2-x,1/2+z
1/2+x,1/2-y,1/2-z
1/2-x,1/2+y,1/2-z
1/2+y,1/2+x,1/2-z
1/2-y,1/2-x,1/2-z
loop_
_atom_site_type_symbol
_atom_site_label
_atom_site_fract_x
_atom_site_fract_y
_atom_site_fract_z
Si Si1 0.049788 0.787739 0.502197
Si Si2 0.615540 0.553040 0.111808
Si Si3 0.369278 0.369278 0.500000
Si Si4 0.897226 0.775216 0.973196
Si Si5 0.233695 0.305837 0.499529
Si Si6 0.427212 0.500000 0.500000
O O1 0.048118 0.840752 0.440278
O O2 0.073162 0.762035 0.270158
O O3 0.000000 0.769757 0.500000
O O4 0.073329 0.777820 0.771302
O O5 0.626965 0.592383 0.299090
O O6 0.604833 0.505528 0.252631
O O7 0.568668 0.568668 0.000000
O O8 0.374052 0.320699 0.384013
O O9 0.858378 0.740163 0.011405
O O10 0.280380 0.280380 0.500000
O O11 0.206270 0.293731 0.250000
O O12 0.206026 0.293975 0.750000
O O13 0.455979 0.455979 0.500000
#
# Coordination Sequence:
#
# PCOD8306068 Si02
#       6
#    16  16   8  16  16   8
#     4  11  25  36  56  77  96 130 170 218 255 307
#     4  11  23  38  55  64  86 116 158 209 270 332
#     4  10  20  36  49  72  88 120 158 190 254 326
#     4  11  21  38  56  76 106 129 165 202 258 317
#     4  10  20  34  55  82 110 135 159 199 255 328
#     4  11  26  40  50  62  82 110 156 214 290 344
#
# _framework density 16.574724
#
# number of rings (size 3 to 8) (size 9 to 14) (size 15 to 20)
#    0.000    1.300    4.000    1.800    8.400    0.000 
#    0.000    1.000    0.000    0.000    0.000    0.000 
#    0.000    0.000    0.000    0.000    0.000    0.000 
#
# Total GULP energy -495712.208313 kJ/mol
# GULP energy per Si atom -12392.805208 kJ/mol
# Density = 1.653700 g / cm^3
# Si number density = 16.574724 Si / 1000 Ang^3
#
#
#
# Elastic Constant Matrix: (Units=GPa)
#
#
# Indices 1 2 3 4 5 6 
#
# 1 83.3640 36.5540 39.8749 0.0000 0.0000 0.0000
# 2 36.5540 83.3657 39.8746 0.0000 0.0000 0.0000
# 3 39.8749 39.8746 118.7212 0.0000 0.0000 0.0000
# 4 0.0000 0.0000 0.0000 25.8202 0.0000 0.0000
# 5 0.0000 0.0000 0.0000 0.0000 25.8471 0.0000
# 6 0.0000 0.0000 0.0000 0.0000 0.0000 25.7450
#
#
#
# Elastic Compliance Matrix: (Units=1/GPa)
#
#
# Indices 1 2 3 4 5 6 
#
# 1 0.016050 -0.005313 -0.003606 0.000000 0.000000 0.000000
# 2 -0.005313 0.016050 -0.003606 0.000000 0.000000 0.000000
# 3 -0.003606 -0.003606 0.010846 0.000000 0.000000 0.000000
# 4 0.000000 0.000000 0.000000 0.038729 0.000000 0.000000
# 5 0.000000 0.000000 0.000000 0.000000 0.038689 0.000000
# 6 0.000000 0.000000 0.000000 0.000000 0.000000 0.038843
#
#
# Mechanical properties :
#
#
# Convention : Reuss Voigt Hill
#
# Bulk Modulus (GPa) = 55.88191 57.56200 56.72195
# Shear Modulus (GPa) = 26.28509 26.75894 26.52202
#
# Velocity S-wave (km/s) = 3.98660 4.02237 4.00452
# Velocity P-wave (km/s) = 7.41478 7.50845 7.46176
#
# Compressibility (1/GPa) = 0.01789488
#
# Stress axis : x y z
#
# Youngs Moduli (GPa) = 62.30480 62.30647 92.20333
#
# Poissons Ratio (x) = 0.33101 0.33252
# Poissons Ratio (y) = 0.33100 0.33251
# Poissons Ratio (z) = 0.22470 0.22469
#
# Static dielectric constant tensor:
#      x y z
#    x 3.009340 0.000000 0.000000 
#    y 0.000000 3.009340 0.000000 
#    z 0.000000 0.000000 3.226140 
# 
# 
# High freq. dielectric constant tensor:
#      x y z
#    x 1.603390 0.000000 0.000000 
#    y 0.000000 1.603390 0.000000 
#    z 0.000000 0.000000 1.659290 
# 
# From -- ./inp_files/1010.got.cif
#   From: 2010.03.12/outbox.cif.g09.slc.cpg/sg97_1_cif.got.tgz:1010.got - 2010.04.08 20:59:42.
