data_PCOD8306052
_publ_section_title
;
Structure prediction by ZEFSAII (Michael W. Deem and Ramdas Pophale) SiO2 
 PCOD8306052
Probable space group: I 4 2 2 
;
_chemical_formula_sum "Si O2"
_cell_formula_units_Z 96
_cell_length_a 16.452845
_cell_length_b 16.452845
_cell_length_c 19.096984
_cell_angle_alpha 90.000000
_cell_angle_beta 90.000000
_cell_angle_gamma 90.000000
_cell_volume 5169.479255
_symmetry_space_group_name_H-M "I 4 2 2 "
_symmetry_group_IT_number 97
_symmetry_cell_setting 'tetragonal'
loop_
_space_group_symop_operation_xyz
x,y,z
-y,x,z
-x,-y,z
y,-x,z
x,-y,-z
-x,y,-z
y,x,-z
-y,-x,-z
1/2+x,1/2+y,1/2+z
1/2-y,1/2+x,1/2+z
1/2-x,1/2-y,1/2+z
1/2+y,1/2-x,1/2+z
1/2+x,1/2-y,1/2-z
1/2-x,1/2+y,1/2-z
1/2+y,1/2+x,1/2-z
1/2-y,1/2-x,1/2-z
loop_
_atom_site_type_symbol
_atom_site_label
_atom_site_fract_x
_atom_site_fract_y
_atom_site_fract_z
Si Si1 0.505029 0.631277 0.277971
Si Si2 0.570311 0.064890 0.828101
Si Si3 0.130749 0.978031 0.615535
Si Si4 0.866548 0.267941 0.002286
Si Si5 0.769619 0.496347 0.610337
Si Si6 0.195015 0.437868 0.942477
O O1 0.423344 0.582582 0.296695
O O2 0.515736 0.654290 0.196942
O O3 0.499176 0.712106 0.322764
O O4 0.593808 0.093808 0.750000
O O5 0.547368 0.145283 0.871348
O O6 0.500000 0.000000 0.825614
O O7 0.641390 0.016818 0.864930
O O8 0.210309 0.956680 0.571144
O O9 0.065598 0.907831 0.596652
O O10 0.819040 0.348219 0.026919
O O11 0.935974 0.240156 0.055928
O O12 0.803150 0.196851 0.000000
O O13 0.907633 0.276018 0.925656
O O14 0.160990 0.500000 0.000000
#
# Coordination Sequence:
#
# PCOD8306052 Si02
#       6
#    16  16  16  16  16  16
#     4   9  17  32  57  84 109 141 180 223 278 338
#     4  10  21  38  58  80 106 142 188 231 274 324
#     4   9  20  37  56  82 111 141 182 229 280 336
#     4  10  22  35  51  80 112 145 186 223 271 334
#     4  10  19  35  56  77 111 147 178 229 278 324
#     4  11  23  36  57  80 109 147 184 227 276 328
#
# _framework density 18.570536000000001
#
# number of rings (size 3 to 8) (size 9 to 14) (size 15 to 20)
#    0.000    2.167    0.000    4.000    2.333    1.667 
#    0.000    0.833    0.000    4.000    0.000    0.000 
#    0.000    0.000    0.000    0.000    0.000    0.000 
#
# Total GULP energy -595084.305407 kJ/mol
# GULP energy per Si atom -12397.589696 kJ/mol
# Density = 1.852827 g / cm^3
# Si number density = 18.570536 Si / 1000 Ang^3
#
#
#
# Elastic Constant Matrix: (Units=GPa)
#
#
# Indices 1 2 3 4 5 6 
#
# 1 81.5319 53.8136 49.8211 0.0000 0.0000 0.0000
# 2 53.8136 81.5297 49.8221 0.0000 0.0000 0.0000
# 3 49.8211 49.8221 90.8356 0.0000 0.0000 0.0000
# 4 0.0000 0.0000 0.0000 20.1712 0.0000 0.0000
# 5 0.0000 0.0000 0.0000 0.0000 20.2057 0.0000
# 6 0.0000 0.0000 0.0000 0.0000 0.0000 -14.0793
#
#
#
# Elastic Compliance Matrix: (Units=1/GPa)
#
#
# Indices 1 2 3 4 5 6 
#
# 1 0.024235 -0.011843 -0.006797 0.000000 0.000000 0.000000
# 2 -0.011843 0.024236 -0.006798 0.000000 0.000000 0.000000
# 3 -0.006797 -0.006798 0.018465 0.000000 0.000000 0.000000
# 4 0.000000 0.000000 0.000000 0.049576 0.000000 0.000000
# 5 0.000000 0.000000 0.000000 0.000000 0.049491 0.000000
# 6 0.000000 0.000000 0.000000 0.000000 0.000000 -0.071026
#
#
# Mechanical properties :
#
#
# Convention : Reuss Voigt Hill
#
# Bulk Modulus (GPa) = 62.25902 62.31230 62.28566
# Shear Modulus (GPa) = 33.06757 11.95556 22.51156
#
# Velocity S-wave (km/s) = 4.22435 2.54006 3.48547
# Velocity P-wave (km/s) = 7.57575 6.49844 7.05768
#
# Compressibility (1/GPa) = 0.01606193
#
# Stress axis : x y z
#
# Youngs Moduli (GPa) = 41.26272 41.26012 54.15593
#
# Poissons Ratio (x) = 0.48864 0.36808
# Poissons Ratio (y) = 0.48867 0.36814
# Poissons Ratio (z) = 0.28045 0.28048
#
# Static dielectric constant tensor:
#      x y z
#    x 3.316830 0.000000 0.000000 
#    y 0.000000 3.316820 0.000000 
#    z 0.000000 0.000000 3.780020 
# 
# 
# High freq. dielectric constant tensor:
#      x y z
#    x 1.722270 0.000000 0.000000 
#    y 0.000000 1.722270 0.000000 
#    z 0.000000 0.000000 1.732000 
# 
# From -- ./inp_files/6603.got.cif
#   From: 2010.03.12/outbox.cif.g09.slc.cpg/sg97_4_cif.got.tgz:6603.got - 2010.04.08 20:59:42.
