data_PCOD8306539
_publ_section_title
;
Structure prediction by ZEFSAII (Michael W. Deem and Ramdas Pophale) SiO2 
 PCOD8306539
Probable space group: P 4 M M
;
_chemical_formula_sum "Si O2"
_cell_formula_units_Z 56
_cell_length_a 13.870101
_cell_length_b 13.870101
_cell_length_c 18.047963
_cell_angle_alpha 90.000000
_cell_angle_beta 90.000000
_cell_angle_gamma 90.000000
_cell_volume 3472.061739
_symmetry_space_group_name_H-M "P 4 M M"
_symmetry_group_IT_number 99
_symmetry_cell_setting 'tetragonal'
loop_
_space_group_symop_operation_xyz
x,y,z
-y,x,z
-x,-y,z
y,-x,z
-x,y,z
x,-y,z
-y,-x,z
y,x,z
loop_
_atom_site_type_symbol
_atom_site_label
_atom_site_fract_x
_atom_site_fract_y
_atom_site_fract_z
Si Si1 0.728235 0.115108 0.707710
Si Si2 0.110931 0.736675 0.141190
Si Si3 0.885446 0.392931 0.010901
Si Si4 0.385371 0.227533 0.587419
Si Si5 0.265890 0.110496 0.305305
Si Si6 0.607641 0.113979 0.847510
Si Si7 0.108552 0.612347 0.443752
O O1 0.830802 0.169199 0.697097
O O2 0.651037 0.149534 0.646940
O O3 0.684197 0.148300 0.786530
O O4 0.744576 0.000000 0.701582
O O5 0.159097 0.840904 0.138166
O O6 0.158455 0.670492 0.077392
O O7 0.127290 0.689658 0.222790
O O8 0.000000 0.754578 0.124038
O O9 0.844092 0.500000 0.021366
O O10 0.000000 0.394407 0.017426
O O11 0.854165 0.354805 0.929256
O O12 0.500000 0.244812 0.596986
O O13 0.329307 0.329307 0.596456
O O14 0.358895 0.182654 0.507951
O O15 0.167934 0.167934 0.316895
O O16 0.342063 0.144380 0.366711
O O17 0.237499 0.000000 0.316195
O O18 0.500000 0.156830 0.832465
O O19 0.598937 0.000000 0.844132
O O20 0.109197 0.500000 0.430028
O O21 0.000000 0.646841 0.464828
#
# Coordination Sequence:
#
# PCOD8306539 Si02
#       7
#     8   8   8   8   8   8   8
#     4  10  20  32  47  68  93 122 155 188 222 262
#     4   9  17  27  39  57  82 113 146 178 214 258
#     4   8  14  25  41  60  81 106 138 178 221 258
#     4  10  20  33  50  71  93 118 148 183 225 271
#     4   9  17  28  41  58  82 112 145 180 215 253
#     4   8  14  26  44  63  82 107 141 180 219 258
#     4   9  17  29  46  67  88 111 141 177 218 265
#
# _framework density 16.128744999999999
#
# number of rings (size 3 to 8) (size 9 to 14) (size 15 to 20)
#    0.000    3.000    0.000    2.143    0.000    3.143 
#    0.000    4.286    0.000    0.000    0.000    6.000 
#    0.000    0.286    0.000    6.286    0.000    5.143 
#
# Total GULP energy -693951.533971 kJ/mol
# GULP energy per Si atom -12391.991678 kJ/mol
# Density = 1.609204 g / cm^3
# Si number density = 16.128745 Si / 1000 Ang^3
#
#
#
# Elastic Constant Matrix: (Units=GPa)
#
#
# Indices 1 2 3 4 5 6 
#
# 1 63.0324 34.2849 48.2321 0.0000 0.0000 0.0002
# 2 34.2849 63.0324 48.2321 0.0000 0.0000 -0.0002
# 3 48.2321 48.2321 131.5459 0.0000 0.0000 0.0000
# 4 0.0000 0.0000 0.0000 23.3977 0.0000 0.0000
# 5 0.0000 0.0000 0.0000 0.0000 23.3977 0.0000
# 6 0.0002 -0.0002 0.0000 0.0000 0.0000 14.0726
#
#
#
# Elastic Compliance Matrix: (Units=1/GPa)
#
#
# Indices 1 2 3 4 5 6 
#
# 1 0.025464 -0.009322 -0.005919 0.000000 0.000000 0.000000
# 2 -0.009322 0.025464 -0.005919 0.000000 0.000000 0.000000
# 3 -0.005919 -0.005919 0.011942 0.000000 0.000000 0.000000
# 4 0.000000 0.000000 0.000000 0.042739 0.000000 0.000000
# 5 0.000000 0.000000 0.000000 0.000000 0.042739 0.000000
# 6 0.000000 0.000000 0.000000 0.000000 0.000000 0.071060
#
#
# Mechanical properties :
#
#
# Convention : Reuss Voigt Hill
#
# Bulk Modulus (GPa) = 48.65651 57.67876 53.16763
# Shear Modulus (GPa) = 18.61660 20.63107 19.62383
#
# Velocity S-wave (km/s) = 3.40111 3.58040 3.49191
# Velocity P-wave (km/s) = 6.75696 7.27540 7.02097
#
# Compressibility (1/GPa) = 0.02055223
#
# Stress axis : x y z
#
# Youngs Moduli (GPa) = 39.27102 39.27102 83.73669
#
# Poissons Ratio (x) = 0.36607 0.49562
# Poissons Ratio (y) = 0.36607 0.49562
# Poissons Ratio (z) = 0.23244 0.23244
#
# Static dielectric constant tensor:
#      x y z
#    x 2.878670 0.000000 0.000000 
#    y 0.000000 2.878670 0.000000 
#    z 0.000000 0.000000 3.469980 
# 
# 
# High freq. dielectric constant tensor:
#      x y z
#    x 1.595860 0.000000 0.000000 
#    y 0.000000 1.595860 0.000000 
#    z 0.000000 0.000000 1.640660 
# 
# From -- ./inp_files/1805.got.cif
#   From: 2010.03.12/outbox.cif.g09.slc.cpg/sg99_cif.got.tgz:1805.got - 2010.04.08 21:11:30.
