data_PCOD8306576
_publ_section_title
;
Structure prediction by ZEFSAII (Michael W. Deem and Ramdas Pophale) SiO2 
 PCOD8306576
Probable space group: P 4 M M
;
_chemical_formula_sum "Si O2"
_cell_formula_units_Z 56
_cell_length_a 13.494499
_cell_length_b 13.494499
_cell_length_c 17.958494
_cell_angle_alpha 90.000000
_cell_angle_beta 90.000000
_cell_angle_gamma 90.000000
_cell_volume 3270.268754
_symmetry_space_group_name_H-M "P 4 M M"
_symmetry_group_IT_number 99
_symmetry_cell_setting 'tetragonal'
loop_
_space_group_symop_operation_xyz
x,y,z
-y,x,z
-x,-y,z
y,-x,z
-x,y,z
x,-y,z
-y,-x,z
y,x,z
loop_
_atom_site_type_symbol
_atom_site_label
_atom_site_fract_x
_atom_site_fract_y
_atom_site_fract_z
Si Si1 0.390953 0.117400 0.549300
Si Si2 0.889242 0.382653 0.127440
Si Si3 0.615723 0.223596 0.980660
Si Si4 0.723488 0.883347 0.403461
Si Si5 0.728065 0.886646 0.689010
Si Si6 0.777686 0.616609 0.275663
Si Si7 0.276078 0.885706 0.856790
O O1 0.500000 0.164410 0.538101
O O2 0.319398 0.151461 0.482910
O O3 0.350005 0.155126 0.628905
O O4 0.399617 0.000000 0.548948
O O5 0.897368 0.500000 0.126383
O O6 0.828009 0.347655 0.199118
O O7 0.000000 0.336560 0.129680
O O8 0.833389 0.345411 0.053738
O O9 0.500000 0.247985 0.984796
O O10 0.672369 0.327631 0.973460
O O11 0.636993 0.154013 0.909747
O O12 0.826914 0.826914 0.389354
O O13 0.642882 0.853895 0.341448
O O14 0.744343 0.000000 0.399864
O O15 0.831681 0.831681 0.679876
O O16 0.684925 0.872061 0.772155
O O17 0.752719 0.000000 0.671752
O O18 0.754858 0.500000 0.276229
O O19 0.673932 0.673932 0.286011
O O20 0.174861 0.825140 0.870959
O O21 0.253022 0.000000 0.874393
#
# Coordination Sequence:
#
# PCOD8306576 Si02
#       7
#     8   8   8   8   8   8   8
#     4   9  17  29  45  65  90 121 156 193 233 278
#     4   9  17  30  49  71  94 122 156 194 237 284
#     4  10  20  33  49  70  96 126 162 203 246 292
#     4  10  20  33  50  72  97 126 161 201 246 297
#     4   9  17  29  45  67  95 124 155 192 235 285
#     4  10  20  33  50  73 100 131 168 206 243 285
#     4   9  18  31  47  69  96 126 161 200 242 290
#
# _framework density 17.123975999999999
#
# number of rings (size 3 to 8) (size 9 to 14) (size 15 to 20)
#    0.000    2.571    0.000    2.143    0.000    3.571 
#    0.000    2.857    0.000    5.143    0.000    0.000 
#    0.000   12.857    0.000    0.571    0.000    0.000 
#
# Total GULP energy -694371.964522 kJ/mol
# GULP energy per Si atom -12399.499366 kJ/mol
# Density = 1.708500 g / cm^3
# Si number density = 17.123976 Si / 1000 Ang^3
#
#
#
# Elastic Constant Matrix: (Units=GPa)
#
#
# Indices 1 2 3 4 5 6 
#
# 1 83.2268 35.2431 41.8935 0.0000 0.0000 -0.0001
# 2 35.2431 83.2268 41.8935 0.0000 0.0000 0.0001
# 3 41.8935 41.8935 125.5172 0.0000 0.0000 0.0000
# 4 0.0000 0.0000 0.0000 26.5163 0.0000 0.0000
# 5 0.0000 0.0000 0.0000 0.0000 26.5163 0.0000
# 6 -0.0001 0.0001 0.0000 0.0000 0.0000 14.4220
#
#
#
# Elastic Compliance Matrix: (Units=1/GPa)
#
#
# Indices 1 2 3 4 5 6 
#
# 1 0.015945 -0.004896 -0.003688 0.000000 0.000000 0.000000
# 2 -0.004896 0.015945 -0.003688 0.000000 0.000000 0.000000
# 3 -0.003688 -0.003688 0.010429 0.000000 0.000000 0.000000
# 4 0.000000 0.000000 0.000000 0.037713 0.000000 0.000000
# 5 0.000000 0.000000 0.000000 0.000000 0.037713 0.000000
# 6 0.000000 0.000000 0.000000 0.000000 0.000000 0.069339
#
#
# Mechanical properties :
#
#
# Convention : Reuss Voigt Hill
#
# Bulk Modulus (GPa) = 56.25642 58.89232 57.57437
# Shear Modulus (GPa) = 22.98320 25.02029 24.00174
#
# Velocity S-wave (km/s) = 3.66753 3.82661 3.74792
# Velocity P-wave (km/s) = 7.13149 7.34781 7.24046
#
# Compressibility (1/GPa) = 0.01777575
#
# Stress axis : x y z
#
# Youngs Moduli (GPa) = 62.71643 62.71643 95.88842
#
# Poissons Ratio (x) = 0.30704 0.35362
# Poissons Ratio (y) = 0.30704 0.35362
# Poissons Ratio (z) = 0.23129 0.23129
#
# Static dielectric constant tensor:
#      x y z
#    x 3.042340 0.000000 0.000000 
#    y 0.000000 3.042340 0.000000 
#    z 0.000000 0.000000 3.489170 
# 
# 
# High freq. dielectric constant tensor:
#      x y z
#    x 1.644640 0.000000 0.000000 
#    y 0.000000 1.644640 0.000000 
#    z 0.000000 0.000000 1.680260 
# 
# From -- ./inp_files/1793.got.cif
#   From: 2010.03.12/outbox.cif.g09.slc.cpg/sg99_cif.got.tgz:1793.got - 2010.04.08 21:11:30.
