data_PCOD8306241
_publ_section_title
;
Structure prediction by ZEFSAII (Michael W. Deem and Ramdas Pophale) SiO2 
 PCOD8306241
Probable space group: I 41 2 2
;
_chemical_formula_sum "Si O2"
_cell_formula_units_Z 48
_cell_length_a 8.643326
_cell_length_b 8.643326
_cell_length_c 27.647843
_cell_angle_alpha 90.000000
_cell_angle_beta 90.000000
_cell_angle_gamma 90.000000
_cell_volume 2065.489739
_symmetry_space_group_name_H-M "I 41 2 2"
_symmetry_group_IT_number 98
_symmetry_cell_setting 'tetragonal'
loop_
_space_group_symop_operation_xyz
x,y,z
-y,1/2+x,1/4+z
-x,-y,z
y,1/2-x,1/4+z
x,1/2-y,1/4-z
-x,1/2+y,1/4-z
y,x,-z
-y,-x,-z
1/2+x,1/2+y,1/2+z
1/2-y,x,3/4+z
1/2-x,1/2-y,1/2+z
1/2+y,-x,3/4+z
1/2+x,-y,3/4-z
1/2-x,y,3/4-z
1/2+y,1/2+x,1/2-z
1/2-y,1/2-x,1/2-z
loop_
_atom_site_type_symbol
_atom_site_label
_atom_site_fract_x
_atom_site_fract_y
_atom_site_fract_z
Si Si1 0.100095 0.844483 0.051701
Si Si2 0.210205 0.202733 0.196417
Si Si3 0.511163 0.818046 0.384098
O O1 0.977591 0.704643 0.058187
O O2 0.230844 0.858898 0.093869
O O3 0.182570 0.817431 0.000000
O O4 0.000000 0.000000 0.050441
O O5 0.279700 0.220301 0.250000
O O6 0.278432 0.344440 0.167047
O O7 0.262987 0.041455 0.171384
O O8 0.500000 0.000000 0.385013
#
# Coordination Sequence:
#
# PCOD8306241 Si02
#       3
#    16  16  16
#     4   9  15  35  68  91 119 167 234 282 329 406
#     4  10  19  39  68  91 128 179 229 290 339 423
#     4  10  21  36  61  96 141 171 218 292 366 414
#
# _framework density 23.239041
#
# number of rings (size 3 to 8) (size 9 to 14) (size 15 to 20)
#    0.000    2.333    6.667    0.000    0.000    0.667 
#    0.000   28.333   14.667    0.000    0.000    0.000 
#    0.000    0.000    0.000    0.000    0.000    0.000 
#
# Total GULP energy -297341.812660 kJ/mol
# GULP energy per Si atom -12389.242194 kJ/mol
# Density = 2.318615 g / cm^3
# Si number density = 23.239041 Si / 1000 Ang^3
#
#
#
# Elastic Constant Matrix: (Units=GPa)
#
#
# Indices 1 2 3 4 5 6 
#
# 1 84.8315 37.8419 61.6092 0.0000 0.0000 0.0000
# 2 37.8419 84.8318 61.6093 0.0000 0.0000 0.0000
# 3 61.6092 61.6093 188.4917 0.0000 0.0000 0.0000
# 4 0.0000 0.0000 0.0000 14.6387 0.0000 0.0000
# 5 0.0000 0.0000 0.0000 0.0000 14.6383 0.0000
# 6 0.0000 0.0000 0.0000 0.0000 0.0000 9.7551
#
#
#
# Elastic Compliance Matrix: (Units=1/GPa)
#
#
# Indices 1 2 3 4 5 6 
#
# 1 0.016709 -0.004573 -0.003967 0.000000 0.000000 0.000000
# 2 -0.004573 0.016709 -0.003967 0.000000 0.000000 0.000000
# 3 -0.003967 -0.003967 0.007898 0.000000 0.000000 0.000000
# 4 0.000000 0.000000 0.000000 0.068312 0.000000 0.000000
# 5 0.000000 0.000000 0.000000 0.000000 0.068314 0.000000
# 6 0.000000 0.000000 0.000000 0.000000 0.000000 0.102510
#
#
# Mechanical properties :
#
#
# Convention : Reuss Voigt Hill
#
# Bulk Modulus (GPa) = 61.33621 75.58620 68.46121
# Shear Modulus (GPa) = 16.08241 20.94606 18.51424
#
# Velocity S-wave (km/s) = 2.63352 3.00547 2.82563
# Velocity P-wave (km/s) = 5.97480 6.68131 6.33791
#
# Compressibility (1/GPa) = 0.01630358
#
# Stress axis : x y z
#
# Youngs Moduli (GPa) = 59.84915 59.84937 126.60879
#
# Poissons Ratio (x) = 0.27367 0.50222
# Poissons Ratio (y) = 0.27367 0.50222
# Poissons Ratio (z) = 0.23740 0.23741
#
# Static dielectric constant tensor:
#      x y z
#    x 4.399160 0.000000 0.000000 
#    y 0.000000 4.399150 0.000000 
#    z 0.000000 0.000000 5.604120 
# 
# 
# High freq. dielectric constant tensor:
#      x y z
#    x 1.893200 0.000000 0.000000 
#    y 0.000000 1.893200 0.000000 
#    z 0.000000 0.000000 1.931930 
# 
# From -- ./inp_files/11287.got.cif
#   From: 2010.03.12/outbox.cif.g09.slc.cpg/sg98_6_cif.got.tgz:11287.got - 2010.04.08 21:04:41.
