data_PCOD8306672
_publ_section_title
;
Structure prediction by ZEFSAII (Michael W. Deem and Ramdas Pophale) SiO2 
 PCOD8306672
Probable space group: P 4 B M
;
_chemical_formula_sum "Si O2"
_cell_formula_units_Z 48
_cell_length_a 13.735996
_cell_length_b 13.735996
_cell_length_c 11.426045
_cell_angle_alpha 90.000000
_cell_angle_beta 90.000000
_cell_angle_gamma 90.000000
_cell_volume 2155.838589
_symmetry_space_group_name_H-M "P 4 B M"
_symmetry_group_IT_number 100
_symmetry_cell_setting 'tetragonal'
loop_
_space_group_symop_operation_xyz
x,y,z
-y,x,z
-x,-y,z
y,-x,z
1/2-x,1/2+y,z
1/2+x,1/2-y,z
1/2-y,1/2-x,z
1/2+y,1/2+x,z
loop_
_atom_site_type_symbol
_atom_site_label
_atom_site_fract_x
_atom_site_fract_y
_atom_site_fract_z
Si Si1 0.094361 0.244057 0.665670
Si Si2 0.826135 0.834912 0.154332
Si Si3 0.770306 0.119192 0.920277
Si Si4 0.277542 0.501017 0.301261
Si Si5 0.076855 0.423146 0.017403
Si Si6 0.424001 0.924001 0.294919
Si Si7 0.735799 0.398047 0.532810
O O1 0.154190 0.345811 0.674826
O O2 0.079521 0.194382 0.794874
O O3 0.150324 0.166489 0.587012
O O4 0.987056 0.266198 0.616831
O O5 0.769437 0.730564 0.160546
O O6 0.756592 0.923130 0.193846
O O7 0.914554 0.843424 0.248628
O O8 0.868569 0.851896 0.022683
O O9 0.727598 0.227598 0.897366
O O10 0.684733 0.048653 0.971057
O O11 0.178901 0.452878 0.347614
O O12 0.314573 0.560076 0.414507
O O13 0.078694 0.421307 0.155951
O O14 0.000000 0.500000 0.966799
O O15 0.500000 0.000000 0.345358
O O16 0.830945 0.330945 0.507740
#
# Coordination Sequence:
#
# PCOD8306672 Si02
#       7
#     8   8   8   8   4   4   8
#     4  10  23  44  64  90 134 168 225 282 316 400
#     4  11  22  41  63  95 130 172 214 271 338 401
#     4   8  17  38  60  89 128 171 210 264 332 383
#     4  12  23  40  65  91 136 171 219 266 331 396
#     4   9  16  32  61  95 133 159 207 260 338 395
#     4  11  20  36  59  99 135 165 207 274 326 397
#     4  11  25  42  64  96 125 177 224 265 334 386
#
# _framework density 22.265115999999999
#
# number of rings (size 3 to 8) (size 9 to 14) (size 15 to 20)
#    0.500    1.167    2.500    2.500    1.167    4.333 
#    0.000    1.667    0.000    2.000    0.000    0.000 
#    0.000    0.000    0.000    0.000    0.000    0.000 
#
# Total GULP energy -594695.996015 kJ/mol
# GULP energy per Si atom -12389.499917 kJ/mol
# Density = 2.221444 g / cm^3
# Si number density = 22.265116 Si / 1000 Ang^3
#
#
#
# Elastic Constant Matrix: (Units=GPa)
#
#
# Indices 1 2 3 4 5 6 
#
# 1 61.5308 6.8544 15.1051 0.0000 0.0000 -0.0001
# 2 6.8544 61.5308 15.1051 0.0000 0.0000 0.0001
# 3 15.1051 15.1051 114.4147 0.0000 0.0000 0.0000
# 4 0.0000 0.0000 0.0000 30.7864 0.0000 0.0000
# 5 0.0000 0.0000 0.0000 0.0000 30.7864 0.0000
# 6 -0.0001 0.0001 0.0000 0.0000 0.0000 23.4777
#
#
#
# Elastic Compliance Matrix: (Units=1/GPa)
#
#
# Indices 1 2 3 4 5 6 
#
# 1 0.016909 -0.001380 -0.002050 0.000000 0.000000 0.000000
# 2 -0.001380 0.016909 -0.002050 0.000000 0.000000 0.000000
# 3 -0.002050 -0.002050 0.009281 0.000000 0.000000 0.000000
# 4 0.000000 0.000000 0.000000 0.032482 0.000000 0.000000
# 5 0.000000 0.000000 0.000000 0.000000 0.032482 0.000000
# 6 0.000000 0.000000 0.000000 0.000000 0.000000 0.042594
#
#
# Mechanical properties :
#
#
# Convention : Reuss Voigt Hill
#
# Bulk Modulus (GPa) = 31.11538 34.62282 32.86910
# Shear Modulus (GPa) = 29.01396 30.37089 29.69243
#
# Velocity S-wave (km/s) = 3.61378 3.69732 3.65579
# Velocity P-wave (km/s) = 5.60516 5.81472 5.71090
#
# Compressibility (1/GPa) = 0.03213844
#
# Stress axis : x y z
#
# Youngs Moduli (GPa) = 59.13988 59.13988 107.74175
#
# Poissons Ratio (x) = 0.08163 0.22088
# Poissons Ratio (y) = 0.08163 0.22088
# Poissons Ratio (z) = 0.12124 0.12124
#
# Static dielectric constant tensor:
#      x y z
#    x 3.814720 0.000000 0.000000 
#    y 0.000000 3.814720 0.000000 
#    z 0.000000 0.000000 4.142340 
# 
# 
# High freq. dielectric constant tensor:
#      x y z
#    x 1.855260 0.000000 0.000000 
#    y 0.000000 1.855260 0.000000 
#    z 0.000000 0.000000 1.888930 
# 
# From -- ./inp_files/1273.got.cif
#   From: 2010.03.12/outbox.cif.g09.slc.cpg/sg100_cif.got.tgz:1273.got - 2010.04.14 01:37:57.
