data_PCOD8306763
_publ_section_title
;
Structure prediction by ZEFSAII (Michael W. Deem and Ramdas Pophale) SiO2 
 PCOD8306763
Probable space group: P 42 C M
;
_chemical_formula_sum "Si O2"
_cell_formula_units_Z 28
_cell_length_a 9.162146
_cell_length_b 9.162146
_cell_length_c 17.400506
_cell_angle_alpha 90.000000
_cell_angle_beta 90.000000
_cell_angle_gamma 90.000000
_cell_volume 1460.684072
_symmetry_space_group_name_H-M "P 42 C M"
_symmetry_group_IT_number 101
_symmetry_cell_setting 'tetragonal'
loop_
_space_group_symop_operation_xyz
x,y,z
-y,x,1/2+z
-x,-y,z
y,-x,1/2+z
-x,y,1/2+z
x,-y,1/2+z
-y,-x,z
y,x,z
loop_
_atom_site_type_symbol
_atom_site_label
_atom_site_fract_x
_atom_site_fract_y
_atom_site_fract_z
Si Si1 0.189271 0.423812 0.750000
Si Si2 0.307322 0.076972 0.330784
Si Si3 0.238739 0.998645 0.998443
Si Si4 0.500000 0.000000 0.113392
O O1 0.347916 0.347916 0.749065
O O2 0.186909 0.560378 0.808688
O O3 0.145324 0.477909 0.664960
O O4 0.066816 0.309088 0.778222
O O5 0.152941 0.152941 0.314967
O O6 0.323756 0.036919 0.419958
O O7 0.143601 0.143601 0.986229
O O8 0.136737 0.863263 0.023238
O O9 0.356803 0.028335 0.063585
#
# Coordination Sequence:
#
# PCOD8306763 Si02
#       4
#     8   8   8   4
#     4  10  21  35  53  79 110 142 175 213 260 314
#     4   9  19  35  55  78 104 136 177 223 264 306
#     4  10  20  35  56  79 103 136 178 221 265 312
#     4  10  20  34  52  78 110 140 172 216 262 312
#
# _framework density 19.1691
#
# number of rings (size 3 to 8) (size 9 to 14) (size 15 to 20)
#    0.000    2.571    0.000    3.429    0.000    6.857 
#    0.000    0.000    0.000    4.286    0.000    0.000 
#    0.000    0.000    0.000    0.000    0.000    0.000 
#
# Total GULP energy -347155.244431 kJ/mol
# GULP energy per Si atom -12398.401587 kJ/mol
# Density = 1.912547 g / cm^3
# Si number density = 19.169100 Si / 1000 Ang^3
#
#
#
# Elastic Constant Matrix: (Units=GPa)
#
#
# Indices 1 2 3 4 5 6 
#
# 1 81.4450 37.7301 57.6906 0.0000 0.0000 0.0001
# 2 37.7301 81.4450 57.6906 0.0000 0.0000 -0.0001
# 3 57.6906 57.6906 136.7825 0.0000 0.0000 0.0000
# 4 0.0000 0.0000 0.0000 23.7429 0.0000 0.0000
# 5 0.0000 0.0000 0.0000 0.0000 23.7429 0.0000
# 6 0.0001 -0.0001 0.0000 0.0000 0.0000 45.7441
#
#
#
# Elastic Compliance Matrix: (Units=1/GPa)
#
#
# Indices 1 2 3 4 5 6 
#
# 1 0.018529 -0.004347 -0.005982 0.000000 0.000000 0.000000
# 2 -0.004347 0.018529 -0.005982 0.000000 0.000000 0.000000
# 3 -0.005982 -0.005982 0.012357 0.000000 0.000000 0.000000
# 4 0.000000 0.000000 0.000000 0.042118 0.000000 0.000000
# 5 0.000000 0.000000 0.000000 0.000000 0.042118 0.000000
# 6 0.000000 0.000000 0.000000 0.000000 0.000000 0.021861
#
#
# Mechanical properties :
#
#
# Convention : Reuss Voigt Hill
#
# Bulk Modulus (GPa) = 59.54312 67.32166 63.43239
# Shear Modulus (GPa) = 25.80929 28.41672 27.11300
#
# Velocity S-wave (km/s) = 3.67331 3.85440 3.76495
# Velocity P-wave (km/s) = 7.00860 7.41651 7.21544
#
# Compressibility (1/GPa) = 0.01679455
#
# Stress axis : x y z
#
# Youngs Moduli (GPa) = 53.96991 53.96991 80.92852
#
# Poissons Ratio (x) = 0.23459 0.48408
# Poissons Ratio (y) = 0.23459 0.48408
# Poissons Ratio (z) = 0.32283 0.32283
#
# Static dielectric constant tensor:
#      x y z
#    x 3.426990 0.000000 0.000000 
#    y 0.000000 3.426990 0.000000 
#    z 0.000000 0.000000 3.551740 
# 
# 
# High freq. dielectric constant tensor:
#      x y z
#    x 1.738340 0.000000 0.000000 
#    y 0.000000 1.738340 0.000000 
#    z 0.000000 0.000000 1.751100 
# 
# From -- ./inp_files/1963.got.cif
#   From: 2010.03.12/outbox.cif.g09.slc.cpg/sg101_1_cif.got.tgz:1963.got - 2010.04.14 01:38:52.
