data_PCOD8306978
_publ_section_title
;
Structure prediction by ZEFSAII (Michael W. Deem and Ramdas Pophale) SiO2 
 PCOD8306978
Probable space group: P 4 C C
;
_chemical_formula_sum "Si O2"
_cell_formula_units_Z 60
_cell_length_a 11.594737
_cell_length_b 11.594737
_cell_length_c 24.312228
_cell_angle_alpha 90.000000
_cell_angle_beta 90.000000
_cell_angle_gamma 90.000000
_cell_volume 3268.485511
_symmetry_space_group_name_H-M "P 4 C C"
_symmetry_group_IT_number 103
_symmetry_cell_setting 'tetragonal'
loop_
_space_group_symop_operation_xyz
x,y,z
-y,x,z
-x,-y,z
y,-x,z
-x,y,1/2+z
x,-y,1/2+z
-y,-x,1/2+z
y,x,1/2+z
loop_
_atom_site_type_symbol
_atom_site_label
_atom_site_fract_x
_atom_site_fract_y
_atom_site_fract_z
Si Si1 0.303707 0.200010 0.116180
Si Si2 0.925275 0.174541 0.024530
Si Si3 0.564826 0.212650 0.143555
Si Si4 0.857047 0.272890 0.792359
Si Si5 0.909324 0.717314 0.733892
Si Si6 0.069633 0.175636 0.401180
Si Si7 0.441092 0.676444 0.256908
Si Si8 0.000000 0.500000 0.701769
O O1 0.272272 0.116669 0.066031
O O2 0.441683 0.217147 0.113100
O O3 0.243249 0.324590 0.106138
O O4 0.256428 0.138880 0.172367
O O5 0.059309 0.148509 0.034294
O O6 0.908250 0.222940 0.962556
O O7 0.566930 0.308147 0.191492
O O8 0.583199 0.081042 0.164958
O O9 0.762551 0.175617 0.780131
O O10 0.895923 0.269994 0.855697
O O11 0.796385 0.397260 0.784301
O O12 0.960470 0.242916 0.749292
O O13 0.913993 0.577568 0.738526
O O14 0.936878 0.146405 0.391900
O O15 0.355043 0.571572 0.273985
#
# Coordination Sequence:
#
# PCOD8306978 Si02
#       8
#     8   8   8   8   8   8   8   4
#     4  11  23  36  56  84 115 153 191 238 287 343
#     4   9  21  39  60  82 111 154 195 239 292 358
#     4  11  20  34  54  79 114 152 185 225 278 343
#     4  12  21  34  55  88 113 151 183 240 281 348
#     4  11  22  31  52  82 122 144 178 229 296 337
#     4   9  18  37  59  80 112 158 199 228 282 356
#     4  11  21  37  56  79 114 157 198 225 271 350
#     4  10  20  34  46  76 122 148 174 222 278 350
#
# _framework density 18.357126999999998
#
# number of rings (size 3 to 8) (size 9 to 14) (size 15 to 20)
#    0.000    1.467    5.333    1.600    5.600    0.533 
#    0.000    0.000    2.933    0.000    0.000    0.000 
#    0.000    0.000    0.000    0.000    0.000    0.000 
#
# Total GULP energy -743440.678027 kJ/mol
# GULP energy per Si atom -12390.677967 kJ/mol
# Density = 1.831534 g / cm^3
# Si number density = 18.357127 Si / 1000 Ang^3
#
#
#
# Elastic Constant Matrix: (Units=GPa)
#
#
# Indices 1 2 3 4 5 6 
#
# 1 78.4989 31.3357 35.3304 0.0000 0.0000 0.0000
# 2 31.3357 78.4989 35.3304 0.0000 0.0000 0.0000
# 3 35.3304 35.3304 97.9913 0.0000 0.0000 0.0000
# 4 0.0000 0.0000 0.0000 20.9411 0.0000 0.0000
# 5 0.0000 0.0000 0.0000 0.0000 20.9411 0.0000
# 6 0.0000 0.0000 0.0000 0.0000 0.0000 29.6066
#
#
#
# Elastic Compliance Matrix: (Units=1/GPa)
#
#
# Indices 1 2 3 4 5 6 
#
# 1 0.016529 -0.004674 -0.004274 0.000000 0.000000 0.000000
# 2 -0.004674 0.016529 -0.004274 0.000000 0.000000 0.000000
# 3 -0.004274 -0.004274 0.013287 0.000000 0.000000 0.000000
# 4 0.000000 0.000000 0.000000 0.047753 0.000000 0.000000
# 5 0.000000 0.000000 0.000000 0.000000 0.047753 0.000000
# 6 0.000000 0.000000 0.000000 0.000000 0.000000 0.033776
#
#
# Mechanical properties :
#
#
# Convention : Reuss Voigt Hill
#
# Bulk Modulus (GPa) = 50.25279 50.99802 50.62540
# Shear Modulus (GPa) = 23.95733 24.49725 24.22729
#
# Velocity S-wave (km/s) = 3.61649 3.65702 3.63681
# Velocity P-wave (km/s) = 6.69875 6.75819 6.72853
#
# Compressibility (1/GPa) = 0.01989939
#
# Stress axis : x y z
#
# Youngs Moduli (GPa) = 60.50121 60.50121 75.26193
#
# Poissons Ratio (x) = 0.28281 0.32167
# Poissons Ratio (y) = 0.28281 0.32167
# Poissons Ratio (z) = 0.25858 0.25858
#
# Static dielectric constant tensor:
#      x y z
#    x 3.501070 0.000000 0.000000 
#    y 0.000000 3.501070 0.000000 
#    z 0.000000 0.000000 3.097860 
# 
# 
# High freq. dielectric constant tensor:
#      x y z
#    x 1.716480 0.000000 0.000000 
#    y 0.000000 1.716480 0.000000 
#    z 0.000000 0.000000 1.666980 
# 
# From -- ./inp_files/1439.got.cif
#   From: 2010.03.12/outbox.cif.g09.slc.cpg/sg103_cif.got.tgz:1439.got - 2010.04.14 01:42:52.
