data_PCOD8306465
_publ_section_title
;
Structure prediction by ZEFSAII (Michael W. Deem and Ramdas Pophale) SiO2 
 PCOD8306465
Probable space group: P 4 M M
;
_chemical_formula_sum "Si O2"
_cell_formula_units_Z 56
_cell_length_a 13.419106
_cell_length_b 13.419106
_cell_length_c 18.125411
_cell_angle_alpha 90.000000
_cell_angle_beta 90.000000
_cell_angle_gamma 90.000000
_cell_volume 3263.886366
_symmetry_space_group_name_H-M "P 4 M M"
_symmetry_group_IT_number 99
_symmetry_cell_setting 'tetragonal'
loop_
_space_group_symop_operation_xyz
x,y,z
-y,x,z
-x,-y,z
y,-x,z
-x,y,z
x,-y,z
-y,-x,z
y,x,z
loop_
_atom_site_type_symbol
_atom_site_label
_atom_site_fract_x
_atom_site_fract_y
_atom_site_fract_z
Si Si1 0.388977 0.118021 0.155160
Si Si2 0.881766 0.388702 0.992996
Si Si3 0.218525 0.616620 0.429600
Si Si4 0.882534 0.726645 0.851466
Si Si5 0.722004 0.882223 0.561452
Si Si6 0.610449 0.882069 0.707922
Si Si7 0.723317 0.882141 0.298906
O O1 0.500000 0.162304 0.167948
O O2 0.348699 0.151205 0.074116
O O3 0.314805 0.154507 0.218815
O O4 0.396456 0.000000 0.158454
O O5 0.839415 0.500000 0.981634
O O6 0.000000 0.391877 0.987382
O O7 0.841003 0.319231 0.927867
O O8 0.244782 0.500000 0.430010
O O9 0.321805 0.678195 0.429703
O O10 0.151474 0.642756 0.500295
O O11 0.152386 0.641749 0.358099
O O12 0.835416 0.835416 0.841815
O O13 0.845531 0.656867 0.784841
O O14 0.000000 0.741389 0.850893
O O15 0.827721 0.827721 0.548649
O O16 0.678796 0.847694 0.640120
O O17 0.740634 0.000000 0.556368
O O18 0.500000 0.835249 0.700158
O O19 0.602263 0.000000 0.707684
O O20 0.828989 0.828989 0.314655
O O21 0.740145 0.000000 0.303934
#
# Coordination Sequence:
#
# PCOD8306465 Si02
#       7
#     8   8   8   8   8   8   8
#     4   8  14  26  45  66  86 112 149 193 239 282
#     4   8  14  26  44  64  85 111 147 193 240 277
#     4  10  21  36  54  76  99 124 158 200 247 297
#     4  10  19  29  42  62  90 123 156 189 228 280
#     4  10  20  33  50  74 103 134 166 196 229 274
#     4   9  17  30  48  67  87 115 153 197 241 278
#     4  10  20  32  47  69  97 130 166 200 235 279
#
# _framework density 17.157461000000001
#
# number of rings (size 3 to 8) (size 9 to 14) (size 15 to 20)
#    0.000    2.714    0.000    3.000    0.000    5.143 
#    0.000    0.000    0.000    5.143    0.000    4.000 
#    0.000   12.571    0.000   10.571    0.000    0.857 
#
# Total GULP energy -694150.208134 kJ/mol
# GULP energy per Si atom -12395.539431 kJ/mol
# Density = 1.711841 g / cm^3
# Si number density = 17.157461 Si / 1000 Ang^3
#
#
#
# Elastic Constant Matrix: (Units=GPa)
#
#
# Indices 1 2 3 4 5 6 
#
# 1 81.4418 40.4917 40.8879 0.0000 0.0000 0.0002
# 2 40.4917 81.4418 40.8879 0.0000 0.0000 -0.0002
# 3 40.8879 40.8879 134.4596 0.0000 0.0000 0.0000
# 4 0.0000 0.0000 0.0000 21.0139 0.0000 0.0000
# 5 0.0000 0.0000 0.0000 0.0000 21.0139 0.0000
# 6 0.0002 -0.0002 0.0000 0.0000 0.0000 11.5893
#
#
#
# Elastic Compliance Matrix: (Units=1/GPa)
#
#
# Indices 1 2 3 4 5 6 
#
# 1 0.017361 -0.007059 -0.003133 0.000000 0.000000 0.000000
# 2 -0.007059 0.017361 -0.003133 0.000000 0.000000 0.000000
# 3 -0.003133 -0.003133 0.009342 0.000000 0.000000 0.000000
# 4 0.000000 0.000000 0.000000 0.047588 0.000000 0.000000
# 5 0.000000 0.000000 0.000000 0.000000 0.047588 0.000000
# 6 0.000000 0.000000 0.000000 0.000000 0.000000 0.086286
#
#
# Mechanical properties :
#
#
# Convention : Reuss Voigt Hill
#
# Bulk Modulus (GPa) = 57.41940 60.20872 58.81406
# Shear Modulus (GPa) = 19.38132 22.39513 20.88822
#
# Velocity S-wave (km/s) = 3.36462 3.61677 3.49297
# Velocity P-wave (km/s) = 6.97374 7.25324 7.11486
#
# Compressibility (1/GPa) = 0.01741572
#
# Stress axis : x y z
#
# Youngs Moduli (GPa) = 57.59999 57.59999 107.03773
#
# Poissons Ratio (x) = 0.40659 0.33533
# Poissons Ratio (y) = 0.40659 0.33533
# Poissons Ratio (z) = 0.18045 0.18045
#
# Static dielectric constant tensor:
#      x y z
#    x 2.953650 0.000000 0.000000 
#    y 0.000000 2.953650 0.000000 
#    z 0.000000 0.000000 3.640110 
# 
# 
# High freq. dielectric constant tensor:
#      x y z
#    x 1.636150 0.000000 0.000000 
#    y 0.000000 1.636150 0.000000 
#    z 0.000000 0.000000 1.687380 
# 
# From -- ./inp_files/2142.got.cif
#   From: 2010.03.12/outbox.cif.g09.slc.cpg/sg99_cif.got.tgz:2142.got - 2010.04.08 21:11:30.
