data_PCOD8306837
_publ_section_title
;
Structure prediction by ZEFSAII (Michael W. Deem and Ramdas Pophale) SiO2 
 PCOD8306837
Probable space group: P 42 N M
;
_chemical_formula_sum "Si O2"
_cell_formula_units_Z 64
_cell_length_a 17.023618
_cell_length_b 17.023618
_cell_length_c 12.290227
_cell_angle_alpha 90.000000
_cell_angle_beta 90.000000
_cell_angle_gamma 90.000000
_cell_volume 3561.751658
_symmetry_space_group_name_H-M "P 42 N M"
_symmetry_group_IT_number 102
_symmetry_cell_setting 'tetragonal'
loop_
_space_group_symop_operation_xyz
x,y,z
1/2-y,1/2+x,1/2+z
-x,-y,z
1/2+y,1/2-x,1/2+z
1/2-x,1/2+y,1/2+z
1/2+x,1/2-y,1/2+z
-y,-x,z
y,x,z
loop_
_atom_site_type_symbol
_atom_site_label
_atom_site_fract_x
_atom_site_fract_y
_atom_site_fract_z
Si Si1 0.808092 0.500735 0.738800
Si Si2 0.958980 0.578666 0.829991
Si Si3 0.799516 0.678703 0.027547
Si Si4 0.398523 0.151783 0.234888
Si Si5 0.502999 0.371590 0.110658
Si Si6 0.804245 0.069596 0.401181
Si Si7 0.691979 0.561869 0.328003
Si Si8 0.036618 0.280723 0.993978
O O1 0.874140 0.563426 0.776185
O O2 0.835202 0.413156 0.772962
O O3 0.725690 0.518135 0.799572
O O4 0.792771 0.506351 0.609657
O O5 0.959699 0.635812 0.932957
O O6 0.000000 0.500000 0.873285
O O7 0.013341 0.618043 0.737750
O O8 0.729767 0.729767 0.081462
O O9 0.826917 0.612187 0.109915
O O10 0.764530 0.633202 0.923820
O O11 0.870673 0.739235 0.002931
O O12 0.387108 0.229006 0.309616
O O13 0.590208 0.409793 0.105765
O O14 0.439194 0.439194 0.111915
O O15 0.492636 0.322344 0.221979
O O16 0.487389 0.317307 0.005310
O O17 0.885168 0.114833 0.370586
O O18 0.618622 0.618622 0.354393
O O19 0.709253 0.505400 0.430715
#
# Coordination Sequence:
#
# PCOD8306837 Si02
#       8
#     8   8   8   8   8   8   8   8
#     4  10  20  35  52  81 111 145 190 229 281 343
#     4   9  18  33  51  77 104 142 178 232 283 332
#     4  10  18  32  55  77 103 143 189 233 274 332
#     4   9  18  32  52  79 104 138 183 231 278 327
#     4   9  18  34  59  85 104 135 188 239 284 338
#     4  10  19  34  57  80 109 149 189 235 286 337
#     4  10  19  35  55  79 113 147 182 230 287 339
#     4  10  21  33  51  81 109 146 189 227 277 346
#
# _framework density 17.968686000000002
#
# number of rings (size 3 to 8) (size 9 to 14) (size 15 to 20)
#    0.000    2.375    2.500    0.375    0.000    3.500 
#    2.250    3.125    0.000    0.000    0.000    3.500 
#    0.000    0.000    0.000    0.000    0.000    0.000 
#
# Total GULP energy -793093.255007 kJ/mol
# GULP energy per Si atom -12392.082109 kJ/mol
# Density = 1.792779 g / cm^3
# Si number density = 17.968686 Si / 1000 Ang^3
#
#
#
# Elastic Constant Matrix: (Units=GPa)
#
#
# Indices 1 2 3 4 5 6 
#
# 1 76.7619 37.9134 47.7112 0.0000 0.0000 -0.0001
# 2 37.9134 76.7619 47.7112 0.0000 0.0000 0.0001
# 3 47.7112 47.7112 118.1322 0.0000 0.0000 0.0000
# 4 0.0000 0.0000 0.0000 25.3175 0.0000 0.0000
# 5 0.0000 0.0000 0.0000 0.0000 25.3175 0.0000
# 6 -0.0001 0.0001 0.0000 0.0000 0.0000 27.2734
#
#
#
# Elastic Compliance Matrix: (Units=1/GPa)
#
#
# Indices 1 2 3 4 5 6 
#
# 1 0.019438 -0.006303 -0.005305 0.000000 0.000000 0.000000
# 2 -0.006303 0.019438 -0.005305 0.000000 0.000000 0.000000
# 3 -0.005305 -0.005305 0.012750 0.000000 0.000000 0.000000
# 4 0.000000 0.000000 0.000000 0.039498 0.000000 0.000000
# 5 0.000000 0.000000 0.000000 0.000000 0.039498 0.000000
# 6 0.000000 0.000000 0.000000 0.000000 0.000000 0.036666
#
#
# Mechanical properties :
#
#
# Convention : Reuss Voigt Hill
#
# Bulk Modulus (GPa) = 56.18001 59.81421 57.99711
# Shear Modulus (GPa) = 24.14915 24.80304 24.47609
#
# Velocity S-wave (km/s) = 3.66998 3.71933 3.69474
# Velocity P-wave (km/s) = 7.02081 7.19756 7.10973
#
# Compressibility (1/GPa) = 0.01779992
#
# Stress axis : x y z
#
# Youngs Moduli (GPa) = 51.44646 51.44646 78.43117
#
# Poissons Ratio (x) = 0.32428 0.41605
# Poissons Ratio (y) = 0.32428 0.41605
# Poissons Ratio (z) = 0.27291 0.27291
#
# Static dielectric constant tensor:
#      x y z
#    x 3.471490 0.000000 0.000000 
#    y 0.000000 3.471490 0.000000 
#    z 0.000000 0.000000 3.185050 
# 
# 
# High freq. dielectric constant tensor:
#      x y z
#    x 1.689300 0.000000 0.000000 
#    y 0.000000 1.689300 0.000000 
#    z 0.000000 0.000000 1.680140 
# 
# From -- ./inp_files/1922.got.cif
#   From: 2010.03.12/outbox.cif.g09.slc.cpg/sg102_1_cif.got.tgz:1922.got - 2010.04.14 01:40:42.
