data_PCOD8306414
_publ_section_title
;
Structure prediction by ZEFSAII (Michael W. Deem and Ramdas Pophale) SiO2 
 PCOD8306414
Probable space group: P 4 M M
;
_chemical_formula_sum "Si O2"
_cell_formula_units_Z 64
_cell_length_a 18.071730
_cell_length_b 18.071730
_cell_length_c 11.384018
_cell_angle_alpha 90.000000
_cell_angle_beta 90.000000
_cell_angle_gamma 90.000000
_cell_volume 3717.877127
_symmetry_space_group_name_H-M "P 4 M M"
_symmetry_group_IT_number 99
_symmetry_cell_setting 'tetragonal'
loop_
_space_group_symop_operation_xyz
x,y,z
-y,x,z
-x,-y,z
y,-x,z
-x,y,z
x,-y,z
-y,-x,z
y,x,z
loop_
_atom_site_type_symbol
_atom_site_label
_atom_site_fract_x
_atom_site_fract_y
_atom_site_fract_z
Si Si1 0.345691 0.084287 0.643680
Si Si2 0.202165 0.084631 0.035242
Si Si3 0.585034 0.156153 0.119989
Si Si4 0.316387 0.803118 0.447395
Si Si5 0.082743 0.587223 0.887004
Si Si6 0.412747 0.708758 0.274428
Si Si7 0.918849 0.200127 0.776674
Si Si8 0.085676 0.703433 0.253125
O O1 0.357728 0.147449 0.545967
O O2 0.390426 0.110999 0.758139
O O3 0.259609 0.083954 0.674400
O O4 0.369455 0.000000 0.604132
O O5 0.122754 0.122754 0.039010
O O6 0.253050 0.116158 0.138855
O O7 0.187666 0.000000 0.062972
O O8 0.237304 0.098275 0.904980
O O9 0.500000 0.136430 0.124343
O O10 0.599244 0.241860 0.156445
O O11 0.618608 0.099967 0.216754
O O12 0.616298 0.138397 0.988913
O O13 0.252887 0.747114 0.496284
O O14 0.379910 0.754863 0.384048
O O15 0.275489 0.861898 0.361812
O O16 0.078458 0.500000 0.890796
O O17 0.000000 0.621108 0.908559
O O18 0.500000 0.692258 0.295676
O O19 0.368555 0.631446 0.258737
O O20 0.862655 0.137346 0.740275
O O21 0.000000 0.163619 0.783559
O O22 0.000000 0.717623 0.285659
#
# Coordination Sequence:
#
# PCOD8306414 Si02
#       8
#     8   8   8   8   8   8   8   8
#     4  10  19  31  46  65  91 124 162 199 232 270
#     4   9  17  28  42  61  84 111 147 191 237 282
#     4   9  17  30  48  71  99 125 147 176 217 269
#     4  10  20  33  47  64  90 123 157 196 240 281
#     4   9  17  29  46  68  95 127 157 184 218 263
#     4   9  19  35  54  76  99 123 153 190 233 281
#     4   9  17  28  42  60  82 110 146 190 237 281
#     4  10  18  28  44  65  88 117 152 188 228 276
#
# _framework density 17.214124000000002
#
# number of rings (size 3 to 8) (size 9 to 14) (size 15 to 20)
#    0.000    2.625    0.000    2.250    0.000    4.125 
#    0.000    2.500    0.000    2.250    0.000    0.000 
#    0.000    9.000    0.000    3.750    0.000    0.250 
#
# Total GULP energy -793038.416540 kJ/mol
# GULP energy per Si atom -12391.225258 kJ/mol
# Density = 1.717494 g / cm^3
# Si number density = 17.214124 Si / 1000 Ang^3
#
#
#
# Elastic Constant Matrix: (Units=GPa)
#
#
# Indices 1 2 3 4 5 6 
#
# 1 61.1560 30.4166 31.8638 0.0000 0.0000 -0.0001
# 2 30.4166 61.1560 31.8638 0.0000 0.0000 0.0001
# 3 31.8638 31.8638 84.0838 0.0000 0.0000 0.0000
# 4 0.0000 0.0000 0.0000 23.2989 0.0000 0.0000
# 5 0.0000 0.0000 0.0000 0.0000 23.2989 0.0000
# 6 -0.0001 0.0001 0.0000 0.0000 0.0000 21.1910
#
#
#
# Elastic Compliance Matrix: (Units=1/GPa)
#
#
# Indices 1 2 3 4 5 6 
#
# 1 0.023682 -0.008850 -0.005621 0.000000 0.000000 0.000000
# 2 -0.008850 0.023682 -0.005621 0.000000 0.000000 0.000000
# 3 -0.005621 -0.005621 0.016153 0.000000 0.000000 0.000000
# 4 0.000000 0.000000 0.000000 0.042920 0.000000 0.000000
# 5 0.000000 0.000000 0.000000 0.000000 0.042920 0.000000
# 6 0.000000 0.000000 0.000000 0.000000 0.000000 0.047190
#
#
# Mechanical properties :
#
#
# Convention : Reuss Voigt Hill
#
# Bulk Modulus (GPa) = 42.85574 43.85381 43.35477
# Shear Modulus (GPa) = 20.44933 21.04120 20.74527
#
# Velocity S-wave (km/s) = 3.45039 3.49997 3.47527
# Velocity P-wave (km/s) = 6.38931 6.47022 6.42990
#
# Compressibility (1/GPa) = 0.02333410
#
# Stress axis : x y z
#
# Youngs Moduli (GPa) = 42.22680 42.22680 61.90898
#
# Poissons Ratio (x) = 0.37370 0.34796
# Poissons Ratio (y) = 0.37370 0.34796
# Poissons Ratio (z) = 0.23734 0.23734
#
# Static dielectric constant tensor:
#      x y z
#    x 3.158410 0.000000 0.000000 
#    y 0.000000 3.158410 0.000000 
#    z 0.000000 0.000000 3.257800 
# 
# 
# High freq. dielectric constant tensor:
#      x y z
#    x 1.653390 0.000000 0.000000 
#    y 0.000000 1.653390 0.000000 
#    z 0.000000 0.000000 1.658340 
# 
# From -- ./inp_files/1631.got.cif
#   From: 2010.03.12/outbox.cif.g09.slc.cpg/sg99_cif.got.tgz:1631.got - 2010.04.08 21:11:30.
