data_PCOD8306206
_publ_section_title
;
Structure prediction by ZEFSAII (Michael W. Deem and Ramdas Pophale) SiO2 
 PCOD8306206
Probable space group: I 41 2 2
;
_chemical_formula_sum "Si O2"
_cell_formula_units_Z 112
_cell_length_a 19.704974
_cell_length_b 19.704974
_cell_length_c 17.756110
_cell_angle_alpha 90.000000
_cell_angle_beta 90.000000
_cell_angle_gamma 90.000000
_cell_volume 6894.448934
_symmetry_space_group_name_H-M "I 41 2 2"
_symmetry_group_IT_number 98
_symmetry_cell_setting 'tetragonal'
loop_
_space_group_symop_operation_xyz
x,y,z
-y,1/2+x,1/4+z
-x,-y,z
y,1/2-x,1/4+z
x,1/2-y,1/4-z
-x,1/2+y,1/4-z
y,x,-z
-y,-x,-z
1/2+x,1/2+y,1/2+z
1/2-y,x,3/4+z
1/2-x,1/2-y,1/2+z
1/2+y,-x,3/4+z
1/2+x,-y,3/4-z
1/2-x,y,3/4-z
1/2+y,1/2+x,1/2-z
1/2-y,1/2-x,1/2-z
loop_
_atom_site_type_symbol
_atom_site_label
_atom_site_fract_x
_atom_site_fract_y
_atom_site_fract_z
Si Si1 0.319587 0.067096 0.667326
Si Si2 0.606445 0.003953 0.966245
Si Si3 0.326471 0.055225 0.392036
Si Si4 0.609917 0.003624 0.251148
Si Si5 0.931766 0.677727 0.159838
Si Si6 0.002557 0.613349 0.463842
Si Si7 0.941434 0.832507 0.357472
O O1 0.320101 0.043546 0.754030
O O2 0.363252 0.134328 0.652626
O O3 0.349984 0.006052 0.616794
O O4 0.243996 0.085640 0.641714
O O5 0.645329 0.993607 0.887311
O O6 0.546808 0.949951 0.973243
O O7 0.578166 0.081238 0.969475
O O8 0.656738 0.989981 0.035555
O O9 0.250000 0.079790 0.375000
O O10 0.347241 0.003082 0.326956
O O11 0.332621 0.013740 0.470219
O O12 0.374535 0.121014 0.392330
O O13 0.548880 0.951121 0.250000
O O14 0.656802 0.989425 0.179378
O O15 0.579711 0.079711 0.250000
O O16 0.912696 0.750000 0.125000
#
# Coordination Sequence:
#
# PCOD8306206 Si02
#       7
#    16  16  16  16  16  16  16
#     4  10  20  31  48  70  98 131 162 195 229 284
#     4   9  17  31  50  66  92 125 158 203 246 286
#     4  10  19  30  45  67 100 129 159 200 230 273
#     4   9  17  29  45  65  89 122 163 200 236 273
#     4  10  19  33  48  69  98 129 162 197 234 276
#     4   9  18  31  47  69  92 124 162 199 248 280
#     4  10  18  30  47  68  95 134 164 189 234 281
#
# _framework density 16.244952999999999
#
# number of rings (size 3 to 8) (size 9 to 14) (size 15 to 20)
#    0.000    2.429    1.429    1.714    0.000    4.571 
#    0.000    2.857    0.000    0.000    0.000    0.000 
#    0.000   17.143    0.000    0.000    0.000    0.000 
#
# Total GULP energy -694237.563760 kJ/mol
# GULP energy per Si atom -12397.099353 kJ/mol
# Density = 1.620798 g / cm^3
# Si number density = 16.244953 Si / 1000 Ang^3
#
#
#
# Elastic Constant Matrix: (Units=GPa)
#
#
# Indices 1 2 3 4 5 6 
#
# 1 59.3427 52.0152 42.6590 0.0000 0.0000 0.0000
# 2 52.0152 59.3425 42.6592 0.0000 0.0000 0.0000
# 3 42.6590 42.6592 139.5556 0.0000 0.0000 0.0000
# 4 0.0000 0.0000 0.0000 19.9921 0.0000 0.0000
# 5 0.0000 0.0000 0.0000 0.0000 19.9925 0.0000
# 6 0.0000 0.0000 0.0000 0.0000 0.0000 14.9756
#
#
#
# Elastic Compliance Matrix: (Units=1/GPa)
#
#
# Indices 1 2 3 4 5 6 
#
# 1 0.074100 -0.062374 -0.003584 0.000000 0.000000 0.000000
# 2 -0.062374 0.074101 -0.003585 0.000000 0.000000 0.000000
# 3 -0.003584 -0.003585 0.009357 0.000000 0.000000 0.000000
# 4 0.000000 0.000000 0.000000 0.050020 0.000000 0.000000
# 5 0.000000 0.000000 0.000000 0.000000 0.050019 0.000000
# 6 0.000000 0.000000 0.000000 0.000000 0.000000 0.066775
#
#
# Mechanical properties :
#
#
# Convention : Reuss Voigt Hill
#
# Bulk Modulus (GPa) = 54.13670 59.21197 56.67433
# Shear Modulus (GPa) = 10.64702 19.05252 14.84977
#
# Velocity S-wave (km/s) = 2.56286 3.42837 3.02671
# Velocity P-wave (km/s) = 6.49271 7.22497 6.86861
#
# Compressibility (1/GPa) = 0.01847176
#
# Stress axis : x y z
#
# Youngs Moduli (GPa) = 13.49525 13.49516 106.87179
#
# Poissons Ratio (x) = 0.84175 0.38306
# Poissons Ratio (y) = 0.84175 0.38310
# Poissons Ratio (z) = 0.04837 0.04838
#
# Static dielectric constant tensor:
#      x y z
#    x 2.944140 0.000000 0.000000 
#    y 0.000000 2.944140 0.000000 
#    z 0.000000 0.000000 3.374190 
# 
# 
# High freq. dielectric constant tensor:
#      x y z
#    x 1.596180 0.000000 0.000000 
#    y 0.000000 1.596180 0.000000 
#    z 0.000000 0.000000 1.648090 
# 
# From -- ./inp_files/7889.got.cif
#   From: 2010.03.12/outbox.cif.g09.slc.cpg/sg98_4_cif.got.tgz:7889.got - 2010.04.08 21:04:41.
