data_PCOD8306912
_publ_section_title
;
Structure prediction by ZEFSAII (Michael W. Deem and Ramdas Pophale) SiO2 
 PCOD8306912
Probable space group: P 42 N M
;
_chemical_formula_sum "Si O2"
_cell_formula_units_Z 56
_cell_length_a 13.773493
_cell_length_b 13.773493
_cell_length_c 14.636752
_cell_angle_alpha 90.000000
_cell_angle_beta 90.000000
_cell_angle_gamma 90.000000
_cell_volume 2776.725187
_symmetry_space_group_name_H-M "P 42 N M"
_symmetry_group_IT_number 102
_symmetry_cell_setting 'tetragonal'
loop_
_space_group_symop_operation_xyz
x,y,z
1/2-y,1/2+x,1/2+z
-x,-y,z
1/2+y,1/2-x,1/2+z
1/2-x,1/2+y,1/2+z
1/2+x,1/2-y,1/2+z
-y,-x,z
y,x,z
loop_
_atom_site_type_symbol
_atom_site_label
_atom_site_fract_x
_atom_site_fract_y
_atom_site_fract_z
Si Si1 0.286717 0.980555 0.512680
Si Si2 0.712047 0.440637 0.294214
Si Si3 0.216300 0.628553 0.482876
Si Si4 0.679721 0.838599 0.629486
Si Si5 0.539211 0.214266 0.668676
Si Si6 0.383346 0.232384 0.193224
Si Si7 0.654362 0.501757 0.837113
O O1 0.370145 0.901386 0.488741
O O2 0.230925 0.935283 0.599999
O O3 0.322239 0.087755 0.542950
O O4 0.223780 0.989581 0.422930
O O5 0.601944 0.398057 0.291277
O O6 0.755587 0.431050 0.394359
O O7 0.776178 0.384825 0.220260
O O8 0.720013 0.555093 0.275112
O O9 0.263045 0.736956 0.477618
O O10 0.259281 0.575214 0.572544
O O11 0.740728 0.740728 0.603935
O O12 0.569183 0.821956 0.655491
O O13 0.614814 0.127411 0.697438
O O14 0.539320 0.293837 0.747669
O O15 0.274935 0.274935 0.197686
O O16 0.572266 0.427735 0.867858
O O17 0.606849 0.606849 0.814988
#
# Coordination Sequence:
#
# PCOD8306912 Si02
#       7
#     8   8   8   8   8   8   8
#     4  10  20  36  59  85 112 144 188 241 300 356
#     4   9  20  38  60  85 112 149 197 244 298 360
#     4  10  20  37  59  81 111 153 195 236 286 350
#     4  10  21  38  59  84 115 148 187 240 296 354
#     4  11  22  37  56  81 117 157 195 235 290 358
#     4  10  21  38  60  86 117 153 195 249 303 352
#     4  11  22  36  57  85 117 155 199 246 296 355
#
# _framework density 20.167641
#
# number of rings (size 3 to 8) (size 9 to 14) (size 15 to 20)
#    0.000    1.857    0.000    5.143    0.000    8.286 
#    0.000    4.286    0.000    1.714    0.000    0.000 
#    0.000    0.000    0.000    0.000    0.000    0.000 
#
# Total GULP energy -693896.561747 kJ/mol
# GULP energy per Si atom -12391.010031 kJ/mol
# Density = 2.012174 g / cm^3
# Si number density = 20.167641 Si / 1000 Ang^3
#
#
#
# Elastic Constant Matrix: (Units=GPa)
#
#
# Indices 1 2 3 4 5 6 
#
# 1 91.9282 36.7617 34.2135 0.0000 0.0000 0.0000
# 2 36.7617 91.9282 34.2135 0.0000 0.0000 0.0000
# 3 34.2135 34.2135 133.7954 0.0000 0.0000 0.0000
# 4 0.0000 0.0000 0.0000 27.7406 0.0000 0.0000
# 5 0.0000 0.0000 0.0000 0.0000 27.7406 0.0000
# 6 0.0000 0.0000 0.0000 0.0000 0.0000 23.1424
#
#
#
# Elastic Compliance Matrix: (Units=1/GPa)
#
#
# Indices 1 2 3 4 5 6 
#
# 1 0.013560 -0.004567 -0.002300 0.000000 0.000000 0.000000
# 2 -0.004567 0.013560 -0.002300 0.000000 0.000000 0.000000
# 3 -0.002300 -0.002300 0.008650 0.000000 0.000000 0.000000
# 4 0.000000 0.000000 0.000000 0.036048 0.000000 0.000000
# 5 0.000000 0.000000 0.000000 0.000000 0.036048 0.000000
# 6 0.000000 0.000000 0.000000 0.000000 0.000000 0.043211
#
#
# Mechanical properties :
#
#
# Convention : Reuss Voigt Hill
#
# Bulk Modulus (GPa) = 57.34564 58.66992 58.00778
# Shear Modulus (GPa) = 28.53506 29.88893 29.21200
#
# Velocity S-wave (km/s) = 3.76559 3.85388 3.80999
# Velocity P-wave (km/s) = 6.88494 6.99696 6.94118
#
# Compressibility (1/GPa) = 0.01743812
#
# Stress axis : x y z
#
# Youngs Moduli (GPa) = 73.74526 73.74526 115.60331
#
# Poissons Ratio (x) = 0.33678 0.26586
# Poissons Ratio (y) = 0.33678 0.26586
# Poissons Ratio (z) = 0.16960 0.16960
#
# Static dielectric constant tensor:
#      x y z
#    x 3.783190 0.000000 0.000000 
#    y 0.000000 3.783190 0.000000 
#    z 0.000000 0.000000 3.805650 
# 
# 
# High freq. dielectric constant tensor:
#      x y z
#    x 1.779050 0.000000 0.000000 
#    y 0.000000 1.779050 0.000000 
#    z 0.000000 0.000000 1.797600 
# 
# From -- ./inp_files/2399.got.cif
#   From: 2010.03.12/outbox.cif.g09.slc.cpg/sg102_2_cif.got.tgz:2399.got - 2010.04.14 01:40:42.
