data_PCOD8306222
_publ_section_title
;
Structure prediction by ZEFSAII (Michael W. Deem and Ramdas Pophale) SiO2 
 PCOD8306222
Probable space group: I 41 2 2
;
_chemical_formula_sum "Si O2"
_cell_formula_units_Z 64
_cell_length_a 13.733192
_cell_length_b 13.733192
_cell_length_c 19.589393
_cell_angle_alpha 90.000000
_cell_angle_beta 90.000000
_cell_angle_gamma 90.000000
_cell_volume 3694.570539
_symmetry_space_group_name_H-M "I 41 2 2"
_symmetry_group_IT_number 98
_symmetry_cell_setting 'tetragonal'
loop_
_space_group_symop_operation_xyz
x,y,z
-y,1/2+x,1/4+z
-x,-y,z
y,1/2-x,1/4+z
x,1/2-y,1/4-z
-x,1/2+y,1/4-z
y,x,-z
-y,-x,-z
1/2+x,1/2+y,1/2+z
1/2-y,x,3/4+z
1/2-x,1/2-y,1/2+z
1/2+y,-x,3/4+z
1/2+x,-y,3/4-z
1/2-x,y,3/4-z
1/2+y,1/2+x,1/2-z
1/2-y,1/2-x,1/2-z
loop_
_atom_site_type_symbol
_atom_site_label
_atom_site_fract_x
_atom_site_fract_y
_atom_site_fract_z
Si Si1 0.235073 0.893519 0.450004
Si Si2 0.741219 0.675191 0.686144
Si Si3 0.893818 0.522744 0.001909
Si Si4 0.096042 0.056536 0.402837
O O1 0.174776 0.825225 0.500000
O O2 0.250000 0.842042 0.375000
O O3 0.333940 0.921556 0.490483
O O4 0.185868 0.996852 0.433161
O O5 0.722122 0.750000 0.625000
O O6 0.753624 0.746377 0.750000
O O7 0.652639 0.599953 0.695683
O O8 0.834874 0.604317 0.680873
O O9 0.000000 0.500000 0.032575
O O10 0.903734 0.571328 0.927964
O O11 0.000000 0.000000 0.428151
#
# Coordination Sequence:
#
# PCOD8306222 Si02
#       4
#    16  16  16  16
#     4  10  19  33  53  83 115 143 173 220 289 354
#     4  12  20  34  55  84 113 149 185 223 276 341
#     4  10  21  36  51  78 114 144 183 230 279 325
#     4  10  19  30  54  89 118 137 163 216 295 363
#
# _framework density 17.322716
#
# number of rings (size 3 to 8) (size 9 to 14) (size 15 to 20)
#    0.000    1.500    5.000    2.250    0.000    0.000 
#    0.000    1.250    0.000    0.750    0.000    0.000 
#    0.000    0.000    0.000    0.000    0.000    0.000 
#
# Total GULP energy -396582.489000 kJ/mol
# GULP energy per Si atom -12393.202781 kJ/mol
# Density = 1.728329 g / cm^3
# Si number density = 17.322716 Si / 1000 Ang^3
#
#
#
# Elastic Constant Matrix: (Units=GPa)
#
#
# Indices 1 2 3 4 5 6 
#
# 1 113.9439 56.9889 48.6455 0.0000 0.0000 0.0000
# 2 56.9889 113.9423 48.6456 0.0000 0.0000 0.0000
# 3 48.6455 48.6456 100.2847 0.0000 0.0000 0.0000
# 4 0.0000 0.0000 0.0000 23.9762 0.0000 0.0000
# 5 0.0000 0.0000 0.0000 0.0000 23.9768 0.0000
# 6 0.0000 0.0000 0.0000 0.0000 0.0000 30.9126
#
#
#
# Elastic Compliance Matrix: (Units=1/GPa)
#
#
# Indices 1 2 3 4 5 6 
#
# 1 0.012820 -0.004738 -0.003920 0.000000 0.000000 0.000000
# 2 -0.004738 0.012820 -0.003920 0.000000 0.000000 0.000000
# 3 -0.003920 -0.003920 0.013775 0.000000 0.000000 0.000000
# 4 0.000000 0.000000 0.000000 0.041708 0.000000 0.000000
# 5 0.000000 0.000000 0.000000 0.000000 0.041707 0.000000
# 6 0.000000 0.000000 0.000000 0.000000 0.000000 0.032349
#
#
# Mechanical properties :
#
#
# Convention : Reuss Voigt Hill
#
# Bulk Modulus (GPa) = 70.13983 70.74787 70.44385
# Shear Modulus (GPa) = 27.01417 27.36585 27.19001
#
# Velocity S-wave (km/s) = 3.95329 3.97894 3.96614
# Velocity P-wave (km/s) = 7.83684 7.87649 7.85669
#
# Compressibility (1/GPa) = 0.01425723
#
# Stress axis : x y z
#
# Youngs Moduli (GPa) = 78.00526 78.00383 72.59660
#
# Poissons Ratio (x) = 0.36960 0.28459
# Poissons Ratio (y) = 0.36961 0.28459
# Poissons Ratio (z) = 0.30579 0.30579
#
# Static dielectric constant tensor:
#      x y z
#    x 3.199420 0.000000 0.000000 
#    y 0.000000 3.199420 0.000000 
#    z 0.000000 0.000000 3.339270 
# 
# 
# High freq. dielectric constant tensor:
#      x y z
#    x 1.654240 0.000000 0.000000 
#    y 0.000000 1.654240 0.000000 
#    z 0.000000 0.000000 1.668130 
# 
# From -- ./inp_files/7380.got.cif
#   From: 2010.03.12/outbox.cif.g09.slc.cpg/sg98_4_cif.got.tgz:7380.got - 2010.04.08 21:04:41.
