data_PCOD8306323
_publ_section_title
;
Structure prediction by ZEFSAII (Michael W. Deem and Ramdas Pophale) SiO2 
 PCOD8306323
Probable space group: I 41 2 2
;
_chemical_formula_sum "Si O2"
_cell_formula_units_Z 108
_cell_length_a 14.220912
_cell_length_b 14.220912
_cell_length_c 24.811067
_cell_angle_alpha 90.000000
_cell_angle_beta 90.000000
_cell_angle_gamma 90.000000
_cell_volume 5017.649713
_symmetry_space_group_name_H-M "I 41 2 2"
_symmetry_group_IT_number 98
_symmetry_cell_setting 'tetragonal'
loop_
_space_group_symop_operation_xyz
x,y,z
-y,1/2+x,1/4+z
-x,-y,z
y,1/2-x,1/4+z
x,1/2-y,1/4-z
-x,1/2+y,1/4-z
y,x,-z
-y,-x,-z
1/2+x,1/2+y,1/2+z
1/2-y,x,3/4+z
1/2-x,1/2-y,1/2+z
1/2+y,-x,3/4+z
1/2+x,-y,3/4-z
1/2-x,y,3/4-z
1/2+y,1/2+x,1/2-z
1/2-y,1/2-x,1/2-z
loop_
_atom_site_type_symbol
_atom_site_label
_atom_site_fract_x
_atom_site_fract_y
_atom_site_fract_z
Si Si1 0.951289 0.807610 0.988541
Si Si2 0.819555 0.163829 0.661339
Si Si3 0.188458 0.986196 0.569267
Si Si4 0.829737 0.170264 0.000000
Si Si5 0.946431 0.871321 0.201141
Si Si6 0.000000 0.000000 0.500000
Si Si7 0.860350 0.708964 0.374381
Si Si8 0.444418 0.868976 0.990232
O O1 0.917452 0.774340 0.930248
O O2 0.909929 0.909929 0.000000
O O3 0.910449 0.730578 0.029591
O O4 0.060457 0.809192 0.001799
O O5 0.854362 0.250000 0.625000
O O6 0.806466 0.073165 0.624211
O O7 0.728039 0.200031 0.696009
O O8 0.902531 0.130101 0.700372
O O9 0.089082 0.994906 0.539580
O O10 0.262971 0.934735 0.530503
O O11 0.221347 0.092499 0.582097
O O12 0.899981 0.881706 0.141983
O O13 0.059699 0.884562 0.200981
O O14 0.904017 0.948371 0.242433
O O15 0.750000 0.733065 0.375000
#
# Coordination Sequence:
#
# PCOD8306323 Si02
#       8
#    16  16  16   8  16   4  16  16
#     4  12  24  44  66 104 140 182 229 288 349 428
#     4  12  24  42  72 104 141 184 235 294 363 440
#     4  11  25  46  70 103 142 184 247 307 362 438
#     4  12  25  45  66 103 142 183 224 296 356 433
#     4  10  22  42  72  95 139 187 227 291 350 428
#     4  12  28  50  72 102 140 196 254 318 364 422
#     4  11  23  43  70 103 138 181 237 287 359 432
#     4  10  22  45  69 100 137 184 236 290 360 427
#
# _framework density 21.524021999999999
#
# number of rings (size 3 to 8) (size 9 to 14) (size 15 to 20)
#    0.000    0.889    4.444    2.000    0.000    5.926 
#    5.333    1.481    0.000    0.000    0.000    0.000 
#    0.000    0.000    0.000    0.000    0.000    0.000 
#
# Total GULP energy -669115.634290 kJ/mol
# GULP energy per Si atom -12391.030265 kJ/mol
# Density = 2.147503 g / cm^3
# Si number density = 21.524022 Si / 1000 Ang^3
#
#
#
# Elastic Constant Matrix: (Units=GPa)
#
#
# Indices 1 2 3 4 5 6 
#
# 1 115.9348 25.2141 30.8649 0.0000 0.0000 0.0000
# 2 25.2141 115.9346 30.8648 0.0000 0.0000 0.0000
# 3 30.8649 30.8648 81.0713 0.0000 0.0000 0.0000
# 4 0.0000 0.0000 0.0000 33.9460 0.0000 0.0000
# 5 0.0000 0.0000 0.0000 0.0000 33.9464 0.0000
# 6 0.0000 0.0000 0.0000 0.0000 0.0000 17.7668
#
#
#
# Elastic Compliance Matrix: (Units=1/GPa)
#
#
# Indices 1 2 3 4 5 6 
#
# 1 0.009761 -0.001261 -0.003236 0.000000 0.000000 0.000000
# 2 -0.001261 0.009761 -0.003236 0.000000 0.000000 0.000000
# 3 -0.003236 -0.003236 0.014799 0.000000 0.000000 0.000000
# 4 0.000000 0.000000 0.000000 0.029459 0.000000 0.000000
# 5 0.000000 0.000000 0.000000 0.000000 0.029458 0.000000
# 6 0.000000 0.000000 0.000000 0.000000 0.000000 0.056285
#
#
# Mechanical properties :
#
#
# Convention : Reuss Voigt Hill
#
# Bulk Modulus (GPa) = 53.03750 54.09204 53.56477
# Shear Modulus (GPa) = 29.19280 32.19830 30.69555
#
# Velocity S-wave (km/s) = 3.68678 3.87191 3.78048
# Velocity P-wave (km/s) = 6.54352 6.72120 6.63296
#
# Compressibility (1/GPa) = 0.01885458
#
# Stress axis : x y z
#
# Youngs Moduli (GPa) = 102.44429 102.44412 67.57295
#
# Poissons Ratio (x) = 0.12923 0.21867
# Poissons Ratio (y) = 0.12923 0.21867
# Poissons Ratio (z) = 0.33151 0.33151
#
# Static dielectric constant tensor:
#      x y z
#    x 4.049800 0.000000 0.000000 
#    y 0.000000 4.049820 0.000000 
#    z 0.000000 0.000000 3.897240 
# 
# 
# High freq. dielectric constant tensor:
#      x y z
#    x 1.853300 0.000000 0.000000 
#    y 0.000000 1.853300 0.000000 
#    z 0.000000 0.000000 1.839730 
# 
# From -- ./inp_files/10124.got.cif
#   From: 2010.03.12/outbox.cif.g09.slc.cpg/sg98_6_cif.got.tgz:10124.got - 2010.04.08 21:04:41.
