data_PCOD8306530
_publ_section_title
;
Structure prediction by ZEFSAII (Michael W. Deem and Ramdas Pophale) SiO2 
 PCOD8306530
Probable space group: P 4 M M
;
_chemical_formula_sum "Si O2"
_cell_formula_units_Z 64
_cell_length_a 13.664732
_cell_length_b 13.664732
_cell_length_c 20.521363
_cell_angle_alpha 90.000000
_cell_angle_beta 90.000000
_cell_angle_gamma 90.000000
_cell_volume 3831.849467
_symmetry_space_group_name_H-M "P 4 M M"
_symmetry_group_IT_number 99
_symmetry_cell_setting 'tetragonal'
loop_
_space_group_symop_operation_xyz
x,y,z
-y,x,z
-x,-y,z
y,-x,z
-x,y,z
x,-y,z
-y,-x,z
y,x,z
loop_
_atom_site_type_symbol
_atom_site_label
_atom_site_fract_x
_atom_site_fract_y
_atom_site_fract_z
Si Si1 0.113579 0.273443 0.270810
Si Si2 0.888129 0.732202 0.124385
Si Si3 0.883925 0.608480 0.641029
Si Si4 0.225694 0.384379 0.873908
Si Si5 0.110195 0.614647 0.001233
Si Si6 0.616170 0.108589 0.498273
Si Si7 0.772295 0.614866 0.374454
Si Si8 0.115750 0.726305 0.765938
O O1 0.173473 0.173473 0.284240
O O2 0.129707 0.311101 0.196716
O O3 0.151852 0.360083 0.316926
O O4 0.000000 0.251643 0.285169
O O5 0.833925 0.833925 0.115116
O O6 0.000000 0.757999 0.113239
O O7 0.850744 0.656487 0.069862
O O8 0.839628 0.500000 0.654797
O O9 0.850485 0.647635 0.569648
O O10 0.849761 0.683769 0.696268
O O11 0.000000 0.599697 0.641067
O O12 0.244976 0.500000 0.868912
O O13 0.328318 0.328318 0.863339
O O14 0.181795 0.352672 0.943492
O O15 0.146625 0.352955 0.819909
O O16 0.111037 0.500000 0.009222
O O17 0.000000 0.651480 0.985568
O O18 0.500000 0.100728 0.496079
O O19 0.652915 0.181615 0.442364
O O20 0.660754 0.000000 0.486168
O O21 0.751027 0.500000 0.374525
O O22 0.669678 0.669678 0.363468
O O23 0.170790 0.829211 0.777508
O O24 0.000000 0.745016 0.769725
#
# Coordination Sequence:
#
# PCOD8306530 Si02
#       8
#     8   8   8   8   8   8   8   8
#     4   9  18  31  47  69  94 120 151 186 227 274
#     4   9  17  29  45  66  93 121 148 180 217 261
#     4   8  14  26  45  68  92 116 145 184 226 267
#     4  10  20  33  50  71  93 119 151 188 232 278
#     4   9  17  29  46  68  92 119 152 187 221 258
#     4   8  14  26  45  68  91 114 143 183 229 271
#     4  10  20  32  46  65  89 119 155 193 232 273
#     4  10  20  32  47  68  93 123 158 192 227 267
#
# _framework density 16.702117000000001
#
# number of rings (size 3 to 8) (size 9 to 14) (size 15 to 20)
#    0.000    2.875    0.000    2.250    0.000    3.625 
#    0.000    2.500    0.000    0.000    0.000    1.750 
#    0.000    9.000    0.000    0.000    0.000    0.000 
#
# Total GULP energy -793338.212418 kJ/mol
# GULP energy per Si atom -12395.909569 kJ/mol
# Density = 1.666410 g / cm^3
# Si number density = 16.702117 Si / 1000 Ang^3
#
#
#
# Elastic Constant Matrix: (Units=GPa)
#
#
# Indices 1 2 3 4 5 6 
#
# 1 67.6420 33.7121 42.9999 0.0000 0.0000 0.0000
# 2 33.7121 67.6420 42.9999 0.0000 0.0000 0.0000
# 3 42.9999 42.9999 123.3144 0.0000 0.0000 0.0000
# 4 0.0000 0.0000 0.0000 23.8150 0.0000 0.0000
# 5 0.0000 0.0000 0.0000 0.0000 23.8150 0.0000
# 6 0.0000 0.0000 0.0000 0.0000 0.0000 16.3646
#
#
#
# Elastic Compliance Matrix: (Units=1/GPa)
#
#
# Indices 1 2 3 4 5 6 
#
# 1 0.021742 -0.007730 -0.004886 0.000000 0.000000 0.000000
# 2 -0.007730 0.021742 -0.004886 0.000000 0.000000 0.000000
# 3 -0.004886 -0.004886 0.011517 0.000000 0.000000 0.000000
# 4 0.000000 0.000000 0.000000 0.041990 0.000000 0.000000
# 5 0.000000 0.000000 0.000000 0.000000 0.041990 0.000000
# 6 0.000000 0.000000 0.000000 0.000000 0.000000 0.061107
#
#
# Mechanical properties :
#
#
# Convention : Reuss Voigt Hill
#
# Bulk Modulus (GPa) = 50.00722 55.33578 52.67150
# Shear Modulus (GPa) = 20.68164 22.05802 21.36983
#
# Velocity S-wave (km/s) = 3.52272 3.63805 3.58085
# Velocity P-wave (km/s) = 6.82288 7.13093 6.97860
#
# Compressibility (1/GPa) = 0.01999711
#
# Stress axis : x y z
#
# Youngs Moduli (GPa) = 45.99308 45.99308 86.82866
#
# Poissons Ratio (x) = 0.35553 0.42425
# Poissons Ratio (y) = 0.35553 0.42425
# Poissons Ratio (z) = 0.22473 0.22473
#
# Static dielectric constant tensor:
#      x y z
#    x 2.941530 0.000000 0.000000 
#    y 0.000000 2.941530 0.000000 
#    z 0.000000 0.000000 3.548090 
# 
# 
# High freq. dielectric constant tensor:
#      x y z
#    x 1.624010 0.000000 0.000000 
#    y 0.000000 1.624010 0.000000 
#    z 0.000000 0.000000 1.662290 
# 
# From -- ./inp_files/2083.got.cif
#   From: 2010.03.12/outbox.cif.g09.slc.cpg/sg99_cif.got.tgz:2083.got - 2010.04.08 21:11:30.
