data_PCOD8306240
_publ_section_title
;
Structure prediction by ZEFSAII (Michael W. Deem and Ramdas Pophale) SiO2 
 PCOD8306240
Probable space group: I 41 2 2
;
_chemical_formula_sum "Si O2"
_cell_formula_units_Z 96
_cell_length_a 14.801192
_cell_length_b 14.801192
_cell_length_c 23.003909
_cell_angle_alpha 90.000000
_cell_angle_beta 90.000000
_cell_angle_gamma 90.000000
_cell_volume 5039.587912
_symmetry_space_group_name_H-M "I 41 2 2"
_symmetry_group_IT_number 98
_symmetry_cell_setting 'tetragonal'
loop_
_space_group_symop_operation_xyz
x,y,z
-y,1/2+x,1/4+z
-x,-y,z
y,1/2-x,1/4+z
x,1/2-y,1/4-z
-x,1/2+y,1/4-z
y,x,-z
-y,-x,-z
1/2+x,1/2+y,1/2+z
1/2-y,x,3/4+z
1/2-x,1/2-y,1/2+z
1/2+y,-x,3/4+z
1/2+x,-y,3/4-z
1/2-x,y,3/4-z
1/2+y,1/2+x,1/2-z
1/2-y,1/2-x,1/2-z
loop_
_atom_site_type_symbol
_atom_site_label
_atom_site_fract_x
_atom_site_fract_y
_atom_site_fract_z
Si Si1 0.532791 0.103201 0.852134
Si Si2 0.097422 0.026807 0.699835
Si Si3 0.265813 0.074995 0.137286
Si Si4 0.128191 0.250000 0.625000
Si Si5 0.637769 0.128688 0.969050
Si Si6 0.465447 0.282930 0.236866
Si Si7 0.839818 0.160183 0.000000
O O1 0.443971 0.163407 0.865980
O O2 0.604200 0.117993 0.903485
O O3 0.580566 0.144115 0.795803
O O4 0.500000 0.000000 0.844074
O O5 0.165304 0.007722 0.645992
O O6 0.091836 0.125722 0.728278
O O7 0.130052 0.969401 0.753933
O O8 0.000000 0.000000 0.674861
O O9 0.301398 0.170244 0.114510
O O10 0.272307 0.068302 0.206902
O O11 0.060178 0.273168 0.678791
O O12 0.572963 0.197965 0.005295
O O13 0.741787 0.157696 0.969853
#
# Coordination Sequence:
#
# PCOD8306240 Si02
#       7
#    16  16  16   8  16  16   8
#     4  11  23  42  61  86 122 164 204 256 310 371
#     4   9  17  35  61  83 110 157 203 236 299 371
#     4  10  19  37  59  85 120 154 201 252 301 364
#     4  10  20  36  58  92 118 154 202 254 302 364
#     4  10  20  39  60  84 117 161 198 238 310 370
#     4   9  19  35  59  84 116 156 196 246 301 366
#     4  12  23  40  60  96 121 154 206 258 298 374
#
# _framework density 19.049175999999999
#
# number of rings (size 3 to 8) (size 9 to 14) (size 15 to 20)
#    0.000    2.000    1.667    3.750    0.000    0.000 
#    9.000    3.333    0.000    8.000    0.000    0.000 
#    0.000    0.000    0.000    0.000    0.000    0.000 
#
# Total GULP energy -594687.990496 kJ/mol
# GULP energy per Si atom -12389.333135 kJ/mol
# Density = 1.900582 g / cm^3
# Si number density = 19.049176 Si / 1000 Ang^3
#
#
#
# Elastic Constant Matrix: (Units=GPa)
#
#
# Indices 1 2 3 4 5 6 
#
# 1 66.5781 17.6583 26.5912 0.0000 0.0000 0.0000
# 2 17.6583 66.5768 26.5909 0.0000 0.0000 0.0000
# 3 26.5912 26.5909 122.9090 0.0000 0.0000 0.0000
# 4 0.0000 0.0000 0.0000 26.2110 0.0000 0.0000
# 5 0.0000 0.0000 0.0000 0.0000 26.2111 0.0000
# 6 0.0000 0.0000 0.0000 0.0000 0.0000 20.2244
#
#
#
# Elastic Compliance Matrix: (Units=1/GPa)
#
#
# Indices 1 2 3 4 5 6 
#
# 1 0.017096 -0.003346 -0.002975 0.000000 0.000000 0.000000
# 2 -0.003346 0.017096 -0.002975 0.000000 0.000000 0.000000
# 3 -0.002975 -0.002975 0.009423 0.000000 0.000000 0.000000
# 4 0.000000 0.000000 0.000000 0.038152 0.000000 0.000000
# 5 0.000000 0.000000 0.000000 0.000000 0.038152 0.000000
# 6 0.000000 0.000000 0.000000 0.000000 0.000000 0.049445
#
#
# Mechanical properties :
#
#
# Convention : Reuss Voigt Hill
#
# Bulk Modulus (GPa) = 39.96235 44.19383 42.07809
# Shear Modulus (GPa) = 25.47179 26.87755 26.17467
#
# Velocity S-wave (km/s) = 3.66069 3.76034 3.71085
# Velocity P-wave (km/s) = 6.23631 6.48875 6.36378
#
# Compressibility (1/GPa) = 0.02502356
#
# Stress axis : x y z
#
# Youngs Moduli (GPa) = 58.49479 58.49367 106.12077
#
# Poissons Ratio (x) = 0.19573 0.31567
# Poissons Ratio (y) = 0.19574 0.31568
# Poissons Ratio (z) = 0.17400 0.17400
#
# Static dielectric constant tensor:
#      x y z
#    x 3.619030 0.000000 0.000000 
#    y 0.000000 3.619020 0.000000 
#    z 0.000000 0.000000 3.791760 
# 
# 
# High freq. dielectric constant tensor:
#      x y z
#    x 1.733880 0.000000 0.000000 
#    y 0.000000 1.733880 0.000000 
#    z 0.000000 0.000000 1.749670 
# 
# From -- ./inp_files/10064.got.cif
#   From: 2010.03.12/outbox.cif.g09.slc.cpg/sg98_6_cif.got.tgz:10064.got - 2010.04.08 21:04:41.
