data_PCOD8306622
_publ_section_title
;
Structure prediction by ZEFSAII (Michael W. Deem and Ramdas Pophale) SiO2 
 PCOD8306622
Probable space group: P 4 M M
;
_chemical_formula_sum "Si O2"
_cell_formula_units_Z 64
_cell_length_a 14.297861
_cell_length_b 14.297861
_cell_length_c 19.986581
_cell_angle_alpha 90.000000
_cell_angle_beta 90.000000
_cell_angle_gamma 90.000000
_cell_volume 4085.833353
_symmetry_space_group_name_H-M "P 4 M M"
_symmetry_group_IT_number 99
_symmetry_cell_setting 'tetragonal'
loop_
_space_group_symop_operation_xyz
x,y,z
-y,x,z
-x,-y,z
y,-x,z
-x,y,z
x,-y,z
-y,-x,z
y,x,z
loop_
_atom_site_type_symbol
_atom_site_label
_atom_site_fract_x
_atom_site_fract_y
_atom_site_fract_z
Si Si1 0.756381 0.606455 0.776650
Si Si2 0.107231 0.257923 0.008526
Si Si3 0.603613 0.110687 0.274539
Si Si4 0.392301 0.107577 0.892028
Si Si5 0.740271 0.107941 0.159691
Si Si6 0.261057 0.891417 0.541849
Si Si7 0.742309 0.106757 0.387631
Si Si8 0.608998 0.238423 0.623408
O O1 0.729469 0.500000 0.790831
O O2 0.663494 0.663494 0.792220
O O3 0.838057 0.641106 0.825890
O O4 0.790644 0.620355 0.700745
O O5 0.163428 0.163428 0.995561
O O6 0.122399 0.295977 0.083847
O O7 0.000000 0.232091 0.995652
O O8 0.142511 0.336850 0.957298
O O9 0.500000 0.156144 0.274490
O O10 0.658930 0.144868 0.208678
O O11 0.657353 0.143206 0.341569
O O12 0.594416 0.000000 0.273472
O O13 0.500000 0.126356 0.908229
O O14 0.372106 0.000000 0.876525
O O15 0.834619 0.165382 0.173258
O O16 0.764732 0.000000 0.174277
O O17 0.164987 0.835014 0.557468
O O18 0.288617 0.881998 0.464275
O O19 0.347815 0.847534 0.582000
O O20 0.246420 0.000000 0.562161
O O21 0.834542 0.165459 0.371147
O O22 0.767757 0.000000 0.370385
O O23 0.500000 0.253197 0.604235
O O24 0.665150 0.334851 0.608179
#
# Coordination Sequence:
#
# PCOD8306622 Si02
#       8
#     8   8   8   8   8   8   8   8
#     4   9  17  29  45  64  86 111 138 172 215 260
#     4   9  17  28  42  60  82 109 139 171 208 248
#     4   9  17  28  41  58  82 111 140 169 202 241
#     4   9  17  28  42  61  84 110 141 174 207 246
#     4   9  17  28  42  61  84 109 138 172 209 251
#     4   9  18  31  46  66  91 118 149 183 218 259
#     4   9  17  29  45  65  89 115 142 173 209 250
#     4   9  18  31  46  66  90 115 146 183 223 268
#
# _framework density 15.663878
#
# number of rings (size 3 to 8) (size 9 to 14) (size 15 to 20)
#    0.000    3.000    0.000    0.750    0.000    2.500 
#    0.000    8.750    0.000    2.250    0.000    0.000 
#    0.000    7.000    0.000    9.250    0.000    0.750 
#
# Total GULP energy -793461.705788 kJ/mol
# GULP energy per Si atom -12397.839153 kJ/mol
# Density = 1.562823 g / cm^3
# Si number density = 15.663878 Si / 1000 Ang^3
#
#
#
# Elastic Constant Matrix: (Units=GPa)
#
#
# Indices 1 2 3 4 5 6 
#
# 1 91.3813 51.0584 59.1143 0.0000 0.0000 -0.0006
# 2 51.0584 91.3813 59.1143 0.0000 0.0000 0.0006
# 3 59.1143 59.1143 96.8505 0.0000 0.0000 0.0000
# 4 0.0000 0.0000 0.0000 26.0582 0.0000 0.0000
# 5 0.0000 0.0000 0.0000 0.0000 26.0582 0.0000
# 6 -0.0006 0.0006 0.0000 0.0000 0.0000 18.3140
#
#
#
# Elastic Compliance Matrix: (Units=1/GPa)
#
#
# Indices 1 2 3 4 5 6 
#
# 1 0.019515 -0.005285 -0.008685 0.000000 0.000000 0.000001
# 2 -0.005285 0.019515 -0.008685 0.000000 0.000000 -0.000001
# 3 -0.008685 -0.008685 0.020927 0.000000 0.000000 0.000000
# 4 0.000000 0.000000 0.000000 0.038376 0.000000 0.000000
# 5 0.000000 0.000000 0.000000 0.000000 0.038376 0.000000
# 6 0.000001 -0.000001 0.000000 0.000000 0.000000 0.054603
#
#
# Mechanical properties :
#
#
# Convention : Reuss Voigt Hill
#
# Bulk Modulus (GPa) = 68.27964 68.68744 68.48354
# Shear Modulus (GPa) = 20.70359 21.44113 21.07236
#
# Velocity S-wave (km/s) = 3.63952 3.70378 3.67179
# Velocity P-wave (km/s) = 7.83241 7.88902 7.86077
#
# Compressibility (1/GPa) = 0.01464565
#
# Stress axis : x y z
#
# Youngs Moduli (GPa) = 51.24365 51.24365 47.78417
#
# Poissons Ratio (x) = 0.27083 0.41501
# Poissons Ratio (y) = 0.27083 0.41501
# Poissons Ratio (z) = 0.44506 0.44506
#
# Static dielectric constant tensor:
#      x y z
#    x 2.958980 0.000000 0.000000 
#    y 0.000000 2.958980 0.000000 
#    z 0.000000 0.000000 3.166000 
# 
# 
# High freq. dielectric constant tensor:
#      x y z
#    x 1.588210 0.000000 0.000000 
#    y 0.000000 1.588210 0.000000 
#    z 0.000000 0.000000 1.610640 
# 
# From -- ./inp_files/2047.got.cif
#   From: 2010.03.12/outbox.cif.g09.slc.cpg/sg99_cif.got.tgz:2047.got - 2010.04.08 21:11:30.
