data_PCOD8306802
_publ_section_title
;
Structure prediction by ZEFSAII (Michael W. Deem and Ramdas Pophale) SiO2 
 PCOD8306802
Probable space group: P 42 C M
;
_chemical_formula_sum "Si O2"
_cell_formula_units_Z 38
_cell_length_a 14.362188
_cell_length_b 14.362188
_cell_length_c 8.673139
_cell_angle_alpha 90.000000
_cell_angle_beta 90.000000
_cell_angle_gamma 90.000000
_cell_volume 1789.029580
_symmetry_space_group_name_H-M "P 42 C M"
_symmetry_group_IT_number 101
_symmetry_cell_setting 'tetragonal'
loop_
_space_group_symop_operation_xyz
x,y,z
-y,x,1/2+z
-x,-y,z
y,-x,1/2+z
-x,y,1/2+z
x,-y,1/2+z
-y,-x,z
y,x,z
loop_
_atom_site_type_symbol
_atom_site_label
_atom_site_fract_x
_atom_site_fract_y
_atom_site_fract_z
Si Si1 0.389004 0.610997 0.064350
Si Si2 0.500000 0.500000 0.314224
Si Si3 0.822112 0.601594 0.495828
Si Si4 0.453364 0.098950 0.806059
Si Si5 0.738730 0.105333 0.478954
Si Si6 0.767988 0.085206 0.828893
O O1 0.433911 0.566090 0.214729
O O2 0.403516 0.720816 0.068948
O O3 0.433755 0.566246 0.912995
O O4 0.824603 0.529936 0.353379
O O5 0.895231 0.570261 0.626331
O O6 0.851718 0.703326 0.438270
O O7 0.500000 0.000000 0.843673
O O8 0.362323 0.120990 0.907046
O O9 0.803702 0.196299 0.454500
O O10 0.784832 0.017651 0.393474
O O11 0.723728 0.081785 0.658584
O O12 0.869595 0.130406 0.821486
#
# Coordination Sequence:
#
# PCOD8306802 Si02
#       6
#     4   2   8   8   8   8
#     4  11  24  46  68  98 135 188 233 299 355 432
#     4  10  24  46  68  94 140 182 242 292 360 434
#     4  12  24  41  68  99 137 184 232 290 353 421
#     4  12  25  41  67 103 140 182 230 288 356 415
#     4  11  26  45  70 101 137 181 232 287 347 424
#     4  11  24  45  69 100 138 179 232 284 345 416
#
# _framework density 21.240565
#
# number of rings (size 3 to 8) (size 9 to 14) (size 15 to 20)
#    0.000    0.632    3.158    4.421    1.474    2.947 
#    3.789    2.105    0.000    0.000    0.000    0.000 
#    0.000    0.000    0.000    0.000    0.000    0.000 
#
# Total GULP energy -471322.224139 kJ/mol
# GULP energy per Si atom -12403.216425 kJ/mol
# Density = 2.119222 g / cm^3
# Si number density = 21.240565 Si / 1000 Ang^3
#
#
#
# Elastic Constant Matrix: (Units=GPa)
#
#
# Indices 1 2 3 4 5 6 
#
# 1 102.5616 34.8061 25.3489 0.0000 0.0000 0.0003
# 2 34.8061 102.5616 25.3489 0.0000 0.0000 -0.0003
# 3 25.3489 25.3489 106.8634 0.0000 0.0000 0.0000
# 4 0.0000 0.0000 0.0000 30.2171 0.0000 0.0000
# 5 0.0000 0.0000 0.0000 0.0000 30.2171 0.0000
# 6 0.0003 -0.0003 0.0000 0.0000 0.0000 40.1699
#
#
#
# Elastic Compliance Matrix: (Units=1/GPa)
#
#
# Indices 1 2 3 4 5 6 
#
# 1 0.011369 -0.003390 -0.001892 0.000000 0.000000 0.000000
# 2 -0.003390 0.011369 -0.001892 0.000000 0.000000 0.000000
# 3 -0.001892 -0.001892 0.010256 0.000000 0.000000 0.000000
# 4 0.000000 0.000000 0.000000 0.033094 0.000000 0.000000
# 5 0.000000 0.000000 0.000000 0.000000 0.033094 0.000000
# 6 0.000000 0.000000 0.000000 0.000000 0.000000 0.024894
#
#
# Mechanical properties :
#
#
# Convention : Reuss Voigt Hill
#
# Bulk Modulus (GPa) = 53.64238 53.66604 53.65421
# Shear Modulus (GPa) = 34.56874 35.21968 34.89421
#
# Velocity S-wave (km/s) = 4.03859 4.07644 4.05756
# Velocity P-wave (km/s) = 6.85977 6.89036 6.87508
#
# Compressibility (1/GPa) = 0.01864198
#
# Stress axis : x y z
#
# Youngs Moduli (GPa) = 87.96180 87.96180 97.50802
#
# Poissons Ratio (x) = 0.29822 0.18453
# Poissons Ratio (y) = 0.29822 0.18453
# Poissons Ratio (z) = 0.16647 0.16647
#
# Static dielectric constant tensor:
#      x y z
#    x 3.824100 0.000000 0.000000 
#    y 0.000000 3.824100 0.000000 
#    z 0.000000 0.000000 3.938240 
# 
# 
# High freq. dielectric constant tensor:
#      x y z
#    x 1.837980 0.000000 0.000000 
#    y 0.000000 1.837980 0.000000 
#    z 0.000000 0.000000 1.848500 
# 
# From -- ./inp_files/528.got.cif
#   From: 2010.03.12/outbox.cif.g09.slc.cpg/sg101_1_cif.got.tgz:528.got - 2010.04.14 01:38:52.
