data_PCOD8306101
_publ_section_title
;
Structure prediction by ZEFSAII (Michael W. Deem and Ramdas Pophale) SiO2 
 PCOD8306101
Probable space group: I 4 2 2 
;
_chemical_formula_sum "Si O2"
_cell_formula_units_Z 36
_cell_length_a 10.822252
_cell_length_b 10.822252
_cell_length_c 11.129083
_cell_angle_alpha 90.000000
_cell_angle_beta 90.000000
_cell_angle_gamma 90.000000
_cell_volume 1303.450870
_symmetry_space_group_name_H-M "I 4 2 2 "
_symmetry_group_IT_number 97
_symmetry_cell_setting 'tetragonal'
loop_
_space_group_symop_operation_xyz
x,y,z
-y,x,z
-x,-y,z
y,-x,z
x,-y,-z
-x,y,-z
y,x,-z
-y,-x,-z
1/2+x,1/2+y,1/2+z
1/2-y,1/2+x,1/2+z
1/2-x,1/2-y,1/2+z
1/2+y,1/2-x,1/2+z
1/2+x,1/2-y,1/2-z
1/2-x,1/2+y,1/2-z
1/2+y,1/2+x,1/2-z
1/2-y,1/2-x,1/2-z
loop_
_atom_site_type_symbol
_atom_site_label
_atom_site_fract_x
_atom_site_fract_y
_atom_site_fract_z
Si Si1 0.000000 0.500000 0.250000
Si Si2 0.225318 0.576246 0.886496
Si Si3 0.326115 0.406202 0.363318
O O1 0.120268 0.510735 0.168348
O O2 0.326587 0.599570 0.782975
O O3 0.161103 0.706870 0.920947
O O4 0.281861 0.500000 0.000000
O O5 0.449204 0.333577 0.405904
#
# Coordination Sequence:
#
# PCOD8306101 Si02
#       3
#     4  16  16
#     4   8  18  36  56  86 120 158 210 266 324 390
#     4  10  21  38  64  94 129 175 228 276 333 407
#     4   9  20  40  65  97 137 177 221 282 349 405
#
# _framework density 27.618993
#
# number of rings (size 3 to 8) (size 9 to 14) (size 15 to 20)
#    0.000    3.111    0.000    0.667    0.000   16.000 
#    0.000   11.111    0.000    2.667    0.000   49.778 
#    0.000    0.000    0.000    0.000    0.000    0.000 
#
# Total GULP energy -223087.170679 kJ/mol
# GULP energy per Si atom -12393.731704 kJ/mol
# Density = 2.755613 g / cm^3
# Si number density = 27.618993 Si / 1000 Ang^3
#
#
#
# Elastic Constant Matrix: (Units=GPa)
#
#
# Indices 1 2 3 4 5 6 
#
# 1 125.3143 56.2237 39.2667 0.0000 0.0000 0.0000
# 2 56.2237 125.3143 39.2667 0.0000 0.0000 0.0000
# 3 39.2667 39.2667 140.5822 0.0000 0.0000 0.0000
# 4 0.0000 0.0000 0.0000 51.5547 0.0000 0.0000
# 5 0.0000 0.0000 0.0000 0.0000 51.5547 0.0000
# 6 0.0000 0.0000 0.0000 0.0000 0.0000 34.8198
#
#
#
# Elastic Compliance Matrix: (Units=1/GPa)
#
#
# Indices 1 2 3 4 5 6 
#
# 1 0.010370 -0.004104 -0.001750 0.000000 0.000000 0.000000
# 2 -0.004104 0.010370 -0.001750 0.000000 0.000000 0.000000
# 3 -0.001750 -0.001750 0.008091 0.000000 0.000000 0.000000
# 4 0.000000 0.000000 0.000000 0.019397 0.000000 0.000000
# 5 0.000000 0.000000 0.000000 0.000000 0.019397 0.000000
# 6 0.000000 0.000000 0.000000 0.000000 0.000000 0.028719
#
#
# Mechanical properties :
#
#
# Convention : Reuss Voigt Hill
#
# Bulk Modulus (GPa) = 73.41180 73.41388 73.41284
# Shear Modulus (GPa) = 43.06919 44.68277 43.87598
#
# Velocity S-wave (km/s) = 3.95321 4.02659 3.99007
# Velocity P-wave (km/s) = 6.89022 6.94669 6.91851
#
# Compressibility (1/GPa) = 0.01362179
#
# Stress axis : x y z
#
# Youngs Moduli (GPa) = 96.43526 96.43526 123.59548
#
# Poissons Ratio (x) = 0.39578 0.21630
# Poissons Ratio (y) = 0.39578 0.21630
# Poissons Ratio (z) = 0.16877 0.16877
#
# Static dielectric constant tensor:
#      x y z
#    x 5.011500 0.000000 0.000000 
#    y 0.000000 5.011500 0.000000 
#    z 0.000000 0.000000 5.462090 
# 
# 
# High freq. dielectric constant tensor:
#      x y z
#    x 2.105970 0.000000 0.000000 
#    y 0.000000 2.105970 0.000000 
#    z 0.000000 0.000000 2.144180 
# 
# From -- ./inp_files/2915.got.cif
#   From: 2010.03.12/outbox.cif.g09.slc.cpg/sg97_2_cif.got.tgz:2915.got - 2010.04.08 20:59:42.
