data_PCOD8306207
_publ_section_title
;
Structure prediction by ZEFSAII (Michael W. Deem and Ramdas Pophale) SiO2 
 PCOD8306207
Probable space group: I 41 2 2
;
_chemical_formula_sum "Si O2"
_cell_formula_units_Z 96
_cell_length_a 23.342038
_cell_length_b 23.342038
_cell_length_c 10.414368
_cell_angle_alpha 90.000000
_cell_angle_beta 90.000000
_cell_angle_gamma 90.000000
_cell_volume 5674.276091
_symmetry_space_group_name_H-M "I 41 2 2"
_symmetry_group_IT_number 98
_symmetry_cell_setting 'tetragonal'
loop_
_space_group_symop_operation_xyz
x,y,z
-y,1/2+x,1/4+z
-x,-y,z
y,1/2-x,1/4+z
x,1/2-y,1/4-z
-x,1/2+y,1/4-z
y,x,-z
-y,-x,-z
1/2+x,1/2+y,1/2+z
1/2-y,x,3/4+z
1/2-x,1/2-y,1/2+z
1/2+y,-x,3/4+z
1/2+x,-y,3/4-z
1/2-x,y,3/4-z
1/2+y,1/2+x,1/2-z
1/2-y,1/2-x,1/2-z
loop_
_atom_site_type_symbol
_atom_site_label
_atom_site_fract_x
_atom_site_fract_y
_atom_site_fract_z
Si Si1 0.278164 0.368023 0.747430
Si Si2 0.285254 0.998178 0.995202
Si Si3 0.904779 0.998546 0.147067
Si Si4 0.632973 0.717380 0.747177
Si Si5 0.998368 0.907913 0.148082
Si Si6 0.002496 0.720733 0.494747
O O1 0.250000 0.342331 0.875000
O O2 0.344551 0.348158 0.742238
O O3 0.246008 0.342061 0.625071
O O4 0.272959 0.435298 0.746427
O O5 0.279286 0.065608 0.995022
O O6 0.257503 0.971961 0.125286
O O7 0.250000 0.971805 0.875000
O O8 0.353235 0.986374 0.986197
O O9 0.847886 0.013346 0.230541
O O10 0.940629 0.942002 0.192963
O O11 0.946684 0.052048 0.159713
O O12 0.886677 0.989500 0.998606
O O13 0.658713 0.750000 0.625000
O O14 0.028206 0.750000 0.625000
#
# Coordination Sequence:
#
# PCOD8306207 Si02
#       6
#    16  16  16  16  16  16
#     4  10  20  31  41  55  80 117 154 192 234 276
#     4  10  18  31  48  70  94 122 162 200 237 297
#     4   9  17  31  51  77 102 130 165 212 261 298
#     4  10  20  29  41  59  79 111 154 198 237 268
#     4   9  17  30  53  77 100 128 169 216 253 296
#     4  10  20  33  48  68  99 130 158 197 250 303
#
# _framework density 16.918457
#
# number of rings (size 3 to 8) (size 9 to 14) (size 15 to 20)
#    0.000    2.333    1.667    3.000    0.000    2.000 
#    0.000    3.333    0.000    2.000    0.000    0.000 
#    0.000    4.000    0.000    0.000    0.000    0.000 
#
# Total GULP energy -594657.444801 kJ/mol
# GULP energy per Si atom -12388.696767 kJ/mol
# Density = 1.687995 g / cm^3
# Si number density = 16.918457 Si / 1000 Ang^3
#
#
#
# Elastic Constant Matrix: (Units=GPa)
#
#
# Indices 1 2 3 4 5 6 
#
# 1 69.6142 8.2291 30.7902 0.0000 0.0000 0.0000
# 2 8.2291 69.6142 30.7902 0.0000 0.0000 0.0000
# 3 30.7902 30.7902 118.3686 0.0000 0.0000 0.0000
# 4 0.0000 0.0000 0.0000 281.9943 0.0000 0.0000
# 5 0.0000 0.0000 0.0000 0.0000 281.9943 0.0000
# 6 0.0000 0.0000 0.0000 0.0000 0.0000 20.3151
#
#
#
# Elastic Compliance Matrix: (Units=1/GPa)
#
#
# Indices 1 2 3 4 5 6 
#
# 1 0.016233 -0.000058 -0.004207 0.000000 0.000000 0.000000
# 2 -0.000058 0.016233 -0.004207 0.000000 0.000000 0.000000
# 3 -0.004207 -0.004207 0.010637 0.000000 0.000000 0.000000
# 4 0.000000 0.000000 0.000000 0.003546 0.000000 0.000000
# 5 0.000000 0.000000 0.000000 0.000000 0.003546 0.000000
# 6 0.000000 0.000000 0.000000 0.000000 0.000000 0.049224
#
#
# Mechanical properties :
#
#
# Convention : Reuss Voigt Hill
#
# Bulk Modulus (GPa) = 38.23082 44.13510 41.18296
# Shear Modulus (GPa) = 39.97332 129.37992 84.67662
#
# Velocity S-wave (km/s) = 4.86604 8.75435 7.08227
# Velocity P-wave (km/s) = 7.36324 11.32822 9.55368
#
# Compressibility (1/GPa) = 0.02615691
#
# Stress axis : x y z
#
# Youngs Moduli (GPa) = 61.60425 61.60425 94.01105
#
# Poissons Ratio (x) = 0.00357 0.39554
# Poissons Ratio (y) = 0.00357 0.39554
# Poissons Ratio (z) = 0.25919 0.25919
#
# Static dielectric constant tensor:
#      x y z
#    x 2.927280 0.000000 0.000000 
#    y 0.000000 2.927280 0.000000 
#    z 0.000000 0.000000 3.712660 
# 
# 
# High freq. dielectric constant tensor:
#      x y z
#    x 1.626210 0.000000 0.000000 
#    y 0.000000 1.626210 0.000000 
#    z 0.000000 0.000000 1.651290 
# 
# From -- ./inp_files/3736.got.cif
#   From: 2010.03.12/outbox.cif.g09.slc.cpg/sg98_2_cif.got.tgz:3736.got - 2010.04.08 21:04:41.
