data_PCOD8306368
_publ_section_title
;
Structure prediction by ZEFSAII (Michael W. Deem and Ramdas Pophale) SiO2 
 PCOD8306368
Probable space group: I 41 2 2
;
_chemical_formula_sum "Si O2"
_cell_formula_units_Z 64
_cell_length_a 13.402754
_cell_length_b 13.402754
_cell_length_c 19.659191
_cell_angle_alpha 90.000000
_cell_angle_beta 90.000000
_cell_angle_gamma 90.000000
_cell_volume 3531.455475
_symmetry_space_group_name_H-M "I 41 2 2"
_symmetry_group_IT_number 98
_symmetry_cell_setting 'tetragonal'
loop_
_space_group_symop_operation_xyz
x,y,z
-y,1/2+x,1/4+z
-x,-y,z
y,1/2-x,1/4+z
x,1/2-y,1/4-z
-x,1/2+y,1/4-z
y,x,-z
-y,-x,-z
1/2+x,1/2+y,1/2+z
1/2-y,x,3/4+z
1/2-x,1/2-y,1/2+z
1/2+y,-x,3/4+z
1/2+x,-y,3/4-z
1/2-x,y,3/4-z
1/2+y,1/2+x,1/2-z
1/2-y,1/2-x,1/2-z
loop_
_atom_site_type_symbol
_atom_site_label
_atom_site_fract_x
_atom_site_fract_y
_atom_site_fract_z
Si Si1 0.982890 0.826222 0.489279
Si Si2 0.775809 0.165766 0.301771
Si Si3 0.382788 0.511734 0.157682
Si Si4 0.811318 0.801239 0.700003
O O1 0.936961 0.936961 0.500000
O O2 0.022214 0.820486 0.412208
O O3 0.899763 0.745245 0.505439
O O4 0.074590 0.802320 0.539369
O O5 0.750000 0.208827 0.375000
O O6 0.756003 0.256003 0.250000
O O7 0.890810 0.132782 0.295609
O O8 0.500000 0.500000 0.143898
O O9 0.334890 0.417526 0.195625
O O10 0.802484 0.750000 0.625000
O O11 0.715230 0.784771 0.750000
#
# Coordination Sequence:
#
# PCOD8306368 Si02
#       4
#    16  16  16  16
#     4  11  21  35  61  92 126 154 193 249 314 364
#     4  12  24  38  58  89 131 166 196 248 312 368
#     4  12  23  37  63  94 126 160 205 251 311 371
#     4  11  21  39  62  91 124 159 200 255 310 357
#
# _framework density 18.12284
#
# number of rings (size 3 to 8) (size 9 to 14) (size 15 to 20)
#    0.000    0.500   10.000    2.250    0.000    0.000 
#    0.000    1.250    0.000    0.750    0.000    0.000 
#    0.000    0.000    0.000    0.000    0.000    0.000 
#
# Total GULP energy -396582.880127 kJ/mol
# GULP energy per Si atom -12393.215004 kJ/mol
# Density = 1.808159 g / cm^3
# Si number density = 18.122840 Si / 1000 Ang^3
#
#
#
# Elastic Constant Matrix: (Units=GPa)
#
#
# Indices 1 2 3 4 5 6 
#
# 1 77.5021 68.7287 58.9769 0.0000 0.0000 0.0000
# 2 68.7287 77.5010 58.9771 0.0000 0.0000 0.0000
# 3 58.9769 58.9771 115.0580 0.0000 0.0000 0.0000
# 4 0.0000 0.0000 0.0000 33.1039 0.0000 0.0000
# 5 0.0000 0.0000 0.0000 0.0000 33.1040 0.0000
# 6 0.0000 0.0000 0.0000 0.0000 0.0000 28.4290
#
#
#
# Elastic Compliance Matrix: (Units=1/GPa)
#
#
# Indices 1 2 3 4 5 6 
#
# 1 0.062823 -0.051164 -0.005976 0.000000 0.000000 0.000000
# 2 -0.051164 0.062825 -0.005977 0.000000 0.000000 0.000000
# 3 -0.005976 -0.005977 0.014818 0.000000 0.000000 0.000000
# 4 0.000000 0.000000 0.000000 0.030208 0.000000 0.000000
# 5 0.000000 0.000000 0.000000 0.000000 0.030208 0.000000
# 6 0.000000 0.000000 0.000000 0.000000 0.000000 0.035175
#
#
# Mechanical properties :
#
#
# Convention : Reuss Voigt Hill
#
# Bulk Modulus (GPa) = 70.26853 71.49185 70.88019
# Shear Modulus (GPa) = 13.62269 24.48594 19.05432
#
# Velocity S-wave (km/s) = 2.74466 3.67973 3.24604
# Velocity P-wave (km/s) = 6.99299 7.58868 7.29691
#
# Compressibility (1/GPa) = 0.01423112
#
# Stress axis : x y z
#
# Youngs Moduli (GPa) = 15.91778 15.91733 67.48529
#
# Poissons Ratio (x) = 0.81440 0.40328
# Poissons Ratio (y) = 0.81442 0.40335
# Poissons Ratio (z) = 0.09512 0.09514
#
# Static dielectric constant tensor:
#      x y z
#    x 3.481590 0.000000 0.000000 
#    y 0.000000 3.481590 0.000000 
#    z 0.000000 0.000000 3.523310 
# 
# 
# High freq. dielectric constant tensor:
#      x y z
#    x 1.692370 0.000000 0.000000 
#    y 0.000000 1.692370 0.000000 
#    z 0.000000 0.000000 1.700640 
# 
# From -- ./inp_files/7387.got.cif
#   From: 2010.03.12/outbox.cif.g09.slc.cpg/sg98_4_cif.got.tgz:7387.got - 2010.04.08 21:04:41.
