data_PCOD8306397
_publ_section_title
;
Structure prediction by ZEFSAII (Michael W. Deem and Ramdas Pophale) SiO2 
 PCOD8306397
Probable space group: I 41 2 2
;
_chemical_formula_sum "Si O2"
_cell_formula_units_Z 52
_cell_length_a 16.716666
_cell_length_b 16.716666
_cell_length_c 8.252250
_cell_angle_alpha 90.000000
_cell_angle_beta 90.000000
_cell_angle_gamma 90.000000
_cell_volume 2306.065863
_symmetry_space_group_name_H-M "I 41 2 2"
_symmetry_group_IT_number 98
_symmetry_cell_setting 'tetragonal'
loop_
_space_group_symop_operation_xyz
x,y,z
-y,1/2+x,1/4+z
-x,-y,z
y,1/2-x,1/4+z
x,1/2-y,1/4-z
-x,1/2+y,1/4-z
y,x,-z
-y,-x,-z
1/2+x,1/2+y,1/2+z
1/2-y,x,3/4+z
1/2-x,1/2-y,1/2+z
1/2+y,-x,3/4+z
1/2+x,-y,3/4-z
1/2-x,y,3/4-z
1/2+y,1/2+x,1/2-z
1/2-y,1/2-x,1/2-z
loop_
_atom_site_type_symbol
_atom_site_label
_atom_site_fract_x
_atom_site_fract_y
_atom_site_fract_z
Si Si1 0.490806 0.854430 0.999450
Si Si2 0.500000 0.500000 0.500000
Si Si3 0.387011 0.112989 0.250000
Si Si4 0.750000 0.148529 0.375000
Si Si5 0.608568 0.759943 0.794692
O O1 0.549304 0.786345 0.934531
O O2 0.494513 0.923586 0.865400
O O3 0.523803 0.882300 0.174785
O O4 0.403972 0.815701 0.026934
O O5 0.327770 0.135653 0.102337
O O6 0.795690 0.204311 0.500000
O O7 0.560423 0.750000 0.625000
O O8 0.684676 0.815325 0.750000
#
# Coordination Sequence:
#
# PCOD8306397 Si02
#       5
#    16   4   8   8  16
#     4  12  27  49  75 114 150 199 257 322 395 461
#     4  12  28  46  82 116 152 200 256 334 390 466
#     4  12  24  43  71 112 158 199 246 309 392 472
#     4  12  32  56  80 108 148 214 270 328 380 462
#     4  12  24  39  68 111 160 203 243 306 377 473
#
# _framework density 22.549225
#
# number of rings (size 3 to 8) (size 9 to 14) (size 15 to 20)
#    0.000    0.000    7.692    0.000    8.615    2.462 
#    0.000    0.000    0.000    0.000    0.000    0.000 
#    0.000    0.000    0.000    0.000    0.000    0.000 
#
# Total GULP energy -322290.525142 kJ/mol
# GULP energy per Si atom -12395.789429 kJ/mol
# Density = 2.249790 g / cm^3
# Si number density = 22.549225 Si / 1000 Ang^3
#
#
#
# Elastic Constant Matrix: (Units=GPa)
#
#
# Indices 1 2 3 4 5 6 
#
# 1 115.5354 74.7702 63.8261 0.0000 0.0000 0.0000
# 2 74.7702 115.5328 63.8275 0.0000 0.0000 0.0000
# 3 63.8261 63.8275 153.1745 0.0000 0.0000 0.0000
# 4 0.0000 0.0000 0.0000 41.0295 0.0000 0.0000
# 5 0.0000 0.0000 0.0000 0.0000 41.0301 0.0000
# 6 0.0000 0.0000 0.0000 0.0000 0.0000 32.9252
#
#
#
# Elastic Compliance Matrix: (Units=1/GPa)
#
#
# Indices 1 2 3 4 5 6 
#
# 1 0.015912 -0.008619 -0.003039 0.000000 0.000000 0.000000
# 2 -0.008619 0.015913 -0.003039 0.000000 0.000000 0.000000
# 3 -0.003039 -0.003039 0.009061 0.000000 0.000000 0.000000
# 4 0.000000 0.000000 0.000000 0.024373 0.000000 0.000000
# 5 0.000000 0.000000 0.000000 0.000000 0.024372 0.000000
# 6 0.000000 0.000000 0.000000 0.000000 0.000000 0.030372
#
#
# Mechanical properties :
#
#
# Convention : Reuss Voigt Hill
#
# Bulk Modulus (GPa) = 87.02042 87.67668 87.34855
# Shear Modulus (GPa) = 32.63111 35.11821 33.87466
#
# Velocity S-wave (km/s) = 3.80821 3.95067 3.88010
# Velocity P-wave (km/s) = 7.61654 7.73157 7.67427
#
# Compressibility (1/GPa) = 0.01149156
#
# Stress axis : x y z
#
# Youngs Moduli (GPa) = 62.84540 62.84270 110.36035
#
# Poissons Ratio (x) = 0.54165 0.33536
# Poissons Ratio (y) = 0.54167 0.33542
# Poissons Ratio (z) = 0.19098 0.19100
#
# Static dielectric constant tensor:
#      x y z
#    x 4.057970 0.000000 0.000000 
#    y 0.000000 4.057980 0.000000 
#    z 0.000000 0.000000 4.476970 
# 
# 
# High freq. dielectric constant tensor:
#      x y z
#    x 1.882640 0.000000 0.000000 
#    y 0.000000 1.882640 0.000000 
#    z 0.000000 0.000000 1.919150 
# 
# From -- ./inp_files/2912.got.cif
#   From: 2010.03.12/outbox.cif.g09.slc.cpg/sg98_2_cif.got.tgz:2912.got - 2010.04.08 21:04:41.
