data_PCOD8306196
_publ_section_title
;
Structure prediction by ZEFSAII (Michael W. Deem and Ramdas Pophale) SiO2 
 PCOD8306196
Probable space group: I 41 2 2
;
_chemical_formula_sum "Si O2"
_cell_formula_units_Z 104
_cell_length_a 21.418583
_cell_length_b 21.418583
_cell_length_c 13.828056
_cell_angle_alpha 90.000000
_cell_angle_beta 90.000000
_cell_angle_gamma 90.000000
_cell_volume 6343.699479
_symmetry_space_group_name_H-M "I 41 2 2"
_symmetry_group_IT_number 98
_symmetry_cell_setting 'tetragonal'
loop_
_space_group_symop_operation_xyz
x,y,z
-y,1/2+x,1/4+z
-x,-y,z
y,1/2-x,1/4+z
x,1/2-y,1/4-z
-x,1/2+y,1/4-z
y,x,-z
-y,-x,-z
1/2+x,1/2+y,1/2+z
1/2-y,x,3/4+z
1/2-x,1/2-y,1/2+z
1/2+y,-x,3/4+z
1/2+x,-y,3/4-z
1/2-x,y,3/4-z
1/2+y,1/2+x,1/2-z
1/2-y,1/2-x,1/2-z
loop_
_atom_site_type_symbol
_atom_site_label
_atom_site_fract_x
_atom_site_fract_y
_atom_site_fract_z
Si Si1 0.936459 0.474881 0.856351
Si Si2 0.139737 0.224556 0.327240
Si Si3 0.750000 0.810545 0.875000
Si Si4 0.540738 0.754511 0.967753
Si Si5 0.420358 0.158564 0.121393
Si Si6 0.398931 0.735134 0.972163
Si Si7 0.653806 0.370447 0.848097
O O1 0.947714 0.447714 0.750000
O O2 0.899177 0.539014 0.844059
O O3 0.904319 0.418366 0.918719
O O4 0.000000 0.500000 0.906720
O O5 0.143410 0.242530 0.215012
O O6 0.192467 0.263451 0.381790
O O7 0.074132 0.251044 0.364562
O O8 0.143225 0.151610 0.351888
O O9 0.469468 0.744137 0.940721
O O10 0.548004 0.820945 0.020104
O O11 0.574701 0.707801 0.042028
O O12 0.364365 0.700052 0.882572
O O13 0.366297 0.801501 0.002449
O O14 0.402797 0.691685 0.065779
#
# Coordination Sequence:
#
# PCOD8306196 Si02
#       7
#    16  16   8  16  16  16  16
#     4  11  21  29  41  68 113 148 162 203 250 318
#     4  11  22  32  50  66  97 145 187 236 270 303
#     4  10  22  40  44  68 100 136 204 244 274 288
#     4  11  19  31  48  72 100 142 176 216 262 320
#     4  11  20  31  44  73 107 139 180 207 263 331
#     4  10  18  30  49  69 105 134 165 207 249 330
#     4  10  17  32  45  70 102 141 167 198 254 308
#
# _framework density 16.394220000000001
#
# number of rings (size 3 to 8) (size 9 to 14) (size 15 to 20)
#    0.000    1.385    6.154    2.308    8.615    0.000 
#    0.000    0.000    0.000    0.000    0.000    8.615 
#    0.000    4.923    0.000    0.000    0.000    0.000 
#
# Total GULP energy -644312.140716 kJ/mol
# GULP energy per Si atom -12390.618091 kJ/mol
# Density = 1.635691 g / cm^3
# Si number density = 16.394220 Si / 1000 Ang^3
#
#
#
# Elastic Constant Matrix: (Units=GPa)
#
#
# Indices 1 2 3 4 5 6 
#
# 1 99.5908 50.2449 42.2610 0.0000 0.0000 0.0000
# 2 50.2449 99.5908 42.2610 0.0000 0.0000 0.0000
# 3 42.2610 42.2610 55.6103 0.0000 0.0000 0.0000
# 4 0.0000 0.0000 0.0000 -18.9663 0.0000 0.0000
# 5 0.0000 0.0000 0.0000 0.0000 -18.9663 0.0000
# 6 0.0000 0.0000 0.0000 0.0000 0.0000 22.7761
#
#
#
# Elastic Compliance Matrix: (Units=1/GPa)
#
#
# Indices 1 2 3 4 5 6 
#
# 1 0.015973 -0.004292 -0.008878 0.000000 0.000000 0.000000
# 2 -0.004292 0.015973 -0.008878 0.000000 0.000000 0.000000
# 3 -0.008878 -0.008878 0.031475 0.000000 0.000000 0.000000
# 4 0.000000 0.000000 0.000000 -0.052725 0.000000 0.000000
# 5 0.000000 0.000000 0.000000 0.000000 -0.052725 0.000000
# 6 0.000000 0.000000 0.000000 0.000000 0.000000 0.043906
#
#
# Mechanical properties :
#
#
# Convention : Reuss Voigt Hill
#
# Bulk Modulus (GPa) = 51.73682 58.25840 54.99761
# Shear Modulus (GPa) = 95.39460 4.97039 50.18249
#
# Velocity S-wave (km/s) = 7.63638 1.74309 5.53862
# Velocity P-wave (km/s) = 10.45843 6.29796 8.63259
#
# Compressibility (1/GPa) = 0.01932859
#
# Stress axis : x y z
#
# Youngs Moduli (GPa) = 62.60384 62.60384 31.77094
#
# Poissons Ratio (x) = 0.26867 0.28205
# Poissons Ratio (y) = 0.26867 0.28205
# Poissons Ratio (z) = 0.55577 0.55577
#
# Static dielectric constant tensor:
#      x y z
#    x 3.252060 0.000000 0.000000 
#    y 0.000000 3.252060 0.000000 
#    z 0.000000 0.000000 2.867920 
# 
# 
# High freq. dielectric constant tensor:
#      x y z
#    x 1.632860 0.000000 0.000000 
#    y 0.000000 1.632860 0.000000 
#    z 0.000000 0.000000 1.580310 
# 
# From -- ./inp_files/6732.got.cif
#   From: 2010.03.12/outbox.cif.g09.slc.cpg/sg98_4_cif.got.tgz:6732.got - 2010.04.08 21:04:41.
