data_PCOD8306303
_publ_section_title
;
Structure prediction by ZEFSAII (Michael W. Deem and Ramdas Pophale) SiO2 
 PCOD8306303
Probable space group: I 41 2 2
;
_chemical_formula_sum "Si O2"
_cell_formula_units_Z 48
_cell_length_a 8.097158
_cell_length_b 8.097158
_cell_length_c 32.925152
_cell_angle_alpha 90.000000
_cell_angle_beta 90.000000
_cell_angle_gamma 90.000000
_cell_volume 2158.703601
_symmetry_space_group_name_H-M "I 41 2 2"
_symmetry_group_IT_number 98
_symmetry_cell_setting 'tetragonal'
loop_
_space_group_symop_operation_xyz
x,y,z
-y,1/2+x,1/4+z
-x,-y,z
y,1/2-x,1/4+z
x,1/2-y,1/4-z
-x,1/2+y,1/4-z
y,x,-z
-y,-x,-z
1/2+x,1/2+y,1/2+z
1/2-y,x,3/4+z
1/2-x,1/2-y,1/2+z
1/2+y,-x,3/4+z
1/2+x,-y,3/4-z
1/2-x,y,3/4-z
1/2+y,1/2+x,1/2-z
1/2-y,1/2-x,1/2-z
loop_
_atom_site_type_symbol
_atom_site_label
_atom_site_fract_x
_atom_site_fract_y
_atom_site_fract_z
Si Si1 0.969454 0.810435 0.080021
Si Si2 0.817647 0.312144 0.829614
Si Si3 0.851847 0.673492 0.703463
O O1 0.927707 0.750000 0.125000
O O2 0.133762 0.727784 0.059917
O O3 0.809585 0.785590 0.051592
O O4 0.000000 0.000000 0.083313
O O5 0.750000 0.302339 0.875000
O O6 0.735782 0.475613 0.809086
O O7 0.014735 0.328763 0.825681
O O8 0.876356 0.623645 0.750000
#
# Coordination Sequence:
#
# PCOD8306303 Si02
#       3
#    16  16  16
#     4  11  23  42  68  98 131 175 234 277 331 407
#     4  10  21  41  71  95 127 176 230 277 328 404
#     4  11  24  45  66  98 142 176 220 285 353 406
#
# _framework density 22.235569999999999
#
# number of rings (size 3 to 8) (size 9 to 14) (size 15 to 20)
#    0.000    1.333    0.000    8.000    0.000    7.333 
#   18.000    0.000    0.000    0.000    0.000    0.000 
#    0.000    0.000    0.000    0.000    0.000    0.000 
#
# Total GULP energy -297419.793887 kJ/mol
# GULP energy per Si atom -12392.491412 kJ/mol
# Density = 2.218496 g / cm^3
# Si number density = 22.235570 Si / 1000 Ang^3
#
#
#
# Elastic Constant Matrix: (Units=GPa)
#
#
# Indices 1 2 3 4 5 6 
#
# 1 141.0060 14.0090 26.0023 0.0000 0.0000 0.0000
# 2 14.0090 141.0060 26.0022 0.0000 0.0000 0.0000
# 3 26.0023 26.0022 81.0124 0.0000 0.0000 0.0000
# 4 0.0000 0.0000 0.0000 10.7941 0.0000 0.0000
# 5 0.0000 0.0000 0.0000 0.0000 10.7942 0.0000
# 6 0.0000 0.0000 0.0000 0.0000 0.0000 33.9589
#
#
#
# Elastic Compliance Matrix: (Units=1/GPa)
#
#
# Indices 1 2 3 4 5 6 
#
# 1 0.007552 -0.000322 -0.002320 0.000000 0.000000 0.000000
# 2 -0.000322 0.007552 -0.002320 0.000000 0.000000 0.000000
# 3 -0.002320 -0.002320 0.013833 0.000000 0.000000 0.000000
# 4 0.000000 0.000000 0.000000 0.092643 0.000000 0.000000
# 5 0.000000 0.000000 0.000000 0.000000 0.092642 0.000000
# 6 0.000000 0.000000 0.000000 0.000000 0.000000 0.029447
#
#
# Mechanical properties :
#
#
# Convention : Reuss Voigt Hill
#
# Bulk Modulus (GPa) = 52.60229 55.00573 53.80401
# Shear Modulus (GPa) = 19.23571 30.91017 25.07294
#
# Velocity S-wave (km/s) = 2.94443 3.73248 3.36163
# Velocity P-wave (km/s) = 5.93866 6.58533 6.27034
#
# Compressibility (1/GPa) = 0.01901058
#
# Stress axis : x y z
#
# Youngs Moduli (GPa) = 132.41835 132.41843 72.28917
#
# Poissons Ratio (x) = 0.04269 0.16774
# Poissons Ratio (y) = 0.04269 0.16774
# Poissons Ratio (z) = 0.30726 0.30726
#
# Static dielectric constant tensor:
#      x y z
#    x 4.611140 0.000000 0.000000 
#    y 0.000000 4.611200 0.000000 
#    z 0.000000 0.000000 3.180500 
# 
# 
# High freq. dielectric constant tensor:
#      x y z
#    x 1.888390 0.000000 0.000000 
#    y 0.000000 1.888390 0.000000 
#    z 0.000000 0.000000 1.848870 
# 
# From -- ./inp_files/11259.got.cif
#   From: 2010.03.12/outbox.cif.g09.slc.cpg/sg98_6_cif.got.tgz:11259.got - 2010.04.08 21:04:41.
