data_PCOD8306059
_publ_section_title
;
Structure prediction by ZEFSAII (Michael W. Deem and Ramdas Pophale) SiO2 
 PCOD8306059
Probable space group: I 4 2 2 
;
_chemical_formula_sum "Si O2"
_cell_formula_units_Z 96
_cell_length_a 19.382597
_cell_length_b 19.382597
_cell_length_c 14.758132
_cell_angle_alpha 90.000000
_cell_angle_beta 90.000000
_cell_angle_gamma 90.000000
_cell_volume 5544.409801
_symmetry_space_group_name_H-M "I 4 2 2 "
_symmetry_group_IT_number 97
_symmetry_cell_setting 'tetragonal'
loop_
_space_group_symop_operation_xyz
x,y,z
-y,x,z
-x,-y,z
y,-x,z
x,-y,-z
-x,y,-z
y,x,-z
-y,-x,-z
1/2+x,1/2+y,1/2+z
1/2-y,1/2+x,1/2+z
1/2-x,1/2-y,1/2+z
1/2+y,1/2-x,1/2+z
1/2+x,1/2-y,1/2-z
1/2-x,1/2+y,1/2-z
1/2+y,1/2+x,1/2-z
1/2-y,1/2-x,1/2-z
loop_
_atom_site_type_symbol
_atom_site_label
_atom_site_fract_x
_atom_site_fract_y
_atom_site_fract_z
Si Si1 0.989261 0.294220 0.718456
Si Si2 0.426142 0.969892 0.404712
Si Si3 0.205287 0.688014 0.512445
Si Si4 0.276859 0.856816 0.677094
Si Si5 0.341464 0.749400 0.186384
Si Si6 0.312631 0.045884 0.918903
O O1 0.978834 0.369825 0.674386
O O2 0.923739 0.243037 0.703468
O O3 0.994514 0.299845 0.826344
O O4 0.060945 0.262958 0.681371
O O5 0.435356 0.891523 0.428824
O O6 0.500000 0.000000 0.372797
O O7 0.399241 0.000000 0.500000
O O8 0.280327 0.719674 0.500000
O O9 0.162996 0.687962 0.418575
O O10 0.160532 0.733684 0.580653
O O11 0.225723 0.617685 0.563446
O O12 0.334066 0.834066 0.750000
O O13 0.203190 0.820518 0.699788
O O14 0.310300 0.810300 0.250000
O O15 0.285457 0.000000 0.000000
#
# Coordination Sequence:
#
# PCOD8306059 Si02
#       6
#    16  16  16  16  16  16
#     4  12  23  35  58  78 106 149 185 226 277 330
#     4  11  22  35  49  74 115 149 178 215 260 323
#     4  10  20  37  57  76 107 150 187 228 270 320
#     4  10  23  36  55  83 111 141 188 238 269 323
#     4  10  19  39  57  77 108 148 188 228 278 329
#     4  12  22  36  50  79 111 146 183 219 264 323
#
# _framework density 17.314737000000001
#
# number of rings (size 3 to 8) (size 9 to 14) (size 15 to 20)
#    0.000    1.167    5.000    2.500    2.333    0.667 
#    0.000    0.000    0.000    0.500    0.000    0.000 
#    0.000    4.333    0.000    0.000    0.000    0.000 
#
# Total GULP energy -594782.734777 kJ/mol
# GULP energy per Si atom -12391.306975 kJ/mol
# Density = 1.727533 g / cm^3
# Si number density = 17.314737 Si / 1000 Ang^3
#
#
#
# Elastic Constant Matrix: (Units=GPa)
#
#
# Indices 1 2 3 4 5 6 
#
# 1 70.7180 34.3895 9.4421 0.0000 0.0000 0.0000
# 2 34.3895 70.7220 9.4465 0.0000 0.0000 0.0000
# 3 9.4421 9.4465 94.9500 0.0000 0.0000 0.0000
# 4 0.0000 0.0000 0.0000 28.1939 0.0000 0.0000
# 5 0.0000 0.0000 0.0000 0.0000 28.1926 0.0000
# 6 0.0000 0.0000 0.0000 0.0000 0.0000 12.8665
#
#
#
# Elastic Compliance Matrix: (Units=1/GPa)
#
#
# Indices 1 2 3 4 5 6 
#
# 1 0.018606 -0.008919 -0.000963 0.000000 0.000000 0.000000
# 2 -0.008919 0.018606 -0.000964 0.000000 0.000000 0.000000
# 3 -0.000963 -0.000964 0.010724 0.000000 0.000000 0.000000
# 4 0.000000 0.000000 0.000000 0.035469 0.000000 0.000000
# 5 0.000000 0.000000 0.000000 0.000000 0.035470 0.000000
# 6 0.000000 0.000000 0.000000 0.000000 0.000000 0.077721
#
#
# Mechanical properties :
#
#
# Convention : Reuss Voigt Hill
#
# Bulk Modulus (GPa) = 38.10470 38.10514 38.10492
# Shear Modulus (GPa) = 22.02294 26.05805 24.04050
#
# Velocity S-wave (km/s) = 3.57027 3.88359 3.73022
# Velocity P-wave (km/s) = 6.24905 6.49345 6.37242
#
# Compressibility (1/GPa) = 0.02624348
#
# Stress axis : x y z
#
# Youngs Moduli (GPa) = 53.74470 53.74711 93.25282
#
# Poissons Ratio (x) = 0.47937 0.08980
# Poissons Ratio (y) = 0.47935 0.08991
# Poissons Ratio (z) = 0.05175 0.05182
#
# Static dielectric constant tensor:
#      x y z
#    x 3.193650 0.000000 0.000000 
#    y 0.000000 3.193560 0.000000 
#    z 0.000000 0.000000 3.494640 
# 
# 
# High freq. dielectric constant tensor:
#      x y z
#    x 1.646430 0.000000 0.000000 
#    y 0.000000 1.646430 0.000000 
#    z 0.000000 0.000000 1.697060 
# 
# From -- ./inp_files/4987.got.cif
#   From: 2010.03.12/outbox.cif.g09.slc.cpg/sg97_3_cif.got.tgz:4987.got - 2010.04.08 20:59:42.
