data_PCOD8306451
_publ_section_title
;
Structure prediction by ZEFSAII (Michael W. Deem and Ramdas Pophale) SiO2 
 PCOD8306451
Probable space group: P 4 M M
;
_chemical_formula_sum "Si O2"
_cell_formula_units_Z 64
_cell_length_a 13.621467
_cell_length_b 13.621467
_cell_length_c 20.588992
_cell_angle_alpha 90.000000
_cell_angle_beta 90.000000
_cell_angle_gamma 90.000000
_cell_volume 3820.171410
_symmetry_space_group_name_H-M "P 4 M M"
_symmetry_group_IT_number 99
_symmetry_cell_setting 'tetragonal'
loop_
_space_group_symop_operation_xyz
x,y,z
-y,x,z
-x,-y,z
y,-x,z
-x,y,z
x,-y,z
-y,-x,z
y,x,z
loop_
_atom_site_type_symbol
_atom_site_label
_atom_site_fract_x
_atom_site_fract_y
_atom_site_fract_z
Si Si1 0.613986 0.773794 0.592910
Si Si2 0.615777 0.769143 0.202713
Si Si3 0.890344 0.616539 0.081116
Si Si4 0.115938 0.277859 0.701447
Si Si5 0.768691 0.611802 0.445884
Si Si6 0.891748 0.383351 0.326060
Si Si7 0.383752 0.109368 0.937932
Si Si8 0.383400 0.225679 0.813265
O O1 0.500000 0.757990 0.612089
O O2 0.670221 0.670221 0.604150
O O3 0.663705 0.858605 0.635621
O O4 0.624250 0.810606 0.518659
O O5 0.500000 0.756945 0.202028
O O6 0.660897 0.660897 0.206303
O O7 0.657254 0.820788 0.137654
O O8 0.653604 0.829824 0.264715
O O9 0.892483 0.500000 0.085562
O O10 0.000000 0.657433 0.092571
O O11 0.852905 0.649801 0.009449
O O12 0.174592 0.174592 0.704984
O O13 0.146563 0.348866 0.760367
O O14 0.000000 0.255861 0.704055
O O15 0.744185 0.500000 0.429626
O O16 0.666311 0.666311 0.437778
O O17 0.846344 0.654064 0.394089
O O18 0.897620 0.500000 0.325296
O O19 0.000000 0.337474 0.320508
O O20 0.500000 0.102100 0.935462
O O21 0.348277 0.184918 0.883158
O O22 0.340580 0.000000 0.925000
O O23 0.500000 0.242003 0.808374
O O24 0.330073 0.330073 0.801393
#
# Coordination Sequence:
#
# PCOD8306451 Si02
#       8
#     8   8   8   8   8   8   8   8
#     4   9  18  31  47  70  99 130 163 194 224 264
#     4  10  19  29  42  61  87 118 149 181 219 269
#     4   8  14  26  44  64  85 111 146 188 229 264
#     4  10  21  36  53  73  95 119 152 195 242 292
#     4   9  17  29  45  67  96 126 154 183 215 257
#     4   9  17  29  44  61  82 110 146 188 230 266
#     4   8  14  26  45  66  86 112 149 191 231 267
#     4  10  20  32  47  69  97 129 163 195 228 270
#
# _framework density 16.753174000000001
#
# number of rings (size 3 to 8) (size 9 to 14) (size 15 to 20)
#    0.000    2.875    0.000    2.250    0.000    4.625 
#    0.000    2.500    0.000    4.500    0.000    3.500 
#    0.000   11.750    0.000    9.250    0.000    0.750 
#
# Total GULP energy -793254.932321 kJ/mol
# GULP energy per Si atom -12394.608318 kJ/mol
# Density = 1.671504 g / cm^3
# Si number density = 16.753174 Si / 1000 Ang^3
#
#
#
# Elastic Constant Matrix: (Units=GPa)
#
#
# Indices 1 2 3 4 5 6 
#
# 1 81.5526 41.1360 48.0690 0.0000 0.0000 0.0000
# 2 41.1360 81.5526 48.0690 0.0000 0.0000 0.0000
# 3 48.0690 48.0690 128.7068 0.0000 0.0000 0.0000
# 4 0.0000 0.0000 0.0000 22.4605 0.0000 0.0000
# 5 0.0000 0.0000 0.0000 0.0000 22.4605 0.0000
# 6 0.0000 0.0000 0.0000 0.0000 0.0000 9.8258
#
#
#
# Elastic Compliance Matrix: (Units=1/GPa)
#
#
# Indices 1 2 3 4 5 6 
#
# 1 0.018133 -0.006610 -0.004304 0.000000 0.000000 0.000000
# 2 -0.006610 0.018133 -0.004304 0.000000 0.000000 0.000000
# 3 -0.004304 -0.004304 0.010984 0.000000 0.000000 0.000000
# 4 0.000000 0.000000 0.000000 0.044523 0.000000 0.000000
# 5 0.000000 0.000000 0.000000 0.000000 0.044523 0.000000
# 6 0.000000 0.000000 0.000000 0.000000 0.000000 0.101773
#
#
# Mechanical properties :
#
#
# Convention : Reuss Voigt Hill
#
# Bulk Modulus (GPa) = 59.46775 62.92890 61.19833
# Shear Modulus (GPa) = 18.24107 21.25188 19.74647
#
# Velocity S-wave (km/s) = 3.30330 3.56550 3.43690
# Velocity P-wave (km/s) = 7.07972 7.38880 7.23591
#
# Compressibility (1/GPa) = 0.01681584
#
# Stress axis : x y z
#
# Youngs Moduli (GPa) = 55.14918 55.14918 91.04027
#
# Poissons Ratio (x) = 0.36452 0.39180
# Poissons Ratio (y) = 0.36452 0.39180
# Poissons Ratio (z) = 0.23734 0.23734
#
# Static dielectric constant tensor:
#      x y z
#    x 2.932520 0.000000 0.000000 
#    y 0.000000 2.932520 0.000000 
#    z 0.000000 0.000000 3.574810 
# 
# 
# High freq. dielectric constant tensor:
#      x y z
#    x 1.617820 0.000000 0.000000 
#    y 0.000000 1.617820 0.000000 
#    z 0.000000 0.000000 1.669560 
# 
# From -- ./inp_files/2342.got.cif
#   From: 2010.03.12/outbox.cif.g09.slc.cpg/sg99_cif.got.tgz:2342.got - 2010.04.08 21:11:30.
