data_PCOD8306333
_publ_section_title
;
Structure prediction by ZEFSAII (Michael W. Deem and Ramdas Pophale) SiO2 
 PCOD8306333
Probable space group: I 41 2 2
;
_chemical_formula_sum "Si O2"
_cell_formula_units_Z 40
_cell_length_a 7.242881
_cell_length_b 7.242881
_cell_length_c 32.923447
_cell_angle_alpha 90.000000
_cell_angle_beta 90.000000
_cell_angle_gamma 90.000000
_cell_volume 1727.141812
_symmetry_space_group_name_H-M "I 41 2 2"
_symmetry_group_IT_number 98
_symmetry_cell_setting 'tetragonal'
loop_
_space_group_symop_operation_xyz
x,y,z
-y,1/2+x,1/4+z
-x,-y,z
y,1/2-x,1/4+z
x,1/2-y,1/4-z
-x,1/2+y,1/4-z
y,x,-z
-y,-x,-z
1/2+x,1/2+y,1/2+z
1/2-y,x,3/4+z
1/2-x,1/2-y,1/2+z
1/2+y,-x,3/4+z
1/2+x,-y,3/4-z
1/2-x,y,3/4-z
1/2+y,1/2+x,1/2-z
1/2-y,1/2-x,1/2-z
loop_
_atom_site_type_symbol
_atom_site_label
_atom_site_fract_x
_atom_site_fract_y
_atom_site_fract_z
Si Si1 0.211308 0.041844 0.114585
Si Si2 0.000000 0.500000 0.676361
Si Si3 0.648122 0.638364 0.218725
O O1 0.258632 0.250000 0.125000
O O2 0.334108 0.925948 0.146799
O O3 0.268858 0.013683 0.067871
O O4 0.000000 0.000000 0.122732
O O5 0.057180 0.330666 0.704875
O O6 0.500000 0.500000 0.239983
O O7 0.812292 0.687709 0.250000
#
# Coordination Sequence:
#
# PCOD8306333 Si02
#       3
#    16   8  16
#     4  10  23  40  71 102 128 173 236 288 341 413
#     4  10  23  48  70  96 134 184 238 294 342 410
#     4  11  25  46  68 100 145 190 229 293 366 426
#
# _framework density 23.159651
#
# number of rings (size 3 to 8) (size 9 to 14) (size 15 to 20)
#    0.000    1.600    2.000    0.600    5.600    7.200 
#    7.200    0.000    0.000    0.000    0.000    0.000 
#    0.000    0.000    0.000    0.000    0.000    0.000 
#
# Total GULP energy -247955.228606 kJ/mol
# GULP energy per Si atom -12397.761430 kJ/mol
# Density = 2.310694 g / cm^3
# Si number density = 23.159651 Si / 1000 Ang^3
#
#
#
# Elastic Constant Matrix: (Units=GPa)
#
#
# Indices 1 2 3 4 5 6 
#
# 1 88.9222 12.8430 25.9425 0.0000 0.0000 0.0000
# 2 12.8430 88.9228 25.9423 -0.0001 0.0000 0.0000
# 3 25.9425 25.9423 89.9996 -0.0001 0.0000 0.0000
# 4 0.0000 -0.0001 -0.0001 29.1929 0.0000 0.0000
# 5 0.0000 0.0000 0.0000 0.0000 29.1997 0.0000
# 6 0.0000 0.0000 0.0000 0.0000 0.0000 44.9868
#
#
#
# Elastic Compliance Matrix: (Units=1/GPa)
#
#
# Indices 1 2 3 4 5 6 
#
# 1 0.012332 -0.000812 -0.003321 0.000000 0.000000 0.000000
# 2 -0.000812 0.012332 -0.003320 0.000000 0.000000 0.000000
# 3 -0.003321 -0.003320 0.013025 0.000000 0.000000 0.000000
# 4 0.000000 0.000000 0.000000 0.034255 0.000000 0.000000
# 5 0.000000 0.000000 0.000000 0.000000 0.034247 0.000000
# 6 0.000000 0.000000 0.000000 0.000000 0.000000 0.022229
#
#
# Mechanical properties :
#
#
# Convention : Reuss Voigt Hill
#
# Bulk Modulus (GPa) = 43.89357 44.14448 44.01902
# Shear Modulus (GPa) = 33.13006 34.21701 33.67353
#
# Velocity S-wave (km/s) = 3.78631 3.84792 3.81724
# Velocity P-wave (km/s) = 6.17322 6.23252 6.20294
#
# Compressibility (1/GPa) = 0.02278238
#
# Stress axis : x y z
#
# Youngs Moduli (GPa) = 81.09087 81.09156 76.77300
#
# Poissons Ratio (x) = 0.06588 0.25493
# Poissons Ratio (y) = 0.06587 0.25492
# Poissons Ratio (z) = 0.26926 0.26926
#
# Static dielectric constant tensor:
#      x y z
#    x 3.548230 0.000000 0.000000 
#    y 0.000000 3.547980 0.000000 
#    z 0.000000 0.000000 4.359760 
# 
# 
# High freq. dielectric constant tensor:
#      x y z
#    x 1.912750 0.000000 0.000000 
#    y 0.000000 1.912750 0.000000 
#    z 0.000000 0.000000 1.913090 
# 
# From -- ./inp_files/11182.got.cif
#   From: 2010.03.12/outbox.cif.g09.slc.cpg/sg98_6_cif.got.tgz:11182.got - 2010.04.08 21:04:41.
