data_PCOD8306668
_publ_section_title
;
Structure prediction by ZEFSAII (Michael W. Deem and Ramdas Pophale) SiO2 
 PCOD8306668
Probable space group: P 4 B M
;
_chemical_formula_sum "Si O2"
_cell_formula_units_Z 48
_cell_length_a 13.545846
_cell_length_b 13.545846
_cell_length_c 13.276974
_cell_angle_alpha 90.000000
_cell_angle_beta 90.000000
_cell_angle_gamma 90.000000
_cell_volume 2436.191214
_symmetry_space_group_name_H-M "P 4 B M"
_symmetry_group_IT_number 100
_symmetry_cell_setting 'tetragonal'
loop_
_space_group_symop_operation_xyz
x,y,z
-y,x,z
-x,-y,z
y,-x,z
1/2-x,1/2+y,z
1/2+x,1/2-y,z
1/2-y,1/2-x,z
1/2+y,1/2+x,z
loop_
_atom_site_type_symbol
_atom_site_label
_atom_site_fract_x
_atom_site_fract_y
_atom_site_fract_z
Si Si1 0.502735 0.161502 0.649900
Si Si2 0.878560 0.776970 0.943223
Si Si3 0.422270 0.239135 0.448582
Si Si4 0.422271 0.239134 0.851218
Si Si5 0.374247 0.396508 0.149901
Si Si6 0.776969 0.121440 0.356577
O O1 0.428438 0.071563 0.649901
O O2 0.481010 0.230541 0.553897
O O3 0.481011 0.230541 0.745903
O O4 0.614491 0.114491 0.649899
O O5 0.829993 0.670008 0.933555
O O6 0.833018 0.848479 0.855811
O O7 0.994990 0.760193 0.934588
O O8 0.852028 0.822726 0.051267
O O9 0.361048 0.138953 0.424655
O O10 0.348479 0.333019 0.443988
O O11 0.505010 0.260192 0.365212
O O12 0.361049 0.138952 0.875145
O O13 0.486463 0.363107 0.149902
O O14 0.322723 0.352027 0.248532
O O15 0.670007 0.170007 0.366247
#
# Coordination Sequence:
#
# PCOD8306668 Si02
#       6
#     8   8   8   8   8   8
#     4   9  18  36  60  85 119 157 192 237 293 351
#     4  11  22  38  61  86 119 157 199 253 304 358
#     4  10  22  38  59  89 120 157 203 246 299 363
#     4  10  22  38  59  89 120 157 203 246 299 363
#     4  11  21  38  62  83 114 160 198 249 306 364
#     4  11  22  38  61  86 119 157 199 253 304 358
#
# _framework density 19.702887
#
# number of rings (size 3 to 8) (size 9 to 14) (size 15 to 20)
#    0.000    1.667    3.333    1.500    0.000    4.000 
#    0.000    4.167    0.000    4.000    0.000    0.000 
#    0.000    0.000    0.000    0.000    0.000    0.000 
#
# Total GULP energy -595013.824951 kJ/mol
# GULP energy per Si atom -12396.121353 kJ/mol
# Density = 1.965804 g / cm^3
# Si number density = 19.702887 Si / 1000 Ang^3
#
#
#
# Elastic Constant Matrix: (Units=GPa)
#
#
# Indices 1 2 3 4 5 6 
#
# 1 89.3423 43.3991 21.5651 0.0000 0.0000 0.0001
# 2 43.3991 89.3423 21.5651 0.0000 0.0000 -0.0001
# 3 21.5651 21.5651 87.3755 0.0000 0.0000 0.0000
# 4 0.0000 0.0000 0.0000 30.1513 0.0000 0.0000
# 5 0.0000 0.0000 0.0000 0.0000 30.1513 0.0000
# 6 0.0001 -0.0001 0.0000 0.0000 0.0000 22.2096
#
#
#
# Elastic Compliance Matrix: (Units=1/GPa)
#
#
# Indices 1 2 3 4 5 6 
#
# 1 0.014978 -0.006788 -0.002021 0.000000 0.000000 0.000000
# 2 -0.006788 0.014978 -0.002021 0.000000 0.000000 0.000000
# 3 -0.002021 -0.002021 0.012443 0.000000 0.000000 0.000000
# 4 0.000000 0.000000 0.000000 0.033166 0.000000 0.000000
# 5 0.000000 0.000000 0.000000 0.000000 0.033166 0.000000
# 6 0.000000 0.000000 0.000000 0.000000 0.000000 0.045026
#
#
# Mechanical properties :
#
#
# Convention : Reuss Voigt Hill
#
# Bulk Modulus (GPa) = 48.22195 48.79096 48.50645
# Shear Modulus (GPa) = 27.42272 28.47117 27.94694
#
# Velocity S-wave (km/s) = 3.73475 3.80547 3.77028
# Velocity P-wave (km/s) = 6.56700 6.64274 6.60498
#
# Compressibility (1/GPa) = 0.02073745
#
# Stress axis : x y z
#
# Youngs Moduli (GPa) = 66.76401 66.76401 80.36867
#
# Poissons Ratio (x) = 0.45319 0.16246
# Poissons Ratio (y) = 0.45319 0.16246
# Poissons Ratio (z) = 0.13496 0.13496
#
# Static dielectric constant tensor:
#      x y z
#    x 3.472310 0.000000 0.000000 
#    y 0.000000 3.472310 0.000000 
#    z 0.000000 0.000000 3.615040 
# 
# 
# High freq. dielectric constant tensor:
#      x y z
#    x 1.765990 0.000000 0.000000 
#    y 0.000000 1.765990 0.000000 
#    z 0.000000 0.000000 1.762240 
# 
# From -- ./inp_files/1262.got.cif
#   From: 2010.03.12/outbox.cif.g09.slc.cpg/sg100_cif.got.tgz:1262.got - 2010.04.14 01:37:57.
