data_PCOD8306893
_publ_section_title
;
Structure prediction by ZEFSAII (Michael W. Deem and Ramdas Pophale) SiO2 
 PCOD8306893
Probable space group: P 42 N M
;
_chemical_formula_sum "Si O2"
_cell_formula_units_Z 40
_cell_length_a 17.445432
_cell_length_b 17.445432
_cell_length_c 5.355880
_cell_angle_alpha 90.000000
_cell_angle_beta 90.000000
_cell_angle_gamma 90.000000
_cell_volume 1630.025110
_symmetry_space_group_name_H-M "P 42 N M"
_symmetry_group_IT_number 102
_symmetry_cell_setting 'tetragonal'
loop_
_space_group_symop_operation_xyz
x,y,z
1/2-y,1/2+x,1/2+z
-x,-y,z
1/2+y,1/2-x,1/2+z
1/2-x,1/2+y,1/2+z
1/2+x,1/2-y,1/2+z
-y,-x,z
y,x,z
loop_
_atom_site_type_symbol
_atom_site_label
_atom_site_fract_x
_atom_site_fract_y
_atom_site_fract_z
Si Si1 0.051779 0.694733 0.068270
Si Si2 0.745292 0.618232 0.078810
Si Si3 0.502541 0.625399 0.370690
Si Si4 0.549578 0.325776 0.872415
Si Si5 0.671180 0.892419 0.285413
O O1 0.069733 0.739784 0.327409
O O2 0.967598 0.657621 0.112646
O O3 0.063807 0.754734 0.833164
O O4 0.106425 0.621660 0.000315
O O5 0.668161 0.668161 0.065130
O O6 0.818759 0.674585 0.103465
O O7 0.427251 0.572750 0.347446
O O8 0.576481 0.576481 0.442823
O O9 0.487895 0.686050 0.596488
O O10 0.514048 0.663521 0.092724
O O11 0.596652 0.403349 0.863282
O O12 0.601859 0.252336 0.930847
#
# Coordination Sequence:
#
# PCOD8306893 Si02
#       5
#     8   8   8   8   8
#     4  10  25  41  73  97 142 177 240 295 354 428
#     4  10  23  44  72 101 140 184 229 291 362 429
#     4   9  18  33  52  82 122 162 209 265 322 385
#     4  10  20  33  60  89 122 170 221 268 328 410
#     4  10  25  44  68  98 138 178 236 287 355 422
#
# _framework density 24.539496
#
# number of rings (size 3 to 8) (size 9 to 14) (size 15 to 20)
#    1.200    1.000    0.000    1.800    5.600    2.400 
#    0.000    9.000    0.000    0.000    0.000    0.000 
#    0.000    0.000    0.000    0.000    0.000    0.000 
#
# Total GULP energy -495838.000656 kJ/mol
# GULP energy per Si atom -12395.950016 kJ/mol
# Density = 2.448364 g / cm^3
# Si number density = 24.539496 Si / 1000 Ang^3
#
#
#
# Elastic Constant Matrix: (Units=GPa)
#
#
# Indices 1 2 3 4 5 6 
#
# 1 124.1034 35.0242 89.0350 0.0000 0.0000 -0.0002
# 2 35.0242 124.1034 89.0350 0.0000 0.0000 0.0002
# 3 89.0350 89.0350 185.1459 0.0000 0.0000 0.0000
# 4 0.0000 0.0000 0.0000 55.4956 0.0000 0.0000
# 5 0.0000 0.0000 0.0000 0.0000 55.4956 0.0000
# 6 -0.0002 0.0002 0.0000 0.0000 0.0000 47.4253
#
#
#
# Elastic Compliance Matrix: (Units=1/GPa)
#
#
# Indices 1 2 3 4 5 6 
#
# 1 0.012416 0.001190 -0.006543 0.000000 0.000000 0.000000
# 2 0.001190 0.012416 -0.006543 0.000000 0.000000 0.000000
# 3 -0.006543 -0.006543 0.011694 0.000000 0.000000 0.000000
# 4 0.000000 0.000000 0.000000 0.018019 0.000000 0.000000
# 5 0.000000 0.000000 0.000000 0.000000 0.018019 0.000000
# 6 0.000000 0.000000 0.000000 0.000000 0.000000 0.021086
#
#
# Mechanical properties :
#
#
# Convention : Reuss Voigt Hill
#
# Bulk Modulus (GPa) = 78.52848 95.50456 87.01652
# Shear Modulus (GPa) = 41.08866 46.36721 43.72794
#
# Velocity S-wave (km/s) = 4.09637 4.35155 4.22588
# Velocity P-wave (km/s) = 7.37862 8.01568 7.70374
#
# Compressibility (1/GPa) = 0.01273423
#
# Stress axis : x y z
#
# Youngs Moduli (GPa) = 80.54046 80.54046 85.51244
#
# Poissons Ratio (x) = -0.09586 0.55952
# Poissons Ratio (y) = -0.09586 0.55952
# Poissons Ratio (z) = 0.52699 0.52699
#
# Static dielectric constant tensor:
#      x y z
#    x 4.427050 0.000000 0.000000 
#    y 0.000000 4.427050 0.000000 
#    z 0.000000 0.000000 4.675360 
# 
# 
# High freq. dielectric constant tensor:
#      x y z
#    x 1.997310 0.000000 0.000000 
#    y 0.000000 1.997310 0.000000 
#    z 0.000000 0.000000 1.996910 
# 
# From -- ./inp_files/244.got.cif
#   From: 2010.03.12/outbox.cif.g09.slc.cpg/sg102_1_cif.got.tgz:244.got - 2010.04.14 01:40:42.
