data_PCOD8306957
_publ_section_title
;
Structure prediction by ZEFSAII (Michael W. Deem and Ramdas Pophale) SiO2 
 PCOD8306957
Probable space group: P 42 N M
;
_chemical_formula_sum "Si O2"
_cell_formula_units_Z 48
_cell_length_a 14.770684
_cell_length_b 14.770684
_cell_length_c 14.770678
_cell_angle_alpha 90.000000
_cell_angle_beta 90.000000
_cell_angle_gamma 90.000000
_cell_volume 3222.564694
_symmetry_space_group_name_H-M "P 42 N M"
_symmetry_group_IT_number 102
_symmetry_cell_setting 'tetragonal'
loop_
_space_group_symop_operation_xyz
x,y,z
1/2-y,1/2+x,1/2+z
-x,-y,z
1/2+y,1/2-x,1/2+z
1/2-x,1/2+y,1/2+z
1/2+x,1/2-y,1/2+z
-y,-x,z
y,x,z
loop_
_atom_site_type_symbol
_atom_site_label
_atom_site_fract_x
_atom_site_fract_y
_atom_site_fract_z
Si Si1 0.249999 0.396375 0.188090
Si Si2 0.250000 0.396376 0.980842
Si Si3 0.396376 0.103623 0.834466
Si Si4 0.250000 0.103623 0.480842
Si Si5 0.396377 0.896376 0.834466
Si Si6 0.750000 0.396377 0.188090
O O1 0.335722 0.335722 0.215530
O O2 0.164276 0.368937 0.248742
O O3 0.279019 0.499999 0.204498
O O4 0.220981 0.379967 0.084466
O O5 0.335723 0.335723 0.953402
O O6 0.164276 0.368936 0.920189
O O7 0.279019 0.500000 0.964434
O O8 0.499999 0.120032 0.805448
O O9 0.335723 0.131062 0.748743
O O10 0.379968 1.000000 0.863485
O O11 0.164276 0.164276 0.453403
O O12 0.335723 0.131064 0.420189
O O13 0.279019 0.120031 0.584466
O O14 0.664276 0.335725 0.215529
#
# Coordination Sequence:
#
# PCOD8306957 Si02
#       6
#     8   8   8   8   8   8
#     4   9  17  28  42  60  81 105 132 162 196 233
#     4   9  17  28  42  60  81 105 132 162 196 233
#     4   9  17  28  42  60  81 105 132 162 196 233
#     4   9  17  28  42  60  81 105 132 162 196 233
#     4   9  17  28  42  60  81 105 132 162 196 233
#     4   9  17  28  42  60  81 105 132 162 196 233
#
# _framework density 14.894969
#
# number of rings (size 3 to 8) (size 9 to 14) (size 15 to 20)
#    0.000    3.000    0.000    1.000    0.000    2.000 
#    0.000   10.000    0.000    0.000    0.000    0.000 
#    0.000    0.000    0.000   62.000    0.000    2.000 
#
# Total GULP energy -595190.252758 kJ/mol
# GULP energy per Si atom -12399.796932 kJ/mol
# Density = 1.486107 g / cm^3
# Si number density = 14.894969 Si / 1000 Ang^3
#
#
#
# Elastic Constant Matrix: (Units=GPa)
#
#
# Indices 1 2 3 4 5 6 
#
# 1 89.6748 66.1185 66.1184 0.0000 0.0000 0.0001
# 2 66.1185 89.6748 66.1184 0.0000 0.0000 -0.0001
# 3 66.1184 66.1184 89.6745 0.0000 0.0000 0.0000
# 4 0.0000 0.0000 0.0000 25.9011 0.0000 0.0000
# 5 0.0000 0.0000 0.0000 0.0000 25.9011 0.0000
# 6 0.0001 -0.0001 0.0000 0.0000 0.0000 25.9010
#
#
#
# Elastic Compliance Matrix: (Units=1/GPa)
#
#
# Indices 1 2 3 4 5 6 
#
# 1 0.029803 -0.012648 -0.012648 0.000000 0.000000 0.000000
# 2 -0.012648 0.029803 -0.012648 0.000000 0.000000 0.000000
# 3 -0.012648 -0.012648 0.029803 0.000000 0.000000 0.000000
# 4 0.000000 0.000000 0.000000 0.038608 0.000000 0.000000
# 5 0.000000 0.000000 0.000000 0.000000 0.038608 0.000000
# 6 0.000000 0.000000 0.000000 0.000000 0.000000 0.038609
#
#
# Mechanical properties :
#
#
# Convention : Reuss Voigt Hill
#
# Bulk Modulus (GPa) = 73.97053 73.97053 73.97053
# Shear Modulus (GPa) = 17.50507 20.25189 18.87848
#
# Velocity S-wave (km/s) = 3.43189 3.69134 3.56397
# Velocity P-wave (km/s) = 8.09154 8.24240 8.16732
#
# Compressibility (1/GPa) = 0.01351890
#
# Stress axis : x y z
#
# Youngs Moduli (GPa) = 33.55361 33.55361 33.55340
#
# Poissons Ratio (x) = 0.42440 0.42440
# Poissons Ratio (y) = 0.42440 0.42440
# Poissons Ratio (z) = 0.42440 0.42440
#
# Static dielectric constant tensor:
#      x y z
#    x 2.903160 0.000000 0.000000 
#    y 0.000000 2.903160 0.000000 
#    z 0.000000 0.000000 2.903160 
# 
# 
# High freq. dielectric constant tensor:
#      x y z
#    x 1.568080 0.000000 0.000000 
#    y 0.000000 1.568080 0.000000 
#    z 0.000000 0.000000 1.568080 
# 
# From -- ./inp_files/1744.got.cif
#   From: 2010.03.12/outbox.cif.g09.slc.cpg/sg102_1_cif.got.tgz:1744.got - 2010.04.14 01:40:42.
