data_PCOD8306680
_publ_section_title
;
Structure prediction by ZEFSAII (Michael W. Deem and Ramdas Pophale) SiO2 
 PCOD8306680
Probable space group: P 4 B M
;
_chemical_formula_sum "Si O2"
_cell_formula_units_Z 64
_cell_length_a 13.769420
_cell_length_b 13.769420
_cell_length_c 19.401202
_cell_angle_alpha 90.000000
_cell_angle_beta 90.000000
_cell_angle_gamma 90.000000
_cell_volume 3678.408282
_symmetry_space_group_name_H-M "P 4 B M"
_symmetry_group_IT_number 100
_symmetry_cell_setting 'tetragonal'
loop_
_space_group_symop_operation_xyz
x,y,z
-y,x,z
-x,-y,z
y,-x,z
1/2-x,1/2+y,z
1/2+x,1/2-y,z
1/2-y,1/2-x,z
1/2+y,1/2+x,z
loop_
_atom_site_type_symbol
_atom_site_label
_atom_site_fract_x
_atom_site_fract_y
_atom_site_fract_z
Si Si1 0.996725 0.342772 0.721230
Si Si2 0.847075 0.042420 0.471812
Si Si3 0.658348 0.478777 0.973729
Si Si4 0.259526 0.599633 0.265103
Si Si5 0.996726 0.657228 0.879430
Si Si6 0.759526 0.099633 0.335558
Si Si7 0.158347 0.978776 0.626932
Si Si8 0.652926 0.457581 0.128849
O O1 0.891114 0.391114 0.704037
O O2 1.000000 0.308978 0.800330
O O3 0.077370 0.422631 0.706635
O O4 0.023607 0.250495 0.675825
O O5 0.767530 0.077037 0.417055
O O6 0.804439 0.040719 0.549132
O O7 0.933957 0.117124 0.459232
O O8 0.606990 0.581808 0.959661
O O9 0.750494 0.476395 0.924835
O O10 0.695562 0.459282 0.051528
O O11 0.172545 0.672545 0.278022
O O12 0.230952 0.500000 0.300331
O O13 0.357656 0.642345 0.300330
O O14 0.267530 0.577036 0.183606
O O15 0.077371 0.577371 0.894025
O O16 0.891115 0.608886 0.896622
O O17 0.672544 0.172544 0.322638
O O18 0.081807 0.893010 0.641000
O O19 0.617124 0.566043 0.141428
#
# Coordination Sequence:
#
# PCOD8306680 Si02
#       8
#     8   8   8   8   8   8   8   8
#     4   9  19  36  55  75 103 143 188 224 260 318
#     4   9  17  33  56  78 102 136 177 219 262 313
#     4   9  19  34  53  82 112 136 171 221 273 320
#     4  11  22  35  55  82 107 139 183 223 265 318
#     4   9  19  36  55  75 103 143 188 224 260 318
#     4  11  22  35  55  82 107 139 183 223 265 318
#     4   9  19  34  53  82 112 136 171 221 273 320
#     4   9  17  33  56  78 102 136 177 219 262 313
#
# _framework density 17.398831000000001
#
# number of rings (size 3 to 8) (size 9 to 14) (size 15 to 20)
#    0.000    2.500    2.500    2.250    0.000    3.500 
#    0.000    8.750    0.000    0.000    0.000    0.000 
#    0.000    0.000    0.000    0.000    0.000    0.000 
#
# Total GULP energy -793124.802979 kJ/mol
# GULP energy per Si atom -12392.575047 kJ/mol
# Density = 1.735923 g / cm^3
# Si number density = 17.398831 Si / 1000 Ang^3
#
#
#
# Elastic Constant Matrix: (Units=GPa)
#
#
# Indices 1 2 3 4 5 6 
#
# 1 84.8413 22.1055 57.5265 0.0000 0.0000 0.0001
# 2 22.1055 84.8413 57.5265 0.0000 0.0000 -0.0001
# 3 57.5265 57.5265 122.6609 0.0000 0.0000 0.0000
# 4 0.0000 0.0000 0.0000 28.3920 0.0000 0.0000
# 5 0.0000 0.0000 0.0000 0.0000 28.3920 0.0000
# 6 0.0001 -0.0001 0.0000 0.0000 0.0000 12.6725
#
#
#
# Elastic Compliance Matrix: (Units=1/GPa)
#
#
# Indices 1 2 3 4 5 6 
#
# 1 0.017406 0.001466 -0.008851 0.000000 0.000000 0.000000
# 2 0.001466 0.017406 -0.008851 0.000000 0.000000 0.000000
# 3 -0.008851 -0.008851 0.016454 0.000000 0.000000 0.000000
# 4 0.000000 0.000000 0.000000 0.035221 0.000000 0.000000
# 5 0.000000 0.000000 0.000000 0.000000 0.035221 0.000000
# 6 0.000000 0.000000 0.000000 0.000000 0.000000 0.078911
#
#
# Mechanical properties :
#
#
# Convention : Reuss Voigt Hill
#
# Bulk Modulus (GPa) = 53.20448 62.96227 58.08337
# Shear Modulus (GPa) = 20.88941 24.23698 22.56319
#
# Velocity S-wave (km/s) = 3.46876 3.73637 3.60505
# Velocity P-wave (km/s) = 6.83292 7.40812 7.12632
#
# Compressibility (1/GPa) = 0.01879541
#
# Stress axis : x y z
#
# Youngs Moduli (GPa) = 57.45157 57.45157 60.77415
#
# Poissons Ratio (x) = -0.08423 0.53790
# Poissons Ratio (y) = -0.08423 0.53790
# Poissons Ratio (z) = 0.50849 0.50849
#
# Static dielectric constant tensor:
#      x y z
#    x 3.086960 0.000000 0.000000 
#    y 0.000000 3.086960 0.000000 
#    z 0.000000 0.000000 3.425620 
# 
# 
# High freq. dielectric constant tensor:
#      x y z
#    x 1.660950 0.000000 0.000000 
#    y 0.000000 1.660950 0.000000 
#    z 0.000000 0.000000 1.680850 
# 
# From -- ./inp_files/1486.got.cif
#   From: 2010.03.12/outbox.cif.g09.slc.cpg/sg100_cif.got.tgz:1486.got - 2010.04.14 01:37:57.
