data_PCOD8306152
_publ_section_title
;
Structure prediction by ZEFSAII (Michael W. Deem and Ramdas Pophale) SiO2 
 PCOD8306152
Probable space group: I 4 2 2 
;
_chemical_formula_sum "Si O2"
_cell_formula_units_Z 72
_cell_length_a 13.897108
_cell_length_b 13.897108
_cell_length_c 17.640420
_cell_angle_alpha 90.000000
_cell_angle_beta 90.000000
_cell_angle_gamma 90.000000
_cell_volume 3406.887448
_symmetry_space_group_name_H-M "I 4 2 2 "
_symmetry_group_IT_number 97
_symmetry_cell_setting 'tetragonal'
loop_
_space_group_symop_operation_xyz
x,y,z
-y,x,z
-x,-y,z
y,-x,z
x,-y,-z
-x,y,-z
y,x,-z
-y,-x,-z
1/2+x,1/2+y,1/2+z
1/2-y,1/2+x,1/2+z
1/2-x,1/2-y,1/2+z
1/2+y,1/2-x,1/2+z
1/2+x,1/2-y,1/2-z
1/2-x,1/2+y,1/2-z
1/2+y,1/2+x,1/2-z
1/2-y,1/2-x,1/2-z
loop_
_atom_site_type_symbol
_atom_site_label
_atom_site_fract_x
_atom_site_fract_y
_atom_site_fract_z
Si Si1 0.388593 0.388593 0.000000
Si Si2 0.112191 0.606402 0.008259
Si Si3 0.177109 0.362499 0.350760
Si Si4 0.515370 0.173292 0.765333
Si Si5 0.251817 0.664809 0.131958
O O1 0.500000 0.364900 0.000000
O O2 0.342148 0.344314 0.924532
O O3 0.150397 0.652926 0.086556
O O4 0.160228 0.500000 0.000000
O O5 0.138690 0.680146 0.941435
O O6 0.000000 0.593664 0.000000
O O7 0.215271 0.460864 0.310202
O O8 0.241108 0.269431 0.327621
O O9 0.066235 0.354449 0.325441
O O10 0.578163 0.078163 0.750000
O O11 0.584692 0.254968 0.801389
#
# Coordination Sequence:
#
# PCOD8306152 Si02
#       5
#     8  16  16  16  16
#     4  11  22  38  64  92 126 168 217 276 328 388
#     4  11  21  36  64  95 128 170 220 277 327 384
#     4  11  22  39  61  95 131 172 217 266 333 393
#     4  11  25  40  61  91 136 172 207 269 337 398
#     4  12  22  41  65  95 130 171 219 275 331 396
#
# _framework density 21.133659999999999
#
# number of rings (size 3 to 8) (size 9 to 14) (size 15 to 20)
#    0.000    0.778    4.444    4.667    6.222    0.000 
#    0.000    0.000    0.000    0.000    0.000    0.000 
#    0.000    3.556    0.000    0.000    0.000    0.000 
#
# Total GULP energy -446047.601336 kJ/mol
# GULP energy per Si atom -12390.211148 kJ/mol
# Density = 2.108556 g / cm^3
# Si number density = 21.133660 Si / 1000 Ang^3
#
#
#
# Elastic Constant Matrix: (Units=GPa)
#
#
# Indices 1 2 3 4 5 6 
#
# 1 111.9361 51.1424 48.2631 0.0000 0.0000 0.0000
# 2 51.1424 111.9361 48.2631 0.0000 0.0000 0.0000
# 3 48.2631 48.2631 95.0078 0.0000 0.0000 0.0000
# 4 0.0000 0.0000 0.0000 110.2485 0.0000 0.0000
# 5 0.0000 0.0000 0.0000 0.0000 110.2486 0.0000
# 6 0.0000 0.0000 0.0000 0.0000 0.0000 36.5203
#
#
#
# Elastic Compliance Matrix: (Units=1/GPa)
#
#
# Indices 1 2 3 4 5 6 
#
# 1 0.012609 -0.003840 -0.004454 0.000000 0.000000 0.000000
# 2 -0.003840 0.012609 -0.004454 0.000000 0.000000 0.000000
# 3 -0.004454 -0.004454 0.015051 0.000000 0.000000 0.000000
# 4 0.000000 0.000000 0.000000 0.009070 0.000000 0.000000
# 5 0.000000 0.000000 0.000000 0.000000 0.009070 0.000000
# 6 0.000000 0.000000 0.000000 0.000000 0.000000 0.027382
#
#
# Mechanical properties :
#
#
# Convention : Reuss Voigt Hill
#
# Bulk Modulus (GPa) = 67.70156 68.24634 67.97395
# Shear Modulus (GPa) = 43.02448 62.81758 52.92103
#
# Velocity S-wave (km/s) = 4.51691 5.45788 5.00954
# Velocity P-wave (km/s) = 7.70115 8.49004 8.10520
#
# Compressibility (1/GPa) = 0.01477071
#
# Stress axis : x y z
#
# Youngs Moduli (GPa) = 79.30963 79.30963 66.44089
#
# Poissons Ratio (x) = 0.30457 0.29595
# Poissons Ratio (y) = 0.30457 0.29595
# Poissons Ratio (z) = 0.35327 0.35327
#
# Static dielectric constant tensor:
#      x y z
#    x 2.945420 0.000000 0.000000 
#    y 0.000000 2.945420 0.000000 
#    z 0.000000 0.000000 4.178740 
# 
# 
# High freq. dielectric constant tensor:
#      x y z
#    x 1.812980 0.000000 0.000000 
#    y 0.000000 1.812980 0.000000 
#    z 0.000000 0.000000 1.841900 
# 
# From -- ./inp_files/5570.got.cif
#   From: 2010.03.12/outbox.cif.g09.slc.cpg/sg97_3_cif.got.tgz:5570.got - 2010.04.08 20:59:42.
