data_PCOD8306779
_publ_section_title
;
Structure prediction by ZEFSAII (Michael W. Deem and Ramdas Pophale) SiO2 
 PCOD8306779
Probable space group: P 42 C M
;
_chemical_formula_sum "Si O2"
_cell_formula_units_Z 48
_cell_length_a 11.747824
_cell_length_b 11.747824
_cell_length_c 19.127001
_cell_angle_alpha 90.000000
_cell_angle_beta 90.000000
_cell_angle_gamma 90.000000
_cell_volume 2639.743588
_symmetry_space_group_name_H-M "P 42 C M"
_symmetry_group_IT_number 101
_symmetry_cell_setting 'tetragonal'
loop_
_space_group_symop_operation_xyz
x,y,z
-y,x,1/2+z
-x,-y,z
y,-x,1/2+z
-x,y,1/2+z
x,-y,1/2+z
-y,-x,z
y,x,z
loop_
_atom_site_type_symbol
_atom_site_label
_atom_site_fract_x
_atom_site_fract_y
_atom_site_fract_z
Si Si1 0.050744 0.765551 0.297540
Si Si2 0.868314 0.528743 0.793355
Si Si3 0.854931 0.329233 0.891404
Si Si4 0.131686 0.471255 0.146057
Si Si5 0.145071 0.670766 0.048008
Si Si6 0.050742 0.765552 0.641872
O O1 0.115370 0.884631 0.312184
O O2 0.142632 0.663502 0.308085
O O3 0.948012 0.747522 0.351426
O O4 0.999999 0.764588 0.219706
O O5 0.822304 0.449666 0.855640
O O6 0.805978 0.499998 0.719706
O O7 0.000000 0.500000 0.785619
O O8 0.737889 0.262112 0.893419
O O9 0.900494 0.353025 0.969707
O O10 0.177697 0.550333 0.083773
O O11 0.142630 0.336497 0.131325
O O12 0.000000 0.500000 0.153793
O O13 0.262116 0.737885 0.045992
O O14 0.051992 0.747524 0.087987
O O15 0.115368 0.884633 0.627227
#
# Coordination Sequence:
#
# PCOD8306779 Si02
#       6
#     8   8   8   8   8   8
#     4  11  21  33  52  80 111 144 181 222 267 316
#     4   9  16  32  53  75 101 137 183 222 257 306
#     4  10  21  36  55  80 110 144 179 219 269 320
#     4   9  16  32  53  75 101 137 183 222 257 306
#     4  10  21  36  55  80 110 144 179 219 269 320
#     4  11  21  33  52  80 111 144 181 222 267 316
#
# _framework density 18.183584
#
# number of rings (size 3 to 8) (size 9 to 14) (size 15 to 20)
#    0.000    2.000    6.667    1.000    0.000    9.000 
#    0.000    1.667    0.000    1.000    0.000    4.667 
#    0.000    0.000    0.000    0.000    0.000    0.000 
#
# Total GULP energy -594783.224590 kJ/mol
# GULP energy per Si atom -12391.317179 kJ/mol
# Density = 1.814220 g / cm^3
# Si number density = 18.183584 Si / 1000 Ang^3
#
#
#
# Elastic Constant Matrix: (Units=GPa)
#
#
# Indices 1 2 3 4 5 6 
#
# 1 60.4035 27.0593 32.7202 0.0000 0.0000 0.0004
# 2 27.0593 60.4035 32.7202 0.0000 0.0000 -0.0004
# 3 32.7202 32.7202 153.1342 0.0000 0.0000 0.0000
# 4 0.0000 0.0000 0.0000 15.6051 0.0000 0.0000
# 5 0.0000 0.0000 0.0000 0.0000 15.6051 0.0000
# 6 0.0004 -0.0004 0.0000 0.0000 0.0000 11.6816
#
#
#
# Elastic Compliance Matrix: (Units=1/GPa)
#
#
# Indices 1 2 3 4 5 6 
#
# 1 0.021800 -0.008191 -0.002908 0.000000 0.000000 -0.000001
# 2 -0.008191 0.021800 -0.002908 0.000000 0.000000 0.000001
# 3 -0.002908 -0.002908 0.007773 0.000000 0.000000 0.000000
# 4 0.000000 0.000000 0.000000 0.064082 0.000000 0.000000
# 5 0.000000 0.000000 0.000000 0.000000 0.064082 0.000000
# 6 -0.000001 0.000001 0.000000 0.000000 0.000000 0.085605
#
#
# Mechanical properties :
#
#
# Convention : Reuss Voigt Hill
#
# Bulk Modulus (GPa) = 42.80881 50.99338 46.90110
# Shear Modulus (GPa) = 16.61464 20.67445 18.64455
#
# Velocity S-wave (km/s) = 3.02605 3.37558 3.20558
# Velocity P-wave (km/s) = 5.98356 6.58006 6.28889
#
# Compressibility (1/GPa) = 0.02335967
#
# Stress axis : x y z
#
# Youngs Moduli (GPa) = 45.87224 45.87224 128.65266
#
# Poissons Ratio (x) = 0.37572 0.37410
# Poissons Ratio (y) = 0.37572 0.37410
# Poissons Ratio (z) = 0.13339 0.13339
#
# Static dielectric constant tensor:
#      x y z
#    x 3.403470 0.000000 0.000000 
#    y 0.000000 3.403470 0.000000 
#    z 0.000000 0.000000 3.676300 
# 
# 
# High freq. dielectric constant tensor:
#      x y z
#    x 1.679780 0.000000 0.000000 
#    y 0.000000 1.679780 0.000000 
#    z 0.000000 0.000000 1.712120 
# 
# From -- ./inp_files/2161.got.cif
#   From: 2010.03.12/outbox.cif.g09.slc.cpg/sg101_2_cif.got.tgz:2161.got - 2010.04.14 01:38:52.
