data_PCOD8306388
_publ_section_title
;
Structure prediction by ZEFSAII (Michael W. Deem and Ramdas Pophale) SiO2 
 PCOD8306388
Probable space group: I 41 2 2
;
_chemical_formula_sum "Si O2"
_cell_formula_units_Z 32
_cell_length_a 9.219881
_cell_length_b 9.219881
_cell_length_c 13.251800
_cell_angle_alpha 90.000000
_cell_angle_beta 90.000000
_cell_angle_gamma 90.000000
_cell_volume 1126.485236
_symmetry_space_group_name_H-M "I 41 2 2"
_symmetry_group_IT_number 98
_symmetry_cell_setting 'tetragonal'
loop_
_space_group_symop_operation_xyz
x,y,z
-y,1/2+x,1/4+z
-x,-y,z
y,1/2-x,1/4+z
x,1/2-y,1/4-z
-x,1/2+y,1/4-z
y,x,-z
-y,-x,-z
1/2+x,1/2+y,1/2+z
1/2-y,x,3/4+z
1/2-x,1/2-y,1/2+z
1/2+y,-x,3/4+z
1/2+x,-y,3/4-z
1/2-x,y,3/4-z
1/2+y,1/2+x,1/2-z
1/2-y,1/2-x,1/2-z
loop_
_atom_site_type_symbol
_atom_site_label
_atom_site_fract_x
_atom_site_fract_y
_atom_site_fract_z
Si Si1 0.279649 0.909283 0.157931
Si Si2 0.600780 0.834237 0.529242
O O1 0.228267 0.750000 0.125000
O O2 0.138448 0.998885 0.193577
O O3 0.347206 0.990604 0.062963
O O4 0.395413 0.604588 0.000000
O O5 0.530832 0.750000 0.625000
O O6 0.749467 0.749467 0.500000
#
# Coordination Sequence:
#
# PCOD8306388 Si02
#       2
#    16  16
#     4  11  26  47  78 120 159 204 267 337 406 480
#     4   9  22  50  81 110 156 216 269 324 397 488
#
# _framework density 28.406942999999998
#
# number of rings (size 3 to 8) (size 9 to 14) (size 15 to 20)
#    0.000    2.000    0.000    0.000    0.000   15.000 
#    0.000   15.000    0.000    0.000    0.000   42.000 
#    0.000    0.000    0.000    0.000    0.000    0.000 
#
# Total GULP energy -198429.395164 kJ/mol
# GULP energy per Si atom -12401.837198 kJ/mol
# Density = 2.834229 g / cm^3
# Si number density = 28.406943 Si / 1000 Ang^3
#
#
#
# Elastic Constant Matrix: (Units=GPa)
#
#
# Indices 1 2 3 4 5 6 
#
# 1 209.3195 73.4247 113.3649 0.0000 0.0000 0.0000
# 2 73.4247 209.3212 113.3651 0.0000 0.0000 0.0000
# 3 113.3649 113.3651 302.7161 0.0000 0.0000 0.0000
# 4 0.0000 0.0000 0.0000 60.5977 0.0000 0.0000
# 5 0.0000 0.0000 0.0000 0.0000 60.5977 0.0000
# 6 0.0000 0.0000 0.0000 0.0000 0.0000 25.7337
#
#
#
# Elastic Compliance Matrix: (Units=1/GPa)
#
#
# Indices 1 2 3 4 5 6 
#
# 1 0.006207 -0.001152 -0.001893 0.000000 0.000000 0.000000
# 2 -0.001152 0.006207 -0.001893 0.000000 0.000000 0.000000
# 3 -0.001893 -0.001893 0.004721 0.000000 0.000000 0.000000
# 4 0.000000 0.000000 0.000000 0.016502 0.000000 0.000000
# 5 0.000000 0.000000 0.000000 0.000000 0.016502 0.000000
# 6 0.000000 0.000000 0.000000 0.000000 0.000000 0.038860
#
#
# Mechanical properties :
#
#
# Convention : Reuss Voigt Hill
#
# Bulk Modulus (GPa) = 137.76365 146.85179 142.30772
# Shear Modulus (GPa) = 49.36133 57.46597 53.41365
#
# Velocity S-wave (km/s) = 4.17304 4.50261 4.34095
# Velocity P-wave (km/s) = 8.47471 8.87915 8.67928
#
# Compressibility (1/GPa) = 0.00725881
#
# Stress axis : x y z
#
# Youngs Moduli (GPa) = 161.11712 161.11863 211.81003
#
# Poissons Ratio (x) = 0.18560 0.40095
# Poissons Ratio (y) = 0.18560 0.40094
# Poissons Ratio (z) = 0.30499 0.30499
#
# Static dielectric constant tensor:
#      x y z
#    x 5.153300 0.000000 0.000000 
#    y 0.000000 5.153300 0.000000 
#    z 0.000000 0.000000 5.926550 
# 
# 
# High freq. dielectric constant tensor:
#      x y z
#    x 2.164040 0.000000 0.000000 
#    y 0.000000 2.164040 0.000000 
#    z 0.000000 0.000000 2.176590 
# 
# From -- ./inp_files/2344.got.cif
#   From: 2010.03.12/outbox.cif.g09.slc.cpg/sg98_2_cif.got.tgz:2344.got - 2010.04.08 21:04:41.
