data_PCOD8306900
_publ_section_title
;
Structure prediction by ZEFSAII (Michael W. Deem and Ramdas Pophale) SiO2 
 PCOD8306900
Probable space group: P 42 N M
;
_chemical_formula_sum "Si O2"
_cell_formula_units_Z 48
_cell_length_a 12.711235
_cell_length_b 12.711235
_cell_length_c 16.574568
_cell_angle_alpha 90.000000
_cell_angle_beta 90.000000
_cell_angle_gamma 90.000000
_cell_volume 2678.044033
_symmetry_space_group_name_H-M "P 42 N M"
_symmetry_group_IT_number 102
_symmetry_cell_setting 'tetragonal'
loop_
_space_group_symop_operation_xyz
x,y,z
1/2-y,1/2+x,1/2+z
-x,-y,z
1/2+y,1/2-x,1/2+z
1/2-x,1/2+y,1/2+z
1/2+x,1/2-y,1/2+z
-y,-x,z
y,x,z
loop_
_atom_site_type_symbol
_atom_site_label
_atom_site_fract_x
_atom_site_fract_y
_atom_site_fract_z
Si Si1 0.875245 0.700210 0.530960
Si Si2 0.602876 0.772241 0.382624
Si Si3 0.104978 0.436916 0.687465
Si Si4 0.056385 0.773748 0.427758
Si Si5 0.411920 0.755806 0.777210
Si Si6 0.705705 0.874794 0.839251
O O1 0.800606 0.800606 0.533772
O O2 0.838844 0.617495 0.463844
O O3 0.870250 0.641696 0.615492
O O4 0.991662 0.742119 0.507960
O O5 0.661551 0.661551 0.388283
O O6 0.647226 0.840871 0.308275
O O7 0.480768 0.744348 0.374240
O O8 0.202814 0.516506 0.703220
O O9 0.089858 0.369503 0.767457
O O10 0.000000 0.500000 0.666676
O O11 0.117276 0.882725 0.444500
O O12 0.138835 0.680907 0.409365
O O13 0.980363 0.790129 0.351021
O O14 0.338264 0.661737 0.744439
O O15 0.798082 0.798082 0.808003
#
# Coordination Sequence:
#
# PCOD8306900 Si02
#       6
#     8   8   8   8   8   8
#     4  10  22  36  54  80 112 144 178 222 273 332
#     4   9  18  35  56  78 107 144 184 223 267 321
#     4  11  21  35  56  82 108 149 179 216 271 323
#     4   9  19  34  57  84 108 139 184 232 273 313
#     4   9  18  34  57  82 106 137 185 229 263 315
#     4  10  20  35  56  83 111 138 185 234 265 317
#
# _framework density 17.92353
#
# number of rings (size 3 to 8) (size 9 to 14) (size 15 to 20)
#    0.000    2.333    1.667    2.000    2.333    2.333 
#    0.000    2.500    0.000    3.000    0.000    0.000 
#    0.000    0.000    0.000    0.000    0.000    0.000 
#
# Total GULP energy -595206.224031 kJ/mol
# GULP energy per Si atom -12400.129667 kJ/mol
# Density = 1.788273 g / cm^3
# Si number density = 17.923530 Si / 1000 Ang^3
#
#
#
# Elastic Constant Matrix: (Units=GPa)
#
#
# Indices 1 2 3 4 5 6 
#
# 1 85.9922 39.2505 17.7326 0.0000 0.0000 0.0001
# 2 39.2505 85.9922 17.7326 0.0000 0.0000 -0.0001
# 3 17.7326 17.7326 57.7376 0.0000 0.0000 0.0000
# 4 0.0000 0.0000 0.0000 26.2650 0.0000 0.0000
# 5 0.0000 0.0000 0.0000 0.0000 26.2650 0.0000
# 6 0.0001 -0.0001 0.0000 0.0000 0.0000 21.1805
#
#
#
# Elastic Compliance Matrix: (Units=1/GPa)
#
#
# Indices 1 2 3 4 5 6 
#
# 1 0.015070 -0.006325 -0.002686 0.000000 0.000000 0.000000
# 2 -0.006325 0.015070 -0.002686 0.000000 0.000000 0.000000
# 3 -0.002686 -0.002686 0.018969 0.000000 0.000000 0.000000
# 4 0.000000 0.000000 0.000000 0.038073 0.000000 0.000000
# 5 0.000000 0.000000 0.000000 0.000000 0.038073 0.000000
# 6 0.000000 0.000000 0.000000 0.000000 0.000000 0.047213
#
#
# Mechanical properties :
#
#
# Convention : Reuss Voigt Hill
#
# Bulk Modulus (GPa) = 38.88580 42.12815 40.50698
# Shear Modulus (GPa) = 24.45787 25.07588 24.76687
#
# Velocity S-wave (km/s) = 3.69801 3.74444 3.72130
# Velocity P-wave (km/s) = 6.32268 6.49999 6.41195
#
# Compressibility (1/GPa) = 0.02571633
#
# Stress axis : x y z
#
# Youngs Moduli (GPa) = 66.35870 66.35870 52.71624
#
# Poissons Ratio (x) = 0.41969 0.14159
# Poissons Ratio (y) = 0.41969 0.14159
# Poissons Ratio (z) = 0.17823 0.17823
#
# Static dielectric constant tensor:
#      x y z
#    x 3.334070 0.000000 0.000000 
#    y 0.000000 3.334070 0.000000 
#    z 0.000000 0.000000 3.068190 
# 
# 
# High freq. dielectric constant tensor:
#      x y z
#    x 1.697790 0.000000 0.000000 
#    y 0.000000 1.697790 0.000000 
#    z 0.000000 0.000000 1.666300 
# 
# From -- ./inp_files/2710.got.cif
#   From: 2010.03.12/outbox.cif.g09.slc.cpg/sg102_2_cif.got.tgz:2710.got - 2010.04.14 01:40:42.
