data_PCOD8306567
_publ_section_title
;
Structure prediction by ZEFSAII (Michael W. Deem and Ramdas Pophale) SiO2 
 PCOD8306567
Probable space group: P 4 M M
;
_chemical_formula_sum "Si O2"
_cell_formula_units_Z 56
_cell_length_a 13.678070
_cell_length_b 13.678070
_cell_length_c 17.781978
_cell_angle_alpha 90.000000
_cell_angle_beta 90.000000
_cell_angle_gamma 90.000000
_cell_volume 3326.823132
_symmetry_space_group_name_H-M "P 4 M M"
_symmetry_group_IT_number 99
_symmetry_cell_setting 'tetragonal'
loop_
_space_group_symop_operation_xyz
x,y,z
-y,x,z
-x,-y,z
y,-x,z
-x,y,z
x,-y,z
-y,-x,z
y,x,z
loop_
_atom_site_type_symbol
_atom_site_label
_atom_site_fract_x
_atom_site_fract_y
_atom_site_fract_z
Si Si1 0.388343 0.111945 0.957190
Si Si2 0.889793 0.385429 0.378056
Si Si3 0.615444 0.226401 0.231569
Si Si4 0.888213 0.732385 0.520031
Si Si5 0.772719 0.613818 0.808256
Si Si6 0.114586 0.273990 0.107250
Si Si7 0.113301 0.727339 0.688973
O O1 0.500000 0.131297 0.982142
O O2 0.358485 0.179746 0.887829
O O3 0.374652 0.000000 0.931950
O O4 0.317762 0.138183 0.025722
O O5 0.887952 0.500000 0.387088
O O6 0.818879 0.352080 0.311240
O O7 0.850960 0.343535 0.457281
O O8 0.000000 0.349183 0.360105
O O9 0.500000 0.245503 0.226460
O O10 0.670455 0.329546 0.220433
O O11 0.646550 0.149522 0.167882
O O12 0.833891 0.833891 0.509105
O O13 0.870369 0.689295 0.603578
O O14 0.000000 0.758228 0.507233
O O15 0.748521 0.500000 0.802187
O O16 0.671562 0.671562 0.798772
O O17 0.848649 0.641738 0.742836
O O18 0.172104 0.172104 0.117315
O O19 0.000000 0.253345 0.118278
O O20 0.172442 0.827559 0.704201
O O21 0.000000 0.749410 0.705475
#
# Coordination Sequence:
#
# PCOD8306567 Si02
#       7
#     8   8   8   8   8   8   8
#     4   9  17  30  50  74  96 120 153 192 232 274
#     4   9  17  29  46  68  92 119 153 191 229 271
#     4  10  20  33  50  71  94 122 156 195 239 283
#     4   9  17  29  45  66  93 122 151 185 225 271
#     4  10  20  33  49  69  94 124 158 196 236 278
#     4  10  20  33  50  72  98 128 160 193 229 271
#     4   9  18  31  47  69  95 123 156 193 234 280
#
# _framework density 16.832875999999999
#
# number of rings (size 3 to 8) (size 9 to 14) (size 15 to 20)
#    0.000    2.571    0.000    2.143    0.000    3.571 
#    0.000    2.857    0.000    0.000    0.000    6.000 
#    0.000    3.429    0.000    0.000    0.000    0.000 
#
# Total GULP energy -694381.097437 kJ/mol
# GULP energy per Si atom -12399.662454 kJ/mol
# Density = 1.679456 g / cm^3
# Si number density = 16.832876 Si / 1000 Ang^3
#
#
#
# Elastic Constant Matrix: (Units=GPa)
#
#
# Indices 1 2 3 4 5 6 
#
# 1 79.8463 42.6690 51.3462 0.0000 0.0000 -0.0001
# 2 42.6690 79.8463 51.3462 0.0000 0.0000 0.0001
# 3 51.3462 51.3462 110.5900 0.0000 0.0000 0.0000
# 4 0.0000 0.0000 0.0000 27.1139 0.0000 0.0000
# 5 0.0000 0.0000 0.0000 0.0000 27.1139 0.0000
# 6 -0.0001 0.0001 0.0000 0.0000 0.0000 19.4814
#
#
#
# Elastic Compliance Matrix: (Units=1/GPa)
#
#
# Indices 1 2 3 4 5 6 
#
# 1 0.020130 -0.006768 -0.006204 0.000000 0.000000 0.000000
# 2 -0.006768 0.020130 -0.006204 0.000000 0.000000 0.000000
# 3 -0.006204 -0.006204 0.014804 0.000000 0.000000 0.000000
# 4 0.000000 0.000000 0.000000 0.036882 0.000000 0.000000
# 5 0.000000 0.000000 0.000000 0.000000 0.036882 0.000000
# 6 0.000000 0.000000 0.000000 0.000000 0.000000 0.051331
#
#
# Mechanical properties :
#
#
# Convention : Reuss Voigt Hill
#
# Bulk Modulus (GPa) = 59.83714 62.33396 61.08555
# Shear Modulus (GPa) = 22.31336 23.06991 22.69163
#
# Velocity S-wave (km/s) = 3.64480 3.70608 3.67557
# Velocity P-wave (km/s) = 7.30327 7.44479 7.37437
#
# Compressibility (1/GPa) = 0.01671203
#
# Stress axis : x y z
#
# Youngs Moduli (GPa) = 49.67624 49.67624 67.55155
#
# Poissons Ratio (x) = 0.33620 0.41910
# Poissons Ratio (y) = 0.33620 0.41910
# Poissons Ratio (z) = 0.30820 0.30820
#
# Static dielectric constant tensor:
#      x y z
#    x 3.042640 0.000000 0.000000 
#    y 0.000000 3.042640 0.000000 
#    z 0.000000 0.000000 3.365440 
# 
# 
# High freq. dielectric constant tensor:
#      x y z
#    x 1.641220 0.000000 0.000000 
#    y 0.000000 1.641220 0.000000 
#    z 0.000000 0.000000 1.663370 
# 
# From -- ./inp_files/1782.got.cif
#   From: 2010.03.12/outbox.cif.g09.slc.cpg/sg99_cif.got.tgz:1782.got - 2010.04.08 21:11:30.
