data_PCOD8306798
_publ_section_title
;
Structure prediction by ZEFSAII (Michael W. Deem and Ramdas Pophale) SiO2 
 PCOD8306798
Probable space group: P 42 C M
;
_chemical_formula_sum "Si O2"
_cell_formula_units_Z 32
_cell_length_a 13.235924
_cell_length_b 13.235924
_cell_length_c 8.527638
_cell_angle_alpha 90.000000
_cell_angle_beta 90.000000
_cell_angle_gamma 90.000000
_cell_volume 1493.954208
_symmetry_space_group_name_H-M "P 42 C M"
_symmetry_group_IT_number 101
_symmetry_cell_setting 'tetragonal'
loop_
_space_group_symop_operation_xyz
x,y,z
-y,x,1/2+z
-x,-y,z
y,-x,1/2+z
-x,y,1/2+z
x,-y,1/2+z
-y,-x,z
y,x,z
loop_
_atom_site_type_symbol
_atom_site_label
_atom_site_fract_x
_atom_site_fract_y
_atom_site_fract_z
Si Si1 0.280894 0.877776 0.721790
Si Si2 0.883783 0.529592 0.019462
Si Si3 0.942869 0.213945 0.050252
Si Si4 0.641574 0.803545 0.716080
O O1 0.235797 0.764203 0.726406
O O2 0.396905 0.880861 0.670717
O O3 0.211757 0.940294 0.598062
O O4 0.277573 0.928270 0.892059
O O5 0.814910 0.434087 0.067973
O O6 0.000000 0.500000 0.982687
O O7 0.829470 0.584598 0.876115
O O8 0.899621 0.100380 0.028135
O O9 0.884033 0.269156 0.191792
O O10 0.690649 0.690649 0.721349
#
# Coordination Sequence:
#
# PCOD8306798 Si02
#       4
#     8   8   8   8
#     4  11  23  39  62  93 132 174 218 267 320 380
#     4  12  23  39  68 100 127 169 219 267 325 385
#     4  10  22  39  59  92 132 173 215 259 320 388
#     4  11  24  42  66  97 133 167 212 273 331 384
#
# _framework density 21.419668000000001
#
# number of rings (size 3 to 8) (size 9 to 14) (size 15 to 20)
#    0.000    1.000    2.500    4.500    0.000    3.500 
#    0.000    3.750    0.000    6.000    0.000    0.000 
#    0.000    0.000    0.000    0.000    0.000    0.000 
#
# Total GULP energy -396732.055971 kJ/mol
# GULP energy per Si atom -12397.876749 kJ/mol
# Density = 2.137092 g / cm^3
# Si number density = 21.419668 Si / 1000 Ang^3
#
#
#
# Elastic Constant Matrix: (Units=GPa)
#
#
# Indices 1 2 3 4 5 6 
#
# 1 88.1109 54.6820 31.5327 0.0000 0.0000 0.0007
# 2 54.6820 88.1109 31.5327 0.0000 0.0000 -0.0007
# 3 31.5327 31.5327 91.1666 0.0000 0.0000 0.0000
# 4 0.0000 0.0000 0.0000 29.9992 0.0000 0.0000
# 5 0.0000 0.0000 0.0000 0.0000 29.9992 0.0000
# 6 0.0007 -0.0007 0.0000 0.0000 0.0000 41.7486
#
#
#
# Elastic Compliance Matrix: (Units=1/GPa)
#
#
# Indices 1 2 3 4 5 6 
#
# 1 0.019090 -0.010824 -0.002859 0.000000 0.000000 -0.000001
# 2 -0.010824 0.019090 -0.002859 0.000000 0.000000 0.000001
# 3 -0.002859 -0.002859 0.012947 0.000000 0.000000 0.000000
# 4 0.000000 0.000000 0.000000 0.033334 0.000000 0.000000
# 5 0.000000 0.000000 0.000000 0.000000 0.033334 0.000000
# 6 -0.000001 0.000001 0.000000 0.000000 0.000000 0.023953
#
#
# Mechanical properties :
#
#
# Convention : Reuss Voigt Hill
#
# Bulk Modulus (GPa) = 55.42506 55.87594 55.65050
# Shear Modulus (GPa) = 27.64775 30.32547 28.98661
#
# Velocity S-wave (km/s) = 3.59662 3.76676 3.68267
# Velocity P-wave (km/s) = 6.57111 6.71274 6.64230
#
# Compressibility (1/GPa) = 0.01804238
#
# Stress axis : x y z
#
# Youngs Moduli (GPa) = 52.38335 52.38335 77.23992
#
# Poissons Ratio (x) = 0.56701 0.22083
# Poissons Ratio (y) = 0.56701 0.22083
# Poissons Ratio (z) = 0.14976 0.14976
#
# Static dielectric constant tensor:
#      x y z
#    x 3.852890 0.000000 0.000000 
#    y 0.000000 3.852890 0.000000 
#    z 0.000000 0.000000 3.970870 
# 
# 
# High freq. dielectric constant tensor:
#      x y z
#    x 1.824110 0.000000 0.000000 
#    y 0.000000 1.824110 0.000000 
#    z 0.000000 0.000000 1.860530 
# 
# From -- ./inp_files/467.got.cif
#   From: 2010.03.12/outbox.cif.g09.slc.cpg/sg101_1_cif.got.tgz:467.got - 2010.04.14 01:38:52.
