data_PCOD8306645
_publ_section_title
;
Structure prediction by ZEFSAII (Michael W. Deem and Ramdas Pophale) SiO2 
 PCOD8306645
Probable space group: P 4 B M
;
_chemical_formula_sum "Si O2"
_cell_formula_units_Z 24
_cell_length_a 17.342435
_cell_length_b 17.342435
_cell_length_c 5.067628
_cell_angle_alpha 90.000000
_cell_angle_beta 90.000000
_cell_angle_gamma 90.000000
_cell_volume 1524.140059
_symmetry_space_group_name_H-M "P 4 B M"
_symmetry_group_IT_number 100
_symmetry_cell_setting 'tetragonal'
loop_
_space_group_symop_operation_xyz
x,y,z
-y,x,z
-x,-y,z
y,-x,z
1/2-x,1/2+y,z
1/2+x,1/2-y,z
1/2-y,1/2-x,z
1/2+y,1/2+x,z
loop_
_atom_site_type_symbol
_atom_site_label
_atom_site_fract_x
_atom_site_fract_y
_atom_site_fract_z
Si Si1 0.785996 0.714004 0.918510
Si Si2 0.550436 0.828807 0.500457
Si Si3 0.449563 0.828806 0.000456
Si Si4 0.714004 0.785997 0.418510
O O1 0.763780 0.736221 0.621729
O O2 0.769838 0.622300 0.959804
O O3 0.736220 0.763781 0.121729
O O4 0.583660 0.916341 0.477548
O O5 0.484063 0.814259 0.288543
O O6 0.622299 0.769839 0.459802
O O7 0.515936 0.814259 0.788542
O O8 0.416339 0.916339 0.977545
#
# Coordination Sequence:
#
# PCOD8306645 Si02
#       4
#     4   8   8   4
#     4  10  20  34  49  66 101 136 164 202 238 276
#     4  10  20  31  48  72 102 133 164 190 236 293
#     4  10  20  31  48  72 102 133 164 190 236 293
#     4  10  20  34  49  66 101 136 164 202 238 276
#
# _framework density 15.746585
#
# number of rings (size 3 to 8) (size 9 to 14) (size 15 to 20)
#    2.000    0.000    0.000    6.000    0.000    4.000 
#    0.000    0.000    0.000    0.000    0.000    0.000 
#    0.000   93.333    0.000    0.000    0.000    0.000 
#
# Total GULP energy -297412.258177 kJ/mol
# GULP energy per Si atom -12392.177424 kJ/mol
# Density = 1.571075 g / cm^3
# Si number density = 15.746585 Si / 1000 Ang^3
#
#
#
# Elastic Constant Matrix: (Units=GPa)
#
#
# Indices 1 2 3 4 5 6 
#
# 1 37.1339 37.0720 5.6078 0.0000 0.0000 0.0001
# 2 37.0720 37.1339 5.6078 0.0000 0.0000 -0.0001
# 3 5.6078 5.6078 63.9198 0.0000 0.0000 0.0000
# 4 0.0000 0.0000 0.0000 35.8170 0.0000 0.0000
# 5 0.0000 0.0000 0.0000 0.0000 35.8170 0.0000
# 6 0.0001 -0.0001 0.0000 0.0000 0.0000 21.0522
#
#
#
# Elastic Compliance Matrix: (Units=1/GPa)
#
#
# Indices 1 2 3 4 5 6 
#
# 1 8.093110 -8.079453 -0.001198 0.000000 0.000000 -0.000041
# 2 -8.079453 8.093110 -0.001198 0.000000 0.000000 0.000041
# 3 -0.001198 -0.001198 0.015855 0.000000 0.000000 0.000000
# 4 0.000000 0.000000 0.000000 0.027920 0.000000 0.000000
# 5 0.000000 0.000000 0.000000 0.000000 0.027920 0.000000
# 6 -0.000041 0.000041 0.000000 0.000000 0.000000 0.047501
#
#
# Mechanical properties :
#
#
# Convention : Reuss Voigt Hill
#
# Bulk Modulus (GPa) = 26.05770 26.08478 26.07124
# Shear Modulus (GPa) = 0.15393 24.53056 12.34225
#
# Velocity S-wave (km/s) = 0.31300 3.95122 2.80269
# Velocity P-wave (km/s) = 4.08836 6.11699 5.20251
#
# Compressibility (1/GPa) = 0.03837637
#
# Stress axis : x y z
#
# Youngs Moduli (GPa) = 0.12356 0.12356 63.07226
#
# Poissons Ratio (x) = 0.99831 0.07557
# Poissons Ratio (y) = 0.99831 0.07557
# Poissons Ratio (z) = 0.00015 0.00015
#
# Static dielectric constant tensor:
#      x y z
#    x 2.774260 0.000000 0.000000 
#    y 0.000000 2.774260 0.000000 
#    z 0.000000 0.000000 2.885930 
# 
# 
# High freq. dielectric constant tensor:
#      x y z
#    x 1.579580 0.000000 0.000000 
#    y 0.000000 1.579580 0.000000 
#    z 0.000000 0.000000 1.624330 
# 
# From -- ./inp_files/158.got.cif
#   From: 2010.03.12/outbox.cif.g09.slc.cpg/sg100_cif.got.tgz:158.got - 2010.04.14 01:37:57.
