data_PCOD8306154
_publ_section_title
;
Structure prediction by ZEFSAII (Michael W. Deem and Ramdas Pophale) SiO2 
 PCOD8306154
Probable space group: I 4 2 2 
;
_chemical_formula_sum "Si O2"
_cell_formula_units_Z 64
_cell_length_a 13.445430
_cell_length_b 13.445430
_cell_length_c 18.896657
_cell_angle_alpha 90.000000
_cell_angle_beta 90.000000
_cell_angle_gamma 90.000000
_cell_volume 3416.129865
_symmetry_space_group_name_H-M "I 4 2 2 "
_symmetry_group_IT_number 97
_symmetry_cell_setting 'tetragonal'
loop_
_space_group_symop_operation_xyz
x,y,z
-y,x,z
-x,-y,z
y,-x,z
x,-y,-z
-x,y,-z
y,x,-z
-y,-x,-z
1/2+x,1/2+y,1/2+z
1/2-y,1/2+x,1/2+z
1/2-x,1/2-y,1/2+z
1/2+y,1/2-x,1/2+z
1/2+x,1/2-y,1/2-z
1/2-x,1/2+y,1/2-z
1/2+y,1/2+x,1/2-z
1/2-y,1/2-x,1/2-z
loop_
_atom_site_type_symbol
_atom_site_label
_atom_site_fract_x
_atom_site_fract_y
_atom_site_fract_z
Si Si1 0.651248 0.006445 0.774687
Si Si2 0.594136 0.736368 0.954366
Si Si3 0.460233 0.112973 0.573005
Si Si4 0.155520 0.031474 0.691653
O O1 0.562645 0.937356 0.750000
O O2 0.669556 0.005728 0.859157
O O3 0.745320 0.959356 0.736154
O O4 0.618907 0.118907 0.750000
O O5 0.631666 0.841690 0.924085
O O6 0.550699 0.669620 0.891613
O O7 0.500000 0.766432 0.000000
O O8 0.678407 0.678407 0.000000
O O9 0.500000 0.161478 0.500000
O O10 0.500000 0.000000 0.577834
O O11 0.076792 0.115178 0.712662
#
# Coordination Sequence:
#
# PCOD8306154 Si02
#       4
#    16  16  16  16
#     4  11  21  38  62  89 117 155 201 246 297 350
#     4  12  22  34  60  93 123 155 189 234 300 366
#     4  11  21  39  63  86 120 156 197 245 296 351
#     4  11  24  40  58  84 121 161 196 242 299 356
#
# _framework density 18.734649999999998
#
# number of rings (size 3 to 8) (size 9 to 14) (size 15 to 20)
#    0.000    0.750   10.000    0.000    0.000    1.250 
#    4.500    0.000    0.000    0.000    0.000    1.750 
#    0.000    0.000    0.000    0.000    0.000    0.000 
#
# Total GULP energy -396531.857301 kJ/mol
# GULP energy per Si atom -12391.620541 kJ/mol
# Density = 1.869201 g / cm^3
# Si number density = 18.734650 Si / 1000 Ang^3
#
#
#
# Elastic Constant Matrix: (Units=GPa)
#
#
# Indices 1 2 3 4 5 6 
#
# 1 80.3310 38.4768 33.2020 0.0000 0.0000 0.0000
# 2 38.4768 80.3296 33.2027 0.0000 0.0000 0.0000
# 3 33.2020 33.2027 142.4044 0.0000 0.0000 0.0000
# 4 0.0000 0.0000 0.0000 22.5422 0.0000 0.0000
# 5 0.0000 0.0000 0.0000 0.0000 22.5460 0.0000
# 6 0.0000 0.0000 0.0000 0.0000 0.0000 27.4782
#
#
#
# Elastic Compliance Matrix: (Units=1/GPa)
#
#
# Indices 1 2 3 4 5 6 
#
# 1 0.016785 -0.007107 -0.002256 0.000000 0.000000 0.000000
# 2 -0.007107 0.016786 -0.002257 0.000000 0.000000 0.000000
# 3 -0.002256 -0.002257 0.008075 0.000000 0.000000 0.000000
# 4 0.000000 0.000000 0.000000 0.044361 0.000000 0.000000
# 5 0.000000 0.000000 0.000000 0.000000 0.044354 0.000000
# 6 0.000000 0.000000 0.000000 0.000000 0.000000 0.036393
#
#
# Mechanical properties :
#
#
# Convention : Reuss Voigt Hill
#
# Bulk Modulus (GPa) = 54.33347 56.98088 55.65717
# Shear Modulus (GPa) = 25.49344 27.72550 26.60947
#
# Velocity S-wave (km/s) = 3.69286 3.85113 3.77282
# Velocity P-wave (km/s) = 6.87368 7.08912 6.98223
#
# Compressibility (1/GPa) = 0.01840486
#
# Stress axis : x y z
#
# Youngs Moduli (GPa) = 59.57577 59.57435 123.84660
#
# Poissons Ratio (x) = 0.42341 0.27945
# Poissons Ratio (y) = 0.42342 0.27948
# Poissons Ratio (z) = 0.13443 0.13444
#
# Static dielectric constant tensor:
#      x y z
#    x 4.002420 0.000000 0.000000 
#    y 0.000000 4.000920 0.000000 
#    z 0.000000 0.000000 4.195960 
# 
# 
# High freq. dielectric constant tensor:
#      x y z
#    x 1.710660 0.000000 0.000000 
#    y 0.000000 1.710660 0.000000 
#    z 0.000000 0.000000 1.740290 
# 
# From -- ./inp_files/6297.got.cif
#   From: 2010.03.12/outbox.cif.g09.slc.cpg/sg97_4_cif.got.tgz:6297.got - 2010.04.08 20:59:42.
