data_PCOD8306879
_publ_section_title
;
Structure prediction by ZEFSAII (Michael W. Deem and Ramdas Pophale) SiO2 
 PCOD8306879
Probable space group: P 42 N M
;
_chemical_formula_sum "Si O2"
_cell_formula_units_Z 48
_cell_length_a 11.170107
_cell_length_b 11.170107
_cell_length_c 18.984878
_cell_angle_alpha 90.000000
_cell_angle_beta 90.000000
_cell_angle_gamma 90.000000
_cell_volume 2368.767726
_symmetry_space_group_name_H-M "P 42 N M"
_symmetry_group_IT_number 102
_symmetry_cell_setting 'tetragonal'
loop_
_space_group_symop_operation_xyz
x,y,z
1/2-y,1/2+x,1/2+z
-x,-y,z
1/2+y,1/2-x,1/2+z
1/2-x,1/2+y,1/2+z
1/2+x,1/2-y,1/2+z
-y,-x,z
y,x,z
loop_
_atom_site_type_symbol
_atom_site_label
_atom_site_fract_x
_atom_site_fract_y
_atom_site_fract_z
Si Si1 0.864398 0.474736 0.566800
Si Si2 0.992981 0.806205 0.704699
Si Si3 0.146781 0.340305 0.450387
Si Si4 0.347400 0.146500 0.292028
Si Si5 0.731617 0.542386 0.050392
Si Si6 0.304111 0.496536 0.693029
O O1 0.838308 0.536922 0.492372
O O2 0.853428 0.332234 0.555586
O O3 0.768887 0.525295 0.621705
O O4 0.000000 0.500000 0.592435
O O5 0.872338 0.872338 0.733353
O O6 0.030797 0.692783 0.753219
O O7 0.969339 0.766406 0.624095
O O8 0.102684 0.897317 0.703969
O O9 0.273168 0.273168 0.448685
O O10 0.106713 0.376005 0.371548
O O11 0.047533 0.255684 0.486363
O O12 0.251541 0.251541 0.291396
O O13 0.291438 0.030762 0.253301
O O14 0.603884 0.603884 0.036425
O O15 0.396859 0.603142 0.680216
O O16 0.374542 0.374542 0.713472
#
# Coordination Sequence:
#
# PCOD8306879 Si02
#       6
#     8   8   8   8   8   8
#     4  10  20  35  54  80 110 155 187 231 290 345
#     4   9  16  29  54  84 111 145 195 248 295 342
#     4  10  21  35  54  81 115 150 187 231 290 354
#     4   9  18  34  54  81 117 153 188 243 304 347
#     4  10  19  34  58  83 110 147 193 241 287 336
#     4  10  19  34  60  88 113 149 198 244 291 353
#
# _framework density 20.263698999999999
#
# number of rings (size 3 to 8) (size 9 to 14) (size 15 to 20)
#    0.000    2.333    1.667    1.500    0.000    1.667 
#    0.000    5.833    0.000    4.000    0.000    0.000 
#    0.000    0.000    0.000    0.000    0.000    0.000 
#
# Total GULP energy -595019.297528 kJ/mol
# GULP energy per Si atom -12396.235365 kJ/mol
# Density = 2.021758 g / cm^3
# Si number density = 20.263699 Si / 1000 Ang^3
#
#
#
# Elastic Constant Matrix: (Units=GPa)
#
#
# Indices 1 2 3 4 5 6 
#
# 1 76.6017 39.2757 50.9938 0.0000 0.0000 0.0000
# 2 39.2757 76.6017 50.9938 0.0000 0.0000 0.0000
# 3 50.9938 50.9938 168.1385 0.0000 0.0000 0.0000
# 4 0.0000 0.0000 0.0000 29.4476 0.0000 0.0000
# 5 0.0000 0.0000 0.0000 0.0000 29.4476 0.0000
# 6 0.0000 0.0000 0.0000 0.0000 0.0000 37.3467
#
#
#
# Elastic Compliance Matrix: (Units=1/GPa)
#
#
# Indices 1 2 3 4 5 6 
#
# 1 0.019282 -0.007509 -0.003570 0.000000 0.000000 0.000000
# 2 -0.007509 0.019282 -0.003570 0.000000 0.000000 0.000000
# 3 -0.003570 -0.003570 0.008113 0.000000 0.000000 0.000000
# 4 0.000000 0.000000 0.000000 0.033959 0.000000 0.000000
# 5 0.000000 0.000000 0.000000 0.000000 0.033959 0.000000
# 6 0.000000 0.000000 0.000000 0.000000 0.000000 0.026776
#
#
# Mechanical properties :
#
#
# Convention : Reuss Voigt Hill
#
# Bulk Modulus (GPa) = 57.54999 67.09650 62.32325
# Shear Modulus (GPa) = 28.33476 31.25363 29.79419
#
# Velocity S-wave (km/s) = 3.74344 3.93153 3.83864
# Velocity P-wave (km/s) = 6.86634 7.33436 7.10421
#
# Compressibility (1/GPa) = 0.01737620
#
# Stress axis : x y z
#
# Youngs Moduli (GPa) = 51.86298 51.86298 123.25710
#
# Poissons Ratio (x) = 0.38946 0.44007
# Poissons Ratio (y) = 0.38946 0.44007
# Poissons Ratio (z) = 0.18517 0.18517
#
# Static dielectric constant tensor:
#      x y z
#    x 3.657250 0.000000 0.000000 
#    y 0.000000 3.657250 0.000000 
#    z 0.000000 0.000000 3.708500 
# 
# 
# High freq. dielectric constant tensor:
#      x y z
#    x 1.784570 0.000000 0.000000 
#    y 0.000000 1.784570 0.000000 
#    z 0.000000 0.000000 1.779730 
# 
# From -- ./inp_files/2708.got.cif
#   From: 2010.03.12/outbox.cif.g09.slc.cpg/sg102_2_cif.got.tgz:2708.got - 2010.04.14 01:40:42.
