data_PCOD8306561
_publ_section_title
;
Structure prediction by ZEFSAII (Michael W. Deem and Ramdas Pophale) SiO2 
 PCOD8306561
Probable space group: P 4 M M
;
_chemical_formula_sum "Si O2"
_cell_formula_units_Z 64
_cell_length_a 14.024062
_cell_length_b 14.024062
_cell_length_c 20.481096
_cell_angle_alpha 90.000000
_cell_angle_beta 90.000000
_cell_angle_gamma 90.000000
_cell_volume 4028.105526
_symmetry_space_group_name_H-M "P 4 M M"
_symmetry_group_IT_number 99
_symmetry_cell_setting 'tetragonal'
loop_
_space_group_symop_operation_xyz
x,y,z
-y,x,z
-x,-y,z
y,-x,z
-x,y,z
x,-y,z
-y,-x,z
y,x,z
loop_
_atom_site_type_symbol
_atom_site_label
_atom_site_fract_x
_atom_site_fract_y
_atom_site_fract_z
Si Si1 0.391710 0.240874 0.797220
Si Si2 0.767403 0.388825 0.648865
Si Si3 0.890223 0.265421 0.310203
Si Si4 0.113835 0.394577 0.051129
Si Si5 0.739369 0.109143 0.163732
Si Si6 0.386154 0.894676 0.908514
Si Si7 0.887554 0.606048 0.427459
Si Si8 0.270624 0.113837 0.551209
O O1 0.500000 0.259941 0.815890
O O2 0.342314 0.342314 0.803356
O O3 0.380674 0.199969 0.724192
O O4 0.345086 0.168688 0.849495
O O5 0.752957 0.500000 0.629019
O O6 0.668141 0.331860 0.636053
O O7 0.853811 0.340778 0.609327
O O8 0.829712 0.170289 0.322758
O O9 0.877454 0.304438 0.236315
O O10 0.855135 0.348950 0.358454
O O11 0.000000 0.237810 0.324320
O O12 0.156143 0.500000 0.061850
O O13 0.154812 0.330810 0.109979
O O14 0.000000 0.398723 0.053343
O O15 0.145581 0.354514 0.979837
O O16 0.841104 0.158897 0.159148
O O17 0.758877 0.000000 0.147343
O O18 0.500000 0.899330 0.906533
O O19 0.343447 0.000000 0.898069
O O20 0.841671 0.500000 0.434576
O O21 0.854428 0.676093 0.485043
O O22 0.000000 0.595407 0.430085
O O23 0.169263 0.169263 0.554913
O O24 0.252112 0.000000 0.555415
#
# Coordination Sequence:
#
# PCOD8306561 Si02
#       8
#     8   8   8   8   8   8   8   8
#     4   9  17  28  42  62  87 113 141 172 208 253
#     4   9  18  31  46  66  91 118 150 186 222 263
#     4   9  17  28  41  59  84 112 142 175 209 250
#     4   8  14  25  40  57  78 104 135 173 215 255
#     4   9  17  27  39  57  81 109 140 172 207 250
#     4   8  14  25  40  58  80 105 135 173 214 254
#     4   9  17  29  45  64  85 110 139 170 207 249
#     4  10  20  33  49  69  93 120 150 183 218 260
#
# _framework density 15.888361
#
# number of rings (size 3 to 8) (size 9 to 14) (size 15 to 20)
#    0.000    3.125    0.000    1.500    0.000    2.875 
#    0.000    6.250    0.000    2.250    0.000    0.000 
#    0.000    2.750    0.000    5.750    0.000    1.625 
#
# Total GULP energy -793150.186761 kJ/mol
# GULP energy per Si atom -12392.971668 kJ/mol
# Density = 1.585220 g / cm^3
# Si number density = 15.888361 Si / 1000 Ang^3
#
#
#
# Elastic Constant Matrix: (Units=GPa)
#
#
# Indices 1 2 3 4 5 6 
#
# 1 71.2911 35.7491 48.8456 0.0000 0.0000 -0.0005
# 2 35.7491 71.2911 48.8456 0.0000 0.0000 0.0005
# 3 48.8456 48.8456 117.8631 0.0000 0.0000 0.0000
# 4 0.0000 0.0000 0.0000 22.4636 0.0000 0.0000
# 5 0.0000 0.0000 0.0000 0.0000 22.4636 0.0000
# 6 -0.0005 0.0005 0.0000 0.0000 0.0000 13.3010
#
#
#
# Elastic Compliance Matrix: (Units=1/GPa)
#
#
# Indices 1 2 3 4 5 6 
#
# 1 0.021581 -0.006555 -0.006227 0.000000 0.000000 0.000001
# 2 -0.006555 0.021581 -0.006227 0.000000 0.000000 -0.000001
# 3 -0.006227 -0.006227 0.013646 0.000000 0.000000 0.000000
# 4 0.000000 0.000000 0.000000 0.044517 0.000000 0.000000
# 5 0.000000 0.000000 0.000000 0.000000 0.044517 0.000000
# 6 0.000001 -0.000001 0.000000 0.000000 0.000000 0.075182
#
#
# Mechanical properties :
#
#
# Convention : Reuss Voigt Hill
#
# Bulk Modulus (GPa) = 53.22360 58.59179 55.90769
# Shear Modulus (GPa) = 18.84639 20.11263 19.47951
#
# Velocity S-wave (km/s) = 3.44783 3.56177 3.50526
# Velocity P-wave (km/s) = 7.03002 7.33977 7.18656
#
# Compressibility (1/GPa) = 0.01878866
#
# Stress axis : x y z
#
# Youngs Moduli (GPa) = 46.33805 46.33805 73.28364
#
# Poissons Ratio (x) = 0.30376 0.45633
# Poissons Ratio (y) = 0.30376 0.45633
# Poissons Ratio (z) = 0.28854 0.28854
#
# Static dielectric constant tensor:
#      x y z
#    x 2.896030 0.000000 0.000000 
#    y 0.000000 2.896030 0.000000 
#    z 0.000000 0.000000 3.365520 
# 
# 
# High freq. dielectric constant tensor:
#      x y z
#    x 1.585020 0.000000 0.000000 
#    y 0.000000 1.585020 0.000000 
#    z 0.000000 0.000000 1.628270 
# 
# From -- ./inp_files/2085.got.cif
#   From: 2010.03.12/outbox.cif.g09.slc.cpg/sg99_cif.got.tgz:2085.got - 2010.04.08 21:11:30.
