data_PCOD8306423
_publ_section_title
;
Structure prediction by ZEFSAII (Michael W. Deem and Ramdas Pophale) SiO2 
 PCOD8306423
Probable space group: P 4 M M
;
_chemical_formula_sum "Si O2"
_cell_formula_units_Z 64
_cell_length_a 19.565668
_cell_length_b 19.565668
_cell_length_c 9.908960
_cell_angle_alpha 90.000000
_cell_angle_beta 90.000000
_cell_angle_gamma 90.000000
_cell_volume 3793.302132
_symmetry_space_group_name_H-M "P 4 M M"
_symmetry_group_IT_number 99
_symmetry_cell_setting 'tetragonal'
loop_
_space_group_symop_operation_xyz
x,y,z
-y,x,z
-x,-y,z
y,-x,z
-x,y,z
x,-y,z
-y,-x,z
y,x,z
loop_
_atom_site_type_symbol
_atom_site_label
_atom_site_fract_x
_atom_site_fract_y
_atom_site_fract_z
Si Si1 0.575648 0.221189 0.058640
Si Si2 0.278854 0.837151 0.093288
Si Si3 0.818788 0.422161 0.767913
Si Si4 0.079894 0.304401 0.835847
Si Si5 0.812312 0.923929 0.623326
Si Si6 0.654160 0.765427 0.515260
Si Si7 0.749102 0.139774 0.383382
Si Si8 0.317150 0.424161 0.293653
O O1 0.500000 0.186811 0.089005
O O2 0.640465 0.177820 0.108745
O O3 0.578479 0.292639 0.138022
O O4 0.582073 0.231851 0.897364
O O5 0.231498 0.768503 0.080006
O O6 0.261233 0.881539 0.227428
O O7 0.267851 0.885790 0.965150
O O8 0.842908 0.500000 0.741360
O O9 0.885797 0.376664 0.798820
O O10 0.776018 0.395662 0.641255
O O11 0.093086 0.253209 0.712997
O O12 0.000000 0.316994 0.863396
O O13 0.872604 0.872604 0.661629
O O14 0.789949 0.918116 0.465988
O O15 0.839766 0.000000 0.649359
O O16 0.714652 0.714652 0.563091
O O17 0.680518 0.839779 0.464844
O O18 0.614349 0.736108 0.387920
O O19 0.789587 0.210414 0.381516
O O20 0.324478 0.500000 0.349425
O O21 0.391419 0.391419 0.301179
#
# Coordination Sequence:
#
# PCOD8306423 Si02
#       8
#     8   8   8   8   8   8   8   8
#     4   9  18  30  45  70 100 127 163 207 251 299
#     4  10  18  31  53  75  99 130 168 209 255 305
#     4  10  20  33  50  73  99 133 171 206 254 309
#     4  10  21  34  50  74 101 133 169 210 255 298
#     4  10  20  35  54  77 106 135 167 206 249 300
#     4  10  18  30  49  74 100 125 161 209 259 305
#     4   9  17  30  49  75 101 128 161 203 251 296
#     4  10  19  31  47  68  97 131 167 210 257 305
#
# _framework density 16.871842999999998
#
# number of rings (size 3 to 8) (size 9 to 14) (size 15 to 20)
#    0.000    2.250    2.500    1.125    0.000    3.500 
#    0.000    0.000    0.000    0.000    0.000    0.000 
#    0.000    6.000    0.000    0.000    0.000    0.000 
#
# Total GULP energy -793049.536988 kJ/mol
# GULP energy per Si atom -12391.399015 kJ/mol
# Density = 1.683344 g / cm^3
# Si number density = 16.871843 Si / 1000 Ang^3
#
#
#
# Elastic Constant Matrix: (Units=GPa)
#
#
# Indices 1 2 3 4 5 6 
#
# 1 82.0089 37.7863 34.9372 0.0000 0.0000 -0.0001
# 2 37.7863 82.0089 34.9372 0.0000 0.0000 0.0001
# 3 34.9372 34.9372 102.3997 0.0000 0.0000 0.0000
# 4 0.0000 0.0000 0.0000 20.4155 0.0000 0.0000
# 5 0.0000 0.0000 0.0000 0.0000 20.4155 0.0000
# 6 -0.0001 0.0001 0.0000 0.0000 0.0000 16.0725
#
#
#
# Elastic Compliance Matrix: (Units=1/GPa)
#
#
# Indices 1 2 3 4 5 6 
#
# 1 0.016517 -0.006096 -0.003556 0.000000 0.000000 0.000000
# 2 -0.006096 0.016517 -0.003556 0.000000 0.000000 0.000000
# 3 -0.003556 -0.003556 0.012192 0.000000 0.000000 0.000000
# 4 0.000000 0.000000 0.000000 0.048982 0.000000 0.000000
# 5 0.000000 0.000000 0.000000 0.000000 0.048982 0.000000
# 6 0.000000 0.000000 0.000000 0.000000 0.000000 0.062218
#
#
# Mechanical properties :
#
#
# Convention : Reuss Voigt Hill
#
# Bulk Modulus (GPa) = 53.15659 53.52652 53.34156
# Shear Modulus (GPa) = 21.00012 21.96450 21.48231
#
# Velocity S-wave (km/s) = 3.53184 3.61202 3.57215
# Velocity P-wave (km/s) = 6.94308 7.01355 6.97840
#
# Compressibility (1/GPa) = 0.01881234
#
# Stress axis : x y z
#
# Youngs Moduli (GPa) = 60.54288 60.54288 82.02148
#
# Poissons Ratio (x) = 0.36905 0.29164
# Poissons Ratio (y) = 0.36905 0.29164
# Poissons Ratio (z) = 0.21527 0.21527
#
# Static dielectric constant tensor:
#      x y z
#    x 3.052480 0.000000 0.000000 
#    y 0.000000 3.052480 0.000000 
#    z 0.000000 0.000000 3.356910 
# 
# 
# High freq. dielectric constant tensor:
#      x y z
#    x 1.634180 0.000000 0.000000 
#    y 0.000000 1.634180 0.000000 
#    z 0.000000 0.000000 1.665130 
# 
# From -- ./inp_files/1196.got.cif
#   From: 2010.03.12/outbox.cif.g09.slc.cpg/sg99_cif.got.tgz:1196.got - 2010.04.08 21:11:30.
