data_PCOD8306351
_publ_section_title
;
Structure prediction by ZEFSAII (Michael W. Deem and Ramdas Pophale) SiO2 
 PCOD8306351
Probable space group: I 41 2 2
;
_chemical_formula_sum "Si O2"
_cell_formula_units_Z 48
_cell_length_a 13.971170
_cell_length_b 13.971170
_cell_length_c 11.132033
_cell_angle_alpha 90.000000
_cell_angle_beta 90.000000
_cell_angle_gamma 90.000000
_cell_volume 2172.901498
_symmetry_space_group_name_H-M "I 41 2 2"
_symmetry_group_IT_number 98
_symmetry_cell_setting 'tetragonal'
loop_
_space_group_symop_operation_xyz
x,y,z
-y,1/2+x,1/4+z
-x,-y,z
y,1/2-x,1/4+z
x,1/2-y,1/4-z
-x,1/2+y,1/4-z
y,x,-z
-y,-x,-z
1/2+x,1/2+y,1/2+z
1/2-y,x,3/4+z
1/2-x,1/2-y,1/2+z
1/2+y,-x,3/4+z
1/2+x,-y,3/4-z
1/2-x,y,3/4-z
1/2+y,1/2+x,1/2-z
1/2-y,1/2-x,1/2-z
loop_
_atom_site_type_symbol
_atom_site_label
_atom_site_fract_x
_atom_site_fract_y
_atom_site_fract_z
Si Si1 0.629559 0.355688 0.632052
Si Si2 0.233483 0.025221 0.234607
Si Si3 0.897121 0.541510 0.549792
O O1 0.673490 0.250000 0.625000
O O2 0.603844 0.396157 0.500000
O O3 0.712879 0.418461 0.690232
O O4 0.533813 0.349761 0.710504
O O5 0.250000 0.021631 0.375000
O O6 0.326172 0.063704 0.162156
O O7 0.138054 0.090207 0.220056
O O8 0.000000 0.500000 0.596159
#
# Coordination Sequence:
#
# PCOD8306351 Si02
#       3
#    16  16  16
#     4  11  23  45  70 104 134 173 231 284 355 409
#     4  11  24  44  71  99 138 184 227 283 344 416
#     4  10  24  46  71  99 140 181 227 287 346 416
#
# _framework density 22.09028
#
# number of rings (size 3 to 8) (size 9 to 14) (size 15 to 20)
#    0.000    1.333    3.333    1.000    0.000   16.667 
#    0.000    5.000    0.000    0.000    0.000    0.000 
#    0.000    0.000    0.000    0.000    0.000    0.000 
#
# Total GULP energy -297533.329181 kJ/mol
# GULP energy per Si atom -12397.222049 kJ/mol
# Density = 2.204000 g / cm^3
# Si number density = 22.090280 Si / 1000 Ang^3
#
#
#
# Elastic Constant Matrix: (Units=GPa)
#
#
# Indices 1 2 3 4 5 6 
#
# 1 114.0844 35.1307 22.7161 0.0000 0.0000 0.0000
# 2 35.1307 114.0843 22.7159 0.0000 0.0000 0.0000
# 3 22.7161 22.7159 104.1196 0.0000 0.0000 0.0000
# 4 0.0000 0.0000 0.0000 31.6303 0.0000 0.0000
# 5 0.0000 0.0000 0.0000 0.0000 31.6304 0.0000
# 6 0.0000 0.0000 0.0000 0.0000 0.0000 17.1432
#
#
#
# Elastic Compliance Matrix: (Units=1/GPa)
#
#
# Indices 1 2 3 4 5 6 
#
# 1 0.009922 -0.002744 -0.001566 0.000000 0.000000 0.000000
# 2 -0.002744 0.009922 -0.001566 0.000000 0.000000 0.000000
# 3 -0.001566 -0.001566 0.010288 0.000000 0.000000 0.000000
# 4 0.000000 0.000000 0.000000 0.031615 0.000000 0.000000
# 5 0.000000 0.000000 0.000000 0.000000 0.031615 0.000000
# 6 0.000000 0.000000 0.000000 0.000000 0.000000 0.058332
#
#
# Mechanical properties :
#
#
# Convention : Reuss Voigt Hill
#
# Bulk Modulus (GPa) = 54.40626 54.82375 54.61501
# Shear Modulus (GPa) = 29.48580 32.86249 31.17414
#
# Velocity S-wave (km/s) = 3.65744 3.86118 3.76069
# Velocity P-wave (km/s) = 6.52061 6.68956 6.60562
#
# Compressibility (1/GPa) = 0.01838024
#
# Stress axis : x y z
#
# Youngs Moduli (GPa) = 100.78484 100.78479 97.20315
#
# Poissons Ratio (x) = 0.27651 0.15224
# Poissons Ratio (y) = 0.27651 0.15224
# Poissons Ratio (z) = 0.15785 0.15785
#
# Static dielectric constant tensor:
#      x y z
#    x 4.180430 0.000000 0.000000 
#    y 0.000000 4.180420 0.000000 
#    z 0.000000 0.000000 4.100110 
# 
# 
# High freq. dielectric constant tensor:
#      x y z
#    x 1.867340 0.000000 0.000000 
#    y 0.000000 1.867340 0.000000 
#    z 0.000000 0.000000 1.878120 
# 
# From -- ./inp_files/4454.got.cif
#   From: 2010.03.12/outbox.cif.g09.slc.cpg/sg98_3_cif.got.tgz:4454.got - 2010.04.08 21:04:41.
