data_PCOD8306285
_publ_section_title
;
Structure prediction by ZEFSAII (Michael W. Deem and Ramdas Pophale) SiO2 
 PCOD8306285
Probable space group: I 41 2 2
;
_chemical_formula_sum "Si O2"
_cell_formula_units_Z 80
_cell_length_a 11.957718
_cell_length_b 11.957718
_cell_length_c 29.118950
_cell_angle_alpha 90.000000
_cell_angle_beta 90.000000
_cell_angle_gamma 90.000000
_cell_volume 4163.631879
_symmetry_space_group_name_H-M "I 41 2 2"
_symmetry_group_IT_number 98
_symmetry_cell_setting 'tetragonal'
loop_
_space_group_symop_operation_xyz
x,y,z
-y,1/2+x,1/4+z
-x,-y,z
y,1/2-x,1/4+z
x,1/2-y,1/4-z
-x,1/2+y,1/4-z
y,x,-z
-y,-x,-z
1/2+x,1/2+y,1/2+z
1/2-y,x,3/4+z
1/2-x,1/2-y,1/2+z
1/2+y,-x,3/4+z
1/2+x,-y,3/4-z
1/2-x,y,3/4-z
1/2+y,1/2+x,1/2-z
1/2-y,1/2-x,1/2-z
loop_
_atom_site_type_symbol
_atom_site_label
_atom_site_fract_x
_atom_site_fract_y
_atom_site_fract_z
Si Si1 0.838231 0.355964 0.336667
Si Si2 0.969795 0.814021 0.209371
Si Si3 0.362000 0.561095 0.196070
Si Si4 0.822037 0.912976 0.328457
Si Si5 0.258163 0.241838 0.250000
Si Si6 0.500000 0.000000 0.888847
O O1 0.750000 0.317335 0.375000
O O2 0.786919 0.450126 0.304451
O O3 0.869452 0.250907 0.305985
O O4 0.953213 0.399194 0.358556
O O5 0.852402 0.756710 0.219527
O O6 0.022873 0.882396 0.251625
O O7 0.948506 0.899707 0.168333
O O8 0.354658 0.445032 0.166438
O O9 0.457912 0.647663 0.181156
O O10 0.750000 0.900880 0.375000
O O11 0.747615 0.863121 0.285813
#
# Coordination Sequence:
#
# PCOD8306285 Si02
#       6
#    16  16  16  16   8   8
#     4  10  22  36  59  88 116 157 193 246 303 360
#     4  10  21  38  57  88 118 157 191 244 308 353
#     4  10  21  41  59  84 117 160 200 242 297 359
#     4  10  22  38  63  86 117 160 202 246 300 354
#     4  10  22  36  61  93 122 154 202 254 298 359
#     4  10  22  36  57  86 124 148 196 243 308 358
#
# _framework density 19.213996000000002
#
# number of rings (size 3 to 8) (size 9 to 14) (size 15 to 20)
#    0.000    2.000    0.000    3.600    8.400    0.800 
#    0.000    0.000    4.400    0.000    0.000    0.000 
#    0.000    0.000    0.000    0.000    0.000    0.000 
#
# Total GULP energy -495806.956545 kJ/mol
# GULP energy per Si atom -12395.173914 kJ/mol
# Density = 1.917026 g / cm^3
# Si number density = 19.213996 Si / 1000 Ang^3
#
#
#
# Elastic Constant Matrix: (Units=GPa)
#
#
# Indices 1 2 3 4 5 6 
#
# 1 103.8159 60.2131 47.5323 0.0000 0.0000 0.0000
# 2 60.2131 103.8164 47.5320 0.0000 0.0000 0.0000
# 3 47.5323 47.5320 93.6101 0.0000 0.0000 0.0000
# 4 0.0000 0.0000 0.0000 26.6933 0.0000 0.0000
# 5 0.0000 0.0000 0.0000 0.0000 26.6934 0.0000
# 6 0.0000 0.0000 0.0000 0.0000 0.0000 30.4784
#
#
#
# Elastic Compliance Matrix: (Units=1/GPa)
#
#
# Indices 1 2 3 4 5 6 
#
# 1 0.015787 -0.007148 -0.004387 0.000000 0.000000 0.000000
# 2 -0.007148 0.015786 -0.004386 0.000000 0.000000 0.000000
# 3 -0.004387 -0.004386 0.015137 0.000000 0.000000 0.000000
# 4 0.000000 0.000000 0.000000 0.037463 0.000000 0.000000
# 5 0.000000 0.000000 0.000000 0.000000 0.037463 0.000000
# 6 0.000000 0.000000 0.000000 0.000000 0.000000 0.032810
#
#
# Mechanical properties :
#
#
# Convention : Reuss Voigt Hill
#
# Bulk Modulus (GPa) = 67.25501 67.97747 67.61624
# Shear Modulus (GPa) = 26.14477 26.50400 26.32438
#
# Velocity S-wave (km/s) = 3.69279 3.71807 3.70545
# Velocity P-wave (km/s) = 7.29804 7.34085 7.31947
#
# Compressibility (1/GPa) = 0.01486878
#
# Stress axis : x y z
#
# Youngs Moduli (GPa) = 63.34523 63.34590 66.06245
#
# Poissons Ratio (x) = 0.45278 0.28978
# Poissons Ratio (y) = 0.45278 0.28977
# Poissons Ratio (z) = 0.27786 0.27786
#
# Static dielectric constant tensor:
#      x y z
#    x 3.475350 0.000000 0.000000 
#    y 0.000000 3.475350 0.000000 
#    z 0.000000 0.000000 3.590670 
# 
# 
# High freq. dielectric constant tensor:
#      x y z
#    x 1.748410 0.000000 0.000000 
#    y 0.000000 1.748410 0.000000 
#    z 0.000000 0.000000 1.749660 
# 
# From -- ./inp_files/11839.got.cif
#   From: 2010.03.12/outbox.cif.g09.slc.cpg/sg98_6_cif.got.tgz:11839.got - 2010.04.08 21:04:41.
