data_PCOD8306653
_publ_section_title
;
Structure prediction by ZEFSAII (Michael W. Deem and Ramdas Pophale) SiO2 
 PCOD8306653
Probable space group: P 4 B M
;
_chemical_formula_sum "Si O2"
_cell_formula_units_Z 56
_cell_length_a 15.165514
_cell_length_b 15.165514
_cell_length_c 11.916450
_cell_angle_alpha 90.000000
_cell_angle_beta 90.000000
_cell_angle_gamma 90.000000
_cell_volume 2740.697879
_symmetry_space_group_name_H-M "P 4 B M"
_symmetry_group_IT_number 100
_symmetry_cell_setting 'tetragonal'
loop_
_space_group_symop_operation_xyz
x,y,z
-y,x,z
-x,-y,z
y,-x,z
1/2-x,1/2+y,z
1/2+x,1/2-y,z
1/2-y,1/2-x,z
1/2+y,1/2+x,z
loop_
_atom_site_type_symbol
_atom_site_label
_atom_site_fract_x
_atom_site_fract_y
_atom_site_fract_z
Si Si1 0.959533 0.857540 0.555360
Si Si2 0.503158 0.859785 0.933839
Si Si3 0.102396 0.249585 0.767943
Si Si4 0.173299 0.812761 0.153834
Si Si5 0.239446 0.400724 0.352754
Si Si6 0.610133 0.593923 0.936968
Si Si7 0.029595 0.669361 0.179365
O O1 0.938945 0.792372 0.657353
O O2 0.949074 0.795229 0.447825
O O3 0.060046 0.892227 0.557900
O O4 0.605519 0.894482 0.926037
O O5 0.480168 0.790256 0.837129
O O6 0.442263 0.942263 0.913490
O O7 0.483463 0.818154 0.057093
O O8 0.178738 0.321263 0.740784
O O9 0.142963 0.170923 0.844491
O O10 0.261813 0.761813 0.113623
O O11 0.188586 0.868811 0.264533
O O12 0.100462 0.744874 0.192502
O O13 0.140756 0.879297 0.059837
O O14 0.180204 0.319797 0.401418
O O15 0.173643 0.464710 0.284878
O O16 0.510133 0.622433 0.919034
O O17 0.072611 0.572611 0.182278
#
# Coordination Sequence:
#
# PCOD8306653 Si02
#       7
#     8   8   8   8   8   8   8
#     4  11  25  45  65  83 110 151 198 245 294 349
#     4   9  18  34  58  88 121 156 191 230 283 347
#     4  11  22  39  62  86 115 150 193 245 298 351
#     4  10  20  34  55  84 117 152 193 243 295 348
#     4  11  22  38  60  86 117 152 194 242 293 350
#     4  11  22  35  54  83 120 158 197 239 289 354
#     4  10  20  35  58  89 123 156 192 235 288 351
#
# _framework density 20.432751
#
# number of rings (size 3 to 8) (size 9 to 14) (size 15 to 20)
#    0.000    1.571    0.000    5.571    0.000    4.286 
#    0.000    7.857    0.000    1.714    0.000    0.000 
#    0.000    0.000    0.000    0.000    0.000    0.000 
#
# Total GULP energy -694192.401570 kJ/mol
# GULP energy per Si atom -12396.292885 kJ/mol
# Density = 2.038625 g / cm^3
# Si number density = 20.432751 Si / 1000 Ang^3
#
#
#
# Elastic Constant Matrix: (Units=GPa)
#
#
# Indices 1 2 3 4 5 6 
#
# 1 99.1596 16.3160 51.7948 0.0000 0.0000 0.0005
# 2 16.3160 99.1596 51.7948 0.0000 0.0000 -0.0005
# 3 51.7948 51.7948 133.7499 0.0000 0.0000 0.0000
# 4 0.0000 0.0000 0.0000 29.3283 0.0000 0.0000
# 5 0.0000 0.0000 0.0000 0.0000 29.3283 0.0000
# 6 0.0005 -0.0005 0.0000 0.0000 0.0000 29.8874
#
#
#
# Elastic Compliance Matrix: (Units=1/GPa)
#
#
# Indices 1 2 3 4 5 6 
#
# 1 0.012670 0.000599 -0.005139 0.000000 0.000000 0.000000
# 2 0.000599 0.012670 -0.005139 0.000000 0.000000 0.000000
# 3 -0.005139 -0.005139 0.011457 0.000000 0.000000 0.000000
# 4 0.000000 0.000000 0.000000 0.034097 0.000000 0.000000
# 5 0.000000 0.000000 0.000000 0.000000 0.034097 0.000000
# 6 0.000000 0.000000 0.000000 0.000000 0.000000 0.033459
#
#
# Mechanical properties :
#
#
# Convention : Reuss Voigt Hill
#
# Bulk Modulus (GPa) = 57.33600 63.54227 60.43914
# Shear Modulus (GPa) = 30.55880 31.85306 31.20593
#
# Velocity S-wave (km/s) = 3.87147 3.95260 3.91224
# Velocity P-wave (km/s) = 6.93586 7.21086 7.07469
#
# Compressibility (1/GPa) = 0.01744105
#
# Stress axis : x y z
#
# Youngs Moduli (GPa) = 78.92503 78.92503 87.28638
#
# Poissons Ratio (x) = -0.04730 0.44853
# Poissons Ratio (y) = -0.04730 0.44853
# Poissons Ratio (z) = 0.40557 0.40557
#
# Static dielectric constant tensor:
#      x y z
#    x 3.939180 0.000000 0.000000 
#    y 0.000000 3.939180 0.000000 
#    z 0.000000 0.000000 3.626740 
# 
# 
# High freq. dielectric constant tensor:
#      x y z
#    x 1.807700 0.000000 0.000000 
#    y 0.000000 1.807700 0.000000 
#    z 0.000000 0.000000 1.786710 
# 
# From -- ./inp_files/1305.got.cif
#   From: 2010.03.12/outbox.cif.g09.slc.cpg/sg100_cif.got.tgz:1305.got - 2010.04.14 01:37:57.
