data_PCOD8306463
_publ_section_title
;
Structure prediction by ZEFSAII (Michael W. Deem and Ramdas Pophale) SiO2 
 PCOD8306463
Probable space group: P 4 M M
;
_chemical_formula_sum "Si O2"
_cell_formula_units_Z 64
_cell_length_a 13.326717
_cell_length_b 13.326717
_cell_length_c 20.706862
_cell_angle_alpha 90.000000
_cell_angle_beta 90.000000
_cell_angle_gamma 90.000000
_cell_volume 3677.567391
_symmetry_space_group_name_H-M "P 4 M M"
_symmetry_group_IT_number 99
_symmetry_cell_setting 'tetragonal'
loop_
_space_group_symop_operation_xyz
x,y,z
-y,x,z
-x,-y,z
y,-x,z
-x,y,z
x,-y,z
-y,-x,z
y,x,z
loop_
_atom_site_type_symbol
_atom_site_label
_atom_site_fract_x
_atom_site_fract_y
_atom_site_fract_z
Si Si1 0.881868 0.725508 0.295710
Si Si2 0.618327 0.778072 0.688815
Si Si3 0.217500 0.382590 0.924456
Si Si4 0.380800 0.111125 0.561433
Si Si5 0.717675 0.882598 0.804072
Si Si6 0.611214 0.880587 0.420926
Si Si7 0.118295 0.279173 0.040586
Si Si8 0.611058 0.118849 0.169473
O O1 0.835544 0.835544 0.287862
O O2 0.841038 0.679322 0.362641
O O3 0.843478 0.656650 0.236955
O O4 0.000000 0.738891 0.294770
O O5 0.500000 0.761134 0.694296
O O6 0.672242 0.672242 0.703592
O O7 0.652863 0.814299 0.617922
O O8 0.654064 0.861594 0.739518
O O9 0.242898 0.500000 0.920646
O O10 0.322456 0.322456 0.925788
O O11 0.151033 0.350712 0.863597
O O12 0.151641 0.360620 0.987831
O O13 0.500000 0.103013 0.559141
O O14 0.343941 0.151630 0.491125
O O15 0.336086 0.000000 0.574979
O O16 0.822943 0.822943 0.803659
O O17 0.742505 0.000000 0.808982
O O18 0.500000 0.835191 0.411360
O O19 0.605036 0.000000 0.418480
O O20 0.173344 0.173344 0.027583
O O21 0.153267 0.320169 0.110045
O O22 0.000000 0.259849 0.036356
O O23 0.500000 0.165725 0.162037
O O24 0.603398 0.000000 0.169763
#
# Coordination Sequence:
#
# PCOD8306463 Si02
#       8
#     8   8   8   8   8   8   8   8
#     4  10  19  29  42  62  89 121 154 186 225 277
#     4  10  20  32  47  69  96 127 163 200 239 284
#     4  10  21  36  54  77 103 132 168 207 247 290
#     4   8  14  26  45  67  89 114 147 190 239 286
#     4  10  21  36  54  77 102 128 160 197 239 289
#     4   8  14  26  44  65  88 113 145 190 239 279
#     4  10  20  33  50  74 103 134 167 200 237 285
#     4   9  17  30  48  67  87 114 150 194 240 279
#
# _framework density 17.402808
#
# number of rings (size 3 to 8) (size 9 to 14) (size 15 to 20)
#    0.000    2.625    0.000    3.000    0.000    5.375 
#    0.000    0.000    0.000    6.750    0.000    0.000 
#    0.000   14.000    0.000    0.000    0.000    0.125 
#
# Total GULP energy -793400.783901 kJ/mol
# GULP energy per Si atom -12396.887248 kJ/mol
# Density = 1.736320 g / cm^3
# Si number density = 17.402808 Si / 1000 Ang^3
#
#
#
# Elastic Constant Matrix: (Units=GPa)
#
#
# Indices 1 2 3 4 5 6 
#
# 1 88.0122 44.5690 40.0343 0.0000 0.0000 0.0000
# 2 44.5690 88.0122 40.0343 0.0000 0.0000 0.0000
# 3 40.0343 40.0343 135.6259 0.0000 0.0000 0.0000
# 4 0.0000 0.0000 0.0000 21.5372 0.0000 0.0000
# 5 0.0000 0.0000 0.0000 0.0000 21.5372 0.0000
# 6 0.0000 0.0000 0.0000 0.0000 0.0000 14.4607
#
#
#
# Elastic Compliance Matrix: (Units=1/GPa)
#
#
# Indices 1 2 3 4 5 6 
#
# 1 0.016099 -0.006920 -0.002709 0.000000 0.000000 0.000000
# 2 -0.006920 0.016099 -0.002709 0.000000 0.000000 0.000000
# 3 -0.002709 -0.002709 0.008973 0.000000 0.000000 0.000000
# 4 0.000000 0.000000 0.000000 0.046431 0.000000 0.000000
# 5 0.000000 0.000000 0.000000 0.000000 0.046431 0.000000
# 6 0.000000 0.000000 0.000000 0.000000 0.000000 0.069153
#
#
# Mechanical properties :
#
#
# Convention : Reuss Voigt Hill
#
# Bulk Modulus (GPa) = 60.63279 62.32506 61.47893
# Shear Modulus (GPa) = 21.42606 23.97452 22.70029
#
# Velocity S-wave (km/s) = 3.51263 3.71566 3.61557
# Velocity P-wave (km/s) = 7.16714 7.36880 7.26867
#
# Compressibility (1/GPa) = 0.01649273
#
# Stress axis : x y z
#
# Youngs Moduli (GPa) = 62.11684 62.11684 111.44832
#
# Poissons Ratio (x) = 0.42984 0.30196
# Poissons Ratio (y) = 0.42984 0.30196
# Poissons Ratio (z) = 0.16830 0.16830
#
# Static dielectric constant tensor:
#      x y z
#    x 2.997750 0.000000 0.000000 
#    y 0.000000 2.997750 0.000000 
#    z 0.000000 0.000000 3.672560 
# 
# 
# High freq. dielectric constant tensor:
#      x y z
#    x 1.649290 0.000000 0.000000 
#    y 0.000000 1.649290 0.000000 
#    z 0.000000 0.000000 1.697880 
# 
# From -- ./inp_files/2286.got.cif
#   From: 2010.03.12/outbox.cif.g09.slc.cpg/sg99_cif.got.tgz:2286.got - 2010.04.08 21:11:30.
