data_PCOD8306168
_publ_section_title
;
Structure prediction by ZEFSAII (Michael W. Deem and Ramdas Pophale) SiO2 
 PCOD8306168
Probable space group: I 4 2 2 
;
_chemical_formula_sum "Si O2"
_cell_formula_units_Z 96
_cell_length_a 23.565907
_cell_length_b 23.565907
_cell_length_c 8.499206
_cell_angle_alpha 90.000000
_cell_angle_beta 90.000000
_cell_angle_gamma 90.000000
_cell_volume 4720.050819
_symmetry_space_group_name_H-M "I 4 2 2 "
_symmetry_group_IT_number 97
_symmetry_cell_setting 'tetragonal'
loop_
_space_group_symop_operation_xyz
x,y,z
-y,x,z
-x,-y,z
y,-x,z
x,-y,-z
-x,y,-z
y,x,-z
-y,-x,-z
1/2+x,1/2+y,1/2+z
1/2-y,1/2+x,1/2+z
1/2-x,1/2-y,1/2+z
1/2+y,1/2-x,1/2+z
1/2+x,1/2-y,1/2-z
1/2-x,1/2+y,1/2-z
1/2+y,1/2+x,1/2-z
1/2-y,1/2-x,1/2-z
loop_
_atom_site_type_symbol
_atom_site_label
_atom_site_fract_x
_atom_site_fract_y
_atom_site_fract_z
Si Si1 0.211391 0.626441 0.815045
Si Si2 0.357311 0.503563 0.324907
Si Si3 0.388880 0.391016 0.180717
Si Si4 0.697757 0.685142 0.680089
Si Si5 0.882894 0.301575 0.315463
Si Si6 0.999871 0.727955 0.175168
O O1 0.152659 0.652659 0.750000
O O2 0.262624 0.670318 0.777125
O O3 0.221142 0.563218 0.746464
O O4 0.206212 0.621728 0.999966
O O5 0.384240 0.500000 0.500000
O O6 0.355515 0.446561 0.226112
O O7 0.396029 0.544610 0.217837
O O8 0.292402 0.521826 0.337116
O O9 0.368464 0.342883 0.299928
O O10 0.376021 0.376021 0.000000
O O11 0.703690 0.703690 0.500000
O O12 0.757949 0.661992 0.737186
O O13 0.862563 0.362563 0.250000
O O14 0.949884 0.300058 0.275861
O O15 0.000000 0.701505 0.000000
#
# Coordination Sequence:
#
# PCOD8306168 Si02
#       6
#    16  16  16  16  16  16
#     4  12  25  42  65  95 129 166 208 256 310 369
#     4  11  23  40  62  85 119 163 209 256 310 365
#     4  12  24  38  60  88 119 158 211 262 308 362
#     4  12  23  39  61  91 128 166 207 255 312 369
#     4  12  25  42  65  95 129 166 208 256 310 369
#     4  11  23  41  66  93 125 164 206 252 306 370
#
# _framework density 20.338763
#
# number of rings (size 3 to 8) (size 9 to 14) (size 15 to 20)
#    0.000    0.333    3.333    7.500    0.000    1.667 
#    0.000    1.667    0.000    0.500    0.000    3.500 
#    0.000    0.000    0.000    0.000    0.000    0.000 
#
# Total GULP energy -594983.241203 kJ/mol
# GULP energy per Si atom -12395.484192 kJ/mol
# Density = 2.029247 g / cm^3
# Si number density = 20.338763 Si / 1000 Ang^3
#
#
#
# Elastic Constant Matrix: (Units=GPa)
#
#
# Indices 1 2 3 4 5 6 
#
# 1 77.9761 41.7425 29.9211 0.0000 0.0000 0.0000
# 2 41.7425 77.9761 29.9211 0.0000 0.0000 0.0000
# 3 29.9211 29.9211 150.8480 0.0000 0.0000 0.0000
# 4 0.0000 0.0000 0.0000 33.3193 0.0000 0.0000
# 5 0.0000 0.0000 0.0000 0.0000 33.3193 0.0000
# 6 0.0000 0.0000 0.0000 0.0000 0.0000 28.0182
#
#
#
# Elastic Compliance Matrix: (Units=1/GPa)
#
#
# Indices 1 2 3 4 5 6 
#
# 1 0.018435 -0.009163 -0.001839 0.000000 0.000000 0.000000
# 2 -0.009163 0.018435 -0.001839 0.000000 0.000000 0.000000
# 3 -0.001839 -0.001839 0.007359 0.000000 0.000000 0.000000
# 4 0.000000 0.000000 0.000000 0.030013 0.000000 0.000000
# 5 0.000000 0.000000 0.000000 0.000000 0.030013 0.000000
# 6 0.000000 0.000000 0.000000 0.000000 0.000000 0.035691
#
#
# Mechanical properties :
#
#
# Convention : Reuss Voigt Hill
#
# Bulk Modulus (GPa) = 53.91826 56.66329 55.29078
# Shear Modulus (GPa) = 29.10168 32.61242 30.85705
#
# Velocity S-wave (km/s) = 3.78676 4.00867 3.89929
# Velocity P-wave (km/s) = 6.75922 7.02468 6.89323
#
# Compressibility (1/GPa) = 0.01854659
#
# Stress axis : x y z
#
# Youngs Moduli (GPa) = 54.24323 54.24323 135.89180
#
# Poissons Ratio (x) = 0.49704 0.24993
# Poissons Ratio (y) = 0.49704 0.24993
# Poissons Ratio (z) = 0.09976 0.09976
#
# Static dielectric constant tensor:
#      x y z
#    x 3.796650 0.000000 0.000000 
#    y 0.000000 3.796650 0.000000 
#    z 0.000000 0.000000 4.464130 
# 
# 
# High freq. dielectric constant tensor:
#      x y z
#    x 1.787230 0.000000 0.000000 
#    y 0.000000 1.787230 0.000000 
#    z 0.000000 0.000000 1.812610 
# 
# From -- ./inp_files/2438.got.cif
#   From: 2010.03.12/outbox.cif.g09.slc.cpg/sg97_2_cif.got.tgz:2438.got - 2010.04.08 20:59:42.
