data_PCOD8306509
_publ_section_title
;
Structure prediction by ZEFSAII (Michael W. Deem and Ramdas Pophale) SiO2 
 PCOD8306509
Probable space group: P 4 M M
;
_chemical_formula_sum "Si O2"
_cell_formula_units_Z 40
_cell_length_a 15.862153
_cell_length_b 15.862153
_cell_length_c 9.181049
_cell_angle_alpha 90.000000
_cell_angle_beta 90.000000
_cell_angle_gamma 90.000000
_cell_volume 2310.024438
_symmetry_space_group_name_H-M "P 4 M M"
_symmetry_group_IT_number 99
_symmetry_cell_setting 'tetragonal'
loop_
_space_group_symop_operation_xyz
x,y,z
-y,x,z
-x,-y,z
y,-x,z
-x,y,z
x,-y,z
-y,-x,z
y,x,z
loop_
_atom_site_type_symbol
_atom_site_label
_atom_site_fract_x
_atom_site_fract_y
_atom_site_fract_z
Si Si1 0.906296 0.404143 0.339970
Si Si2 0.092866 0.774806 0.789842
Si Si3 0.338772 0.206848 0.591082
Si Si4 0.266539 0.406891 0.879516
Si Si5 0.354965 0.095266 0.025286
O O1 0.898226 0.500000 0.285437
O O2 0.836337 0.389380 0.461705
O O3 0.890627 0.345904 0.198597
O O4 0.000000 0.387232 0.404507
O O5 0.134483 0.865518 0.795685
O O6 0.137463 0.713236 0.677802
O O7 0.000000 0.788103 0.729800
O O8 0.095654 0.737144 0.952865
O O9 0.276078 0.276078 0.521997
O O10 0.400957 0.251654 0.705864
O O11 0.305334 0.500000 0.911413
O O12 0.332256 0.332256 0.929636
O O13 0.175281 0.404602 0.958941
O O14 0.395375 0.000000 0.996608
#
# Coordination Sequence:
#
# PCOD8306509 Si02
#       5
#     8   8   8   8   8
#     4  10  19  30  46  70  96 119 147 185 230 280
#     4   9  17  30  47  67  92 122 156 192 230 274
#     4   9  18  31  47  67  92 122 154 189 230 276
#     4  10  20  34  51  71  96 127 163 200 238 281
#     4   9  18  32  49  70  97 125 154 191 237 287
#
# _framework density 17.315835
#
# number of rings (size 3 to 8) (size 9 to 14) (size 15 to 20)
#    0.000    2.600    0.000    3.600    0.000    4.000 
#    0.000    0.000    0.000    0.000    0.000    0.000 
#    0.000    9.600    0.000    0.000    0.000    0.000 
#
# Total GULP energy -495536.321504 kJ/mol
# GULP energy per Si atom -12388.408038 kJ/mol
# Density = 1.727642 g / cm^3
# Si number density = 17.315835 Si / 1000 Ang^3
#
#
#
# Elastic Constant Matrix: (Units=GPa)
#
#
# Indices 1 2 3 4 5 6 
#
# 1 80.8602 39.1608 16.7555 0.0000 0.0000 -0.0004
# 2 39.1608 80.8602 16.7555 0.0000 0.0000 0.0004
# 3 16.7555 16.7555 61.5267 0.0000 0.0000 0.0000
# 4 0.0000 0.0000 0.0000 16.3591 0.0000 0.0000
# 5 0.0000 0.0000 0.0000 0.0000 16.3591 0.0000
# 6 -0.0004 0.0004 0.0000 0.0000 0.0000 19.0608
#
#
#
# Elastic Compliance Matrix: (Units=1/GPa)
#
#
# Indices 1 2 3 4 5 6 
#
# 1 0.016499 -0.007482 -0.002456 0.000000 0.000000 0.000001
# 2 -0.007482 0.016499 -0.002456 0.000000 0.000000 -0.000001
# 3 -0.002456 -0.002456 0.017591 0.000000 0.000000 0.000000
# 4 0.000000 0.000000 0.000000 0.061128 0.000000 0.000000
# 5 0.000000 0.000000 0.000000 0.000000 0.061128 0.000000
# 6 0.000001 -0.000001 0.000000 0.000000 0.000000 0.052464
#
#
# Mechanical properties :
#
#
# Convention : Reuss Voigt Hill
#
# Bulk Modulus (GPa) = 38.75553 40.95452 39.85503
# Shear Modulus (GPa) = 19.32764 20.39414 19.86089
#
# Velocity S-wave (km/s) = 3.34456 3.43559 3.39038
# Velocity P-wave (km/s) = 6.11105 6.28017 6.19619
#
# Compressibility (1/GPa) = 0.02580277
#
# Stress axis : x y z
#
# Youngs Moduli (GPa) = 60.60846 60.60846 56.84840
#
# Poissons Ratio (x) = 0.45346 0.13961
# Poissons Ratio (y) = 0.45346 0.13961
# Poissons Ratio (z) = 0.14884 0.14884
#
# Static dielectric constant tensor:
#      x y z
#    x 3.237680 0.000000 0.000000 
#    y 0.000000 3.237680 0.000000 
#    z 0.000000 0.000000 3.061180 
# 
# 
# High freq. dielectric constant tensor:
#      x y z
#    x 1.661640 0.000000 0.000000 
#    y 0.000000 1.661640 0.000000 
#    z 0.000000 0.000000 1.653720 
# 
# From -- ./inp_files/784.got.cif
#   From: 2010.03.12/outbox.cif.g09.slc.cpg/sg99_cif.got.tgz:784.got - 2010.04.08 21:11:30.
