data_PCOD8306462
_publ_section_title
;
Structure prediction by ZEFSAII (Michael W. Deem and Ramdas Pophale) SiO2 
 PCOD8306462
Probable space group: P 4 M M
;
_chemical_formula_sum "Si O2"
_cell_formula_units_Z 48
_cell_length_a 13.563426
_cell_length_b 13.563426
_cell_length_c 15.527961
_cell_angle_alpha 90.000000
_cell_angle_beta 90.000000
_cell_angle_gamma 90.000000
_cell_volume 2856.625023
_symmetry_space_group_name_H-M "P 4 M M"
_symmetry_group_IT_number 99
_symmetry_cell_setting 'tetragonal'
loop_
_space_group_symop_operation_xyz
x,y,z
-y,x,z
-x,-y,z
y,-x,z
-x,y,z
x,-y,z
-y,-x,z
y,x,z
loop_
_atom_site_type_symbol
_atom_site_label
_atom_site_fract_x
_atom_site_fract_y
_atom_site_fract_z
Si Si1 0.882845 0.609342 0.894560
Si Si2 0.383692 0.774953 0.249272
Si Si3 0.609664 0.116648 0.563580
Si Si4 0.116276 0.272212 0.730285
Si Si5 0.723791 0.116255 0.394467
Si Si6 0.382938 0.109276 0.082809
O O1 0.838114 0.500000 0.880068
O O2 0.844879 0.679995 0.819018
O O3 0.000000 0.602162 0.890805
O O4 0.851562 0.651909 0.988605
O O5 0.500000 0.755546 0.253834
O O6 0.328126 0.671875 0.266448
O O7 0.353526 0.856108 0.319828
O O8 0.348747 0.815789 0.156551
O O9 0.500000 0.162936 0.556345
O O10 0.657746 0.151608 0.652782
O O11 0.676331 0.151928 0.484152
O O12 0.601316 0.000000 0.561844
O O13 0.165755 0.165755 0.719721
O O14 0.000000 0.254975 0.729109
O O15 0.827128 0.172873 0.381107
O O16 0.745368 0.000000 0.392375
O O17 0.500000 0.101025 0.081548
O O18 0.338792 0.000000 0.101160
#
# Coordination Sequence:
#
# PCOD8306462 Si02
#       6
#     8   8   8   8   8   8
#     4   8  14  26  44  65  88 113 144 187 235 275
#     4  10  20  32  47  68  93 123 159 197 238 282
#     4   9  17  30  48  67  87 113 146 186 227 262
#     4  10  19  29  42  62  89 121 154 186 224 272
#     4  10  20  33  50  73  99 126 155 186 224 273
#     4   8  14  26  45  67  89 113 144 186 235 283
#
# _framework density 16.803045000000001
#
# number of rings (size 3 to 8) (size 9 to 14) (size 15 to 20)
#    0.000    2.833    0.000    3.000    0.000    4.833 
#    0.000    0.000    0.000    3.000    0.000    0.000 
#    0.000   18.667    0.000    0.000    0.000    0.167 
#
# Total GULP energy -595000.736986 kJ/mol
# GULP energy per Si atom -12395.848687 kJ/mol
# Density = 1.676480 g / cm^3
# Si number density = 16.803045 Si / 1000 Ang^3
#
#
#
# Elastic Constant Matrix: (Units=GPa)
#
#
# Indices 1 2 3 4 5 6 
#
# 1 69.6691 36.5235 36.3310 0.0000 0.0000 0.0002
# 2 36.5235 69.6691 36.3310 0.0000 0.0000 -0.0002
# 3 36.3310 36.3310 131.1959 0.0000 0.0000 0.0000
# 4 0.0000 0.0000 0.0000 17.4234 0.0000 0.0000
# 5 0.0000 0.0000 0.0000 0.0000 17.4234 0.0000
# 6 0.0002 -0.0002 0.0000 0.0000 0.0000 14.6532
#
#
#
# Elastic Compliance Matrix: (Units=1/GPa)
#
#
# Indices 1 2 3 4 5 6 
#
# 1 0.020894 -0.009276 -0.003217 0.000000 0.000000 0.000000
# 2 -0.009276 0.020894 -0.003217 0.000000 0.000000 0.000000
# 3 -0.003217 -0.003217 0.009404 0.000000 0.000000 0.000000
# 4 0.000000 0.000000 0.000000 0.057394 0.000000 0.000000
# 5 0.000000 0.000000 0.000000 0.000000 0.057394 0.000000
# 6 0.000000 0.000000 0.000000 0.000000 0.000000 0.068244
#
#
# Mechanical properties :
#
#
# Convention : Reuss Voigt Hill
#
# Bulk Modulus (GPa) = 50.57838 54.32278 52.45058
# Shear Modulus (GPa) = 18.36641 20.65660 19.51150
#
# Velocity S-wave (km/s) = 3.30970 3.50999 3.41132
# Velocity P-wave (km/s) = 6.69116 6.98756 6.84097
#
# Compressibility (1/GPa) = 0.01977129
#
# Stress axis : x y z
#
# Youngs Moduli (GPa) = 47.86044 47.86044 106.33654
#
# Poissons Ratio (x) = 0.44394 0.34212
# Poissons Ratio (y) = 0.44394 0.34212
# Poissons Ratio (z) = 0.15398 0.15398
#
# Static dielectric constant tensor:
#      x y z
#    x 2.887370 0.000000 0.000000 
#    y 0.000000 2.887370 0.000000 
#    z 0.000000 0.000000 3.593780 
# 
# 
# High freq. dielectric constant tensor:
#      x y z
#    x 1.619420 0.000000 0.000000 
#    y 0.000000 1.619420 0.000000 
#    z 0.000000 0.000000 1.670950 
# 
# From -- ./inp_files/1709.got.cif
#   From: 2010.03.12/outbox.cif.g09.slc.cpg/sg99_cif.got.tgz:1709.got - 2010.04.08 21:11:30.
