data_PCOD8306421
_publ_section_title
;
Structure prediction by ZEFSAII (Michael W. Deem and Ramdas Pophale) SiO2 
 PCOD8306421
Probable space group: P 4 M M
;
_chemical_formula_sum "Si O2"
_cell_formula_units_Z 48
_cell_length_a 16.068305
_cell_length_b 16.068305
_cell_length_c 10.252521
_cell_angle_alpha 90.000000
_cell_angle_beta 90.000000
_cell_angle_gamma 90.000000
_cell_volume 2647.102760
_symmetry_space_group_name_H-M "P 4 M M"
_symmetry_group_IT_number 99
_symmetry_cell_setting 'tetragonal'
loop_
_space_group_symop_operation_xyz
x,y,z
-y,x,z
-x,-y,z
y,-x,z
-x,y,z
x,-y,z
-y,-x,z
y,x,z
loop_
_atom_site_type_symbol
_atom_site_label
_atom_site_fract_x
_atom_site_fract_y
_atom_site_fract_z
Si Si1 0.725382 0.589675 0.039480
Si Si2 0.206330 0.655592 0.783651
Si Si3 0.767531 0.094219 0.216808
Si Si4 0.093388 0.226578 0.912479
Si Si5 0.405982 0.158329 0.279384
Si Si6 0.593230 0.269232 0.528377
O O1 0.681910 0.500000 0.057320
O O2 0.659931 0.659931 0.073551
O O3 0.801179 0.599008 0.138022
O O4 0.759718 0.592905 0.892801
O O5 0.266072 0.733929 0.775047
O O6 0.116983 0.691672 0.827903
O O7 0.201896 0.610611 0.643512
O O8 0.836419 0.163582 0.265255
O O9 0.676421 0.100069 0.287762
O O10 0.801241 0.000000 0.244336
O O11 0.752223 0.107342 0.063824
O O12 0.147422 0.147422 0.871090
O O13 0.000000 0.202229 0.879425
O O14 0.500000 0.116692 0.296001
O O15 0.393199 0.227138 0.389767
O O16 0.500000 0.302964 0.542040
O O17 0.651526 0.348475 0.544533
#
# Coordination Sequence:
#
# PCOD8306421 Si02
#       6
#     8   8   8   8   8   8
#     4  10  18  29  47  68  94 128 166 210 257 305
#     4   9  17  31  49  69  95 129 167 202 246 307
#     4  10  19  33  55  81 110 142 176 218 267 319
#     4   9  17  30  51  77 103 132 166 207 256 313
#     4  10  20  34  53  76 103 139 180 217 257 310
#     4  10  20  33  51  74 101 135 175 218 264 314
#
# _framework density 18.133030999999999
#
# number of rings (size 3 to 8) (size 9 to 14) (size 15 to 20)
#    0.000    2.333    1.667    2.000    0.000    1.000 
#    0.000    2.500    0.000    9.000    0.000    0.000 
#    0.000    4.000    0.000    0.000    0.000    0.000 
#
# Total GULP energy -594702.453045 kJ/mol
# GULP energy per Si atom -12389.634438 kJ/mol
# Density = 1.809176 g / cm^3
# Si number density = 18.133031 Si / 1000 Ang^3
#
#
#
# Elastic Constant Matrix: (Units=GPa)
#
#
# Indices 1 2 3 4 5 6 
#
# 1 91.4292 49.5984 12.9329 0.0000 0.0000 0.0002
# 2 49.5984 91.4292 12.9329 0.0000 0.0000 -0.0002
# 3 12.9329 12.9329 47.8092 0.0000 0.0000 0.0000
# 4 0.0000 0.0000 0.0000 17.7640 0.0000 0.0000
# 5 0.0000 0.0000 0.0000 0.0000 17.7640 0.0000
# 6 0.0002 -0.0002 0.0000 0.0000 0.0000 12.0142
#
#
#
# Elastic Compliance Matrix: (Units=1/GPa)
#
#
# Indices 1 2 3 4 5 6 
#
# 1 0.015683 -0.008222 -0.002018 0.000000 0.000000 0.000000
# 2 -0.008222 0.015683 -0.002018 0.000000 0.000000 0.000000
# 3 -0.002018 -0.002018 0.022008 0.000000 0.000000 0.000000
# 4 0.000000 0.000000 0.000000 0.056294 0.000000 0.000000
# 5 0.000000 0.000000 0.000000 0.000000 0.056294 0.000000
# 6 0.000000 0.000000 0.000000 0.000000 0.000000 0.083235
#
#
# Mechanical properties :
#
#
# Convention : Reuss Voigt Hill
#
# Bulk Modulus (GPa) = 34.65332 42.39956 38.52644
# Shear Modulus (GPa) = 17.64698 19.85532 18.75115
#
# Velocity S-wave (km/s) = 3.12299 3.31264 3.21921
# Velocity P-wave (km/s) = 5.67064 6.16966 5.92541
#
# Compressibility (1/GPa) = 0.02885726
#
# Stress axis : x y z
#
# Youngs Moduli (GPa) = 63.76164 63.76164 45.43713
#
# Poissons Ratio (x) = 0.52428 0.09171
# Poissons Ratio (y) = 0.52428 0.09171
# Poissons Ratio (z) = 0.12869 0.12869
#
# Static dielectric constant tensor:
#      x y z
#    x 3.365970 0.000000 0.000000 
#    y 0.000000 3.365970 0.000000 
#    z 0.000000 0.000000 3.431960 
# 
# 
# High freq. dielectric constant tensor:
#      x y z
#    x 1.692100 0.000000 0.000000 
#    y 0.000000 1.692100 0.000000 
#    z 0.000000 0.000000 1.692590 
# 
# From -- ./inp_files/1411.got.cif
#   From: 2010.03.12/outbox.cif.g09.slc.cpg/sg99_cif.got.tgz:1411.got - 2010.04.08 21:11:30.
