data_PCOD8306201
_publ_section_title
;
Structure prediction by ZEFSAII (Michael W. Deem and Ramdas Pophale) SiO2 
 PCOD8306201
Probable space group: I 41 2 2
;
_chemical_formula_sum "Si O2"
_cell_formula_units_Z 96
_cell_length_a 24.622812
_cell_length_b 24.622812
_cell_length_c 9.040175
_cell_angle_alpha 90.000000
_cell_angle_beta 90.000000
_cell_angle_gamma 90.000000
_cell_volume 5480.903251
_symmetry_space_group_name_H-M "I 41 2 2"
_symmetry_group_IT_number 98
_symmetry_cell_setting 'tetragonal'
loop_
_space_group_symop_operation_xyz
x,y,z
-y,1/2+x,1/4+z
-x,-y,z
y,1/2-x,1/4+z
x,1/2-y,1/4-z
-x,1/2+y,1/4-z
y,x,-z
-y,-x,-z
1/2+x,1/2+y,1/2+z
1/2-y,x,3/4+z
1/2-x,1/2-y,1/2+z
1/2+y,-x,3/4+z
1/2+x,-y,3/4-z
1/2-x,y,3/4-z
1/2+y,1/2+x,1/2-z
1/2-y,1/2-x,1/2-z
loop_
_atom_site_type_symbol
_atom_site_label
_atom_site_fract_x
_atom_site_fract_y
_atom_site_fract_z
Si Si1 0.356599 0.290692 0.398300
Si Si2 0.775762 0.394255 0.023277
Si Si3 0.454879 0.310989 0.614743
Si Si4 0.563506 0.147751 0.740772
Si Si5 0.833662 0.628896 0.601835
Si Si6 0.148126 0.703339 0.023824
O O1 0.303926 0.303926 0.500000
O O2 0.408193 0.308912 0.493528
O O3 0.355561 0.227845 0.356878
O O4 0.358991 0.324559 0.249268
O O5 0.819362 0.434018 0.102913
O O6 0.805658 0.338685 0.976986
O O7 0.725475 0.381267 0.129108
O O8 0.750000 0.421253 0.875000
O O9 0.479728 0.250000 0.625000
O O10 0.501791 0.352667 0.566313
O O11 0.429657 0.333130 0.769639
O O12 0.585447 0.085447 0.750000
O O13 0.602216 0.176793 0.624582
O O14 0.870819 0.629182 0.750000
O O15 0.175955 0.750000 0.125000
#
# Coordination Sequence:
#
# PCOD8306201 Si02
#       6
#    16  16  16  16  16  16
#     4   9  18  30  47  73 105 141 166 183 221 276
#     4  10  18  26  39  62  89 116 152 201 252 301
#     4   9  17  32  51  69  97 133 164 198 241 288
#     4   9  18  33  50  66  87 123 170 210 249 295
#     4  10  19  30  48  77 107 133 161 191 226 275
#     4   9  17  27  40  59  86 121 156 192 243 309
#
# _framework density 17.515362
#
# number of rings (size 3 to 8) (size 9 to 14) (size 15 to 20)
#    0.000    2.667    0.000    5.500    0.000    4.000 
#    0.000    5.000    0.000    4.500    0.000    1.167 
#    0.000    0.000    0.000    0.000    0.000    0.000 
#
# Total GULP energy -594967.787559 kJ/mol
# GULP energy per Si atom -12395.162241 kJ/mol
# Density = 1.747550 g / cm^3
# Si number density = 17.515362 Si / 1000 Ang^3
#
#
#
# Elastic Constant Matrix: (Units=GPa)
#
#
# Indices 1 2 3 4 5 6 
#
# 1 70.6085 31.8496 26.1065 0.0000 0.0000 0.0000
# 2 31.8496 70.6095 26.1070 0.0000 0.0000 0.0000
# 3 26.1065 26.1070 108.2046 0.0000 0.0000 0.0000
# 4 0.0000 0.0000 0.0000 17.2478 0.0000 0.0000
# 5 0.0000 0.0000 0.0000 0.0000 17.2477 0.0000
# 6 0.0000 0.0000 0.0000 0.0000 0.0000 19.7144
#
#
#
# Elastic Compliance Matrix: (Units=1/GPa)
#
#
# Indices 1 2 3 4 5 6 
#
# 1 0.018464 -0.007336 -0.002685 0.000000 0.000000 0.000000
# 2 -0.007336 0.018464 -0.002685 0.000000 0.000000 0.000000
# 3 -0.002685 -0.002685 0.010537 0.000000 0.000000 0.000000
# 4 0.000000 0.000000 0.000000 0.057979 0.000000 0.000000
# 5 0.000000 0.000000 0.000000 0.000000 0.057979 0.000000
# 6 0.000000 0.000000 0.000000 0.000000 0.000000 0.050724
#
#
# Mechanical properties :
#
#
# Convention : Reuss Voigt Hill
#
# Bulk Modulus (GPa) = 45.34288 46.39430 45.86859
# Shear Modulus (GPa) = 20.25025 21.86595 21.05810
#
# Velocity S-wave (km/s) = 3.40390 3.53708 3.47113
# Velocity P-wave (km/s) = 6.43369 6.57469 6.50457
#
# Compressibility (1/GPa) = 0.02205418
#
# Stress axis : x y z
#
# Youngs Moduli (GPa) = 54.15837 54.15907 94.90050
#
# Poissons Ratio (x) = 0.39731 0.25480
# Poissons Ratio (y) = 0.39730 0.25481
# Poissons Ratio (z) = 0.14541 0.14542
#
# Static dielectric constant tensor:
#      x y z
#    x 3.133260 0.000000 0.000000 
#    y 0.000000 3.133260 0.000000 
#    z 0.000000 0.000000 9.699590 
# 
# 
# High freq. dielectric constant tensor:
#      x y z
#    x 1.650760 0.000000 0.000000 
#    y 0.000000 1.650760 0.000000 
#    z 0.000000 0.000000 1.681550 
# 
# From -- ./inp_files/3840.got.cif
#   From: 2010.03.12/outbox.cif.g09.slc.cpg/sg98_2_cif.got.tgz:3840.got - 2010.04.08 21:04:41.
