data_PCOD8306498
_publ_section_title
;
Structure prediction by ZEFSAII (Michael W. Deem and Ramdas Pophale) SiO2 
 PCOD8306498
Probable space group: P 4 M M
;
_chemical_formula_sum "Si O2"
_cell_formula_units_Z 56
_cell_length_a 13.510223
_cell_length_b 13.510223
_cell_length_c 17.979109
_cell_angle_alpha 90.000000
_cell_angle_beta 90.000000
_cell_angle_gamma 90.000000
_cell_volume 3281.657106
_symmetry_space_group_name_H-M "P 4 M M"
_symmetry_group_IT_number 99
_symmetry_cell_setting 'tetragonal'
loop_
_space_group_symop_operation_xyz
x,y,z
-y,x,z
-x,-y,z
y,-x,z
-x,y,z
x,-y,z
-y,-x,z
y,x,z
loop_
_atom_site_type_symbol
_atom_site_label
_atom_site_fract_x
_atom_site_fract_y
_atom_site_fract_z
Si Si1 0.117010 0.723065 0.625000
Si Si2 0.887181 0.270970 0.050106
Si Si3 0.117137 0.389944 0.478059
Si Si4 0.273552 0.116648 0.333284
Si Si5 0.885279 0.275701 0.882190
Si Si6 0.391004 0.117540 0.189199
Si Si7 0.779034 0.616038 0.755516
O O1 0.172128 0.827873 0.636320
O O2 0.151924 0.676655 0.546982
O O3 0.148241 0.646205 0.688682
O O4 0.000000 0.742721 0.628579
O O5 0.832481 0.167520 0.058867
O O6 0.844941 0.348507 0.110179
O O7 0.000000 0.246220 0.068257
O O8 0.874068 0.314048 0.966990
O O9 0.163496 0.500000 0.484510
O O10 0.153157 0.341549 0.401304
O O11 0.000000 0.398241 0.478532
O O12 0.166424 0.166424 0.339905
O O13 0.324209 0.153900 0.257434
O O14 0.255996 0.000000 0.335079
O O15 0.828601 0.171400 0.869804
O O16 0.836691 0.360406 0.831803
O O17 0.000000 0.258503 0.861111
O O18 0.500000 0.163813 0.198233
O O19 0.397701 0.000000 0.190554
O O20 0.754853 0.500000 0.751728
O O21 0.675773 0.675773 0.750778
#
# Coordination Sequence:
#
# PCOD8306498 Si02
#       7
#     8   8   8   8   8   8   8
#     4  10  20  33  50  74 103 133 164 196 232 279
#     4   9  17  29  45  67  96 126 155 187 223 270
#     4   9  17  30  48  68  91 122 159 196 232 269
#     4  10  19  30  45  66  93 123 154 189 231 284
#     4   9  18  31  47  70  99 130 163 196 232 279
#     4   9  17  29  44  62  86 117 153 193 234 271
#     4  10  21  36  53  73  96 123 159 203 249 295
#
# _framework density 17.064550000000001
#
# number of rings (size 3 to 8) (size 9 to 14) (size 15 to 20)
#    0.000    2.571    0.000    2.143    0.000    4.714 
#    0.000    2.857    0.000    7.714    0.000    0.000 
#    0.000   22.571    0.000    0.000    0.000    0.000 
#
# Total GULP energy -694320.105885 kJ/mol
# GULP energy per Si atom -12398.573319 kJ/mol
# Density = 1.702571 g / cm^3
# Si number density = 17.064550 Si / 1000 Ang^3
#
#
#
# Elastic Constant Matrix: (Units=GPa)
#
#
# Indices 1 2 3 4 5 6 
#
# 1 91.3886 43.7236 44.3191 0.0000 0.0000 -0.0002
# 2 43.7236 91.3886 44.3191 0.0000 0.0000 0.0002
# 3 44.3191 44.3191 123.3223 0.0000 0.0000 0.0000
# 4 0.0000 0.0000 0.0000 22.4992 0.0000 0.0000
# 5 0.0000 0.0000 0.0000 0.0000 22.4992 0.0000
# 6 -0.0002 0.0002 0.0000 0.0000 0.0000 10.9583
#
#
#
# Elastic Compliance Matrix: (Units=1/GPa)
#
#
# Indices 1 2 3 4 5 6 
#
# 1 0.015332 -0.005648 -0.003480 0.000000 0.000000 0.000000
# 2 -0.005648 0.015332 -0.003480 0.000000 0.000000 0.000000
# 3 -0.003480 -0.003480 0.010610 0.000000 0.000000 0.000000
# 4 0.000000 0.000000 0.000000 0.044446 0.000000 0.000000
# 5 0.000000 0.000000 0.000000 0.000000 0.044446 0.000000
# 6 0.000000 0.000000 0.000000 0.000000 0.000000 0.091255
#
#
# Mechanical properties :
#
#
# Convention : Reuss Voigt Hill
#
# Bulk Modulus (GPa) = 62.27485 63.42481 62.84983
# Shear Modulus (GPa) = 19.84197 22.77386 21.30792
#
# Velocity S-wave (km/s) = 3.41363 3.65714 3.53748
# Velocity P-wave (km/s) = 7.21873 7.42167 7.32090
#
# Compressibility (1/GPa) = 0.01605785
#
# Stress axis : x y z
#
# Youngs Moduli (GPa) = 65.22251 65.22251 94.24745
#
# Poissons Ratio (x) = 0.36835 0.32802
# Poissons Ratio (y) = 0.36835 0.32802
# Poissons Ratio (z) = 0.22700 0.22700
#
# Static dielectric constant tensor:
#      x y z
#    x 3.032050 0.000000 0.000000 
#    y 0.000000 3.032050 0.000000 
#    z 0.000000 0.000000 3.521980 
# 
# 
# High freq. dielectric constant tensor:
#      x y z
#    x 1.636990 0.000000 0.000000 
#    y 0.000000 1.636990 0.000000 
#    z 0.000000 0.000000 1.681380 
# 
# From -- ./inp_files/2138.got.cif
#   From: 2010.03.12/outbox.cif.g09.slc.cpg/sg99_cif.got.tgz:2138.got - 2010.04.08 21:11:30.
