data_PCOD8306069
_publ_section_title
;
Structure prediction by ZEFSAII (Michael W. Deem and Ramdas Pophale) SiO2 
 PCOD8306069
Probable space group: I 4 2 2 
;
_chemical_formula_sum "Si O2"
_cell_formula_units_Z 128
_cell_length_a 22.540375
_cell_length_b 22.540375
_cell_length_c 12.649586
_cell_angle_alpha 90.000000
_cell_angle_beta 90.000000
_cell_angle_gamma 90.000000
_cell_volume 6426.856250
_symmetry_space_group_name_H-M "I 4 2 2 "
_symmetry_group_IT_number 97
_symmetry_cell_setting 'tetragonal'
loop_
_space_group_symop_operation_xyz
x,y,z
-y,x,z
-x,-y,z
y,-x,z
x,-y,-z
-x,y,-z
y,x,-z
-y,-x,-z
1/2+x,1/2+y,1/2+z
1/2-y,1/2+x,1/2+z
1/2-x,1/2-y,1/2+z
1/2+y,1/2-x,1/2+z
1/2+x,1/2-y,1/2-z
1/2-x,1/2+y,1/2-z
1/2+y,1/2+x,1/2-z
1/2-y,1/2-x,1/2-z
loop_
_atom_site_type_symbol
_atom_site_label
_atom_site_fract_x
_atom_site_fract_y
_atom_site_fract_z
Si Si1 0.112509 0.707002 0.743883
Si Si2 0.953603 0.782232 0.088020
Si Si3 0.771428 0.848445 0.056512
Si Si4 0.342443 0.187668 0.139515
Si Si5 0.435599 0.769513 0.019307
Si Si6 0.902989 0.981702 0.786467
Si Si7 0.361443 0.420796 0.088212
Si Si8 0.181311 0.188048 0.722382
O O1 0.141107 0.641107 0.750000
O O2 0.061738 0.728447 0.828879
O O3 0.085652 0.704640 0.628666
O O4 0.164946 0.754355 0.754373
O O5 0.973998 0.843823 0.142802
O O6 0.896347 0.799354 0.021254
O O7 0.000000 0.758703 0.000000
O O8 0.699956 0.851124 0.063401
O O9 0.799378 0.857164 0.172745
O O10 0.786273 0.786273 0.000000
O O11 0.348980 0.151021 0.250000
O O12 0.309624 0.250642 0.159937
O O13 0.402827 0.202037 0.081258
O O14 0.434374 0.698398 0.023832
O O15 0.500000 0.794120 0.000000
O O16 0.881021 0.974722 0.664764
O O17 0.953368 0.931191 0.807725
O O18 0.354029 0.360593 0.155358
O O19 0.412034 0.412034 0.000000
#
# Coordination Sequence:
#
# PCOD8306069 Si02
#       8
#    16  16  16  16  16  16  16  16
#     4  11  22  40  62  92 126 162 208 258 331 410
#     4  12  27  40  65  91 123 174 223 282 342 405
#     4  11  21  35  59  88 120 158 202 261 331 387
#     4  10  22  36  59  92 126 160 204 258 323 412
#     4  11  24  38  59  93 128 168 202 252 323 395
#     4  11  27  46  60  82 118 174 247 301 325 369
#     4  11  22  37  64  80 115 160 220 272 330 382
#     4  10  20  34  56  89 115 154 197 263 321 403
#
# _framework density 19.916425
#
# number of rings (size 3 to 8) (size 9 to 14) (size 15 to 20)
#    0.000    1.125    5.000    1.875    8.750    2.000 
#    0.000    1.250    0.000    0.000    0.000    0.000 
#    0.000   21.500    0.000    0.000    0.000    0.000 
#
# Total GULP energy -792942.379219 kJ/mol
# GULP energy per Si atom -12389.724675 kJ/mol
# Density = 1.987109 g / cm^3
# Si number density = 19.916425 Si / 1000 Ang^3
#
#
#
# Elastic Constant Matrix: (Units=GPa)
#
#
# Indices 1 2 3 4 5 6 
#
# 1 66.6410 41.9266 40.3440 0.0000 0.0000 0.0000
# 2 41.9266 66.6414 40.3439 0.0000 0.0000 0.0000
# 3 40.3440 40.3439 103.6375 0.0000 0.0000 0.0000
# 4 0.0000 0.0000 0.0000 32.0706 0.0000 0.0000
# 5 0.0000 0.0000 0.0000 0.0000 32.0703 0.0000
# 6 0.0000 0.0000 0.0000 0.0000 0.0000 14.0241
#
#
#
# Elastic Compliance Matrix: (Units=1/GPa)
#
#
# Indices 1 2 3 4 5 6 
#
# 1 0.026711 -0.013751 -0.005045 0.000000 0.000000 0.000000
# 2 -0.013751 0.026711 -0.005045 0.000000 0.000000 0.000000
# 3 -0.005045 -0.005045 0.013577 0.000000 0.000000 0.000000
# 4 0.000000 0.000000 0.000000 0.031181 0.000000 0.000000
# 5 0.000000 0.000000 0.000000 0.000000 0.031182 0.000000
# 6 0.000000 0.000000 0.000000 0.000000 0.000000 0.071306
#
#
# Mechanical properties :
#
#
# Convention : Reuss Voigt Hill
#
# Bulk Modulus (GPa) = 51.76787 53.57212 52.67000
# Shear Modulus (GPa) = 19.62406 23.25336 21.43871
#
# Velocity S-wave (km/s) = 3.14239 3.42065 3.28446
# Velocity P-wave (km/s) = 6.26220 6.52364 6.39426
#
# Compressibility (1/GPa) = 0.01931700
#
# Stress axis : x y z
#
# Youngs Moduli (GPa) = 37.43735 37.43772 73.65375
#
# Poissons Ratio (x) = 0.51479 0.37161
# Poissons Ratio (y) = 0.51479 0.37160
# Poissons Ratio (z) = 0.18888 0.18888
#
# Static dielectric constant tensor:
#      x y z
#    x 3.539770 0.000000 0.000000 
#    y 0.000000 3.539770 0.000000 
#    z 0.000000 0.000000 4.038570 
# 
# 
# High freq. dielectric constant tensor:
#      x y z
#    x 1.748560 0.000000 0.000000 
#    y 0.000000 1.748560 0.000000 
#    z 0.000000 0.000000 1.801260 
# 
# From -- ./inp_files/4066.got.cif
#   From: 2010.03.12/outbox.cif.g09.slc.cpg/sg97_3_cif.got.tgz:4066.got - 2010.04.08 20:59:42.
