data_PCOD8306585
_publ_section_title
;
Structure prediction by ZEFSAII (Michael W. Deem and Ramdas Pophale) SiO2 
 PCOD8306585
Probable space group: P 4 M M
;
_chemical_formula_sum "Si O2"
_cell_formula_units_Z 56
_cell_length_a 13.330813
_cell_length_b 13.330813
_cell_length_c 18.308658
_cell_angle_alpha 90.000000
_cell_angle_beta 90.000000
_cell_angle_gamma 90.000000
_cell_volume 3253.642145
_symmetry_space_group_name_H-M "P 4 M M"
_symmetry_group_IT_number 99
_symmetry_cell_setting 'tetragonal'
loop_
_space_group_symop_operation_xyz
x,y,z
-y,x,z
-x,-y,z
y,-x,z
-x,y,z
x,-y,z
-y,-x,z
y,x,z
loop_
_atom_site_type_symbol
_atom_site_label
_atom_site_fract_x
_atom_site_fract_y
_atom_site_fract_z
Si Si1 0.882223 0.716780 0.883910
Si Si2 0.616823 0.781211 0.753060
Si Si3 0.117048 0.282019 0.618184
Si Si4 0.382058 0.111797 0.343832
Si Si5 0.221811 0.618111 0.488123
Si Si6 0.113709 0.725858 0.042703
Si Si7 0.278612 0.883080 0.199563
O O1 0.821353 0.821353 0.873359
O O2 0.840299 0.634058 0.828576
O O3 0.000000 0.737992 0.869585
O O4 0.864091 0.669144 0.965783
O O5 0.500000 0.756769 0.743626
O O6 0.675844 0.675844 0.751641
O O7 0.654095 0.853144 0.688774
O O8 0.177603 0.177603 0.615130
O O9 0.139597 0.350086 0.547639
O O10 0.000000 0.255665 0.620979
O O11 0.500000 0.106902 0.344015
O O12 0.345307 0.182701 0.409165
O O13 0.348669 0.155873 0.265296
O O14 0.337902 0.000000 0.356066
O O15 0.241005 0.500000 0.491924
O O16 0.327150 0.672851 0.504481
O O17 0.169939 0.830062 0.041520
O O18 0.139138 0.668231 0.119602
O O19 0.000000 0.759104 0.044414
O O20 0.172710 0.827291 0.204493
O O21 0.256788 0.000000 0.208904
#
# Coordination Sequence:
#
# PCOD8306585 Si02
#       7
#     8   8   8   8   8   8   8
#     4   9  17  29  45  67  95 125 158 194 232 278
#     4  10  21  36  53  73  96 123 157 196 237 280
#     4  10  21  36  54  77 103 130 160 191 224 267
#     4   9  17  29  45  64  86 115 152 192 233 277
#     4  10  20  33  50  72  96 123 157 196 238 283
#     4   8  14  24  38  58  86 119 152 186 224 267
#     4   9  16  26  41  61  87 118 149 184 226 271
#
# _framework density 17.211480999999999
#
# number of rings (size 3 to 8) (size 9 to 14) (size 15 to 20)
#    0.000    2.714    0.000    1.714    0.000    3.429 
#    0.000    3.571    0.000    7.714    0.000    2.000 
#    0.000    0.000    0.000    9.000    0.000    0.000 
#
# Total GULP energy -693815.589205 kJ/mol
# GULP energy per Si atom -12389.564093 kJ/mol
# Density = 1.717231 g / cm^3
# Si number density = 17.211481 Si / 1000 Ang^3
#
#
#
# Elastic Constant Matrix: (Units=GPa)
#
#
# Indices 1 2 3 4 5 6 
#
# 1 73.8121 31.3219 40.1823 0.0000 0.0000 0.0000
# 2 31.3219 73.8121 40.1823 0.0000 0.0000 0.0000
# 3 40.1823 40.1823 149.2957 0.0000 0.0000 0.0000
# 4 0.0000 0.0000 0.0000 21.3882 0.0000 0.0000
# 5 0.0000 0.0000 0.0000 0.0000 21.3882 0.0000
# 6 0.0000 0.0000 0.0000 0.0000 0.0000 13.7577
#
#
#
# Elastic Compliance Matrix: (Units=1/GPa)
#
#
# Indices 1 2 3 4 5 6 
#
# 1 0.017755 -0.005780 -0.003223 0.000000 0.000000 0.000000
# 2 -0.005780 0.017755 -0.003223 0.000000 0.000000 0.000000
# 3 -0.003223 -0.003223 0.008433 0.000000 0.000000 0.000000
# 4 0.000000 0.000000 0.000000 0.046755 0.000000 0.000000
# 5 0.000000 0.000000 0.000000 0.000000 0.046755 0.000000
# 6 0.000000 0.000000 0.000000 0.000000 0.000000 0.072686
#
#
# Mechanical properties :
#
#
# Convention : Reuss Voigt Hill
#
# Bulk Modulus (GPa) = 51.30460 57.81034 54.55747
# Shear Modulus (GPa) = 20.73927 23.65571 22.19749
#
# Velocity S-wave (km/s) = 3.47503 3.71133 3.59512
# Velocity P-wave (km/s) = 6.78043 7.21294 7.00002
#
# Compressibility (1/GPa) = 0.01949143
#
# Stress axis : x y z
#
# Youngs Moduli (GPa) = 56.32176 56.32176 118.58027
#
# Poissons Ratio (x) = 0.32552 0.38220
# Poissons Ratio (y) = 0.32552 0.38220
# Poissons Ratio (z) = 0.18153 0.18153
#
# Static dielectric constant tensor:
#      x y z
#    x 2.981010 0.000000 0.000000 
#    y 0.000000 2.981010 0.000000 
#    z 0.000000 0.000000 3.874680 
# 
# 
# High freq. dielectric constant tensor:
#      x y z
#    x 1.640960 0.000000 0.000000 
#    y 0.000000 1.640960 0.000000 
#    z 0.000000 0.000000 1.696820 
# 
# From -- ./inp_files/2134.got.cif
#   From: 2010.03.12/outbox.cif.g09.slc.cpg/sg99_cif.got.tgz:2134.got - 2010.04.08 21:11:30.
