data_PCOD8306745
_publ_section_title
;
Structure prediction by ZEFSAII (Michael W. Deem and Ramdas Pophale) SiO2 
 PCOD8306745
Probable space group: P 42 C M
;
_chemical_formula_sum "Si O2"
_cell_formula_units_Z 32
_cell_length_a 10.018303
_cell_length_b 10.018303
_cell_length_c 15.642993
_cell_angle_alpha 90.000000
_cell_angle_beta 90.000000
_cell_angle_gamma 90.000000
_cell_volume 1570.030814
_symmetry_space_group_name_H-M "P 42 C M"
_symmetry_group_IT_number 101
_symmetry_cell_setting 'tetragonal'
loop_
_space_group_symop_operation_xyz
x,y,z
-y,x,1/2+z
-x,-y,z
y,-x,1/2+z
-x,y,1/2+z
x,-y,1/2+z
-y,-x,z
y,x,z
loop_
_atom_site_type_symbol
_atom_site_label
_atom_site_fract_x
_atom_site_fract_y
_atom_site_fract_z
Si Si1 0.812699 0.403490 0.415890
Si Si2 0.279679 0.504469 0.745188
Si Si3 0.789790 0.000000 0.995187
Si Si4 0.812699 0.403490 0.074486
O O1 0.672737 0.327264 0.424744
O O2 0.814470 0.488235 0.328383
O O3 0.937750 0.300600 0.418987
O O4 0.828161 0.499998 0.495189
O O5 0.350943 0.649058 0.745187
O O6 0.388901 0.388901 0.745190
O O7 0.185531 0.488231 0.661994
O O8 0.882803 0.882803 0.035269
O O9 0.882804 0.117197 0.955104
O O10 0.699402 0.062252 0.071387
O O11 0.672736 0.327265 0.065630
#
# Coordination Sequence:
#
# PCOD8306745 Si02
#       4
#     8   8   8   8
#     4  10  19  33  55  81 109 141 176 219 273 328
#     4   9  18  32  52  83 118 144 171 214 272 337
#     4   9  19  36  54  72 101 145 192 230 262 305
#     4  10  19  33  55  81 109 141 176 219 273 328
#
# _framework density 20.381765000000001
#
# number of rings (size 3 to 8) (size 9 to 14) (size 15 to 20)
#    0.000    2.500    0.000    2.250    0.000    2.500 
#    0.000    6.250    0.000   13.500    0.000    0.000 
#    0.000    0.000    0.000    0.000    0.000    0.000 
#
# Total GULP energy -396605.356368 kJ/mol
# GULP energy per Si atom -12393.917387 kJ/mol
# Density = 2.033538 g / cm^3
# Si number density = 20.381765 Si / 1000 Ang^3
#
#
#
# Elastic Constant Matrix: (Units=GPa)
#
#
# Indices 1 2 3 4 5 6 
#
# 1 102.9406 56.9721 71.3523 0.0000 0.0000 -0.0001
# 2 56.9721 102.9406 71.3523 0.0000 0.0000 0.0001
# 3 71.3523 71.3523 171.9373 0.0000 0.0000 0.0000
# 4 0.0000 0.0000 0.0000 8.9012 0.0000 0.0000
# 5 0.0000 0.0000 0.0000 0.0000 8.9012 0.0000
# 6 -0.0001 0.0001 0.0000 0.0000 0.0000 27.5604
#
#
#
# Elastic Compliance Matrix: (Units=1/GPa)
#
#
# Indices 1 2 3 4 5 6 
#
# 1 0.015843 -0.005911 -0.004121 0.000000 0.000000 0.000000
# 2 -0.005911 0.015843 -0.004121 0.000000 0.000000 0.000000
# 3 -0.004121 -0.004121 0.009237 0.000000 0.000000 0.000000
# 4 0.000000 0.000000 0.000000 0.112344 0.000000 0.000000
# 5 0.000000 0.000000 0.000000 0.000000 0.112344 0.000000
# 6 0.000000 0.000000 0.000000 0.000000 0.000000 0.036284
#
#
# Mechanical properties :
#
#
# Convention : Reuss Voigt Hill
#
# Bulk Modulus (GPa) = 79.27835 86.35243 82.81539
# Shear Modulus (GPa) = 14.95185 20.94870 17.95027
#
# Velocity S-wave (km/s) = 2.71142 3.20943 2.97088
# Velocity P-wave (km/s) = 6.98452 7.49623 7.24489
#
# Compressibility (1/GPa) = 0.01261378
#
# Stress axis : x y z
#
# Youngs Moduli (GPa) = 63.12069 63.12069 108.26318
#
# Poissons Ratio (x) = 0.37313 0.44620
# Poissons Ratio (y) = 0.37313 0.44620
# Poissons Ratio (z) = 0.26015 0.26015
#
# Static dielectric constant tensor:
#      x y z
#    x 3.922760 0.000000 0.000000 
#    y 0.000000 3.922760 0.000000 
#    z 0.000000 0.000000 3.608640 
# 
# 
# High freq. dielectric constant tensor:
#      x y z
#    x 1.800940 0.000000 0.000000 
#    y 0.000000 1.800940 0.000000 
#    z 0.000000 0.000000 1.763110 
# 
# From -- ./inp_files/1078.got.cif
#   From: 2010.03.12/outbox.cif.g09.slc.cpg/sg101_1_cif.got.tgz:1078.got - 2010.04.14 01:38:52.
