data_PCOD8306812
_publ_section_title
;
Structure prediction by ZEFSAII (Michael W. Deem and Ramdas Pophale) SiO2 
 PCOD8306812
Probable space group: P 42 C M
;
_chemical_formula_sum "Si O2"
_cell_formula_units_Z 64
_cell_length_a 19.991097
_cell_length_b 19.991097
_cell_length_c 8.695171
_cell_angle_alpha 90.000000
_cell_angle_beta 90.000000
_cell_angle_gamma 90.000000
_cell_volume 3474.972565
_symmetry_space_group_name_H-M "P 42 C M"
_symmetry_group_IT_number 101
_symmetry_cell_setting 'tetragonal'
loop_
_space_group_symop_operation_xyz
x,y,z
-y,x,1/2+z
-x,-y,z
y,-x,1/2+z
-x,y,1/2+z
x,-y,1/2+z
-y,-x,z
y,x,z
loop_
_atom_site_type_symbol
_atom_site_label
_atom_site_fract_x
_atom_site_fract_y
_atom_site_fract_z
Si Si1 0.444903 0.830923 0.129130
Si Si2 0.450417 0.343207 0.340401
Si Si3 0.418918 0.685149 0.191998
Si Si4 0.251331 0.978357 0.403255
Si Si5 0.282398 0.179334 0.358657
Si Si6 0.801442 0.428508 0.785965
Si Si7 0.186819 0.917237 0.692465
Si Si8 0.680937 0.084298 0.114196
O O1 0.415993 0.765609 0.220822
O O2 0.520634 0.846415 0.184986
O O3 0.397041 0.896363 0.143409
O O4 0.455027 0.809559 0.956374
O O5 0.406569 0.406569 0.283648
O O6 0.528844 0.352886 0.304183
O O7 0.440389 0.331453 0.519465
O O8 0.429035 0.277097 0.242440
O O9 0.345561 0.654440 0.225826
O O10 0.206846 0.935755 0.519431
O O11 0.287984 0.930339 0.281043
O O12 0.196751 0.022223 0.311159
O O13 0.307310 0.021538 0.497325
O O14 0.255770 0.255770 0.379319
O O15 0.353088 0.172739 0.273107
O O16 0.234121 0.142094 0.244250
O O17 0.284619 0.147930 0.530615
O O18 0.110130 0.889871 0.694934
#
# Coordination Sequence:
#
# PCOD8306812 Si02
#       8
#     8   8   8   8   8   8   8   8
#     4   9  18  31  49  68  91 129 169 205 254 306
#     4   9  17  29  44  61  85 121 159 197 250 304
#     4   9  18  31  45  64  90 119 158 207 250 296
#     4   9  18  34  55  78 108 136 164 207 249 293
#     4   9  17  30  51  78 103 130 168 211 258 310
#     4   9  17  30  47  68  95 126 164 214 257 296
#     4   9  18  33  54  79 105 135 166 197 240 290
#     4   9  18  32  53  76 101 134 168 206 254 303
#
# _framework density 18.417413
#
# number of rings (size 3 to 8) (size 9 to 14) (size 15 to 20)
#    0.000    3.000    0.000    0.375    0.000    5.250 
#    0.000    3.125    0.000   31.875    0.000    0.000 
#    0.000    0.000    0.000    0.000    0.000    0.000 
#
# Total GULP energy -792897.604902 kJ/mol
# GULP energy per Si atom -12389.025077 kJ/mol
# Density = 1.837549 g / cm^3
# Si number density = 18.417413 Si / 1000 Ang^3
#
#
#
# Elastic Constant Matrix: (Units=GPa)
#
#
# Indices 1 2 3 4 5 6 
#
# 1 71.8822 54.8482 32.1237 0.0000 0.0000 -0.0004
# 2 54.8482 71.8822 32.1237 0.0000 0.0000 0.0004
# 3 32.1237 32.1237 63.2840 0.0000 0.0000 0.0000
# 4 0.0000 0.0000 0.0000 17.8825 0.0000 0.0000
# 5 0.0000 0.0000 0.0000 0.0000 17.8825 0.0000
# 6 -0.0004 0.0004 0.0000 0.0000 0.0000 30.5422
#
#
#
# Elastic Compliance Matrix: (Units=1/GPa)
#
#
# Indices 1 2 3 4 5 6 
#
# 1 0.034666 -0.024041 -0.005393 0.000000 0.000000 0.000001
# 2 -0.024041 0.034666 -0.005393 0.000000 0.000000 -0.000001
# 3 -0.005393 -0.005393 0.021277 0.000000 0.000000 0.000000
# 4 0.000000 0.000000 0.000000 0.055921 0.000000 0.000000
# 5 0.000000 0.000000 0.000000 0.000000 0.055921 0.000000
# 6 0.000001 -0.000001 0.000000 0.000000 0.000000 0.032742
#
#
# Mechanical properties :
#
#
# Convention : Reuss Voigt Hill
#
# Bulk Modulus (GPa) = 47.72412 49.47106 48.59759
# Shear Modulus (GPa) = 16.03432 19.12494 17.57963
#
# Velocity S-wave (km/s) = 2.95381 3.22594 3.09287
# Velocity P-wave (km/s) = 6.13205 6.38709 6.26087
#
# Compressibility (1/GPa) = 0.02095377
#
# Stress axis : x y z
#
# Youngs Moduli (GPa) = 28.84699 28.84699 46.99849
#
# Poissons Ratio (x) = 0.69350 0.25348
# Poissons Ratio (y) = 0.69350 0.25348
# Poissons Ratio (z) = 0.15558 0.15558
#
# Static dielectric constant tensor:
#      x y z
#    x 3.492840 0.000000 0.000000 
#    y 0.000000 3.492840 0.000000 
#    z 0.000000 0.000000 3.312840 
# 
# 
# High freq. dielectric constant tensor:
#      x y z
#    x 1.701580 0.000000 0.000000 
#    y 0.000000 1.701580 0.000000 
#    z 0.000000 0.000000 1.707450 
# 
# From -- ./inp_files/829.got.cif
#   From: 2010.03.12/outbox.cif.g09.slc.cpg/sg101_1_cif.got.tgz:829.got - 2010.04.14 01:38:52.
