data_PCOD8306821
_publ_section_title
;
Structure prediction by ZEFSAII (Michael W. Deem and Ramdas Pophale) SiO2 
 PCOD8306821
Probable space group: P 42 N M
;
_chemical_formula_sum "Si O2"
_cell_formula_units_Z 56
_cell_length_a 11.535788
_cell_length_b 11.535788
_cell_length_c 23.383085
_cell_angle_alpha 90.000000
_cell_angle_beta 90.000000
_cell_angle_gamma 90.000000
_cell_volume 3111.690118
_symmetry_space_group_name_H-M "P 42 N M"
_symmetry_group_IT_number 102
_symmetry_cell_setting 'tetragonal'
loop_
_space_group_symop_operation_xyz
x,y,z
1/2-y,1/2+x,1/2+z
-x,-y,z
1/2+y,1/2-x,1/2+z
1/2-x,1/2+y,1/2+z
1/2+x,1/2-y,1/2+z
-y,-x,z
y,x,z
loop_
_atom_site_type_symbol
_atom_site_label
_atom_site_fract_x
_atom_site_fract_y
_atom_site_fract_z
Si Si1 0.935125 0.740989 0.533270
Si Si2 0.748991 0.440976 0.703706
Si Si3 0.668333 0.998017 0.999787
Si Si4 0.417901 0.106596 0.110797
Si Si5 0.001978 0.190808 0.323085
Si Si6 0.904741 0.095260 0.009544
Si Si7 0.598245 0.598245 0.636311
Si Si8 0.218921 0.405421 0.935936
O O1 0.824906 0.824906 0.542991
O O2 0.907709 0.612106 0.509646
O O3 0.006237 0.720557 0.592716
O O4 0.019874 0.788902 0.484062
O O5 0.635429 0.364572 0.708656
O O6 0.849626 0.370446 0.670244
O O7 0.777553 0.478187 0.768884
O O8 0.715263 0.554630 0.667046
O O9 0.671866 0.923608 0.059009
O O10 0.794141 0.040312 0.978136
O O11 0.615631 0.916325 0.950474
O O12 0.500000 0.000000 0.124392
O O13 0.117196 0.117196 0.337522
O O14 0.973984 0.273507 0.376341
O O15 0.896476 0.103525 0.308993
O O16 0.864059 0.135942 0.072682
O O17 0.000000 0.000000 0.014419
O O18 0.500000 0.500000 0.634731
O O19 0.281634 0.281634 0.931210
#
# Coordination Sequence:
#
# PCOD8306821 Si02
#       8
#     8   8   8   8   8   4   4   8
#     4  10  20  35  52  70 101 147 184 212 258 316
#     4  10  17  29  49  74 103 132 164 208 264 321
#     4  10  19  33  49  72 103 140 172 213 263 319
#     4   9  19  31  45  70 103 132 167 209 260 311
#     4   9  17  30  49  74 104 137 171 214 270 325
#     4  11  18  26  48  80 107 133 163 207 267 324
#     4   9  16  24  44  78 104 125 155 195 256 324
#     4  10  20  33  50  74 104 136 176 224 264 312
#
# _framework density 17.996649999999999
#
# number of rings (size 3 to 8) (size 9 to 14) (size 15 to 20)
#    0.000    2.286    2.857    2.143    0.000    3.143 
#    0.000    1.429    0.000    0.000    0.000    0.000 
#    0.000    0.000    0.000    0.429    0.000    0.000 
#
# Total GULP energy -693942.849808 kJ/mol
# GULP energy per Si atom -12391.836604 kJ/mol
# Density = 1.795569 g / cm^3
# Si number density = 17.996650 Si / 1000 Ang^3
#
#
#
# Elastic Constant Matrix: (Units=GPa)
#
#
# Indices 1 2 3 4 5 6 
#
# 1 76.1158 26.1921 43.5172 0.0000 0.0000 0.0000
# 2 26.1921 76.1158 43.5172 0.0000 0.0000 0.0000
# 3 43.5172 43.5172 122.0818 0.0000 0.0000 0.0000
# 4 0.0000 0.0000 0.0000 26.9135 0.0000 0.0000
# 5 0.0000 0.0000 0.0000 0.0000 26.9135 0.0000
# 6 0.0000 0.0000 0.0000 0.0000 0.0000 24.7154
#
#
#
# Elastic Compliance Matrix: (Units=1/GPa)
#
#
# Indices 1 2 3 4 5 6 
#
# 1 0.017029 -0.003001 -0.005001 0.000000 0.000000 0.000000
# 2 -0.003001 0.017029 -0.005001 0.000000 0.000000 0.000000
# 3 -0.005001 -0.005001 0.011756 0.000000 0.000000 0.000000
# 4 0.000000 0.000000 0.000000 0.037156 0.000000 0.000000
# 5 0.000000 0.000000 0.000000 0.000000 0.037156 0.000000
# 6 0.000000 0.000000 0.000000 0.000000 0.000000 0.040461
#
#
# Mechanical properties :
#
#
# Convention : Reuss Voigt Hill
#
# Bulk Modulus (GPa) = 50.47740 55.64070 53.05905
# Shear Modulus (GPa) = 25.88047 26.44762 26.16404
#
# Velocity S-wave (km/s) = 3.79631 3.83768 3.81705
# Velocity P-wave (km/s) = 6.87932 7.11487 6.99809
#
# Compressibility (1/GPa) = 0.01981085
#
# Stress axis : x y z
#
# Youngs Moduli (GPa) = 58.72167 58.72167 85.06139
#
# Poissons Ratio (x) = 0.17623 0.42535
# Poissons Ratio (y) = 0.17623 0.42535
# Poissons Ratio (z) = 0.29364 0.29364
#
# Static dielectric constant tensor:
#      x y z
#    x 3.116350 0.000000 0.000000 
#    y 0.000000 3.116350 0.000000 
#    z 0.000000 0.000000 3.291590 
# 
# 
# High freq. dielectric constant tensor:
#      x y z
#    x 1.681750 0.000000 0.000000 
#    y 0.000000 1.681750 0.000000 
#    z 0.000000 0.000000 1.673020 
# 
# From -- ./inp_files/3359.got.cif
#   From: 2010.03.12/outbox.cif.g09.slc.cpg/sg102_2_cif.got.tgz:3359.got - 2010.04.14 01:40:42.
