data_PCOD8306422
_publ_section_title
;
Structure prediction by ZEFSAII (Michael W. Deem and Ramdas Pophale) SiO2 
 PCOD8306422
Probable space group: P 4 M M
;
_chemical_formula_sum "Si O2"
_cell_formula_units_Z 64
_cell_length_a 17.186176
_cell_length_b 17.186176
_cell_length_c 12.537848
_cell_angle_alpha 90.000000
_cell_angle_beta 90.000000
_cell_angle_gamma 90.000000
_cell_volume 3703.237030
_symmetry_space_group_name_H-M "P 4 M M"
_symmetry_group_IT_number 99
_symmetry_cell_setting 'tetragonal'
loop_
_space_group_symop_operation_xyz
x,y,z
-y,x,z
-x,-y,z
y,-x,z
-x,y,z
x,-y,z
-y,-x,z
y,x,z
loop_
_atom_site_type_symbol
_atom_site_label
_atom_site_fract_x
_atom_site_fract_y
_atom_site_fract_z
Si Si1 0.275776 0.591647 0.760190
Si Si2 0.290691 0.414881 0.126449
Si Si3 0.332189 0.797443 0.959407
Si Si4 0.089502 0.214016 0.033560
Si Si5 0.914015 0.727540 0.266945
Si Si6 0.229162 0.355339 0.329018
Si Si7 0.089125 0.214123 0.499516
Si Si8 0.337242 0.791703 0.559657
O O1 0.299256 0.500000 0.768458
O O2 0.354717 0.645284 0.759119
O O3 0.217609 0.615222 0.855721
O O4 0.220592 0.603285 0.656678
O O5 0.312606 0.500000 0.088118
O O6 0.363787 0.363787 0.092289
O O7 0.276055 0.414751 0.254008
O O8 0.214569 0.385089 0.064315
O O9 0.261907 0.738094 0.961352
O O10 0.291782 0.882275 0.969037
O O11 0.138222 0.138222 0.997298
O O12 0.102903 0.223772 0.160254
O O13 0.000000 0.199942 0.003833
O O14 0.855643 0.655339 0.277834
O O15 0.905946 0.782148 0.371100
O O16 0.000000 0.690919 0.261063
O O17 0.270768 0.270768 0.327646
O O18 0.224165 0.385807 0.450363
O O19 0.138616 0.138616 0.536703
O O20 0.124514 0.293730 0.551907
O O21 0.000000 0.205534 0.538837
O O22 0.270612 0.729389 0.575761
#
# Coordination Sequence:
#
# PCOD8306422 Si02
#       8
#     8   8   8   8   8   8   8   8
#     4  10  20  35  56  79 101 123 152 196 246 297
#     4  10  19  30  47  69  93 122 155 194 239 289
#     4   9  18  33  51  70  94 129 169 197 228 284
#     4  10  18  29  48  73 102 134 168 206 246 287
#     4   9  15  24  43  69  98 130 166 206 245 285
#     4   9  15  27  46  66  93 128 167 198 226 281
#     4   9  16  26  43  69 100 133 169 208 248 288
#     4   8  16  30  48  69  94 128 167 198 230 282
#
# _framework density 17.282177000000001
#
# number of rings (size 3 to 8) (size 9 to 14) (size 15 to 20)
#    0.000    2.750    1.250    2.250    0.000    1.000 
#    0.000    0.625    0.000    8.250    0.000    7.000 
#    0.000    5.000    0.000    0.000    0.000    0.125 
#
# Total GULP energy -792917.311551 kJ/mol
# GULP energy per Si atom -12389.332993 kJ/mol
# Density = 1.724284 g / cm^3
# Si number density = 17.282177 Si / 1000 Ang^3
#
#
#
# Elastic Constant Matrix: (Units=GPa)
#
#
# Indices 1 2 3 4 5 6 
#
# 1 86.8146 46.5249 34.4987 0.0000 0.0000 -0.0001
# 2 46.5249 86.8146 34.4987 0.0000 0.0000 0.0001
# 3 34.4987 34.4987 85.4198 0.0000 0.0000 0.0000
# 4 0.0000 0.0000 0.0000 16.0269 0.0000 0.0000
# 5 0.0000 0.0000 0.0000 0.0000 16.0269 0.0000
# 6 -0.0001 0.0001 0.0000 0.0000 0.0000 14.3505
#
#
#
# Elastic Compliance Matrix: (Units=1/GPa)
#
#
# Indices 1 2 3 4 5 6 
#
# 1 0.017151 -0.007670 -0.003829 0.000000 0.000000 0.000000
# 2 -0.007670 0.017151 -0.003829 0.000000 0.000000 0.000000
# 3 -0.003829 -0.003829 0.014800 0.000000 0.000000 0.000000
# 4 0.000000 0.000000 0.000000 0.062395 0.000000 0.000000
# 5 0.000000 0.000000 0.000000 0.000000 0.062395 0.000000
# 6 0.000000 0.000000 0.000000 0.000000 0.000000 0.069684
#
#
# Mechanical properties :
#
#
# Convention : Reuss Voigt Hill
#
# Bulk Modulus (GPa) = 54.21399 54.45486 54.33443
# Shear Modulus (GPa) = 17.83300 18.84933 18.34116
#
# Velocity S-wave (km/s) = 3.21576 3.30613 3.26126
# Velocity P-wave (km/s) = 6.72504 6.79350 6.75936
#
# Compressibility (1/GPa) = 0.01844542
#
# Stress axis : x y z
#
# Youngs Moduli (GPa) = 58.30687 58.30687 67.56819
#
# Poissons Ratio (x) = 0.44719 0.25873
# Poissons Ratio (y) = 0.44719 0.25873
# Poissons Ratio (z) = 0.22327 0.22327
#
# Static dielectric constant tensor:
#      x y z
#    x 3.100890 0.000000 0.000000 
#    y 0.000000 3.100890 0.000000 
#    z 0.000000 0.000000 3.388450 
# 
# 
# High freq. dielectric constant tensor:
#      x y z
#    x 1.644950 0.000000 0.000000 
#    y 0.000000 1.644950 0.000000 
#    z 0.000000 0.000000 1.663200 
# 
# From -- ./inp_files/1612.got.cif
#   From: 2010.03.12/outbox.cif.g09.slc.cpg/sg99_cif.got.tgz:1612.got - 2010.04.08 21:11:30.
