data_PCOD8306508
_publ_section_title
;
Structure prediction by ZEFSAII (Michael W. Deem and Ramdas Pophale) SiO2 
 PCOD8306508
Probable space group: P 4 M M
;
_chemical_formula_sum "Si O2"
_cell_formula_units_Z 64
_cell_length_a 15.375247
_cell_length_b 15.375247
_cell_length_c 15.959378
_cell_angle_alpha 90.000000
_cell_angle_beta 90.000000
_cell_angle_gamma 90.000000
_cell_volume 3772.768556
_symmetry_space_group_name_H-M "P 4 M M"
_symmetry_group_IT_number 99
_symmetry_cell_setting 'tetragonal'
loop_
_space_group_symop_operation_xyz
x,y,z
-y,x,z
-x,-y,z
y,-x,z
-x,y,z
x,-y,z
-y,-x,z
y,x,z
loop_
_atom_site_type_symbol
_atom_site_label
_atom_site_fract_x
_atom_site_fract_y
_atom_site_fract_z
Si Si1 0.903176 0.691894 0.036110
Si Si2 0.897734 0.596345 0.747123
Si Si3 0.257098 0.402828 0.449746
Si Si4 0.903353 0.602496 0.557683
Si Si5 0.405326 0.262008 0.086587
Si Si6 0.637261 0.220874 0.268049
Si Si7 0.233675 0.903870 0.213631
Si Si8 0.100575 0.759032 0.853845
O O1 0.829565 0.618182 0.043374
O O2 0.894791 0.758296 0.113256
O O3 0.000000 0.648463 0.035403
O O4 0.889153 0.747613 0.952837
O O5 0.857046 0.500000 0.767073
O O6 0.875520 0.625386 0.652423
O O7 0.863003 0.671052 0.809427
O O8 0.000000 0.587706 0.758044
O O9 0.280479 0.500000 0.483815
O O10 0.339931 0.339931 0.462439
O O11 0.173077 0.361790 0.497054
O O12 0.231396 0.417175 0.352546
O O13 0.909923 0.500000 0.546227
O O14 0.000000 0.642020 0.536803
O O15 0.500000 0.291058 0.052703
O O16 0.334314 0.334314 0.062256
O O17 0.416003 0.251326 0.186850
O O18 0.723969 0.276032 0.275821
O O19 0.673526 0.123090 0.254808
O O20 0.153993 0.846007 0.245164
O O21 0.212326 0.000000 0.243525
O O22 0.159058 0.840943 0.824902
O O23 0.000000 0.777234 0.828568
#
# Coordination Sequence:
#
# PCOD8306508 Si02
#       8
#     8   8   8   8   8   8   8   8
#     4   9  18  32  47  63  86 117 152 188 225 262
#     4   8  15  29  47  66  89 116 147 186 227 260
#     4  10  19  30  46  68  93 120 149 180 217 265
#     4   8  15  29  47  66  89 116 147 185 225 261
#     4  10  19  31  47  65  89 119 149 185 226 268
#     4   8  16  30  43  58  83 115 149 181 215 255
#     4   9  16  27  43  61  85 116 148 186 229 270
#     4  10  19  30  46  68  94 122 150 180 216 263
#
# _framework density 16.963668999999999
#
# number of rings (size 3 to 8) (size 9 to 14) (size 15 to 20)
#    0.000    3.000    0.000    3.000    0.000    2.250 
#    0.000    1.250    0.000    6.750    0.000    0.000 
#    0.000    0.500    0.000    0.500    0.000    0.000 
#
# Total GULP energy -792957.417532 kJ/mol
# GULP energy per Si atom -12389.959649 kJ/mol
# Density = 1.692506 g / cm^3
# Si number density = 16.963669 Si / 1000 Ang^3
#
#
#
# Elastic Constant Matrix: (Units=GPa)
#
#
# Indices 1 2 3 4 5 6 
#
# 1 98.0484 52.9578 23.3027 0.0000 0.0000 0.0003
# 2 52.9578 98.0484 23.3027 0.0000 0.0000 -0.0003
# 3 23.3027 23.3027 40.9099 0.0000 0.0000 0.0000
# 4 0.0000 0.0000 0.0000 15.9809 0.0000 0.0000
# 5 0.0000 0.0000 0.0000 0.0000 15.9809 0.0000
# 6 0.0003 -0.0003 0.0000 0.0000 0.0000 13.4571
#
#
#
# Elastic Compliance Matrix: (Units=1/GPa)
#
#
# Indices 1 2 3 4 5 6 
#
# 1 0.015106 -0.007071 -0.004577 0.000000 0.000000 0.000000
# 2 -0.007071 0.015106 -0.004577 0.000000 0.000000 0.000000
# 3 -0.004577 -0.004577 0.029658 0.000000 0.000000 0.000000
# 4 0.000000 0.000000 0.000000 0.062575 0.000000 0.000000
# 5 0.000000 0.000000 0.000000 0.000000 0.062575 0.000000
# 6 0.000000 0.000000 0.000000 0.000000 0.000000 0.074310
#
#
# Mechanical properties :
#
#
# Convention : Reuss Voigt Hill
#
# Bulk Modulus (GPa) = 36.46894 48.45922 42.46408
# Shear Modulus (GPa) = 16.61577 18.24671 17.43124
#
# Velocity S-wave (km/s) = 3.13308 3.28324 3.20904
# Velocity P-wave (km/s) = 5.88500 6.55755 6.23035
#
# Compressibility (1/GPa) = 0.02742059
#
# Stress axis : x y z
#
# Youngs Moduli (GPa) = 66.19815 66.19815 33.71800
#
# Poissons Ratio (x) = 0.46811 0.15432
# Poissons Ratio (y) = 0.46811 0.15432
# Poissons Ratio (z) = 0.30297 0.30297
#
# Static dielectric constant tensor:
#      x y z
#    x 3.171140 0.000000 0.000000 
#    y 0.000000 3.171140 0.000000 
#    z 0.000000 0.000000 3.223130 
# 
# 
# High freq. dielectric constant tensor:
#      x y z
#    x 1.638500 0.000000 0.000000 
#    y 0.000000 1.638500 0.000000 
#    z 0.000000 0.000000 1.638660 
# 
# From -- ./inp_files/2114.got.cif
#   From: 2010.03.12/outbox.cif.g09.slc.cpg/sg99_cif.got.tgz:2114.got - 2010.04.08 21:11:30.
