data_PCOD8306360
_publ_section_title
;
Structure prediction by ZEFSAII (Michael W. Deem and Ramdas Pophale) SiO2 
 PCOD8306360
Probable space group: I 41 2 2
;
_chemical_formula_sum "Si O2"
_cell_formula_units_Z 120
_cell_length_a 20.668260
_cell_length_b 20.668260
_cell_length_c 15.701006
_cell_angle_alpha 90.000000
_cell_angle_beta 90.000000
_cell_angle_gamma 90.000000
_cell_volume 6707.108191
_symmetry_space_group_name_H-M "I 41 2 2"
_symmetry_group_IT_number 98
_symmetry_cell_setting 'tetragonal'
loop_
_space_group_symop_operation_xyz
x,y,z
-y,1/2+x,1/4+z
-x,-y,z
y,1/2-x,1/4+z
x,1/2-y,1/4-z
-x,1/2+y,1/4-z
y,x,-z
-y,-x,-z
1/2+x,1/2+y,1/2+z
1/2-y,x,3/4+z
1/2-x,1/2-y,1/2+z
1/2+y,-x,3/4+z
1/2+x,-y,3/4-z
1/2-x,y,3/4-z
1/2+y,1/2+x,1/2-z
1/2-y,1/2-x,1/2-z
loop_
_atom_site_type_symbol
_atom_site_label
_atom_site_fract_x
_atom_site_fract_y
_atom_site_fract_z
Si Si1 0.452135 0.270420 0.221413
Si Si2 0.679771 0.679771 0.500000
Si Si3 0.643131 0.567356 0.067687
Si Si4 0.009542 0.404467 0.984020
Si Si5 0.187656 0.182773 0.322033
Si Si6 0.896057 0.015110 0.222049
Si Si7 0.438499 0.176459 0.639783
Si Si8 0.399423 0.504915 0.524304
O O1 0.457474 0.250000 0.125000
O O2 0.464952 0.206451 0.276262
O O3 0.379174 0.297659 0.238679
O O4 0.507226 0.324909 0.237352
O O5 0.755597 0.665313 0.516841
O O6 0.635170 0.659452 0.580665
O O7 0.621478 0.514221 0.137406
O O8 0.662233 0.634120 0.111166
O O9 0.585881 0.585881 0.000000
O O10 0.053436 0.467616 0.984488
O O11 0.043757 0.358161 0.052217
O O12 0.933543 0.416514 0.009909
O O13 0.250000 0.205171 0.375000
O O14 0.884730 0.000620 0.123349
O O15 0.449093 0.250000 0.625000
O O16 0.487785 0.162154 0.717429
O O17 0.454789 0.454789 0.500000
O O18 0.423183 0.576817 0.500000
#
# Coordination Sequence:
#
# PCOD8306360 Si02
#       8
#    16   8  16  16  16  16  16  16
#     4  11  23  40  58  80 111 151 204 238 285 340
#     4  12  24  34  49  74 116 166 199 238 276 320
#     4  12  22  37  57  81 109 151 188 248 292 333
#     4  11  22  38  55  81 111 144 196 243 294 341
#     4  11  21  36  53  72 111 156 205 237 274 333
#     4  11  21  38  61  78 110 157 193 235 290 350
#     4  12  24  35  50  85 117 147 195 248 275 333
#     4  11  19  37  57  77 111 152 192 225 286 348
#
# _framework density 17.891466000000001
#
# number of rings (size 3 to 8) (size 9 to 14) (size 15 to 20)
#    0.000    0.667    7.333    2.800    5.600    0.000 
#    0.000    4.667    0.000    0.000    0.000    0.000 
#    0.000    6.400    0.000    0.000    0.000    0.000 
#
# Total GULP energy -743678.178256 kJ/mol
# GULP energy per Si atom -12394.636304 kJ/mol
# Density = 1.785074 g / cm^3
# Si number density = 17.891466 Si / 1000 Ang^3
#
#
#
# Elastic Constant Matrix: (Units=GPa)
#
#
# Indices 1 2 3 4 5 6 
#
# 1 68.6972 42.1116 41.8550 0.0000 0.0000 0.0000
# 2 42.1116 68.6969 41.8553 0.0000 0.0000 0.0000
# 3 41.8550 41.8553 118.6117 0.0000 0.0000 0.0000
# 4 0.0000 0.0000 0.0000 27.4878 0.0000 0.0000
# 5 0.0000 0.0000 0.0000 0.0000 27.4877 0.0000
# 6 0.0000 0.0000 0.0000 0.0000 0.0000 29.0510
#
#
#
# Elastic Compliance Matrix: (Units=1/GPa)
#
#
# Indices 1 2 3 4 5 6 
#
# 1 0.024960 -0.012655 -0.004342 0.000000 0.000000 0.000000
# 2 -0.012655 0.024960 -0.004342 0.000000 0.000000 0.000000
# 3 -0.004342 -0.004342 0.011495 0.000000 0.000000 0.000000
# 4 0.000000 0.000000 0.000000 0.036380 0.000000 0.000000
# 5 0.000000 0.000000 0.000000 0.000000 0.036380 0.000000
# 6 0.000000 0.000000 0.000000 0.000000 0.000000 0.034422
#
#
# Mechanical properties :
#
#
# Convention : Reuss Voigt Hill
#
# Bulk Modulus (GPa) = 53.37144 56.40551 54.88847
# Shear Modulus (GPa) = 22.98639 25.48422 24.23531
#
# Velocity S-wave (km/s) = 3.58826 3.77819 3.68445
# Velocity P-wave (km/s) = 6.86024 7.11533 6.98895
#
# Compressibility (1/GPa) = 0.01873661
#
# Stress axis : x y z
#
# Youngs Moduli (GPa) = 40.06487 40.06451 86.99231
#
# Poissons Ratio (x) = 0.50701 0.37772
# Poissons Ratio (y) = 0.50702 0.37773
# Poissons Ratio (z) = 0.17396 0.17397
#
# Static dielectric constant tensor:
#      x y z
#    x 3.492480 0.000000 0.000000 
#    y 0.000000 3.492480 0.000000 
#    z 0.000000 0.000000 3.621090 
# 
# 
# High freq. dielectric constant tensor:
#      x y z
#    x 1.664050 0.000000 0.000000 
#    y 0.000000 1.664050 0.000000 
#    z 0.000000 0.000000 1.710950 
# 
# From -- ./inp_files/6766.got.cif
#   From: 2010.03.12/outbox.cif.g09.slc.cpg/sg98_4_cif.got.tgz:6766.got - 2010.04.08 21:04:41.
