data_PCOD8306757
_publ_section_title
;
Structure prediction by ZEFSAII (Michael W. Deem and Ramdas Pophale) SiO2 
 PCOD8306757
Probable space group: P 42 C M
;
_chemical_formula_sum "Si O2"
_cell_formula_units_Z 64
_cell_length_a 12.477408
_cell_length_b 12.477408
_cell_length_c 22.338387
_cell_angle_alpha 90.000000
_cell_angle_beta 90.000000
_cell_angle_gamma 90.000000
_cell_volume 3477.767649
_symmetry_space_group_name_H-M "P 42 C M"
_symmetry_group_IT_number 101
_symmetry_cell_setting 'tetragonal'
loop_
_space_group_symop_operation_xyz
x,y,z
-y,x,1/2+z
-x,-y,z
y,-x,1/2+z
-x,y,1/2+z
x,-y,1/2+z
-y,-x,z
y,x,z
loop_
_atom_site_type_symbol
_atom_site_label
_atom_site_fract_x
_atom_site_fract_y
_atom_site_fract_z
Si Si1 0.142303 0.321600 0.056880
Si Si2 0.828737 0.007176 0.995533
Si Si3 0.750681 0.072855 0.374399
Si Si4 0.891822 0.567479 0.180178
Si Si5 0.415114 0.246014 0.359235
Si Si6 0.676939 0.498808 0.241738
Si Si7 0.732166 0.903541 0.280990
Si Si8 0.450908 0.885955 0.443020
O O1 0.237979 0.237979 0.068446
O O2 0.127803 0.400189 0.112036
O O3 0.028792 0.262495 0.042519
O O4 0.170319 0.392524 0.998828
O O5 0.923193 0.923193 0.000522
O O6 0.786523 0.008044 0.927343
O O7 0.874124 0.125877 0.011032
O O8 0.819636 0.180365 0.374834
O O9 0.627563 0.101623 0.386212
O O10 0.761067 0.018248 0.309532
O O11 0.785511 0.503333 0.202061
O O12 0.913824 0.675096 0.217333
O O13 0.000000 0.500000 0.186231
O O14 0.343820 0.343820 0.381950
O O15 0.503168 0.289724 0.311736
O O16 0.345003 0.156618 0.326616
O O17 0.460280 0.196157 0.419976
O O18 0.608430 0.391571 0.226911
O O19 0.605671 0.605671 0.228890
O O20 0.842441 0.842441 0.269718
O O21 0.500000 0.000000 0.462555
#
# Coordination Sequence:
#
# PCOD8306757 Si02
#       8
#     8   8   8   8   8   8   8   8
#     4  10  21  38  57  79 107 151 199 243 289 341
#     4   8  15  30  52  77 106 141 181 223 269 329
#     4  10  20  32  53  84 115 147 183 230 284 342
#     4  11  23  39  59  80 113 150 194 239 293 348
#     4   9  19  34  54  83 117 150 183 226 286 348
#     4   9  19  37  62  86 110 149 197 242 288 345
#     4  10  20  35  56  81 110 149 184 223 280 343
#     4  11  20  34  56  82 116 149 189 232 287 343
#
# _framework density 18.402609000000002
#
# number of rings (size 3 to 8) (size 9 to 14) (size 15 to 20)
#    0.000    2.250    1.250    3.750    3.500    1.750 
#    0.000    1.875    0.000    2.250    0.000    0.000 
#    0.000    0.000    0.000    0.000    0.000    0.000 
#
# Total GULP energy -793401.007916 kJ/mol
# GULP energy per Si atom -12396.890749 kJ/mol
# Density = 1.836072 g / cm^3
# Si number density = 18.402609 Si / 1000 Ang^3
#
#
#
# Elastic Constant Matrix: (Units=GPa)
#
#
# Indices 1 2 3 4 5 6 
#
# 1 74.5810 26.9286 26.0943 0.0000 0.0000 0.0001
# 2 26.9286 74.5810 26.0943 0.0000 0.0000 -0.0001
# 3 26.0943 26.0943 72.1499 0.0000 0.0000 0.0000
# 4 0.0000 0.0000 0.0000 23.5015 0.0000 0.0000
# 5 0.0000 0.0000 0.0000 0.0000 23.5015 0.0000
# 6 0.0001 -0.0001 0.0000 0.0000 0.0000 24.7714
#
#
#
# Elastic Compliance Matrix: (Units=1/GPa)
#
#
# Indices 1 2 3 4 5 6 
#
# 1 0.016543 -0.004442 -0.004377 0.000000 0.000000 0.000000
# 2 -0.004442 0.016543 -0.004377 0.000000 0.000000 0.000000
# 3 -0.004377 -0.004377 0.017026 0.000000 0.000000 0.000000
# 4 0.000000 0.000000 0.000000 0.042551 0.000000 0.000000
# 5 0.000000 0.000000 0.000000 0.000000 0.042551 0.000000
# 6 0.000000 0.000000 0.000000 0.000000 0.000000 0.040369
#
#
# Mechanical properties :
#
#
# Convention : Reuss Voigt Hill
#
# Bulk Modulus (GPa) = 42.15504 42.17179 42.16341
# Shear Modulus (GPa) = 23.82304 23.83451 23.82878
#
# Velocity S-wave (km/s) = 3.60188 3.60275 3.60232
# Velocity P-wave (km/s) = 6.34468 6.34605 6.34536
#
# Compressibility (1/GPa) = 0.02372196
#
# Stress axis : x y z
#
# Youngs Moduli (GPa) = 60.44715 60.44715 58.73419
#
# Poissons Ratio (x) = 0.26850 0.25706
# Poissons Ratio (y) = 0.26850 0.25706
# Poissons Ratio (z) = 0.26456 0.26456
#
# Static dielectric constant tensor:
#      x y z
#    x 3.487470 0.000000 0.000000 
#    y 0.000000 3.487470 0.000000 
#    z 0.000000 0.000000 3.203290 
# 
# 
# High freq. dielectric constant tensor:
#      x y z
#    x 1.709920 0.000000 0.000000 
#    y 0.000000 1.709920 0.000000 
#    z 0.000000 0.000000 1.694540 
# 
# From -- ./inp_files/2761.got.cif
#   From: 2010.03.12/outbox.cif.g09.slc.cpg/sg101_2_cif.got.tgz:2761.got - 2010.04.14 01:38:52.
