data_PCOD8306361
_publ_section_title
;
Structure prediction by ZEFSAII (Michael W. Deem and Ramdas Pophale) SiO2 
 PCOD8306361
Probable space group: I 41 2 2
;
_chemical_formula_sum "Si O2"
_cell_formula_units_Z 72
_cell_length_a 11.551317
_cell_length_b 11.551317
_cell_length_c 25.423632
_cell_angle_alpha 90.000000
_cell_angle_beta 90.000000
_cell_angle_gamma 90.000000
_cell_volume 3392.349568
_symmetry_space_group_name_H-M "I 41 2 2"
_symmetry_group_IT_number 98
_symmetry_cell_setting 'tetragonal'
loop_
_space_group_symop_operation_xyz
x,y,z
-y,1/2+x,1/4+z
-x,-y,z
y,1/2-x,1/4+z
x,1/2-y,1/4-z
-x,1/2+y,1/4-z
y,x,-z
-y,-x,-z
1/2+x,1/2+y,1/2+z
1/2-y,x,3/4+z
1/2-x,1/2-y,1/2+z
1/2+y,-x,3/4+z
1/2+x,-y,3/4-z
1/2-x,y,3/4-z
1/2+y,1/2+x,1/2-z
1/2-y,1/2-x,1/2-z
loop_
_atom_site_type_symbol
_atom_site_label
_atom_site_fract_x
_atom_site_fract_y
_atom_site_fract_z
Si Si1 0.836268 0.962970 0.800679
Si Si2 0.577078 0.291291 0.846222
Si Si3 0.000000 0.000000 0.716419
Si Si4 0.590352 0.593712 0.418318
Si Si5 0.268325 0.815602 0.551828
O O1 0.919757 0.915541 0.753808
O O2 0.705729 0.914201 0.795838
O O3 0.884337 0.935146 0.857793
O O4 0.847615 0.099943 0.789000
O O5 0.576100 0.420173 0.822615
O O6 0.461684 0.222800 0.828154
O O7 0.687934 0.221090 0.826400
O O8 0.590520 0.292257 0.909639
O O9 0.500000 0.500000 0.440522
O O10 0.188789 0.811212 0.500000
#
# Coordination Sequence:
#
# PCOD8306361 Si02
#       5
#    16  16   8  16  16
#     4  11  21  38  68  98 139 172 211 287 349 412
#     4  11  23  38  64  98 136 173 227 277 335 419
#     4  12  24  40  55  92 140 185 220 270 330 412
#     4  11  19  37  67 103 135 161 212 281 357 396
#     4  11  20  39  66  99 125 179 226 271 342 421
#
# _framework density 21.224229000000001
#
# number of rings (size 3 to 8) (size 9 to 14) (size 15 to 20)
#    0.000    0.889    7.778    1.333    0.000    0.889 
#    0.000    7.222    0.000    5.333    0.000    0.000 
#    0.000    0.000    0.000    0.000    0.000    0.000 
#
# Total GULP energy -446239.002472 kJ/mol
# GULP energy per Si atom -12395.527846 kJ/mol
# Density = 2.117592 g / cm^3
# Si number density = 21.224229 Si / 1000 Ang^3
#
#
#
# Elastic Constant Matrix: (Units=GPa)
#
#
# Indices 1 2 3 4 5 6 
#
# 1 105.1928 56.6381 41.8864 0.0000 0.0000 0.0000
# 2 56.6381 105.1929 41.8872 0.0000 0.0000 0.0000
# 3 41.8864 41.8872 102.5954 0.0000 0.0000 0.0000
# 4 0.0000 0.0000 0.0000 34.1869 0.0000 0.0000
# 5 0.0000 0.0000 0.0000 0.0000 34.1870 0.0000
# 6 0.0000 0.0000 0.0000 0.0000 0.0000 17.3926
#
#
#
# Elastic Compliance Matrix: (Units=1/GPa)
#
#
# Indices 1 2 3 4 5 6 
#
# 1 0.014215 -0.006380 -0.003199 0.000000 0.000000 0.000000
# 2 -0.006380 0.014215 -0.003199 0.000000 0.000000 0.000000
# 3 -0.003199 -0.003199 0.012359 0.000000 0.000000 0.000000
# 4 0.000000 0.000000 0.000000 0.029251 0.000000 0.000000
# 5 0.000000 0.000000 0.000000 0.000000 0.029251 0.000000
# 6 0.000000 0.000000 0.000000 0.000000 0.000000 0.057496
#
#
# Mechanical properties :
#
#
# Convention : Reuss Voigt Hill
#
# Bulk Modulus (GPa) = 65.64299 65.97829 65.81064
# Shear Modulus (GPa) = 26.67790 28.65791 27.66791
#
# Velocity S-wave (km/s) = 3.54920 3.67855 3.61446
# Velocity P-wave (km/s) = 6.91312 7.01400 6.96374
#
# Compressibility (1/GPa) = 0.01523392
#
# Stress axis : x y z
#
# Youngs Moduli (GPa) = 70.34706 70.34663 80.91217
#
# Poissons Ratio (x) = 0.44881 0.25882
# Poissons Ratio (y) = 0.44882 0.25884
# Poissons Ratio (z) = 0.22503 0.22504
#
# Static dielectric constant tensor:
#      x y z
#    x 3.778170 0.000000 0.000000 
#    y 0.000000 3.778170 0.000000 
#    z 0.000000 0.000000 4.155960 
# 
# 
# High freq. dielectric constant tensor:
#      x y z
#    x 1.806810 0.000000 0.000000 
#    y 0.000000 1.806810 0.000000 
#    z 0.000000 0.000000 1.850370 
# 
# From -- ./inp_files/10770.got.cif
#   From: 2010.03.12/outbox.cif.g09.slc.cpg/sg98_6_cif.got.tgz:10770.got - 2010.04.08 21:04:41.
