data_PCOD8306354
_publ_section_title
;
Structure prediction by ZEFSAII (Michael W. Deem and Ramdas Pophale) SiO2 
 PCOD8306354
Probable space group: I 41 2 2
;
_chemical_formula_sum "Si O2"
_cell_formula_units_Z 60
_cell_length_a 10.368148
_cell_length_b 10.368148
_cell_length_c 20.683267
_cell_angle_alpha 90.000000
_cell_angle_beta 90.000000
_cell_angle_gamma 90.000000
_cell_volume 2223.420032
_symmetry_space_group_name_H-M "I 41 2 2"
_symmetry_group_IT_number 98
_symmetry_cell_setting 'tetragonal'
loop_
_space_group_symop_operation_xyz
x,y,z
-y,1/2+x,1/4+z
-x,-y,z
y,1/2-x,1/4+z
x,1/2-y,1/4-z
-x,1/2+y,1/4-z
y,x,-z
-y,-x,-z
1/2+x,1/2+y,1/2+z
1/2-y,x,3/4+z
1/2-x,1/2-y,1/2+z
1/2+y,-x,3/4+z
1/2+x,-y,3/4-z
1/2-x,y,3/4-z
1/2+y,1/2+x,1/2-z
1/2-y,1/2-x,1/2-z
loop_
_atom_site_type_symbol
_atom_site_label
_atom_site_fract_x
_atom_site_fract_y
_atom_site_fract_z
Si Si1 0.707156 0.516277 0.609557
Si Si2 0.922849 0.632681 0.680732
Si Si3 0.000000 0.500000 0.250000
Si Si4 0.500000 0.500000 0.284630
Si Si5 0.852004 0.315899 0.547756
O O1 0.819062 0.624801 0.620749
O O2 0.628280 0.514172 0.542819
O O3 0.617343 0.543823 0.670469
O O4 0.770321 0.370106 0.609851
O O5 0.853105 0.646896 0.750000
O O6 0.000000 0.500000 0.678696
O O7 0.016315 0.756503 0.674675
O O8 0.381966 0.550933 0.241017
O O9 0.781940 0.218061 0.500000
#
# Coordination Sequence:
#
# PCOD8306354 Si02
#       5
#    16  16   4   8  16
#     4  11  25  51  84 116 172 218 287 353 429 542
#     4  11  22  46  81 126 160 212 281 353 433 512
#     4  10  24  52  84 128 158 242 294 342 452 530
#     4  11  26  49  80 118 159 220 277 350 436 523
#     4  12  25  51  86 119 164 220 288 346 443 533
#
# _framework density 26.985454000000001
#
# number of rings (size 3 to 8) (size 9 to 14) (size 15 to 20)
#    0.000    0.800    6.667    0.000    1.867    4.267 
#    0.000    5.333    2.933    0.000    0.000    0.000 
#    0.000    0.000    0.000    0.000    0.000    0.000 
#
# Total GULP energy -371668.599328 kJ/mol
# GULP energy per Si atom -12388.953311 kJ/mol
# Density = 2.692403 g / cm^3
# Si number density = 26.985454 Si / 1000 Ang^3
#
#
#
# Elastic Constant Matrix: (Units=GPa)
#
#
# Indices 1 2 3 4 5 6 
#
# 1 158.8688 87.1081 67.7171 0.0000 0.0000 0.0000
# 2 87.1081 158.8695 67.7171 0.0000 0.0000 0.0000
# 3 67.7171 67.7171 168.1775 0.0000 0.0000 0.0000
# 4 0.0000 0.0000 0.0000 28.2645 0.0000 0.0000
# 5 0.0000 0.0000 0.0000 0.0000 28.2606 0.0000
# 6 0.0000 0.0000 0.0000 0.0000 0.0000 51.4317
#
#
#
# Elastic Compliance Matrix: (Units=1/GPa)
#
#
# Indices 1 2 3 4 5 6 
#
# 1 0.009579 -0.004356 -0.002103 0.000000 0.000000 0.000000
# 2 -0.004356 0.009579 -0.002103 0.000000 0.000000 0.000000
# 3 -0.002103 -0.002103 0.007640 0.000000 0.000000 0.000000
# 4 0.000000 0.000000 0.000000 0.035380 0.000000 0.000000
# 5 0.000000 0.000000 0.000000 0.000000 0.035385 0.000000
# 6 0.000000 0.000000 0.000000 0.000000 0.000000 0.019443
#
#
# Mechanical properties :
#
#
# Convention : Reuss Voigt Hill
#
# Bulk Modulus (GPa) = 103.37194 103.44447 103.40821
# Shear Modulus (GPa) = 36.40175 39.14958 37.77566
#
# Velocity S-wave (km/s) = 3.67678 3.81302 3.74552
# Velocity P-wave (km/s) = 7.51097 7.60277 7.55701
#
# Compressibility (1/GPa) = 0.00967380
#
# Stress axis : x y z
#
# Youngs Moduli (GPa) = 104.39156 104.39214 130.89279
#
# Poissons Ratio (x) = 0.45472 0.27530
# Poissons Ratio (y) = 0.45471 0.27530
# Poissons Ratio (z) = 0.21956 0.21956
#
# Static dielectric constant tensor:
#      x y z
#    x 5.186170 0.000000 0.000000 
#    y 0.000000 5.186160 0.000000 
#    z 0.000000 0.000000 5.540950 
# 
# 
# High freq. dielectric constant tensor:
#      x y z
#    x 2.087650 0.000000 0.000000 
#    y 0.000000 2.087650 0.000000 
#    z 0.000000 0.000000 2.120610 
# 
# From -- ./inp_files/8581.got.cif
#   From: 2010.03.12/outbox.cif.g09.slc.cpg/sg98_5_cif.got.tgz:8581.got - 2010.04.08 21:04:41.
