data_PCOD8306033
_publ_section_title
;
Structure prediction by ZEFSAII (Michael W. Deem and Ramdas Pophale) SiO2 
 PCOD8306033
Probable space group: I 4 2 2 
;
_chemical_formula_sum "Si O2"
_cell_formula_units_Z 112
_cell_length_a 15.030675
_cell_length_b 15.030675
_cell_length_c 29.569572
_cell_angle_alpha 90.000000
_cell_angle_beta 90.000000
_cell_angle_gamma 90.000000
_cell_volume 6680.392922
_symmetry_space_group_name_H-M "I 4 2 2 "
_symmetry_group_IT_number 97
_symmetry_cell_setting 'tetragonal'
loop_
_space_group_symop_operation_xyz
x,y,z
-y,x,z
-x,-y,z
y,-x,z
x,-y,-z
-x,y,-z
y,x,-z
-y,-x,-z
1/2+x,1/2+y,1/2+z
1/2-y,1/2+x,1/2+z
1/2-x,1/2-y,1/2+z
1/2+y,1/2-x,1/2+z
1/2+x,1/2-y,1/2-z
1/2-x,1/2+y,1/2-z
1/2+y,1/2+x,1/2-z
1/2-y,1/2-x,1/2-z
loop_
_atom_site_type_symbol
_atom_site_label
_atom_site_fract_x
_atom_site_fract_y
_atom_site_fract_z
Si Si1 0.561802 0.634044 0.772630
Si Si2 0.615048 0.792290 0.711304
Si Si3 0.319182 0.283978 0.844621
Si Si4 0.104059 0.503143 0.639491
Si Si5 0.687220 0.099734 0.605900
Si Si6 0.899168 0.668529 0.416141
Si Si7 0.253710 0.601011 0.007301
O O1 0.457134 0.617090 0.770384
O O2 0.584032 0.697247 0.730290
O O3 0.591992 0.681302 0.819297
O O4 0.635276 0.864725 0.750000
O O5 0.707010 0.772580 0.684957
O O6 0.537078 0.835941 0.681163
O O7 0.254359 0.366026 0.855404
O O8 0.337370 0.242080 0.893412
O O9 0.137181 0.408218 0.621550
O O10 0.122748 0.567820 0.597085
O O11 0.000000 0.500000 0.653768
O O12 0.710658 0.129157 0.554860
O O13 0.690627 0.994342 0.605358
O O14 0.886400 0.676489 0.469785
O O15 0.287347 0.500000 0.000000
O O16 0.339884 0.660117 0.000000
#
# Coordination Sequence:
#
# PCOD8306033 Si02
#       7
#    16  16  16  16  16  16  16
#     4  10  21  35  50  70 100 134 170 211 257 308
#     4   9  20  35  52  73  99 129 168 218 258 305
#     4  10  18  33  52  71  97 131 168 208 252 301
#     4   9  19  34  51  76 102 129 165 209 263 309
#     4  10  19  30  53  76  97 135 169 201 257 307
#     4   9  18  33  49  71 106 129 160 213 245 302
#     4  10  19  32  49  74 104 136 169 204 247 296
#
# _framework density 16.765481000000001
#
# number of rings (size 3 to 8) (size 9 to 14) (size 15 to 20)
#    0.000    2.429    1.429    0.857    2.000    2.143 
#    0.000    2.857    0.000    0.000    0.000    0.000 
#    0.000    0.000    0.000    2.714    0.000    0.000 
#
# Total GULP energy -693987.843641 kJ/mol
# GULP energy per Si atom -12392.640065 kJ/mol
# Density = 1.672732 g / cm^3
# Si number density = 16.765481 Si / 1000 Ang^3
#
#
#
# Elastic Constant Matrix: (Units=GPa)
#
#
# Indices 1 2 3 4 5 6 
#
# 1 78.2897 36.0589 41.0231 0.0000 0.0000 0.0000
# 2 36.0589 78.2905 41.0224 0.0000 0.0000 0.0000
# 3 41.0231 41.0224 99.9725 0.0000 0.0000 0.0000
# 4 0.0000 0.0000 0.0000 23.3177 0.0000 0.0000
# 5 0.0000 0.0000 0.0000 0.0000 23.3173 0.0000
# 6 0.0000 0.0000 0.0000 0.0000 0.0000 18.3284
#
#
#
# Elastic Compliance Matrix: (Units=1/GPa)
#
#
# Indices 1 2 3 4 5 6 
#
# 1 0.018037 -0.005642 -0.005086 0.000000 0.000000 0.000000
# 2 -0.005642 0.018037 -0.005086 0.000000 0.000000 0.000000
# 3 -0.005086 -0.005086 0.014177 0.000000 0.000000 0.000000
# 4 0.000000 0.000000 0.000000 0.042886 0.000000 0.000000
# 5 0.000000 0.000000 0.000000 0.000000 0.042887 0.000000
# 6 0.000000 0.000000 0.000000 0.000000 0.000000 0.054560
#
#
# Mechanical properties :
#
#
# Convention : Reuss Voigt Hill
#
# Bulk Modulus (GPa) = 53.70081 54.75128 54.22604
# Shear Modulus (GPa) = 21.88966 22.22257 22.05612
#
# Velocity S-wave (km/s) = 3.61728 3.64468 3.63101
# Velocity P-wave (km/s) = 7.03892 7.10209 7.07058
#
# Compressibility (1/GPa) = 0.01862169
#
# Stress axis : x y z
#
# Youngs Moduli (GPa) = 55.44178 55.44303 70.53863
#
# Poissons Ratio (x) = 0.31283 0.35876
# Poissons Ratio (y) = 0.31283 0.35874
# Poissons Ratio (z) = 0.28198 0.28197
#
# Static dielectric constant tensor:
#      x y z
#    x 3.102390 0.000000 0.000000 
#    y 0.000000 3.102390 0.000000 
#    z 0.000000 0.000000 3.296230 
# 
# 
# High freq. dielectric constant tensor:
#      x y z
#    x 1.639360 0.000000 0.000000 
#    y 0.000000 1.639360 0.000000 
#    z 0.000000 0.000000 1.651650 
# 
# From -- ./inp_files/7686.got.cif
#   From: 2010.03.12/outbox.cif.g09.slc.cpg/sg97_4_cif.got.tgz:7686.got - 2010.04.08 20:59:42.
