data_PCOD8306543
_publ_section_title
;
Structure prediction by ZEFSAII (Michael W. Deem and Ramdas Pophale) SiO2 
 PCOD8306543
Probable space group: P 4 M M
;
_chemical_formula_sum "Si O2"
_cell_formula_units_Z 48
_cell_length_a 15.429596
_cell_length_b 15.429596
_cell_length_c 11.018369
_cell_angle_alpha 90.000000
_cell_angle_beta 90.000000
_cell_angle_gamma 90.000000
_cell_volume 2623.169912
_symmetry_space_group_name_H-M "P 4 M M"
_symmetry_group_IT_number 99
_symmetry_cell_setting 'tetragonal'
loop_
_space_group_symop_operation_xyz
x,y,z
-y,x,z
-x,-y,z
y,-x,z
-x,y,z
x,-y,z
-y,-x,z
y,x,z
loop_
_atom_site_type_symbol
_atom_site_label
_atom_site_fract_x
_atom_site_fract_y
_atom_site_fract_z
Si Si1 0.276259 0.406054 0.536160
Si Si2 0.904713 0.598397 0.211083
Si Si3 0.599923 0.257547 0.041915
Si Si4 0.596739 0.821478 0.783504
Si Si5 0.280852 0.853136 0.417211
Si Si6 0.904779 0.239699 0.681398
O O1 0.270196 0.500000 0.478607
O O2 0.375757 0.375757 0.536314
O O3 0.245177 0.401161 0.673676
O O4 0.223149 0.346134 0.447629
O O5 0.890909 0.500000 0.261624
O O6 0.828460 0.622854 0.118595
O O7 0.910002 0.670834 0.316738
O O8 0.000000 0.603059 0.147190
O O9 0.500000 0.286191 0.063153
O O10 0.663396 0.336604 0.079986
O O11 0.616734 0.233391 0.902982
O O12 0.500000 0.865125 0.792203
O O13 0.672659 0.891150 0.760052
O O14 0.190881 0.809120 0.369507
O O15 0.261636 0.907509 0.538465
O O16 0.831192 0.168809 0.712612
O O17 0.000000 0.203228 0.715834
#
# Coordination Sequence:
#
# PCOD8306543 Si02
#       6
#     8   8   8   8   8   8
#     4   9  16  26  42  64  91 123 156 193 237 284
#     4  10  20  32  47  69  96 125 160 204 251 296
#     4  10  20  34  52  73 100 133 166 202 243 287
#     4   9  18  33  51  71  96 125 161 203 243 285
#     4   9  17  31  49  67  90 121 159 201 244 292
#     4  10  20  33  51  75 102 132 164 199 241 291
#
# _framework density 18.298472
#
# number of rings (size 3 to 8) (size 9 to 14) (size 15 to 20)
#    0.000    2.500    0.000    4.000    0.000    2.167 
#    0.000    1.667    0.000    3.000    0.000    2.333 
#    0.000    3.000    0.000    0.333    0.000    0.000 
#
# Total GULP energy -594709.466887 kJ/mol
# GULP energy per Si atom -12389.780560 kJ/mol
# Density = 1.825682 g / cm^3
# Si number density = 18.298472 Si / 1000 Ang^3
#
#
#
# Elastic Constant Matrix: (Units=GPa)
#
#
# Indices 1 2 3 4 5 6 
#
# 1 98.9723 68.3889 22.7456 0.0000 0.0000 0.0020
# 2 68.3889 98.9723 22.7456 0.0000 0.0000 -0.0020
# 3 22.7456 22.7456 39.8495 0.0000 0.0000 0.0000
# 4 0.0000 0.0000 0.0000 16.1368 0.0000 0.0000
# 5 0.0000 0.0000 0.0000 0.0000 16.1368 0.0000
# 6 0.0020 -0.0020 0.0000 0.0000 0.0000 14.5862
#
#
#
# Elastic Compliance Matrix: (Units=1/GPa)
#
#
# Indices 1 2 3 4 5 6 
#
# 1 0.019885 -0.012813 -0.004037 0.000000 0.000000 -0.000005
# 2 -0.012813 0.019885 -0.004037 0.000000 0.000000 0.000005
# 3 -0.004037 -0.004037 0.029703 0.000000 0.000000 0.000000
# 4 0.000000 0.000000 0.000000 0.061970 0.000000 0.000000
# 5 0.000000 0.000000 0.000000 0.000000 0.061970 0.000000
# 6 -0.000005 0.000005 0.000000 0.000000 0.000000 0.068558
#
#
# Mechanical properties :
#
#
# Convention : Reuss Voigt Hill
#
# Bulk Modulus (GPa) = 36.10080 51.72824 43.91452
# Shear Modulus (GPa) = 15.97563 17.63289 16.80426
#
# Velocity S-wave (km/s) = 2.95796 3.10760 3.03370
# Velocity P-wave (km/s) = 5.60694 6.41925 6.02679
#
# Compressibility (1/GPa) = 0.02770022
#
# Stress axis : x y z
#
# Youngs Moduli (GPa) = 50.28940 50.28940 33.66692
#
# Poissons Ratio (x) = 0.64434 0.13591
# Poissons Ratio (y) = 0.64434 0.13591
# Poissons Ratio (z) = 0.20301 0.20301
#
# Static dielectric constant tensor:
#      x y z
#    x 3.430090 0.000000 0.000000 
#    y 0.000000 3.430090 0.000000 
#    z 0.000000 0.000000 3.208950 
# 
# 
# High freq. dielectric constant tensor:
#      x y z
#    x 1.703060 0.000000 0.000000 
#    y 0.000000 1.703060 0.000000 
#    z 0.000000 0.000000 1.690440 
# 
# From -- ./inp_files/1397.got.cif
#   From: 2010.03.12/outbox.cif.g09.slc.cpg/sg99_cif.got.tgz:1397.got - 2010.04.08 21:11:30.
