data_PCOD8306822
_publ_section_title
;
Structure prediction by ZEFSAII (Michael W. Deem and Ramdas Pophale) SiO2 
 PCOD8306822
Probable space group: P 42 N M
;
_chemical_formula_sum "Si O2"
_cell_formula_units_Z 64
_cell_length_a 12.006823
_cell_length_b 12.006823
_cell_length_c 23.780442
_cell_angle_alpha 90.000000
_cell_angle_beta 90.000000
_cell_angle_gamma 90.000000
_cell_volume 3428.278850
_symmetry_space_group_name_H-M "P 42 N M"
_symmetry_group_IT_number 102
_symmetry_cell_setting 'tetragonal'
loop_
_space_group_symop_operation_xyz
x,y,z
1/2-y,1/2+x,1/2+z
-x,-y,z
1/2+y,1/2-x,1/2+z
1/2-x,1/2+y,1/2+z
1/2+x,1/2-y,1/2+z
-y,-x,z
y,x,z
loop_
_atom_site_type_symbol
_atom_site_label
_atom_site_fract_x
_atom_site_fract_y
_atom_site_fract_z
Si Si1 0.483521 0.868319 0.642840
Si Si2 0.085892 0.738007 0.044436
Si Si3 0.468694 0.121990 0.438962
Si Si4 0.607399 0.921366 0.742790
Si Si5 0.226722 0.052466 0.555117
Si Si6 0.768551 0.953482 0.428232
Si Si7 0.826104 0.650398 0.861316
Si Si8 0.575301 0.753921 0.170641
O O1 0.497431 0.778376 0.593770
O O2 0.573014 0.840473 0.691446
O O3 0.360922 0.845070 0.667035
O O4 0.500000 0.000000 0.624949
O O5 0.138507 0.861494 0.043822
O O6 0.179889 0.646456 0.054842
O O7 0.019621 0.715544 0.986750
O O8 0.340890 0.122892 0.417793
O O9 0.551958 0.151004 0.388713
O O10 0.500000 0.000000 0.463645
O O11 0.633966 0.844309 0.795297
O O12 0.500000 0.000000 0.755672
O O13 0.718759 0.986401 0.720370
O O14 0.106229 0.106229 0.564338
O O15 0.229204 0.997626 0.492393
O O16 0.243041 0.969961 0.606792
O O17 0.878054 0.878054 0.416020
O O18 0.758193 0.056685 0.385555
O O19 0.769506 0.769506 0.871456
O O20 0.643846 0.643846 0.187868
#
# Coordination Sequence:
#
# PCOD8306822 Si02
#       8
#     8   8   8   8   8   8   8   8
#     4   9  17  32  53  79 107 134 178 228 272 323
#     4  10  17  29  53  80 106 143 184 226 270 316
#     4   9  18  32  54  79 109 146 196 231 264 321
#     4   9  19  38  57  77 106 141 194 235 268 326
#     4   9  17  30  51  84 116 142 176 219 276 337
#     4   9  19  36  59  85 113 147 190 237 283 333
#     4  11  23  37  56  83 115 150 187 233 285 337
#     4  10  20  33  54  82 112 144 178 226 284 333
#
# _framework density 18.66826
#
# number of rings (size 3 to 8) (size 9 to 14) (size 15 to 20)
#    0.000    2.750    2.500    2.625    3.500    2.000 
#    0.000    7.500    0.000    4.125    0.000    0.000 
#    0.000    0.000    0.000    0.000    0.000    0.000 
#
# Total GULP energy -792841.050982 kJ/mol
# GULP energy per Si atom -12388.141422 kJ/mol
# Density = 1.862577 g / cm^3
# Si number density = 18.668260 Si / 1000 Ang^3
#
#
#
# Elastic Constant Matrix: (Units=GPa)
#
#
# Indices 1 2 3 4 5 6 
#
# 1 50.9151 28.9700 36.4727 0.0000 0.0000 0.0000
# 2 28.9700 50.9151 36.4727 0.0000 0.0000 0.0000
# 3 36.4727 36.4727 112.7310 0.0000 0.0000 0.0000
# 4 0.0000 0.0000 0.0000 15.4680 0.0000 0.0000
# 5 0.0000 0.0000 0.0000 0.0000 15.4680 0.0000
# 6 0.0000 0.0000 0.0000 0.0000 0.0000 25.2493
#
#
#
# Elastic Compliance Matrix: (Units=1/GPa)
#
#
# Indices 1 2 3 4 5 6 
#
# 1 0.031668 -0.013901 -0.005748 0.000000 0.000000 0.000000
# 2 -0.013901 0.031668 -0.005748 0.000000 0.000000 0.000000
# 3 -0.005748 -0.005748 0.012590 0.000000 0.000000 0.000000
# 4 0.000000 0.000000 0.000000 0.064650 0.000000 0.000000
# 5 0.000000 0.000000 0.000000 0.000000 0.064650 0.000000
# 6 0.000000 0.000000 0.000000 0.000000 0.000000 0.039605
#
#
# Mechanical properties :
#
#
# Convention : Reuss Voigt Hill
#
# Bulk Modulus (GPa) = 39.79154 46.48800 43.13977
# Shear Modulus (GPa) = 16.44731 18.74679 17.59705
#
# Velocity S-wave (km/s) = 2.97144 3.17236 3.07354
# Velocity P-wave (km/s) = 5.75621 6.19473 5.97949
#
# Compressibility (1/GPa) = 0.02513097
#
# Stress axis : x y z
#
# Youngs Moduli (GPa) = 31.57798 31.57798 79.42670
#
# Poissons Ratio (x) = 0.43896 0.45656
# Poissons Ratio (y) = 0.43896 0.45656
# Poissons Ratio (z) = 0.18152 0.18152
#
# Static dielectric constant tensor:
#      x y z
#    x 3.304680 0.000000 0.000000 
#    y 0.000000 3.304680 0.000000 
#    z 0.000000 0.000000 3.487720 
# 
# 
# High freq. dielectric constant tensor:
#      x y z
#    x 1.699460 0.000000 0.000000 
#    y 0.000000 1.699460 0.000000 
#    z 0.000000 0.000000 1.722330 
# 
# From -- ./inp_files/3395.got.cif
#   From: 2010.03.12/outbox.cif.g09.slc.cpg/sg102_2_cif.got.tgz:3395.got - 2010.04.14 01:40:42.
