data_PCOD8306012
_publ_section_title
;
Structure prediction by ZEFSAII (Michael W. Deem and Ramdas Pophale) SiO2 
 PCOD8306012
Probable space group: P 43 21 2
;
_chemical_formula_sum "Si O2"
_cell_formula_units_Z 36
_cell_length_a 12.552808
_cell_length_b 12.552808
_cell_length_c 9.836274
_cell_angle_alpha 90.000000
_cell_angle_beta 90.000000
_cell_angle_gamma 90.000000
_cell_volume 1549.931092
_symmetry_space_group_name_H-M "P 43 21 2"
_symmetry_group_IT_number 96
_symmetry_cell_setting 'tetragonal'
loop_
_space_group_symop_operation_xyz
x,y,z
1/2-y,1/2+x,3/4+z
-x,-y,1/2+z
1/2+y,1/2-x,1/4+z
1/2+x,1/2-y,1/4-z
1/2-x,1/2+y,3/4-z
y,x,-z
-y,-x,1/2-z
loop_
_atom_site_type_symbol
_atom_site_label
_atom_site_fract_x
_atom_site_fract_y
_atom_site_fract_z
Si Si1 0.987362 0.987362 0.000000
Si Si2 0.938092 0.570722 0.883717
Si Si3 0.500657 0.275889 0.236987
Si Si4 0.091024 0.193587 0.312186
Si Si5 0.310203 0.112185 0.234362
O O1 0.900305 0.975635 0.118188
O O2 0.972912 0.108996 0.946424
O O3 0.959255 0.541209 0.725988
O O4 0.916378 0.695995 0.895907
O O5 0.842318 0.499062 0.943293
O O6 0.398906 0.201662 0.234685
O O7 0.590899 0.220705 0.328442
O O8 0.547347 0.292491 0.088250
O O9 0.213152 0.159996 0.318574
#
# Coordination Sequence:
#
# PCOD8306012 Si02
#       5
#     4   8   8   8   8
#     4  12  28  54  72 118 158 210 266 328 412 482
#     4  12  27  50  80 118 158 207 270 337 397 479
#     4  12  28  50  82 113 163 209 272 332 399 491
#     4  12  29  49  79 114 155 216 266 330 410 474
#     4  12  27  51  79 118 158 215 267 337 401 481
#
# _framework density 23.226841
#
# number of rings (size 3 to 8) (size 9 to 14) (size 15 to 20)
#    0.000    0.000    4.444    3.333    9.333    1.778 
#    0.000    0.000    0.000    0.000    0.000    0.000 
#    0.000    0.000    0.000    0.000    0.000    0.000 
#
# Total GULP energy -446492.531948 kJ/mol
# GULP energy per Si atom -12402.570332 kJ/mol
# Density = 2.317398 g / cm^3
# Si number density = 23.226841 Si / 1000 Ang^3
#
#
#
# Elastic Constant Matrix: (Units=GPa)
#
#
# Indices 1 2 3 4 5 6 
#
# 1 146.2296 98.9776 44.2722 0.0000 0.0000 0.0000
# 2 98.9776 146.2296 44.2722 0.0000 0.0000 0.0000
# 3 44.2722 44.2722 81.2431 0.0000 0.0000 0.0000
# 4 0.0000 0.0000 0.0000 40.9845 0.0000 0.0000
# 5 0.0000 0.0000 0.0000 0.0000 40.9845 0.0000
# 6 0.0000 0.0000 0.0000 0.0000 0.0000 36.1205
#
#
#
# Elastic Compliance Matrix: (Units=1/GPa)
#
#
# Indices 1 2 3 4 5 6 
#
# 1 0.013120 -0.008043 -0.002767 0.000000 0.000000 0.000000
# 2 -0.008043 0.013120 -0.002767 0.000000 0.000000 0.000000
# 3 -0.002767 -0.002767 0.015324 0.000000 0.000000 0.000000
# 4 0.000000 0.000000 0.000000 0.024399 0.000000 0.000000
# 5 0.000000 0.000000 0.000000 0.000000 0.024399 0.000000
# 6 0.000000 0.000000 0.000000 0.000000 0.000000 0.027685
#
#
# Mechanical properties :
#
#
# Convention : Reuss Voigt Hill
#
# Bulk Modulus (GPa) = 69.38864 83.19403 76.29134
# Shear Modulus (GPa) = 33.33210 36.02990 34.68100
#
# Velocity S-wave (km/s) = 3.79234 3.94282 3.86831
# Velocity P-wave (km/s) = 7.00821 7.52487 7.27113
#
# Compressibility (1/GPa) = 0.01441158
#
# Stress axis : x y z
#
# Youngs Moduli (GPa) = 76.21830 76.21830 65.25636
#
# Poissons Ratio (x) = 0.61302 0.18055
# Poissons Ratio (y) = 0.61302 0.18055
# Poissons Ratio (z) = 0.21088 0.21088
#
# Static dielectric constant tensor:
#      x y z
#    x 4.468280 0.000000 0.000000 
#    y 0.000000 4.468280 0.000000 
#    z 0.000000 0.000000 4.402860 
# 
# 
# High freq. dielectric constant tensor:
#      x y z
#    x 1.929670 0.000000 0.000000 
#    y 0.000000 1.929670 0.000000 
#    z 0.000000 0.000000 1.930540 
# 
# From -- ./inp_files/1981.got.cif
#   From: 2010.03.12/outbox.cif.g09.slc.cpg/sg96_1_cif.got.tgz:1981.got - 2010.04.08 20:56:49.
