data_PCOD8306235
_publ_section_title
;
Structure prediction by ZEFSAII (Michael W. Deem and Ramdas Pophale) SiO2 
 PCOD8306235
Probable space group: I 41 2 2
;
_chemical_formula_sum "Si O2"
_cell_formula_units_Z 48
_cell_length_a 13.650352
_cell_length_b 13.650352
_cell_length_c 13.074607
_cell_angle_alpha 90.000000
_cell_angle_beta 90.000000
_cell_angle_gamma 90.000000
_cell_volume 2436.219106
_symmetry_space_group_name_H-M "I 41 2 2"
_symmetry_group_IT_number 98
_symmetry_cell_setting 'tetragonal'
loop_
_space_group_symop_operation_xyz
x,y,z
-y,1/2+x,1/4+z
-x,-y,z
y,1/2-x,1/4+z
x,1/2-y,1/4-z
-x,1/2+y,1/4-z
y,x,-z
-y,-x,-z
1/2+x,1/2+y,1/2+z
1/2-y,x,3/4+z
1/2-x,1/2-y,1/2+z
1/2+y,-x,3/4+z
1/2+x,-y,3/4-z
1/2-x,y,3/4-z
1/2+y,1/2+x,1/2-z
1/2-y,1/2-x,1/2-z
loop_
_atom_site_type_symbol
_atom_site_label
_atom_site_fract_x
_atom_site_fract_y
_atom_site_fract_z
Si Si1 0.863495 0.061098 0.393080
Si Si2 0.328800 0.361091 0.611328
Si Si3 0.944917 0.871154 0.315182
O O1 0.894603 0.105398 0.500000
O O2 0.750000 0.086682 0.375000
O O3 0.938097 0.108773 0.309735
O O4 0.884519 0.945060 0.388549
O O5 0.291474 0.250000 0.625000
O O6 0.377820 0.377820 0.500000
O O7 0.234677 0.431016 0.616858
O O8 0.406246 0.384351 0.699667
#
# Coordination Sequence:
#
# PCOD8306235 Si02
#       3
#    16  16  16
#     4  11  23  38  55  80 111 148 191 234 283 343
#     4   9  18  33  58  90 118 143 181 236 290 331
#     4  10  19  34  58  86 113 146 185 236 286 336
#
# _framework density 19.702660999999999
#
# number of rings (size 3 to 8) (size 9 to 14) (size 15 to 20)
#    0.000    2.000    0.000    5.000    0.000    5.333 
#    0.000    8.333    0.000    0.000    0.000    0.000 
#    0.000    0.000    0.000    0.000    0.000    0.000 
#
# Total GULP energy -297449.010525 kJ/mol
# GULP energy per Si atom -12393.708772 kJ/mol
# Density = 1.965782 g / cm^3
# Si number density = 19.702661 Si / 1000 Ang^3
#
#
#
# Elastic Constant Matrix: (Units=GPa)
#
#
# Indices 1 2 3 4 5 6 
#
# 1 143.6474 58.2779 59.5864 0.0000 0.0000 0.0000
# 2 58.2779 143.6472 59.5863 0.0000 0.0000 0.0000
# 3 59.5864 59.5863 138.3544 0.0000 0.0000 0.0000
# 4 0.0000 0.0000 0.0000 27.1608 0.0000 0.0000
# 5 0.0000 0.0000 0.0000 0.0000 27.1606 0.0000
# 6 0.0000 0.0000 0.0000 0.0000 0.0000 25.3688
#
#
#
# Elastic Compliance Matrix: (Units=1/GPa)
#
#
# Indices 1 2 3 4 5 6 
#
# 1 0.009177 -0.002537 -0.002860 0.000000 0.000000 0.000000
# 2 -0.002537 0.009177 -0.002860 0.000000 0.000000 0.000000
# 3 -0.002860 -0.002860 0.009691 0.000000 0.000000 0.000000
# 4 0.000000 0.000000 0.000000 0.036818 0.000000 0.000000
# 5 0.000000 0.000000 0.000000 0.000000 0.036818 0.000000
# 6 0.000000 0.000000 0.000000 0.000000 0.000000 0.039419
#
#
# Mechanical properties :
#
#
# Convention : Reuss Voigt Hill
#
# Bulk Modulus (GPa) = 86.71309 86.72777 86.72043
# Shear Modulus (GPa) = 30.96816 32.48460 31.72638
#
# Velocity S-wave (km/s) = 3.96886 4.06488 4.01716
# Velocity P-wave (km/s) = 8.06901 8.13295 8.10104
#
# Compressibility (1/GPa) = 0.01153228
#
# Stress axis : x y z
#
# Youngs Moduli (GPa) = 108.96875 108.96860 103.18761
#
# Poissons Ratio (x) = 0.27644 0.29509
# Poissons Ratio (y) = 0.27644 0.29509
# Poissons Ratio (z) = 0.31162 0.31162
#
# Static dielectric constant tensor:
#      x y z
#    x 3.649680 0.000000 0.000000 
#    y 0.000000 3.649680 0.000000 
#    z 0.000000 0.000000 3.801880 
# 
# 
# High freq. dielectric constant tensor:
#      x y z
#    x 1.756510 0.000000 0.000000 
#    y 0.000000 1.756510 0.000000 
#    z 0.000000 0.000000 1.775440 
# 
# From -- ./inp_files/4448.got.cif
#   From: 2010.03.12/outbox.cif.g09.slc.cpg/sg98_3_cif.got.tgz:4448.got - 2010.04.08 21:04:41.
