data_PCOD8306611
_publ_section_title
;
Structure prediction by ZEFSAII (Michael W. Deem and Ramdas Pophale) SiO2 
 PCOD8306611
Probable space group: P 4 M M
;
_chemical_formula_sum "Si O2"
_cell_formula_units_Z 45
_cell_length_a 12.305286
_cell_length_b 12.305286
_cell_length_c 16.174823
_cell_angle_alpha 90.000000
_cell_angle_beta 90.000000
_cell_angle_gamma 90.000000
_cell_volume 2449.192726
_symmetry_space_group_name_H-M "P 4 M M"
_symmetry_group_IT_number 99
_symmetry_cell_setting 'tetragonal'
loop_
_space_group_symop_operation_xyz
x,y,z
-y,x,z
-x,-y,z
y,-x,z
-x,y,z
x,-y,z
-y,-x,z
y,x,z
loop_
_atom_site_type_symbol
_atom_site_label
_atom_site_fract_x
_atom_site_fract_y
_atom_site_fract_z
Si Si1 0.374758 0.798444 0.868620
Si Si2 0.000000 0.000000 0.860032
Si Si3 0.626454 0.000000 0.240249
Si Si4 0.237202 0.000000 0.929083
Si Si5 0.801123 0.624571 0.357996
Si Si6 0.176056 0.000000 0.118956
Si Si7 0.622828 0.202424 0.542768
Si Si8 0.879021 0.705566 0.703910
O O1 0.500000 0.792577 0.897621
O O2 0.315911 0.684090 0.889534
O O3 0.371330 0.818397 0.769492
O O4 0.311836 0.894275 0.915016
O O5 0.000000 0.131222 0.872647
O O6 0.653705 0.104103 0.295355
O O7 0.500000 0.000000 0.211299
O O8 0.706531 0.000000 0.162765
O O9 0.196122 0.000000 0.022352
O O10 0.764466 0.500000 0.349055
O O11 0.696704 0.696704 0.336802
O O12 0.844616 0.648236 0.451367
O O13 0.107144 0.107144 0.144133
O O14 0.500000 0.239773 0.549113
O O15 0.690046 0.309955 0.562402
O O16 0.650033 0.114779 0.613566
O O17 0.823361 0.823361 0.698374
O O18 0.000000 0.727460 0.736109
#
# Coordination Sequence:
#
# PCOD8306611 Si02
#       8
#     8   1   4   4   8   4   8   8
#     4  11  23  38  57  83 115 150 189 230 277 331
#     4  12  20  40  64  88 120 136 174 240 284 324
#     4  10  21  34  52  81 111 140 174 213 261 320
#     4  12  21  39  60  89 114 140 180 232 281 332
#     4   9  18  33  51  75 104 138 178 221 267 314
#     4  11  21  38  61  85 110 140 176 214 266 323
#     4   9  18  31  49  71  99 134 175 220 267 314
#     4  10  21  35  50  75 103 140 186 231 274 320
#
# _framework density 18.373401999999999
#
# number of rings (size 3 to 8) (size 9 to 14) (size 15 to 20)
#    0.000    1.867    2.667    1.333    1.244    2.489 
#    0.000    1.778    0.000    3.200    0.000    0.000 
#    0.000    4.267    0.000    0.000    0.000    0.000 
#
# Total GULP energy -557484.308615 kJ/mol
# GULP energy per Si atom -12388.540191 kJ/mol
# Density = 1.833158 g / cm^3
# Si number density = 18.373402 Si / 1000 Ang^3
#
#
#
# Elastic Constant Matrix: (Units=GPa)
#
#
# Indices 1 2 3 4 5 6 
#
# 1 109.8887 48.6436 20.1631 0.0000 0.0000 -0.0003
# 2 48.6436 109.8887 20.1631 0.0000 0.0000 0.0003
# 3 20.1631 20.1631 52.1981 0.0000 0.0000 0.0000
# 4 0.0000 0.0000 0.0000 22.9178 0.0000 0.0000
# 5 0.0000 0.0000 0.0000 0.0000 22.9178 0.0000
# 6 -0.0003 0.0003 0.0000 0.0000 0.0000 20.6602
#
#
#
# Elastic Compliance Matrix: (Units=1/GPa)
#
#
# Indices 1 2 3 4 5 6 
#
# 1 0.011662 -0.004666 -0.002702 0.000000 0.000000 0.000000
# 2 -0.004666 0.011662 -0.002702 0.000000 0.000000 0.000000
# 3 -0.002702 -0.002702 0.021245 0.000000 0.000000 0.000000
# 4 0.000000 0.000000 0.000000 0.043634 0.000000 0.000000
# 5 0.000000 0.000000 0.000000 0.000000 0.043634 0.000000
# 6 0.000000 0.000000 0.000000 0.000000 0.000000 0.048402
#
#
# Mechanical properties :
#
#
# Convention : Reuss Voigt Hill
#
# Bulk Modulus (GPa) = 40.93784 49.99059 45.46421
# Shear Modulus (GPa) = 23.97822 25.49954 24.73888
#
# Velocity S-wave (km/s) = 3.61647 3.72943 3.67338
# Velocity P-wave (km/s) = 6.30618 6.76846 6.54140
#
# Compressibility (1/GPa) = 0.02442728
#
# Stress axis : x y z
#
# Youngs Moduli (GPa) = 85.75215 85.75215 47.06920
#
# Poissons Ratio (x) = 0.40015 0.12719
# Poissons Ratio (y) = 0.40015 0.12719
# Poissons Ratio (z) = 0.23171 0.23171
#
# Static dielectric constant tensor:
#      x y z
#    x 3.490070 0.000000 0.000000 
#    y 0.000000 3.490070 0.000000 
#    z 0.000000 0.000000 3.344480 
# 
# 
# High freq. dielectric constant tensor:
#      x y z
#    x 1.714330 0.000000 0.000000 
#    y 0.000000 1.714330 0.000000 
#    z 0.000000 0.000000 1.698380 
# 
# From -- ./inp_files/1977.got.cif
#   From: 2010.03.12/outbox.cif.g09.slc.cpg/sg99_cif.got.tgz:1977.got - 2010.04.08 21:11:30.
