data_PCOD8306555
_publ_section_title
;
Structure prediction by ZEFSAII (Michael W. Deem and Ramdas Pophale) SiO2 
 PCOD8306555
Probable space group: P 4 M M
;
_chemical_formula_sum "Si O2"
_cell_formula_units_Z 64
_cell_length_a 13.653758
_cell_length_b 13.653758
_cell_length_c 20.695514
_cell_angle_alpha 90.000000
_cell_angle_beta 90.000000
_cell_angle_gamma 90.000000
_cell_volume 3858.163423
_symmetry_space_group_name_H-M "P 4 M M"
_symmetry_group_IT_number 99
_symmetry_cell_setting 'tetragonal'
loop_
_space_group_symop_operation_xyz
x,y,z
-y,x,z
-x,-y,z
y,-x,z
-x,y,z
x,-y,z
-y,-x,z
y,x,z
loop_
_atom_site_type_symbol
_atom_site_label
_atom_site_fract_x
_atom_site_fract_y
_atom_site_fract_z
Si Si1 0.612204 0.888049 0.617700
Si Si2 0.385991 0.772656 0.130921
Si Si3 0.884451 0.273881 0.381434
Si Si4 0.273140 0.886014 0.745854
Si Si5 0.774306 0.614743 0.488562
Si Si6 0.776578 0.614615 0.851342
Si Si7 0.232630 0.610899 0.991824
Si Si8 0.114996 0.610135 0.255522
O O1 0.500000 0.873915 0.639055
O O2 0.679859 0.857791 0.677373
O O3 0.638984 0.817961 0.558577
O O4 0.631536 0.000000 0.596605
O O5 0.500000 0.749232 0.139233
O O6 0.329433 0.670568 0.137071
O O7 0.364692 0.823483 0.059838
O O8 0.349552 0.844194 0.187526
O O9 0.829293 0.170708 0.391325
O O10 0.853986 0.350988 0.436286
O O11 0.851420 0.319102 0.313024
O O12 0.000000 0.254382 0.385380
O O13 0.172144 0.827857 0.754829
O O14 0.350210 0.858918 0.801637
O O15 0.248390 0.000000 0.750522
O O16 0.753355 0.500000 0.479516
O O17 0.672366 0.672366 0.479532
O O18 0.753242 0.500000 0.839906
O O19 0.676342 0.676342 0.841043
O O20 0.822685 0.633235 0.923831
O O21 0.265178 0.500000 0.992833
O O22 0.334552 0.665449 0.991152
O O23 0.152938 0.500000 0.270084
O O24 0.000000 0.610247 0.248950
#
# Coordination Sequence:
#
# PCOD8306555 Si02
#       8
#     8   8   8   8   8   8   8   8
#     4   9  17  30  50  74  96 119 150 187 226 269
#     4   9  16  26  41  61  87 117 146 178 216 259
#     4  10  20  33  50  71  93 118 150 189 234 281
#     4  10  20  33  49  68  91 120 154 192 232 273
#     4  10  20  33  50  72  98 128 160 191 222 259
#     4   9  17  29  45  66  92 120 151 187 227 273
#     4   8  14  24  38  58  85 116 147 179 216 259
#     4   9  17  29  45  64  86 114 149 186 222 263
#
# _framework density 16.588203
#
# number of rings (size 3 to 8) (size 9 to 14) (size 15 to 20)
#    0.000    2.750    0.000    1.875    0.000    2.750 
#    0.000    3.125    0.000    2.250    0.000    5.250 
#    0.000    0.000    0.000    7.875    0.000    0.000 
#
# Total GULP energy -793083.184243 kJ/mol
# GULP energy per Si atom -12391.924754 kJ/mol
# Density = 1.655045 g / cm^3
# Si number density = 16.588203 Si / 1000 Ang^3
#
#
#
# Elastic Constant Matrix: (Units=GPa)
#
#
# Indices 1 2 3 4 5 6 
#
# 1 65.0153 33.8818 46.8490 0.0000 0.0000 0.0001
# 2 33.8818 65.0153 46.8490 0.0000 0.0000 -0.0001
# 3 46.8490 46.8490 128.5917 0.0000 0.0000 0.0000
# 4 0.0000 0.0000 0.0000 24.3256 0.0000 0.0000
# 5 0.0000 0.0000 0.0000 0.0000 24.3256 0.0000
# 6 0.0001 -0.0001 0.0000 0.0000 0.0000 16.8143
#
#
#
# Elastic Compliance Matrix: (Units=1/GPa)
#
#
# Indices 1 2 3 4 5 6 
#
# 1 0.023781 -0.008339 -0.005626 0.000000 0.000000 0.000000
# 2 -0.008339 0.023781 -0.005626 0.000000 0.000000 0.000000
# 3 -0.005626 -0.005626 0.011876 0.000000 0.000000 0.000000
# 4 0.000000 0.000000 0.000000 0.041109 0.000000 0.000000
# 5 0.000000 0.000000 0.000000 0.000000 0.041109 0.000000
# 6 0.000000 0.000000 0.000000 0.000000 0.000000 0.059473
#
#
# Mechanical properties :
#
#
# Convention : Reuss Voigt Hill
#
# Bulk Modulus (GPa) = 49.36842 57.08686 53.22764
# Shear Modulus (GPa) = 20.23793 21.82928 21.03360
#
# Velocity S-wave (km/s) = 3.49667 3.63154 3.56474
# Velocity P-wave (km/s) = 6.79176 7.21616 7.00717
#
# Compressibility (1/GPa) = 0.02025587
#
# Stress axis : x y z
#
# Youngs Moduli (GPa) = 42.05109 42.05109 84.20568
#
# Poissons Ratio (x) = 0.35067 0.47371
# Poissons Ratio (y) = 0.35067 0.47371
# Poissons Ratio (z) = 0.23657 0.23657
#
# Static dielectric constant tensor:
#      x y z
#    x 2.925810 0.000000 0.000000 
#    y 0.000000 2.925810 0.000000 
#    z 0.000000 0.000000 3.570250 
# 
# 
# High freq. dielectric constant tensor:
#      x y z
#    x 1.620920 0.000000 0.000000 
#    y 0.000000 1.620920 0.000000 
#    z 0.000000 0.000000 1.662950 
# 
# From -- ./inp_files/2120.got.cif
#   From: 2010.03.12/outbox.cif.g09.slc.cpg/sg99_cif.got.tgz:2120.got - 2010.04.08 21:11:30.
