data_PCOD8306774
_publ_section_title
;
Structure prediction by ZEFSAII (Michael W. Deem and Ramdas Pophale) SiO2 
 PCOD8306774
Probable space group: P 42 C M
;
_chemical_formula_sum "Si O2"
_cell_formula_units_Z 32
_cell_length_a 13.763615
_cell_length_b 13.763615
_cell_length_c 9.701381
_cell_angle_alpha 90.000000
_cell_angle_beta 90.000000
_cell_angle_gamma 90.000000
_cell_volume 1837.801462
_symmetry_space_group_name_H-M "P 42 C M"
_symmetry_group_IT_number 101
_symmetry_cell_setting 'tetragonal'
loop_
_space_group_symop_operation_xyz
x,y,z
-y,x,1/2+z
-x,-y,z
y,-x,1/2+z
-x,y,1/2+z
x,-y,1/2+z
-y,-x,z
y,x,z
loop_
_atom_site_type_symbol
_atom_site_label
_atom_site_fract_x
_atom_site_fract_y
_atom_site_fract_z
Si Si1 0.882639 0.117362 0.333470
Si Si2 0.107183 0.892818 0.827184
Si Si3 0.207087 0.207087 0.568705
Si Si4 0.252295 0.596249 0.691834
Si Si5 0.591476 0.744064 0.505731
Si Si6 0.794978 0.205023 0.591817
O O1 0.852555 0.147446 0.180066
O O2 0.816053 0.183948 0.431773
O O3 0.996190 0.135251 0.356513
O O4 0.132125 0.867876 0.669569
O O5 0.174693 0.825308 0.918047
O O6 0.323890 0.187874 0.572965
O O7 0.363164 0.636837 0.688412
O O8 0.223180 0.569202 0.848466
O O9 0.243650 0.503577 0.595638
O O10 0.182402 0.681951 0.631012
O O11 0.632711 0.632711 0.506510
#
# Coordination Sequence:
#
# PCOD8306774 Si02
#       6
#     4   4   4   8   8   4
#     4  11  24  32  70  92  99 152 188 240 291 356
#     4  11  20  44  58  88 119 132 194 240 299 334
#     4  10  20  39  55  88 122 147 178 245 285 331
#     4   9  19  34  56  82 117 155 188 231 277 330
#     4   9  19  34  56  82 117 155 188 231 277 330
#     4  10  20  39  55  88 122 147 178 245 285 331
#
# _framework density 17.412109000000001
#
# number of rings (size 3 to 8) (size 9 to 14) (size 15 to 20)
#    1.500    0.750    2.500    1.500    3.500    3.500 
#    0.000    2.500    0.000    9.000    0.000    0.000 
#    0.000    0.000    0.000    0.000    0.000    0.000 
#
# Total GULP energy -396421.249302 kJ/mol
# GULP energy per Si atom -12388.164041 kJ/mol
# Density = 1.737248 g / cm^3
# Si number density = 17.412109 Si / 1000 Ang^3
#
#
#
# Elastic Constant Matrix: (Units=GPa)
#
#
# Indices 1 2 3 4 5 6 
#
# 1 54.8165 64.2839 33.9902 0.0000 0.0000 0.0001
# 2 64.2839 54.8165 33.9902 0.0000 0.0000 -0.0001
# 3 33.9902 33.9902 90.8806 0.0000 0.0000 0.0000
# 4 0.0000 0.0000 0.0000 30.2309 0.0000 0.0000
# 5 0.0000 0.0000 0.0000 0.0000 30.2309 0.0000
# 6 0.0001 -0.0001 0.0000 0.0000 0.0000 20.1989
#
#
#
# Elastic Compliance Matrix: (Units=1/GPa)
#
#
# Indices 1 2 3 4 5 6 
#
# 1 -0.047475 0.058150 -0.003993 0.000000 0.000000 0.000001
# 2 0.058150 -0.047475 -0.003993 0.000000 0.000000 -0.000001
# 3 -0.003993 -0.003993 0.013990 0.000000 0.000000 0.000000
# 4 0.000000 0.000000 0.000000 0.033079 0.000000 0.000000
# 5 0.000000 0.000000 0.000000 0.000000 0.033079 0.000000
# 6 0.000001 -0.000001 0.000000 0.000000 0.000000 0.049508
#
#
# Mechanical properties :
#
#
# Convention : Reuss Voigt Hill
#
# Bulk Modulus (GPa) = 51.62648 51.67135 51.64892
# Shear Modulus (GPa) = -84.50566 20.68209 -31.91178
#
# Velocity S-wave (km/s) = -6.97410 3.45019 -4.28569
# Velocity P-wave (km/s) = 5.92761 6.75364 2.28856
#
# Compressibility (1/GPa) = 0.01936990
#
# Stress axis : x y z
#
# Youngs Moduli (GPa) = -21.06377 -21.06377 71.47956
#
# Poissons Ratio (x) = 1.22486 0.28539
# Poissons Ratio (y) = 1.22486 0.28539
# Poissons Ratio (z) = -0.08410 -0.08410
#
# Static dielectric constant tensor:
#      x y z
#    x 2.981290 0.000000 0.000000 
#    y 0.000000 2.981290 0.000000 
#    z 0.000000 0.000000 3.141940 
# 
# 
# High freq. dielectric constant tensor:
#      x y z
#    x 1.653060 0.000000 0.000000 
#    y 0.000000 1.653060 0.000000 
#    z 0.000000 0.000000 1.686620 
# 
# From -- ./inp_files/499.got.cif
#   From: 2010.03.12/outbox.cif.g09.slc.cpg/sg101_1_cif.got.tgz:499.got - 2010.04.14 01:38:52.
