data_PCOD8306452
_publ_section_title
;
Structure prediction by ZEFSAII (Michael W. Deem and Ramdas Pophale) SiO2 
 PCOD8306452
Probable space group: P 4 M M
;
_chemical_formula_sum "Si O2"
_cell_formula_units_Z 64
_cell_length_a 13.778813
_cell_length_b 13.778813
_cell_length_c 20.265321
_cell_angle_alpha 90.000000
_cell_angle_beta 90.000000
_cell_angle_gamma 90.000000
_cell_volume 3847.486455
_symmetry_space_group_name_H-M "P 4 M M"
_symmetry_group_IT_number 99
_symmetry_cell_setting 'tetragonal'
loop_
_space_group_symop_operation_xyz
x,y,z
-y,x,z
-x,-y,z
y,-x,z
-x,y,z
x,-y,z
-y,-x,z
y,x,z
loop_
_atom_site_type_symbol
_atom_site_label
_atom_site_fract_x
_atom_site_fract_y
_atom_site_fract_z
Si Si1 0.611221 0.231978 0.808440
Si Si2 0.884685 0.392310 0.185008
Si Si3 0.729246 0.885661 0.060566
Si Si4 0.611330 0.231573 0.961088
Si Si5 0.384651 0.892289 0.329769
Si Si6 0.767750 0.613900 0.451546
Si Si7 0.113579 0.728707 0.708765
Si Si8 0.389463 0.887681 0.579551
O O1 0.500000 0.249228 0.787956
O O2 0.668600 0.331401 0.792768
O O3 0.620637 0.202894 0.884724
O O4 0.655944 0.143345 0.767279
O O5 0.841952 0.500000 0.170364
O O6 0.849550 0.317941 0.129230
O O7 0.850698 0.355064 0.257442
O O8 0.000000 0.399325 0.185045
O O9 0.832006 0.832006 0.051640
O O10 0.748599 0.000000 0.058800
O O11 0.655792 0.857831 0.001896
O O12 0.500000 0.248868 0.981462
O O13 0.669455 0.330546 0.976988
O O14 0.500000 0.898945 0.333969
O O15 0.344933 0.822866 0.387102
O O16 0.340609 0.000000 0.340407
O O17 0.750376 0.500000 0.447005
O O18 0.663010 0.663010 0.455785
O O19 0.829037 0.643521 0.515516
O O20 0.169552 0.830449 0.714964
O O21 0.141879 0.678995 0.639859
O O22 0.000000 0.750512 0.714347
O O23 0.500000 0.862871 0.599388
O O24 0.378718 0.000000 0.561511
#
# Coordination Sequence:
#
# PCOD8306452 Si02
#       8
#     8   8   8   8   8   8   8   8
#     4   9  18  32  50  73  99 124 151 184 223 269
#     4   8  14  26  45  67  88 109 137 179 230 277
#     4  10  20  32  46  65  90 121 157 194 230 269
#     4   9  18  32  50  73  98 122 149 183 225 273
#     4   8  14  26  44  65  87 109 138 181 227 265
#     4  10  19  29  42  61  87 119 150 178 211 255
#     4  10  20  33  49  69  94 123 155 191 228 268
#     4   9  17  30  49  70  88 108 140 185 234 276
#
# _framework density 16.634235
#
# number of rings (size 3 to 8) (size 9 to 14) (size 15 to 20)
#    0.000    2.875    0.000    2.250    0.000    4.625 
#    0.000    2.500    0.000    0.000    0.000    5.250 
#    0.000    5.250    0.000    0.500    0.000    0.000 
#
# Total GULP energy -793486.366934 kJ/mol
# GULP energy per Si atom -12398.224483 kJ/mol
# Density = 1.659638 g / cm^3
# Si number density = 16.634235 Si / 1000 Ang^3
#
#
#
# Elastic Constant Matrix: (Units=GPa)
#
#
# Indices 1 2 3 4 5 6 
#
# 1 83.7704 44.9980 52.3372 0.0000 0.0000 -0.0001
# 2 44.9980 83.7704 52.3372 0.0000 0.0000 0.0001
# 3 52.3372 52.3372 103.6313 0.0000 0.0000 0.0000
# 4 0.0000 0.0000 0.0000 21.7525 0.0000 0.0000
# 5 0.0000 0.0000 0.0000 0.0000 21.7525 0.0000
# 6 -0.0001 0.0001 0.0000 0.0000 0.0000 17.5023
#
#
#
# Elastic Compliance Matrix: (Units=1/GPa)
#
#
# Indices 1 2 3 4 5 6 
#
# 1 0.019483 -0.006309 -0.006654 0.000000 0.000000 0.000000
# 2 -0.006309 0.019483 -0.006654 0.000000 0.000000 0.000000
# 3 -0.006654 -0.006654 0.016370 0.000000 0.000000 0.000000
# 4 0.000000 0.000000 0.000000 0.045972 0.000000 0.000000
# 5 0.000000 0.000000 0.000000 0.000000 0.045972 0.000000
# 6 0.000000 0.000000 0.000000 0.000000 0.000000 0.057135
#
#
# Mechanical properties :
#
#
# Convention : Reuss Voigt Hill
#
# Bulk Modulus (GPa) = 62.09297 63.39078 62.74187
# Shear Modulus (GPa) = 20.07916 20.30144 20.19030
#
# Velocity S-wave (km/s) = 3.47810 3.49730 3.48771
# Velocity P-wave (km/s) = 7.31704 7.38238 7.34978
#
# Compressibility (1/GPa) = 0.01610488
#
# Stress axis : x y z
#
# Youngs Moduli (GPa) = 51.32676 51.32676 61.08692
#
# Poissons Ratio (x) = 0.32380 0.40644
# Poissons Ratio (y) = 0.32380 0.40644
# Poissons Ratio (z) = 0.34150 0.34150
#
# Static dielectric constant tensor:
#      x y z
#    x 2.946970 0.000000 0.000000 
#    y 0.000000 2.946970 0.000000 
#    z 0.000000 0.000000 3.405200 
# 
# 
# High freq. dielectric constant tensor:
#      x y z
#    x 1.622990 0.000000 0.000000 
#    y 0.000000 1.622990 0.000000 
#    z 0.000000 0.000000 1.655980 
# 
# From -- ./inp_files/2117.got.cif
#   From: 2010.03.12/outbox.cif.g09.slc.cpg/sg99_cif.got.tgz:2117.got - 2010.04.08 21:11:30.
