data_PCOD8306242
_publ_section_title
;
Structure prediction by ZEFSAII (Michael W. Deem and Ramdas Pophale) SiO2 
 PCOD8306242
Probable space group: I 41 2 2
;
_chemical_formula_sum "Si O2"
_cell_formula_units_Z 116
_cell_length_a 17.411505
_cell_length_b 17.411505
_cell_length_c 17.173587
_cell_angle_alpha 90.000000
_cell_angle_beta 90.000000
_cell_angle_gamma 90.000000
_cell_volume 5206.353331
_symmetry_space_group_name_H-M "I 41 2 2"
_symmetry_group_IT_number 98
_symmetry_cell_setting 'tetragonal'
loop_
_space_group_symop_operation_xyz
x,y,z
-y,1/2+x,1/4+z
-x,-y,z
y,1/2-x,1/4+z
x,1/2-y,1/4-z
-x,1/2+y,1/4-z
y,x,-z
-y,-x,-z
1/2+x,1/2+y,1/2+z
1/2-y,x,3/4+z
1/2-x,1/2-y,1/2+z
1/2+y,-x,3/4+z
1/2+x,-y,3/4-z
1/2-x,y,3/4-z
1/2+y,1/2+x,1/2-z
1/2-y,1/2-x,1/2-z
loop_
_atom_site_type_symbol
_atom_site_label
_atom_site_fract_x
_atom_site_fract_y
_atom_site_fract_z
Si Si1 0.785113 0.475400 0.795582
Si Si2 0.235045 0.661229 0.051007
Si Si3 0.500000 0.500000 0.500000
Si Si4 0.570069 0.833904 0.986497
Si Si5 0.462569 0.921093 0.104280
Si Si6 0.256899 0.149113 0.967042
Si Si7 0.894901 0.293474 0.950087
Si Si8 0.523723 0.668358 0.441132
O O1 0.750000 0.438707 0.875000
O O2 0.754515 0.426850 0.721983
O O3 0.750142 0.560539 0.777977
O O4 0.875131 0.475973 0.814152
O O5 0.254992 0.669079 0.142247
O O6 0.291846 0.708155 0.000000
O O7 0.147328 0.685285 0.031502
O O8 0.499033 0.579180 0.450903
O O9 0.656123 0.866997 0.995874
O O10 0.551999 0.824122 0.896217
O O11 0.508160 0.888149 0.029465
O O12 0.371976 0.929880 0.085482
O O13 0.500000 0.000000 0.126522
O O14 0.250000 0.145946 0.875000
O O15 0.232764 0.232764 0.000000
O O16 0.194696 0.089956 0.000652
O O17 0.956184 0.227143 0.963506
#
# Coordination Sequence:
#
# PCOD8306242 Si02
#       8
#    16  16   4  16  16  16  16  16
#     4  10  19  41  65  97 147 194 226 297 372 428
#     4  12  21  41  68  97 144 191 233 293 368 446
#     4  12  28  52  72 100 156 180 248 318 396 436
#     4  11  23  46  77 102 143 199 247 298 374 437
#     4  11  23  42  69 109 149 192 245 303 364 450
#     4  12  25  50  78 108 145 196 248 308 369 436
#     4  12  24  43  72 107 143 193 247 299 377 443
#     4  12  26  50  76 108 143 193 242 315 378 444
#
# _framework density 22.280470999999999
#
# number of rings (size 3 to 8) (size 9 to 14) (size 15 to 20)
#    0.000    0.552    7.586    1.241    1.931    1.655 
#    9.931    1.379    0.000    0.000    0.000    0.000 
#    0.000    0.000    0.000    0.000    0.000    0.000 
#
# Total GULP energy -718667.063908 kJ/mol
# GULP energy per Si atom -12390.811447 kJ/mol
# Density = 2.222976 g / cm^3
# Si number density = 22.280471 Si / 1000 Ang^3
#
#
#
# Elastic Constant Matrix: (Units=GPa)
#
#
# Indices 1 2 3 4 5 6 
#
# 1 138.7407 55.7678 30.7406 0.0000 0.0000 0.0000
# 2 55.7678 138.7429 30.7407 0.0000 0.0000 0.0000
# 3 30.7406 30.7407 93.4124 0.0000 0.0000 0.0000
# 4 0.0000 0.0000 0.0000 28.5094 0.0000 0.0000
# 5 0.0000 0.0000 0.0000 0.0000 28.5092 0.0000
# 6 0.0000 0.0000 0.0000 0.0000 0.0000 25.2868
#
#
#
# Elastic Compliance Matrix: (Units=1/GPa)
#
#
# Indices 1 2 3 4 5 6 
#
# 1 0.008895 -0.003157 -0.001888 0.000000 0.000000 0.000000
# 2 -0.003157 0.008895 -0.001888 0.000000 0.000000 0.000000
# 3 -0.001888 -0.001888 0.011948 0.000000 0.000000 0.000000
# 4 0.000000 0.000000 0.000000 0.035076 0.000000 0.000000
# 5 0.000000 0.000000 0.000000 0.000000 0.035076 0.000000
# 6 0.000000 0.000000 0.000000 0.000000 0.000000 0.039546
#
#
# Mechanical properties :
#
#
# Convention : Reuss Voigt Hill
#
# Bulk Modulus (GPa) = 63.00855 67.26602 65.13729
# Shear Modulus (GPa) = 31.52699 33.37087 32.44893
#
# Velocity S-wave (km/s) = 3.76574 3.87429 3.82040
# Velocity P-wave (km/s) = 6.87378 7.09011 6.98278
#
# Compressibility (1/GPa) = 0.01587086
#
# Stress axis : x y z
#
# Youngs Moduli (GPa) = 112.42202 112.42394 83.69576
#
# Poissons Ratio (x) = 0.35492 0.15804
# Poissons Ratio (y) = 0.35491 0.15804
# Poissons Ratio (z) = 0.21229 0.21229
#
# Static dielectric constant tensor:
#      x y z
#    x 4.617740 0.000000 0.000000 
#    y 0.000000 4.617780 0.000000 
#    z 0.000000 0.000000 4.149110 
# 
# 
# High freq. dielectric constant tensor:
#      x y z
#    x 1.880440 0.000000 0.000000 
#    y 0.000000 1.880440 0.000000 
#    z 0.000000 0.000000 1.874690 
# 
# From -- ./inp_files/7811.got.cif
#   From: 2010.03.12/outbox.cif.g09.slc.cpg/sg98_4_cif.got.tgz:7811.got - 2010.04.08 21:04:41.
