data_PCOD8306651
_publ_section_title
;
Structure prediction by ZEFSAII (Michael W. Deem and Ramdas Pophale) SiO2 
 PCOD8306651
Probable space group: P 4 B M
;
_chemical_formula_sum "Si O2"
_cell_formula_units_Z 64
_cell_length_a 16.605645
_cell_length_b 16.605645
_cell_length_c 11.993774
_cell_angle_alpha 90.000000
_cell_angle_beta 90.000000
_cell_angle_gamma 90.000000
_cell_volume 3307.252547
_symmetry_space_group_name_H-M "P 4 B M"
_symmetry_group_IT_number 100
_symmetry_cell_setting 'tetragonal'
loop_
_space_group_symop_operation_xyz
x,y,z
-y,x,z
-x,-y,z
y,-x,z
1/2-x,1/2+y,z
1/2+x,1/2-y,z
1/2-y,1/2-x,z
1/2+y,1/2+x,z
loop_
_atom_site_type_symbol
_atom_site_label
_atom_site_fract_x
_atom_site_fract_y
_atom_site_fract_z
Si Si1 0.172621 0.802957 0.464370
Si Si2 0.610758 0.430186 0.638598
Si Si3 0.869575 0.504501 0.875352
Si Si4 0.429941 0.389097 0.896261
Si Si5 0.899018 0.265626 0.023560
Si Si6 0.788573 0.418665 0.277247
Si Si7 0.130760 0.504427 0.631345
Si Si8 0.066792 0.299670 0.422547
O O1 0.235873 0.735873 0.506153
O O2 0.111964 0.820211 0.565547
O O3 0.124846 0.775534 0.355760
O O4 0.217695 0.883809 0.427460
O O5 0.608963 0.524543 0.610261
O O6 0.632157 0.416191 0.767305
O O7 0.907462 0.592539 0.904336
O O8 0.826908 0.504173 0.752953
O O9 0.941996 0.441996 0.867991
O O10 0.805785 0.478442 0.968407
O O11 0.524873 0.390681 0.924520
O O12 0.384965 0.321886 0.969953
O O13 0.819966 0.319966 0.002135
O O14 0.916525 0.253590 0.153242
O O15 0.875177 0.375177 0.282229
O O16 0.799652 0.510579 0.314070
O O17 0.059708 0.440293 0.626211
O O18 0.195177 0.487812 0.534422
O O19 0.093649 0.593649 0.612233
O O20 0.123590 0.376411 0.411181
#
# Coordination Sequence:
#
# PCOD8306651 Si02
#       8
#     8   8   8   8   8   8   8   8
#     4  10  21  35  51  75 108 140 170 212 266 317
#     4   9  18  35  59  82 104 133 171 216 264 317
#     4   8  15  29  49  75 107 138 167 207 263 321
#     4   9  20  39  59  79 106 140 177 218 266 323
#     4  10  21  36  55  79 106 139 181 227 271 316
#     4  10  22  37  51  73 107 142 177 221 266 306
#     4   8  14  26  46  73 102 129 161 204 253 307
#     4  10  20  34  54  78 105 141 180 215 257 316
#
# _framework density 19.351410000000001
#
# number of rings (size 3 to 8) (size 9 to 14) (size 15 to 20)
#    0.000    2.750    0.000    2.625    0.000    5.750 
#    0.000    4.375    0.000    1.500    0.000    0.000 
#    0.000    0.000    0.000    0.000    0.000    0.000 
#
# Total GULP energy -793593.769045 kJ/mol
# GULP energy per Si atom -12399.902641 kJ/mol
# Density = 1.930736 g / cm^3
# Si number density = 19.351410 Si / 1000 Ang^3
#
#
#
# Elastic Constant Matrix: (Units=GPa)
#
#
# Indices 1 2 3 4 5 6 
#
# 1 80.3110 35.3626 54.8834 0.0000 0.0000 -0.0001
# 2 35.3626 80.3110 54.8834 0.0000 0.0000 0.0001
# 3 54.8834 54.8834 127.4646 0.0000 0.0000 0.0000
# 4 0.0000 0.0000 0.0000 28.4330 0.0000 0.0000
# 5 0.0000 0.0000 0.0000 0.0000 28.4330 0.0000
# 6 -0.0001 0.0001 0.0000 0.0000 0.0000 19.5759
#
#
#
# Elastic Compliance Matrix: (Units=1/GPa)
#
#
# Indices 1 2 3 4 5 6 
#
# 1 0.018433 -0.003815 -0.006294 0.000000 0.000000 0.000000
# 2 -0.003815 0.018433 -0.006294 0.000000 0.000000 0.000000
# 3 -0.006294 -0.006294 0.013265 0.000000 0.000000 0.000000
# 4 0.000000 0.000000 0.000000 0.035170 0.000000 0.000000
# 5 0.000000 0.000000 0.000000 0.000000 0.035170 0.000000
# 6 0.000000 0.000000 0.000000 0.000000 0.000000 0.051083
#
#
# Mechanical properties :
#
#
# Convention : Reuss Voigt Hill
#
# Bulk Modulus (GPa) = 57.72133 64.26061 60.99097
# Shear Modulus (GPa) = 23.79411 24.81884 24.30647
#
# Velocity S-wave (km/s) = 3.51034 3.58513 3.54793
# Velocity P-wave (km/s) = 6.80608 7.10048 6.95484
#
# Compressibility (1/GPa) = 0.01732462
#
# Stress axis : x y z
#
# Youngs Moduli (GPa) = 54.25144 54.25144 75.38383
#
# Poissons Ratio (x) = 0.20697 0.47447
# Poissons Ratio (y) = 0.20697 0.47447
# Poissons Ratio (z) = 0.34146 0.34146
#
# Static dielectric constant tensor:
#      x y z
#    x 3.458210 0.000000 0.000000 
#    y 0.000000 3.458210 0.000000 
#    z 0.000000 0.000000 3.537170 
# 
# 
# High freq. dielectric constant tensor:
#      x y z
#    x 1.745520 0.000000 0.000000 
#    y 0.000000 1.745520 0.000000 
#    z 0.000000 0.000000 1.746460 
# 
# From -- ./inp_files/1374.got.cif
#   From: 2010.03.12/outbox.cif.g09.slc.cpg/sg100_cif.got.tgz:1374.got - 2010.04.14 01:37:57.
