data_PCOD8306140
_publ_section_title
;
Structure prediction by ZEFSAII (Michael W. Deem and Ramdas Pophale) SiO2 
 PCOD8306140
Probable space group: I 4 2 2 
;
_chemical_formula_sum "Si O2"
_cell_formula_units_Z 112
_cell_length_a 14.394249
_cell_length_b 14.394249
_cell_length_c 24.210943
_cell_angle_alpha 90.000000
_cell_angle_beta 90.000000
_cell_angle_gamma 90.000000
_cell_volume 5016.371912
_symmetry_space_group_name_H-M "I 4 2 2 "
_symmetry_group_IT_number 97
_symmetry_cell_setting 'tetragonal'
loop_
_space_group_symop_operation_xyz
x,y,z
-y,x,z
-x,-y,z
y,-x,z
x,-y,-z
-x,y,-z
y,x,-z
-y,-x,-z
1/2+x,1/2+y,1/2+z
1/2-y,1/2+x,1/2+z
1/2-x,1/2-y,1/2+z
1/2+y,1/2-x,1/2+z
1/2+x,1/2-y,1/2-z
1/2-x,1/2+y,1/2-z
1/2+y,1/2+x,1/2-z
1/2-y,1/2-x,1/2-z
loop_
_atom_site_type_symbol
_atom_site_label
_atom_site_fract_x
_atom_site_fract_y
_atom_site_fract_z
Si Si1 0.864692 0.722788 0.482478
Si Si2 0.054465 0.248454 0.051547
Si Si3 0.053755 0.700499 0.772110
Si Si4 0.933037 0.135374 0.845694
Si Si5 0.540145 0.899885 0.370187
Si Si6 0.525409 0.775574 0.092845
Si Si7 0.151497 0.986762 0.690312
O O1 0.820949 0.820949 0.500000
O O2 0.786452 0.646364 0.476796
O O3 0.932034 0.708026 0.533275
O O4 0.915715 0.718069 0.422393
O O5 0.080810 0.161986 0.090549
O O6 0.993929 0.326590 0.083775
O O7 0.000000 0.206307 0.000000
O O8 0.136129 0.636129 0.750000
O O9 0.103928 0.779923 0.808781
O O10 0.992862 0.751792 0.724692
O O11 0.986769 0.636301 0.809368
O O12 0.042563 0.123168 0.831918
O O13 0.649638 0.921380 0.369042
O O14 0.500000 0.000000 0.385435
O O15 0.530942 0.678409 0.126089
O O16 0.098396 0.083307 0.704371
#
# Coordination Sequence:
#
# PCOD8306140 Si02
#       7
#    16  16  16  16  16  16  16
#     4  11  24  39  64  97 140 175 225 284 335 398
#     4  11  23  38  64 102 137 182 226 273 333 404
#     4  11  25  44  69 103 133 171 229 292 349 412
#     4  10  24  46  71  97 137 186 226 274 341 414
#     4  11  22  41  66  95 139 178 216 273 349 417
#     4  11  23  42  67  99 130 181 226 279 345 407
#     4  11  25  48  72  96 134 184 232 283 349 420
#
# _framework density 22.326892999999998
#
# number of rings (size 3 to 8) (size 9 to 14) (size 15 to 20)
#    0.000    1.143    2.857    2.571    4.000    3.429 
#    7.714    0.714    0.000    3.429    0.000    0.000 
#    0.000    0.000    0.000    0.000    0.000    0.000 
#
# Total GULP energy -693756.502622 kJ/mol
# GULP energy per Si atom -12388.508975 kJ/mol
# Density = 2.227608 g / cm^3
# Si number density = 22.326893 Si / 1000 Ang^3
#
#
#
# Elastic Constant Matrix: (Units=GPa)
#
#
# Indices 1 2 3 4 5 6 
#
# 1 91.1994 32.9962 37.8530 0.0000 0.0000 0.0000
# 2 32.9962 91.1994 37.8530 0.0000 0.0000 0.0000
# 3 37.8530 37.8530 106.6897 0.0000 0.0000 0.0000
# 4 0.0000 0.0000 0.0000 39.0132 0.0000 0.0000
# 5 0.0000 0.0000 0.0000 0.0000 39.0132 0.0000
# 6 0.0000 0.0000 0.0000 0.0000 0.0000 18.3035
#
#
#
# Elastic Compliance Matrix: (Units=1/GPa)
#
#
# Indices 1 2 3 4 5 6 
#
# 1 0.013727 -0.003454 -0.003645 0.000000 0.000000 0.000000
# 2 -0.003454 0.013727 -0.003645 0.000000 0.000000 0.000000
# 3 -0.003645 -0.003645 0.011959 0.000000 0.000000 0.000000
# 4 0.000000 0.000000 0.000000 0.025632 0.000000 0.000000
# 5 0.000000 0.000000 0.000000 0.000000 0.025632 0.000000
# 6 0.000000 0.000000 0.000000 0.000000 0.000000 0.054634
#
#
# Mechanical properties :
#
#
# Convention : Reuss Voigt Hill
#
# Bulk Modulus (GPa) = 55.78277 56.27697 56.02987
# Shear Modulus (GPa) = 28.93905 31.29173 30.11539
#
# Velocity S-wave (km/s) = 3.60412 3.74776 3.67664
# Velocity P-wave (km/s) = 6.50833 6.63236 6.57064
#
# Compressibility (1/GPa) = 0.01792668
#
# Stress axis : x y z
#
# Youngs Moduli (GPa) = 72.84663 72.84663 83.61560
#
# Poissons Ratio (x) = 0.25159 0.30479
# Poissons Ratio (y) = 0.25159 0.30479
# Poissons Ratio (z) = 0.26553 0.26553
#
# Static dielectric constant tensor:
#      x y z
#    x 3.605550 0.000000 0.000000 
#    y 0.000000 3.605550 0.000000 
#    z 0.000000 0.000000 4.173360 
# 
# 
# High freq. dielectric constant tensor:
#      x y z
#    x 1.874010 0.000000 0.000000 
#    y 0.000000 1.874010 0.000000 
#    z 0.000000 0.000000 1.894850 
# 
# From -- ./inp_files/7263.got.cif
#   From: 2010.03.12/outbox.cif.g09.slc.cpg/sg97_4_cif.got.tgz:7263.got - 2010.04.08 20:59:42.
