data_PCOD8306041
_publ_section_title
;
Structure prediction by ZEFSAII (Michael W. Deem and Ramdas Pophale) SiO2 
 PCOD8306041
Probable space group: I 4 2 2 
;
_chemical_formula_sum "Si O2"
_cell_formula_units_Z 116
_cell_length_a 17.761675
_cell_length_b 17.761675
_cell_length_c 19.254165
_cell_angle_alpha 90.000000
_cell_angle_beta 90.000000
_cell_angle_gamma 90.000000
_cell_volume 6074.248114
_symmetry_space_group_name_H-M "I 4 2 2 "
_symmetry_group_IT_number 97
_symmetry_cell_setting 'tetragonal'
loop_
_space_group_symop_operation_xyz
x,y,z
-y,x,z
-x,-y,z
y,-x,z
x,-y,-z
-x,y,-z
y,x,-z
-y,-x,-z
1/2+x,1/2+y,1/2+z
1/2-y,1/2+x,1/2+z
1/2-x,1/2-y,1/2+z
1/2+y,1/2-x,1/2+z
1/2+x,1/2-y,1/2-z
1/2-x,1/2+y,1/2-z
1/2+y,1/2+x,1/2-z
1/2-y,1/2-x,1/2-z
loop_
_atom_site_type_symbol
_atom_site_label
_atom_site_fract_x
_atom_site_fract_y
_atom_site_fract_z
Si Si1 0.071921 0.790111 0.644064
Si Si2 0.407393 0.299867 0.161701
Si Si3 0.270192 0.666718 0.296881
Si Si4 0.348446 0.148632 0.094803
Si Si5 0.985135 0.614990 0.132274
Si Si6 0.422375 0.846606 0.041057
Si Si7 0.606524 0.780605 0.716130
Si Si8 0.000000 0.500000 0.750000
O O1 0.139491 0.848622 0.630788
O O2 0.088710 0.719182 0.596129
O O3 0.064867 0.763607 0.723199
O O4 0.989053 0.826118 0.633194
O O5 0.400479 0.300006 0.246470
O O6 0.393548 0.215479 0.133012
O O7 0.209579 0.709579 0.250000
O O8 0.233518 0.639108 0.369417
O O9 0.334435 0.724538 0.320321
O O10 0.386633 0.066791 0.098076
O O11 0.351266 0.163062 0.011896
O O12 0.926953 0.575500 0.079742
O O13 0.951802 0.696082 0.155494
O O14 0.997650 0.573811 0.204376
O O15 0.500000 0.836179 0.000000
O O16 0.647523 0.852478 0.750000
#
# Coordination Sequence:
#
# PCOD8306041 Si02
#       8
#    16  16  16  16  16  16  16   4
#     4  11  22  41  63  89 117 159 201 251 306 357
#     4  10  22  40  63  88 116 152 204 256 300 360
#     4   8  18  34  59  85 112 143 193 244 299 349
#     4  11  23  37  56  83 118 160 196 248 297 362
#     4  12  24  35  56  84 119 157 205 247 303 360
#     4  12  24  42  55  81 125 162 204 243 301 371
#     4  10  18  37  59  85 114 144 195 250 295 360
#     4  12  24  32  54  84 112 156 198 256 300 372
#
# _framework density 19.097013
#
# number of rings (size 3 to 8) (size 9 to 14) (size 15 to 20)
#    0.000    1.379    3.448    2.897    4.828    1.379 
#    0.000    0.000    0.000    0.000    0.000    0.000 
#    0.000    0.000    0.000    0.000    8.552    1.379 
#
# Total GULP energy -718693.275786 kJ/mol
# GULP energy per Si atom -12391.263376 kJ/mol
# Density = 1.905355 g / cm^3
# Si number density = 19.097013 Si / 1000 Ang^3
#
#
#
# Elastic Constant Matrix: (Units=GPa)
#
#
# Indices 1 2 3 4 5 6 
#
# 1 96.1740 49.1600 30.7826 0.0000 0.0000 0.0000
# 2 49.1600 96.1747 30.7834 0.0000 0.0000 0.0000
# 3 30.7826 30.7834 75.9968 0.0000 0.0000 0.0000
# 4 0.0000 0.0000 0.0000 15.1247 0.0000 0.0000
# 5 0.0000 0.0000 0.0000 0.0000 15.1249 0.0000
# 6 0.0000 0.0000 0.0000 0.0000 0.0000 20.7907
#
#
#
# Elastic Compliance Matrix: (Units=1/GPa)
#
#
# Indices 1 2 3 4 5 6 
#
# 1 0.014788 -0.006482 -0.003364 0.000000 0.000000 0.000000
# 2 -0.006482 0.014788 -0.003364 0.000000 0.000000 0.000000
# 3 -0.003364 -0.003364 0.015884 0.000000 0.000000 0.000000
# 4 0.000000 0.000000 0.000000 0.066117 0.000000 0.000000
# 5 0.000000 0.000000 0.000000 0.000000 0.066116 0.000000
# 6 0.000000 0.000000 0.000000 0.000000 0.000000 0.048098
#
#
# Mechanical properties :
#
#
# Convention : Reuss Voigt Hill
#
# Bulk Modulus (GPa) = 52.52568 54.42195 53.47382
# Shear Modulus (GPa) = 19.33792 20.71601 20.02696
#
# Velocity S-wave (km/s) = 3.18561 3.29717 3.24187
# Velocity P-wave (km/s) = 6.41055 6.56160 6.48652
#
# Compressibility (1/GPa) = 0.01903831
#
# Stress axis : x y z
#
# Youngs Moduli (GPa) = 67.62237 67.62239 62.95656
#
# Poissons Ratio (x) = 0.43834 0.21180
# Poissons Ratio (y) = 0.43834 0.21182
# Poissons Ratio (z) = 0.22750 0.22751
#
# Static dielectric constant tensor:
#      x y z
#    x 3.611300 0.000000 0.000000 
#    y 0.000000 3.611290 0.000000 
#    z 0.000000 0.000000 3.554310 
# 
# 
# High freq. dielectric constant tensor:
#      x y z
#    x 1.732270 0.000000 0.000000 
#    y 0.000000 1.732270 0.000000 
#    z 0.000000 0.000000 1.734170 
# 
# From -- ./inp_files/5920.got.cif
#   From: 2010.03.12/outbox.cif.g09.slc.cpg/sg97_3_cif.got.tgz:5920.got - 2010.04.08 20:59:42.
