data_PCOD8306762
_publ_section_title
;
Structure prediction by ZEFSAII (Michael W. Deem and Ramdas Pophale) SiO2 
 PCOD8306762
Probable space group: P 42 C M
;
_chemical_formula_sum "Si O2"
_cell_formula_units_Z 64
_cell_length_a 19.303487
_cell_length_b 19.303487
_cell_length_c 9.908282
_cell_angle_alpha 90.000000
_cell_angle_beta 90.000000
_cell_angle_gamma 90.000000
_cell_volume 3692.069720
_symmetry_space_group_name_H-M "P 42 C M"
_symmetry_group_IT_number 101
_symmetry_cell_setting 'tetragonal'
loop_
_space_group_symop_operation_xyz
x,y,z
-y,x,1/2+z
-x,-y,z
y,-x,1/2+z
-x,y,1/2+z
x,-y,1/2+z
-y,-x,z
y,x,z
loop_
_atom_site_type_symbol
_atom_site_label
_atom_site_fract_x
_atom_site_fract_y
_atom_site_fract_z
Si Si1 0.918583 0.519789 0.945340
Si Si2 0.500021 0.610015 0.459674
Si Si3 0.567471 0.680321 0.209888
Si Si4 0.957444 0.332237 0.412342
Si Si5 0.561819 0.155374 0.710817
Si Si6 0.689460 0.929457 0.205548
Si Si7 0.072141 0.182124 0.864948
Si Si8 0.951635 0.840424 0.166702
O O1 0.914138 0.597851 0.884737
O O2 0.876451 0.469001 0.848089
O O3 0.000000 0.500000 0.963010
O O4 0.879359 0.518081 0.089267
O O5 0.438145 0.561856 0.404323
O O6 0.562508 0.562508 0.514706
O O7 0.524927 0.658183 0.339899
O O8 0.474412 0.657811 0.579360
O O9 0.644295 0.644295 0.210621
O O10 0.565274 0.762584 0.209214
O O11 0.975250 0.324729 0.571086
O O12 0.915267 0.264872 0.358980
O O13 0.029975 0.336108 0.336527
O O14 0.643487 0.138963 0.697910
O O15 0.770780 0.911023 0.213174
O O16 0.147180 0.147180 0.852124
O O17 0.024959 0.155492 0.742026
O O18 0.035539 0.160354 0.005702
O O19 0.905781 0.905781 0.210539
#
# Coordination Sequence:
#
# PCOD8306762 Si02
#       8
#     8   8   8   8   8   8   8   8
#     4  11  21  34  53  77 104 132 173 218 257 299
#     4   9  17  32  55  77  98 133 178 216 251 299
#     4  10  20  34  51  76 109 138 169 211 259 310
#     4   9  18  32  51  72  95 126 164 209 252 291
#     4  11  22  33  51  78 106 137 169 209 261 307
#     4   9  18  32  49  69  94 127 164 199 246 300
#     4   9  18  33  51  72  98 129 166 206 253 304
#     4   9  18  32  50  71  96 127 163 205 249 297
#
# _framework density 17.334451999999999
#
# number of rings (size 3 to 8) (size 9 to 14) (size 15 to 20)
#    0.000    2.375    1.250    1.500    1.750    2.750 
#    0.000    3.125    0.000    1.500    0.000    5.250 
#    0.000    0.000    0.000    0.000    0.000    0.000 
#
# Total GULP energy -793188.605147 kJ/mol
# GULP energy per Si atom -12393.571955 kJ/mol
# Density = 1.729500 g / cm^3
# Si number density = 17.334452 Si / 1000 Ang^3
#
#
#
# Elastic Constant Matrix: (Units=GPa)
#
#
# Indices 1 2 3 4 5 6 
#
# 1 103.5424 46.6481 40.3021 0.0000 0.0000 0.0001
# 2 46.6481 103.5424 40.3021 0.0000 0.0000 -0.0001
# 3 40.3021 40.3021 72.2977 0.0000 0.0000 0.0000
# 4 0.0000 0.0000 0.0000 20.5073 0.0000 0.0000
# 5 0.0000 0.0000 0.0000 0.0000 20.5073 0.0000
# 6 0.0001 -0.0001 0.0000 0.0000 0.0000 18.9833
#
#
#
# Elastic Compliance Matrix: (Units=1/GPa)
#
#
# Indices 1 2 3 4 5 6 
#
# 1 0.013538 -0.004038 -0.005296 0.000000 0.000000 0.000000
# 2 -0.004038 0.013538 -0.005296 0.000000 0.000000 0.000000
# 3 -0.005296 -0.005296 0.019736 0.000000 0.000000 0.000000
# 4 0.000000 0.000000 0.000000 0.048763 0.000000 0.000000
# 5 0.000000 0.000000 0.000000 0.000000 0.048763 0.000000
# 6 0.000000 0.000000 0.000000 0.000000 0.000000 0.052678
#
#
# Mechanical properties :
#
#
# Convention : Reuss Voigt Hill
#
# Bulk Modulus (GPa) = 56.97002 59.32081 58.14541
# Shear Modulus (GPa) = 21.53980 22.14158 21.84069
#
# Velocity S-wave (km/s) = 3.52888 3.57783 3.55344
# Velocity P-wave (km/s) = 7.03850 7.16683 7.10296
#
# Compressibility (1/GPa) = 0.01755309
#
# Stress axis : x y z
#
# Youngs Moduli (GPa) = 73.86359 73.86359 50.66835
#
# Poissons Ratio (x) = 0.29826 0.26834
# Poissons Ratio (y) = 0.29826 0.26834
# Poissons Ratio (z) = 0.39118 0.39118
#
# Static dielectric constant tensor:
#      x y z
#    x 3.215130 0.000000 0.000000 
#    y 0.000000 3.215130 0.000000 
#    z 0.000000 0.000000 3.359510 
# 
# 
# High freq. dielectric constant tensor:
#      x y z
#    x 1.660970 0.000000 0.000000 
#    y 0.000000 1.660970 0.000000 
#    z 0.000000 0.000000 1.678520 
# 
# From -- ./inp_files/852.got.cif
#   From: 2010.03.12/outbox.cif.g09.slc.cpg/sg101_1_cif.got.tgz:852.got - 2010.04.14 01:38:52.
