data_PCOD8306556
_publ_section_title
;
Structure prediction by ZEFSAII (Michael W. Deem and Ramdas Pophale) SiO2 
 PCOD8306556
Probable space group: P 4 M M
;
_chemical_formula_sum "Si O2"
_cell_formula_units_Z 64
_cell_length_a 13.714992
_cell_length_b 13.714992
_cell_length_c 20.408030
_cell_angle_alpha 90.000000
_cell_angle_beta 90.000000
_cell_angle_gamma 90.000000
_cell_volume 3838.770964
_symmetry_space_group_name_H-M "P 4 M M"
_symmetry_group_IT_number 99
_symmetry_cell_setting 'tetragonal'
loop_
_space_group_symop_operation_xyz
x,y,z
-y,x,z
-x,-y,z
y,-x,z
-x,y,z
x,-y,z
-y,-x,z
y,x,z
loop_
_atom_site_type_symbol
_atom_site_label
_atom_site_fract_x
_atom_site_fract_y
_atom_site_fract_z
Si Si1 0.113701 0.727865 0.942460
Si Si2 0.769872 0.387844 0.043761
Si Si3 0.610998 0.231298 0.194029
Si Si4 0.227428 0.386231 0.683310
Si Si5 0.265100 0.890140 0.434739
Si Si6 0.724452 0.114438 0.577247
Si Si7 0.611929 0.888256 0.812930
Si Si8 0.725887 0.113096 0.292543
O O1 0.170549 0.829452 0.949294
O O2 0.141746 0.678522 0.873822
O O3 0.000000 0.751149 0.947724
O O4 0.142306 0.654111 0.000467
O O5 0.750528 0.500000 0.025809
O O6 0.669938 0.330063 0.028707
O O7 0.801814 0.374971 0.119063
O O8 0.500000 0.257669 0.209441
O O9 0.672089 0.327912 0.210421
O O10 0.644556 0.142493 0.239870
O O11 0.251353 0.500000 0.677999
O O12 0.328345 0.328345 0.675227
O O13 0.151205 0.358017 0.626714
O O14 0.179462 0.358626 0.752465
O O15 0.163584 0.836417 0.434076
O O16 0.320258 0.866699 0.503484
O O17 0.320660 0.867502 0.365864
O O18 0.231585 0.000000 0.435432
O O19 0.824849 0.175152 0.587887
O O20 0.745969 0.000000 0.589474
O O21 0.500000 0.871917 0.833422
O O22 0.630003 0.000000 0.792330
O O23 0.824034 0.175967 0.281665
O O24 0.752571 0.000000 0.282472
#
# Coordination Sequence:
#
# PCOD8306556 Si02
#       8
#     8   8   8   8   8   8   8   8
#     4  10  20  33  49  69  95 127 161 194 224 258
#     4   9  18  32  50  72  95 118 147 185 231 281
#     4   9  18  32  49  69  92 118 149 187 231 277
#     4  10  20  33  49  68  91 121 156 193 231 270
#     4   8  14  25  41  62  89 119 149 183 223 267
#     4   9  17  29  46  69  95 121 150 184 225 274
#     4   9  17  30  50  74  95 116 146 185 230 278
#     4   9  17  29  45  66  93 123 154 187 223 266
#
# _framework density 16.672003
#
# number of rings (size 3 to 8) (size 9 to 14) (size 15 to 20)
#    0.000    2.875    0.000    1.125    0.000    3.125 
#    0.000    5.625    0.000    2.250    0.000    7.000 
#    0.000    5.000    0.000    0.000    0.000    0.000 
#
# Total GULP energy -793185.252392 kJ/mol
# GULP energy per Si atom -12393.519569 kJ/mol
# Density = 1.663406 g / cm^3
# Si number density = 16.672003 Si / 1000 Ang^3
#
#
#
# Elastic Constant Matrix: (Units=GPa)
#
#
# Indices 1 2 3 4 5 6 
#
# 1 85.9913 38.6754 56.7436 0.0000 0.0000 -0.0002
# 2 38.6754 85.9913 56.7436 0.0000 0.0000 0.0002
# 3 56.7436 56.7436 114.1974 0.0000 0.0000 0.0000
# 4 0.0000 0.0000 0.0000 24.7475 0.0000 0.0000
# 5 0.0000 0.0000 0.0000 0.0000 24.7475 0.0000
# 6 -0.0002 0.0002 0.0000 0.0000 0.0000 14.0111
#
#
#
# Elastic Compliance Matrix: (Units=1/GPa)
#
#
# Indices 1 2 3 4 5 6 
#
# 1 0.017891 -0.003244 -0.007278 0.000000 0.000000 0.000000
# 2 -0.003244 0.017891 -0.007278 0.000000 0.000000 0.000000
# 3 -0.007278 -0.007278 0.015989 0.000000 0.000000 0.000000
# 4 0.000000 0.000000 0.000000 0.040408 0.000000 0.000000
# 5 0.000000 0.000000 0.000000 0.000000 0.040408 0.000000
# 6 0.000000 0.000000 0.000000 0.000000 0.000000 0.071372
#
#
# Mechanical properties :
#
#
# Convention : Reuss Voigt Hill
#
# Bulk Modulus (GPa) = 61.83770 65.61167 63.72469
# Shear Modulus (GPa) = 20.41253 21.63571 21.02412
#
# Velocity S-wave (km/s) = 3.50288 3.60631 3.55497
# Velocity P-wave (km/s) = 7.31652 7.53528 7.42671
#
# Compressibility (1/GPa) = 0.01617136
#
# Stress axis : x y z
#
# Youngs Moduli (GPa) = 55.89558 55.89558 62.54224
#
# Poissons Ratio (x) = 0.18133 0.45516
# Poissons Ratio (y) = 0.18133 0.45516
# Poissons Ratio (z) = 0.40679 0.40679
#
# Static dielectric constant tensor:
#      x y z
#    x 2.976390 0.000000 0.000000 
#    y 0.000000 2.976390 0.000000 
#    z 0.000000 0.000000 3.501410 
# 
# 
# High freq. dielectric constant tensor:
#      x y z
#    x 1.628650 0.000000 0.000000 
#    y 0.000000 1.628650 0.000000 
#    z 0.000000 0.000000 1.660420 
# 
# From -- ./inp_files/2061.got.cif
#   From: 2010.03.12/outbox.cif.g09.slc.cpg/sg99_cif.got.tgz:2061.got - 2010.04.08 21:11:30.
