data_PCOD8306102
_publ_section_title
;
Structure prediction by ZEFSAII (Michael W. Deem and Ramdas Pophale) SiO2 
 PCOD8306102
Probable space group: I 4 2 2 
;
_chemical_formula_sum "Si O2"
_cell_formula_units_Z 112
_cell_length_a 14.295800
_cell_length_b 14.295800
_cell_length_c 27.482999
_cell_angle_alpha 90.000000
_cell_angle_beta 90.000000
_cell_angle_gamma 90.000000
_cell_volume 5616.697692
_symmetry_space_group_name_H-M "I 4 2 2 "
_symmetry_group_IT_number 97
_symmetry_cell_setting 'tetragonal'
loop_
_space_group_symop_operation_xyz
x,y,z
-y,x,z
-x,-y,z
y,-x,z
x,-y,-z
-x,y,-z
y,x,-z
-y,-x,-z
1/2+x,1/2+y,1/2+z
1/2-y,1/2+x,1/2+z
1/2-x,1/2-y,1/2+z
1/2+y,1/2-x,1/2+z
1/2+x,1/2-y,1/2-z
1/2-x,1/2+y,1/2-z
1/2+y,1/2+x,1/2-z
1/2-y,1/2-x,1/2-z
loop_
_atom_site_type_symbol
_atom_site_label
_atom_site_fract_x
_atom_site_fract_y
_atom_site_fract_z
Si Si1 0.911755 0.441692 0.131884
Si Si2 0.502286 0.225702 0.942018
Si Si3 0.675981 0.651635 0.444845
Si Si4 0.815989 0.817647 0.555111
Si Si5 0.852458 0.503888 0.768315
Si Si6 0.153550 0.991224 0.218378
Si Si7 0.016570 0.767083 0.114348
O O1 0.876496 0.480392 0.080064
O O2 0.840062 0.474189 0.174112
O O3 0.936531 0.332172 0.127587
O O4 0.000000 0.500000 0.148403
O O5 0.585553 0.290646 0.920744
O O6 0.407952 0.269962 0.920253
O O7 0.500000 0.213495 0.000000
O O8 0.638497 0.638497 0.500000
O O9 0.730134 0.748603 0.441532
O O10 0.588380 0.660353 0.409434
O O11 0.742566 0.567899 0.425234
O O12 0.841877 0.841877 0.500000
O O13 0.900528 0.599473 0.750000
O O14 0.747015 0.488725 0.750402
O O15 0.914870 0.414870 0.750000
O O16 0.184310 0.980008 0.162688
O O17 0.097878 0.087376 0.229411
#
# Coordination Sequence:
#
# PCOD8306102 Si02
#       7
#    16  16  16  16  16  16  16
#     4  12  23  41  66  95 127 164 218 269 323 386
#     4  10  21  39  61  91 128 172 214 266 321 385
#     4  11  23  39  57  91 134 173 216 262 313 383
#     4   9  19  37  58  84 126 166 215 265 313 372
#     4  11  22  44  68  94 128 163 211 273 333 384
#     4  11  24  44  67  95 130 166 214 269 328 395
#     4  12  22  39  66  90 125 176 212 259 324 381
#
# _framework density 19.940543000000002
#
# number of rings (size 3 to 8) (size 9 to 14) (size 15 to 20)
#    0.000    1.143    5.714    1.286    0.000    1.429 
#    5.143    2.143    0.000    0.000    0.000    0.000 
#    0.000    0.000    0.000    0.000    0.000    0.000 
#
# Total GULP energy -693991.742380 kJ/mol
# GULP energy per Si atom -12392.709685 kJ/mol
# Density = 1.989516 g / cm^3
# Si number density = 19.940543 Si / 1000 Ang^3
#
#
#
# Elastic Constant Matrix: (Units=GPa)
#
#
# Indices 1 2 3 4 5 6 
#
# 1 104.9640 32.9358 47.7378 0.0000 0.0000 0.0000
# 2 32.9358 104.9631 47.7377 0.0000 0.0000 0.0000
# 3 47.7378 47.7377 97.1551 0.0000 0.0000 0.0000
# 4 0.0000 0.0000 0.0000 28.1566 0.0000 0.0000
# 5 0.0000 0.0000 0.0000 0.0000 28.1567 0.0000
# 6 0.0000 0.0000 0.0000 0.0000 0.0000 24.6832
#
#
#
# Elastic Compliance Matrix: (Units=1/GPa)
#
#
# Indices 1 2 3 4 5 6 
#
# 1 0.012437 -0.001446 -0.005400 0.000000 0.000000 0.000000
# 2 -0.001446 0.012437 -0.005400 0.000000 0.000000 0.000000
# 3 -0.005400 -0.005400 0.015600 0.000000 0.000000 0.000000
# 4 0.000000 0.000000 0.000000 0.035516 0.000000 0.000000
# 5 0.000000 0.000000 0.000000 0.000000 0.035516 0.000000
# 6 0.000000 0.000000 0.000000 0.000000 0.000000 0.040513
#
#
# Mechanical properties :
#
#
# Convention : Reuss Voigt Hill
#
# Bulk Modulus (GPa) = 62.57914 62.65608 62.61761
# Shear Modulus (GPa) = 27.49682 28.11068 27.80375
#
# Velocity S-wave (km/s) = 3.71744 3.75870 3.73813
# Velocity P-wave (km/s) = 7.06235 7.09414 7.07826
#
# Compressibility (1/GPa) = 0.01597977
#
# Stress axis : x y z
#
# Youngs Moduli (GPa) = 80.40519 80.40444 64.10359
#
# Poissons Ratio (x) = 0.11630 0.34618
# Poissons Ratio (y) = 0.11630 0.34618
# Poissons Ratio (z) = 0.43421 0.43421
#
# Static dielectric constant tensor:
#      x y z
#    x 3.738490 0.000000 0.000000 
#    y 0.000000 3.738490 0.000000 
#    z 0.000000 0.000000 3.673250 
# 
# 
# High freq. dielectric constant tensor:
#      x y z
#    x 1.779950 0.000000 0.000000 
#    y 0.000000 1.779950 0.000000 
#    z 0.000000 0.000000 1.771110 
# 
# From -- ./inp_files/7706.got.cif
#   From: 2010.03.12/outbox.cif.g09.slc.cpg/sg97_4_cif.got.tgz:7706.got - 2010.04.08 20:59:42.
