data_PCOD8306994
_publ_section_title
;
Structure prediction by ZEFSAII (Michael W. Deem and Ramdas Pophale) SiO2 
 PCOD8306994
Probable space group: P 4 C C
;
_chemical_formula_sum "Si O2"
_cell_formula_units_Z 60
_cell_length_a 11.659236
_cell_length_b 11.659236
_cell_length_c 21.262264
_cell_angle_alpha 90.000000
_cell_angle_beta 90.000000
_cell_angle_gamma 90.000000
_cell_volume 2890.345053
_symmetry_space_group_name_H-M "P 4 C C"
_symmetry_group_IT_number 103
_symmetry_cell_setting 'tetragonal'
loop_
_space_group_symop_operation_xyz
x,y,z
-y,x,z
-x,-y,z
y,-x,z
-x,y,1/2+z
x,-y,1/2+z
-y,-x,1/2+z
y,x,1/2+z
loop_
_atom_site_type_symbol
_atom_site_label
_atom_site_fract_x
_atom_site_fract_y
_atom_site_fract_z
Si Si1 0.500000 0.000000 0.315830
Si Si2 0.147492 0.881754 0.670506
Si Si3 0.302310 0.240551 0.255873
Si Si4 0.332110 0.840380 0.888856
Si Si5 0.446036 0.830967 0.216569
Si Si6 0.944306 0.818111 0.988910
Si Si7 0.581471 0.669789 0.493833
Si Si8 0.170942 0.320737 0.091951
O O1 0.572290 0.924105 0.362716
O O2 0.417270 0.927654 0.268904
O O3 0.199258 0.847017 0.737622
O O4 0.215645 0.801120 0.620883
O O5 0.016135 0.840754 0.660616
O O6 0.294931 0.239974 0.331110
O O7 0.280882 0.369909 0.232311
O O8 0.420204 0.199060 0.223478
O O9 0.230761 0.917675 0.919144
O O10 0.382874 0.756006 0.939972
O O11 0.406257 0.876838 0.147229
O O12 0.074642 0.858250 0.998246
O O13 0.923178 0.715421 0.039312
O O14 0.446883 0.651405 0.487526
O O15 0.612772 0.722718 0.561359
#
# Coordination Sequence:
#
# PCOD8306994 Si02
#       8
#     4   8   8   8   8   8   8   8
#     4  10  24  44  64  96 140 174 212 286 338 400
#     4  10  22  40  65  95 133 178 222 271 333 407
#     4  10  24  40  66  98 133 179 221 277 336 409
#     4  10  24  41  68  92 133 174 223 278 332 403
#     4  10  24  42  65  98 135 176 222 275 341 404
#     4  10  22  41  66  98 131 175 222 278 327 395
#     4  10  24  44  67  96 129 175 229 281 327 398
#     4  10  22  40  66  94 130 174 212 277 329 394
#
# _framework density 20.758768
#
# number of rings (size 3 to 8) (size 9 to 14) (size 15 to 20)
#    0.000    2.000    0.000    0.800   16.800    2.400 
#    0.000    4.000    0.000    0.000    0.000    0.000 
#    0.000    0.000    0.000    0.000    0.000    0.000 
#
# Total GULP energy -743483.965973 kJ/mol
# GULP energy per Si atom -12391.399433 kJ/mol
# Density = 2.071152 g / cm^3
# Si number density = 20.758768 Si / 1000 Ang^3
#
#
#
# Elastic Constant Matrix: (Units=GPa)
#
#
# Indices 1 2 3 4 5 6 
#
# 1 93.9915 50.9980 56.0164 0.0000 0.0000 0.0000
# 2 50.9980 93.9915 56.0164 0.0000 0.0000 0.0000
# 3 56.0164 56.0164 136.0769 0.0000 0.0000 0.0000
# 4 0.0000 0.0000 0.0000 34.7652 0.0000 0.0000
# 5 0.0000 0.0000 0.0000 0.0000 34.7652 0.0000
# 6 0.0000 0.0000 0.0000 0.0000 0.0000 24.6143
#
#
#
# Elastic Compliance Matrix: (Units=1/GPa)
#
#
# Indices 1 2 3 4 5 6 
#
# 1 0.016687 -0.006573 -0.004164 0.000000 0.000000 0.000000
# 2 -0.006573 0.016687 -0.004164 0.000000 0.000000 0.000000
# 3 -0.004164 -0.004164 0.010777 0.000000 0.000000 0.000000
# 4 0.000000 0.000000 0.000000 0.028764 0.000000 0.000000
# 5 0.000000 0.000000 0.000000 0.000000 0.028764 0.000000
# 6 0.000000 0.000000 0.000000 0.000000 0.000000 0.040627
#
#
# Mechanical properties :
#
#
# Convention : Reuss Voigt Hill
#
# Bulk Modulus (GPa) = 69.68205 72.23574 70.95889
# Shear Modulus (GPa) = 28.26639 29.56422 28.91530
#
# Velocity S-wave (km/s) = 3.69407 3.77793 3.73623
# Velocity P-wave (km/s) = 7.19967 7.34190 7.27114
#
# Compressibility (1/GPa) = 0.01435090
#
# Stress axis : x y z
#
# Youngs Moduli (GPa) = 59.92780 59.92780 92.79322
#
# Poissons Ratio (x) = 0.39388 0.38635
# Poissons Ratio (y) = 0.39388 0.38635
# Poissons Ratio (z) = 0.24951 0.24951
#
# Static dielectric constant tensor:
#      x y z
#    x 3.781060 0.000000 0.000000 
#    y 0.000000 3.781060 0.000000 
#    z 0.000000 0.000000 4.098480 
# 
# 
# High freq. dielectric constant tensor:
#      x y z
#    x 1.808910 0.000000 0.000000 
#    y 0.000000 1.808910 0.000000 
#    z 0.000000 0.000000 1.827650 
# 
# From -- ./inp_files/1331.got.cif
#   From: 2010.03.12/outbox.cif.g09.slc.cpg/sg103_cif.got.tgz:1331.got - 2010.04.14 01:42:52.
