data_PCOD8306887
_publ_section_title
;
Structure prediction by ZEFSAII (Michael W. Deem and Ramdas Pophale) SiO2 
 PCOD8306887
Probable space group: P 42 N M
;
_chemical_formula_sum "Si O2"
_cell_formula_units_Z 64
_cell_length_a 21.054767
_cell_length_b 21.054767
_cell_length_c 9.317490
_cell_angle_alpha 90.000000
_cell_angle_beta 90.000000
_cell_angle_gamma 90.000000
_cell_volume 4130.473258
_symmetry_space_group_name_H-M "P 42 N M"
_symmetry_group_IT_number 102
_symmetry_cell_setting 'tetragonal'
loop_
_space_group_symop_operation_xyz
x,y,z
1/2-y,1/2+x,1/2+z
-x,-y,z
1/2+y,1/2-x,1/2+z
1/2-x,1/2+y,1/2+z
1/2+x,1/2-y,1/2+z
-y,-x,z
y,x,z
loop_
_atom_site_type_symbol
_atom_site_label
_atom_site_fract_x
_atom_site_fract_y
_atom_site_fract_z
Si Si1 0.831045 0.562635 0.727250
Si Si2 0.746201 0.647111 0.553283
Si Si3 0.352887 0.746204 0.731078
Si Si4 0.753799 0.147110 0.731076
Si Si5 0.562635 0.831044 0.057107
Si Si6 0.437364 0.831045 0.227251
Si Si7 0.253797 0.647112 0.053284
Si Si8 0.562637 0.168955 0.557107
O O1 0.765685 0.591074 0.661808
O O2 0.888334 0.611666 0.709549
O O3 0.851272 0.499999 0.642179
O O4 0.818274 0.545752 0.892178
O O5 0.679313 0.679313 0.601040
O O6 0.740062 0.619273 0.392180
O O7 0.799641 0.700358 0.555612
O O8 0.320685 0.679316 0.683322
O O9 0.299641 0.799643 0.728750
O O10 0.408924 0.765686 0.622550
O O11 0.380725 0.740065 0.892181
O O12 0.820688 0.179313 0.683319
O O13 0.734316 0.091074 0.622549
O O14 0.500000 0.851271 0.142179
O O15 0.611665 0.888333 0.074809
O O16 0.408924 0.765685 0.161811
O O17 0.454247 0.818274 0.392180
O O18 0.320686 0.679315 0.101040
#
# Coordination Sequence:
#
# PCOD8306887 Si02
#       8
#     8   8   8   8   8   8   8   8
#     4  10  20  31  43  60  83 113 147 181 214 249
#     4   8  14  26  44  63  82 105 133 168 212 257
#     4   8  14  26  44  63  82 105 133 168 212 257
#     4   8  14  26  44  63  82 105 133 168 212 257
#     4  10  20  31  43  60  83 113 147 181 214 249
#     4  10  20  31  43  60  83 113 147 181 214 249
#     4   8  14  26  44  63  82 105 133 168 212 257
#     4  10  20  31  43  60  83 113 147 181 214 249
#
# _framework density 15.494592000000001
#
# number of rings (size 3 to 8) (size 9 to 14) (size 15 to 20)
#    0.000    3.000    0.000    3.000    0.000    4.500 
#    0.000    7.500    0.000    0.000    0.000    0.000 
#    0.000    1.000    0.000   10.500    0.000    5.500 
#
# Total GULP energy -793249.179824 kJ/mol
# GULP energy per Si atom -12394.518435 kJ/mol
# Density = 1.545933 g / cm^3
# Si number density = 15.494592 Si / 1000 Ang^3
#
#
#
# Elastic Constant Matrix: (Units=GPa)
#
#
# Indices 1 2 3 4 5 6 
#
# 1 41.4604 37.8643 48.2206 0.0000 0.0000 -0.0005
# 2 37.8643 41.4604 48.2206 0.0000 0.0000 0.0005
# 3 48.2206 48.2206 129.1784 0.0000 0.0000 0.0000
# 4 0.0000 0.0000 0.0000 24.4445 0.0000 0.0000
# 5 0.0000 0.0000 0.0000 0.0000 24.4445 0.0000
# 6 -0.0005 0.0005 0.0000 0.0000 0.0000 10.8378
#
#
#
# Elastic Compliance Matrix: (Units=1/GPa)
#
#
# Indices 1 2 3 4 5 6 
#
# 1 0.150580 -0.127498 -0.008616 0.000000 0.000000 0.000012
# 2 -0.127498 0.150580 -0.008616 0.000000 0.000000 -0.000012
# 3 -0.008616 -0.008616 0.014174 0.000000 0.000000 0.000000
# 4 0.000000 0.000000 0.000000 0.040909 0.000000 0.000000
# 5 0.000000 0.000000 0.000000 0.000000 0.040909 0.000000
# 6 0.000012 -0.000012 0.000000 0.000000 0.000000 0.092269
#
#
# Mechanical properties :
#
#
# Convention : Reuss Voigt Hill
#
# Bulk Modulus (GPa) = 38.65071 53.41227 46.03149
# Shear Modulus (GPa) = 6.34916 17.13160 11.74038
#
# Velocity S-wave (km/s) = 2.02646 3.32874 2.75564
# Velocity P-wave (km/s) = 5.52034 7.02285 6.31643
#
# Compressibility (1/GPa) = 0.02587275
#
# Stress axis : x y z
#
# Youngs Moduli (GPa) = 6.64099 6.64099 70.55288
#
# Poissons Ratio (x) = 0.84672 0.60789
# Poissons Ratio (y) = 0.84672 0.60789
# Poissons Ratio (z) = 0.05722 0.05722
#
# Static dielectric constant tensor:
#      x y z
#    x 2.895760 0.000000 0.000000 
#    y 0.000000 2.895760 0.000000 
#    z 0.000000 0.000000 3.171570 
# 
# 
# High freq. dielectric constant tensor:
#      x y z
#    x 1.565370 0.000000 0.000000 
#    y 0.000000 1.565370 0.000000 
#    z 0.000000 0.000000 1.605230 
# 
# From -- ./inp_files/1202.got.cif
#   From: 2010.03.12/outbox.cif.g09.slc.cpg/sg102_1_cif.got.tgz:1202.got - 2010.04.14 01:40:42.
