data_PCOD8306874
_publ_section_title
;
Structure prediction by ZEFSAII (Michael W. Deem and Ramdas Pophale) SiO2 
 PCOD8306874
Probable space group: P 42 N M
;
_chemical_formula_sum "Si O2"
_cell_formula_units_Z 64
_cell_length_a 12.416577
_cell_length_b 12.416577
_cell_length_c 23.810978
_cell_angle_alpha 90.000000
_cell_angle_beta 90.000000
_cell_angle_gamma 90.000000
_cell_volume 3670.971442
_symmetry_space_group_name_H-M "P 42 N M"
_symmetry_group_IT_number 102
_symmetry_cell_setting 'tetragonal'
loop_
_space_group_symop_operation_xyz
x,y,z
1/2-y,1/2+x,1/2+z
-x,-y,z
1/2+y,1/2-x,1/2+z
1/2-x,1/2+y,1/2+z
1/2+x,1/2-y,1/2+z
-y,-x,z
y,x,z
loop_
_atom_site_type_symbol
_atom_site_label
_atom_site_fract_x
_atom_site_fract_y
_atom_site_fract_z
Si Si1 0.805261 0.625069 0.988560
Si Si2 0.578364 0.895478 0.871665
Si Si3 0.706603 0.872366 0.364092
Si Si4 0.998864 0.627828 0.063975
Si Si5 0.789761 0.618914 0.253643
Si Si6 0.298762 0.120430 0.760475
Si Si7 0.374027 0.799195 0.991372
Si Si8 0.500079 0.871699 0.690616
O O1 0.698434 0.698434 0.988240
O O2 0.871736 0.635427 0.930564
O O3 0.772228 0.500731 0.999510
O O4 0.887280 0.667943 0.036214
O O5 0.500793 0.794910 0.854731
O O6 0.668991 0.901616 0.824743
O O7 0.500000 0.000000 0.874369
O O8 0.828590 0.828590 0.356486
O O9 0.627799 0.811715 0.320563
O O10 0.664583 0.849179 0.427356
O O11 0.004348 0.672898 0.127270
O O12 0.000000 0.500000 0.063169
O O13 0.103453 0.667996 0.030194
O O14 0.685642 0.685642 0.235224
O O15 0.766595 0.496154 0.235710
O O16 0.892101 0.669209 0.220985
O O17 0.196735 0.196735 0.756556
O O18 0.396194 0.171557 0.724521
O O19 0.308000 0.692000 0.007787
O O20 0.500000 0.000000 0.693174
#
# Coordination Sequence:
#
# PCOD8306874 Si02
#       8
#     8   8   8   8   8   8   8   8
#     4  10  20  31  49  81 110 136 171 224 278 316
#     4  11  17  32  52  73 107 142 183 220 262 317
#     4   9  16  28  50  74  99 131 177 217 248 301
#     4   9  18  33  53  74 100 135 179 217 251 308
#     4  10  19  33  54  76 101 139 180 216 260 322
#     4  11  21  32  50  80 110 135 169 224 280 321
#     4   9  18  32  52  77 103 140 180 216 261 319
#     4   9  18  35  53  73  98 136 181 217 250 306
#
# _framework density 17.434078
#
# number of rings (size 3 to 8) (size 9 to 14) (size 15 to 20)
#    0.000    2.250    2.500    2.625    0.000    1.500 
#    0.000    0.000    0.000    2.625    0.000    8.750 
#    0.000    0.000    0.000    0.000    0.000    0.000 
#
# Total GULP energy -793240.905763 kJ/mol
# GULP energy per Si atom -12394.389153 kJ/mol
# Density = 1.739440 g / cm^3
# Si number density = 17.434078 Si / 1000 Ang^3
#
#
#
# Elastic Constant Matrix: (Units=GPa)
#
#
# Indices 1 2 3 4 5 6 
#
# 1 88.0746 54.5772 39.6082 0.0000 0.0000 -0.0002
# 2 54.5772 88.0746 39.6082 0.0000 0.0000 0.0002
# 3 39.6082 39.6082 103.4478 0.0000 0.0000 0.0000
# 4 0.0000 0.0000 0.0000 16.1645 0.0000 0.0000
# 5 0.0000 0.0000 0.0000 0.0000 16.1645 0.0000
# 6 -0.0002 0.0002 0.0000 0.0000 0.0000 27.0513
#
#
#
# Elastic Compliance Matrix: (Units=1/GPa)
#
#
# Indices 1 2 3 4 5 6 
#
# 1 0.019378 -0.010475 -0.003409 0.000000 0.000000 0.000000
# 2 -0.010475 0.019378 -0.003409 0.000000 0.000000 0.000000
# 3 -0.003409 -0.003409 0.012277 0.000000 0.000000 0.000000
# 4 0.000000 0.000000 0.000000 0.061864 0.000000 0.000000
# 5 0.000000 0.000000 0.000000 0.000000 0.061864 0.000000
# 6 0.000000 0.000000 0.000000 0.000000 0.000000 0.036967
#
#
# Mechanical properties :
#
#
# Convention : Reuss Voigt Hill
#
# Bulk Modulus (GPa) = 60.79805 60.79824 60.79814
# Shear Modulus (GPa) = 19.85736 21.59629 20.72682
#
# Velocity S-wave (km/s) = 3.37856 3.52339 3.45174
# Velocity P-wave (km/s) = 7.08297 7.17644 7.12986
#
# Compressibility (1/GPa) = 0.01644790
#
# Stress axis : x y z
#
# Youngs Moduli (GPa) = 51.60473 51.60473 81.45294
#
# Poissons Ratio (x) = 0.54056 0.27766
# Poissons Ratio (y) = 0.54056 0.27766
# Poissons Ratio (z) = 0.17591 0.17591
#
# Static dielectric constant tensor:
#      x y z
#    x 3.148130 0.000000 0.000000 
#    y 0.000000 3.148130 0.000000 
#    z 0.000000 0.000000 3.431590 
# 
# 
# High freq. dielectric constant tensor:
#      x y z
#    x 1.651070 0.000000 0.000000 
#    y 0.000000 1.651070 0.000000 
#    z 0.000000 0.000000 1.680370 
# 
# From -- ./inp_files/3423.got.cif
#   From: 2010.03.12/outbox.cif.g09.slc.cpg/sg102_2_cif.got.tgz:3423.got - 2010.04.14 01:40:42.
