data_PCOD8306867
_publ_section_title
;
Structure prediction by ZEFSAII (Michael W. Deem and Ramdas Pophale) SiO2 
 PCOD8306867
Probable space group: P 42 N M
;
_chemical_formula_sum "Si O2"
_cell_formula_units_Z 64
_cell_length_a 12.103457
_cell_length_b 12.103457
_cell_length_c 22.739606
_cell_angle_alpha 90.000000
_cell_angle_beta 90.000000
_cell_angle_gamma 90.000000
_cell_volume 3331.208368
_symmetry_space_group_name_H-M "P 42 N M"
_symmetry_group_IT_number 102
_symmetry_cell_setting 'tetragonal'
loop_
_space_group_symop_operation_xyz
x,y,z
1/2-y,1/2+x,1/2+z
-x,-y,z
1/2+y,1/2-x,1/2+z
1/2-x,1/2+y,1/2+z
1/2+x,1/2-y,1/2+z
-y,-x,z
y,x,z
loop_
_atom_site_type_symbol
_atom_site_label
_atom_site_fract_x
_atom_site_fract_y
_atom_site_fract_z
Si Si1 0.663392 0.843592 0.943850
Si Si2 0.121865 0.296416 0.074915
Si Si3 0.066281 0.244560 0.463364
Si Si4 0.628208 0.010847 0.175115
Si Si5 0.442936 0.118027 0.393207
Si Si6 0.582178 0.248950 0.206392
Si Si7 0.178554 0.363788 0.266449
Si Si8 0.796674 0.026450 0.588541
O O1 0.765192 0.765192 0.935653
O O2 0.552931 0.768519 0.931779
O O3 0.692338 0.947247 0.901363
O O4 0.659272 0.896514 0.009171
O O5 0.172765 0.172765 0.074900
O O6 0.207709 0.380390 0.105519
O O7 0.012086 0.301191 0.115426
O O8 0.132102 0.132102 0.443099
O O9 0.138979 0.351679 0.444507
O O10 0.048067 0.238096 0.533085
O O11 0.648309 0.134123 0.198068
O O12 0.500000 0.000000 0.158735
O O13 0.664536 0.926034 0.225911
O O14 0.382029 0.134445 0.331869
O O15 0.500000 0.000000 0.400532
O O16 0.667155 0.332846 0.237793
O O17 0.475051 0.239240 0.246773
O O18 0.552624 0.303286 0.143972
O O19 0.262196 0.262196 0.264324
O O20 0.914174 0.085827 0.574947
#
# Coordination Sequence:
#
# PCOD8306867 Si02
#       8
#     8   8   8   8   8   8   8   8
#     4   9  20  34  53  80 111 149 189 230 279 336
#     4   9  16  30  53  80 108 143 186 230 274 324
#     4  10  20  33  53  81 111 149 188 233 285 333
#     4  10  19  32  56  81 110 142 185 228 276 331
#     4  10  21  37  57  80 112 146 190 237 283 331
#     4  11  23  35  52  85 120 149 182 228 288 344
#     4  11  22  39  61  83 107 146 192 237 281 334
#     4  10  19  32  52  83 121 153 183 229 288 345
#
# _framework density 19.212249
#
# number of rings (size 3 to 8) (size 9 to 14) (size 15 to 20)
#    0.000    2.000    2.500    3.750    1.750    3.500 
#    0.000    0.000    0.000    3.375    0.000    3.500 
#    0.000    0.000    0.000    0.000    0.000    0.000 
#
# Total GULP energy -792968.089720 kJ/mol
# GULP energy per Si atom -12390.126402 kJ/mol
# Density = 1.916852 g / cm^3
# Si number density = 19.212249 Si / 1000 Ang^3
#
#
#
# Elastic Constant Matrix: (Units=GPa)
#
#
# Indices 1 2 3 4 5 6 
#
# 1 43.3381 42.0398 29.8667 0.0000 0.0000 0.0001
# 2 42.0398 43.3381 29.8667 0.0000 0.0000 -0.0001
# 3 29.8667 29.8667 66.9632 0.0000 0.0000 0.0000
# 4 0.0000 0.0000 0.0000 17.7425 0.0000 0.0000
# 5 0.0000 0.0000 0.0000 0.0000 17.7425 0.0000
# 6 0.0001 -0.0001 0.0000 0.0000 0.0000 24.4565
#
#
#
# Elastic Compliance Matrix: (Units=1/GPa)
#
#
# Indices 1 2 3 4 5 6 
#
# 1 0.393619 -0.376593 -0.007594 0.000000 0.000000 -0.000003
# 2 -0.376593 0.393619 -0.007594 0.000000 0.000000 0.000003
# 3 -0.007594 -0.007594 0.021707 0.000000 0.000000 0.000000
# 4 0.000000 0.000000 0.000000 0.056362 0.000000 0.000000
# 5 0.000000 0.000000 0.000000 0.000000 0.056362 0.000000
# 6 -0.000003 0.000003 0.000000 0.000000 0.000000 0.040889
#
#
# Mechanical properties :
#
#
# Convention : Reuss Voigt Hill
#
# Bulk Modulus (GPa) = 39.39542 39.68733 39.54138
# Shear Modulus (GPa) = 2.84969 15.44603 9.14786
#
# Velocity S-wave (km/s) = 1.21921 2.83851 2.18445
# Velocity P-wave (km/s) = 4.74677 5.60758 5.19504
#
# Compressibility (1/GPa) = 0.02538366
#
# Stress axis : x y z
#
# Youngs Moduli (GPa) = 2.54053 2.54053 46.06732
#
# Poissons Ratio (x) = 0.95675 0.34982
# Poissons Ratio (y) = 0.95675 0.34982
# Poissons Ratio (z) = 0.01929 0.01929
#
# Static dielectric constant tensor:
#      x y z
#    x 3.639290 0.000000 0.000000 
#    y 0.000000 3.639290 0.000000 
#    z 0.000000 0.000000 3.425760 
# 
# 
# High freq. dielectric constant tensor:
#      x y z
#    x 1.734500 0.000000 0.000000 
#    y 0.000000 1.734500 0.000000 
#    z 0.000000 0.000000 1.737770 
# 
# From -- ./inp_files/3432.got.cif
#   From: 2010.03.12/outbox.cif.g09.slc.cpg/sg102_2_cif.got.tgz:3432.got - 2010.04.14 01:40:42.
