data_PCOD8306210
_publ_section_title
;
Structure prediction by ZEFSAII (Michael W. Deem and Ramdas Pophale) SiO2 
 PCOD8306210
Probable space group: I 41 2 2
;
_chemical_formula_sum "Si O2"
_cell_formula_units_Z 96
_cell_length_a 23.214432
_cell_length_b 23.214432
_cell_length_c 8.934020
_cell_angle_alpha 90.000000
_cell_angle_beta 90.000000
_cell_angle_gamma 90.000000
_cell_volume 4814.631406
_symmetry_space_group_name_H-M "I 41 2 2"
_symmetry_group_IT_number 98
_symmetry_cell_setting 'tetragonal'
loop_
_space_group_symop_operation_xyz
x,y,z
-y,1/2+x,1/4+z
-x,-y,z
y,1/2-x,1/4+z
x,1/2-y,1/4-z
-x,1/2+y,1/4-z
y,x,-z
-y,-x,-z
1/2+x,1/2+y,1/2+z
1/2-y,x,3/4+z
1/2-x,1/2-y,1/2+z
1/2+y,-x,3/4+z
1/2+x,-y,3/4-z
1/2-x,y,3/4-z
1/2+y,1/2+x,1/2-z
1/2-y,1/2-x,1/2-z
loop_
_atom_site_type_symbol
_atom_site_label
_atom_site_fract_x
_atom_site_fract_y
_atom_site_fract_z
Si Si1 0.509169 0.301998 0.928191
Si Si2 0.500000 0.000000 0.997774
Si Si3 0.324045 0.968202 0.518543
Si Si4 0.898108 0.568997 0.100850
Si Si5 0.681770 0.750000 0.625000
Si Si6 0.579791 0.401565 0.838674
Si Si7 0.829928 0.618496 0.607190
O O1 0.540891 0.344432 0.807719
O O2 0.440928 0.297338 0.897516
O O3 0.514338 0.326140 0.094812
O O4 0.541710 0.240139 0.918694
O O5 0.540275 0.960981 0.894138
O O6 0.459088 0.959215 0.097288
O O7 0.367487 0.912420 0.531085
O O8 0.348436 0.021533 0.611894
O O9 0.892061 0.607940 0.250000
O O10 0.893412 0.605549 0.949078
O O11 0.719628 0.780373 0.750000
O O12 0.644980 0.704197 0.718223
O O13 0.608547 0.391454 0.000000
O O14 0.837877 0.662124 0.750000
#
# Coordination Sequence:
#
# PCOD8306210 Si02
#       7
#    16   8  16  16   8  16  16
#     4  10  19  35  56  87 118 157 199 249 310 369
#     4  10  18  32  52  80 119 162 193 240 307 374
#     4   9  20  33  56  81 120 160 197 251 302 367
#     4  11  22  36  54  85 122 160 201 245 309 374
#     4  12  30  50  66  84 114 160 218 262 298 350
#     4   9  17  30  52  82 119 156 198 242 302 371
#     4  12  25  41  65  88 116 159 203 261 313 366
#
# _framework density 19.939219999999999
#
# number of rings (size 3 to 8) (size 9 to 14) (size 15 to 20)
#    0.000    1.667    3.333    1.500    4.667    0.000 
#    0.000    0.000    0.000    0.000    0.000    0.000 
#    0.000   77.333    0.000    0.000    0.000    0.000 
#
# Total GULP energy -594718.054600 kJ/mol
# GULP energy per Si atom -12389.959471 kJ/mol
# Density = 1.989384 g / cm^3
# Si number density = 19.939220 Si / 1000 Ang^3
#
#
#
# Elastic Constant Matrix: (Units=GPa)
#
#
# Indices 1 2 3 4 5 6 
#
# 1 113.2361 52.9909 32.3694 0.0000 0.0000 0.0000
# 2 52.9909 113.2366 32.3693 0.0000 0.0000 0.0000
# 3 32.3694 32.3693 77.1872 0.0000 0.0000 0.0000
# 4 0.0000 0.0000 0.0000 21.9623 0.0000 0.0000
# 5 0.0000 0.0000 0.0000 0.0000 21.9629 0.0000
# 6 0.0000 0.0000 0.0000 0.0000 0.0000 22.5915
#
#
#
# Elastic Compliance Matrix: (Units=1/GPa)
#
#
# Indices 1 2 3 4 5 6 
#
# 1 0.011895 -0.004704 -0.003015 0.000000 0.000000 0.000000
# 2 -0.004704 0.011894 -0.003015 0.000000 0.000000 0.000000
# 3 -0.003015 -0.003015 0.015485 0.000000 0.000000 0.000000
# 4 0.000000 0.000000 0.000000 0.045533 0.000000 0.000000
# 5 0.000000 0.000000 0.000000 0.000000 0.045531 0.000000
# 6 0.000000 0.000000 0.000000 0.000000 0.000000 0.044265
#
#
# Mechanical properties :
#
#
# Convention : Reuss Voigt Hill
#
# Bulk Modulus (GPa) = 56.16799 59.90212 58.03506
# Shear Modulus (GPa) = 24.75170 25.69867 25.22518
#
# Velocity S-wave (km/s) = 3.52711 3.59395 3.56069
# Velocity P-wave (km/s) = 6.69463 6.87965 6.78777
#
# Compressibility (1/GPa) = 0.01780373
#
# Stress axis : x y z
#
# Youngs Moduli (GPa) = 84.07230 84.07284 64.58066
#
# Poissons Ratio (x) = 0.39550 0.19473
# Poissons Ratio (y) = 0.39550 0.19473
# Poissons Ratio (z) = 0.25350 0.25350
#
# Static dielectric constant tensor:
#      x y z
#    x 3.715400 0.000000 0.000000 
#    y 0.000000 3.715400 0.000000 
#    z 0.000000 0.000000 3.401090 
# 
# 
# High freq. dielectric constant tensor:
#      x y z
#    x 1.768190 0.000000 0.000000 
#    y 0.000000 1.768190 0.000000 
#    z 0.000000 0.000000 1.760540 
# 
# From -- ./inp_files/3759.got.cif
#   From: 2010.03.12/outbox.cif.g09.slc.cpg/sg98_2_cif.got.tgz:3759.got - 2010.04.08 21:04:41.
