data_PCOD8306331
_publ_section_title
;
Structure prediction by ZEFSAII (Michael W. Deem and Ramdas Pophale) SiO2 
 PCOD8306331
Probable space group: I 41 2 2
;
_chemical_formula_sum "Si O2"
_cell_formula_units_Z 96
_cell_length_a 16.232548
_cell_length_b 16.232548
_cell_length_c 17.564945
_cell_angle_alpha 90.000000
_cell_angle_beta 90.000000
_cell_angle_gamma 90.000000
_cell_volume 4628.285978
_symmetry_space_group_name_H-M "I 41 2 2"
_symmetry_group_IT_number 98
_symmetry_cell_setting 'tetragonal'
loop_
_space_group_symop_operation_xyz
x,y,z
-y,1/2+x,1/4+z
-x,-y,z
y,1/2-x,1/4+z
x,1/2-y,1/4-z
-x,1/2+y,1/4-z
y,x,-z
-y,-x,-z
1/2+x,1/2+y,1/2+z
1/2-y,x,3/4+z
1/2-x,1/2-y,1/2+z
1/2+y,-x,3/4+z
1/2+x,-y,3/4-z
1/2-x,y,3/4-z
1/2+y,1/2+x,1/2-z
1/2-y,1/2-x,1/2-z
loop_
_atom_site_type_symbol
_atom_site_label
_atom_site_fract_x
_atom_site_fract_y
_atom_site_fract_z
Si Si1 0.379372 0.925304 0.969448
Si Si2 0.941447 0.426595 0.630561
Si Si3 0.932251 0.201769 0.009449
Si Si4 0.012746 0.185954 0.856630
Si Si5 0.844324 0.932448 0.876324
Si Si6 0.470889 0.337431 0.996935
O O1 0.445484 0.881503 0.916354
O O2 0.378166 0.024066 0.951854
O O3 0.395019 0.896882 0.055696
O O4 0.285001 0.900563 0.948593
O O5 0.880618 0.464993 0.691495
O O6 0.000000 0.500000 0.602704
O O7 0.990111 0.348603 0.668289
O O8 0.973437 0.231770 0.929428
O O9 0.852633 0.147368 0.000000
O O10 0.998914 0.149493 0.057464
O O11 0.096563 0.145079 0.888561
O O12 0.036117 0.244345 0.784527
O O13 0.750000 0.900201 0.875000
O O14 0.381258 0.381258 0.000000
#
# Coordination Sequence:
#
# PCOD8306331 Si02
#       6
#    16  16  16  16  16  16
#     4  11  22  38  62  94 124 159 214 268 321 393
#     4   9  17  36  62  84 117 163 202 252 309 380
#     4  11  23  41  62  93 130 167 208 273 334 386
#     4  12  22  39  66  93 124 172 216 259 329 401
#     4  10  23  40  63  94 126 161 219 273 323 388
#     4   9  20  38  61  89 123 164 211 255 317 389
#
# _framework density 20.74202
#
# number of rings (size 3 to 8) (size 9 to 14) (size 15 to 20)
#    0.000    1.667    3.333    3.000    0.000    1.333 
#    3.000    5.000    0.000    0.000    0.000    0.000 
#    0.000    0.000    0.000    0.000    0.000    0.000 
#
# Total GULP energy -594684.666969 kJ/mol
# GULP energy per Si atom -12389.263895 kJ/mol
# Density = 2.069481 g / cm^3
# Si number density = 20.742020 Si / 1000 Ang^3
#
#
#
# Elastic Constant Matrix: (Units=GPa)
#
#
# Indices 1 2 3 4 5 6 
#
# 1 85.8324 53.3569 14.7861 0.0000 0.0000 0.0000
# 2 53.3569 85.8302 14.7852 0.0000 0.0000 0.0000
# 3 14.7861 14.7852 77.3443 0.0000 0.0000 0.0000
# 4 0.0000 0.0000 0.0000 27.1448 0.0000 0.0000
# 5 0.0000 0.0000 0.0000 0.0000 27.1452 0.0000
# 6 0.0000 0.0000 0.0000 0.0000 0.0000 18.2513
#
#
#
# Elastic Compliance Matrix: (Units=1/GPa)
#
#
# Indices 1 2 3 4 5 6 
#
# 1 0.019141 -0.011652 -0.001432 0.000000 0.000000 0.000000
# 2 -0.011652 0.019141 -0.001431 0.000000 0.000000 0.000000
# 3 -0.001432 -0.001431 0.013477 0.000000 0.000000 0.000000
# 4 0.000000 0.000000 0.000000 0.036839 0.000000 0.000000
# 5 0.000000 0.000000 0.000000 0.000000 0.036839 0.000000
# 6 0.000000 0.000000 0.000000 0.000000 0.000000 0.054791
#
#
# Mechanical properties :
#
#
# Convention : Reuss Voigt Hill
#
# Bulk Modulus (GPa) = 43.99949 46.09593 45.04771
# Shear Modulus (GPa) = 23.05907 25.58019 24.31963
#
# Velocity S-wave (km/s) = 3.33785 3.51558 3.42787
# Velocity P-wave (km/s) = 6.00947 6.22501 6.11819
#
# Compressibility (1/GPa) = 0.02272754
#
# Stress axis : x y z
#
# Youngs Moduli (GPa) = 52.24429 52.24313 74.20296
#
# Poissons Ratio (x) = 0.60876 0.10624
# Poissons Ratio (y) = 0.60877 0.10622
# Poissons Ratio (z) = 0.07480 0.07478
#
# Static dielectric constant tensor:
#      x y z
#    x 3.664390 0.000000 0.000000 
#    y 0.000000 3.664390 0.000000 
#    z 0.000000 0.000000 4.315050 
# 
# 
# High freq. dielectric constant tensor:
#      x y z
#    x 1.794150 0.000000 0.000000 
#    y 0.000000 1.794150 0.000000 
#    z 0.000000 0.000000 1.824310 
# 
# From -- ./inp_files/8922.got.cif
#   From: 2010.03.12/outbox.cif.g09.slc.cpg/sg98_5_cif.got.tgz:8922.got - 2010.04.08 21:04:41.
