data_PCOD8306027
_publ_section_title
;
Structure prediction by ZEFSAII (Michael W. Deem and Ramdas Pophale) SiO2 
 PCOD8306027
Probable space group: I 4 2 2 
;
_chemical_formula_sum "Si O2"
_cell_formula_units_Z 128
_cell_length_a 19.354142
_cell_length_b 19.354142
_cell_length_c 19.984432
_cell_angle_alpha 90.000000
_cell_angle_beta 90.000000
_cell_angle_gamma 90.000000
_cell_volume 7485.824746
_symmetry_space_group_name_H-M "I 4 2 2 "
_symmetry_group_IT_number 97
_symmetry_cell_setting 'tetragonal'
loop_
_space_group_symop_operation_xyz
x,y,z
-y,x,z
-x,-y,z
y,-x,z
x,-y,-z
-x,y,-z
y,x,-z
-y,-x,-z
1/2+x,1/2+y,1/2+z
1/2-y,1/2+x,1/2+z
1/2-x,1/2-y,1/2+z
1/2+y,1/2-x,1/2+z
1/2+x,1/2-y,1/2-z
1/2-x,1/2+y,1/2-z
1/2+y,1/2+x,1/2-z
1/2-y,1/2-x,1/2-z
loop_
_atom_site_type_symbol
_atom_site_label
_atom_site_fract_x
_atom_site_fract_y
_atom_site_fract_z
Si Si1 0.155982 0.325806 0.920805
Si Si2 0.918228 0.422763 0.676493
Si Si3 0.422763 0.081773 0.323507
Si Si4 0.687394 0.421898 0.420487
Si Si5 0.687476 0.312525 0.921006
Si Si6 0.155983 0.325807 0.079195
Si Si7 0.077714 0.922290 0.579617
Si Si8 0.187394 0.921897 0.079513
O O1 0.122658 0.390024 0.883629
O O2 0.119376 0.255240 0.896448
O O3 0.235174 0.328509 0.897668
O O4 0.147538 0.335466 1.000000
O O5 0.895093 0.395093 0.750000
O O6 0.889912 0.500000 0.666021
O O7 0.890024 0.377342 0.616371
O O8 0.000000 0.421766 0.672543
O O9 0.395093 0.104908 0.250000
O O10 0.687187 0.424616 0.500000
O O11 0.686382 0.500001 0.391076
O O12 0.619677 0.380323 0.394906
O O13 0.764825 0.328514 0.897668
O O14 0.632654 0.367341 0.889697
O O15 0.683002 0.316999 0.000000
O O16 0.119378 0.255239 0.103552
O O17 0.080188 0.919813 0.500000
O O18 0.000002 0.903067 0.603864
#
# Coordination Sequence:
#
# PCOD8306027 Si02
#       8
#    16  16  16  16  16  16  16  16
#     4  10  18  30  48  72  99 126 158 198 242 292
#     4   9  19  35  51  68  95 130 164 200 245 294
#     4   9  19  35  51  68  95 130 164 200 245 294
#     4   9  16  26  41  62  90 124 157 191 237 287
#     4   9  17  28  44  67 100 130 152 192 248 287
#     4  10  18  30  48  72  99 126 158 198 242 292
#     4   8  14  25  40  59  87 125 163 191 225 283
#     4   9  16  26  41  62  90 124 157 191 237 287
#
# _framework density 17.098984000000002
#
# number of rings (size 3 to 8) (size 9 to 14) (size 15 to 20)
#    0.000    2.875    1.250    1.875    0.000    3.250 
#    0.000    5.625    0.000    0.000    0.000    0.000 
#    0.000    0.000    0.000    0.500    0.000    0.000 
#
# Total GULP energy -793211.986122 kJ/mol
# GULP energy per Si atom -12393.937283 kJ/mol
# Density = 1.706007 g / cm^3
# Si number density = 17.098984 Si / 1000 Ang^3
#
#
#
# Elastic Constant Matrix: (Units=GPa)
#
#
# Indices 1 2 3 4 5 6 
#
# 1 102.0246 76.0255 28.9291 0.0000 0.0000 0.0000
# 2 76.0255 102.0256 28.9289 0.0000 0.0000 0.0000
# 3 28.9291 28.9289 36.8605 0.0000 0.0000 0.0000
# 4 0.0000 0.0000 0.0000 11.1916 0.0000 0.0000
# 5 0.0000 0.0000 0.0000 0.0000 11.1917 0.0000
# 6 0.0000 0.0000 0.0000 0.0000 0.0000 37.9179
#
#
#
# Elastic Compliance Matrix: (Units=1/GPa)
#
#
# Indices 1 2 3 4 5 6 
#
# 1 0.023001 -0.015461 -0.005917 0.000000 0.000000 0.000000
# 2 -0.015461 0.023000 -0.005917 0.000000 0.000000 0.000000
# 3 -0.005917 -0.005917 0.036417 0.000000 0.000000 0.000000
# 4 0.000000 0.000000 0.000000 0.089353 0.000000 0.000000
# 5 0.000000 0.000000 0.000000 0.000000 0.089352 0.000000
# 6 0.000000 0.000000 0.000000 0.000000 0.000000 0.026373
#
#
# Mechanical properties :
#
#
# Convention : Reuss Voigt Hill
#
# Bulk Modulus (GPa) = 35.93575 56.51974 46.22774
# Shear Modulus (GPa) = 14.23035 19.19538 16.71287
#
# Velocity S-wave (km/s) = 2.88798 3.35416 3.12976
# Velocity P-wave (km/s) = 5.67296 6.93734 6.33677
#
# Compressibility (1/GPa) = 0.02782744
#
# Stress axis : x y z
#
# Youngs Moduli (GPa) = 43.47682 43.47755 27.45995
#
# Poissons Ratio (x) = 0.67223 0.16248
# Poissons Ratio (y) = 0.67222 0.16247
# Poissons Ratio (z) = 0.25726 0.25724
#
# Static dielectric constant tensor:
#      x y z
#    x 3.399820 0.000000 0.000000 
#    y 0.000000 3.399810 0.000000 
#    z 0.000000 0.000000 2.725700 
# 
# 
# High freq. dielectric constant tensor:
#      x y z
#    x 1.666780 0.000000 0.000000 
#    y 0.000000 1.666780 0.000000 
#    z 0.000000 0.000000 1.599960 
# 
# From -- ./inp_files/7409.got.cif
#   From: 2010.03.12/outbox.cif.g09.slc.cpg/sg97_4_cif.got.tgz:7409.got - 2010.04.08 20:59:42.
