data_PCOD8306306
_publ_section_title
;
Structure prediction by ZEFSAII (Michael W. Deem and Ramdas Pophale) SiO2 
 PCOD8306306
Probable space group: I 41 2 2
;
_chemical_formula_sum "Si O2"
_cell_formula_units_Z 64
_cell_length_a 11.109778
_cell_length_b 11.109778
_cell_length_c 23.126264
_cell_angle_alpha 90.000000
_cell_angle_beta 90.000000
_cell_angle_gamma 90.000000
_cell_volume 2854.409254
_symmetry_space_group_name_H-M "I 41 2 2"
_symmetry_group_IT_number 98
_symmetry_cell_setting 'tetragonal'
loop_
_space_group_symop_operation_xyz
x,y,z
-y,1/2+x,1/4+z
-x,-y,z
y,1/2-x,1/4+z
x,1/2-y,1/4-z
-x,1/2+y,1/4-z
y,x,-z
-y,-x,-z
1/2+x,1/2+y,1/2+z
1/2-y,x,3/4+z
1/2-x,1/2-y,1/2+z
1/2+y,-x,3/4+z
1/2+x,-y,3/4-z
1/2-x,y,3/4-z
1/2+y,1/2+x,1/2-z
1/2-y,1/2-x,1/2-z
loop_
_atom_site_type_symbol
_atom_site_label
_atom_site_fract_x
_atom_site_fract_y
_atom_site_fract_z
Si Si1 0.542434 0.156827 0.696525
Si Si2 0.832041 0.107478 0.165437
Si Si3 0.302330 0.197671 0.750000
Si Si4 0.116102 0.750000 0.625000
Si Si5 0.638139 0.964510 0.475012
O O1 0.572718 0.072718 0.750000
O O2 0.618822 0.279052 0.701951
O O3 0.576575 0.085642 0.637907
O O4 0.400283 0.183662 0.698604
O O5 0.698859 0.135019 0.141079
O O6 0.828288 0.995394 0.208530
O O7 0.175162 0.173368 0.718473
O O8 0.035182 0.778824 0.680232
O O9 0.500000 0.000000 0.462324
#
# Coordination Sequence:
#
# PCOD8306306 Si02
#       5
#    16  16   8   8  16
#     4  10  21  43  69 103 133 183 240 310 372 440
#     4  10  22  45  77  96 137 193 253 306 375 449
#     4  12  27  42  67 110 156 182 246 308 393 450
#     4  10  24  46  76  96 138 204 252 296 378 448
#     4  12  26  47  68 109 152 193 251 310 376 462
#
# _framework density 22.42145
#
# number of rings (size 3 to 8) (size 9 to 14) (size 15 to 20)
#    0.000    1.500    2.500    4.125    0.000    6.000 
#    0.000    1.250    0.000    0.000    0.000    0.000 
#    0.000    0.000    0.000    0.000    0.000    0.000 
#
# Total GULP energy -396748.918875 kJ/mol
# GULP energy per Si atom -12398.403715 kJ/mol
# Density = 2.237042 g / cm^3
# Si number density = 22.421450 Si / 1000 Ang^3
#
#
#
# Elastic Constant Matrix: (Units=GPa)
#
#
# Indices 1 2 3 4 5 6 
#
# 1 111.7727 61.5281 51.5163 0.0000 0.0000 0.0000
# 2 61.5281 111.7722 51.5154 0.0000 0.0000 0.0000
# 3 51.5163 51.5154 145.5985 0.0000 0.0000 0.0000
# 4 0.0000 0.0000 0.0000 284.4763 0.0000 0.0000
# 5 0.0000 0.0000 0.0000 0.0000 284.4546 0.0000
# 6 0.0000 0.0000 0.0000 0.0000 0.0000 27.5319
#
#
#
# Elastic Compliance Matrix: (Units=1/GPa)
#
#
# Indices 1 2 3 4 5 6 
#
# 1 0.013605 -0.006298 -0.002586 0.000000 0.000000 0.000000
# 2 -0.006298 0.013605 -0.002585 0.000000 0.000000 0.000000
# 3 -0.002586 -0.002585 0.008698 0.000000 0.000000 0.000000
# 4 0.000000 0.000000 0.000000 0.003515 0.000000 0.000000
# 5 0.000000 0.000000 0.000000 0.000000 0.003515 0.000000
# 6 0.000000 0.000000 0.000000 0.000000 0.000000 0.036321
#
#
# Mechanical properties :
#
#
# Convention : Reuss Voigt Hill
#
# Bulk Modulus (GPa) = 77.09712 77.58476 77.34094
# Shear Modulus (GPa) = 46.93898 132.93146 89.93522
#
# Velocity S-wave (km/s) = 4.58043 7.70820 6.34021
# Velocity P-wave (km/s) = 7.90151 10.67239 9.38972
#
# Compressibility (1/GPa) = 0.01297065
#
# Stress axis : x y z
#
# Youngs Moduli (GPa) = 73.50169 73.50179 114.97093
#
# Poissons Ratio (x) = 0.46289 0.29727
# Poissons Ratio (y) = 0.46289 0.29726
# Poissons Ratio (z) = 0.19005 0.19004
#
# Static dielectric constant tensor:
#      x y z
#    x 3.975560 0.000000 0.000000 
#    y 0.000000 3.975590 0.000000 
#    z 0.000000 0.000000 3.999700 
# 
# 
# High freq. dielectric constant tensor:
#      x y z
#    x 1.884940 0.000000 0.000000 
#    y 0.000000 1.884940 0.000000 
#    z 0.000000 0.000000 1.882830 
# 
# From -- ./inp_files/9894.got.cif
#   From: 2010.03.12/outbox.cif.g09.slc.cpg/sg98_5_cif.got.tgz:9894.got - 2010.04.08 21:04:41.
