data_PCOD8306299
_publ_section_title
;
Structure prediction by ZEFSAII (Michael W. Deem and Ramdas Pophale) SiO2 
 PCOD8306299
Probable space group: I 41 2 2
;
_chemical_formula_sum "Si O2"
_cell_formula_units_Z 40
_cell_length_a 9.492800
_cell_length_b 9.492800
_cell_length_c 19.038900
_cell_angle_alpha 90.000000
_cell_angle_beta 90.000000
_cell_angle_gamma 90.000000
_cell_volume 1715.657190
_symmetry_space_group_name_H-M "I 41 2 2"
_symmetry_group_IT_number 98
_symmetry_cell_setting 'tetragonal'
loop_
_space_group_symop_operation_xyz
x,y,z
-y,1/2+x,1/4+z
-x,-y,z
y,1/2-x,1/4+z
x,1/2-y,1/4-z
-x,1/2+y,1/4-z
y,x,-z
-y,-x,-z
1/2+x,1/2+y,1/2+z
1/2-y,x,3/4+z
1/2-x,1/2-y,1/2+z
1/2+y,-x,3/4+z
1/2+x,-y,3/4-z
1/2-x,y,3/4-z
1/2+y,1/2+x,1/2-z
1/2-y,1/2-x,1/2-z
loop_
_atom_site_type_symbol
_atom_site_label
_atom_site_fract_x
_atom_site_fract_y
_atom_site_fract_z
Si Si1 0.241974 0.258027 0.250000
Si Si2 0.842128 0.475707 0.059180
Si Si3 0.250065 0.929804 0.703697
O O1 0.379845 0.256036 0.299095
O O2 0.254446 0.400747 0.205067
O O3 0.764454 0.388264 0.121360
O O4 0.000000 0.500000 0.087411
O O5 0.852383 0.386862 0.986804
O O6 0.383535 0.883535 0.750000
#
# Coordination Sequence:
#
# PCOD8306299 Si02
#       3
#     8  16  16
#     4  10  21  40  67  92 126 168 212 266 322 382
#     4  10  22  40  64  97 128 167 215 265 323 383
#     4  11  21  38  65  94 127 165 215 266 315 380
#
# _framework density 23.314678000000001
#
# number of rings (size 3 to 8) (size 9 to 14) (size 15 to 20)
#    0.000    1.600    0.000    5.400    0.000    6.400 
#    0.000   25.000    0.000    0.000    0.000    0.000 
#    0.000    0.000    0.000    0.000    0.000    0.000 
#
# Total GULP energy -247879.234236 kJ/mol
# GULP energy per Si atom -12393.961712 kJ/mol
# Density = 2.326161 g / cm^3
# Si number density = 23.314678 Si / 1000 Ang^3
#
#
#
# Elastic Constant Matrix: (Units=GPa)
#
#
# Indices 1 2 3 4 5 6 
#
# 1 106.8100 62.2229 62.5571 0.0000 0.0000 0.0000
# 2 62.2229 106.8098 62.5560 0.0000 0.0000 0.0000
# 3 62.5571 62.5560 127.1581 0.0000 0.0000 0.0000
# 4 0.0000 0.0000 0.0000 34.4439 0.0000 0.0000
# 5 0.0000 0.0000 0.0000 0.0000 34.4517 0.0000
# 6 0.0000 0.0000 0.0000 0.0000 0.0000 38.0301
#
#
#
# Elastic Compliance Matrix: (Units=1/GPa)
#
#
# Indices 1 2 3 4 5 6 
#
# 1 0.015866 -0.006562 -0.004577 0.000000 0.000000 0.000000
# 2 -0.006562 0.015866 -0.004577 0.000000 0.000000 0.000000
# 3 -0.004577 -0.004577 0.012368 0.000000 0.000000 0.000000
# 4 0.000000 0.000000 0.000000 0.029033 0.000000 0.000000
# 5 0.000000 0.000000 0.000000 0.000000 0.029026 0.000000
# 6 0.000000 0.000000 0.000000 0.000000 0.000000 0.026295
#
#
# Mechanical properties :
#
#
# Convention : Reuss Voigt Hill
#
# Bulk Modulus (GPa) = 78.94536 79.49440 79.21988
# Shear Modulus (GPa) = 30.46766 31.61460 31.04113
#
# Velocity S-wave (km/s) = 3.61889 3.68638 3.65279
# Velocity P-wave (km/s) = 7.16911 7.23115 7.20020
#
# Compressibility (1/GPa) = 0.01266699
#
# Stress axis : x y z
#
# Youngs Moduli (GPa) = 63.02766 63.02843 80.85561
#
# Poissons Ratio (x) = 0.41360 0.37010
# Poissons Ratio (y) = 0.41359 0.37007
# Poissons Ratio (z) = 0.28849 0.28848
#
# Static dielectric constant tensor:
#      x y z
#    x 3.948040 0.000000 0.000000 
#    y 0.000000 3.947970 0.000000 
#    z 0.000000 0.000000 4.001940 
# 
# 
# High freq. dielectric constant tensor:
#      x y z
#    x 1.915560 0.000000 0.000000 
#    y 0.000000 1.915560 0.000000 
#    z 0.000000 0.000000 1.915760 
# 
# From -- ./inp_files/9458.got.cif
#   From: 2010.03.12/outbox.cif.g09.slc.cpg/sg98_5_cif.got.tgz:9458.got - 2010.04.08 21:04:41.
