data_PCOD8306346
_publ_section_title
;
Structure prediction by ZEFSAII (Michael W. Deem and Ramdas Pophale) SiO2 
 PCOD8306346
Probable space group: I 41 2 2
;
_chemical_formula_sum "Si O2"
_cell_formula_units_Z 72
_cell_length_a 14.284876
_cell_length_b 14.284876
_cell_length_c 17.610653
_cell_angle_alpha 90.000000
_cell_angle_beta 90.000000
_cell_angle_gamma 90.000000
_cell_volume 3593.589036
_symmetry_space_group_name_H-M "I 41 2 2"
_symmetry_group_IT_number 98
_symmetry_cell_setting 'tetragonal'
loop_
_space_group_symop_operation_xyz
x,y,z
-y,1/2+x,1/4+z
-x,-y,z
y,1/2-x,1/4+z
x,1/2-y,1/4-z
-x,1/2+y,1/4-z
y,x,-z
-y,-x,-z
1/2+x,1/2+y,1/2+z
1/2-y,x,3/4+z
1/2-x,1/2-y,1/2+z
1/2+y,-x,3/4+z
1/2+x,-y,3/4-z
1/2-x,y,3/4-z
1/2+y,1/2+x,1/2-z
1/2-y,1/2-x,1/2-z
loop_
_atom_site_type_symbol
_atom_site_label
_atom_site_fract_x
_atom_site_fract_y
_atom_site_fract_z
Si Si1 0.312591 0.062031 0.199636
Si Si2 0.787517 0.663596 0.452145
Si Si3 0.270931 0.750000 0.125000
Si Si4 0.306145 0.887626 0.518116
Si Si5 0.994315 0.607474 0.956480
O O1 0.402620 0.097381 0.250000
O O2 0.255809 0.154854 0.177114
O O3 0.343540 0.005147 0.125299
O O4 0.241090 0.990316 0.241192
O O5 0.696917 0.696917 0.500000
O O6 0.750000 0.614814 0.375000
O O7 0.856258 0.595088 0.497264
O O8 0.210153 0.658942 0.101388
O O9 0.332254 0.735996 0.198442
O O10 0.416894 0.878148 0.509867
O O11 0.000000 0.500000 0.935929
#
# Coordination Sequence:
#
# PCOD8306346 Si02
#       5
#    16  16   8  16  16
#     4  11  25  41  68  97 131 173 220 274 338 392
#     4  11  23  43  68  97 133 173 219 270 327 392
#     4  10  24  40  64  84 130 178 208 270 334 398
#     4  11  23  43  61  95 130 171 222 268 334 399
#     4  12  25  41  66  98 134 172 223 276 328 394
#
# _framework density 20.035678999999998
#
# number of rings (size 3 to 8) (size 9 to 14) (size 15 to 20)
#    0.000    0.889    6.667    0.000    4.667    0.444 
#    0.000    0.000    0.000    3.333    0.000    0.000 
#    0.000    0.000    0.000    0.000    0.000    0.000 
#
# Total GULP energy -445991.656728 kJ/mol
# GULP energy per Si atom -12388.657131 kJ/mol
# Density = 1.999008 g / cm^3
# Si number density = 20.035679 Si / 1000 Ang^3
#
#
#
# Elastic Constant Matrix: (Units=GPa)
#
#
# Indices 1 2 3 4 5 6 
#
# 1 98.4075 33.9977 37.7450 0.0000 0.0000 0.0000
# 2 33.9977 98.4082 37.7449 0.0000 0.0000 0.0000
# 3 37.7450 37.7449 105.3826 0.0000 0.0000 0.0000
# 4 0.0000 0.0000 0.0000 36.6971 0.0000 0.0000
# 5 0.0000 0.0000 0.0000 0.0000 36.6978 0.0000
# 6 0.0000 0.0000 0.0000 0.0000 0.0000 41.1869
#
#
#
# Elastic Compliance Matrix: (Units=1/GPa)
#
#
# Indices 1 2 3 4 5 6 
#
# 1 0.012508 -0.003017 -0.003399 0.000000 0.000000 0.000000
# 2 -0.003017 0.012508 -0.003399 0.000000 0.000000 0.000000
# 3 -0.003399 -0.003399 0.011924 0.000000 0.000000 0.000000
# 4 0.000000 0.000000 0.000000 0.027250 0.000000 0.000000
# 5 0.000000 0.000000 0.000000 0.000000 0.027250 0.000000
# 6 0.000000 0.000000 0.000000 0.000000 0.000000 0.024280
#
#
# Mechanical properties :
#
#
# Convention : Reuss Voigt Hill
#
# Bulk Modulus (GPa) = 57.77522 57.90814 57.84168
# Shear Modulus (GPa) = 35.43058 35.76374 35.59716
#
# Velocity S-wave (km/s) = 4.20977 4.22951 4.21965
# Velocity P-wave (km/s) = 7.24764 7.26753 7.25759
#
# Compressibility (1/GPa) = 0.01730846
#
# Stress axis : x y z
#
# Youngs Moduli (GPa) = 79.94809 79.94880 83.86264
#
# Poissons Ratio (x) = 0.24124 0.28507
# Poissons Ratio (y) = 0.24124 0.28507
# Poissons Ratio (z) = 0.27177 0.27176
#
# Static dielectric constant tensor:
#      x y z
#    x 3.067180 0.000000 0.000000 
#    y 0.000000 3.067150 0.000000 
#    z 0.000000 0.000000 3.875940 
# 
# 
# High freq. dielectric constant tensor:
#      x y z
#    x 1.783530 0.000000 0.000000 
#    y 0.000000 1.783530 0.000000 
#    z 0.000000 0.000000 1.781970 
# 
# From -- ./inp_files/7517.got.cif
#   From: 2010.03.12/outbox.cif.g09.slc.cpg/sg98_4_cif.got.tgz:7517.got - 2010.04.08 21:04:41.
