data_PCOD8306383
_publ_section_title
;
Structure prediction by ZEFSAII (Michael W. Deem and Ramdas Pophale) SiO2 
 PCOD8306383
Probable space group: I 41 2 2
;
_chemical_formula_sum "Si O2"
_cell_formula_units_Z 88
_cell_length_a 12.192587
_cell_length_b 12.192587
_cell_length_c 27.061136
_cell_angle_alpha 90.000000
_cell_angle_beta 90.000000
_cell_angle_gamma 90.000000
_cell_volume 4022.886227
_symmetry_space_group_name_H-M "I 41 2 2"
_symmetry_group_IT_number 98
_symmetry_cell_setting 'tetragonal'
loop_
_space_group_symop_operation_xyz
x,y,z
-y,1/2+x,1/4+z
-x,-y,z
y,1/2-x,1/4+z
x,1/2-y,1/4-z
-x,1/2+y,1/4-z
y,x,-z
-y,-x,-z
1/2+x,1/2+y,1/2+z
1/2-y,x,3/4+z
1/2-x,1/2-y,1/2+z
1/2+y,-x,3/4+z
1/2+x,-y,3/4-z
1/2-x,y,3/4-z
1/2+y,1/2+x,1/2-z
1/2-y,1/2-x,1/2-z
loop_
_atom_site_type_symbol
_atom_site_label
_atom_site_fract_x
_atom_site_fract_y
_atom_site_fract_z
Si Si1 0.916738 0.599904 0.459933
Si Si2 0.046719 0.379847 0.572890
Si Si3 0.335828 0.688792 0.836461
Si Si4 0.349144 0.849144 0.750000
Si Si5 0.429658 0.243153 0.871566
Si Si6 0.424767 0.170627 0.702352
O O1 0.912170 0.633403 0.516901
O O2 0.941673 0.710804 0.428946
O O3 0.798287 0.563099 0.440923
O O4 0.000000 0.500000 0.449318
O O5 0.151262 0.351218 0.608838
O O6 0.000000 0.500000 0.582576
O O7 0.940493 0.303051 0.581933
O O8 0.250000 0.743212 0.875000
O O9 0.340250 0.738535 0.781530
O O10 0.454505 0.711754 0.856411
O O11 0.450255 0.865884 0.712201
O O12 0.392644 0.132369 0.843021
O O13 0.349517 0.150484 0.750000
#
# Coordination Sequence:
#
# PCOD8306383 Si02
#       6
#    16  16  16   8  16  16
#     4  11  24  40  69  99 133 179 224 277 338 411
#     4   9  20  46  64  90 138 179 222 280 337 398
#     4  11  26  40  66  99 133 184 225 280 342 392
#     4  12  25  42  66  94 145 170 222 280 341 420
#     4  11  24  42  68  98 136 175 226 276 335 414
#     4  12  23  42  63 100 135 175 217 273 353 404
#
# _framework density 21.874841
#
# number of rings (size 3 to 8) (size 9 to 14) (size 15 to 20)
#    0.000    1.091    3.636    3.000    7.636    1.455 
#    0.000    0.000    0.000    0.000    0.000    0.000 
#    0.000    0.000    0.000    0.000    0.000    0.000 
#
# Total GULP energy -545171.960667 kJ/mol
# GULP energy per Si atom -12390.271833 kJ/mol
# Density = 2.182505 g / cm^3
# Si number density = 21.874841 Si / 1000 Ang^3
#
#
#
# Elastic Constant Matrix: (Units=GPa)
#
#
# Indices 1 2 3 4 5 6 
#
# 1 134.8236 1.7057 28.9367 0.0000 0.0000 0.0000
# 2 1.7057 134.8257 28.9365 0.0000 0.0000 0.0000
# 3 28.9367 28.9365 63.3784 0.0000 0.0000 0.0000
# 4 0.0000 0.0000 0.0000 41.8838 0.0000 0.0000
# 5 0.0000 0.0000 0.0000 0.0000 41.8819 0.0000
# 6 0.0000 0.0000 0.0000 0.0000 0.0000 12.5864
#
#
#
# Elastic Compliance Matrix: (Units=1/GPa)
#
#
# Indices 1 2 3 4 5 6 
#
# 1 0.008297 0.000785 -0.004147 0.000000 0.000000 0.000000
# 2 0.000785 0.008297 -0.004147 0.000000 0.000000 0.000000
# 3 -0.004147 -0.004147 0.019565 0.000000 0.000000 0.000000
# 4 0.000000 0.000000 0.000000 0.023876 0.000000 0.000000
# 5 0.000000 0.000000 0.000000 0.000000 0.023877 0.000000
# 6 0.000000 0.000000 0.000000 0.000000 0.000000 0.079451
#
#
# Mechanical properties :
#
#
# Convention : Reuss Voigt Hill
#
# Bulk Modulus (GPa) = 47.29827 50.24283 48.77055
# Shear Modulus (GPa) = 26.96496 37.50034 32.23265
#
# Velocity S-wave (km/s) = 3.51478 4.14492 3.84279
# Velocity P-wave (km/s) = 6.17582 6.77682 6.48329
#
# Compressibility (1/GPa) = 0.02114242
#
# Stress axis : x y z
#
# Youngs Moduli (GPa) = 120.52344 120.52569 51.11265
#
# Poissons Ratio (x) = -0.09461 0.21194
# Poissons Ratio (y) = -0.09461 0.21194
# Poissons Ratio (z) = 0.49976 0.49976
#
# Static dielectric constant tensor:
#      x y z
#    x 4.300320 0.000000 0.000000 
#    y 0.000000 4.300320 0.000000 
#    z 0.000000 0.000000 3.668550 
# 
# 
# High freq. dielectric constant tensor:
#      x y z
#    x 1.861010 0.000000 0.000000 
#    y 0.000000 1.861010 0.000000 
#    z 0.000000 0.000000 1.855070 
# 
# From -- ./inp_files/11969.got.cif
#   From: 2010.03.12/outbox.cif.g09.slc.cpg/sg98_6_cif.got.tgz:11969.got - 2010.04.08 21:04:41.
