data_PCOD8306286
_publ_section_title
;
Structure prediction by ZEFSAII (Michael W. Deem and Ramdas Pophale) SiO2 
 PCOD8306286
Probable space group: I 41 2 2
;
_chemical_formula_sum "Si O2"
_cell_formula_units_Z 64
_cell_length_a 25.194241
_cell_length_b 25.194241
_cell_length_c 4.973778
_cell_angle_alpha 90.000000
_cell_angle_beta 90.000000
_cell_angle_gamma 90.000000
_cell_volume 3157.104489
_symmetry_space_group_name_H-M "I 41 2 2"
_symmetry_group_IT_number 98
_symmetry_cell_setting 'tetragonal'
loop_
_space_group_symop_operation_xyz
x,y,z
-y,1/2+x,1/4+z
-x,-y,z
y,1/2-x,1/4+z
x,1/2-y,1/4-z
-x,1/2+y,1/4-z
y,x,-z
-y,-x,-z
1/2+x,1/2+y,1/2+z
1/2-y,x,3/4+z
1/2-x,1/2-y,1/2+z
1/2+y,-x,3/4+z
1/2+x,-y,3/4-z
1/2-x,y,3/4-z
1/2+y,1/2+x,1/2-z
1/2-y,1/2-x,1/2-z
loop_
_atom_site_type_symbol
_atom_site_label
_atom_site_fract_x
_atom_site_fract_y
_atom_site_fract_z
Si Si1 0.642600 0.691799 0.750954
Si Si2 0.890163 0.558896 0.510421
Si Si3 0.633947 0.214967 0.366589
Si Si4 0.435462 0.616156 0.756817
O O1 0.638665 0.750000 0.625000
O O2 0.656813 0.656813 0.500000
O O3 0.586245 0.666730 0.842247
O O4 0.685114 0.685114 0.000000
O O5 0.931939 0.568062 0.750000
O O6 0.878192 0.497708 0.462929
O O7 0.916925 0.583076 0.250000
O O8 0.650072 0.250000 0.625000
O O9 0.685953 0.185953 0.250000
O O10 0.587885 0.174394 0.445653
O O11 0.610097 0.250000 0.125000
O O12 0.408004 0.591997 0.500000
O O13 0.423448 0.576553 0.000000
#
# Coordination Sequence:
#
# PCOD8306286 Si02
#       4
#    16  16  16  16
#     4  10  21  38  58  84 116 150 193 240 288 346
#     4  10  22  39  60  88 120 154 196 244 293 353
#     4  11  23  41  61  86 118 153 197 245 293 348
#     4  11  23  40  61  88 121 155 196 245 295 353
#
# _framework density 20.271740000000001
#
# number of rings (size 3 to 8) (size 9 to 14) (size 15 to 20)
#    0.000    1.500    0.000    6.000    0.000    6.000 
#    0.000    6.250    0.000    0.000    0.000    0.000 
#    0.000    0.000    0.000    0.000    0.000    0.000 
#
# Total GULP energy -396651.195003 kJ/mol
# GULP energy per Si atom -12395.349844 kJ/mol
# Density = 2.022560 g / cm^3
# Si number density = 20.271740 Si / 1000 Ang^3
#
#
#
# Elastic Constant Matrix: (Units=GPa)
#
#
# Indices 1 2 3 4 5 6 
#
# 1 328.2987 -107.3010 56.7814 0.0000 0.0000 0.0000
# 2 -107.3010 328.2735 56.7930 0.0000 0.0000 0.0000
# 3 56.7814 56.7930 160.0078 0.0000 0.0000 0.0000
# 4 0.0000 0.0000 0.0000 39.8273 0.0000 0.0000
# 5 0.0000 0.0000 0.0000 0.0000 39.8266 0.0000
# 6 0.0000 0.0000 0.0000 0.0000 0.0000 7.3032
#
#
#
# Elastic Compliance Matrix: (Units=1/GPa)
#
#
# Indices 1 2 3 4 5 6 
#
# 1 0.003915 0.001619 -0.001964 0.000000 0.000000 0.000000
# 2 0.001619 0.003915 -0.001964 0.000000 0.000000 0.000000
# 3 -0.001964 -0.001964 0.007644 0.000000 0.000000 0.000000
# 4 0.000000 0.000000 0.000000 0.025108 0.000000 0.000000
# 5 0.000000 0.000000 0.000000 0.000000 0.025109 0.000000
# 6 0.000000 0.000000 0.000000 0.000000 0.000000 0.136926
#
#
# Mechanical properties :
#
#
# Convention : Reuss Voigt Hill
#
# Bulk Modulus (GPa) = 92.11275 92.12518 92.11896
# Shear Modulus (GPa) = 23.71300 71.41187 47.56244
#
# Velocity S-wave (km/s) = 3.42388 5.94170 4.84906
# Velocity P-wave (km/s) = 7.82101 9.62369 8.76880
#
# Compressibility (1/GPa) = 0.01085626
#
# Stress axis : x y z
#
# Youngs Moduli (GPa) = 255.42589 255.39818 130.82221
#
# Poissons Ratio (x) = -0.41361 0.25695
# Poissons Ratio (y) = -0.41366 0.25699
# Poissons Ratio (z) = 0.50169 0.50172
#
# Static dielectric constant tensor:
#      x y z
#    x 3.613450 0.000000 0.000000 
#    y 0.000000 3.613440 0.000000 
#    z 0.000000 0.000000 4.005740 
# 
# 
# High freq. dielectric constant tensor:
#      x y z
#    x 1.786990 0.000000 0.000000 
#    y 0.000000 1.786980 0.000000 
#    z 0.000000 0.000000 1.819900 
# 
# From -- ./inp_files/1390.got.cif
#   From: 2010.03.12/outbox.cif.g09.slc.cpg/sg98_1_cif.got.tgz:1390.got - 2010.04.08 21:04:41.
