data_PCOD8306678
_publ_section_title
;
Structure prediction by ZEFSAII (Michael W. Deem and Ramdas Pophale) SiO2 
 PCOD8306678
Probable space group: P 4 B M
;
_chemical_formula_sum "Si O2"
_cell_formula_units_Z 48
_cell_length_a 14.309187
_cell_length_b 14.309187
_cell_length_c 12.687984
_cell_angle_alpha 90.000000
_cell_angle_beta 90.000000
_cell_angle_gamma 90.000000
_cell_volume 2597.900664
_symmetry_space_group_name_H-M "P 4 B M"
_symmetry_group_IT_number 100
_symmetry_cell_setting 'tetragonal'
loop_
_space_group_symop_operation_xyz
x,y,z
-y,x,z
-x,-y,z
y,-x,z
1/2-x,1/2+y,z
1/2+x,1/2-y,z
1/2-y,1/2-x,z
1/2+y,1/2+x,z
loop_
_atom_site_type_symbol
_atom_site_label
_atom_site_fract_x
_atom_site_fract_y
_atom_site_fract_z
Si Si1 0.078189 0.421812 0.844350
Si Si2 0.052505 0.854657 0.726583
Si Si3 0.959587 0.147060 0.347367
Si Si4 0.280855 0.062912 0.919247
Si Si5 0.078189 0.421812 0.608817
Si Si6 0.280855 0.062912 0.533919
Si Si7 0.352940 0.540413 0.105799
O O1 0.167557 0.463094 0.905291
O O2 0.108659 0.391342 0.726584
O O3 0.000000 0.500000 0.835677
O O4 0.076746 0.796767 0.830468
O O5 0.076747 0.796767 0.622698
O O6 0.944423 0.881790 0.726583
O O7 0.935032 0.235156 0.419011
O O8 0.950669 0.179178 0.226583
O O9 0.064016 0.112490 0.372020
O O10 0.352675 0.147326 0.909061
O O11 0.235155 0.064968 0.034156
O O12 0.167557 0.463094 0.547877
O O13 0.000000 0.500000 0.617489
O O14 0.352675 0.147326 0.544105
O O15 0.387510 0.435984 0.081146
#
# Coordination Sequence:
#
# PCOD8306678 Si02
#       7
#     4   8   8   8   4   8   8
#     4   9  18  36  57  75 113 159 180 211 276 340
#     4  11  23  39  56  79 116 153 188 229 277 334
#     4   9  19  39  62  81 110 151 188 227 281 334
#     4  11  21  37  58  85 116 147 186 231 280 332
#     4   9  18  36  57  75 113 159 180 211 276 340
#     4  11  21  37  58  85 116 147 186 231 280 332
#     4   9  19  39  62  81 110 151 188 227 281 334
#
# _framework density 18.476455999999999
#
# number of rings (size 3 to 8) (size 9 to 14) (size 15 to 20)
#    0.000    2.000    1.667    3.500    0.000    3.333 
#   15.000    0.833    0.000    3.000    0.000    0.000 
#    0.000    0.000    0.000    0.000    0.000    0.000 
#
# Total GULP energy -595304.278166 kJ/mol
# GULP energy per Si atom -12402.172462 kJ/mol
# Density = 1.843440 g / cm^3
# Si number density = 18.476456 Si / 1000 Ang^3
#
#
#
# Elastic Constant Matrix: (Units=GPa)
#
#
# Indices 1 2 3 4 5 6 
#
# 1 99.3392 45.3882 58.4162 0.0000 0.0000 -0.0004
# 2 45.3882 99.3392 58.4162 0.0000 0.0000 0.0004
# 3 58.4162 58.4162 122.3401 0.0000 0.0000 0.0000
# 4 0.0000 0.0000 0.0000 14.3992 0.0000 0.0000
# 5 0.0000 0.0000 0.0000 0.0000 14.3992 0.0000
# 6 -0.0004 0.0004 0.0000 0.0000 0.0000 19.8857
#
#
#
# Elastic Compliance Matrix: (Units=1/GPa)
#
#
# Indices 1 2 3 4 5 6 
#
# 1 0.014889 -0.003646 -0.005369 0.000000 0.000000 0.000000
# 2 -0.003646 0.014889 -0.005369 0.000000 0.000000 0.000000
# 3 -0.005369 -0.005369 0.013301 0.000000 0.000000 0.000000
# 4 0.000000 0.000000 0.000000 0.069448 0.000000 0.000000
# 5 0.000000 0.000000 0.000000 0.000000 0.069448 0.000000
# 6 0.000000 0.000000 0.000000 0.000000 0.000000 0.050287
#
#
# Mechanical properties :
#
#
# Convention : Reuss Voigt Hill
#
# Bulk Modulus (GPa) = 69.86556 71.71773 70.79164
# Shear Modulus (GPa) = 18.81109 20.32337 19.56723
#
# Velocity S-wave (km/s) = 3.19425 3.32016 3.25781
# Velocity P-wave (km/s) = 7.17633 7.32106 7.24906
#
# Compressibility (1/GPa) = 0.01431320
#
# Stress axis : x y z
#
# Youngs Moduli (GPa) = 67.16207 67.16207 75.18317
#
# Poissons Ratio (x) = 0.24487 0.40363
# Poissons Ratio (y) = 0.24487 0.40363
# Poissons Ratio (z) = 0.36057 0.36057
#
# Static dielectric constant tensor:
#      x y z
#    x 3.395170 0.000000 0.000000 
#    y 0.000000 3.395170 0.000000 
#    z 0.000000 0.000000 3.395850 
# 
# 
# High freq. dielectric constant tensor:
#      x y z
#    x 1.714280 0.000000 0.000000 
#    y 0.000000 1.714280 0.000000 
#    z 0.000000 0.000000 1.720440 
# 
# From -- ./inp_files/1264.got.cif
#   From: 2010.03.12/outbox.cif.g09.slc.cpg/sg100_cif.got.tgz:1264.got - 2010.04.14 01:37:57.
