data_PCOD8306415
_publ_section_title
;
Structure prediction by ZEFSAII (Michael W. Deem and Ramdas Pophale) SiO2 
 PCOD8306415
Probable space group: P 4 M M
;
_chemical_formula_sum "Si O2"
_cell_formula_units_Z 64
_cell_length_a 23.202377
_cell_length_b 23.202377
_cell_length_c 7.963406
_cell_angle_alpha 90.000000
_cell_angle_beta 90.000000
_cell_angle_gamma 90.000000
_cell_volume 4287.101997
_symmetry_space_group_name_H-M "P 4 M M"
_symmetry_group_IT_number 99
_symmetry_cell_setting 'tetragonal'
loop_
_space_group_symop_operation_xyz
x,y,z
-y,x,z
-x,-y,z
y,-x,z
-x,y,z
x,-y,z
-y,-x,z
y,x,z
loop_
_atom_site_type_symbol
_atom_site_label
_atom_site_fract_x
_atom_site_fract_y
_atom_site_fract_z
Si Si1 0.566347 0.065841 0.652160
Si Si2 0.432950 0.063820 0.042136
Si Si3 0.111195 0.798789 0.868745
Si Si4 0.299970 0.207070 0.857176
Si Si5 0.341837 0.155939 0.535705
Si Si6 0.117889 0.787442 0.508447
Si Si7 0.153772 0.652057 0.172291
Si Si8 0.063794 0.754784 0.188748
O O1 0.500000 0.083655 0.618178
O O2 0.581603 0.071793 0.847249
O O3 0.608949 0.107690 0.553711
O O4 0.576398 0.000000 0.592640
O O5 0.500000 0.068840 0.077374
O O6 0.411346 0.000000 0.098858
O O7 0.404067 0.115069 0.144498
O O8 0.143932 0.856069 0.927272
O O9 0.156620 0.746644 0.854332
O O10 0.085123 0.807349 0.680169
O O11 0.063127 0.787684 0.009347
O O12 0.269552 0.269552 0.856781
O O13 0.340763 0.201244 0.690898
O O14 0.338963 0.200922 0.025220
O O15 0.280601 0.125464 0.522907
O O16 0.353493 0.185981 0.353365
O O17 0.179206 0.820795 0.494179
O O18 0.080032 0.798715 0.341215
O O19 0.110358 0.705258 0.176794
O O20 0.000000 0.729975 0.219140
#
# Coordination Sequence:
#
# PCOD8306415 Si02
#       8
#     8   8   8   8   8   8   8   8
#     4   9  18  31  45  61  85 118 151 184 221 259
#     4   9  17  30  45  58  80 115 150 183 218 255
#     4   8  15  28  43  55  71 100 128 151 188 237
#     4   9  17  30  44  59  79 102 132 171 215 259
#     4  10  18  28  45  63  79 104 143 180 214 259
#     4   9  18  31  44  59  82 111 139 170 213 260
#     4  10  19  29  42  61  82 107 139 173 211 255
#     4  10  19  27  39  61  85 105 128 160 198 249
#
# _framework density 14.9285
#
# number of rings (size 3 to 8) (size 9 to 14) (size 15 to 20)
#    0.000    2.750    1.250    2.625    0.000    7.000 
#    0.000    1.250    0.000    0.000    0.000    0.000 
#    0.000    4.000    0.000   11.000    0.000    2.000 
#
# Total GULP energy -792858.481144 kJ/mol
# GULP energy per Si atom -12388.413768 kJ/mol
# Density = 1.489452 g / cm^3
# Si number density = 14.928500 Si / 1000 Ang^3
#
#
#
# Elastic Constant Matrix: (Units=GPa)
#
#
# Indices 1 2 3 4 5 6 
#
# 1 36.7236 21.3757 29.0917 0.0000 0.0000 0.0000
# 2 21.3757 36.7236 29.0917 0.0000 0.0000 0.0000
# 3 29.0917 29.0917 126.5716 0.0000 0.0000 0.0000
# 4 0.0000 0.0000 0.0000 15.4672 0.0000 0.0000
# 5 0.0000 0.0000 0.0000 0.0000 15.4672 0.0000
# 6 0.0000 0.0000 0.0000 0.0000 0.0000 23.1804
#
#
#
# Elastic Compliance Matrix: (Units=1/GPa)
#
#
# Indices 1 2 3 4 5 6 
#
# 1 0.043757 -0.021399 -0.005139 0.000000 0.000000 0.000000
# 2 -0.021399 0.043757 -0.005139 0.000000 0.000000 0.000000
# 3 -0.005139 -0.005139 0.010263 0.000000 0.000000 0.000000
# 4 0.000000 0.000000 0.000000 0.064653 0.000000 0.000000
# 5 0.000000 0.000000 0.000000 0.000000 0.064653 0.000000
# 6 0.000000 0.000000 0.000000 0.000000 0.000000 0.043140
#
#
# Mechanical properties :
#
#
# Convention : Reuss Voigt Hill
#
# Bulk Modulus (GPa) = 29.04963 39.90413 34.47688
# Shear Modulus (GPa) = 14.49062 18.85359 16.67210
#
# Velocity S-wave (km/s) = 3.11893 3.55762 3.34548
# Velocity P-wave (km/s) = 5.69840 6.60786 6.16991
#
# Compressibility (1/GPa) = 0.03442385
#
# Stress axis : x y z
#
# Youngs Moduli (GPa) = 22.85347 22.85347 97.43776
#
# Poissons Ratio (x) = 0.48904 0.50072
# Poissons Ratio (y) = 0.48904 0.50072
# Poissons Ratio (z) = 0.11744 0.11744
#
# Static dielectric constant tensor:
#      x y z
#    x 2.601920 0.000000 0.000000 
#    y 0.000000 2.601920 0.000000 
#    z 0.000000 0.000000 3.608180 
# 
# 
# High freq. dielectric constant tensor:
#      x y z
#    x 1.525750 0.000000 0.000000 
#    y 0.000000 1.525750 0.000000 
#    z 0.000000 0.000000 1.601910 
# 
# From -- ./inp_files/1217.got.cif
#   From: 2010.03.12/outbox.cif.g09.slc.cpg/sg99_cif.got.tgz:1217.got - 2010.04.08 21:11:30.
