data_PCOD8306275
_publ_section_title
;
Structure prediction by ZEFSAII (Michael W. Deem and Ramdas Pophale) SiO2 
 PCOD8306275
Probable space group: I 41 2 2
;
_chemical_formula_sum "Si O2"
_cell_formula_units_Z 88
_cell_length_a 12.257496
_cell_length_b 12.257496
_cell_length_c 27.134197
_cell_angle_alpha 90.000000
_cell_angle_beta 90.000000
_cell_angle_gamma 90.000000
_cell_volume 4076.810212
_symmetry_space_group_name_H-M "I 41 2 2"
_symmetry_group_IT_number 98
_symmetry_cell_setting 'tetragonal'
loop_
_space_group_symop_operation_xyz
x,y,z
-y,1/2+x,1/4+z
-x,-y,z
y,1/2-x,1/4+z
x,1/2-y,1/4-z
-x,1/2+y,1/4-z
y,x,-z
-y,-x,-z
1/2+x,1/2+y,1/2+z
1/2-y,x,3/4+z
1/2-x,1/2-y,1/2+z
1/2+y,-x,3/4+z
1/2+x,-y,3/4-z
1/2-x,y,3/4-z
1/2+y,1/2+x,1/2-z
1/2-y,1/2-x,1/2-z
loop_
_atom_site_type_symbol
_atom_site_label
_atom_site_fract_x
_atom_site_fract_y
_atom_site_fract_z
Si Si1 0.830673 0.250000 0.125000
Si Si2 0.305868 0.935323 0.097615
Si Si3 0.106759 0.279976 0.978144
Si Si4 0.018046 0.822107 0.706433
Si Si5 0.436778 0.891045 0.544913
Si Si6 0.587394 0.406143 0.055843
O O1 0.759636 0.177169 0.086589
O O2 0.901823 0.335761 0.095243
O O3 0.429466 0.920903 0.076051
O O4 0.314278 0.943882 0.157605
O O5 0.246623 0.040077 0.072270
O O6 0.172852 0.388253 0.963645
O O7 0.186412 0.186412 0.000000
O O8 0.016384 0.304373 0.018932
O O9 0.077050 0.834449 0.759883
O O10 0.037669 0.709463 0.677128
O O11 0.500000 0.000000 0.559576
O O12 0.500000 0.500000 0.057538
O O13 0.620938 0.379063 0.000000
#
# Coordination Sequence:
#
# PCOD8306275 Si02
#       6
#     8  16  16  16  16  16
#     4  12  22  38  68  92 126 174 222 284 364 408
#     4  11  22  40  63  97 130 172 230 284 341 432
#     4  10  23  42  66  92 131 182 230 281 349 413
#     4  10  20  40  64  88 131 176 219 270 350 415
#     4   9  22  42  63  87 127 171 219 284 345 420
#     4  11  22  34  59  95 137 167 216 279 339 421
#
# _framework density 21.585504
#
# number of rings (size 3 to 8) (size 9 to 14) (size 15 to 20)
#    0.000    1.636    1.818    3.818    2.545    3.636 
#    0.000    0.909    4.000    0.000    0.000    0.000 
#    0.000    0.000    0.000    0.000    0.000    0.000 
#
# Total GULP energy -545111.171741 kJ/mol
# GULP energy per Si atom -12388.890267 kJ/mol
# Density = 2.153637 g / cm^3
# Si number density = 21.585504 Si / 1000 Ang^3
#
#
#
# Elastic Constant Matrix: (Units=GPa)
#
#
# Indices 1 2 3 4 5 6 
#
# 1 112.8354 50.6272 48.9483 0.0000 0.0000 0.0000
# 2 50.6272 112.8352 48.9482 0.0000 0.0000 0.0000
# 3 48.9483 48.9482 129.8859 0.0000 0.0000 0.0000
# 4 0.0000 0.0000 0.0000 28.8266 0.0000 0.0000
# 5 0.0000 0.0000 0.0000 0.0000 28.8265 0.0000
# 6 0.0000 0.0000 0.0000 0.0000 0.0000 23.6085
#
#
#
# Elastic Compliance Matrix: (Units=1/GPa)
#
#
# Indices 1 2 3 4 5 6 
#
# 1 0.011988 -0.004087 -0.002977 0.000000 0.000000 0.000000
# 2 -0.004087 0.011988 -0.002977 0.000000 0.000000 0.000000
# 3 -0.002977 -0.002977 0.009943 0.000000 0.000000 0.000000
# 4 0.000000 0.000000 0.000000 0.034690 0.000000 0.000000
# 5 0.000000 0.000000 0.000000 0.000000 0.034690 0.000000
# 6 0.000000 0.000000 0.000000 0.000000 0.000000 0.042358
#
#
# Mechanical properties :
#
#
# Convention : Reuss Voigt Hill
#
# Bulk Modulus (GPa) = 72.28067 72.51154 72.39610
# Shear Modulus (GPa) = 29.35085 30.05453 29.70269
#
# Velocity S-wave (km/s) = 3.69148 3.73547 3.71354
# Velocity P-wave (km/s) = 7.19220 7.22984 7.21104
#
# Compressibility (1/GPa) = 0.01383496
#
# Stress axis : x y z
#
# Youngs Moduli (GPa) = 83.41727 83.41716 100.57116
#
# Poissons Ratio (x) = 0.34094 0.29945
# Poissons Ratio (y) = 0.34094 0.29945
# Poissons Ratio (z) = 0.24837 0.24837
#
# Static dielectric constant tensor:
#      x y z
#    x 3.893190 0.000000 0.000000 
#    y 0.000000 3.893180 0.000000 
#    z 0.000000 0.000000 4.020460 
# 
# 
# High freq. dielectric constant tensor:
#      x y z
#    x 1.838470 0.000000 0.000000 
#    y 0.000000 1.838470 0.000000 
#    z 0.000000 0.000000 1.848930 
# 
# From -- ./inp_files/11902.got.cif
#   From: 2010.03.12/outbox.cif.g09.slc.cpg/sg98_6_cif.got.tgz:11902.got - 2010.04.08 21:04:41.
