data_PCOD8306341
_publ_section_title
;
Structure prediction by ZEFSAII (Michael W. Deem and Ramdas Pophale) SiO2 
 PCOD8306341
Probable space group: I 41 2 2
;
_chemical_formula_sum "Si O2"
_cell_formula_units_Z 116
_cell_length_a 17.591349
_cell_length_b 17.591349
_cell_length_c 17.792556
_cell_angle_alpha 90.000000
_cell_angle_beta 90.000000
_cell_angle_gamma 90.000000
_cell_volume 5506.005374
_symmetry_space_group_name_H-M "I 41 2 2"
_symmetry_group_IT_number 98
_symmetry_cell_setting 'tetragonal'
loop_
_space_group_symop_operation_xyz
x,y,z
-y,1/2+x,1/4+z
-x,-y,z
y,1/2-x,1/4+z
x,1/2-y,1/4-z
-x,1/2+y,1/4-z
y,x,-z
-y,-x,-z
1/2+x,1/2+y,1/2+z
1/2-y,x,3/4+z
1/2-x,1/2-y,1/2+z
1/2+y,-x,3/4+z
1/2+x,-y,3/4-z
1/2-x,y,3/4-z
1/2+y,1/2+x,1/2-z
1/2-y,1/2-x,1/2-z
loop_
_atom_site_type_symbol
_atom_site_label
_atom_site_fract_x
_atom_site_fract_y
_atom_site_fract_z
Si Si1 0.192118 0.330843 0.590999
Si Si2 0.493869 0.412574 0.606349
Si Si3 0.634431 0.993826 0.138741
Si Si4 0.294278 0.962342 0.568523
Si Si5 0.872064 0.663762 0.429559
Si Si6 0.366101 0.586388 0.255766
Si Si7 0.000000 0.000000 0.500000
Si Si8 0.810869 0.072361 0.011879
O O1 0.161027 0.250000 0.625000
O O2 0.147945 0.404625 0.622520
O O3 0.279405 0.341082 0.615703
O O4 0.185785 0.332912 0.500392
O O5 0.500000 0.500000 0.579031
O O6 0.416789 0.379084 0.640051
O O7 0.555557 0.407312 0.671122
O O8 0.511661 0.357194 0.537068
O O9 0.703861 0.041490 0.174109
O O10 0.573249 0.000013 0.200932
O O11 0.604895 0.038828 0.065371
O O12 0.326246 0.898163 0.509769
O O13 0.325461 0.953578 0.653387
O O14 0.315207 0.045480 0.537225
O O15 0.276087 0.578181 0.263019
O O16 0.843299 0.156702 0.000000
#
# Coordination Sequence:
#
# PCOD8306341 Si02
#       8
#    16  16  16  16  16  16   4  16
#     4  11  25  45  69  96 139 180 230 287 355 417
#     4  12  23  40  68  99 138 182 229 278 346 417
#     4  10  26  46  72 105 133 183 232 290 348 421
#     4  10  23  44  68  97 141 174 232 281 343 415
#     4  11  24  44  66  96 135 180 232 279 346 416
#     4  11  22  44  69  97 136 180 226 285 345 415
#     4  12  28  48  76 100 144 170 244 292 344 404
#     4  11  23  40  64 102 137 182 225 278 346 414
#
# _framework density 21.067906000000001
#
# number of rings (size 3 to 8) (size 9 to 14) (size 15 to 20)
#    0.000    1.103    4.138    0.828    6.759    3.034 
#    8.690    0.690    0.000    0.000    0.000    0.000 
#    0.000    0.000    0.000    0.000    0.000    0.000 
#
# Total GULP energy -718891.960136 kJ/mol
# GULP energy per Si atom -12394.688968 kJ/mol
# Density = 2.101995 g / cm^3
# Si number density = 21.067906 Si / 1000 Ang^3
#
#
#
# Elastic Constant Matrix: (Units=GPa)
#
#
# Indices 1 2 3 4 5 6 
#
# 1 99.0816 62.9742 76.1323 0.0000 0.0000 0.0000
# 2 62.9742 99.0772 76.1320 0.0000 0.0000 0.0000
# 3 76.1323 76.1320 119.8534 0.0000 0.0000 0.0000
# 4 0.0000 0.0000 0.0000 34.4937 0.0000 0.0000
# 5 0.0000 0.0000 0.0000 0.0000 34.4943 0.0000
# 6 0.0000 0.0000 0.0000 0.0000 0.0000 29.4623
#
#
#
# Elastic Compliance Matrix: (Units=1/GPa)
#
#
# Indices 1 2 3 4 5 6 
#
# 1 0.021501 -0.006195 -0.009722 0.000000 0.000000 0.000000
# 2 -0.006195 0.021502 -0.009723 0.000000 0.000000 0.000000
# 3 -0.009722 -0.009723 0.020695 0.000000 0.000000 0.000000
# 4 0.000000 0.000000 0.000000 0.028991 0.000000 0.000000
# 5 0.000000 0.000000 0.000000 0.000000 0.028990 0.000000
# 6 0.000000 0.000000 0.000000 0.000000 0.000000 0.033942
#
#
# Mechanical properties :
#
#
# Convention : Reuss Voigt Hill
#
# Bulk Modulus (GPa) = 80.53403 83.16548 81.84975
# Shear Modulus (GPa) = 23.69208 26.54165 25.11687
#
# Velocity S-wave (km/s) = 3.35708 3.55324 3.45655
# Velocity P-wave (km/s) = 7.30312 7.50964 7.40710
#
# Compressibility (1/GPa) = 0.01241711
#
# Stress axis : x y z
#
# Youngs Moduli (GPa) = 46.51035 46.50665 48.32023
#
# Poissons Ratio (x) = 0.28813 0.46977
# Poissons Ratio (y) = 0.28815 0.46982
# Poissons Ratio (z) = 0.45218 0.45219
#
# Static dielectric constant tensor:
#      x y z
#    x 4.164210 0.000000 0.000000 
#    y 0.000000 4.164190 0.000000 
#    z 0.000000 0.000000 3.861010 
# 
# 
# High freq. dielectric constant tensor:
#      x y z
#    x 1.830830 0.000000 0.000000 
#    y 0.000000 1.830830 0.000000 
#    z 0.000000 0.000000 1.823550 
# 
# From -- ./inp_files/7827.got.cif
#   From: 2010.03.12/outbox.cif.g09.slc.cpg/sg98_4_cif.got.tgz:7827.got - 2010.04.08 21:04:41.
