data_PCOD8306662
_publ_section_title
;
Structure prediction by ZEFSAII (Michael W. Deem and Ramdas Pophale) SiO2 
 PCOD8306662
Probable space group: P 4 B M
;
_chemical_formula_sum "Si O2"
_cell_formula_units_Z 56
_cell_length_a 13.529106
_cell_length_b 13.529106
_cell_length_c 16.041788
_cell_angle_alpha 90.000000
_cell_angle_beta 90.000000
_cell_angle_gamma 90.000000
_cell_volume 2936.236085
_symmetry_space_group_name_H-M "P 4 B M"
_symmetry_group_IT_number 100
_symmetry_cell_setting 'tetragonal'
loop_
_space_group_symop_operation_xyz
x,y,z
-y,x,z
-x,-y,z
y,-x,z
1/2-x,1/2+y,z
1/2+x,1/2-y,z
1/2-y,1/2-x,z
1/2+y,1/2+x,z
loop_
_atom_site_type_symbol
_atom_site_label
_atom_site_fract_x
_atom_site_fract_y
_atom_site_fract_z
Si Si1 0.337132 0.498783 0.376980
Si Si2 0.779034 0.880396 0.997516
Si Si3 0.226138 0.114939 0.811504
Si Si4 0.662655 0.999886 0.248018
Si Si5 0.983339 0.839456 0.565752
Si Si6 0.416838 0.754434 0.724476
Si Si7 0.260341 0.921526 0.077606
O O1 0.403564 0.402185 0.358784
O O2 0.238803 0.508382 0.323238
O O3 0.298685 0.488003 0.471716
O O4 0.678409 0.821592 0.007241
O O5 0.856695 0.839532 0.066702
O O6 0.749365 0.992731 0.011038
O O7 0.821921 0.872344 0.903648
O O8 0.329663 0.170338 0.807319
O O9 0.151276 0.159312 0.743328
O O10 0.252206 0.002099 0.793063
O O11 0.584879 0.084879 0.269980
O O12 0.728256 0.030687 0.168584
O O13 0.603902 0.896099 0.233387
O O14 0.964737 0.751734 0.631847
O O15 0.086199 0.893379 0.581144
O O16 0.355610 0.855610 0.732644
O O17 0.355527 0.855527 0.054622
#
# Coordination Sequence:
#
# PCOD8306662 Si02
#       7
#     8   8   8   8   8   8   8
#     4   9  20  37  60  90 120 147 190 244 291 345
#     4  10  21  38  59  82 113 151 194 241 291 349
#     4  10  22  37  55  85 115 146 196 244 287 351
#     4  10  22  39  59  85 117 155 197 236 285 354
#     4   9  17  35  59  84 112 147 192 241 288 342
#     4  11  21  35  58  83 116 156 193 239 293 349
#     4  10  22  39  58  84 115 148 194 242 287 346
#
# _framework density 19.072037000000002
#
# number of rings (size 3 to 8) (size 9 to 14) (size 15 to 20)
#    0.000    2.143    1.429    2.143    2.000    4.571 
#    0.000    5.714    0.000    0.000    0.000    0.000 
#    0.000    0.000    0.000    0.000    0.000    0.000 
#
# Total GULP energy -694153.429751 kJ/mol
# GULP energy per Si atom -12395.596960 kJ/mol
# Density = 1.902863 g / cm^3
# Si number density = 19.072037 Si / 1000 Ang^3
#
#
#
# Elastic Constant Matrix: (Units=GPa)
#
#
# Indices 1 2 3 4 5 6 
#
# 1 100.0202 32.9557 52.0621 0.0000 0.0000 0.0002
# 2 32.9557 100.0202 52.0621 0.0000 0.0000 -0.0002
# 3 52.0621 52.0621 91.4668 0.0000 0.0000 0.0000
# 4 0.0000 0.0000 0.0000 32.3493 0.0000 0.0000
# 5 0.0000 0.0000 0.0000 0.0000 32.3493 0.0000
# 6 0.0002 -0.0002 0.0000 0.0000 0.0000 15.7439
#
#
#
# Elastic Compliance Matrix: (Units=1/GPa)
#
#
# Indices 1 2 3 4 5 6 
#
# 1 0.014239 -0.000672 -0.007722 0.000000 0.000000 0.000000
# 2 -0.000672 0.014239 -0.007722 0.000000 0.000000 0.000000
# 3 -0.007722 -0.007722 0.019724 0.000000 0.000000 0.000000
# 4 0.000000 0.000000 0.000000 0.030913 0.000000 0.000000
# 5 0.000000 0.000000 0.000000 0.000000 0.030913 0.000000
# 6 0.000000 0.000000 0.000000 0.000000 0.000000 0.063517
#
#
# Mechanical properties :
#
#
# Convention : Reuss Voigt Hill
#
# Bulk Modulus (GPa) = 62.62204 62.85190 62.73697
# Shear Modulus (GPa) = 23.68557 26.38364 25.03460
#
# Velocity S-wave (km/s) = 3.52788 3.72340 3.62696
# Velocity P-wave (km/s) = 7.03565 7.17715 7.10675
#
# Compressibility (1/GPa) = 0.01596882
#
# Stress axis : x y z
#
# Youngs Moduli (GPa) = 70.23004 70.23004 50.70054
#
# Poissons Ratio (x) = 0.04720 0.39152
# Poissons Ratio (y) = 0.04720 0.39152
# Poissons Ratio (z) = 0.54232 0.54232
#
# Static dielectric constant tensor:
#      x y z
#    x 3.394400 0.000000 0.000000 
#    y 0.000000 3.394400 0.000000 
#    z 0.000000 0.000000 3.535530 
# 
# 
# High freq. dielectric constant tensor:
#      x y z
#    x 1.733860 0.000000 0.000000 
#    y 0.000000 1.733860 0.000000 
#    z 0.000000 0.000000 1.748230 
# 
# From -- ./inp_files/1434.got.cif
#   From: 2010.03.12/outbox.cif.g09.slc.cpg/sg100_cif.got.tgz:1434.got - 2010.04.14 01:37:57.
