data_PCOD8306266
_publ_section_title
;
Structure prediction by ZEFSAII (Michael W. Deem and Ramdas Pophale) SiO2 
 PCOD8306266
Probable space group: I 41 2 2
;
_chemical_formula_sum "Si O2"
_cell_formula_units_Z 112
_cell_length_a 14.327556
_cell_length_b 14.327556
_cell_length_c 26.576269
_cell_angle_alpha 90.000000
_cell_angle_beta 90.000000
_cell_angle_gamma 90.000000
_cell_volume 5455.546228
_symmetry_space_group_name_H-M "I 41 2 2"
_symmetry_group_IT_number 98
_symmetry_cell_setting 'tetragonal'
loop_
_space_group_symop_operation_xyz
x,y,z
-y,1/2+x,1/4+z
-x,-y,z
y,1/2-x,1/4+z
x,1/2-y,1/4-z
-x,1/2+y,1/4-z
y,x,-z
-y,-x,-z
1/2+x,1/2+y,1/2+z
1/2-y,x,3/4+z
1/2-x,1/2-y,1/2+z
1/2+y,-x,3/4+z
1/2+x,-y,3/4-z
1/2-x,y,3/4-z
1/2+y,1/2+x,1/2-z
1/2-y,1/2-x,1/2-z
loop_
_atom_site_type_symbol
_atom_site_label
_atom_site_fract_x
_atom_site_fract_y
_atom_site_fract_z
Si Si1 0.873902 0.276896 0.992027
Si Si2 0.974788 0.861558 0.838950
Si Si3 0.732819 0.460582 0.755301
Si Si4 0.014871 0.807681 0.357703
Si Si5 0.435641 0.339594 0.148615
Si Si6 0.022137 0.665215 0.085650
Si Si7 0.587350 0.439531 0.937227
O O1 0.799942 0.356019 0.005014
O O2 0.908023 0.296038 0.935447
O O3 0.823722 0.176279 0.000000
O O4 0.959489 0.288137 0.031205
O O5 0.972532 0.795284 0.790269
O O6 0.968413 0.793696 0.886777
O O7 0.073558 0.914622 0.844640
O O8 0.878656 0.919250 0.838126
O O9 0.681719 0.509942 0.801040
O O10 0.844745 0.447569 0.763218
O O11 0.060548 0.838687 0.412229
O O12 0.932406 0.876616 0.341230
O O13 0.378555 0.250000 0.125000
O O14 0.515393 0.357421 0.108423
O O15 0.037334 0.750000 0.125000
O O16 0.500000 0.500000 0.953201
#
# Coordination Sequence:
#
# PCOD8306266 Si02
#       7
#    16  16  16  16  16  16  16
#     4  11  23  36  63  94 120 158 204 257 309 375
#     4  10  23  38  62  90 119 161 202 263 313 380
#     4  10  20  37  58  87 126 165 208 246 309 366
#     4  11  21  36  59  89 126 158 209 249 309 368
#     4   9  18  36  57  84 119 169 208 243 292 370
#     4  10  22  44  64  87 121 156 204 264 331 367
#     4   9  19  34  56  84 126 173 199 247 295 361
#
# _framework density 20.529565000000002
#
# number of rings (size 3 to 8) (size 9 to 14) (size 15 to 20)
#    0.000    2.000    1.429    1.714    4.000    1.714 
#    0.000    9.286    0.000    9.429    0.000    0.000 
#    0.000    0.000    0.000    0.000    0.000    0.000 
#
# Total GULP energy -693784.617200 kJ/mol
# GULP energy per Si atom -12389.011021 kJ/mol
# Density = 2.048284 g / cm^3
# Si number density = 20.529565 Si / 1000 Ang^3
#
#
#
# Elastic Constant Matrix: (Units=GPa)
#
#
# Indices 1 2 3 4 5 6 
#
# 1 93.5680 29.1631 21.7547 0.0000 0.0000 0.0000
# 2 29.1631 93.5684 21.7547 0.0000 0.0000 0.0000
# 3 21.7547 21.7547 65.1136 0.0000 0.0000 0.0000
# 4 0.0000 0.0000 0.0000 32.9735 0.0000 0.0000
# 5 0.0000 0.0000 0.0000 0.0000 32.9731 0.0000
# 6 0.0000 0.0000 0.0000 0.0000 0.0000 17.3989
#
#
#
# Elastic Compliance Matrix: (Units=1/GPa)
#
#
# Indices 1 2 3 4 5 6 
#
# 1 0.012385 -0.003142 -0.003088 0.000000 0.000000 0.000000
# 2 -0.003142 0.012385 -0.003088 0.000000 0.000000 0.000000
# 3 -0.003088 -0.003088 0.017421 0.000000 0.000000 0.000000
# 4 0.000000 0.000000 0.000000 0.030327 0.000000 0.000000
# 5 0.000000 0.000000 0.000000 0.000000 0.030328 0.000000
# 6 0.000000 0.000000 0.000000 0.000000 0.000000 0.057475
#
#
# Mechanical properties :
#
#
# Convention : Reuss Voigt Hill
#
# Bulk Modulus (GPa) = 42.45484 44.17723 43.31603
# Shear Modulus (GPa) = 26.76545 28.64094 27.70320
#
# Velocity S-wave (km/s) = 3.61467 3.73917 3.67744
# Velocity P-wave (km/s) = 6.17623 6.34093 6.25912
#
# Compressibility (1/GPa) = 0.02355444
#
# Stress axis : x y z
#
# Youngs Moduli (GPa) = 80.74484 80.74518 57.40132
#
# Poissons Ratio (x) = 0.25371 0.17726
# Poissons Ratio (y) = 0.25371 0.17725
# Poissons Ratio (z) = 0.24934 0.24934
#
# Static dielectric constant tensor:
#      x y z
#    x 3.778750 0.000000 0.000000 
#    y 0.000000 3.778750 0.000000 
#    z 0.000000 0.000000 3.910030 
# 
# 
# High freq. dielectric constant tensor:
#      x y z
#    x 1.799380 0.000000 0.000000 
#    y 0.000000 1.799380 0.000000 
#    z 0.000000 0.000000 1.815300 
# 
# From -- ./inp_files/10976.got.cif
#   From: 2010.03.12/outbox.cif.g09.slc.cpg/sg98_6_cif.got.tgz:10976.got - 2010.04.08 21:04:41.
