data_PCOD8306628
_publ_section_title
;
Structure prediction by ZEFSAII (Michael W. Deem and Ramdas Pophale) SiO2 
 PCOD8306628
Probable space group: P 4 B M
;
_chemical_formula_sum "Si O2"
_cell_formula_units_Z 48
_cell_length_a 15.205348
_cell_length_b 15.205348
_cell_length_c 11.873510
_cell_angle_alpha 90.000000
_cell_angle_beta 90.000000
_cell_angle_gamma 90.000000
_cell_volume 2745.186476
_symmetry_space_group_name_H-M "P 4 B M"
_symmetry_group_IT_number 100
_symmetry_cell_setting 'tetragonal'
loop_
_space_group_symop_operation_xyz
x,y,z
-y,x,z
-x,-y,z
y,-x,z
1/2-x,1/2+y,z
1/2+x,1/2-y,z
1/2-y,1/2-x,z
1/2+y,1/2+x,z
loop_
_atom_site_type_symbol
_atom_site_label
_atom_site_fract_x
_atom_site_fract_y
_atom_site_fract_z
Si Si1 0.636281 0.545752 0.522810
Si Si2 0.573798 0.926202 0.777124
Si Si3 0.954248 0.863719 0.780213
Si Si4 0.573799 0.926202 0.525896
Si Si5 0.856469 0.496276 0.151511
Si Si6 0.545997 0.193246 0.913627
Si Si7 0.193247 0.454003 0.389394
O O1 0.554613 0.609439 0.499379
O O2 0.668628 0.556322 0.651512
O O3 0.712742 0.574697 0.437587
O O4 0.601909 0.898092 0.651510
O O5 0.536275 0.841648 0.841095
O O6 0.500000 0.000000 0.774587
O O7 0.925304 0.787257 0.865435
O O8 0.054613 0.890561 0.803644
O O9 0.536276 0.841648 0.461925
O O10 0.500000 0.000000 0.528431
O O11 0.897778 0.397778 0.151512
O O12 0.796634 0.512812 0.261091
O O13 0.937260 0.562741 0.151515
O O14 0.796637 0.512811 0.041929
O O15 0.629074 0.129074 0.904745
O O16 0.129073 0.370928 0.398277
#
# Coordination Sequence:
#
# PCOD8306628 Si02
#       7
#     8   4   8   4   8   8   8
#     4   9  19  37  56  72  99 140 176 209 261 323
#     4   9  16  25  43  73 105 130 153 198 261 308
#     4   9  19  37  56  72  99 140 176 209 261 323
#     4   9  16  25  43  73 105 130 153 198 261 308
#     4   9  16  30  50  73 104 144 173 199 254 316
#     4  10  18  31  52  77 105 133 171 217 257 303
#     4  10  18  31  52  77 105 133 171 217 257 303
#
# _framework density 17.485151999999999
#
# number of rings (size 3 to 8) (size 9 to 14) (size 15 to 20)
#    0.000    2.667    1.667    2.000    0.000    2.000 
#    3.000    1.667    0.000    4.000    0.000    0.000 
#    0.000    0.000    0.000    0.000    0.000    0.000 
#
# Total GULP energy -595161.505059 kJ/mol
# GULP energy per Si atom -12399.198022 kJ/mol
# Density = 1.744535 g / cm^3
# Si number density = 17.485152 Si / 1000 Ang^3
#
#
#
# Elastic Constant Matrix: (Units=GPa)
#
#
# Indices 1 2 3 4 5 6 
#
# 1 69.3820 13.7058 43.7314 0.0000 0.0000 0.0000
# 2 13.7058 69.3820 43.7314 0.0000 0.0000 0.0000
# 3 43.7314 43.7314 149.9251 0.0000 0.0000 0.0000
# 4 0.0000 0.0000 0.0000 21.8514 0.0000 0.0000
# 5 0.0000 0.0000 0.0000 0.0000 21.8514 0.0000
# 6 0.0000 0.0000 0.0000 0.0000 0.0000 10.7740
#
#
#
# Elastic Compliance Matrix: (Units=1/GPa)
#
#
# Indices 1 2 3 4 5 6 
#
# 1 0.017665 -0.000296 -0.005066 0.000000 0.000000 0.000000
# 2 -0.000296 0.017665 -0.005066 0.000000 0.000000 0.000000
# 3 -0.005066 -0.005066 0.009625 0.000000 0.000000 0.000000
# 4 0.000000 0.000000 0.000000 0.045764 0.000000 0.000000
# 5 0.000000 0.000000 0.000000 0.000000 0.045764 0.000000
# 6 0.000000 0.000000 0.000000 0.000000 0.000000 0.092816
#
#
# Mechanical properties :
#
#
# Convention : Reuss Voigt Hill
#
# Bulk Modulus (GPa) = 41.49788 54.55847 48.02817
# Shear Modulus (GPa) = 19.36574 23.39674 21.38124
#
# Velocity S-wave (km/s) = 3.33160 3.66196 3.50068
# Velocity P-wave (km/s) = 6.21162 7.01074 6.62324
#
# Compressibility (1/GPa) = 0.02409762
#
# Stress axis : x y z
#
# Youngs Moduli (GPa) = 56.61013 56.61013 103.89107
#
# Poissons Ratio (x) = 0.01677 0.52633
# Poissons Ratio (y) = 0.01677 0.52633
# Poissons Ratio (z) = 0.28680 0.28680
#
# Static dielectric constant tensor:
#      x y z
#    x 2.970270 0.000000 0.000000 
#    y 0.000000 2.970270 0.000000 
#    z 0.000000 0.000000 3.468540 
# 
# 
# High freq. dielectric constant tensor:
#      x y z
#    x 1.652150 0.000000 0.000000 
#    y 0.000000 1.652150 0.000000 
#    z 0.000000 0.000000 1.683590 
# 
# From -- ./inp_files/1272.got.cif
#   From: 2010.03.12/outbox.cif.g09.slc.cpg/sg100_cif.got.tgz:1272.got - 2010.04.14 01:37:57.
