data_PCOD8306856
_publ_section_title
;
Structure prediction by ZEFSAII (Michael W. Deem and Ramdas Pophale) SiO2 
 PCOD8306856
Probable space group: P 42 N M
;
_chemical_formula_sum "Si O2"
_cell_formula_units_Z 64
_cell_length_a 21.390937
_cell_length_b 21.390937
_cell_length_c 8.603384
_cell_angle_alpha 90.000000
_cell_angle_beta 90.000000
_cell_angle_gamma 90.000000
_cell_volume 3936.669222
_symmetry_space_group_name_H-M "P 42 N M"
_symmetry_group_IT_number 102
_symmetry_cell_setting 'tetragonal'
loop_
_space_group_symop_operation_xyz
x,y,z
1/2-y,1/2+x,1/2+z
-x,-y,z
1/2+y,1/2-x,1/2+z
1/2-x,1/2+y,1/2+z
1/2+x,1/2-y,1/2+z
-y,-x,z
y,x,z
loop_
_atom_site_type_symbol
_atom_site_label
_atom_site_fract_x
_atom_site_fract_y
_atom_site_fract_z
Si Si1 0.251099 0.651116 0.957300
Si Si2 0.313383 0.941311 0.046101
Si Si3 0.558681 0.186623 0.754020
Si Si4 0.325988 0.138582 0.745852
Si Si5 0.519024 0.108494 0.320700
Si Si6 0.174003 0.361407 0.054262
Si Si7 0.019029 0.608497 0.479417
Si Si8 0.251088 0.348873 0.342818
O O1 0.321337 0.678664 0.942464
O O2 0.244576 0.588558 0.852333
O O3 0.201675 0.701664 0.900063
O O4 0.235619 0.639427 0.139065
O O5 0.343392 0.888963 0.154635
O O6 0.290082 0.999994 0.150062
O O7 0.366665 0.961193 0.923021
O O8 0.255434 0.911433 0.947776
O O9 0.611027 0.156614 0.645482
O O10 0.538804 0.133345 0.877113
O O11 0.334819 0.068644 0.810624
O O12 0.317488 0.182499 0.900058
O O13 0.547106 0.047103 0.400049
O O14 0.499995 0.087412 0.150059
O O15 0.235609 0.360558 0.161051
O O16 0.165178 0.431345 0.989489
O O17 0.321325 0.321325 0.357658
#
# Coordination Sequence:
#
# PCOD8306856 Si02
#       8
#     8   8   8   8   8   8   8   8
#     4   9  19  33  50  67  91 125 165 207 247 291
#     4  11  19  32  50  68  95 128 161 203 252 291
#     4  11  19  32  50  68  95 128 161 203 252 291
#     4  10  19  31  48  68  94 124 170 206 247 295
#     4  11  21  33  47  65  94 132 167 211 240 292
#     4  10  19  31  48  68  94 124 170 206 247 295
#     4  11  21  33  47  65  94 132 167 211 240 292
#     4   9  19  33  50  67  91 125 165 207 247 291
#
# _framework density 16.257397999999998
#
# number of rings (size 3 to 8) (size 9 to 14) (size 15 to 20)
#    0.000    1.750    7.500    0.000    0.000    0.500 
#    0.000    7.500    0.000    0.000    0.000    0.000 
#    0.000    0.500    0.000    0.750    0.000    0.000 
#
# Total GULP energy -793187.622315 kJ/mol
# GULP energy per Si atom -12393.556599 kJ/mol
# Density = 1.622040 g / cm^3
# Si number density = 16.257398 Si / 1000 Ang^3
#
#
#
# Elastic Constant Matrix: (Units=GPa)
#
#
# Indices 1 2 3 4 5 6 
#
# 1 46.2464 50.3959 40.0672 0.0000 0.0000 -0.0001
# 2 50.3959 46.2464 40.0672 0.0000 0.0000 0.0001
# 3 40.0672 40.0672 137.6197 0.0000 0.0000 0.0000
# 4 0.0000 0.0000 0.0000 21.1460 0.0000 0.0000
# 5 0.0000 0.0000 0.0000 0.0000 21.1460 0.0000
# 6 -0.0001 0.0001 0.0000 0.0000 0.0000 31.2634
#
#
#
# Elastic Compliance Matrix: (Units=1/GPa)
#
#
# Indices 1 2 3 4 5 6 
#
# 1 -0.113677 0.127317 -0.003971 0.000000 0.000000 -0.000001
# 2 0.127317 -0.113677 -0.003971 0.000000 0.000000 0.000001
# 3 -0.003971 -0.003971 0.009579 0.000000 0.000000 0.000000
# 4 0.000000 0.000000 0.000000 0.047290 0.000000 0.000000
# 5 0.000000 0.000000 0.000000 0.000000 0.047290 0.000000
# 6 -0.000001 0.000001 0.000000 0.000000 0.000000 0.031986
#
#
# Mechanical properties :
#
#
# Convention : Reuss Voigt Hill
#
# Bulk Modulus (GPa) = 47.67728 54.57480 51.12604
# Shear Modulus (GPa) = -15.48156 21.34993 2.93418
#
# Velocity S-wave (km/s) = -3.08925 3.62780 1.34490
# Velocity P-wave (km/s) = 4.08235 7.15472 5.82476
#
# Compressibility (1/GPa) = 0.02097435
#
# Stress axis : x y z
#
# Youngs Moduli (GPa) = -8.79689 -8.79689 104.39665
#
# Poissons Ratio (x) = 1.11999 0.41459
# Poissons Ratio (y) = 1.11999 0.41459
# Poissons Ratio (z) = -0.03494 -0.03494
#
# Static dielectric constant tensor:
#      x y z
#    x 2.940980 0.000000 0.000000 
#    y 0.000000 2.940980 0.000000 
#    z 0.000000 0.000000 3.659350 
# 
# 
# High freq. dielectric constant tensor:
#      x y z
#    x 1.579800 0.000000 0.000000 
#    y 0.000000 1.579800 0.000000 
#    z 0.000000 0.000000 1.661010 
# 
# From -- ./inp_files/1228.got.cif
#   From: 2010.03.12/outbox.cif.g09.slc.cpg/sg102_1_cif.got.tgz:1228.got - 2010.04.14 01:40:42.
