data_PCOD8306393
_publ_section_title
;
Structure prediction by ZEFSAII (Michael W. Deem and Ramdas Pophale) SiO2 
 PCOD8306393
Probable space group: I 41 2 2
;
_chemical_formula_sum "Si O2"
_cell_formula_units_Z 36
_cell_length_a 15.655943
_cell_length_b 15.655943
_cell_length_c 6.843755
_cell_angle_alpha 90.000000
_cell_angle_beta 90.000000
_cell_angle_gamma 90.000000
_cell_volume 1677.462873
_symmetry_space_group_name_H-M "I 41 2 2"
_symmetry_group_IT_number 98
_symmetry_cell_setting 'tetragonal'
loop_
_space_group_symop_operation_xyz
x,y,z
-y,1/2+x,1/4+z
-x,-y,z
y,1/2-x,1/4+z
x,1/2-y,1/4-z
-x,1/2+y,1/4-z
y,x,-z
-y,-x,-z
1/2+x,1/2+y,1/2+z
1/2-y,x,3/4+z
1/2-x,1/2-y,1/2+z
1/2+y,-x,3/4+z
1/2+x,-y,3/4-z
1/2-x,y,3/4-z
1/2+y,1/2+x,1/2-z
1/2-y,1/2-x,1/2-z
loop_
_atom_site_type_symbol
_atom_site_label
_atom_site_fract_x
_atom_site_fract_y
_atom_site_fract_z
Si Si1 0.164304 0.335697 0.250000
Si Si2 0.868514 0.250000 0.625000
Si Si3 0.000000 0.000000 0.500000
Si Si4 0.874199 0.482224 0.090322
O O1 0.250000 0.332625 0.375000
O O2 0.166186 0.427229 0.145620
O O3 0.815032 0.315032 0.750000
O O4 0.920984 0.204667 0.797760
O O5 0.082614 0.998874 0.366459
O O6 0.939799 0.439799 0.250000
#
# Coordination Sequence:
#
# PCOD8306393 Si02
#       4
#     8   8   4  16
#     4  12  31  49  76 110 154 196 260 320 366 452
#     4  12  28  46  80 114 152 190 250 314 380 444
#     4  12  22  50  76 114 138 216 242 302 390 450
#     4  12  27  51  78 111 152 201 253 310 383 457
#
# _framework density 21.460982999999999
#
# number of rings (size 3 to 8) (size 9 to 14) (size 15 to 20)
#    0.000    0.000    6.667    1.333   15.556    0.000 
#    0.000    0.000    0.000    0.000    0.000    0.000 
#    0.000    0.000    0.000    0.000    0.000    0.000 
#
# Total GULP energy -223053.908350 kJ/mol
# GULP energy per Si atom -12391.883797 kJ/mol
# Density = 2.141214 g / cm^3
# Si number density = 21.460983 Si / 1000 Ang^3
#
#
#
# Elastic Constant Matrix: (Units=GPa)
#
#
# Indices 1 2 3 4 5 6 
#
# 1 177.3813 105.5175 85.1247 0.0000 0.0000 0.0000
# 2 105.5175 177.3829 85.1244 0.0000 0.0000 0.0000
# 3 85.1247 85.1244 145.1472 0.0000 0.0000 0.0000
# 4 0.0000 0.0000 0.0000 -104.5987 0.0000 0.0000
# 5 0.0000 0.0000 0.0000 0.0000 -104.5707 0.0000
# 6 0.0000 0.0000 0.0000 0.0000 0.0000 56.3259
#
#
#
# Elastic Compliance Matrix: (Units=1/GPa)
#
#
# Indices 1 2 3 4 5 6 
#
# 1 0.009689 -0.004226 -0.003204 0.000000 0.000000 0.000000
# 2 -0.004226 0.009689 -0.003204 0.000000 0.000000 0.000000
# 3 -0.003204 -0.003204 0.010647 0.000000 0.000000 0.000000
# 4 0.000000 0.000000 0.000000 -0.009560 0.000000 0.000000
# 5 0.000000 0.000000 0.000000 0.000000 -0.009563 0.000000
# 6 0.000000 0.000000 0.000000 0.000000 0.000000 0.017754
#
#
# Mechanical properties :
#
#
# Convention : Reuss Voigt Hill
#
# Bulk Modulus (GPa) = 114.18215 116.82718 115.50466
# Shear Modulus (GPa) = 94.62037 -15.62572 39.49732
#
# Velocity S-wave (km/s) = 6.64719 -2.70126 4.29467
# Velocity P-wave (km/s) = 10.59404 6.69523 8.86171
#
# Compressibility (1/GPa) = 0.00875794
#
# Stress axis : x y z
#
# Youngs Moduli (GPa) = 103.20931 103.21090 93.91922
#
# Poissons Ratio (x) = 0.43618 0.30091
# Poissons Ratio (y) = 0.43617 0.30089
# Poissons Ratio (z) = 0.33067 0.33066
#
# Static dielectric constant tensor:
#      x y z
#    x 4.174100 0.000000 0.000000 
#    y 0.000000 4.174070 0.000000 
#    z 0.000000 0.000000 3.985270 
# 
# 
# High freq. dielectric constant tensor:
#      x y z
#    x 1.865510 0.000000 0.000000 
#    y 0.000000 1.865510 0.000000 
#    z 0.000000 0.000000 1.848220 
# 
# From -- ./inp_files/533.got.cif
#   From: 2010.03.12/outbox.cif.g09.slc.cpg/sg98_1_cif.got.tgz:533.got - 2010.04.08 21:04:41.
