data_PCOD8306666
_publ_section_title
;
Structure prediction by ZEFSAII (Michael W. Deem and Ramdas Pophale) SiO2 
 PCOD8306666
Probable space group: P 4 B M
;
_chemical_formula_sum "Si O2"
_cell_formula_units_Z 48
_cell_length_a 13.930433
_cell_length_b 13.930433
_cell_length_c 14.050211
_cell_angle_alpha 90.000000
_cell_angle_beta 90.000000
_cell_angle_gamma 90.000000
_cell_volume 2726.541284
_symmetry_space_group_name_H-M "P 4 B M"
_symmetry_group_IT_number 100
_symmetry_cell_setting 'tetragonal'
loop_
_space_group_symop_operation_xyz
x,y,z
-y,x,z
-x,-y,z
y,-x,z
1/2-x,1/2+y,z
1/2+x,1/2-y,z
1/2-y,1/2-x,z
1/2+y,1/2+x,z
loop_
_atom_site_type_symbol
_atom_site_label
_atom_site_fract_x
_atom_site_fract_y
_atom_site_fract_z
Si Si1 0.397993 0.260708 0.694420
Si Si2 0.757324 0.100033 0.599806
Si Si3 0.257325 0.399967 0.010065
Si Si4 0.940778 0.853522 0.198391
Si Si5 0.739292 0.397993 0.915451
Si Si6 0.940778 0.853522 0.411481
O O1 0.329776 0.170225 0.676909
O O2 0.352134 0.355754 0.648274
O O3 0.497737 0.235687 0.645188
O O4 0.414690 0.281322 0.804935
O O5 0.665391 0.165391 0.620131
O O6 0.773250 0.091285 0.486538
O O7 0.165393 0.334608 0.989741
O O8 0.235687 0.502262 0.964683
O O9 0.352135 0.355753 0.961597
O O10 0.273251 0.408716 0.123333
O O11 0.924253 0.813084 0.304936
O O12 0.051971 0.877428 0.182568
O O13 0.829777 0.329777 0.932962
O O14 0.051970 0.877428 0.427304
#
# Coordination Sequence:
#
# PCOD8306666 Si02
#       6
#     8   8   8   8   8   8
#     4  10  22  38  55  80 111 142 181 225 267 320
#     4  11  21  35  57  81 108 145 183 222 272 322
#     4  11  21  35  57  81 108 145 183 222 272 322
#     4   9  17  32  55  81 108 138 176 223 274 325
#     4  10  22  38  55  80 111 142 181 225 267 320
#     4   9  17  32  55  81 108 138 176 223 274 325
#
# _framework density 17.604721000000001
#
# number of rings (size 3 to 8) (size 9 to 14) (size 15 to 20)
#    0.000    2.000    3.333    2.000    0.000    4.000 
#    0.000    3.333    0.000    1.000    0.000    2.333 
#    0.000    0.000    0.000    0.000    0.000    0.000 
#
# Total GULP energy -595329.837605 kJ/mol
# GULP energy per Si atom -12402.704950 kJ/mol
# Density = 1.756465 g / cm^3
# Si number density = 17.604721 Si / 1000 Ang^3
#
#
#
# Elastic Constant Matrix: (Units=GPa)
#
#
# Indices 1 2 3 4 5 6 
#
# 1 75.3661 17.6676 42.0159 0.0000 0.0000 0.0001
# 2 17.6676 75.3661 42.0159 0.0000 0.0000 -0.0001
# 3 42.0159 42.0159 132.5001 0.0000 0.0000 0.0000
# 4 0.0000 0.0000 0.0000 29.3152 0.0000 0.0000
# 5 0.0000 0.0000 0.0000 0.0000 29.3152 0.0000
# 6 0.0001 -0.0001 0.0000 0.0000 0.0000 12.6243
#
#
#
# Elastic Compliance Matrix: (Units=1/GPa)
#
#
# Indices 1 2 3 4 5 6 
#
# 1 0.016197 -0.001134 -0.004777 0.000000 0.000000 0.000000
# 2 -0.001134 0.016197 -0.004777 0.000000 0.000000 0.000000
# 3 -0.004777 -0.004777 0.010576 0.000000 0.000000 0.000000
# 4 0.000000 0.000000 0.000000 0.034112 0.000000 0.000000
# 5 0.000000 0.000000 0.000000 0.000000 0.034112 0.000000
# 6 0.000000 0.000000 0.000000 0.000000 0.000000 0.079212
#
#
# Mechanical properties :
#
#
# Convention : Reuss Voigt Hill
#
# Bulk Modulus (GPa) = 46.30354 54.07011 50.18683
# Shear Modulus (GPa) = 22.83310 26.35316 24.59313
#
# Velocity S-wave (km/s) = 3.60528 3.87322 3.74165
# Velocity P-wave (km/s) = 6.60981 7.12619 6.87285
#
# Compressibility (1/GPa) = 0.02159662
#
# Stress axis : x y z
#
# Youngs Moduli (GPa) = 61.73861 61.73861 94.54962
#
# Poissons Ratio (x) = 0.07002 0.45162
# Poissons Ratio (y) = 0.07002 0.45162
# Poissons Ratio (z) = 0.29490 0.29490
#
# Static dielectric constant tensor:
#      x y z
#    x 3.074570 0.000000 0.000000 
#    y 0.000000 3.074570 0.000000 
#    z 0.000000 0.000000 3.466860 
# 
# 
# High freq. dielectric constant tensor:
#      x y z
#    x 1.667520 0.000000 0.000000 
#    y 0.000000 1.667520 0.000000 
#    z 0.000000 0.000000 1.699830 
# 
# From -- ./inp_files/1248.got.cif
#   From: 2010.03.12/outbox.cif.g09.slc.cpg/sg100_cif.got.tgz:1248.got - 2010.04.14 01:37:57.
