data_PCOD8306112
_publ_section_title
;
Structure prediction by ZEFSAII (Michael W. Deem and Ramdas Pophale) SiO2 
 PCOD8306112
Probable space group: I 4 2 2 
;
_chemical_formula_sum "Si O2"
_cell_formula_units_Z 96
_cell_length_a 24.835360
_cell_length_b 24.835360
_cell_length_c 9.553775
_cell_angle_alpha 90.000000
_cell_angle_beta 90.000000
_cell_angle_gamma 90.000000
_cell_volume 5892.721667
_symmetry_space_group_name_H-M "I 4 2 2 "
_symmetry_group_IT_number 97
_symmetry_cell_setting 'tetragonal'
loop_
_space_group_symop_operation_xyz
x,y,z
-y,x,z
-x,-y,z
y,-x,z
x,-y,-z
-x,y,-z
y,x,-z
-y,-x,-z
1/2+x,1/2+y,1/2+z
1/2-y,1/2+x,1/2+z
1/2-x,1/2-y,1/2+z
1/2+y,1/2-x,1/2+z
1/2+x,1/2-y,1/2-z
1/2-x,1/2+y,1/2-z
1/2+y,1/2+x,1/2-z
1/2-y,1/2-x,1/2-z
loop_
_atom_site_type_symbol
_atom_site_label
_atom_site_fract_x
_atom_site_fract_y
_atom_site_fract_z
Si Si1 0.711399 0.875925 0.724164
Si Si2 0.171963 0.441930 0.970508
Si Si3 0.925589 0.447536 0.412632
Si Si4 0.059044 0.302652 0.002042
Si Si5 0.627209 0.782019 0.259017
Si Si6 0.789670 0.212423 0.664206
O O1 0.675715 0.824286 0.750000
O O2 0.694366 0.898501 0.576265
O O3 0.772211 0.851258 0.709790
O O4 0.700338 0.921590 0.838254
O O5 0.107228 0.446377 0.983304
O O6 0.194638 0.424454 0.821300
O O7 0.197093 0.500000 0.000000
O O8 0.947833 0.500000 0.500000
O O9 0.946322 0.446322 0.250000
O O10 0.861285 0.446677 0.430324
O O11 0.104771 0.270913 0.915085
O O12 0.000000 0.275150 0.000000
O O13 0.672444 0.827557 0.250000
O O14 0.650304 0.724949 0.202416
O O15 0.779213 0.220788 0.500000
O O16 0.748034 0.248034 0.750000
#
# Coordination Sequence:
#
# PCOD8306112 Si02
#       6
#    16  16  16  16  16  16
#     4  11  21  34  51  79 101 129 173 220 260 321
#     4  12  22  34  54  71  96 133 177 222 270 307
#     4  11  23  40  55  69  96 134 176 227 283 318
#     4  11  21  35  56  75 102 134 175 215 268 313
#     4  11  19  37  53  70 102 132 168 219 265 317
#     4  10  22  33  53  77 102 129 166 213 270 317
#
# _framework density 16.291284000000001
#
# number of rings (size 3 to 8) (size 9 to 14) (size 15 to 20)
#    0.000    1.000    6.667    1.000    9.333    0.333 
#    0.000    1.667    0.000    0.000    0.000    0.000 
#    0.000    0.000    0.000    0.000    0.000   58.333 
#
# Total GULP energy -594713.049096 kJ/mol
# GULP energy per Si atom -12389.855190 kJ/mol
# Density = 1.625420 g / cm^3
# Si number density = 16.291284 Si / 1000 Ang^3
#
#
#
# Elastic Constant Matrix: (Units=GPa)
#
#
# Indices 1 2 3 4 5 6 
#
# 1 52.9213 43.1597 16.9937 0.0000 0.0000 0.0000
# 2 43.1597 52.9156 16.9905 0.0000 0.0000 0.0000
# 3 16.9937 16.9905 72.8599 0.0000 0.0000 0.0000
# 4 0.0000 0.0000 0.0000 36.4340 0.0000 0.0000
# 5 0.0000 0.0000 0.0000 0.0000 36.4288 0.0000
# 6 0.0000 0.0000 0.0000 0.0000 0.0000 12.6991
#
#
#
# Elastic Compliance Matrix: (Units=1/GPa)
#
#
# Indices 1 2 3 4 5 6 
#
# 1 0.056906 -0.045564 -0.002647 0.000000 0.000000 0.000000
# 2 -0.045564 0.056911 -0.002644 0.000000 0.000000 0.000000
# 3 -0.002647 -0.002644 0.014959 0.000000 0.000000 0.000000
# 4 0.000000 0.000000 0.000000 0.027447 0.000000 0.000000
# 5 0.000000 0.000000 0.000000 0.000000 0.027451 0.000000
# 6 0.000000 0.000000 0.000000 0.000000 0.000000 0.078746
#
#
# Mechanical properties :
#
#
# Convention : Reuss Voigt Hill
#
# Bulk Modulus (GPa) = 36.94871 36.99827 36.97349
# Shear Modulus (GPa) = 13.39937 23.88257 18.64097
#
# Velocity S-wave (km/s) = 2.87102 3.83296 3.38632
# Velocity P-wave (km/s) = 5.80686 6.50757 6.16717
#
# Compressibility (1/GPa) = 0.02706454
#
# Stress axis : x y z
#
# Youngs Moduli (GPa) = 17.57289 17.57137 66.84954
#
# Poissons Ratio (x) = 0.80063 0.17697
# Poissons Ratio (y) = 0.80070 0.17674
# Poissons Ratio (z) = 0.04652 0.04646
#
# Static dielectric constant tensor:
#      x y z
#    x 3.234660 0.000000 0.000000 
#    y 0.000000 3.234660 0.000000 
#    z 0.000000 0.000000 3.207420 
# 
# 
# High freq. dielectric constant tensor:
#      x y z
#    x 1.597140 0.000000 0.000000 
#    y 0.000000 1.597140 0.000000 
#    z 0.000000 0.000000 1.650030 
# 
# From -- ./inp_files/2442.got.cif
#   From: 2010.03.12/outbox.cif.g09.slc.cpg/sg97_2_cif.got.tgz:2442.got - 2010.04.08 20:59:42.
