data_PCOD8306055
_publ_section_title
;
Structure prediction by ZEFSAII (Michael W. Deem and Ramdas Pophale) SiO2 
 PCOD8306055
Probable space group: I 4 2 2 
;
_chemical_formula_sum "Si O2"
_cell_formula_units_Z 80
_cell_length_a 11.542837
_cell_length_b 11.542837
_cell_length_c 27.270798
_cell_angle_alpha 90.000000
_cell_angle_beta 90.000000
_cell_angle_gamma 90.000000
_cell_volume 3633.481659
_symmetry_space_group_name_H-M "I 4 2 2 "
_symmetry_group_IT_number 97
_symmetry_cell_setting 'tetragonal'
loop_
_space_group_symop_operation_xyz
x,y,z
-y,x,z
-x,-y,z
y,-x,z
x,-y,-z
-x,y,-z
y,x,-z
-y,-x,-z
1/2+x,1/2+y,1/2+z
1/2-y,1/2+x,1/2+z
1/2-x,1/2-y,1/2+z
1/2+y,1/2-x,1/2+z
1/2+x,1/2-y,1/2-z
1/2-x,1/2+y,1/2-z
1/2+y,1/2+x,1/2-z
1/2-y,1/2-x,1/2-z
loop_
_atom_site_type_symbol
_atom_site_label
_atom_site_fract_x
_atom_site_fract_y
_atom_site_fract_z
Si Si1 0.183324 0.971686 0.738324
Si Si2 0.183110 0.948389 0.075041
Si Si3 0.992797 0.316271 0.831493
Si Si4 0.175545 0.491033 0.852657
Si Si5 0.063893 0.381312 0.451661
O O1 0.284416 0.958824 0.777982
O O2 0.095925 0.869605 0.749441
O O3 0.215661 0.959849 0.681053
O O4 0.297853 0.908995 0.043844
O O5 0.079390 0.858976 0.061982
O O6 0.211845 0.947135 0.133571
O O7 0.098972 0.376031 0.860195
O O8 0.891396 0.408779 0.822900
O O9 0.208412 0.539694 0.906932
O O10 0.000000 0.500000 0.437353
O O11 0.000000 0.330580 0.500000
#
# Coordination Sequence:
#
# PCOD8306055 Si02
#       5
#    16  16  16  16  16
#     4  11  24  37  53  82 123 163 203 252 305 366
#     4  10  20  36  65 103 136 160 194 257 327 377
#     4  10  19  36  59  90 123 160 200 242 304 380
#     4  10  20  37  59  88 113 158 206 258 293 367
#     4  10  20  42  67  86 121 164 210 249 300 377
#
# _framework density 22.017448999999999
#
# number of rings (size 3 to 8) (size 9 to 14) (size 15 to 20)
#    0.000    1.800    4.000    2.400    0.000    9.600 
#    0.000    4.000    0.000    4.800    0.000    1.400 
#    0.000    1.600    0.000    0.000    0.000    0.000 
#
# Total GULP energy -495616.451503 kJ/mol
# GULP energy per Si atom -12390.411288 kJ/mol
# Density = 2.196734 g / cm^3
# Si number density = 22.017449 Si / 1000 Ang^3
#
#
#
# Elastic Constant Matrix: (Units=GPa)
#
#
# Indices 1 2 3 4 5 6 
#
# 1 82.2615 12.2319 22.1563 0.0000 0.0000 0.0000
# 2 12.2319 82.2615 22.1563 0.0000 0.0000 0.0000
# 3 22.1563 22.1563 125.7863 0.0000 0.0000 0.0000
# 4 0.0000 0.0000 0.0000 22.7793 0.0000 0.0000
# 5 0.0000 0.0000 0.0000 0.0000 22.7793 0.0000
# 6 0.0000 0.0000 0.0000 0.0000 0.0000 63.0499
#
#
#
# Elastic Compliance Matrix: (Units=1/GPa)
#
#
# Indices 1 2 3 4 5 6 
#
# 1 0.012908 -0.001372 -0.002032 0.000000 0.000000 0.000000
# 2 -0.001372 0.012908 -0.002032 0.000000 0.000000 0.000000
# 3 -0.002032 -0.002032 0.008666 0.000000 0.000000 0.000000
# 4 0.000000 0.000000 0.000000 0.043900 0.000000 0.000000
# 5 0.000000 0.000000 0.000000 0.000000 0.043900 0.000000
# 6 0.000000 0.000000 0.000000 0.000000 0.000000 0.015860
#
#
# Mechanical properties :
#
#
# Convention : Reuss Voigt Hill
#
# Bulk Modulus (GPa) = 42.35606 44.82206 43.58906
# Shear Modulus (GPa) = 31.87104 37.30600 34.58852
#
# Velocity S-wave (km/s) = 3.80878 4.12075 3.96783
# Velocity P-wave (km/s) = 6.21463 6.56068 6.39000
#
# Compressibility (1/GPa) = 0.02360937
#
# Stress axis : x y z
#
# Youngs Moduli (GPa) = 77.47344 77.47344 115.39604
#
# Poissons Ratio (x) = 0.10630 0.23448
# Poissons Ratio (y) = 0.10630 0.23448
# Poissons Ratio (z) = 0.15742 0.15742
#
# Static dielectric constant tensor:
#      x y z
#    x 3.827120 0.000000 0.000000 
#    y 0.000000 3.827120 0.000000 
#    z 0.000000 0.000000 3.920620 
# 
# 
# High freq. dielectric constant tensor:
#      x y z
#    x 1.846210 0.000000 0.000000 
#    y 0.000000 1.846210 0.000000 
#    z 0.000000 0.000000 1.870760 
# 
# From -- ./inp_files/7934.got.cif
#   From: 2010.03.12/outbox.cif.g09.slc.cpg/sg97_4_cif.got.tgz:7934.got - 2010.04.08 20:59:42.
