data_PCOD8306770
_publ_section_title
;
Structure prediction by ZEFSAII (Michael W. Deem and Ramdas Pophale) SiO2 
 PCOD8306770
Probable space group: P 42 C M
;
_chemical_formula_sum "Si O2"
_cell_formula_units_Z 48
_cell_length_a 16.786608
_cell_length_b 16.786608
_cell_length_c 8.847578
_cell_angle_alpha 90.000000
_cell_angle_beta 90.000000
_cell_angle_gamma 90.000000
_cell_volume 2493.160846
_symmetry_space_group_name_H-M "P 42 C M"
_symmetry_group_IT_number 101
_symmetry_cell_setting 'tetragonal'
loop_
_space_group_symop_operation_xyz
x,y,z
-y,x,1/2+z
-x,-y,z
y,-x,1/2+z
-x,y,1/2+z
x,-y,1/2+z
-y,-x,z
y,x,z
loop_
_atom_site_type_symbol
_atom_site_label
_atom_site_fract_x
_atom_site_fract_y
_atom_site_fract_z
Si Si1 0.826099 0.302463 0.748220
Si Si2 0.445560 0.774186 0.530050
Si Si3 0.276351 0.596691 0.221793
Si Si4 0.433127 0.940998 0.397984
Si Si5 0.005100 0.329099 0.149895
Si Si6 0.714142 0.838508 0.588154
O O1 0.776859 0.223142 0.702065
O O2 0.794363 0.376446 0.650009
O O3 0.921404 0.287022 0.735680
O O4 0.814821 0.322487 0.924816
O O5 0.518328 0.735732 0.620971
O O6 0.420850 0.711066 0.400601
O O7 0.467438 0.852397 0.428350
O O8 0.354087 0.645914 0.164404
O O9 0.197437 0.651979 0.209263
O O10 0.353334 0.955216 0.492487
O O11 0.500000 0.000000 0.456606
O O12 0.407910 0.966061 0.228337
O O13 0.931886 0.270020 0.117401
O O14 0.800898 0.800898 0.609229
#
# Coordination Sequence:
#
# PCOD8306770 Si02
#       6
#     8   8   8   8   8   8
#     4  10  22  39  60  83 117 160 198 242 294 355
#     4  11  23  37  60  85 119 154 197 246 297 352
#     4  11  23  39  61  87 117 152 197 246 294 353
#     4  11  22  31  53  83 121 150 185 230 297 361
#     4  11  20  35  53  85 117 152 191 235 291 354
#     4  10  20  37  57  83 120 156 192 233 291 352
#
# _framework density 19.252669000000001
#
# number of rings (size 3 to 8) (size 9 to 14) (size 15 to 20)
#    0.000    1.333    3.333    3.000    4.667    0.000 
#    0.000    0.833    0.000    4.500    0.000    2.333 
#    0.000    0.000    0.000    0.000    0.000    0.000 
#
# Total GULP energy -594816.942952 kJ/mol
# GULP energy per Si atom -12392.019645 kJ/mol
# Density = 1.920885 g / cm^3
# Si number density = 19.252669 Si / 1000 Ang^3
#
#
#
# Elastic Constant Matrix: (Units=GPa)
#
#
# Indices 1 2 3 4 5 6 
#
# 1 103.2441 59.5734 31.0454 0.0000 0.0000 0.0004
# 2 59.5734 103.2441 31.0454 0.0000 0.0000 -0.0004
# 3 31.0454 31.0454 75.9485 0.0000 0.0000 0.0000
# 4 0.0000 0.0000 0.0000 25.6994 0.0000 0.0000
# 5 0.0000 0.0000 0.0000 0.0000 25.6994 0.0000
# 6 0.0004 -0.0004 0.0000 0.0000 0.0000 25.4189
#
#
#
# Elastic Compliance Matrix: (Units=1/GPa)
#
#
# Indices 1 2 3 4 5 6 
#
# 1 0.015087 -0.007811 -0.002974 0.000000 0.000000 0.000000
# 2 -0.007811 0.015087 -0.002974 0.000000 0.000000 0.000000
# 3 -0.002974 -0.002974 0.015598 0.000000 0.000000 0.000000
# 4 0.000000 0.000000 0.000000 0.038911 0.000000 0.000000
# 5 0.000000 0.000000 0.000000 0.000000 0.038911 0.000000
# 6 0.000000 0.000000 0.000000 0.000000 0.000000 0.039341
#
#
# Mechanical properties :
#
#
# Convention : Reuss Voigt Hill
#
# Bulk Modulus (GPa) = 54.78377 58.41834 56.60105
# Shear Modulus (GPa) = 25.44003 26.08172 25.76088
#
# Velocity S-wave (km/s) = 3.63902 3.68463 3.66189
# Velocity P-wave (km/s) = 6.79511 6.96497 6.88057
#
# Compressibility (1/GPa) = 0.01825358
#
# Stress axis : x y z
#
# Youngs Moduli (GPa) = 66.28066 66.28066 64.10927
#
# Poissons Ratio (x) = 0.51774 0.19068
# Poissons Ratio (y) = 0.51774 0.19068
# Poissons Ratio (z) = 0.19713 0.19713
#
# Static dielectric constant tensor:
#      x y z
#    x 3.430320 0.000000 0.000000 
#    y 0.000000 3.430320 0.000000 
#    z 0.000000 0.000000 3.701690 
# 
# 
# High freq. dielectric constant tensor:
#      x y z
#    x 1.726350 0.000000 0.000000 
#    y 0.000000 1.726350 0.000000 
#    z 0.000000 0.000000 1.769840 
# 
# From -- ./inp_files/688.got.cif
#   From: 2010.03.12/outbox.cif.g09.slc.cpg/sg101_1_cif.got.tgz:688.got - 2010.04.14 01:38:52.
