data_PCOD8306646
_publ_section_title
;
Structure prediction by ZEFSAII (Michael W. Deem and Ramdas Pophale) SiO2 
 PCOD8306646
Probable space group: P 4 B M
;
_chemical_formula_sum "Si O2"
_cell_formula_units_Z 64
_cell_length_a 21.235537
_cell_length_b 21.235537
_cell_length_c 8.996860
_cell_angle_alpha 90.000000
_cell_angle_beta 90.000000
_cell_angle_gamma 90.000000
_cell_volume 4057.116308
_symmetry_space_group_name_H-M "P 4 B M"
_symmetry_group_IT_number 100
_symmetry_cell_setting 'tetragonal'
loop_
_space_group_symop_operation_xyz
x,y,z
-y,x,z
-x,-y,z
y,-x,z
1/2-x,1/2+y,z
1/2+x,1/2-y,z
1/2-y,1/2-x,z
1/2+y,1/2+x,z
loop_
_atom_site_type_symbol
_atom_site_label
_atom_site_fract_x
_atom_site_fract_y
_atom_site_fract_z
Si Si1 0.240606 0.153378 0.852400
Si Si2 0.435065 0.830528 0.192753
Si Si3 0.564936 0.830527 0.692753
Si Si4 0.759393 0.846623 0.187941
Si Si5 0.653376 0.259392 0.687941
Si Si6 0.759393 0.153377 0.352400
Si Si7 0.064935 0.669473 0.347590
Si Si8 0.935066 0.669472 0.847590
O O1 0.292008 0.207993 0.852389
O O2 0.267291 0.092969 0.765752
O O3 0.177801 0.177804 0.770173
O O4 0.223249 0.133691 0.020170
O O5 0.388840 0.888840 0.218940
O O6 0.407033 0.767293 0.265754
O O7 0.500001 0.848849 0.270171
O O8 0.446195 0.817063 0.020171
O O9 0.611162 0.888838 0.718939
O O10 0.553805 0.817063 0.520172
O O11 0.500002 0.848849 0.770175
O O12 0.707992 0.792009 0.187954
O O13 0.822198 0.822198 0.270170
O O14 0.732708 0.907033 0.274588
O O15 0.707991 0.207991 0.687952
O O16 0.633691 0.276751 0.520170
O O17 0.592966 0.232706 0.774585
O O18 0.707992 0.207992 0.352387
O O19 0.111161 0.611161 0.321406
O O20 0.888842 0.611159 0.821404
#
# Coordination Sequence:
#
# PCOD8306646 Si02
#       8
#     8   8   8   8   8   8   8   8
#     4   9  16  27  44  64  85 109 139 177 221 265
#     4  10  20  32  45  62  86 117 152 187 222 261
#     4  10  20  32  45  62  86 117 152 187 222 261
#     4   9  16  27  44  64  85 109 139 177 221 265
#     4   9  16  27  44  64  85 109 139 177 221 265
#     4   9  16  27  44  64  85 109 139 177 221 265
#     4  10  20  32  45  62  86 117 152 187 222 261
#     4  10  20  32  45  62  86 117 152 187 222 261
#
# _framework density 15.774751999999999
#
# number of rings (size 3 to 8) (size 9 to 14) (size 15 to 20)
#    0.000    2.500    0.000    3.000    0.000    9.500 
#    0.000    2.500    0.000    0.000    0.000    0.000 
#    0.000    1.000    0.000   10.000    0.000    7.000 
#
# Total GULP energy -793670.086089 kJ/mol
# GULP energy per Si atom -12401.095095 kJ/mol
# Density = 1.573885 g / cm^3
# Si number density = 15.774752 Si / 1000 Ang^3
#
#
#
# Elastic Constant Matrix: (Units=GPa)
#
#
# Indices 1 2 3 4 5 6 
#
# 1 49.8150 46.6535 55.6068 0.0000 0.0000 0.0000
# 2 46.6535 49.8150 55.6068 0.0000 0.0000 0.0000
# 3 55.6068 55.6068 161.7567 0.0000 0.0000 0.0000
# 4 0.0000 0.0000 0.0000 28.4554 0.0000 0.0000
# 5 0.0000 0.0000 0.0000 0.0000 28.4554 0.0000
# 6 0.0000 0.0000 0.0000 0.0000 0.0000 9.7217
#
#
#
# Elastic Compliance Matrix: (Units=1/GPa)
#
#
# Indices 1 2 3 4 5 6 
#
# 1 0.166739 -0.149568 -0.005903 0.000000 0.000000 0.000000
# 2 -0.149568 0.166739 -0.005903 0.000000 0.000000 0.000000
# 3 -0.005903 -0.005903 0.010241 0.000000 0.000000 0.000000
# 4 0.000000 0.000000 0.000000 0.035143 0.000000 0.000000
# 5 0.000000 0.000000 0.000000 0.000000 0.035143 0.000000
# 6 0.000000 0.000000 0.000000 0.000000 0.000000 0.102862
#
#
# Mechanical properties :
#
#
# Convention : Reuss Voigt Hill
#
# Bulk Modulus (GPa) = 47.68401 64.12456 55.90429
# Shear Modulus (GPa) = 5.90594 20.22782 13.06688
#
# Velocity S-wave (km/s) = 1.93702 3.58479 2.88121
# Velocity P-wave (km/s) = 5.94108 7.60741 6.82529
#
# Compressibility (1/GPa) = 0.02097139
#
# Stress axis : x y z
#
# Youngs Moduli (GPa) = 5.99738 5.99738 97.65053
#
# Poissons Ratio (x) = 0.89702 0.57642
# Poissons Ratio (y) = 0.89702 0.57642
# Poissons Ratio (z) = 0.03540 0.03540
#
# Static dielectric constant tensor:
#      x y z
#    x 2.810210 0.000000 0.000000 
#    y 0.000000 2.810210 0.000000 
#    z 0.000000 0.000000 3.277170 
# 
# 
# High freq. dielectric constant tensor:
#      x y z
#    x 1.574930 0.000000 0.000000 
#    y 0.000000 1.574930 0.000000 
#    z 0.000000 0.000000 1.631540 
# 
# From -- ./inp_files/1075.got.cif
#   From: 2010.03.12/outbox.cif.g09.slc.cpg/sg100_cif.got.tgz:1075.got - 2010.04.14 01:37:57.
