data_PCOD8306980
_publ_section_title
;
Structure prediction by ZEFSAII (Michael W. Deem and Ramdas Pophale) SiO2 
 PCOD8306980
Probable space group: P 4 C C
;
_chemical_formula_sum "Si O2"
_cell_formula_units_Z 52
_cell_length_a 18.047004
_cell_length_b 18.047004
_cell_length_c 9.853266
_cell_angle_alpha 90.000000
_cell_angle_beta 90.000000
_cell_angle_gamma 90.000000
_cell_volume 3209.153099
_symmetry_space_group_name_H-M "P 4 C C"
_symmetry_group_IT_number 103
_symmetry_cell_setting 'tetragonal'
loop_
_space_group_symop_operation_xyz
x,y,z
-y,x,z
-x,-y,z
y,-x,z
-x,y,1/2+z
x,-y,1/2+z
-y,-x,1/2+z
y,x,1/2+z
loop_
_atom_site_type_symbol
_atom_site_label
_atom_site_fract_x
_atom_site_fract_y
_atom_site_fract_z
Si Si1 0.298690 0.585190 0.399830
Si Si2 0.226239 0.345649 0.144962
Si Si3 0.500000 0.000000 0.124515
Si Si4 0.937925 0.356846 0.219277
Si Si5 0.708209 0.585808 0.397314
Si Si6 0.655541 0.225005 0.654805
Si Si7 0.934509 0.642019 0.030278
O O1 0.270498 0.596339 0.552032
O O2 0.375388 0.628633 0.376278
O O3 0.309294 0.499331 0.369674
O O4 0.236799 0.619542 0.301874
O O5 0.230630 0.380409 0.294871
O O6 0.265124 0.265072 0.139376
O O7 0.142974 0.334949 0.095990
O O8 0.552395 0.053512 0.032686
O O9 0.446729 0.052144 0.216679
O O10 0.862711 0.332693 0.143436
O O11 0.940795 0.329199 0.375352
O O12 0.003096 0.320049 0.127354
O O13 0.742671 0.598146 0.545233
#
# Coordination Sequence:
#
# PCOD8306980 Si02
#       7
#     8   8   4   8   8   8   8
#     4  10  20  35  47  71  91 129 172 222 266 304
#     4  10  21  35  51  71  99 135 174 211 256 309
#     4   8  22  28  50  80 102 132 166 196 274 304
#     4  10  21  33  49  74 104 129 164 204 252 309
#     4  10  22  31  51  69  91 129 176 216 270 306
#     4  10  21  35  51  71  99 135 174 211 256 309
#     4  10  21  33  49  74 104 129 164 204 252 309
#
# _framework density 16.203652000000002
#
# number of rings (size 3 to 8) (size 9 to 14) (size 15 to 20)
#    0.923    1.231    1.538    1.385    6.462    0.308 
#    0.000    0.000    0.000    5.538    0.000    0.000 
#    0.000    0.615    0.000    2.769    0.000    0.308 
#
# Total GULP energy -644538.116136 kJ/mol
# GULP energy per Si atom -12394.963772 kJ/mol
# Density = 1.616677 g / cm^3
# Si number density = 16.203652 Si / 1000 Ang^3
#
#
#
# Elastic Constant Matrix: (Units=GPa)
#
#
# Indices 1 2 3 4 5 6 
#
# 1 103.9623 33.9232 28.0728 0.0000 0.0000 0.0000
# 2 33.9232 103.9623 28.0728 0.0000 0.0000 0.0000
# 3 28.0728 28.0728 74.4559 0.0000 0.0000 0.0000
# 4 0.0000 0.0000 0.0000 18.8972 0.0000 0.0000
# 5 0.0000 0.0000 0.0000 0.0000 18.8972 0.0000
# 6 0.0000 0.0000 0.0000 0.0000 0.0000 16.3679
#
#
#
# Elastic Compliance Matrix: (Units=1/GPa)
#
#
# Indices 1 2 3 4 5 6 
#
# 1 0.011423 -0.002855 -0.003230 0.000000 0.000000 0.000000
# 2 -0.002855 0.011423 -0.003230 0.000000 0.000000 0.000000
# 3 -0.003230 -0.003230 0.015867 0.000000 0.000000 0.000000
# 4 0.000000 0.000000 0.000000 0.052918 0.000000 0.000000
# 5 0.000000 0.000000 0.000000 0.000000 0.052918 0.000000
# 6 0.000000 0.000000 0.000000 0.000000 0.000000 0.061095
#
#
# Mechanical properties :
#
#
# Convention : Reuss Voigt Hill
#
# Bulk Modulus (GPa) = 49.79899 51.39091 50.59495
# Shear Modulus (GPa) = 21.64799 23.65323 22.65061
#
# Velocity S-wave (km/s) = 3.65909 3.82481 3.74287
# Velocity P-wave (km/s) = 6.97509 7.16171 7.06901
#
# Compressibility (1/GPa) = 0.02008073
#
# Stress axis : x y z
#
# Youngs Moduli (GPa) = 87.54453 87.54453 63.02499
#
# Poissons Ratio (x) = 0.24994 0.20359
# Poissons Ratio (y) = 0.24994 0.20359
# Poissons Ratio (z) = 0.28280 0.28280
#
# Static dielectric constant tensor:
#      x y z
#    x 2.824140 0.000000 0.000000 
#    y 0.000000 2.824140 0.000000 
#    z 0.000000 0.000000 3.141180 
# 
# 
# High freq. dielectric constant tensor:
#      x y z
#    x 1.596810 0.000000 0.000000 
#    y 0.000000 1.596810 0.000000 
#    z 0.000000 0.000000 1.640860 
# 
# From -- ./inp_files/310.got.cif
#   From: 2010.03.12/outbox.cif.g09.slc.cpg/sg103_cif.got.tgz:310.got - 2010.04.14 01:42:52.
