data_PCOD8306009
_publ_section_title
;
Structure prediction by ZEFSAII (Michael W. Deem and Ramdas Pophale) SiO2 
 PCOD8306009
Probable space group: P 43 21 2
;
_chemical_formula_sum "Si O2"
_cell_formula_units_Z 48
_cell_length_a 11.523962
_cell_length_b 11.523962
_cell_length_c 18.736044
_cell_angle_alpha 90.000000
_cell_angle_beta 90.000000
_cell_angle_gamma 90.000000
_cell_volume 2488.178498
_symmetry_space_group_name_H-M "P 43 21 2"
_symmetry_group_IT_number 96
_symmetry_cell_setting 'tetragonal'
loop_
_space_group_symop_operation_xyz
x,y,z
1/2-y,1/2+x,3/4+z
-x,-y,1/2+z
1/2+y,1/2-x,1/4+z
1/2+x,1/2-y,1/4-z
1/2-x,1/2+y,3/4-z
y,x,-z
-y,-x,1/2-z
loop_
_atom_site_type_symbol
_atom_site_label
_atom_site_fract_x
_atom_site_fract_y
_atom_site_fract_z
Si Si1 0.428008 0.139549 0.842270
Si Si2 0.670382 0.425745 0.442925
Si Si3 0.579354 0.001220 0.939812
Si Si4 0.192918 0.949188 0.354837
Si Si5 0.876029 0.002811 0.150117
Si Si6 0.258240 0.469038 0.561113
O O1 0.294188 0.105593 0.838975
O O2 0.496650 0.087782 0.774973
O O3 0.453520 0.277231 0.845855
O O4 0.475744 0.083297 0.914566
O O5 0.611581 0.537506 0.406813
O O6 0.679929 0.457978 0.526073
O O7 0.595824 0.311103 0.424695
O O8 0.546183 0.873081 0.913198
O O9 0.698753 0.050004 0.907365
O O10 0.124092 0.827847 0.359228
O O11 0.232474 0.953685 0.273332
O O12 0.108249 0.053701 0.379522
#
# Coordination Sequence:
#
# PCOD8306009 Si02
#       6
#     8   8   8   8   8   8
#     4  12  24  38  58  92 122 160 208 256 303 359
#     4   9  20  41  62  83 120 163 202 244 312 370
#     4  12  24  37  60  93 124 156 210 257 309 357
#     4   9  20  38  62  88 118 160 198 241 312 370
#     4   9  20  40  63  84 116 162 202 243 309 376
#     4   9  20  39  62  87 123 161 193 249 308 367
#
# _framework density 19.291222000000001
#
# number of rings (size 3 to 8) (size 9 to 14) (size 15 to 20)
#    0.000    2.000    3.333    2.000    4.667    0.667 
#    0.000    0.000    0.000    2.000    0.000    0.000 
#    0.000    0.000    0.000    0.000    0.000    0.000 
#
# Total GULP energy -594970.723462 kJ/mol
# GULP energy per Si atom -12395.223405 kJ/mol
# Density = 1.924731 g / cm^3
# Si number density = 19.291222 Si / 1000 Ang^3
#
#
#
# Elastic Constant Matrix: (Units=GPa)
#
#
# Indices 1 2 3 4 5 6 
#
# 1 111.3128 42.7310 19.2439 0.0000 0.0000 0.0000
# 2 42.7310 111.3128 19.2439 0.0000 0.0000 0.0000
# 3 19.2439 19.2439 44.3532 0.0000 0.0000 0.0000
# 4 0.0000 0.0000 0.0000 28.8592 0.0000 0.0000
# 5 0.0000 0.0000 0.0000 0.0000 28.8592 0.0000
# 6 0.0000 0.0000 0.0000 0.0000 0.0000 22.5996
#
#
#
# Elastic Compliance Matrix: (Units=1/GPa)
#
#
# Indices 1 2 3 4 5 6 
#
# 1 0.010931 -0.003650 -0.003159 0.000000 0.000000 0.000000
# 2 -0.003650 0.010931 -0.003159 0.000000 0.000000 0.000000
# 3 -0.003159 -0.003159 0.025288 0.000000 0.000000 0.000000
# 4 0.000000 0.000000 0.000000 0.034651 0.000000 0.000000
# 5 0.000000 0.000000 0.000000 0.000000 0.034651 0.000000
# 6 0.000000 0.000000 0.000000 0.000000 0.000000 0.044249
#
#
# Mechanical properties :
#
#
# Convention : Reuss Voigt Hill
#
# Bulk Modulus (GPa) = 36.74674 47.71291 42.22983
# Shear Modulus (GPa) = 26.35632 28.44758 27.40195
#
# Velocity S-wave (km/s) = 3.70027 3.84427 3.77296
# Velocity P-wave (km/s) = 6.11112 6.67017 6.39676
#
# Compressibility (1/GPa) = 0.02721330
#
# Stress axis : x y z
#
# Youngs Moduli (GPa) = 91.48264 91.48264 39.54510
#
# Poissons Ratio (x) = 0.33392 0.12492
# Poissons Ratio (y) = 0.33392 0.12492
# Poissons Ratio (z) = 0.28900 0.28900
#
# Static dielectric constant tensor:
#      x y z
#    x 3.580800 0.000000 0.000000 
#    y 0.000000 3.580800 0.000000 
#    z 0.000000 0.000000 3.226100 
# 
# 
# High freq. dielectric constant tensor:
#      x y z
#    x 1.758970 0.000000 0.000000 
#    y 0.000000 1.758970 0.000000 
#    z 0.000000 0.000000 1.722380 
# 
# From -- ./inp_files/3097.got.cif
#   From: 2010.03.12/outbox.cif.g09.slc.cpg/sg96_2_cif.got.tgz:3097.got - 2010.04.08 20:56:49.
