data_PCOD8306310
_publ_section_title
;
Structure prediction by ZEFSAII (Michael W. Deem and Ramdas Pophale) SiO2 
 PCOD8306310
Probable space group: I 41 2 2
;
_chemical_formula_sum "Si O2"
_cell_formula_units_Z 72
_cell_length_a 21.876450
_cell_length_b 21.876450
_cell_length_c 8.369384
_cell_angle_alpha 90.000000
_cell_angle_beta 90.000000
_cell_angle_gamma 90.000000
_cell_volume 4005.411966
_symmetry_space_group_name_H-M "I 41 2 2"
_symmetry_group_IT_number 98
_symmetry_cell_setting 'tetragonal'
loop_
_space_group_symop_operation_xyz
x,y,z
-y,1/2+x,1/4+z
-x,-y,z
y,1/2-x,1/4+z
x,1/2-y,1/4-z
-x,1/2+y,1/4-z
y,x,-z
-y,-x,-z
1/2+x,1/2+y,1/2+z
1/2-y,x,3/4+z
1/2-x,1/2-y,1/2+z
1/2+y,-x,3/4+z
1/2+x,-y,3/4-z
1/2-x,y,3/4-z
1/2+y,1/2+x,1/2-z
1/2-y,1/2-x,1/2-z
loop_
_atom_site_type_symbol
_atom_site_label
_atom_site_fract_x
_atom_site_fract_y
_atom_site_fract_z
Si Si1 0.591550 0.779208 0.952463
Si Si2 0.900232 0.833698 0.262040
Si Si3 0.428276 0.928276 0.750000
Si Si4 0.506774 0.306990 0.524154
Si Si5 0.000000 0.000000 0.746192
Si Si6 0.570822 0.929179 0.250000
O O1 0.621266 0.733897 0.818323
O O2 0.520770 0.787937 0.898385
O O3 0.594301 0.750000 0.125000
O O4 0.627508 0.842797 0.952344
O O5 0.948727 0.834070 0.119494
O O6 0.933851 0.862415 0.419285
O O7 0.440036 0.855863 0.763480
O O8 0.469697 0.946965 0.599693
O O9 0.534784 0.250000 0.625000
O O10 0.977226 0.942346 0.641404
#
# Coordination Sequence:
#
# PCOD8306310 Si02
#       6
#    16  16   8  16   8   8
#     4  11  21  35  53  73 106 150 191 237 269 320
#     4  11  21  37  51  72 109 149 194 231 278 321
#     4  11  20  36  56  82 110 138 178 222 278 348
#     4  10  23  38  57  80 109 143 182 230 285 341
#     4  10  22  28  56  86 106 140 176 226 282 342
#     4  11  18  34  50  78 110 136 182 230 280 329
#
# _framework density 17.975679
#
# number of rings (size 3 to 8) (size 9 to 14) (size 15 to 20)
#    0.000    1.333    4.444    2.000    3.111    0.000 
#    0.000   12.222    0.000    0.000    0.000    1.556 
#    0.000    0.000    0.000    0.000    0.000    0.000 
#
# Total GULP energy -446070.593840 kJ/mol
# GULP energy per Si atom -12390.849829 kJ/mol
# Density = 1.793477 g / cm^3
# Si number density = 17.975679 Si / 1000 Ang^3
#
#
#
# Elastic Constant Matrix: (Units=GPa)
#
#
# Indices 1 2 3 4 5 6 
#
# 1 69.2137 42.4499 9.9508 0.0000 0.0000 0.0000
# 2 42.4499 69.2132 9.9507 0.0000 0.0000 0.0000
# 3 9.9508 9.9507 52.1456 0.0000 0.0000 0.0000
# 4 0.0000 0.0000 0.0000 22.5710 0.0000 0.0000
# 5 0.0000 0.0000 0.0000 0.0000 22.5712 0.0000
# 6 0.0000 0.0000 0.0000 0.0000 0.0000 33.7457
#
#
#
# Elastic Compliance Matrix: (Units=1/GPa)
#
#
# Indices 1 2 3 4 5 6 
#
# 1 0.023317 -0.014047 -0.001769 0.000000 0.000000 0.000000
# 2 -0.014047 0.023318 -0.001769 0.000000 0.000000 0.000000
# 3 -0.001769 -0.001769 0.019852 0.000000 0.000000 0.000000
# 4 0.000000 0.000000 0.000000 0.044305 0.000000 0.000000
# 5 0.000000 0.000000 0.000000 0.000000 0.044304 0.000000
# 6 0.000000 0.000000 0.000000 0.000000 0.000000 0.029633
#
#
# Mechanical properties :
#
#
# Convention : Reuss Voigt Hill
#
# Bulk Modulus (GPa) = 31.93112 35.03059 33.48086
# Shear Modulus (GPa) = 21.70716 24.32564 23.01640
#
# Velocity S-wave (km/s) = 3.47880 3.68265 3.58218
# Velocity P-wave (km/s) = 5.82565 6.13291 5.98125
#
# Compressibility (1/GPa) = 0.03131741
#
# Stress axis : x y z
#
# Youngs Moduli (GPa) = 42.88637 42.88606 50.37207
#
# Poissons Ratio (x) = 0.60241 0.08911
# Poissons Ratio (y) = 0.60241 0.08911
# Poissons Ratio (z) = 0.07587 0.07587
#
# Static dielectric constant tensor:
#      x y z
#    x 3.291460 0.000000 0.000000 
#    y 0.000000 3.291480 0.000000 
#    z 0.000000 0.000000 3.647280 
# 
# 
# High freq. dielectric constant tensor:
#      x y z
#    x 1.670480 0.000000 0.000000 
#    y 0.000000 1.670480 0.000000 
#    z 0.000000 0.000000 1.719940 
# 
# From -- ./inp_files/3611.got.cif
#   From: 2010.03.12/outbox.cif.g09.slc.cpg/sg98_2_cif.got.tgz:3611.got - 2010.04.08 21:04:41.
