data_PCOD8306702
_publ_section_title
;
Structure prediction by ZEFSAII (Michael W. Deem and Ramdas Pophale) SiO2 
 PCOD8306702
Probable space group: P 42 C M
;
_chemical_formula_sum "Si O2"
_cell_formula_units_Z 64
_cell_length_a 12.072552
_cell_length_b 12.072552
_cell_length_c 23.669719
_cell_angle_alpha 90.000000
_cell_angle_beta 90.000000
_cell_angle_gamma 90.000000
_cell_volume 3449.778979
_symmetry_space_group_name_H-M "P 42 C M"
_symmetry_group_IT_number 101
_symmetry_cell_setting 'tetragonal'
loop_
_space_group_symop_operation_xyz
x,y,z
-y,x,1/2+z
-x,-y,z
y,-x,1/2+z
-x,y,1/2+z
x,-y,1/2+z
-y,-x,z
y,x,z
loop_
_atom_site_type_symbol
_atom_site_label
_atom_site_fract_x
_atom_site_fract_y
_atom_site_fract_z
Si Si1 0.863367 0.317351 0.533160
Si Si2 0.928895 0.247725 0.099402
Si Si3 0.412919 0.765164 0.714322
Si Si4 0.763384 0.945861 0.339289
Si Si5 0.225669 0.052123 0.211093
Si Si6 0.526539 0.123168 0.823447
Si Si7 0.144614 0.322182 0.904055
Si Si8 0.516369 0.126685 0.114393
O O1 0.750668 0.249333 0.539674
O O2 0.890968 0.343866 0.468332
O O3 0.847366 0.433927 0.563458
O O4 0.961016 0.245748 0.561603
O O5 0.855672 0.144329 0.079997
O O6 0.859845 0.360319 0.089772
O O7 0.954356 0.242171 0.166517
O O8 0.357426 0.642575 0.714966
O O9 0.319035 0.855684 0.703199
O O10 0.478185 0.787648 0.772807
O O11 0.499584 0.781820 0.663464
O O12 0.867870 0.867870 0.353817
O O13 0.769621 0.992113 0.275163
O O14 0.650784 0.875157 0.348901
O O15 0.761326 0.052840 0.378876
O O16 0.106267 0.106267 0.199269
O O17 0.438792 0.154152 0.871737
O O18 0.500000 0.000000 0.799659
O O19 0.263552 0.263552 0.900278
O O20 0.500000 0.000000 0.136847
#
# Coordination Sequence:
#
# PCOD8306702 Si02
#       8
#     8   8   8   8   8   8   8   8
#     4  10  21  39  59  78 103 146 193 227 266 325
#     4  11  23  34  51  83 117 143 174 228 287 329
#     4  10  17  30  55  82 107 141 183 227 267 317
#     4   9  19  34  54  79 108 146 187 224 269 328
#     4   9  17  31  51  78 111 145 180 217 268 330
#     4   9  18  31  53  79 107 140 184 227 274 316
#     4  10  22  37  55  80 111 145 182 227 278 326
#     4  10  19  32  55  80 108 141 184 227 271 321
#
# _framework density 18.551912000000002
#
# number of rings (size 3 to 8) (size 9 to 14) (size 15 to 20)
#    0.000    2.250    2.500    2.250    3.500    6.750 
#    0.000    2.500    0.000    4.500    0.000    3.500 
#    0.000    0.000    0.000    0.000    0.000    0.000 
#
# Total GULP energy -793485.871888 kJ/mol
# GULP energy per Si atom -12398.216748 kJ/mol
# Density = 1.850969 g / cm^3
# Si number density = 18.551912 Si / 1000 Ang^3
#
#
#
# Elastic Constant Matrix: (Units=GPa)
#
#
# Indices 1 2 3 4 5 6 
#
# 1 64.0264 35.6026 45.4902 0.0000 0.0000 -0.0001
# 2 35.6026 64.0264 45.4902 0.0000 0.0000 0.0001
# 3 45.4902 45.4902 124.0716 0.0000 0.0000 0.0000
# 4 0.0000 0.0000 0.0000 17.5344 0.0000 0.0000
# 5 0.0000 0.0000 0.0000 0.0000 17.5344 0.0000
# 6 -0.0001 0.0001 0.0000 0.0000 0.0000 26.7609
#
#
#
# Elastic Compliance Matrix: (Units=1/GPa)
#
#
# Indices 1 2 3 4 5 6 
#
# 1 0.025136 -0.010046 -0.005532 0.000000 0.000000 0.000000
# 2 -0.010046 0.025136 -0.005532 0.000000 0.000000 0.000000
# 3 -0.005532 -0.005532 0.012117 0.000000 0.000000 0.000000
# 4 0.000000 0.000000 0.000000 0.057031 0.000000 0.000000
# 5 0.000000 0.000000 0.000000 0.000000 0.057031 0.000000
# 6 0.000000 0.000000 0.000000 0.000000 0.000000 0.037368
#
#
# Mechanical properties :
#
#
# Convention : Reuss Voigt Hill
#
# Bulk Modulus (GPa) = 49.58893 56.14335 52.86614
# Shear Modulus (GPa) = 19.02868 20.73538 19.88203
#
# Velocity S-wave (km/s) = 3.20613 3.34682 3.27723
# Velocity P-wave (km/s) = 6.36345 6.72781 6.54817
#
# Compressibility (1/GPa) = 0.02016579
#
# Stress axis : x y z
#
# Youngs Moduli (GPa) = 39.78426 39.78426 82.53033
#
# Poissons Ratio (x) = 0.39968 0.45660
# Poissons Ratio (y) = 0.39968 0.45660
# Poissons Ratio (z) = 0.22010 0.22010
#
# Static dielectric constant tensor:
#      x y z
#    x 3.340910 0.000000 0.000000 
#    y 0.000000 3.340910 0.000000 
#    z 0.000000 0.000000 3.429240 
# 
# 
# High freq. dielectric constant tensor:
#      x y z
#    x 1.702640 0.000000 0.000000 
#    y 0.000000 1.702640 0.000000 
#    z 0.000000 0.000000 1.716340 
# 
# From -- ./inp_files/2773.got.cif
#   From: 2010.03.12/outbox.cif.g09.slc.cpg/sg101_2_cif.got.tgz:2773.got - 2010.04.14 01:38:52.
