data_PCOD8306165
_publ_section_title
;
Structure prediction by ZEFSAII (Michael W. Deem and Ramdas Pophale) SiO2 
 PCOD8306165
Probable space group: I 4 2 2 
;
_chemical_formula_sum "Si O2"
_cell_formula_units_Z 112
_cell_length_a 14.035397
_cell_length_b 14.035397
_cell_length_c 26.059785
_cell_angle_alpha 90.000000
_cell_angle_beta 90.000000
_cell_angle_gamma 90.000000
_cell_volume 5133.578781
_symmetry_space_group_name_H-M "I 4 2 2 "
_symmetry_group_IT_number 97
_symmetry_cell_setting 'tetragonal'
loop_
_space_group_symop_operation_xyz
x,y,z
-y,x,z
-x,-y,z
y,-x,z
x,-y,-z
-x,y,-z
y,x,-z
-y,-x,-z
1/2+x,1/2+y,1/2+z
1/2-y,1/2+x,1/2+z
1/2-x,1/2-y,1/2+z
1/2+y,1/2-x,1/2+z
1/2+x,1/2-y,1/2-z
1/2-x,1/2+y,1/2-z
1/2+y,1/2+x,1/2-z
1/2-y,1/2-x,1/2-z
loop_
_atom_site_type_symbol
_atom_site_label
_atom_site_fract_x
_atom_site_fract_y
_atom_site_fract_z
Si Si1 0.651045 0.538041 0.785600
Si Si2 0.717263 0.022586 0.369772
Si Si3 0.287966 0.323924 0.708616
Si Si4 0.259636 0.105121 0.016236
Si Si5 0.656669 0.098633 0.872535
Si Si6 0.101470 0.750915 0.524276
Si Si7 0.846583 0.591132 0.304912
O O1 0.568640 0.615539 0.785073
O O2 0.711532 0.545339 0.837540
O O3 0.706004 0.568543 0.733214
O O4 0.766982 0.081333 0.415651
O O5 0.677398 0.105273 0.334722
O O6 0.637405 0.947526 0.388944
O O7 0.243726 0.256275 0.750000
O O8 0.218829 0.327634 0.660321
O O9 0.387355 0.268016 0.696686
O O10 0.280095 0.091583 0.076469
O O11 0.170342 0.170342 0.000000
O O12 0.352086 0.147527 0.986843
O O13 0.233737 0.000000 0.000000
O O14 0.638711 0.004541 0.838093
O O15 0.168388 0.831613 0.500000
O O16 0.000000 0.758881 0.500000
O O17 0.903951 0.596050 0.250000
#
# Coordination Sequence:
#
# PCOD8306165 Si02
#       7
#    16  16  16  16  16  16  16
#     4  11  24  41  64  96 137 182 228 281 347 427
#     4  12  25  43  70 102 138 184 235 296 369 436
#     4  11  22  42  67  97 140 183 229 285 347 435
#     4  11  27  49  74 102 141 189 248 316 374 444
#     4  12  25  42  72 102 137 186 233 298 367 436
#     4  11  26  46  72 104 144 184 242 303 369 442
#     4  11  26  42  70 106 144 185 238 294 367 448
#
# _framework density 21.817138
#
# number of rings (size 3 to 8) (size 9 to 14) (size 15 to 20)
#    0.000    0.714    2.857    4.714    8.000    1.143 
#    0.000    0.000    0.000    0.000    0.000    0.000 
#    0.000    0.000    0.000    0.000    0.000    0.000 
#
# Total GULP energy -693793.340884 kJ/mol
# GULP energy per Si atom -12389.166802 kJ/mol
# Density = 2.176748 g / cm^3
# Si number density = 21.817138 Si / 1000 Ang^3
#
#
#
# Elastic Constant Matrix: (Units=GPa)
#
#
# Indices 1 2 3 4 5 6 
#
# 1 119.9511 16.8997 53.9348 0.0000 0.0000 0.0000
# 2 16.8997 119.9636 53.9357 0.0000 0.0000 0.0000
# 3 53.9348 53.9357 146.4595 0.0000 0.0000 0.0000
# 4 0.0000 0.0000 0.0000 36.9563 0.0000 0.0000
# 5 0.0000 0.0000 0.0000 0.0000 36.9571 0.0000
# 6 0.0000 0.0000 0.0000 0.0000 0.0000 41.3710
#
#
#
# Elastic Compliance Matrix: (Units=1/GPa)
#
#
# Indices 1 2 3 4 5 6 
#
# 1 0.010000 0.000296 -0.003792 0.000000 0.000000 0.000000
# 2 0.000296 0.009999 -0.003791 0.000000 0.000000 0.000000
# 3 -0.003792 -0.003791 0.009620 0.000000 0.000000 0.000000
# 4 0.000000 0.000000 0.000000 0.027059 0.000000 0.000000
# 5 0.000000 0.000000 0.000000 0.000000 0.027058 0.000000
# 6 0.000000 0.000000 0.000000 0.000000 0.000000 0.024171
#
#
# Mechanical properties :
#
#
# Convention : Reuss Voigt Hill
#
# Bulk Modulus (GPa) = 66.46570 70.65716 68.56143
# Shear Modulus (GPa) = 39.21688 40.49715 39.85701
#
# Velocity S-wave (km/s) = 4.24432 4.31305 4.27882
# Velocity P-wave (km/s) = 7.38580 7.56700 7.47695
#
# Compressibility (1/GPa) = 0.01504536
#
# Stress axis : x y z
#
# Youngs Moduli (GPa) = 100.00150 100.01336 103.94779
#
# Poissons Ratio (x) = -0.02960 0.39412
# Poissons Ratio (y) = -0.02960 0.39408
# Poissons Ratio (z) = 0.37916 0.37916
#
# Static dielectric constant tensor:
#      x y z
#    x 4.145780 0.000000 0.000000 
#    y 0.000000 4.145790 0.000000 
#    z 0.000000 0.000000 3.508790 
# 
# 
# High freq. dielectric constant tensor:
#      x y z
#    x 1.863530 0.000000 0.000000 
#    y 0.000000 1.863530 0.000000 
#    z 0.000000 0.000000 1.865200 
# 
# From -- ./inp_files/7260.got.cif
#   From: 2010.03.12/outbox.cif.g09.slc.cpg/sg97_4_cif.got.tgz:7260.got - 2010.04.08 20:59:42.
