data_PCOD8306282
_publ_section_title
;
Structure prediction by ZEFSAII (Michael W. Deem and Ramdas Pophale) SiO2 
 PCOD8306282
Probable space group: I 41 2 2
;
_chemical_formula_sum "Si O2"
_cell_formula_units_Z 96
_cell_length_a 16.542036
_cell_length_b 16.542036
_cell_length_c 17.857786
_cell_angle_alpha 90.000000
_cell_angle_beta 90.000000
_cell_angle_gamma 90.000000
_cell_volume 4886.585900
_symmetry_space_group_name_H-M "I 41 2 2"
_symmetry_group_IT_number 98
_symmetry_cell_setting 'tetragonal'
loop_
_space_group_symop_operation_xyz
x,y,z
-y,1/2+x,1/4+z
-x,-y,z
y,1/2-x,1/4+z
x,1/2-y,1/4-z
-x,1/2+y,1/4-z
y,x,-z
-y,-x,-z
1/2+x,1/2+y,1/2+z
1/2-y,x,3/4+z
1/2-x,1/2-y,1/2+z
1/2+y,-x,3/4+z
1/2+x,-y,3/4-z
1/2-x,y,3/4-z
1/2+y,1/2+x,1/2-z
1/2-y,1/2-x,1/2-z
loop_
_atom_site_type_symbol
_atom_site_label
_atom_site_fract_x
_atom_site_fract_y
_atom_site_fract_z
Si Si1 0.842013 0.029015 0.003382
Si Si2 0.193996 0.441446 0.759003
Si Si3 0.427781 0.443108 0.381292
Si Si4 0.807984 0.003984 0.649750
Si Si5 0.405334 0.369447 0.227724
Si Si6 0.914950 0.032636 0.379807
O O1 0.885663 0.967106 0.057963
O O2 0.752324 0.038200 0.036703
O O3 0.882737 0.117264 0.000000
O O4 0.852565 0.991668 0.919649
O O5 0.125186 0.374815 0.750000
O O6 0.226221 0.483929 0.682685
O O7 0.274005 0.397072 0.790742
O O8 0.158125 0.511650 0.813075
O O9 0.500000 0.500000 0.350942
O O10 0.390829 0.390903 0.314204
O O11 0.841543 0.917889 0.677634
O O12 0.872713 0.075653 0.637227
O O13 0.493904 0.397680 0.201207
O O14 0.000000 0.000000 0.414086
#
# Coordination Sequence:
#
# PCOD8306282 Si02
#       6
#    16  16  16  16  16  16
#     4   9  19  37  61  87 119 160 203 251 309 372
#     4  12  22  38  59  88 128 162 200 260 321 370
#     4   9  17  35  59  83 113 155 200 245 298 366
#     4  11  22  37  61  92 117 162 210 251 307 383
#     4  11  22  36  58  91 120 153 205 257 308 370
#     4  10  21  36  61  87 120 158 218 255 298 378
#
# _framework density 19.645617999999999
#
# number of rings (size 3 to 8) (size 9 to 14) (size 15 to 20)
#    0.000    1.667    5.000    3.500    0.000    0.667 
#    3.000    1.667    0.000    4.000    0.000    0.000 
#    0.000    0.000    0.000    0.000    0.000    0.000 
#
# Total GULP energy -594731.160179 kJ/mol
# GULP energy per Si atom -12390.232504 kJ/mol
# Density = 1.960090 g / cm^3
# Si number density = 19.645618 Si / 1000 Ang^3
#
#
#
# Elastic Constant Matrix: (Units=GPa)
#
#
# Indices 1 2 3 4 5 6 
#
# 1 89.2759 55.4944 41.2423 0.0000 0.0000 0.0000
# 2 55.4944 89.2780 41.2407 0.0000 0.0000 0.0000
# 3 41.2423 41.2407 107.6300 0.0000 0.0000 0.0000
# 4 0.0000 0.0000 0.0000 22.7583 0.0000 0.0000
# 5 0.0000 0.0000 0.0000 0.0000 22.7593 0.0000
# 6 0.0000 0.0000 0.0000 0.0000 0.0000 19.2261
#
#
#
# Elastic Compliance Matrix: (Units=1/GPa)
#
#
# Indices 1 2 3 4 5 6 
#
# 1 0.019219 -0.010382 -0.003386 0.000000 0.000000 0.000000
# 2 -0.010382 0.019218 -0.003386 0.000000 0.000000 0.000000
# 3 -0.003386 -0.003386 0.011886 0.000000 0.000000 0.000000
# 4 0.000000 0.000000 0.000000 0.043940 0.000000 0.000000
# 5 0.000000 0.000000 0.000000 0.000000 0.043938 0.000000
# 6 0.000000 0.000000 0.000000 0.000000 0.000000 0.052013
#
#
# Mechanical properties :
#
#
# Convention : Reuss Voigt Hill
#
# Bulk Modulus (GPa) = 62.44071 62.45986 62.45029
# Shear Modulus (GPa) = 21.75225 22.82917 22.29071
#
# Velocity S-wave (km/s) = 3.33112 3.41258 3.37210
# Velocity P-wave (km/s) = 6.82991 6.88403 6.85703
#
# Compressibility (1/GPa) = 0.01601519
#
# Stress axis : x y z
#
# Youngs Moduli (GPa) = 52.03108 52.03343 84.13276
#
# Poissons Ratio (x) = 0.54022 0.28491
# Poissons Ratio (y) = 0.54020 0.28484
# Poissons Ratio (z) = 0.17620 0.17616
#
# Static dielectric constant tensor:
#      x y z
#    x 3.596820 0.000000 0.000000 
#    y 0.000000 3.596830 0.000000 
#    z 0.000000 0.000000 4.461290 
# 
# 
# High freq. dielectric constant tensor:
#      x y z
#    x 1.740830 0.000000 0.000000 
#    y 0.000000 1.740830 0.000000 
#    z 0.000000 0.000000 1.783470 
# 
# From -- ./inp_files/7683.got.cif
#   From: 2010.03.12/outbox.cif.g09.slc.cpg/sg98_4_cif.got.tgz:7683.got - 2010.04.08 21:04:41.
