data_PCOD8306381
_publ_section_title
;
Structure prediction by ZEFSAII (Michael W. Deem and Ramdas Pophale) SiO2 
 PCOD8306381
Probable space group: I 41 2 2
;
_chemical_formula_sum "Si O2"
_cell_formula_units_Z 48
_cell_length_a 9.234238
_cell_length_b 9.234238
_cell_length_c 24.570347
_cell_angle_alpha 90.000000
_cell_angle_beta 90.000000
_cell_angle_gamma 90.000000
_cell_volume 2095.141780
_symmetry_space_group_name_H-M "I 41 2 2"
_symmetry_group_IT_number 98
_symmetry_cell_setting 'tetragonal'
loop_
_space_group_symop_operation_xyz
x,y,z
-y,1/2+x,1/4+z
-x,-y,z
y,1/2-x,1/4+z
x,1/2-y,1/4-z
-x,1/2+y,1/4-z
y,x,-z
-y,-x,-z
1/2+x,1/2+y,1/2+z
1/2-y,x,3/4+z
1/2-x,1/2-y,1/2+z
1/2+y,-x,3/4+z
1/2+x,-y,3/4-z
1/2-x,y,3/4-z
1/2+y,1/2+x,1/2-z
1/2-y,1/2-x,1/2-z
loop_
_atom_site_type_symbol
_atom_site_label
_atom_site_fract_x
_atom_site_fract_y
_atom_site_fract_z
Si Si1 0.074289 0.852838 0.873698
Si Si2 0.505736 0.236114 0.257107
Si Si3 0.390268 0.104748 0.092643
O O1 0.250000 0.853654 0.875000
O O2 0.006800 0.809105 0.815816
O O3 0.000612 0.746145 0.918074
O O4 0.000000 0.000000 0.891172
O O5 0.376545 0.123456 0.250000
O O6 0.475654 0.360255 0.212831
O O7 0.661540 0.161540 0.250000
O O8 0.349978 0.250000 0.125000
O O9 0.500000 0.000000 0.127653
#
# Coordination Sequence:
#
# PCOD8306381 Si02
#       3
#    16  16  16
#     4  12  27  47  73 108 155 201 252 323 400 469
#     4  11  23  43  73 109 144 193 257 319 383 470
#     4  12  23  42  72 104 142 194 254 312 382 466
#
# _framework density 22.910140999999999
#
# number of rings (size 3 to 8) (size 9 to 14) (size 15 to 20)
#    0.000    0.333    3.333    7.000    0.000    0.000 
#    0.000    0.000    0.000    0.000    0.000    0.000 
#    0.000    0.000    0.000    0.000    0.000    0.000 
#
# Total GULP energy -297370.496928 kJ/mol
# GULP energy per Si atom -12390.437372 kJ/mol
# Density = 2.285800 g / cm^3
# Si number density = 22.910141 Si / 1000 Ang^3
#
#
#
# Elastic Constant Matrix: (Units=GPa)
#
#
# Indices 1 2 3 4 5 6 
#
# 1 187.2412 90.1883 29.0766 0.0000 0.0000 0.0000
# 2 90.1883 187.2416 29.0765 0.0000 0.0000 0.0000
# 3 29.0766 29.0765 81.0168 0.0000 0.0000 0.0000
# 4 0.0000 0.0000 0.0000 29.6584 0.0000 0.0000
# 5 0.0000 0.0000 0.0000 0.0000 29.6589 0.0000
# 6 0.0000 0.0000 0.0000 0.0000 0.0000 54.9693
#
#
#
# Elastic Compliance Matrix: (Units=1/GPa)
#
#
# Indices 1 2 3 4 5 6 
#
# 1 0.007101 -0.003203 -0.001399 0.000000 0.000000 0.000000
# 2 -0.003203 0.007101 -0.001399 0.000000 0.000000 0.000000
# 3 -0.001399 -0.001399 0.013347 0.000000 0.000000 0.000000
# 4 0.000000 0.000000 0.000000 0.033717 0.000000 0.000000
# 5 0.000000 0.000000 0.000000 0.000000 0.033717 0.000000
# 6 0.000000 0.000000 0.000000 0.000000 0.000000 0.018192
#
#
# Mechanical properties :
#
#
# Convention : Reuss Voigt Hill
#
# Bulk Modulus (GPa) = 64.32036 83.57584 73.94810
# Shear Modulus (GPa) = 38.35581 43.33452 40.84517
#
# Velocity S-wave (km/s) = 4.09612 4.35386 4.22695
# Velocity P-wave (km/s) = 7.10682 7.86345 7.49469
#
# Compressibility (1/GPa) = 0.01554718
#
# Stress axis : x y z
#
# Youngs Moduli (GPa) = 140.83118 140.83157 74.92196
#
# Poissons Ratio (x) = 0.45108 0.10481
# Poissons Ratio (y) = 0.45108 0.10481
# Poissons Ratio (z) = 0.19701 0.19701
#
# Static dielectric constant tensor:
#      x y z
#    x 4.523760 0.000000 0.000000 
#    y 0.000000 4.523770 0.000000 
#    z 0.000000 0.000000 4.088820 
# 
# 
# High freq. dielectric constant tensor:
#      x y z
#    x 1.924260 0.000000 0.000000 
#    y 0.000000 1.924260 0.000000 
#    z 0.000000 0.000000 1.881300 
# 
# From -- ./inp_files/11255.got.cif
#   From: 2010.03.12/outbox.cif.g09.slc.cpg/sg98_6_cif.got.tgz:11255.got - 2010.04.08 21:04:41.
