data_PCOD8306485
_publ_section_title
;
Structure prediction by ZEFSAII (Michael W. Deem and Ramdas Pophale) SiO2 
 PCOD8306485
Probable space group: P 4 M M
;
_chemical_formula_sum "Si O2"
_cell_formula_units_Z 64
_cell_length_a 13.777420
_cell_length_b 13.777420
_cell_length_c 20.451072
_cell_angle_alpha 90.000000
_cell_angle_beta 90.000000
_cell_angle_gamma 90.000000
_cell_volume 3881.967307
_symmetry_space_group_name_H-M "P 4 M M"
_symmetry_group_IT_number 99
_symmetry_cell_setting 'tetragonal'
loop_
_space_group_symop_operation_xyz
x,y,z
-y,x,z
-x,-y,z
y,-x,z
-x,y,z
x,-y,z
-y,-x,z
y,x,z
loop_
_atom_site_type_symbol
_atom_site_label
_atom_site_fract_x
_atom_site_fract_y
_atom_site_fract_z
Si Si1 0.389338 0.233503 0.272120
Si Si2 0.229297 0.612494 0.123414
Si Si3 0.111832 0.388947 0.641093
Si Si4 0.273018 0.885338 0.020546
Si Si5 0.885147 0.391459 0.893686
Si Si6 0.113975 0.270702 0.769206
Si Si7 0.231097 0.613898 0.513724
Si Si8 0.615200 0.892712 0.391241
O O1 0.500000 0.259541 0.287739
O O2 0.332675 0.332675 0.283547
O O3 0.376313 0.194739 0.198397
O O4 0.350479 0.152401 0.322247
O O5 0.246541 0.500000 0.105046
O O6 0.329969 0.670032 0.110629
O O7 0.142617 0.657567 0.080851
O O8 0.132520 0.500000 0.660795
O O9 0.141789 0.322909 0.701913
O O10 0.173386 0.356907 0.578742
O O11 0.000000 0.374496 0.622211
O O12 0.170274 0.829727 0.024890
O O13 0.251953 0.000000 0.021814
O O14 0.328008 0.850984 0.955187
O O15 0.839957 0.500000 0.897608
O O16 0.849426 0.339868 0.827594
O O17 0.000000 0.399945 0.893555
O O18 0.168064 0.168064 0.773333
O O19 0.000000 0.248999 0.774862
O O20 0.250067 0.500000 0.509223
O O21 0.335246 0.664755 0.514595
O O22 0.170770 0.653169 0.451761
O O23 0.500000 0.899557 0.394433
O O24 0.660954 0.000000 0.396370
#
# Coordination Sequence:
#
# PCOD8306485 Si02
#       8
#     8   8   8   8   8   8   8   8
#     4   9  17  29  45  67  95 123 151 184 223 272
#     4   9  18  31  47  69  96 126 160 196 235 280
#     4   9  17  30  48  68  89 115 149 189 230 267
#     4  10  20  33  49  70  96 125 158 196 238 286
#     4   9  17  30  48  68  89 115 148 186 228 272
#     4  10  19  30  45  66  93 123 154 188 226 271
#     4  10  19  30  45  65  90 118 147 181 222 272
#     4   9  17  29  44  62  85 114 148 185 223 261
#
# _framework density 16.486487
#
# number of rings (size 3 to 8) (size 9 to 14) (size 15 to 20)
#    0.000    2.625    0.000    2.250    0.000    4.875 
#    0.000    2.500    0.000    4.500    0.000    0.000 
#    0.000   21.250    0.000    0.000    0.000    0.125 
#
# Total GULP energy -793574.779444 kJ/mol
# GULP energy per Si atom -12399.605929 kJ/mol
# Density = 1.644896 g / cm^3
# Si number density = 16.486487 Si / 1000 Ang^3
#
#
#
# Elastic Constant Matrix: (Units=GPa)
#
#
# Indices 1 2 3 4 5 6 
#
# 1 83.2642 47.4495 53.6453 0.0000 0.0000 0.0000
# 2 47.4495 83.2642 53.6453 0.0000 0.0000 0.0000
# 3 53.6453 53.6453 123.8967 0.0000 0.0000 0.0000
# 4 0.0000 0.0000 0.0000 23.5276 0.0000 0.0000
# 5 0.0000 0.0000 0.0000 0.0000 23.5276 0.0000
# 6 0.0000 0.0000 0.0000 0.0000 0.0000 20.6490
#
#
#
# Elastic Compliance Matrix: (Units=1/GPa)
#
#
# Indices 1 2 3 4 5 6 
#
# 1 0.019895 -0.008027 -0.005139 0.000000 0.000000 0.000000
# 2 -0.008027 0.019895 -0.005139 0.000000 0.000000 0.000000
# 3 -0.005139 -0.005139 0.012521 0.000000 0.000000 0.000000
# 4 0.000000 0.000000 0.000000 0.042503 0.000000 0.000000
# 5 0.000000 0.000000 0.000000 0.000000 0.042503 0.000000
# 6 0.000000 0.000000 0.000000 0.000000 0.000000 0.048428
#
#
# Mechanical properties :
#
#
# Convention : Reuss Voigt Hill
#
# Bulk Modulus (GPa) = 63.68342 66.65615 65.16979
# Shear Modulus (GPa) = 21.96948 22.58652 22.27800
#
# Velocity S-wave (km/s) = 3.65441 3.70537 3.67998
# Velocity P-wave (km/s) = 7.51783 7.66974 7.59416
#
# Compressibility (1/GPa) = 0.01570267
#
# Stress axis : x y z
#
# Youngs Moduli (GPa) = 50.26417 50.26417 79.86426
#
# Poissons Ratio (x) = 0.40345 0.41040
# Poissons Ratio (y) = 0.40345 0.41040
# Poissons Ratio (z) = 0.25830 0.25830
#
# Static dielectric constant tensor:
#      x y z
#    x 2.969120 0.000000 0.000000 
#    y 0.000000 2.969120 0.000000 
#    z 0.000000 0.000000 3.335800 
# 
# 
# High freq. dielectric constant tensor:
#      x y z
#    x 1.617500 0.000000 0.000000 
#    y 0.000000 1.617500 0.000000 
#    z 0.000000 0.000000 1.653230 
# 
# From -- ./inp_files/2076.got.cif
#   From: 2010.03.12/outbox.cif.g09.slc.cpg/sg99_cif.got.tgz:2076.got - 2010.04.08 21:11:30.
