data_PCOD8306536
_publ_section_title
;
Structure prediction by ZEFSAII (Michael W. Deem and Ramdas Pophale) SiO2 
 PCOD8306536
Probable space group: P 4 M M
;
_chemical_formula_sum "Si O2"
_cell_formula_units_Z 64
_cell_length_a 13.914448
_cell_length_b 13.914448
_cell_length_c 20.712886
_cell_angle_alpha 90.000000
_cell_angle_beta 90.000000
_cell_angle_gamma 90.000000
_cell_volume 4010.260450
_symmetry_space_group_name_H-M "P 4 M M"
_symmetry_group_IT_number 99
_symmetry_cell_setting 'tetragonal'
loop_
_space_group_symop_operation_xyz
x,y,z
-y,x,z
-x,-y,z
y,-x,z
-x,y,z
x,-y,z
-y,-x,z
y,x,z
loop_
_atom_site_type_symbol
_atom_site_label
_atom_site_fract_x
_atom_site_fract_y
_atom_site_fract_z
Si Si1 0.385812 0.893363 0.504880
Si Si2 0.892712 0.613576 0.362435
Si Si3 0.610161 0.237358 0.617615
Si Si4 0.606509 0.886091 0.014846
Si Si5 0.885258 0.728416 0.136933
Si Si6 0.763319 0.389728 0.760711
Si Si7 0.105801 0.386019 0.873765
Si Si8 0.385049 0.771541 0.240928
O O1 0.500000 0.894966 0.510456
O O2 0.354497 0.855671 0.433692
O O3 0.342370 0.829820 0.562731
O O4 0.344456 0.000000 0.514249
O O5 0.901633 0.500000 0.359620
O O6 0.815637 0.647412 0.309661
O O7 0.000000 0.656303 0.348933
O O8 0.500000 0.257008 0.601703
O O9 0.659706 0.340295 0.614807
O O10 0.623162 0.190353 0.689019
O O11 0.500000 0.845103 0.032799
O O12 0.685257 0.856102 0.067418
O O13 0.598266 0.000000 0.010493
O O14 0.639418 0.848100 0.943961
O O15 0.830279 0.830279 0.145851
O O16 0.848938 0.649999 0.188367
O O17 0.000000 0.744398 0.144285
O O18 0.742951 0.500000 0.776335
O O19 0.660979 0.339022 0.764270
O O20 0.832281 0.343313 0.814841
O O21 0.098504 0.500000 0.867024
O O22 0.000000 0.339922 0.867605
O O23 0.500000 0.755440 0.235135
O O24 0.330646 0.669355 0.231890
#
# Coordination Sequence:
#
# PCOD8306536 Si02
#       8
#     8   8   8   8   8   8   8   8
#     4   8  14  25  41  60  80 103 133 170 212 251
#     4   8  14  26  44  63  82 106 137 172 208 247
#     4   9  17  27  38  54  78 108 141 174 207 249
#     4   8  14  26  44  64  85 108 135 170 211 256
#     4  10  20  32  47  68  91 116 148 183 220 263
#     4   9  17  27  38  54  77 107 141 173 206 246
#     4   8  14  25  41  61  83 105 132 170 214 255
#     4  10  20  32  47  68  92 119 151 184 218 257
#
# _framework density 15.959061999999999
#
# number of rings (size 3 to 8) (size 9 to 14) (size 15 to 20)
#    0.000    3.250    0.000    2.250    0.000    3.250 
#    0.000    3.750    0.000    0.000    0.000    3.500 
#    0.000    3.500    0.000    5.500    0.000    3.500 
#
# Total GULP energy -792917.292913 kJ/mol
# GULP energy per Si atom -12389.332702 kJ/mol
# Density = 1.592274 g / cm^3
# Si number density = 15.959062 Si / 1000 Ang^3
#
#
#
# Elastic Constant Matrix: (Units=GPa)
#
#
# Indices 1 2 3 4 5 6 
#
# 1 60.4668 30.8093 44.4320 0.0000 0.0000 0.0005
# 2 30.8093 60.4668 44.4320 0.0000 0.0000 -0.0005
# 3 44.4320 44.4320 130.7347 0.0000 0.0000 0.0000
# 4 0.0000 0.0000 0.0000 19.8997 0.0000 0.0000
# 5 0.0000 0.0000 0.0000 0.0000 19.8997 0.0000
# 6 0.0005 -0.0005 0.0000 0.0000 0.0000 10.8952
#
#
#
# Elastic Compliance Matrix: (Units=1/GPa)
#
#
# Indices 1 2 3 4 5 6 
#
# 1 0.025046 -0.008672 -0.005565 0.000000 0.000000 -0.000001
# 2 -0.008672 0.025046 -0.005565 0.000000 0.000000 0.000001
# 3 -0.005565 -0.005565 0.011432 0.000000 0.000000 0.000000
# 4 0.000000 0.000000 0.000000 0.050252 0.000000 0.000000
# 5 0.000000 0.000000 0.000000 0.000000 0.050252 0.000000
# 6 -0.000001 0.000001 0.000000 0.000000 0.000000 0.091784
#
#
# Mechanical properties :
#
#
# Convention : Reuss Voigt Hill
#
# Bulk Modulus (GPa) = 45.62145 54.55721 50.08933
# Shear Modulus (GPa) = 16.62669 18.93859 17.78264
#
# Velocity S-wave (km/s) = 3.23125 3.44859 3.34168
# Velocity P-wave (km/s) = 6.52456 7.07933 6.80760
#
# Compressibility (1/GPa) = 0.02191951
#
# Stress axis : x y z
#
# Youngs Moduli (GPa) = 39.92675 39.92675 87.47693
#
# Poissons Ratio (x) = 0.34626 0.48679
# Poissons Ratio (y) = 0.34626 0.48679
# Poissons Ratio (z) = 0.22218 0.22218
#
# Static dielectric constant tensor:
#      x y z
#    x 2.803030 0.000000 0.000000 
#    y 0.000000 2.803030 0.000000 
#    z 0.000000 0.000000 3.539280 
# 
# 
# High freq. dielectric constant tensor:
#      x y z
#    x 1.579860 0.000000 0.000000 
#    y 0.000000 1.579860 0.000000 
#    z 0.000000 0.000000 1.636000 
# 
# From -- ./inp_files/2079.got.cif
#   From: 2010.03.12/outbox.cif.g09.slc.cpg/sg99_cif.got.tgz:2079.got - 2010.04.08 21:11:30.
