data_PCOD8306272
_publ_section_title
;
Structure prediction by ZEFSAII (Michael W. Deem and Ramdas Pophale) SiO2 
 PCOD8306272
Probable space group: I 41 2 2
;
_chemical_formula_sum "Si O2"
_cell_formula_units_Z 64
_cell_length_a 10.474960
_cell_length_b 10.474960
_cell_length_c 30.855448
_cell_angle_alpha 90.000000
_cell_angle_beta 90.000000
_cell_angle_gamma 90.000000
_cell_volume 3385.607460
_symmetry_space_group_name_H-M "I 41 2 2"
_symmetry_group_IT_number 98
_symmetry_cell_setting 'tetragonal'
loop_
_space_group_symop_operation_xyz
x,y,z
-y,1/2+x,1/4+z
-x,-y,z
y,1/2-x,1/4+z
x,1/2-y,1/4-z
-x,1/2+y,1/4-z
y,x,-z
-y,-x,-z
1/2+x,1/2+y,1/2+z
1/2-y,x,3/4+z
1/2-x,1/2-y,1/2+z
1/2+y,-x,3/4+z
1/2+x,-y,3/4-z
1/2-x,y,3/4-z
1/2+y,1/2+x,1/2-z
1/2-y,1/2-x,1/2-z
loop_
_atom_site_type_symbol
_atom_site_label
_atom_site_fract_x
_atom_site_fract_y
_atom_site_fract_z
Si Si1 0.811421 0.296291 0.959921
Si Si2 0.750000 0.361782 0.375000
Si Si3 0.961862 0.858650 0.660836
Si Si4 0.500000 0.000000 0.853430
Si Si5 0.412624 0.289936 0.459436
O O1 0.761982 0.224317 0.917430
O O2 0.824875 0.444740 0.950116
O O3 0.946647 0.242462 0.976753
O O4 0.714761 0.285240 0.000000
O O5 0.615410 0.438089 0.368262
O O6 0.973479 0.750000 0.625000
O O7 0.822603 0.852780 0.681145
O O8 0.000000 0.000000 0.642071
O O9 0.580042 0.906587 0.823198
O O10 0.322405 0.322405 0.500000
#
# Coordination Sequence:
#
# PCOD8306272 Si02
#       5
#    16   8  16   8  16
#     4  10  20  40  63  85 121 167 202 250 316 373
#     4  10  20  38  60  88 124 158 202 256 314 364
#     4  10  22  42  63  87 126 171 206 254 317 376
#     4  10  21  36  60  92 120 158 198 256 305 372
#     4  10  20  38  61  89 123 154 201 256 313 360
#
# _framework density 18.903552000000001
#
# number of rings (size 3 to 8) (size 9 to 14) (size 15 to 20)
#    0.000    2.000    1.250    3.375    1.750    0.000 
#   15.750    0.000    0.000    0.000    0.000    0.000 
#    0.000    0.000    0.000    0.000    0.000    0.000 
#
# Total GULP energy -396659.617312 kJ/mol
# GULP energy per Si atom -12395.613041 kJ/mol
# Density = 1.886053 g / cm^3
# Si number density = 18.903552 Si / 1000 Ang^3
#
#
#
# Elastic Constant Matrix: (Units=GPa)
#
#
# Indices 1 2 3 4 5 6 
#
# 1 107.9305 38.2178 48.2164 0.0000 0.0000 0.0000
# 2 38.2178 107.9303 48.2162 0.0000 0.0000 0.0000
# 3 48.2164 48.2162 97.6606 0.0000 0.0000 0.0000
# 4 0.0000 0.0000 0.0000 19.8865 0.0000 0.0000
# 5 0.0000 0.0000 0.0000 0.0000 19.8873 0.0000
# 6 0.0000 0.0000 0.0000 0.0000 0.0000 29.5274
#
#
#
# Elastic Compliance Matrix: (Units=1/GPa)
#
#
# Indices 1 2 3 4 5 6 
#
# 1 0.012246 -0.002098 -0.005010 0.000000 0.000000 0.000000
# 2 -0.002098 0.012246 -0.005010 0.000000 0.000000 0.000000
# 3 -0.005010 -0.005010 0.015187 0.000000 0.000000 0.000000
# 4 0.000000 0.000000 0.000000 0.050285 0.000000 0.000000
# 5 0.000000 0.000000 0.000000 0.000000 0.050283 0.000000
# 6 0.000000 0.000000 0.000000 0.000000 0.000000 0.033867
#
#
# Mechanical properties :
#
#
# Convention : Reuss Voigt Hill
#
# Bulk Modulus (GPa) = 64.75791 64.75802 64.75797
# Shear Modulus (GPa) = 24.56994 25.78496 25.17745
#
# Velocity S-wave (km/s) = 3.60912 3.69728 3.65347
# Velocity P-wave (km/s) = 7.19020 7.24969 7.22001
#
# Compressibility (1/GPa) = 0.01544213
#
# Stress axis : x y z
#
# Youngs Moduli (GPa) = 81.65613 81.65609 65.84620
#
# Poissons Ratio (x) = 0.17133 0.32991
# Poissons Ratio (y) = 0.17133 0.32991
# Poissons Ratio (z) = 0.40913 0.40913
#
# Static dielectric constant tensor:
#      x y z
#    x 3.648080 0.000000 0.000000 
#    y 0.000000 3.648080 0.000000 
#    z 0.000000 0.000000 3.198240 
# 
# 
# High freq. dielectric constant tensor:
#      x y z
#    x 1.742290 0.000000 0.000000 
#    y 0.000000 1.742290 0.000000 
#    z 0.000000 0.000000 1.719110 
# 
# From -- ./inp_files/9869.got.cif
#   From: 2010.03.12/outbox.cif.g09.slc.cpg/sg98_5_cif.got.tgz:9869.got - 2010.04.08 21:04:41.
