data_PCOD8306582
_publ_section_title
;
Structure prediction by ZEFSAII (Michael W. Deem and Ramdas Pophale) SiO2 
 PCOD8306582
Probable space group: P 4 M M
;
_chemical_formula_sum "Si O2"
_cell_formula_units_Z 64
_cell_length_a 13.405218
_cell_length_b 13.405218
_cell_length_c 20.583523
_cell_angle_alpha 90.000000
_cell_angle_beta 90.000000
_cell_angle_gamma 90.000000
_cell_volume 3698.856400
_symmetry_space_group_name_H-M "P 4 M M"
_symmetry_group_IT_number 99
_symmetry_cell_setting 'tetragonal'
loop_
_space_group_symop_operation_xyz
x,y,z
-y,x,z
-x,-y,z
y,-x,z
-x,y,z
x,-y,z
-y,-x,z
y,x,z
loop_
_atom_site_type_symbol
_atom_site_label
_atom_site_fract_x
_atom_site_fract_y
_atom_site_fract_z
Si Si1 0.882823 0.722883 0.501710
Si Si2 0.882693 0.611720 0.373819
Si Si3 0.383811 0.778336 0.102837
Si Si4 0.111405 0.618097 0.743656
Si Si5 0.221184 0.617493 0.873701
Si Si6 0.116167 0.719543 0.989506
Si Si7 0.778725 0.616950 0.613930
Si Si8 0.385792 0.772700 0.248178
O O1 0.826558 0.826558 0.515947
O O2 0.846109 0.682002 0.432043
O O3 0.854793 0.640818 0.555612
O O4 0.000000 0.743916 0.503642
O O5 0.841267 0.500000 0.385939
O O6 0.846739 0.654054 0.304140
O O7 0.000000 0.609821 0.371822
O O8 0.500000 0.759782 0.087214
O O9 0.326613 0.673388 0.091583
O O10 0.338235 0.862689 0.056564
O O11 0.367905 0.818727 0.176418
O O12 0.102982 0.500000 0.743353
O O13 0.170582 0.654012 0.807060
O O14 0.170134 0.654651 0.680194
O O15 0.000000 0.664728 0.743886
O O16 0.242906 0.500000 0.874387
O O17 0.326622 0.673379 0.882445
O O18 0.146237 0.645584 0.931433
O O19 0.177278 0.822723 0.985306
O O20 0.000000 0.745995 0.985161
O O21 0.754711 0.500000 0.615264
O O22 0.674591 0.674591 0.604190
O O23 0.500000 0.748119 0.259314
O O24 0.332346 0.667655 0.255127
#
# Coordination Sequence:
#
# PCOD8306582 Si02
#       8
#     8   8   8   8   8   8   8   8
#     4  10  20  33  50  71  94 123 159 199 244 291
#     4   9  17  29  46  68  92 119 154 195 238 284
#     4   9  18  31  47  70  98 128 162 197 235 281
#     4   9  17  30  49  71  95 126 164 203 239 274
#     4  10  20  33  50  74 103 134 168 203 241 287
#     4  10  21  36  53  73  96 123 158 200 245 293
#     4  10  20  33  50  73 100 130 164 200 240 289
#     4   9  17  29  45  66  94 125 156 191 229 273
#
# _framework density 17.302644999999998
#
# number of rings (size 3 to 8) (size 9 to 14) (size 15 to 20)
#    0.000    2.500    0.000    2.250    0.000    4.000 
#    0.000    2.500    0.000    4.500    0.000    1.750 
#    0.000   12.000    0.000    0.000    0.000    0.000 
#
# Total GULP energy -793534.987182 kJ/mol
# GULP energy per Si atom -12398.984175 kJ/mol
# Density = 1.726326 g / cm^3
# Si number density = 17.302645 Si / 1000 Ang^3
#
#
#
# Elastic Constant Matrix: (Units=GPa)
#
#
# Indices 1 2 3 4 5 6 
#
# 1 81.7754 36.4427 40.9746 0.0000 0.0000 -0.0002
# 2 36.4427 81.7754 40.9746 0.0000 0.0000 0.0002
# 3 40.9746 40.9746 132.2363 0.0000 0.0000 0.0000
# 4 0.0000 0.0000 0.0000 25.3226 0.0000 0.0000
# 5 0.0000 0.0000 0.0000 0.0000 25.3226 0.0000
# 6 -0.0002 0.0002 0.0000 0.0000 0.0000 15.3260
#
#
#
# Elastic Compliance Matrix: (Units=1/GPa)
#
#
# Indices 1 2 3 4 5 6 
#
# 1 0.016416 -0.005643 -0.003338 0.000000 0.000000 0.000000
# 2 -0.005643 0.016416 -0.003338 0.000000 0.000000 0.000000
# 3 -0.003338 -0.003338 0.009631 0.000000 0.000000 0.000000
# 4 0.000000 0.000000 0.000000 0.039490 0.000000 0.000000
# 5 0.000000 0.000000 0.000000 0.000000 0.039490 0.000000
# 6 0.000000 0.000000 0.000000 0.000000 0.000000 0.065249
#
#
# Mechanical properties :
#
#
# Convention : Reuss Voigt Hill
#
# Bulk Modulus (GPa) = 56.10292 59.17454 57.63873
# Shear Modulus (GPa) = 23.01259 25.02059 24.01659
#
# Velocity S-wave (km/s) = 3.65088 3.80683 3.72967
# Velocity P-wave (km/s) = 7.08991 7.32097 7.20636
#
# Compressibility (1/GPa) = 0.01782438
#
# Stress axis : x y z
#
# Youngs Moduli (GPa) = 60.91610 60.91610 103.83252
#
# Poissons Ratio (x) = 0.34376 0.34660
# Poissons Ratio (y) = 0.34376 0.34660
# Poissons Ratio (z) = 0.20334 0.20334
#
# Static dielectric constant tensor:
#      x y z
#    x 3.063150 0.000000 0.000000 
#    y 0.000000 3.063150 0.000000 
#    z 0.000000 0.000000 3.576780 
# 
# 
# High freq. dielectric constant tensor:
#      x y z
#    x 1.654090 0.000000 0.000000 
#    y 0.000000 1.654090 0.000000 
#    z 0.000000 0.000000 1.689880 
# 
# From -- ./inp_files/2251.got.cif
#   From: 2010.03.12/outbox.cif.g09.slc.cpg/sg99_cif.got.tgz:2251.got - 2010.04.08 21:11:30.
