data_PCOD8306481
_publ_section_title
;
Structure prediction by ZEFSAII (Michael W. Deem and Ramdas Pophale) SiO2 
 PCOD8306481
Probable space group: P 4 M M
;
_chemical_formula_sum "Si O2"
_cell_formula_units_Z 56
_cell_length_a 13.628861
_cell_length_b 13.628861
_cell_length_c 17.910340
_cell_angle_alpha 90.000000
_cell_angle_beta 90.000000
_cell_angle_gamma 90.000000
_cell_volume 3326.771366
_symmetry_space_group_name_H-M "P 4 M M"
_symmetry_group_IT_number 99
_symmetry_cell_setting 'tetragonal'
loop_
_space_group_symop_operation_xyz
x,y,z
-y,x,z
-x,-y,z
y,-x,z
-x,y,z
x,-y,z
-y,-x,z
y,x,z
loop_
_atom_site_type_symbol
_atom_site_label
_atom_site_fract_x
_atom_site_fract_y
_atom_site_fract_z
Si Si1 0.274783 0.884435 0.575790
Si Si2 0.614822 0.887824 0.138220
Si Si3 0.388767 0.113517 0.426593
Si Si4 0.769965 0.615331 0.280746
Si Si5 0.887947 0.268019 0.997419
Si Si6 0.885531 0.274344 0.829431
Si Si7 0.615765 0.222649 0.704395
O O1 0.170918 0.829083 0.585741
O O2 0.317491 0.860688 0.494506
O O3 0.353640 0.844889 0.634835
O O4 0.257512 0.000000 0.588196
O O5 0.500000 0.874956 0.131769
O O6 0.655709 0.826971 0.208212
O O7 0.657430 0.847591 0.059948
O O8 0.644818 0.000000 0.152006
O O9 0.500000 0.143140 0.448408
O O10 0.352201 0.171379 0.354205
O O11 0.383603 0.000000 0.405555
O O12 0.755551 0.500000 0.277101
O O13 0.662936 0.662936 0.283054
O O14 0.834977 0.165024 0.005894
O O15 0.000000 0.243903 0.012203
O O16 0.872016 0.311981 0.914499
O O17 0.828795 0.171206 0.815707
O O18 0.838519 0.359031 0.778795
O O19 0.000000 0.257629 0.809675
O O20 0.500000 0.244759 0.701639
O O21 0.673836 0.326165 0.702741
#
# Coordination Sequence:
#
# PCOD8306481 Si02
#       7
#     8   8   8   8   8   8   8
#     4  10  20  33  50  73 100 129 160 192 227 270
#     4   9  17  29  45  65  87 112 147 190 232 271
#     4   9  17  30  49  71  92 116 150 191 232 272
#     4  10  19  30  45  64  88 118 149 184 227 273
#     4   9  17  29  45  66  93 122 151 184 222 267
#     4   9  18  31  47  70  98 127 159 192 228 273
#     4  10  21  36  53  73  96 122 155 195 237 281
#
# _framework density 16.833138000000002
#
# number of rings (size 3 to 8) (size 9 to 14) (size 15 to 20)
#    0.000    2.571    0.000    2.143    0.000    4.714 
#    0.000    2.857    0.000    2.571    0.000    2.000 
#    0.000   13.714    0.000    0.000    0.000    0.000 
#
# Total GULP energy -694301.460305 kJ/mol
# GULP energy per Si atom -12398.240363 kJ/mol
# Density = 1.679482 g / cm^3
# Si number density = 16.833138 Si / 1000 Ang^3
#
#
#
# Elastic Constant Matrix: (Units=GPa)
#
#
# Indices 1 2 3 4 5 6 
#
# 1 86.1601 48.7080 55.1922 0.0000 0.0000 -0.0001
# 2 48.7080 86.1601 55.1922 0.0000 0.0000 0.0001
# 3 55.1922 55.1922 128.1493 0.0000 0.0000 0.0000
# 4 0.0000 0.0000 0.0000 25.2848 0.0000 0.0000
# 5 0.0000 0.0000 0.0000 0.0000 25.2848 0.0000
# 6 -0.0001 0.0001 0.0000 0.0000 0.0000 22.5038
#
#
#
# Elastic Compliance Matrix: (Units=1/GPa)
#
#
# Indices 1 2 3 4 5 6 
#
# 1 0.019076 -0.007625 -0.004932 0.000000 0.000000 0.000000
# 2 -0.007625 0.019076 -0.004932 0.000000 0.000000 0.000000
# 3 -0.004932 -0.004932 0.012052 0.000000 0.000000 0.000000
# 4 0.000000 0.000000 0.000000 0.039549 0.000000 0.000000
# 5 0.000000 0.000000 0.000000 0.000000 0.039549 0.000000
# 6 0.000000 0.000000 0.000000 0.000000 0.000000 0.044437
#
#
# Mechanical properties :
#
#
# Convention : Reuss Voigt Hill
#
# Bulk Modulus (GPa) = 65.67506 68.73934 67.20720
# Shear Modulus (GPa) = 23.38723 24.03984 23.71353
#
# Velocity S-wave (km/s) = 3.73145 3.78315 3.75739
# Velocity P-wave (km/s) = 7.59375 7.74644 7.67048
#
# Compressibility (1/GPa) = 0.01522648
#
# Stress axis : x y z
#
# Youngs Moduli (GPa) = 52.42189 52.42189 82.97666
#
# Poissons Ratio (x) = 0.39971 0.40923
# Poissons Ratio (y) = 0.39971 0.40923
# Poissons Ratio (z) = 0.25854 0.25854
#
# Static dielectric constant tensor:
#      x y z
#    x 3.021830 0.000000 0.000000 
#    y 0.000000 3.021830 0.000000 
#    z 0.000000 0.000000 3.471910 
# 
# 
# High freq. dielectric constant tensor:
#      x y z
#    x 1.637140 0.000000 0.000000 
#    y 0.000000 1.637140 0.000000 
#    z 0.000000 0.000000 1.668770 
# 
# From -- ./inp_files/2149.got.cif
#   From: 2010.03.12/outbox.cif.g09.slc.cpg/sg99_cif.got.tgz:2149.got - 2010.04.08 21:11:30.
