data_PCOD8306500
_publ_section_title
;
Structure prediction by ZEFSAII (Michael W. Deem and Ramdas Pophale) SiO2 
 PCOD8306500
Probable space group: P 4 M M
;
_chemical_formula_sum "Si O2"
_cell_formula_units_Z 64
_cell_length_a 13.496445
_cell_length_b 13.496445
_cell_length_c 20.363455
_cell_angle_alpha 90.000000
_cell_angle_beta 90.000000
_cell_angle_gamma 90.000000
_cell_volume 3709.285345
_symmetry_space_group_name_H-M "P 4 M M"
_symmetry_group_IT_number 99
_symmetry_cell_setting 'tetragonal'
loop_
_space_group_symop_operation_xyz
x,y,z
-y,x,z
-x,-y,z
y,-x,z
-x,y,z
x,-y,z
-y,-x,z
y,x,z
loop_
_atom_site_type_symbol
_atom_site_label
_atom_site_fract_x
_atom_site_fract_y
_atom_site_fract_z
Si Si1 0.221106 0.616047 0.230530
Si Si2 0.610237 0.117365 0.985277
Si Si3 0.116534 0.726058 0.857805
Si Si4 0.887110 0.273452 0.491571
Si Si5 0.384832 0.113458 0.726733
Si Si6 0.774352 0.385111 0.596394
Si Si7 0.114281 0.726010 0.341037
Si Si8 0.277113 0.116972 0.115392
O O1 0.245271 0.500000 0.227291
O O2 0.324517 0.675484 0.225423
O O3 0.164857 0.640002 0.298395
O O4 0.147550 0.646072 0.171868
O O5 0.500000 0.163434 0.991023
O O6 0.659283 0.155162 0.918006
O O7 0.602401 0.000000 0.984475
O O8 0.676088 0.151722 0.046597
O O9 0.166834 0.833167 0.861616
O O10 0.149429 0.673150 0.790836
O O11 0.000000 0.743710 0.861787
O O12 0.825489 0.174512 0.507196
O O13 0.850180 0.362902 0.537266
O O14 0.874582 0.307532 0.416391
O O15 0.000000 0.247927 0.508077
O O16 0.500000 0.127557 0.741835
O O17 0.350440 0.177679 0.664825
O O18 0.359979 0.000000 0.710224
O O19 0.749059 0.500000 0.596560
O O20 0.672013 0.327988 0.585315
O O21 0.169303 0.830698 0.328157
O O22 0.000000 0.740757 0.320918
O O23 0.172414 0.172414 0.125317
O O24 0.256933 0.000000 0.118280
#
# Coordination Sequence:
#
# PCOD8306500 Si02
#       8
#     8   8   8   8   8   8   8   8
#     4  10  21  36  53  73  97 126 163 206 249 291
#     4   9  17  30  48  68  90 119 157 199 238 273
#     4  10  19  30  45  66  94 126 157 190 230 280
#     4   9  18  32  50  73 100 128 159 195 235 282
#     4   9  17  30  49  71  92 116 150 193 240 286
#     4  10  20  33  49  69  94 124 159 200 243 287
#     4   9  18  32  50  74 102 130 160 194 234 283
#     4  10  20  33  50  74 103 133 164 197 236 286
#
# _framework density 17.253996999999998
#
# number of rings (size 3 to 8) (size 9 to 14) (size 15 to 20)
#    0.000    2.500    0.000    2.250    0.000    5.000 
#    0.000    2.500    0.000    4.500    0.000    5.250 
#    0.000   10.250    0.000    0.000    0.000    0.000 
#
# Total GULP energy -793677.624897 kJ/mol
# GULP energy per Si atom -12401.212889 kJ/mol
# Density = 1.721473 g / cm^3
# Si number density = 17.253997 Si / 1000 Ang^3
#
#
#
# Elastic Constant Matrix: (Units=GPa)
#
#
# Indices 1 2 3 4 5 6 
#
# 1 92.4783 42.6541 48.2183 0.0000 0.0000 0.0004
# 2 42.6541 92.4783 48.2183 0.0000 0.0000 -0.0004
# 3 48.2183 48.2183 113.2954 0.0000 0.0000 0.0000
# 4 0.0000 0.0000 0.0000 25.2035 0.0000 0.0000
# 5 0.0000 0.0000 0.0000 0.0000 25.2035 0.0000
# 6 0.0004 -0.0004 0.0000 0.0000 0.0000 16.3936
#
#
#
# Elastic Compliance Matrix: (Units=1/GPa)
#
#
# Indices 1 2 3 4 5 6 
#
# 1 0.015349 -0.004721 -0.004523 0.000000 0.000000 0.000000
# 2 -0.004721 0.015349 -0.004523 0.000000 0.000000 0.000000
# 3 -0.004523 -0.004523 0.012677 0.000000 0.000000 0.000000
# 4 0.000000 0.000000 0.000000 0.039677 0.000000 0.000000
# 5 0.000000 0.000000 0.000000 0.000000 0.039677 0.000000
# 6 0.000000 0.000000 0.000000 0.000000 0.000000 0.060999
#
#
# Mechanical properties :
#
#
# Convention : Reuss Voigt Hill
#
# Bulk Modulus (GPa) = 63.13220 64.04817 63.59019
# Shear Modulus (GPa) = 23.08994 23.97088 23.53041
#
# Velocity S-wave (km/s) = 3.66216 3.73137 3.69693
# Velocity P-wave (km/s) = 7.38588 7.46763 7.42687
#
# Compressibility (1/GPa) = 0.01583978
#
# Stress axis : x y z
#
# Youngs Moduli (GPa) = 65.14913 65.14913 78.88455
#
# Poissons Ratio (x) = 0.30758 0.35682
# Poissons Ratio (y) = 0.30758 0.35682
# Poissons Ratio (z) = 0.29469 0.29469
#
# Static dielectric constant tensor:
#      x y z
#    x 3.060540 0.000000 0.000000 
#    y 0.000000 3.060540 0.000000 
#    z 0.000000 0.000000 3.457670 
# 
# 
# High freq. dielectric constant tensor:
#      x y z
#    x 1.653730 0.000000 0.000000 
#    y 0.000000 1.653730 0.000000 
#    z 0.000000 0.000000 1.684770 
# 
# From -- ./inp_files/2281.got.cif
#   From: 2010.03.12/outbox.cif.g09.slc.cpg/sg99_cif.got.tgz:2281.got - 2010.04.08 21:11:30.
