data_PCOD8306713
_publ_section_title
;
Structure prediction by ZEFSAII (Michael W. Deem and Ramdas Pophale) SiO2 
 PCOD8306713
Probable space group: P 42 C M
;
_chemical_formula_sum "Si O2"
_cell_formula_units_Z 64
_cell_length_a 12.070071
_cell_length_b 12.070071
_cell_length_c 22.812798
_cell_angle_alpha 90.000000
_cell_angle_beta 90.000000
_cell_angle_gamma 90.000000
_cell_volume 3323.519295
_symmetry_space_group_name_H-M "P 42 C M"
_symmetry_group_IT_number 101
_symmetry_cell_setting 'tetragonal'
loop_
_space_group_symop_operation_xyz
x,y,z
-y,x,1/2+z
-x,-y,z
y,-x,1/2+z
-x,y,1/2+z
x,-y,1/2+z
-y,-x,z
y,x,z
loop_
_atom_site_type_symbol
_atom_site_label
_atom_site_fract_x
_atom_site_fract_y
_atom_site_fract_z
Si Si1 0.951780 0.622921 0.718750
Si Si2 0.428167 0.896071 0.343292
Si Si3 0.262412 0.559420 0.161616
Si Si4 0.134543 0.315698 0.962189
Si Si5 0.321319 0.497561 0.285428
Si Si6 0.128507 0.492953 0.554222
Si Si7 0.080000 0.741799 0.021769
Si Si8 0.000185 0.180521 0.645773
O O1 0.937314 0.644272 0.788019
O O2 0.835279 0.638463 0.685338
O O3 0.000000 0.500000 0.707451
O O4 0.025752 0.721790 0.692522
O O5 0.349736 0.853498 0.394646
O O6 0.504239 0.793260 0.321475
O O7 0.500000 0.000000 0.366806
O O8 0.364031 0.635970 0.139665
O O9 0.299176 0.481500 0.215748
O O10 0.213693 0.486633 0.107980
O O11 0.224152 0.224152 0.977791
O O12 0.156153 0.419879 0.004029
O O13 0.012015 0.267310 0.971407
O O14 0.386621 0.613380 0.295507
O O15 0.394640 0.394640 0.307581
O O16 0.149930 0.371206 0.527605
O O17 0.000000 0.500000 0.575348
O O18 0.160937 0.839064 0.002051
O O19 0.019646 0.765826 0.082745
O O20 0.888912 0.111089 0.641793
O O21 0.103885 0.103885 0.664894
#
# Coordination Sequence:
#
# PCOD8306713 Si02
#       8
#     8   8   8   8   8   8   8   8
#     4  10  20  34  57  85 114 148 192 235 286 344
#     4  10  21  41  62  82 112 152 198 241 287 345
#     4  10  18  31  54  83 115 150 188 230 287 351
#     4  11  24  40  59  86 115 152 198 243 291 342
#     4   9  19  36  60  87 114 149 191 239 293 348
#     4  10  20  34  57  82 115 152 195 237 283 342
#     4  10  20  37  60  85 116 156 198 237 285 346
#     4  10  20  34  55  86 121 153 187 232 290 349
#
# _framework density 19.256695000000001
#
# number of rings (size 3 to 8) (size 9 to 14) (size 15 to 20)
#    0.000    2.000    1.250    3.000    1.750    3.250 
#    0.000    9.375    0.000    2.625    0.000    0.000 
#    0.000    0.000    0.000    0.000    0.000    0.000 
#
# Total GULP energy -793544.032849 kJ/mol
# GULP energy per Si atom -12399.125513 kJ/mol
# Density = 1.921287 g / cm^3
# Si number density = 19.256695 Si / 1000 Ang^3
#
#
#
# Elastic Constant Matrix: (Units=GPa)
#
#
# Indices 1 2 3 4 5 6 
#
# 1 90.1776 37.3033 36.1515 0.0000 0.0000 0.0001
# 2 37.3033 90.1776 36.1515 0.0000 0.0000 -0.0001
# 3 36.1515 36.1515 89.3915 0.0000 0.0000 0.0000
# 4 0.0000 0.0000 0.0000 22.1730 0.0000 0.0000
# 5 0.0000 0.0000 0.0000 0.0000 22.1730 0.0000
# 6 0.0001 -0.0001 0.0000 0.0000 0.0000 20.2623
#
#
#
# Elastic Compliance Matrix: (Units=1/GPa)
#
#
# Indices 1 2 3 4 5 6 
#
# 1 0.014546 -0.004367 -0.004117 0.000000 0.000000 0.000000
# 2 -0.004367 0.014546 -0.004117 0.000000 0.000000 0.000000
# 3 -0.004117 -0.004117 0.014516 0.000000 0.000000 0.000000
# 4 0.000000 0.000000 0.000000 0.045100 0.000000 0.000000
# 5 0.000000 0.000000 0.000000 0.000000 0.045100 0.000000
# 6 0.000000 0.000000 0.000000 0.000000 0.000000 0.049353
#
#
# Mechanical properties :
#
#
# Convention : Reuss Voigt Hill
#
# Bulk Modulus (GPa) = 54.32365 54.32882 54.32624
# Shear Modulus (GPa) = 23.31034 23.59768 23.45401
#
# Velocity S-wave (km/s) = 3.48301 3.50441 3.49372
# Velocity P-wave (km/s) = 6.66683 6.68197 6.67440
#
# Compressibility (1/GPa) = 0.01840819
#
# Stress axis : x y z
#
# Youngs Moduli (GPa) = 68.74762 68.74762 68.88752
#
# Poissons Ratio (x) = 0.30021 0.28358
# Poissons Ratio (y) = 0.30021 0.28358
# Poissons Ratio (z) = 0.28301 0.28301
#
# Static dielectric constant tensor:
#      x y z
#    x 3.514860 0.000000 0.000000 
#    y 0.000000 3.514860 0.000000 
#    z 0.000000 0.000000 3.405610 
# 
# 
# High freq. dielectric constant tensor:
#      x y z
#    x 1.742840 0.000000 0.000000 
#    y 0.000000 1.742840 0.000000 
#    z 0.000000 0.000000 1.738990 
# 
# From -- ./inp_files/2786.got.cif
#   From: 2010.03.12/outbox.cif.g09.slc.cpg/sg101_2_cif.got.tgz:2786.got - 2010.04.14 01:38:52.
