data_PCOD8306411
_publ_section_title
;
Structure prediction by ZEFSAII (Michael W. Deem and Ramdas Pophale) SiO2 
 PCOD8306411
Probable space group: P 4 M M
;
_chemical_formula_sum "Si O2"
_cell_formula_units_Z 52
_cell_length_a 18.324107
_cell_length_b 18.324107
_cell_length_c 9.414912
_cell_angle_alpha 90.000000
_cell_angle_beta 90.000000
_cell_angle_gamma 90.000000
_cell_volume 3161.272281
_symmetry_space_group_name_H-M "P 4 M M"
_symmetry_group_IT_number 99
_symmetry_cell_setting 'tetragonal'
loop_
_space_group_symop_operation_xyz
x,y,z
-y,x,z
-x,-y,z
y,-x,z
-x,y,z
x,-y,z
-y,-x,z
y,x,z
loop_
_atom_site_type_symbol
_atom_site_label
_atom_site_fract_x
_atom_site_fract_y
_atom_site_fract_z
Si Si1 0.000000 0.418498 0.539970
Si Si2 0.369776 0.154927 0.118734
Si Si3 0.853729 0.739743 0.882267
Si Si4 0.694773 0.000000 0.787059
Si Si5 0.358443 0.755352 0.681776
Si Si6 0.581052 0.702349 0.956858
Si Si7 0.417353 0.843715 0.417099
Si Si8 0.000000 0.419627 0.034902
O O1 0.929506 0.410332 0.442763
O O2 0.000000 0.500000 0.612820
O O3 0.000000 0.349299 0.642321
O O4 0.364373 0.177166 0.285204
O O5 0.410711 0.076184 0.120523
O O6 0.291308 0.143614 0.043530
O O7 0.410894 0.220672 0.038581
O O8 0.819889 0.819889 0.889083
O O9 0.931550 0.747882 0.807101
O O10 0.808459 0.685778 0.784297
O O11 0.633996 0.000000 0.905293
O O12 0.304336 0.695665 0.612409
O O13 0.415839 0.715981 0.786680
O O14 0.397196 0.799161 0.557632
O O15 0.500000 0.671219 0.990595
O O16 0.643660 0.643660 0.003340
O O17 0.500000 0.822839 0.375471
O O18 0.000000 0.500000 0.970321
#
# Coordination Sequence:
#
# PCOD8306411 Si02
#       8
#     4   8   8   4   8   8   8   4
#     4  10  20  30  43  71 106 135 161 191 227 280
#     4  10  20  32  47  69  99 133 162 198 241 287
#     4   9  18  33  51  71  94 124 163 202 242 288
#     4  10  17  30  50  71  94 127 158 197 242 283
#     4   9  18  31  47  67  92 123 161 201 243 291
#     4  10  20  35  52  69  91 121 163 213 260 302
#     4  11  20  30  45  68 100 132 162 195 234 284
#     4  10  18  28  45  69  96 128 165 190 225 288
#
# _framework density 16.449072999999999
#
# number of rings (size 3 to 8) (size 9 to 14) (size 15 to 20)
#    0.000    2.154    1.538    3.923    0.000    2.000 
#    0.000    0.000    0.000    0.231    0.000    0.000 
#    0.000    3.692    0.000    0.077    0.000    0.000 
#
# Total GULP energy -644284.845318 kJ/mol
# GULP energy per Si atom -12390.093179 kJ/mol
# Density = 1.641163 g / cm^3
# Si number density = 16.449073 Si / 1000 Ang^3
#
#
#
# Elastic Constant Matrix: (Units=GPa)
#
#
# Indices 1 2 3 4 5 6 
#
# 1 85.3998 51.9544 28.3630 0.0000 0.0000 0.0003
# 2 51.9544 85.3998 28.3630 0.0000 0.0000 -0.0003
# 3 28.3630 28.3630 90.5481 0.0000 0.0000 0.0000
# 4 0.0000 0.0000 0.0000 9.4668 0.0000 0.0000
# 5 0.0000 0.0000 0.0000 0.0000 9.4668 0.0000
# 6 0.0003 -0.0003 0.0000 0.0000 0.0000 18.5136
#
#
#
# Elastic Compliance Matrix: (Units=1/GPa)
#
#
# Indices 1 2 3 4 5 6 
#
# 1 0.019131 -0.010769 -0.002619 0.000000 0.000000 0.000000
# 2 -0.010769 0.019131 -0.002619 0.000000 0.000000 0.000000
# 3 -0.002619 -0.002619 0.012685 0.000000 0.000000 0.000000
# 4 0.000000 0.000000 0.000000 0.105632 0.000000 0.000000
# 5 0.000000 0.000000 0.000000 0.000000 0.105632 0.000000
# 6 0.000000 0.000000 0.000000 0.000000 0.000000 0.054014
#
#
# Mechanical properties :
#
#
# Convention : Reuss Voigt Hill
#
# Bulk Modulus (GPa) = 52.82110 53.18983 53.00547
# Shear Modulus (GPa) = 14.10237 17.66726 15.88482
#
# Velocity S-wave (km/s) = 2.93121 3.28084 3.11094
# Velocity P-wave (km/s) = 6.60587 6.83799 6.72293
#
# Compressibility (1/GPa) = 0.01893183
#
# Stress axis : x y z
#
# Youngs Moduli (GPa) = 52.27156 52.27156 78.83438
#
# Poissons Ratio (x) = 0.56289 0.20650
# Poissons Ratio (y) = 0.56289 0.20650
# Poissons Ratio (z) = 0.13692 0.13692
#
# Static dielectric constant tensor:
#      x y z
#    x 3.402090 0.000000 0.000000 
#    y 0.000000 3.402090 0.000000 
#    z 0.000000 0.000000 3.021450 
# 
# 
# High freq. dielectric constant tensor:
#      x y z
#    x 1.620080 0.000000 0.000000 
#    y 0.000000 1.620080 0.000000 
#    z 0.000000 0.000000 1.628000 
# 
# From -- ./inp_files/1033.got.cif
#   From: 2010.03.12/outbox.cif.g09.slc.cpg/sg99_cif.got.tgz:1033.got - 2010.04.08 21:11:30.
