data_PCOD8306849
_publ_section_title
;
Structure prediction by ZEFSAII (Michael W. Deem and Ramdas Pophale) SiO2 
 PCOD8306849
Probable space group: P 42 N M
;
_chemical_formula_sum "Si O2"
_cell_formula_units_Z 56
_cell_length_a 11.736476
_cell_length_b 11.736476
_cell_length_c 22.786845
_cell_angle_alpha 90.000000
_cell_angle_beta 90.000000
_cell_angle_gamma 90.000000
_cell_volume 3138.770977
_symmetry_space_group_name_H-M "P 42 N M"
_symmetry_group_IT_number 102
_symmetry_cell_setting 'tetragonal'
loop_
_space_group_symop_operation_xyz
x,y,z
1/2-y,1/2+x,1/2+z
-x,-y,z
1/2+y,1/2-x,1/2+z
1/2-x,1/2+y,1/2+z
1/2+x,1/2-y,1/2+z
-y,-x,z
y,x,z
loop_
_atom_site_type_symbol
_atom_site_label
_atom_site_fract_x
_atom_site_fract_y
_atom_site_fract_z
Si Si1 0.497941 0.169791 0.264900
Si Si2 0.738144 0.549745 0.048674
Si Si3 0.905333 0.905333 0.756588
Si Si4 0.596287 0.403714 0.125530
Si Si5 0.504619 0.679049 0.698732
Si Si6 0.189702 0.000821 0.423262
Si Si7 0.342635 0.848852 0.652775
Si Si8 0.180146 0.512089 0.806351
O O1 0.543364 0.292382 0.287009
O O2 0.456921 0.171460 0.196557
O O3 0.387914 0.132116 0.303265
O O4 0.601128 0.083801 0.276733
O O5 0.628197 0.628197 0.041874
O O6 0.706833 0.445321 0.090778
O O7 0.839478 0.613981 0.083959
O O8 0.765589 0.506871 0.983021
O O9 0.868857 0.868857 0.691004
O O10 0.000000 0.000000 0.759057
O O11 0.500000 0.500000 0.129376
O O12 0.422478 0.577523 0.680391
O O13 0.634818 0.634818 0.686768
O O14 0.466873 0.790564 0.661642
O O15 0.486292 0.705259 0.767683
O O16 0.104302 0.895699 0.416735
O O17 0.284551 0.991466 0.373019
O O18 0.119408 0.119408 0.421594
O O19 0.238715 0.761286 0.666732
#
# Coordination Sequence:
#
# PCOD8306849 Si02
#       8
#     8   8   4   4   8   8   8   8
#     4  10  21  33  48  70 102 137 170 210 259 309
#     4   9  15  26  45  74 105 127 154 200 261 326
#     4  11  20  30  52  82 103 133 167 210 262 315
#     4   9  14  24  44  72 108 125 141 196 259 321
#     4   9  17  29  47  71  99 133 173 210 243 295
#     4  10  19  30  49  76 102 131 166 205 254 313
#     4   9  16  29  50  75 104 133 163 207 265 317
#     4  10  21  34  46  67 102 142 174 207 253 308
#
# _framework density 17.841379
#
# number of rings (size 3 to 8) (size 9 to 14) (size 15 to 20)
#    0.000    2.429    2.143    1.286    2.000    2.857 
#    0.000    0.000    0.000    6.857    0.000    2.000 
#    0.000    0.000    0.000    0.000    0.571    0.000 
#
# Total GULP energy -693734.272813 kJ/mol
# GULP energy per Si atom -12388.112015 kJ/mol
# Density = 1.780077 g / cm^3
# Si number density = 17.841379 Si / 1000 Ang^3
#
#
#
# Elastic Constant Matrix: (Units=GPa)
#
#
# Indices 1 2 3 4 5 6 
#
# 1 79.0552 43.3797 39.8031 0.0000 0.0000 0.0000
# 2 43.3797 79.0552 39.8031 0.0000 0.0000 0.0000
# 3 39.8031 39.8031 114.4941 0.0000 0.0000 0.0000
# 4 0.0000 0.0000 0.0000 22.5246 0.0000 0.0000
# 5 0.0000 0.0000 0.0000 0.0000 22.5246 0.0000
# 6 0.0000 0.0000 0.0000 0.0000 0.0000 33.4081
#
#
#
# Elastic Compliance Matrix: (Units=1/GPa)
#
#
# Indices 1 2 3 4 5 6 
#
# 1 0.019292 -0.008739 -0.003669 0.000000 0.000000 0.000000
# 2 -0.008739 0.019292 -0.003669 0.000000 0.000000 0.000000
# 3 -0.003669 -0.003669 0.011285 0.000000 0.000000 0.000000
# 4 0.000000 0.000000 0.000000 0.044396 0.000000 0.000000
# 5 0.000000 0.000000 0.000000 0.000000 0.044396 0.000000
# 6 0.000000 0.000000 0.000000 0.000000 0.000000 0.029933
#
#
# Mechanical properties :
#
#
# Convention : Reuss Voigt Hill
#
# Bulk Modulus (GPa) = 56.44584 57.61956 57.03270
# Shear Modulus (GPa) = 24.19544 25.66602 24.93073
#
# Velocity S-wave (km/s) = 3.68658 3.79696 3.74218
# Velocity P-wave (km/s) = 7.05885 7.18249 7.12094
#
# Compressibility (1/GPa) = 0.01771610
#
# Stress axis : x y z
#
# Youngs Moduli (GPa) = 51.83577 51.83577 88.61446
#
# Poissons Ratio (x) = 0.45298 0.32510
# Poissons Ratio (y) = 0.45298 0.32510
# Poissons Ratio (z) = 0.19017 0.19017
#
# Static dielectric constant tensor:
#      x y z
#    x 3.448180 0.000000 0.000000 
#    y 0.000000 3.448180 0.000000 
#    z 0.000000 0.000000 3.222350 
# 
# 
# High freq. dielectric constant tensor:
#      x y z
#    x 1.678250 0.000000 0.000000 
#    y 0.000000 1.678250 0.000000 
#    z 0.000000 0.000000 1.664140 
# 
# From -- ./inp_files/3368.got.cif
#   From: 2010.03.12/outbox.cif.g09.slc.cpg/sg102_2_cif.got.tgz:3368.got - 2010.04.14 01:40:42.
