data_PCOD8306179
_publ_section_title
;
Structure prediction by ZEFSAII (Michael W. Deem and Ramdas Pophale) SiO2 
 PCOD8306179
Probable space group: I 4 2 2 
;
_chemical_formula_sum "Si O2"
_cell_formula_units_Z 56
_cell_length_a 18.045938
_cell_length_b 18.045938
_cell_length_c 7.696765
_cell_angle_alpha 90.000000
_cell_angle_beta 90.000000
_cell_angle_gamma 90.000000
_cell_volume 2506.496766
_symmetry_space_group_name_H-M "I 4 2 2 "
_symmetry_group_IT_number 97
_symmetry_cell_setting 'tetragonal'
loop_
_space_group_symop_operation_xyz
x,y,z
-y,x,z
-x,-y,z
y,-x,z
x,-y,-z
-x,y,-z
y,x,-z
-y,-x,-z
1/2+x,1/2+y,1/2+z
1/2-y,1/2+x,1/2+z
1/2-x,1/2-y,1/2+z
1/2+y,1/2-x,1/2+z
1/2+x,1/2-y,1/2-z
1/2-x,1/2+y,1/2-z
1/2+y,1/2+x,1/2-z
1/2-y,1/2-x,1/2-z
loop_
_atom_site_type_symbol
_atom_site_label
_atom_site_fract_x
_atom_site_fract_y
_atom_site_fract_z
Si Si1 0.886400 0.171627 0.319519
Si Si2 0.330182 0.169819 0.250000
Si Si3 0.922689 0.645410 0.083887
Si Si4 0.038506 0.190538 0.175685
O O1 0.849691 0.150310 0.500000
O O2 0.845273 0.243140 0.243978
O O3 0.869778 0.102143 0.197432
O O4 0.975014 0.186676 0.326449
O O5 0.362864 0.135578 0.428818
O O6 0.905788 0.594212 0.250000
O O7 0.926184 0.728063 0.161366
O O8 0.000000 0.620722 0.000000
O O9 0.000000 0.167416 0.000000
#
# Coordination Sequence:
#
# PCOD8306179 Si02
#       4
#    16   8  16  16
#     4  12  26  43  75 108 149 195 250 307 378 452
#     4  12  26  46  77 116 146 205 256 320 384 456
#     4  11  25  49  76 107 156 197 256 322 386 457
#     4  11  24  47  71 107 154 191 246 307 379 459
#
# _framework density 22.341939
#
# number of rings (size 3 to 8) (size 9 to 14) (size 15 to 20)
#    0.000    0.571    5.714    3.429    6.000    1.714 
#    0.000    5.000    0.000    0.000    0.000    0.000 
#    0.000    0.000    0.000    0.000    0.000    0.000 
#
# Total GULP energy -347125.361797 kJ/mol
# GULP energy per Si atom -12397.334350 kJ/mol
# Density = 2.229109 g / cm^3
# Si number density = 22.341939 Si / 1000 Ang^3
#
#
#
# Elastic Constant Matrix: (Units=GPa)
#
#
# Indices 1 2 3 4 5 6 
#
# 1 138.7575 20.8161 34.6943 0.0000 0.0000 0.0000
# 2 20.8161 138.7605 34.6988 0.0000 0.0000 0.0000
# 3 34.6943 34.6988 126.6368 0.0000 0.0000 0.0000
# 4 0.0000 0.0000 0.0000 39.3303 0.0000 0.0000
# 5 0.0000 0.0000 0.0000 0.0000 39.3312 0.0000
# 6 0.0000 0.0000 0.0000 0.0000 0.0000 30.7476
#
#
#
# Elastic Compliance Matrix: (Units=1/GPa)
#
#
# Indices 1 2 3 4 5 6 
#
# 1 0.007796 -0.000682 -0.001949 0.000000 0.000000 0.000000
# 2 -0.000682 0.007796 -0.001949 0.000000 0.000000 0.000000
# 3 -0.001949 -0.001949 0.008965 0.000000 0.000000 0.000000
# 4 0.000000 0.000000 0.000000 0.025426 0.000000 0.000000
# 5 0.000000 0.000000 0.000000 0.000000 0.025425 0.000000
# 6 0.000000 0.000000 0.000000 0.000000 0.000000 0.032523
#
#
# Mechanical properties :
#
#
# Convention : Reuss Voigt Hill
#
# Bulk Modulus (GPa) = 64.95008 64.95258 64.95133
# Shear Modulus (GPa) = 40.90828 42.81154 41.85991
#
# Velocity S-wave (km/s) = 4.28367 4.38219 4.33321
# Velocity P-wave (km/s) = 7.32123 7.39864 7.36004
#
# Compressibility (1/GPa) = 0.01539644
#
# Stress axis : x y z
#
# Youngs Moduli (GPa) = 128.26282 128.26330 111.54865
#
# Poissons Ratio (x) = 0.08750 0.21741
# Poissons Ratio (y) = 0.08750 0.21745
# Poissons Ratio (z) = 0.24999 0.25003
#
# Static dielectric constant tensor:
#      x y z
#    x 4.630990 0.000000 0.000000 
#    y 0.000000 4.630860 0.000000 
#    z 0.000000 0.000000 4.918420 
# 
# 
# High freq. dielectric constant tensor:
#      x y z
#    x 1.879840 0.000000 0.000000 
#    y 0.000000 1.879830 0.000000 
#    z 0.000000 0.000000 1.898670 
# 
# From -- ./inp_files/1861.got.cif
#   From: 2010.03.12/outbox.cif.g09.slc.cpg/sg97_1_cif.got.tgz:1861.got - 2010.04.08 20:59:42.
