data_PCOD8306781
_publ_section_title
;
Structure prediction by ZEFSAII (Michael W. Deem and Ramdas Pophale) SiO2 
 PCOD8306781
Probable space group: P 42 C M
;
_chemical_formula_sum "Si O2"
_cell_formula_units_Z 64
_cell_length_a 12.014851
_cell_length_b 12.014851
_cell_length_c 22.670510
_cell_angle_alpha 90.000000
_cell_angle_beta 90.000000
_cell_angle_gamma 90.000000
_cell_volume 3272.638754
_symmetry_space_group_name_H-M "P 42 C M"
_symmetry_group_IT_number 101
_symmetry_cell_setting 'tetragonal'
loop_
_space_group_symop_operation_xyz
x,y,z
-y,x,1/2+z
-x,-y,z
y,-x,1/2+z
-x,y,1/2+z
x,-y,1/2+z
-y,-x,z
y,x,z
loop_
_atom_site_type_symbol
_atom_site_label
_atom_site_fract_x
_atom_site_fract_y
_atom_site_fract_z
Si Si1 0.657428 0.157342 0.861120
Si Si2 0.588384 0.761500 0.014802
Si Si3 0.496011 0.869223 0.131667
Si Si4 0.179466 0.998770 0.544593
Si Si5 0.495392 0.674790 0.405093
Si Si6 0.915243 0.738304 0.665807
Si Si7 0.020753 0.627647 0.457638
Si Si8 0.316097 0.866560 0.724269
O O1 0.761919 0.238082 0.878765
O O2 0.536180 0.209632 0.876473
O O3 0.650927 0.140006 0.792028
O O4 0.662751 0.038313 0.895730
O O5 0.688931 0.688931 0.041181
O O6 0.525338 0.815092 0.069378
O O7 0.503282 0.686999 0.976533
O O8 0.639336 0.845757 0.964466
O O9 0.369665 0.839942 0.149923
O O10 0.580796 0.830085 0.182802
O O11 0.500000 0.000000 0.122700
O O12 0.124351 0.875650 0.536120
O O13 0.288099 0.026120 0.506497
O O14 0.217549 0.010971 0.611685
O O15 0.089625 0.089625 0.526360
O O16 0.372816 0.627185 0.384877
O O17 0.584635 0.584635 0.385688
O O18 0.832327 0.832327 0.689311
O O19 0.004032 0.713608 0.716542
O O20 0.000000 0.500000 0.475386
O O21 0.212162 0.787839 0.709314
#
# Coordination Sequence:
#
# PCOD8306781 Si02
#       8
#     8   8   8   8   8   8   8   8
#     4  10  22  39  60  81 108 153 200 236 283 348
#     4  11  21  34  55  86 116 150 188 235 293 341
#     4  10  21  36  56  83 117 151 187 233 285 344
#     4  10  21  37  57  80 112 155 195 231 278 342
#     4   9  19  36  56  81 112 148 191 234 282 346
#     4  10  21  37  59  87 118 150 188 237 293 348
#     4  12  21  33  52  84 116 146 182 239 292 344
#     4  10  21  40  63  84 108 150 200 242 284 338
#
# _framework density 19.556086000000001
#
# number of rings (size 3 to 8) (size 9 to 14) (size 15 to 20)
#    0.000    1.750    1.250    4.125    0.000    2.750 
#    0.000    1.875    0.000    3.375    0.000    0.000 
#    0.000    0.000    0.000    0.000    0.000    0.000 
#
# Total GULP energy -792876.387600 kJ/mol
# GULP energy per Si atom -12388.693556 kJ/mol
# Density = 1.951158 g / cm^3
# Si number density = 19.556086 Si / 1000 Ang^3
#
#
#
# Elastic Constant Matrix: (Units=GPa)
#
#
# Indices 1 2 3 4 5 6 
#
# 1 83.7599 31.6638 43.9356 0.0000 0.0000 0.0003
# 2 31.6638 83.7599 43.9356 0.0000 0.0000 -0.0003
# 3 43.9356 43.9356 89.4859 0.0000 0.0000 0.0000
# 4 0.0000 0.0000 0.0000 27.3962 0.0000 0.0000
# 5 0.0000 0.0000 0.0000 0.0000 27.3962 0.0000
# 6 0.0003 -0.0003 0.0000 0.0000 0.0000 28.3677
#
#
#
# Elastic Compliance Matrix: (Units=1/GPa)
#
#
# Indices 1 2 3 4 5 6 
#
# 1 0.016515 -0.002680 -0.006793 0.000000 0.000000 0.000000
# 2 -0.002680 0.016515 -0.006793 0.000000 0.000000 0.000000
# 3 -0.006793 -0.006793 0.017845 0.000000 0.000000 0.000000
# 4 0.000000 0.000000 0.000000 0.036501 0.000000 0.000000
# 5 0.000000 0.000000 0.000000 0.000000 0.036501 0.000000
# 6 0.000000 0.000000 0.000000 0.000000 0.000000 0.035251
#
#
# Mechanical properties :
#
#
# Convention : Reuss Voigt Hill
#
# Bulk Modulus (GPa) = 54.51285 55.11952 54.81619
# Shear Modulus (GPa) = 25.28126 25.79675 25.53900
#
# Velocity S-wave (km/s) = 3.59939 3.63590 3.61769
# Velocity P-wave (km/s) = 6.72382 6.77296 6.74844
#
# Compressibility (1/GPa) = 0.01834430
#
# Stress axis : x y z
#
# Youngs Moduli (GPa) = 60.55060 60.55060 56.03807
#
# Poissons Ratio (x) = 0.16229 0.38065
# Poissons Ratio (y) = 0.16229 0.38065
# Poissons Ratio (z) = 0.41130 0.41130
#
# Static dielectric constant tensor:
#      x y z
#    x 3.948780 0.000000 0.000000 
#    y 0.000000 3.948780 0.000000 
#    z 0.000000 0.000000 3.321780 
# 
# 
# High freq. dielectric constant tensor:
#      x y z
#    x 1.766700 0.000000 0.000000 
#    y 0.000000 1.766700 0.000000 
#    z 0.000000 0.000000 1.741310 
# 
# From -- ./inp_files/2817.got.cif
#   From: 2010.03.12/outbox.cif.g09.slc.cpg/sg101_2_cif.got.tgz:2817.got - 2010.04.14 01:38:52.
