data_PCOD8306114
_publ_section_title
;
Structure prediction by ZEFSAII (Michael W. Deem and Ramdas Pophale) SiO2 
 PCOD8306114
Probable space group: I 4 2 2 
;
_chemical_formula_sum "Si O2"
_cell_formula_units_Z 88
_cell_length_a 18.711324
_cell_length_b 18.711324
_cell_length_c 13.327364
_cell_angle_alpha 90.000000
_cell_angle_beta 90.000000
_cell_angle_gamma 90.000000
_cell_volume 4666.091999
_symmetry_space_group_name_H-M "I 4 2 2 "
_symmetry_group_IT_number 97
_symmetry_cell_setting 'tetragonal'
loop_
_space_group_symop_operation_xyz
x,y,z
-y,x,z
-x,-y,z
y,-x,z
x,-y,-z
-x,y,-z
y,x,-z
-y,-x,-z
1/2+x,1/2+y,1/2+z
1/2-y,1/2+x,1/2+z
1/2-x,1/2-y,1/2+z
1/2+y,1/2-x,1/2+z
1/2+x,1/2-y,1/2-z
1/2-x,1/2+y,1/2-z
1/2+y,1/2+x,1/2-z
1/2-y,1/2-x,1/2-z
loop_
_atom_site_type_symbol
_atom_site_label
_atom_site_fract_x
_atom_site_fract_y
_atom_site_fract_z
Si Si1 0.416504 0.847245 0.504824
Si Si2 0.053596 0.226335 0.369210
Si Si3 0.616682 0.500000 0.000000
Si Si4 0.190852 0.190852 0.500000
Si Si5 0.650963 0.000000 0.500000
Si Si6 0.761539 0.360870 0.683678
Si Si7 0.815713 0.273661 0.142323
O O1 0.500000 0.841566 0.500000
O O2 0.396320 0.930126 0.524099
O O3 0.385774 0.815482 0.401579
O O4 0.392044 0.795796 0.596122
O O5 0.995367 0.165325 0.397777
O O6 0.120241 0.199198 0.434696
O O7 0.020700 0.301877 0.403005
O O8 0.073760 0.231342 0.251374
O O9 0.570695 0.570695 0.000000
O O10 0.188599 0.258140 0.572263
O O11 0.805882 0.305882 0.750000
O O12 0.695415 0.312977 0.641607
O O13 0.809814 0.309814 0.250000
#
# Coordination Sequence:
#
# PCOD8306114 Si02
#       7
#    16  16   8   8   8  16  16
#     4  12  25  40  55  87 127 168 201 243 307 377
#     4  11  21  35  65  87 114 161 202 252 313 366
#     4  10  22  37  55  90 132 154 186 254 322 382
#     4  12  16  36  61  90 112 144 209 260 312 338
#     4  11  21  39  61  77 123 170 206 238 295 373
#     4  11  19  40  64  86 114 151 205 266 308 345
#     4  11  20  36  65  87 111 151 208 268 305 348
#
# _framework density 18.859463999999999
#
# number of rings (size 3 to 8) (size 9 to 14) (size 15 to 20)
#    0.000    0.818   10.000    0.273    0.000    1.455 
#    3.273    0.000    0.000    0.000    0.000    0.000 
#    0.000    1.455    0.000    0.000    0.000    0.000 
#
# Total GULP energy -545302.627502 kJ/mol
# GULP energy per Si atom -12393.241534 kJ/mol
# Density = 1.881654 g / cm^3
# Si number density = 18.859464 Si / 1000 Ang^3
#
#
#
# Elastic Constant Matrix: (Units=GPa)
#
#
# Indices 1 2 3 4 5 6 
#
# 1 104.0045 52.1099 37.3582 0.0000 0.0000 0.0000
# 2 52.1099 104.0045 37.3582 0.0000 0.0000 0.0000
# 3 37.3582 37.3582 89.2619 0.0000 0.0000 0.0000
# 4 0.0000 0.0000 0.0000 29.7409 0.0000 0.0000
# 5 0.0000 0.0000 0.0000 0.0000 29.7409 0.0000
# 6 0.0000 0.0000 0.0000 0.0000 0.0000 21.8080
#
#
#
# Elastic Compliance Matrix: (Units=1/GPa)
#
#
# Indices 1 2 3 4 5 6 
#
# 1 0.013640 -0.005630 -0.003352 0.000000 0.000000 0.000000
# 2 -0.005630 0.013640 -0.003352 0.000000 0.000000 0.000000
# 3 -0.003352 -0.003352 0.014009 0.000000 0.000000 0.000000
# 4 0.000000 0.000000 0.000000 0.033624 0.000000 0.000000
# 5 0.000000 0.000000 0.000000 0.000000 0.033624 0.000000
# 6 0.000000 0.000000 0.000000 0.000000 0.000000 0.045855
#
#
# Mechanical properties :
#
#
# Convention : Reuss Voigt Hill
#
# Bulk Modulus (GPa) = 60.16995 61.21374 60.69184
# Shear Modulus (GPa) = 27.08553 27.62092 27.35322
#
# Velocity S-wave (km/s) = 3.79380 3.83112 3.81251
# Velocity P-wave (km/s) = 7.15292 7.21791 7.18549
#
# Compressibility (1/GPa) = 0.01661959
#
# Stress axis : x y z
#
# Youngs Moduli (GPa) = 73.31423 73.31423 71.38226
#
# Poissons Ratio (x) = 0.41275 0.23930
# Poissons Ratio (y) = 0.41275 0.23930
# Poissons Ratio (z) = 0.24578 0.24578
#
# Static dielectric constant tensor:
#      x y z
#    x 3.878670 0.000000 0.000000 
#    y 0.000000 3.878670 0.000000 
#    z 0.000000 0.000000 -14.797640 
# 
# 
# High freq. dielectric constant tensor:
#      x y z
#    x 1.730240 0.000000 0.000000 
#    y 0.000000 1.730240 0.000000 
#    z 0.000000 0.000000 1.722390 
# 
# From -- ./inp_files/4907.got.cif
#   From: 2010.03.12/outbox.cif.g09.slc.cpg/sg97_3_cif.got.tgz:4907.got - 2010.04.08 20:59:42.
