data_PCOD8306624
_publ_section_title
;
Structure prediction by ZEFSAII (Michael W. Deem and Ramdas Pophale) SiO2 
 PCOD8306624
Probable space group: P 4 B M
;
_chemical_formula_sum "Si O2"
_cell_formula_units_Z 64
_cell_length_a 17.354367
_cell_length_b 17.354367
_cell_length_c 11.553565
_cell_angle_alpha 90.000000
_cell_angle_beta 90.000000
_cell_angle_gamma 90.000000
_cell_volume 3479.634009
_symmetry_space_group_name_H-M "P 4 B M"
_symmetry_group_IT_number 100
_symmetry_cell_setting 'tetragonal'
loop_
_space_group_symop_operation_xyz
x,y,z
-y,x,z
-x,-y,z
y,-x,z
1/2-x,1/2+y,z
1/2+x,1/2-y,z
1/2-y,1/2-x,z
1/2+y,1/2+x,z
loop_
_atom_site_type_symbol
_atom_site_label
_atom_site_fract_x
_atom_site_fract_y
_atom_site_fract_z
Si Si1 0.819268 0.192604 0.317230
Si Si2 0.694292 0.073752 0.537099
Si Si3 0.415602 0.210771 0.144538
Si Si4 0.242299 0.132455 0.897664
Si Si5 0.337662 0.654347 0.564998
Si Si6 0.195999 0.579965 0.670149
Si Si7 0.085140 0.907482 0.780089
Si Si8 0.072749 0.301401 0.271588
O O1 0.755545 0.255545 0.358305
O O2 0.880650 0.227447 0.231300
O O3 0.867211 0.161528 0.428416
O O4 0.775330 0.123532 0.250834
O O5 0.610416 0.110416 0.558199
O O6 0.756661 0.137875 0.570689
O O7 0.700441 0.044335 0.404989
O O8 0.708829 0.003860 0.621913
O O9 0.369752 0.130249 0.148807
O O10 0.503108 0.195710 0.181256
O O11 0.411124 0.249189 0.018884
O O12 0.281638 0.218363 0.902681
O O13 0.287906 0.078735 0.806965
O O14 0.152002 0.136054 0.858358
O O15 0.252100 0.643108 0.613111
O O16 0.393938 0.600910 0.642843
O O17 0.109030 0.609030 0.645446
O O18 0.995155 0.892142 0.808449
O O19 0.122676 0.377325 0.247583
#
# Coordination Sequence:
#
# PCOD8306624 Si02
#       8
#     8   8   8   8   8   8   8   8
#     4   9  18  32  51  75 102 136 175 213 254 305
#     4  10  20  33  51  78 109 138 170 211 261 319
#     4  10  20  35  55  76 101 137 179 219 260 308
#     4   9  20  37  54  74 101 136 181 221 253 304
#     4  10  17  31  52  75 102 131 167 206 251 310
#     4  10  19  32  51  73  99 133 171 213 260 308
#     4  10  21  36  55  80 109 137 168 214 269 318
#     4   9  19  34  52  78 109 136 169 217 266 313
#
# _framework density 18.392738999999999
#
# number of rings (size 3 to 8) (size 9 to 14) (size 15 to 20)
#    0.000    2.375    0.000    4.125    0.000    5.000 
#    0.000    1.875    0.000    2.625    0.000    0.000 
#    0.000    0.000    0.000    0.000    0.000    0.000 
#
# Total GULP energy -793217.754648 kJ/mol
# GULP energy per Si atom -12394.027416 kJ/mol
# Density = 1.835088 g / cm^3
# Si number density = 18.392739 Si / 1000 Ang^3
#
#
#
# Elastic Constant Matrix: (Units=GPa)
#
#
# Indices 1 2 3 4 5 6 
#
# 1 81.3126 31.9846 47.6060 0.0000 0.0000 0.0002
# 2 31.9846 81.3126 47.6060 0.0000 0.0000 -0.0002
# 3 47.6060 47.6060 106.3987 0.0000 0.0000 0.0000
# 4 0.0000 0.0000 0.0000 24.7689 0.0000 0.0000
# 5 0.0000 0.0000 0.0000 0.0000 24.7689 0.0000
# 6 0.0002 -0.0002 0.0000 0.0000 0.0000 22.7483
#
#
#
# Elastic Compliance Matrix: (Units=1/GPa)
#
#
# Indices 1 2 3 4 5 6 
#
# 1 0.017209 -0.003064 -0.006329 0.000000 0.000000 0.000000
# 2 -0.003064 0.017209 -0.006329 0.000000 0.000000 0.000000
# 3 -0.006329 -0.006329 0.015062 0.000000 0.000000 0.000000
# 4 0.000000 0.000000 0.000000 0.040373 0.000000 0.000000
# 5 0.000000 0.000000 0.000000 0.000000 0.040373 0.000000
# 6 0.000000 0.000000 0.000000 0.000000 0.000000 0.043959
#
#
# Mechanical properties :
#
#
# Convention : Reuss Voigt Hill
#
# Bulk Modulus (GPa) = 55.44322 58.15748 56.80035
# Shear Modulus (GPa) = 23.62498 23.91238 23.76868
#
# Velocity S-wave (km/s) = 3.58784 3.60960 3.59874
# Velocity P-wave (km/s) = 6.88281 7.00434 6.94384
#
# Compressibility (1/GPa) = 0.01803647
#
# Stress axis : x y z
#
# Youngs Moduli (GPa) = 58.11009 58.11009 66.39183
#
# Poissons Ratio (x) = 0.17803 0.42019
# Poissons Ratio (y) = 0.17803 0.42019
# Poissons Ratio (z) = 0.36777 0.36777
#
# Static dielectric constant tensor:
#      x y z
#    x 3.286220 0.000000 0.000000 
#    y 0.000000 3.286220 0.000000 
#    z 0.000000 0.000000 3.421920 
# 
# 
# High freq. dielectric constant tensor:
#      x y z
#    x 1.704350 0.000000 0.000000 
#    y 0.000000 1.704350 0.000000 
#    z 0.000000 0.000000 1.708500 
# 
# From -- ./inp_files/1382.got.cif
#   From: 2010.03.12/outbox.cif.g09.slc.cpg/sg100_cif.got.tgz:1382.got - 2010.04.14 01:37:57.
