data_PCOD8306725
_publ_section_title
;
Structure prediction by ZEFSAII (Michael W. Deem and Ramdas Pophale) SiO2 
 PCOD8306725
Probable space group: P 42 C M
;
_chemical_formula_sum "Si O2"
_cell_formula_units_Z 56
_cell_length_a 24.547445
_cell_length_b 24.547445
_cell_length_c 5.279273
_cell_angle_alpha 90.000000
_cell_angle_beta 90.000000
_cell_angle_gamma 90.000000
_cell_volume 3181.168782
_symmetry_space_group_name_H-M "P 42 C M"
_symmetry_group_IT_number 101
_symmetry_cell_setting 'tetragonal'
loop_
_space_group_symop_operation_xyz
x,y,z
-y,x,1/2+z
-x,-y,z
y,-x,1/2+z
-x,y,1/2+z
x,-y,1/2+z
-y,-x,z
y,x,z
loop_
_atom_site_type_symbol
_atom_site_label
_atom_site_fract_x
_atom_site_fract_y
_atom_site_fract_z
Si Si1 0.317543 0.118838 0.808260
Si Si2 0.623133 0.714517 0.340123
Si Si3 0.464586 0.626717 0.820878
Si Si4 0.982091 0.746240 0.817060
Si Si5 0.758235 0.666921 0.840512
Si Si6 0.933221 0.354009 0.803805
Si Si7 0.522453 0.058716 0.891980
O O1 0.262211 0.082816 0.831233
O O2 0.305239 0.182530 0.836177
O O3 0.341814 0.108411 0.531498
O O4 0.355406 0.099547 0.039690
O O5 0.669380 0.669380 0.336653
O O6 0.564522 0.685438 0.338280
O O7 0.628608 0.750515 0.594313
O O8 0.629498 0.751855 0.090268
O O9 0.492466 0.621501 0.547462
O O10 0.421613 0.578388 0.850199
O O11 0.997438 0.779516 0.562872
O O12 0.015625 0.688083 0.798002
O O13 0.715669 0.715669 0.840650
O O14 0.953546 0.414467 0.846987
O O15 0.507403 0.090068 0.156775
O O16 0.500000 0.000000 0.966629
#
# Coordination Sequence:
#
# PCOD8306725 Si02
#       7
#     8   8   8   8   8   8   8
#     4  10  19  29  49  66  87 111 138 186 240 258
#     4   9  19  35  55  73  90 117 155 179 206 262
#     4  11  22  36  56  82 103 125 143 162 202 258
#     4   8  16  25  42  59  84 110 141 173 216 256
#     4  10  19  34  54  75  91 113 153 201 232 264
#     4  10  19  31  44  64  88 115 152 182 218 267
#     4  10  21  27  43  60  76 108 149 179 218 238
#
# _framework density 17.603591000000002
#
# number of rings (size 3 to 8) (size 9 to 14) (size 15 to 20)
#    0.000    2.286    0.000    3.000   12.000    3.143 
#    0.000    0.000    0.000   17.143    0.000    0.000 
#    0.000    0.000    0.000    0.000    0.000    0.000 
#
# Total GULP energy -693819.776810 kJ/mol
# GULP energy per Si atom -12389.638872 kJ/mol
# Density = 1.756352 g / cm^3
# Si number density = 17.603591 Si / 1000 Ang^3
#
#
#
# Elastic Constant Matrix: (Units=GPa)
#
#
# Indices 1 2 3 4 5 6 
#
# 1 57.4167 2.2430 14.0445 0.0000 0.0000 0.0000
# 2 2.2430 57.4167 14.0445 0.0000 0.0000 0.0000
# 3 14.0445 14.0445 139.0049 0.0000 0.0000 0.0000
# 4 0.0000 0.0000 0.0000 15.9693 0.0000 0.0000
# 5 0.0000 0.0000 0.0000 0.0000 15.9693 0.0000
# 6 0.0000 0.0000 0.0000 0.0000 0.0000 4.3382
#
#
#
# Elastic Compliance Matrix: (Units=1/GPa)
#
#
# Indices 1 2 3 4 5 6 
#
# 1 0.017862 -0.000263 -0.001778 0.000000 0.000000 0.000000
# 2 -0.000263 0.017862 -0.001778 0.000000 0.000000 0.000000
# 3 -0.001778 -0.001778 0.007553 0.000000 0.000000 0.000000
# 4 0.000000 0.000000 0.000000 0.062620 0.000000 0.000000
# 5 0.000000 0.000000 0.000000 0.000000 0.062620 0.000000
# 6 0.000000 0.000000 0.000000 0.000000 0.000000 0.230511
#
#
# Mechanical properties :
#
#
# Convention : Reuss Voigt Hill
#
# Bulk Modulus (GPa) = 28.05946 34.94470 31.50208
# Shear Modulus (GPa) = 11.94614 22.15579 17.05096
#
# Velocity S-wave (km/s) = 2.60786 3.55152 3.11562
# Velocity P-wave (km/s) = 5.00421 6.05902 5.55670
#
# Compressibility (1/GPa) = 0.03563860
#
# Stress axis : x y z
#
# Youngs Moduli (GPa) = 55.98560 55.98560 132.39243
#
# Poissons Ratio (x) = 0.01472 0.23541
# Poissons Ratio (y) = 0.01472 0.23541
# Poissons Ratio (z) = 0.09955 0.09955
#
# Static dielectric constant tensor:
#      x y z
#    x 2.895920 0.000000 0.000000 
#    y 0.000000 2.895920 0.000000 
#    z 0.000000 0.000000 4.246200 
# 
# 
# High freq. dielectric constant tensor:
#      x y z
#    x 1.632630 0.000000 0.000000 
#    y 0.000000 1.632630 0.000000 
#    z 0.000000 0.000000 1.726360 
# 
# From -- ./inp_files/196.got.cif
#   From: 2010.03.12/outbox.cif.g09.slc.cpg/sg101_1_cif.got.tgz:196.got - 2010.04.14 01:38:52.
