data_PCOD8306704
_publ_section_title
;
Structure prediction by ZEFSAII (Michael W. Deem and Ramdas Pophale) SiO2 
 PCOD8306704
Probable space group: P 42 C M
;
_chemical_formula_sum "Si O2"
_cell_formula_units_Z 64
_cell_length_a 13.777833
_cell_length_b 13.777833
_cell_length_c 19.387385
_cell_angle_alpha 90.000000
_cell_angle_beta 90.000000
_cell_angle_gamma 90.000000
_cell_volume 3680.281745
_symmetry_space_group_name_H-M "P 42 C M"
_symmetry_group_IT_number 101
_symmetry_cell_setting 'tetragonal'
loop_
_space_group_symop_operation_xyz
x,y,z
-y,x,1/2+z
-x,-y,z
y,-x,1/2+z
-x,y,1/2+z
x,-y,1/2+z
-y,-x,z
y,x,z
loop_
_atom_site_type_symbol
_atom_site_label
_atom_site_fract_x
_atom_site_fract_y
_atom_site_fract_z
Si Si1 0.577086 0.736340 0.228420
Si Si2 0.387643 0.234556 0.472704
Si Si3 0.842712 0.305949 0.377897
Si Si4 0.034034 0.604504 0.901526
Si Si5 0.135353 0.712441 0.217336
Si Si6 0.734555 0.578388 0.622068
Si Si7 0.045714 0.397857 0.239496
Si Si8 0.534559 0.693380 0.867705
O O1 0.669879 0.669879 0.240897
O O2 0.521777 0.706316 0.158867
O O3 0.614084 0.845200 0.213412
O O4 0.504202 0.724996 0.292834
O O5 0.282970 0.282970 0.485490
O O6 0.363806 0.129572 0.441457
O O7 0.441785 0.221295 0.546134
O O8 0.446707 0.306119 0.421838
O O9 0.797476 0.202525 0.401088
O O10 0.842652 0.315750 0.295561
O O11 0.773493 0.393817 0.400087
O O12 0.947520 0.317362 0.413683
O O13 0.055936 0.601065 0.821286
O O14 0.000000 0.500000 0.928804
O O15 0.177092 0.822909 0.203028
O O16 0.189084 0.637711 0.167843
O O17 0.019086 0.693096 0.209764
O O18 0.634509 0.634509 0.613176
O O19 0.000000 0.500000 0.214013
O O20 0.588502 0.588502 0.862766
#
# Coordination Sequence:
#
# PCOD8306704 Si02
#       8
#     8   8   8   8   8   8   8   8
#     4  12  22  34  53  79 106 138 181 231 274 311
#     4  11  23  36  51  75 110 148 180 216 263 320
#     4   9  16  29  55  82 104 130 172 226 268 307
#     4  10  17  32  52  76 105 137 173 216 269 313
#     4   9  16  31  54  77 101 134 177 217 261 313
#     4  10  21  37  52  73 107 144 180 216 261 320
#     4  10  17  31  54  79 104 134 172 222 268 310
#     4  11  20  34  53  75 103 143 187 218 260 324
#
# _framework density 17.389972
#
# number of rings (size 3 to 8) (size 9 to 14) (size 15 to 20)
#    0.000    1.750    5.000    1.500    0.000    2.250 
#    2.250    1.250    0.000    0.750    0.000    3.500 
#    0.000    3.000    0.000    0.125    0.000    0.000 
#
# Total GULP energy -793087.180808 kJ/mol
# GULP energy per Si atom -12391.987200 kJ/mol
# Density = 1.735039 g / cm^3
# Si number density = 17.389972 Si / 1000 Ang^3
#
#
#
# Elastic Constant Matrix: (Units=GPa)
#
#
# Indices 1 2 3 4 5 6 
#
# 1 95.2557 59.1990 28.1477 0.0000 0.0000 0.0000
# 2 59.1990 95.2557 28.1477 0.0000 0.0000 0.0000
# 3 28.1477 28.1477 59.4140 0.0000 0.0000 0.0000
# 4 0.0000 0.0000 0.0000 18.4268 0.0000 0.0000
# 5 0.0000 0.0000 0.0000 0.0000 18.4268 0.0000
# 6 0.0000 0.0000 0.0000 0.0000 0.0000 22.9776
#
#
#
# Elastic Compliance Matrix: (Units=1/GPa)
#
#
# Indices 1 2 3 4 5 6 
#
# 1 0.017780 -0.009954 -0.003707 0.000000 0.000000 0.000000
# 2 -0.009954 0.017780 -0.003707 0.000000 0.000000 0.000000
# 3 -0.003707 -0.003707 0.020344 0.000000 0.000000 0.000000
# 4 0.000000 0.000000 0.000000 0.054269 0.000000 0.000000
# 5 0.000000 0.000000 0.000000 0.000000 0.054269 0.000000
# 6 0.000000 0.000000 0.000000 0.000000 0.000000 0.043521
#
#
# Mechanical properties :
#
#
# Convention : Reuss Voigt Hill
#
# Bulk Modulus (GPa) = 47.24685 53.43493 50.34089
# Shear Modulus (GPa) = 20.01960 20.92831 20.47395
#
# Velocity S-wave (km/s) = 3.39664 3.47287 3.43496
# Velocity P-wave (km/s) = 6.52770 6.84655 6.68902
#
# Compressibility (1/GPa) = 0.02116543
#
# Stress axis : x y z
#
# Youngs Moduli (GPa) = 56.24338 56.24338 49.15471
#
# Poissons Ratio (x) = 0.55986 0.18224
# Poissons Ratio (y) = 0.55986 0.18224
# Poissons Ratio (z) = 0.20852 0.20852
#
# Static dielectric constant tensor:
#      x y z
#    x 3.299520 0.000000 0.000000 
#    y 0.000000 3.299520 0.000000 
#    z 0.000000 0.000000 3.104080 
# 
# 
# High freq. dielectric constant tensor:
#      x y z
#    x 1.659340 0.000000 0.000000 
#    y 0.000000 1.659340 0.000000 
#    z 0.000000 0.000000 1.650820 
# 
# From -- ./inp_files/2276.got.cif
#   From: 2010.03.12/outbox.cif.g09.slc.cpg/sg101_2_cif.got.tgz:2276.got - 2010.04.14 01:38:52.
