data_PCOD8306034
_publ_section_title
;
Structure prediction by ZEFSAII (Michael W. Deem and Ramdas Pophale) SiO2 
 PCOD8306034
Probable space group: I 4 2 2 
;
_chemical_formula_sum "Si O2"
_cell_formula_units_Z 72
_cell_length_a 11.681795
_cell_length_b 11.681795
_cell_length_c 31.106404
_cell_angle_alpha 90.000000
_cell_angle_beta 90.000000
_cell_angle_gamma 90.000000
_cell_volume 4244.914718
_symmetry_space_group_name_H-M "I 4 2 2 "
_symmetry_group_IT_number 97
_symmetry_cell_setting 'tetragonal'
loop_
_space_group_symop_operation_xyz
x,y,z
-y,x,z
-x,-y,z
y,-x,z
x,-y,-z
-x,y,-z
y,x,-z
-y,-x,-z
1/2+x,1/2+y,1/2+z
1/2-y,1/2+x,1/2+z
1/2-x,1/2-y,1/2+z
1/2+y,1/2-x,1/2+z
1/2+x,1/2-y,1/2-z
1/2-x,1/2+y,1/2-z
1/2+y,1/2+x,1/2-z
1/2-y,1/2-x,1/2-z
loop_
_atom_site_type_symbol
_atom_site_label
_atom_site_fract_x
_atom_site_fract_y
_atom_site_fract_z
Si Si1 0.372469 0.986228 0.312710
Si Si2 0.146351 0.741797 0.175299
Si Si3 0.710870 0.082367 0.131150
Si Si4 0.200930 0.299070 0.250000
Si Si5 0.508113 0.311326 0.452599
O O1 0.381908 0.919186 0.358385
O O2 0.295731 0.913369 0.279368
O O3 0.500000 0.000000 0.292957
O O4 0.314847 0.108448 0.322621
O O5 0.207959 0.806810 0.135663
O O6 0.185708 0.799735 0.220100
O O7 0.010324 0.750923 0.167482
O O8 0.714950 0.024580 0.083949
O O9 0.616666 0.393447 0.446738
O O10 0.500000 0.254006 0.500000
#
# Coordination Sequence:
#
# PCOD8306034 Si02
#       5
#    16  16  16   8  16
#     4   9  20  34  50  67  97 139 174 205 260 310
#     4  10  21  31  51  70  98 130 177 212 252 314
#     4  10  18  33  52  76  99 136 169 215 258 313
#     4  10  21  32  53  68  92 134 180 222 253 300
#     4   9  16  27  48  78 109 136 161 206 262 315
#
# _framework density 16.961472000000001
#
# number of rings (size 3 to 8) (size 9 to 14) (size 15 to 20)
#    0.000    2.444    2.222    1.000    9.333    0.444 
#    0.000    0.000    0.000   16.667    0.000    0.000 
#    0.000    0.000    0.000    0.000   62.222    0.000 
#
# Total GULP energy -446033.080893 kJ/mol
# GULP energy per Si atom -12389.807803 kJ/mol
# Density = 1.692287 g / cm^3
# Si number density = 16.961472 Si / 1000 Ang^3
#
#
#
# Elastic Constant Matrix: (Units=GPa)
#
#
# Indices 1 2 3 4 5 6 
#
# 1 74.5366 38.3804 40.8547 0.0000 0.0000 0.0000
# 2 38.3804 74.5366 40.8546 0.0000 0.0000 0.0000
# 3 40.8547 40.8546 131.4846 0.0000 0.0000 0.0000
# 4 0.0000 0.0000 0.0000 23.4009 0.0000 0.0000
# 5 0.0000 0.0000 0.0000 0.0000 23.4010 0.0000
# 6 0.0000 0.0000 0.0000 0.0000 0.0000 21.0972
#
#
#
# Elastic Compliance Matrix: (Units=1/GPa)
#
#
# Indices 1 2 3 4 5 6 
#
# 1 0.019541 -0.008116 -0.003550 0.000000 0.000000 0.000000
# 2 -0.008116 0.019541 -0.003550 0.000000 0.000000 0.000000
# 3 -0.003550 -0.003550 0.009811 0.000000 0.000000 0.000000
# 4 0.000000 0.000000 0.000000 0.042733 0.000000 0.000000
# 5 0.000000 0.000000 0.000000 0.000000 0.042733 0.000000
# 6 0.000000 0.000000 0.000000 0.000000 0.000000 0.047400
#
#
# Mechanical properties :
#
#
# Convention : Reuss Voigt Hill
#
# Bulk Modulus (GPa) = 54.16661 57.85971 56.01316
# Shear Modulus (GPa) = 22.89934 24.27769 23.58851
#
# Velocity S-wave (km/s) = 3.67833 3.78741 3.73327
# Velocity P-wave (km/s) = 7.07422 7.30154 7.18878
#
# Compressibility (1/GPa) = 0.01846156
#
# Stress axis : x y z
#
# Youngs Moduli (GPa) = 51.17360 51.17366 101.92127
#
# Poissons Ratio (x) = 0.41535 0.36181
# Poissons Ratio (y) = 0.41535 0.36181
# Poissons Ratio (z) = 0.18166 0.18166
#
# Static dielectric constant tensor:
#      x y z
#    x 3.115990 0.000000 0.000000 
#    y 0.000000 3.115990 0.000000 
#    z 0.000000 0.000000 3.222780 
# 
# 
# High freq. dielectric constant tensor:
#      x y z
#    x 1.634600 0.000000 0.000000 
#    y 0.000000 1.634600 0.000000 
#    z 0.000000 0.000000 1.645940 
# 
# From -- ./inp_files/7900.got.cif
#   From: 2010.03.12/outbox.cif.g09.slc.cpg/sg97_4_cif.got.tgz:7900.got - 2010.04.08 20:59:42.
