data_PCOD8306586
_publ_section_title
;
Structure prediction by ZEFSAII (Michael W. Deem and Ramdas Pophale) SiO2 
 PCOD8306586
Probable space group: P 4 M M
;
_chemical_formula_sum "Si O2"
_cell_formula_units_Z 64
_cell_length_a 13.743358
_cell_length_b 13.743358
_cell_length_c 20.549211
_cell_angle_alpha 90.000000
_cell_angle_beta 90.000000
_cell_angle_gamma 90.000000
_cell_volume 3881.332695
_symmetry_space_group_name_H-M "P 4 M M"
_symmetry_group_IT_number 99
_symmetry_cell_setting 'tetragonal'
loop_
_space_group_symop_operation_xyz
x,y,z
-y,x,z
-x,-y,z
y,-x,z
-x,y,z
x,-y,z
-y,-x,z
y,x,z
loop_
_atom_site_type_symbol
_atom_site_label
_atom_site_fract_x
_atom_site_fract_y
_atom_site_fract_z
Si Si1 0.764926 0.610857 0.804240
Si Si2 0.112546 0.267708 0.044716
Si Si3 0.613611 0.109395 0.311722
Si Si4 0.386450 0.111465 0.923280
Si Si5 0.731947 0.112025 0.188644
Si Si6 0.276688 0.884052 0.550422
Si Si7 0.615737 0.226168 0.438978
Si Si8 0.613670 0.227442 0.657391
O O1 0.743599 0.500000 0.819918
O O2 0.661612 0.661612 0.809861
O O3 0.837308 0.654828 0.858344
O O4 0.808624 0.624460 0.731903
O O5 0.164416 0.164416 0.038315
O O6 0.131528 0.313587 0.116651
O O7 0.000000 0.246901 0.033513
O O8 0.154002 0.339491 0.989301
O O9 0.500000 0.108764 0.301207
O O10 0.657573 0.147634 0.243868
O O11 0.643133 0.182768 0.368809
O O12 0.650172 0.000000 0.328750
O O13 0.500000 0.127997 0.930825
O O14 0.358755 0.000000 0.914472
O O15 0.832773 0.167228 0.197666
O O16 0.757786 0.000000 0.197665
O O17 0.173213 0.826788 0.548377
O O18 0.345065 0.851544 0.490900
O O19 0.336655 0.857438 0.615370
O O20 0.257265 0.000000 0.547893
O O21 0.500000 0.241657 0.447931
O O22 0.670079 0.329922 0.447660
O O23 0.500000 0.242488 0.638657
O O24 0.670016 0.329985 0.645417
#
# Coordination Sequence:
#
# PCOD8306586 Si02
#       8
#     8   8   8   8   8   8   8   8
#     4   9  17  29  45  65  90 118 147 180 217 259
#     4   9  17  28  42  60  82 110 142 176 217 263
#     4   9  17  29  46  67  89 115 148 184 222 263
#     4   9  17  28  42  61  84 110 142 180 221 263
#     4   9  17  28  42  61  85 112 142 177 217 262
#     4  10  21  36  53  73  96 122 154 191 229 270
#     4  10  20  33  50  72  97 125 156 189 226 268
#     4   9  18  31  47  70  97 124 155 188 224 268
#
# _framework density 16.489182
#
# number of rings (size 3 to 8) (size 9 to 14) (size 15 to 20)
#    0.000    2.750    0.000    1.500    0.000    3.250 
#    0.000    6.250    0.000    2.250    0.000    1.750 
#    0.000    3.000    0.000   23.250    0.000    0.625 
#
# Total GULP energy -793246.822400 kJ/mol
# GULP energy per Si atom -12394.481600 kJ/mol
# Density = 1.645165 g / cm^3
# Si number density = 16.489182 Si / 1000 Ang^3
#
#
#
# Elastic Constant Matrix: (Units=GPa)
#
#
# Indices 1 2 3 4 5 6 
#
# 1 71.3103 45.1210 52.3433 0.0000 0.0000 0.0000
# 2 45.1210 71.3103 52.3433 0.0000 0.0000 0.0000
# 3 52.3433 52.3433 132.8358 0.0000 0.0000 0.0000
# 4 0.0000 0.0000 0.0000 26.1309 0.0000 0.0000
# 5 0.0000 0.0000 0.0000 0.0000 26.1309 0.0000
# 6 0.0000 0.0000 0.0000 0.0000 0.0000 19.9814
#
#
#
# Elastic Compliance Matrix: (Units=1/GPa)
#
#
# Indices 1 2 3 4 5 6 
#
# 1 0.025742 -0.012441 -0.005241 0.000000 0.000000 0.000000
# 2 -0.012441 0.025742 -0.005241 0.000000 0.000000 0.000000
# 3 -0.005241 -0.005241 0.011659 0.000000 0.000000 0.000000
# 4 0.000000 0.000000 0.000000 0.038269 0.000000 0.000000
# 5 0.000000 0.000000 0.000000 0.000000 0.038269 0.000000
# 6 0.000000 0.000000 0.000000 0.000000 0.000000 0.050046
#
#
# Mechanical properties :
#
#
# Convention : Reuss Voigt Hill
#
# Bulk Modulus (GPa) = 57.81637 63.89685 60.85661
# Shear Modulus (GPa) = 20.71759 22.82524 21.77142
#
# Velocity S-wave (km/s) = 3.54847 3.72459 3.63760
# Velocity P-wave (km/s) = 7.20612 7.57177 7.39121
#
# Compressibility (1/GPa) = 0.01729614
#
# Stress axis : x y z
#
# Youngs Moduli (GPa) = 38.84632 38.84632 85.77247
#
# Poissons Ratio (x) = 0.48329 0.44956
# Poissons Ratio (y) = 0.48329 0.44956
# Poissons Ratio (z) = 0.20361 0.20361
#
# Static dielectric constant tensor:
#      x y z
#    x 3.009280 0.000000 0.000000 
#    y 0.000000 3.009280 0.000000 
#    z 0.000000 0.000000 3.518240 
# 
# 
# High freq. dielectric constant tensor:
#      x y z
#    x 1.621060 0.000000 0.000000 
#    y 0.000000 1.621060 0.000000 
#    z 0.000000 0.000000 1.655430 
# 
# From -- ./inp_files/2124.got.cif
#   From: 2010.03.12/outbox.cif.g09.slc.cpg/sg99_cif.got.tgz:2124.got - 2010.04.08 21:11:30.
