data_PCOD8306773
_publ_section_title
;
Structure prediction by ZEFSAII (Michael W. Deem and Ramdas Pophale) SiO2 
 PCOD8306773
Probable space group: P 42 C M
;
_chemical_formula_sum "Si O2"
_cell_formula_units_Z 34
_cell_length_a 10.976779
_cell_length_b 10.976779
_cell_length_c 10.312438
_cell_angle_alpha 90.000000
_cell_angle_beta 90.000000
_cell_angle_gamma 90.000000
_cell_volume 1242.542326
_symmetry_space_group_name_H-M "P 42 C M"
_symmetry_group_IT_number 101
_symmetry_cell_setting 'tetragonal'
loop_
_space_group_symop_operation_xyz
x,y,z
-y,x,1/2+z
-x,-y,z
y,-x,1/2+z
-x,y,1/2+z
x,-y,1/2+z
-y,-x,z
y,x,z
loop_
_atom_site_type_symbol
_atom_site_label
_atom_site_fract_x
_atom_site_fract_y
_atom_site_fract_z
Si Si1 0.994899 0.800669 0.868800
Si Si2 0.500000 0.500000 0.842679
Si Si3 0.136107 0.488289 0.801975
Si Si4 0.316567 0.316567 0.945568
Si Si5 0.679944 0.320057 0.739198
Si Si6 0.102453 0.696350 0.112529
O O1 0.100832 0.899169 0.858124
O O2 0.987261 0.737391 0.729119
O O3 0.026165 0.703043 0.980609
O O4 0.867261 0.867261 0.905559
O O5 0.419621 0.419621 0.938702
O O6 0.577349 0.422652 0.740729
O O7 0.196403 0.371786 0.875851
O O8 0.204189 0.619877 0.815988
O O9 0.137998 0.444384 0.648886
O O10 0.000000 0.500000 0.855909
O O11 0.285080 0.285080 0.093761
O O12 0.223421 0.776580 0.103282
#
# Coordination Sequence:
#
# PCOD8306773 Si02
#       6
#     8   2   8   4   4   8
#     4   9  18  34  60  95 141 193 244 296 369 446
#     4   8  18  40  68 106 140 176 238 308 354 426
#     4  11  25  46  70 105 146 183 242 305 360 438
#     4  10  21  43  73 101 142 189 236 299 372 436
#     4  10  23  43  73 105 136 193 244 293 371 442
#     4  10  20  38  62  98 140 188 240 308 365 435
#
# _framework density 27.363251999999999
#
# number of rings (size 3 to 8) (size 9 to 14) (size 15 to 20)
#    0.000    2.118    1.176    1.059    0.000    7.529 
#    4.235    0.000    0.000    0.706    0.000    1.647 
#    0.000    0.000    0.000    0.000    0.000    0.000 
#
# Total GULP energy -421495.567062 kJ/mol
# GULP energy per Si atom -12396.928443 kJ/mol
# Density = 2.730097 g / cm^3
# Si number density = 27.363252 Si / 1000 Ang^3
#
#
#
# Elastic Constant Matrix: (Units=GPa)
#
#
# Indices 1 2 3 4 5 6 
#
# 1 142.4718 53.5754 35.1859 0.0000 0.0000 0.0007
# 2 53.5754 142.4718 35.1859 0.0000 0.0000 -0.0007
# 3 35.1859 35.1859 103.0766 0.0000 0.0000 0.0000
# 4 0.0000 0.0000 0.0000 39.7027 0.0000 0.0000
# 5 0.0000 0.0000 0.0000 0.0000 39.7027 0.0000
# 6 0.0007 -0.0007 0.0000 0.0000 0.0000 6.0463
#
#
#
# Elastic Compliance Matrix: (Units=1/GPa)
#
#
# Indices 1 2 3 4 5 6 
#
# 1 0.008531 -0.002718 -0.001984 0.000000 0.000000 -0.000001
# 2 -0.002718 0.008531 -0.001984 0.000000 0.000000 0.000001
# 3 -0.001984 -0.001984 0.011056 0.000000 0.000000 0.000000
# 4 0.000000 0.000000 0.000000 0.025187 0.000000 0.000000
# 5 0.000000 0.000000 0.000000 0.000000 0.025187 0.000000
# 6 -0.000001 0.000001 0.000000 0.000000 0.000000 0.165391
#
#
# Mechanical properties :
#
#
# Convention : Reuss Voigt Hill
#
# Bulk Modulus (GPa) = 67.81916 70.65717 69.23817
# Shear Modulus (GPa) = 19.07140 34.69519 26.88330
#
# Velocity S-wave (km/s) = 2.64289 3.56469 3.13782
# Velocity P-wave (km/s) = 5.84394 6.54375 6.20372
#
# Compressibility (1/GPa) = 0.01474510
#
# Stress axis : x y z
#
# Youngs Moduli (GPa) = 117.21853 117.21853 90.44649
#
# Poissons Ratio (x) = 0.31860 0.17948
# Poissons Ratio (y) = 0.31860 0.17948
# Poissons Ratio (z) = 0.23260 0.23260
#
# Static dielectric constant tensor:
#      x y z
#    x 5.360010 0.000000 0.000000 
#    y 0.000000 5.360010 0.000000 
#    z 0.000000 0.000000 4.646360 
# 
# 
# High freq. dielectric constant tensor:
#      x y z
#    x 2.122080 0.000000 0.000000 
#    y 0.000000 2.122080 0.000000 
#    z 0.000000 0.000000 2.082920 
# 
# From -- ./inp_files/1168.got.cif
#   From: 2010.03.12/outbox.cif.g09.slc.cpg/sg101_1_cif.got.tgz:1168.got - 2010.04.14 01:38:52.
