data_PCOD8306458
_publ_section_title
;
Structure prediction by ZEFSAII (Michael W. Deem and Ramdas Pophale) SiO2 
 PCOD8306458
Probable space group: P 4 M M
;
_chemical_formula_sum "Si O2"
_cell_formula_units_Z 64
_cell_length_a 13.993828
_cell_length_b 13.993828
_cell_length_c 20.689241
_cell_angle_alpha 90.000000
_cell_angle_beta 90.000000
_cell_angle_gamma 90.000000
_cell_volume 4051.516592
_symmetry_space_group_name_H-M "P 4 M M"
_symmetry_group_IT_number 99
_symmetry_cell_setting 'tetragonal'
loop_
_space_group_symop_operation_xyz
x,y,z
-y,x,z
-x,-y,z
y,-x,z
-x,y,z
x,-y,z
-y,-x,z
y,x,z
loop_
_atom_site_type_symbol
_atom_site_label
_atom_site_fract_x
_atom_site_fract_y
_atom_site_fract_z
Si Si1 0.612912 0.106170 0.160660
Si Si2 0.232138 0.613320 0.794914
Si Si3 0.613495 0.894013 0.533188
Si Si4 0.893149 0.386864 0.676126
Si Si5 0.613447 0.230853 0.039234
Si Si6 0.612803 0.107156 0.916887
Si Si7 0.239157 0.390622 0.421970
Si Si8 0.609925 0.765732 0.277289
O O1 0.500000 0.096669 0.157355
O O2 0.647385 0.173595 0.102587
O O3 0.645214 0.151648 0.228856
O O4 0.658444 0.000000 0.154648
O O5 0.252629 0.500000 0.795410
O O6 0.333521 0.666480 0.801623
O O7 0.181218 0.649919 0.729405
O O8 0.162792 0.645210 0.852847
O O9 0.500000 0.896739 0.527118
O O10 0.643375 0.856256 0.604534
O O11 0.656622 0.829395 0.475903
O O12 0.655150 0.000000 0.523558
O O13 0.899782 0.500000 0.681178
O O14 0.000000 0.345331 0.688591
O O15 0.500000 0.251975 0.038479
O O16 0.667740 0.332261 0.036885
O O17 0.646794 0.166468 0.979006
O O18 0.500000 0.097423 0.918122
O O19 0.657605 0.000000 0.917619
O O20 0.258323 0.500000 0.438407
O O21 0.341663 0.341663 0.425541
O O22 0.194363 0.377209 0.350334
O O23 0.500000 0.738017 0.263580
O O24 0.670130 0.670130 0.265358
#
# Coordination Sequence:
#
# PCOD8306458 Si02
#       8
#     8   8   8   8   8   8   8   8
#     4   9  17  29  44  61  82 109 141 179 220 253
#     4  10  19  29  42  62  89 119 147 173 203 245
#     4   8  14  25  41  59  78 103 137 177 221 259
#     4   8  14  26  43  60  78 103 138 181 222 252
#     4  10  19  30  45  66  93 122 148 172 200 241
#     4   9  17  30  47  64  83 110 145 184 220 247
#     4   9  17  27  39  57  83 115 146 173 202 241
#     4   9  17  28  41  59  84 113 144 175 206 246
#
# _framework density 15.796552999999999
#
# number of rings (size 3 to 8) (size 9 to 14) (size 15 to 20)
#    0.000    3.000    0.000    2.250    0.000    4.500 
#    0.000    3.750    0.000    4.500    0.000    3.500 
#    0.000   29.500    0.000   11.000    0.000    5.000 
#
# Total GULP energy -793206.783193 kJ/mol
# GULP energy per Si atom -12393.855987 kJ/mol
# Density = 1.576060 g / cm^3
# Si number density = 15.796553 Si / 1000 Ang^3
#
#
#
# Elastic Constant Matrix: (Units=GPa)
#
#
# Indices 1 2 3 4 5 6 
#
# 1 65.0366 36.5314 47.2667 0.0000 0.0000 0.0000
# 2 36.5314 65.0366 47.2667 0.0000 0.0000 0.0000
# 3 47.2667 47.2667 136.4691 0.0000 0.0000 0.0000
# 4 0.0000 0.0000 0.0000 19.1818 0.0000 0.0000
# 5 0.0000 0.0000 0.0000 0.0000 19.1818 0.0000
# 6 0.0000 0.0000 0.0000 0.0000 0.0000 4.8827
#
#
#
# Elastic Compliance Matrix: (Units=1/GPa)
#
#
# Indices 1 2 3 4 5 6 
#
# 1 0.024805 -0.010276 -0.005032 0.000000 0.000000 0.000000
# 2 -0.010276 0.024805 -0.005032 0.000000 0.000000 0.000000
# 3 -0.005032 -0.005032 0.010814 0.000000 0.000000 0.000000
# 4 0.000000 0.000000 0.000000 0.052133 0.000000 0.000000
# 5 0.000000 0.000000 0.000000 0.000000 0.052133 0.000000
# 6 0.000000 0.000000 0.000000 0.000000 0.000000 0.204806
#
#
# Mechanical properties :
#
#
# Convention : Reuss Voigt Hill
#
# Bulk Modulus (GPa) = 50.65057 58.74131 54.69594
# Shear Modulus (GPa) = 11.99736 17.68110 14.83923
#
# Velocity S-wave (km/s) = 2.75888 3.34923 3.06828
# Velocity P-wave (km/s) = 6.50250 7.22657 6.87407
#
# Compressibility (1/GPa) = 0.01974312
#
# Stress axis : x y z
#
# Youngs Moduli (GPa) = 40.31395 40.31395 92.47613
#
# Poissons Ratio (x) = 0.41426 0.46537
# Poissons Ratio (y) = 0.41426 0.46537
# Poissons Ratio (z) = 0.20287 0.20287
#
# Static dielectric constant tensor:
#      x y z
#    x 2.805820 0.000000 0.000000 
#    y 0.000000 2.805820 0.000000 
#    z 0.000000 0.000000 3.406350 
# 
# 
# High freq. dielectric constant tensor:
#      x y z
#    x 1.572460 0.000000 0.000000 
#    y 0.000000 1.572460 0.000000 
#    z 0.000000 0.000000 1.630480 
# 
# From -- ./inp_files/2322.got.cif
#   From: 2010.03.12/outbox.cif.g09.slc.cpg/sg99_cif.got.tgz:2322.got - 2010.04.08 21:11:30.
