data_PCOD8306938
_publ_section_title
;
Structure prediction by ZEFSAII (Michael W. Deem and Ramdas Pophale) SiO2 
 PCOD8306938
Probable space group: P 42 N M
;
_chemical_formula_sum "Si O2"
_cell_formula_units_Z 40
_cell_length_a 13.899399
_cell_length_b 13.899399
_cell_length_c 9.650890
_cell_angle_alpha 90.000000
_cell_angle_beta 90.000000
_cell_angle_gamma 90.000000
_cell_volume 1864.487215
_symmetry_space_group_name_H-M "P 42 N M"
_symmetry_group_IT_number 102
_symmetry_cell_setting 'tetragonal'
loop_
_space_group_symop_operation_xyz
x,y,z
1/2-y,1/2+x,1/2+z
-x,-y,z
1/2+y,1/2-x,1/2+z
1/2-x,1/2+y,1/2+z
1/2+x,1/2-y,1/2+z
-y,-x,z
y,x,z
loop_
_atom_site_type_symbol
_atom_site_label
_atom_site_fract_x
_atom_site_fract_y
_atom_site_fract_z
Si Si1 0.286878 0.437006 0.742970
Si Si2 0.255886 0.101155 0.041168
Si Si3 0.286879 0.437007 0.339366
Si Si4 0.790135 0.552913 0.041168
Si Si5 0.182753 0.666692 0.041168
O O1 0.391262 0.391262 0.706101
O O2 0.276677 0.543191 0.678466
O O3 0.204205 0.370085 0.678627
O O4 0.276639 0.436353 0.907416
O O5 0.203901 0.203901 0.041169
O O6 0.223323 0.043191 0.903871
O O7 0.370175 0.122309 0.041168
O O8 0.391263 0.391263 0.376234
O O9 0.276639 0.436354 0.174920
O O10 0.204206 0.370085 0.403709
O O11 0.832506 0.446457 0.041167
O O12 0.293533 0.706468 0.041167
#
# Coordination Sequence:
#
# PCOD8306938 Si02
#       5
#     8   8   8   8   8
#     4  10  22  40  62  88 121 159 200 248 299 358
#     4  11  24  42  63  86 121 167 202 238 299 369
#     4  10  22  40  62  88 121 159 200 248 299 358
#     4  12  22  36  64  94 121 154 202 257 302 347
#     4   9  21  42  61  83 120 160 194 239 307 369
#
# _framework density 21.453617999999999
#
# number of rings (size 3 to 8) (size 9 to 14) (size 15 to 20)
#    0.000    1.600    0.000    6.000    0.000    9.600 
#    0.000    8.000    0.000    6.600    0.000    0.000 
#    0.000    0.000    0.000    0.000    0.000    0.000 
#
# Total GULP energy -495946.349794 kJ/mol
# GULP energy per Si atom -12398.658745 kJ/mol
# Density = 2.140479 g / cm^3
# Si number density = 21.453618 Si / 1000 Ang^3
#
#
#
# Elastic Constant Matrix: (Units=GPa)
#
#
# Indices 1 2 3 4 5 6 
#
# 1 109.1683 65.4990 28.3741 0.0000 0.0000 0.0002
# 2 65.4990 109.1683 28.3741 0.0000 0.0000 -0.0002
# 3 28.3741 28.3741 161.9419 0.0000 0.0000 0.0000
# 4 0.0000 0.0000 0.0000 85.7506 0.0000 0.0000
# 5 0.0000 0.0000 0.0000 0.0000 85.7506 0.0000
# 6 0.0002 -0.0002 0.0000 0.0000 0.0000 28.3553
#
#
#
# Elastic Compliance Matrix: (Units=1/GPa)
#
#
# Indices 1 2 3 4 5 6 
#
# 1 0.014485 -0.008414 -0.001064 0.000000 0.000000 0.000000
# 2 -0.008414 0.014485 -0.001064 0.000000 0.000000 0.000000
# 3 -0.001064 -0.001064 0.006548 0.000000 0.000000 0.000000
# 4 0.000000 0.000000 0.000000 0.011662 0.000000 0.000000
# 5 0.000000 0.000000 0.000000 0.000000 0.011662 0.000000
# 6 0.000000 0.000000 0.000000 0.000000 0.000000 0.035267
#
#
# Mechanical properties :
#
#
# Convention : Reuss Voigt Hill
#
# Bulk Modulus (GPa) = 69.27790 69.41922 69.34856
# Shear Modulus (GPa) = 41.66563 57.17340 49.41951
#
# Velocity S-wave (km/s) = 4.41174 5.16794 4.80474
# Velocity P-wave (km/s) = 7.63631 8.24853 7.94832
#
# Compressibility (1/GPa) = 0.01443462
#
# Stress axis : x y z
#
# Youngs Moduli (GPa) = 69.03664 69.03664 152.72341
#
# Poissons Ratio (x) = 0.58090 0.16245
# Poissons Ratio (y) = 0.58090 0.16245
# Poissons Ratio (z) = 0.07343 0.07343
#
# Static dielectric constant tensor:
#      x y z
#    x 3.752520 0.000000 0.000000 
#    y 0.000000 3.752520 0.000000 
#    z 0.000000 0.000000 4.511280 
# 
# 
# High freq. dielectric constant tensor:
#      x y z
#    x 1.832070 0.000000 0.000000 
#    y 0.000000 1.832070 0.000000 
#    z 0.000000 0.000000 1.858520 
# 
# From -- ./inp_files/915.got.cif
#   From: 2010.03.12/outbox.cif.g09.slc.cpg/sg102_1_cif.got.tgz:915.got - 2010.04.14 01:40:42.
