data_PCOD8306649
_publ_section_title
;
Structure prediction by ZEFSAII (Michael W. Deem and Ramdas Pophale) SiO2 
 PCOD8306649
Probable space group: P 4 B M
;
_chemical_formula_sum "Si O2"
_cell_formula_units_Z 48
_cell_length_a 18.133482
_cell_length_b 18.133482
_cell_length_c 5.343219
_cell_angle_alpha 90.000000
_cell_angle_beta 90.000000
_cell_angle_gamma 90.000000
_cell_volume 1756.974207
_symmetry_space_group_name_H-M "P 4 B M"
_symmetry_group_IT_number 100
_symmetry_cell_setting 'tetragonal'
loop_
_space_group_symop_operation_xyz
x,y,z
-y,x,z
-x,-y,z
y,-x,z
1/2-x,1/2+y,z
1/2+x,1/2-y,z
1/2-y,1/2-x,z
1/2+y,1/2+x,z
loop_
_atom_site_type_symbol
_atom_site_label
_atom_site_fract_x
_atom_site_fract_y
_atom_site_fract_z
Si Si1 0.550359 0.829126 0.359580
Si Si2 0.061604 0.204719 0.102039
Si Si3 0.739962 0.119282 0.589972
Si Si4 0.378718 0.999045 0.862394
Si Si5 0.118680 0.822089 0.382747
Si Si6 0.884094 0.961359 0.826511
O O1 0.593751 0.906250 0.371537
O O2 0.499418 0.827336 0.612776
O O3 0.608842 0.763694 0.326466
O O4 0.499675 0.828024 0.109951
O O5 0.084127 0.256265 0.867350
O O6 0.975125 0.174530 0.060329
O O7 0.058795 0.251488 0.360859
O O8 0.123976 0.137898 0.141218
O O9 0.664089 0.164089 0.560014
O O10 0.809410 0.174341 0.563828
O O11 0.424793 0.924793 0.858536
O O12 0.428856 0.071145 0.864383
O O13 0.049371 0.848044 0.554974
O O14 0.952380 0.907366 0.841102
#
# Coordination Sequence:
#
# PCOD8306649 Si02
#       6
#     8   8   8   8   8   8
#     4  10  20  33  59  94 127 168 217 286 351 413
#     4  10  23  41  63 100 130 180 225 282 364 427
#     4  10  21  41  68  98 136 175 224 287 357 433
#     4   9  18  33  54  85 125 170 217 267 343 429
#     4  10  24  40  65 101 134 171 232 298 359 429
#     4  11  23  45  69  96 138 185 239 298 358 423
#
# _framework density 27.319694999999999
#
# number of rings (size 3 to 8) (size 9 to 14) (size 15 to 20)
#    1.000    1.000    1.667    1.500    2.333    4.667 
#    0.000    3.333    0.000    6.000    0.000    0.000 
#    0.000    0.000    0.000    0.000    0.000    0.000 
#
# Total GULP energy -595113.398536 kJ/mol
# GULP energy per Si atom -12398.195803 kJ/mol
# Density = 2.725751 g / cm^3
# Si number density = 27.319695 Si / 1000 Ang^3
#
#
#
# Elastic Constant Matrix: (Units=GPa)
#
#
# Indices 1 2 3 4 5 6 
#
# 1 -2055.4076 2170.6949 88.6134 0.0000 0.0000 -0.0342
# 2 2170.6949-2055.4076 88.6134 0.0000 0.0000 0.0342
# 3 88.6134 88.6134 234.0479 0.0000 0.0000 0.0000
# 4 0.0000 0.0000 0.0000 47.0784 0.0000 0.0000
# 5 0.0000 0.0000 0.0000 0.0000 47.0784 0.0000
# 6 -0.0342 0.0342 0.0000 0.0000 0.0000 7.4738
#
#
#
# Elastic Compliance Matrix: (Units=1/GPa)
#
#
# Indices 1 2 3 4 5 6 
#
# 1 0.010258 0.010495 -0.007857 0.000000 0.000000 -0.000001
# 2 0.010495 0.010258 -0.007857 0.000000 0.000000 0.000001
# 3 -0.007857 -0.007857 0.010222 0.000000 0.000000 0.000000
# 4 0.000000 0.000000 0.000000 0.021241 0.000000 0.000000
# 5 0.000000 0.000000 0.000000 0.000000 0.021241 0.000000
# 6 -0.000001 0.000001 0.000000 0.000000 0.000000 0.133801
#
#
# Mechanical properties :
#
#
# Convention : Reuss Voigt Hill
#
# Bulk Modulus (GPa) = 49.26438 91.00847 70.13642
# Shear Modulus (GPa) = 22.29885 -394.65315 -186.17715
#
# Velocity S-wave (km/s) = 2.86005 -12.03208 -8.26411
# Velocity P-wave (km/s) = 5.38314 12.63500 8.08285
#
# Compressibility (1/GPa) = 0.02029864
#
# Stress axis : x y z
#
# Youngs Moduli (GPa) = 97.48550 97.48550 97.82570
#
# Poissons Ratio (x) = -1.02307 0.76863
# Poissons Ratio (y) = -1.02307 0.76863
# Poissons Ratio (z) = 0.76596 0.76596
#
# Static dielectric constant tensor:
#      x y z
#    x 4.941090 0.000000 0.000000 
#    y 0.000000 4.941090 0.000000 
#    z 0.000000 0.000000 5.253840 
# 
# 
# High freq. dielectric constant tensor:
#      x y z
#    x 2.129540 0.000000 0.000000 
#    y 0.000000 2.129540 0.000000 
#    z 0.000000 0.000000 2.129630 
# 
# From -- ./inp_files/418.got.cif
#   From: 2010.03.12/outbox.cif.g09.slc.cpg/sg100_cif.got.tgz:418.got - 2010.04.14 01:37:57.
