data_PCOD8306958
_publ_section_title
;
Structure prediction by ZEFSAII (Michael W. Deem and Ramdas Pophale) SiO2 
 PCOD8306958
Probable space group: P 42 N M
;
_chemical_formula_sum "Si O2"
_cell_formula_units_Z 48
_cell_length_a 12.793042
_cell_length_b 12.793042
_cell_length_c 17.693233
_cell_angle_alpha 90.000000
_cell_angle_beta 90.000000
_cell_angle_gamma 90.000000
_cell_volume 2895.708548
_symmetry_space_group_name_H-M "P 42 N M"
_symmetry_group_IT_number 102
_symmetry_cell_setting 'tetragonal'
loop_
_space_group_symop_operation_xyz
x,y,z
1/2-y,1/2+x,1/2+z
-x,-y,z
1/2+y,1/2-x,1/2+z
1/2-x,1/2+y,1/2+z
1/2+x,1/2-y,1/2+z
-y,-x,z
y,x,z
loop_
_atom_site_type_symbol
_atom_site_label
_atom_site_fract_x
_atom_site_fract_y
_atom_site_fract_z
Si Si1 0.152467 0.539596 0.035470
Si Si2 0.847533 0.460404 0.480194
Si Si3 0.813423 0.641078 0.672095
Si Si4 0.998219 0.833514 0.431156
Si Si5 0.333514 0.501782 0.584509
Si Si6 0.686577 0.141078 0.343569
O O1 0.150962 0.583862 0.120396
O O2 0.110133 0.420799 0.035100
O O3 0.269697 0.542860 0.003609
O O4 0.079201 0.610134 0.980563
O O5 0.730303 0.457140 0.512056
O O6 0.849038 0.416138 0.395268
O O7 0.745457 0.745457 0.662722
O O8 0.744974 0.539819 0.648947
O O9 0.851006 0.625785 0.757832
O O10 0.902983 0.902983 0.398033
O O11 0.039819 0.755026 0.366718
O O12 0.091919 0.908082 0.459274
O O13 0.402982 0.597019 0.617633
O O14 0.408083 0.408083 0.556392
O O15 0.754543 0.245458 0.352942
#
# Coordination Sequence:
#
# PCOD8306958 Si02
#       6
#     8   8   8   8   8   8
#     4   9  17  30  46  67  90 117 152 185 220 261
#     4   9  17  30  46  67  90 117 152 185 220 261
#     4   9  17  29  47  70  94 120 147 179 221 264
#     4   9  17  29  46  67  90 118 151 185 221 263
#     4   9  17  29  46  67  90 118 151 185 221 263
#     4   9  17  29  47  70  94 120 147 179 221 264
#
# _framework density 16.576252
#
# number of rings (size 3 to 8) (size 9 to 14) (size 15 to 20)
#    0.000    3.000    0.000    1.000    0.000    2.000 
#    0.000   16.667    0.000    1.000    0.000    4.667 
#    0.000    0.000    0.000    0.000    0.000    0.000 
#
# Total GULP energy -595047.312973 kJ/mol
# GULP energy per Si atom -12396.819020 kJ/mol
# Density = 1.653852 g / cm^3
# Si number density = 16.576252 Si / 1000 Ang^3
#
#
#
# Elastic Constant Matrix: (Units=GPa)
#
#
# Indices 1 2 3 4 5 6 
#
# 1 70.3878 22.5113 51.4611 0.0000 0.0000 -0.0002
# 2 22.5113 70.3878 51.4611 0.0000 0.0000 0.0002
# 3 51.4611 51.4611 139.3443 0.0000 0.0000 0.0000
# 4 0.0000 0.0000 0.0000 20.5898 0.0000 0.0000
# 5 0.0000 0.0000 0.0000 0.0000 20.5898 0.0000
# 6 -0.0002 0.0002 0.0000 0.0000 0.0000 15.5443
#
#
#
# Elastic Compliance Matrix: (Units=1/GPa)
#
#
# Indices 1 2 3 4 5 6 
#
# 1 0.019553 -0.001334 -0.006728 0.000000 0.000000 0.000000
# 2 -0.001334 0.019553 -0.006728 0.000000 0.000000 0.000000
# 3 -0.006728 -0.006728 0.012146 0.000000 0.000000 0.000000
# 4 0.000000 0.000000 0.000000 0.048568 0.000000 0.000000
# 5 0.000000 0.000000 0.000000 0.000000 0.048568 0.000000
# 6 0.000000 0.000000 0.000000 0.000000 0.000000 0.064332
#
#
# Mechanical properties :
#
#
# Convention : Reuss Voigt Hill
#
# Bulk Modulus (GPa) = 46.14650 58.99854 52.57252
# Shear Modulus (GPa) = 20.03810 21.65719 20.84765
#
# Velocity S-wave (km/s) = 3.48062 3.61850 3.55023
# Velocity P-wave (km/s) = 6.63719 7.28886 6.97065
#
# Compressibility (1/GPa) = 0.02167012
#
# Stress axis : x y z
#
# Youngs Moduli (GPa) = 51.14349 51.14349 82.33103
#
# Poissons Ratio (x) = 0.06824 0.55395
# Poissons Ratio (y) = 0.06824 0.55395
# Poissons Ratio (z) = 0.34411 0.34411
#
# Static dielectric constant tensor:
#      x y z
#    x 3.200810 0.000000 0.000000 
#    y 0.000000 3.200810 0.000000 
#    z 0.000000 0.000000 2.919850 
# 
# 
# High freq. dielectric constant tensor:
#      x y z
#    x 1.639340 0.000000 0.000000 
#    y 0.000000 1.639340 0.000000 
#    z 0.000000 0.000000 1.609340 
# 
# From -- ./inp_files/2707.got.cif
#   From: 2010.03.12/outbox.cif.g09.slc.cpg/sg102_2_cif.got.tgz:2707.got - 2010.04.14 01:40:42.
