data_PCOD8306981
_publ_section_title
;
Structure prediction by ZEFSAII (Michael W. Deem and Ramdas Pophale) SiO2 
 PCOD8306981
Probable space group: P 4 C C
;
_chemical_formula_sum "Si O2"
_cell_formula_units_Z 32
_cell_length_a 13.592777
_cell_length_b 13.592777
_cell_length_c 9.316283
_cell_angle_alpha 90.000000
_cell_angle_beta 90.000000
_cell_angle_gamma 90.000000
_cell_volume 1721.309861
_symmetry_space_group_name_H-M "P 4 C C"
_symmetry_group_IT_number 103
_symmetry_cell_setting 'tetragonal'
loop_
_space_group_symop_operation_xyz
x,y,z
-y,x,z
-x,-y,z
y,-x,z
-x,y,1/2+z
x,-y,1/2+z
-y,-x,1/2+z
y,x,1/2+z
loop_
_atom_site_type_symbol
_atom_site_label
_atom_site_fract_x
_atom_site_fract_y
_atom_site_fract_z
Si Si1 0.596415 0.724448 0.519290
Si Si2 0.208602 0.205973 0.926376
Si Si3 0.726611 0.409029 0.851111
Si Si4 0.861529 0.914910 0.177829
O O1 0.689245 0.799869 0.510272
O O2 0.567962 0.704209 0.684466
O O3 0.626959 0.623353 0.436356
O O4 0.504349 0.770139 0.432258
O O5 0.186833 0.113011 0.026776
O O6 0.319343 0.194733 0.862504
O O7 0.127995 0.207952 0.801161
O O8 0.968587 0.865951 0.190504
#
# Coordination Sequence:
#
# PCOD8306981 Si02
#       4
#     8   8   8   8
#     4  10  20  35  59  87 120 159 197 235 285 341
#     4  10  20  39  57  88 124 152 184 248 294 342
#     4  10  20  35  59  87 120 159 197 235 285 341
#     4  11  22  38  64  92 113 146 196 248 303 354
#
# _framework density 18.590492000000001
#
# number of rings (size 3 to 8) (size 9 to 14) (size 15 to 20)
#    1.500    0.250    2.500    3.000    3.500    2.500 
#    0.000    2.500    0.000    9.000    0.000    0.000 
#    0.000    0.000    0.000    0.000    0.000    0.000 
#
# Total GULP energy -396557.346592 kJ/mol
# GULP energy per Si atom -12392.417081 kJ/mol
# Density = 1.854818 g / cm^3
# Si number density = 18.590492 Si / 1000 Ang^3
#
#
#
# Elastic Constant Matrix: (Units=GPa)
#
#
# Indices 1 2 3 4 5 6 
#
# 1 58.7985 33.1526 30.0549 0.0000 0.0000 0.0000
# 2 33.1526 58.7985 30.0549 0.0000 0.0000 0.0000
# 3 30.0549 30.0549 139.7280 0.0000 0.0000 0.0000
# 4 0.0000 0.0000 0.0000 31.1487 0.0000 0.0000
# 5 0.0000 0.0000 0.0000 0.0000 31.1487 0.0000
# 6 0.0000 0.0000 0.0000 0.0000 0.0000 23.7602
#
#
#
# Elastic Compliance Matrix: (Units=1/GPa)
#
#
# Indices 1 2 3 4 5 6 
#
# 1 0.025824 -0.013169 -0.002722 0.000000 0.000000 0.000000
# 2 -0.013169 0.025824 -0.002722 0.000000 0.000000 0.000000
# 3 -0.002722 -0.002722 0.008328 0.000000 0.000000 0.000000
# 4 0.000000 0.000000 0.000000 0.032104 0.000000 0.000000
# 5 0.000000 0.000000 0.000000 0.000000 0.032104 0.000000
# 6 0.000000 0.000000 0.000000 0.000000 0.000000 0.042087
#
#
# Mechanical properties :
#
#
# Convention : Reuss Voigt Hill
#
# Bulk Modulus (GPa) = 43.95738 49.31662 46.63700
# Shear Modulus (GPa) = 23.68778 28.14901 25.91839
#
# Velocity S-wave (km/s) = 3.57345 3.89544 3.73792
# Velocity P-wave (km/s) = 6.38142 6.84238 6.61591
#
# Compressibility (1/GPa) = 0.02274931
#
# Stress axis : x y z
#
# Youngs Moduli (GPa) = 38.72421 38.72421 120.08069
#
# Poissons Ratio (x) = 0.50995 0.32686
# Poissons Ratio (y) = 0.50995 0.32686
# Poissons Ratio (z) = 0.10541 0.10541
#
# Static dielectric constant tensor:
#      x y z
#    x 3.166100 0.000000 0.000000 
#    y 0.000000 3.166100 0.000000 
#    z 0.000000 0.000000 3.582110 
# 
# 
# High freq. dielectric constant tensor:
#      x y z
#    x 1.696380 0.000000 0.000000 
#    y 0.000000 1.696380 0.000000 
#    z 0.000000 0.000000 1.743110 
# 
# From -- ./inp_files/139.got.cif
#   From: 2010.03.12/outbox.cif.g09.slc.cpg/sg103_cif.got.tgz:139.got - 2010.04.14 01:42:52.
