data_PCOD8306213
_publ_section_title
;
Structure prediction by ZEFSAII (Michael W. Deem and Ramdas Pophale) SiO2 
 PCOD8306213
Probable space group: I 41 2 2
;
_chemical_formula_sum "Si O2"
_cell_formula_units_Z 96
_cell_length_a 25.478616
_cell_length_b 25.478616
_cell_length_c 9.408338
_cell_angle_alpha 90.000000
_cell_angle_beta 90.000000
_cell_angle_gamma 90.000000
_cell_volume 6107.515504
_symmetry_space_group_name_H-M "I 41 2 2"
_symmetry_group_IT_number 98
_symmetry_cell_setting 'tetragonal'
loop_
_space_group_symop_operation_xyz
x,y,z
-y,1/2+x,1/4+z
-x,-y,z
y,1/2-x,1/4+z
x,1/2-y,1/4-z
-x,1/2+y,1/4-z
y,x,-z
-y,-x,-z
1/2+x,1/2+y,1/2+z
1/2-y,x,3/4+z
1/2-x,1/2-y,1/2+z
1/2+y,-x,3/4+z
1/2+x,-y,3/4-z
1/2-x,y,3/4-z
1/2+y,1/2+x,1/2-z
1/2-y,1/2-x,1/2-z
loop_
_atom_site_type_symbol
_atom_site_label
_atom_site_fract_x
_atom_site_fract_y
_atom_site_fract_z
Si Si1 0.352837 0.943560 0.148973
Si Si2 0.585361 0.999675 0.717045
Si Si3 0.774060 0.354646 0.729408
Si Si4 0.683952 0.393836 0.566503
Si Si5 0.307090 0.512868 0.370821
Si Si6 0.118071 0.550305 0.953208
O O1 0.321512 0.890237 0.175620
O O2 0.407589 0.928069 0.075362
O O3 0.361640 0.971903 0.301497
O O4 0.321217 0.982139 0.045618
O O5 0.550193 0.949808 0.750000
O O6 0.554897 0.054897 0.750000
O O7 0.641059 0.990502 0.798369
O O8 0.595546 0.002086 0.547060
O O9 0.795825 0.295825 0.750000
O O10 0.729295 0.353143 0.609188
O O11 0.750000 0.376867 0.875000
O O12 0.634596 0.365405 0.500000
O O13 0.706624 0.432328 0.446966
O O14 0.665749 0.424522 0.707646
O O15 0.250000 0.481626 0.375000
#
# Coordination Sequence:
#
# PCOD8306213 Si02
#       6
#    16  16  16  16  16  16
#     4  11  18  31  48  69  92 116 166 212 253 302
#     4  10  20  36  54  73 102 134 168 205 259 319
#     4  12  23  33  42  58  88 128 169 229 273 304
#     4  11  20  32  47  61  85 123 170 210 264 305
#     4  11  20  31  53  76  93 124 168 208 249 308
#     4  10  18  33  51  67  90 125 160 207 260 305
#
# _framework density 15.718339
#
# number of rings (size 3 to 8) (size 9 to 14) (size 15 to 20)
#    0.000    1.167    8.333    1.000    0.000    0.667 
#    0.000    0.833    0.000    0.000    0.000    0.000 
#    0.000    0.000    0.000    3.000    0.000    0.000 
#
# Total GULP energy -594662.976051 kJ/mol
# GULP energy per Si atom -12388.812001 kJ/mol
# Density = 1.568256 g / cm^3
# Si number density = 15.718339 Si / 1000 Ang^3
#
#
#
# Elastic Constant Matrix: (Units=GPa)
#
#
# Indices 1 2 3 4 5 6 
#
# 1 51.0322 50.3876 34.3569 0.0000 0.0000 0.0000
# 2 50.3876 51.0302 34.3461 0.0000 0.0000 0.0000
# 3 34.3569 34.3461 125.6497 0.0000 0.0000 0.0000
# 4 0.0000 0.0000 0.0000 12.1125 0.0000 0.0000
# 5 0.0000 0.0000 0.0000 0.0000 12.1127 0.0000
# 6 0.0000 0.0000 0.0000 0.0000 0.0000 24.6322
#
#
#
# Elastic Compliance Matrix: (Units=1/GPa)
#
#
# Indices 1 2 3 4 5 6 
#
# 1 0.782918 -0.770780 -0.003385 0.000000 0.000000 0.000000
# 2 -0.770780 0.782844 -0.003231 0.000000 0.000000 0.000000
# 3 -0.003385 -0.003231 0.009768 0.000000 0.000000 0.000000
# 4 0.000000 0.000000 0.000000 0.082559 0.000000 0.000000
# 5 0.000000 0.000000 0.000000 0.000000 0.082558 0.000000
# 6 0.000000 0.000000 0.000000 0.000000 0.000000 0.040597
#
#
# Mechanical properties :
#
#
# Convention : Reuss Voigt Hill
#
# Bulk Modulus (GPa) = 48.22387 51.76591 49.99489
# Shear Modulus (GPa) = 1.49569 17.01292 9.25430
#
# Velocity S-wave (km/s) = 0.97653 3.29350 2.42907
# Velocity P-wave (km/s) = 5.65845 6.88968 6.30420
#
# Compressibility (1/GPa) = 0.02073662
#
# Stress axis : x y z
#
# Youngs Moduli (GPa) = 1.27727 1.27739 102.37927
#
# Poissons Ratio (x) = 0.98459 0.34660
# Poissons Ratio (y) = 0.98450 0.33082
# Poissons Ratio (z) = 0.00432 0.00413
#
# Static dielectric constant tensor:
#      x y z
#    x 2.732070 0.000000 0.000000 
#    y 0.000000 2.732070 0.000000 
#    z 0.000000 0.000000 3.436200 
# 
# 
# High freq. dielectric constant tensor:
#      x y z
#    x 1.557460 0.000000 0.000000 
#    y 0.000000 1.557460 0.000000 
#    z 0.000000 0.000000 1.630840 
# 
# From -- ./inp_files/3825.got.cif
#   From: 2010.03.12/outbox.cif.g09.slc.cpg/sg98_2_cif.got.tgz:3825.got - 2010.04.08 21:04:41.
