data_PCOD8306267
_publ_section_title
;
Structure prediction by ZEFSAII (Michael W. Deem and Ramdas Pophale) SiO2 
 PCOD8306267
Probable space group: I 41 2 2
;
_chemical_formula_sum "Si O2"
_cell_formula_units_Z 116
_cell_length_a 17.378414
_cell_length_b 17.378414
_cell_length_c 19.409129
_cell_angle_alpha 90.000000
_cell_angle_beta 90.000000
_cell_angle_gamma 90.000000
_cell_volume 5861.736942
_symmetry_space_group_name_H-M "I 41 2 2"
_symmetry_group_IT_number 98
_symmetry_cell_setting 'tetragonal'
loop_
_space_group_symop_operation_xyz
x,y,z
-y,1/2+x,1/4+z
-x,-y,z
y,1/2-x,1/4+z
x,1/2-y,1/4-z
-x,1/2+y,1/4-z
y,x,-z
-y,-x,-z
1/2+x,1/2+y,1/2+z
1/2-y,x,3/4+z
1/2-x,1/2-y,1/2+z
1/2+y,-x,3/4+z
1/2+x,-y,3/4-z
1/2-x,y,3/4-z
1/2+y,1/2+x,1/2-z
1/2-y,1/2-x,1/2-z
loop_
_atom_site_type_symbol
_atom_site_label
_atom_site_fract_x
_atom_site_fract_y
_atom_site_fract_z
Si Si1 0.872680 0.636256 0.900070
Si Si2 0.000000 0.000000 0.000000
Si Si3 0.971132 0.638822 0.718948
Si Si4 0.341440 0.604366 0.867569
Si Si5 0.086966 0.999888 0.263427
Si Si6 0.975975 0.207719 0.395153
Si Si7 0.304560 0.321738 0.580485
Si Si8 0.519452 0.872771 0.862656
O O1 0.834515 0.599284 0.830762
O O2 0.825942 0.713057 0.913002
O O3 0.963922 0.654399 0.895568
O O4 0.866344 0.575996 0.962615
O O5 0.076517 0.996852 0.046581
O O6 0.943182 0.556819 0.750000
O O7 0.044826 0.623377 0.672343
O O8 0.993997 0.703963 0.775136
O O9 0.250000 0.617409 0.875000
O O10 0.364543 0.573591 0.791686
O O11 0.387701 0.681749 0.884999
O O12 0.081362 0.997050 0.181249
O O13 0.000000 0.000000 0.292906
O O14 0.973315 0.292869 0.363850
O O15 0.334806 0.250000 0.625000
O O16 0.320870 0.320870 0.500000
O O17 0.352341 0.390919 0.613218
#
# Coordination Sequence:
#
# PCOD8306267 Si02
#       8
#    16   4  16  16  16  16  16  16
#     4   9  20  34  57  90 130 167 203 240 297 382
#     4  12  24  48  72  84 100 148 218 284 312 360
#     4   9  19  33  58  92 129 171 207 238 291 376
#     4  11  22  35  59  91 131 166 207 253 302 372
#     4  11  20  37  61  90 120 166 210 255 305 367
#     4  10  20  37  58  87 127 164 200 252 307 373
#     4  11  23  39  61  94 133 165 198 259 327 384
#     4  11  24  42  68  88 113 154 216 266 318 370
#
# _framework density 19.789356000000002
#
# number of rings (size 3 to 8) (size 9 to 14) (size 15 to 20)
#    0.000    1.655    2.759    2.069    0.000    7.724 
#    0.000    0.000    6.069    0.000    0.000    0.000 
#    0.000    0.000    0.000    0.000    0.000    0.000 
#
# Total GULP energy -718896.711874 kJ/mol
# GULP energy per Si atom -12394.770894 kJ/mol
# Density = 1.974431 g / cm^3
# Si number density = 19.789356 Si / 1000 Ang^3
#
#
#
# Elastic Constant Matrix: (Units=GPa)
#
#
# Indices 1 2 3 4 5 6 
#
# 1 102.0138 48.0344 36.6135 0.0000 0.0000 0.0000
# 2 48.0344 102.0136 36.6139 0.0000 0.0000 0.0000
# 3 36.6135 36.6139 112.8362 0.0000 0.0000 0.0000
# 4 0.0000 0.0000 0.0000 22.5833 0.0000 0.0000
# 5 0.0000 0.0000 0.0000 0.0000 22.5833 0.0000
# 6 0.0000 0.0000 0.0000 0.0000 0.0000 22.1164
#
#
#
# Elastic Compliance Matrix: (Units=1/GPa)
#
#
# Indices 1 2 3 4 5 6 
#
# 1 0.013222 -0.005304 -0.002569 0.000000 0.000000 0.000000
# 2 -0.005304 0.013222 -0.002569 0.000000 0.000000 0.000000
# 3 -0.002569 -0.002569 0.010530 0.000000 0.000000 0.000000
# 4 0.000000 0.000000 0.000000 0.044281 0.000000 0.000000
# 5 0.000000 0.000000 0.000000 0.000000 0.044280 0.000000
# 6 0.000000 0.000000 0.000000 0.000000 0.000000 0.045215
#
#
# Mechanical properties :
#
#
# Convention : Reuss Voigt Hill
#
# Bulk Modulus (GPa) = 62.15379 62.15413 62.15396
# Shear Modulus (GPa) = 25.38094 26.49672 25.93883
#
# Velocity S-wave (km/s) = 3.58516 3.66312 3.62435
# Velocity P-wave (km/s) = 6.97235 7.02619 6.99932
#
# Compressibility (1/GPa) = 0.01608912
#
# Stress axis : x y z
#
# Youngs Moduli (GPa) = 75.63133 75.63104 94.96775
#
# Poissons Ratio (x) = 0.40112 0.24401
# Poissons Ratio (y) = 0.40112 0.24402
# Poissons Ratio (z) = 0.19433 0.19433
#
# Static dielectric constant tensor:
#      x y z
#    x 3.439090 0.000000 0.000000 
#    y 0.000000 3.439090 0.000000 
#    z 0.000000 0.000000 3.579450 
# 
# 
# High freq. dielectric constant tensor:
#      x y z
#    x 1.758880 0.000000 0.000000 
#    y 0.000000 1.758880 0.000000 
#    z 0.000000 0.000000 1.773490 
# 
# From -- ./inp_files/7816.got.cif
#   From: 2010.03.12/outbox.cif.g09.slc.cpg/sg98_4_cif.got.tgz:7816.got - 2010.04.08 21:04:41.
