data_PCOD8306592
_publ_section_title
;
Structure prediction by ZEFSAII (Michael W. Deem and Ramdas Pophale) SiO2 
 PCOD8306592
Probable space group: P 4 M M
;
_chemical_formula_sum "Si O2"
_cell_formula_units_Z 64
_cell_length_a 13.210676
_cell_length_b 13.210676
_cell_length_c 20.597298
_cell_angle_alpha 90.000000
_cell_angle_beta 90.000000
_cell_angle_gamma 90.000000
_cell_volume 3594.680825
_symmetry_space_group_name_H-M "P 4 M M"
_symmetry_group_IT_number 99
_symmetry_cell_setting 'tetragonal'
loop_
_space_group_symop_operation_xyz
x,y,z
-y,x,z
-x,-y,z
y,-x,z
-x,y,z
x,-y,z
-y,-x,z
y,x,z
loop_
_atom_site_type_symbol
_atom_site_label
_atom_site_fract_x
_atom_site_fract_y
_atom_site_fract_z
Si Si1 0.716183 0.881931 0.886140
Si Si2 0.882468 0.715988 0.129835
Si Si3 0.619042 0.220272 0.247282
Si Si4 0.215975 0.382007 0.007502
Si Si5 0.276480 0.116211 0.503886
Si Si6 0.117849 0.717546 0.648439
Si Si7 0.217241 0.382608 0.765071
Si Si8 0.112835 0.618938 0.376424
O O1 0.822090 0.822090 0.890384
O O2 0.658151 0.858650 0.819638
O O3 0.741982 0.000000 0.890038
O O4 0.642874 0.850440 0.944552
O O5 0.821127 0.821127 0.130236
O O6 0.863401 0.651767 0.194971
O O7 0.849811 0.646499 0.069922
O O8 0.000000 0.743607 0.124444
O O9 0.500000 0.239065 0.244074
O O10 0.673456 0.326545 0.231563
O O11 0.656687 0.183059 0.317854
O O12 0.242882 0.500000 0.008837
O O13 0.321731 0.321731 0.006424
O O14 0.168583 0.168583 0.498749
O O15 0.324755 0.135383 0.575175
O O16 0.348518 0.157821 0.446484
O O17 0.253673 0.000000 0.493096
O O18 0.176409 0.823592 0.659713
O O19 0.162101 0.632607 0.696100
O O20 0.000000 0.738018 0.662454
O O21 0.241064 0.500000 0.775745
O O22 0.323781 0.323781 0.768343
O O23 0.108007 0.500000 0.375372
O O24 0.000000 0.663644 0.366452
#
# Coordination Sequence:
#
# PCOD8306592 Si02
#       8
#     8   8   8   8   8   8   8   8
#     4  10  21  36  54  78 106 135 169 206 245 292
#     4  10  21  36  54  77 103 131 165 203 244 293
#     4  10  20  33  50  72  97 127 163 202 245 292
#     4  10  21  36  54  78 106 136 172 211 250 293
#     4   9  17  29  45  66  94 125 156 193 235 281
#     4   9  18  31  47  70  98 128 163 200 240 288
#     4  10  21  36  53  74  99 127 162 203 246 294
#     4   9  17  29  46  68  92 120 157 199 242 288
#
# _framework density 17.804085000000001
#
# number of rings (size 3 to 8) (size 9 to 14) (size 15 to 20)
#    0.000    2.375    0.000    2.250    0.000    5.125 
#    0.000    2.500    0.000    9.000    0.000    1.750 
#    0.000    3.000    0.000    0.000    0.000    0.000 
#
# Total GULP energy -793558.099180 kJ/mol
# GULP energy per Si atom -12399.345300 kJ/mol
# Density = 1.776356 g / cm^3
# Si number density = 17.804085 Si / 1000 Ang^3
#
#
#
# Elastic Constant Matrix: (Units=GPa)
#
#
# Indices 1 2 3 4 5 6 
#
# 1 101.4995 43.3268 42.8334 0.0000 0.0000 -0.0001
# 2 43.3268 101.4995 42.8334 0.0000 0.0000 0.0001
# 3 42.8334 42.8334 126.0810 0.0000 0.0000 0.0000
# 4 0.0000 0.0000 0.0000 21.9534 0.0000 0.0000
# 5 0.0000 0.0000 0.0000 0.0000 21.9534 0.0000
# 6 -0.0001 0.0001 0.0000 0.0000 0.0000 14.7550
#
#
#
# Elastic Compliance Matrix: (Units=1/GPa)
#
#
# Indices 1 2 3 4 5 6 
#
# 1 0.012916 -0.004274 -0.002936 0.000000 0.000000 0.000000
# 2 -0.004274 0.012916 -0.002936 0.000000 0.000000 0.000000
# 3 -0.002936 -0.002936 0.009926 0.000000 0.000000 0.000000
# 4 0.000000 0.000000 0.000000 0.045551 0.000000 0.000000
# 5 0.000000 0.000000 0.000000 0.000000 0.045551 0.000000
# 6 0.000000 0.000000 0.000000 0.000000 0.000000 0.067774
#
#
# Mechanical properties :
#
#
# Convention : Reuss Voigt Hill
#
# Bulk Modulus (GPa) = 64.65830 65.22971 64.94400
# Shear Modulus (GPa) = 22.71898 25.07146 23.89522
#
# Velocity S-wave (km/s) = 3.57607 3.75665 3.66747
# Velocity P-wave (km/s) = 7.31070 7.45209 7.38173
#
# Compressibility (1/GPa) = 0.01546592
#
# Stress axis : x y z
#
# Youngs Moduli (GPa) = 77.42477 77.42477 100.74450
#
# Poissons Ratio (x) = 0.33095 0.29576
# Poissons Ratio (y) = 0.33095 0.29576
# Poissons Ratio (z) = 0.22730 0.22730
#
# Static dielectric constant tensor:
#      x y z
#    x 3.148110 0.000000 0.000000 
#    y 0.000000 3.148110 0.000000 
#    z 0.000000 0.000000 3.694900 
# 
# 
# High freq. dielectric constant tensor:
#      x y z
#    x 1.677740 0.000000 0.000000 
#    y 0.000000 1.677740 0.000000 
#    z 0.000000 0.000000 1.713270 
# 
# From -- ./inp_files/2245.got.cif
#   From: 2010.03.12/outbox.cif.g09.slc.cpg/sg99_cif.got.tgz:2245.got - 2010.04.08 21:11:30.
