data_PCOD8306544
_publ_section_title
;
Structure prediction by ZEFSAII (Michael W. Deem and Ramdas Pophale) SiO2 
 PCOD8306544
Probable space group: P 4 M M
;
_chemical_formula_sum "Si O2"
_cell_formula_units_Z 48
_cell_length_a 13.559765
_cell_length_b 13.559765
_cell_length_c 15.496442
_cell_angle_alpha 90.000000
_cell_angle_beta 90.000000
_cell_angle_gamma 90.000000
_cell_volume 2849.287817
_symmetry_space_group_name_H-M "P 4 M M"
_symmetry_group_IT_number 99
_symmetry_cell_setting 'tetragonal'
loop_
_space_group_symop_operation_xyz
x,y,z
-y,x,z
-x,-y,z
y,-x,z
-x,y,z
x,-y,z
-y,-x,z
y,x,z
loop_
_atom_site_type_symbol
_atom_site_label
_atom_site_fract_x
_atom_site_fract_y
_atom_site_fract_z
Si Si1 0.775041 0.383104 0.936290
Si Si2 0.109398 0.382857 0.291961
Si Si3 0.278585 0.115848 0.786780
Si Si4 0.110200 0.383341 0.102797
Si Si5 0.766056 0.388071 0.447539
Si Si6 0.224338 0.385454 0.640691
O O1 0.757861 0.500000 0.931364
O O2 0.670382 0.329619 0.920030
O O3 0.854129 0.350154 0.865084
O O4 0.816341 0.346398 0.028666
O O5 0.106455 0.500000 0.300869
O O6 0.152328 0.352606 0.197553
O O7 0.169583 0.336927 0.372083
O O8 0.000000 0.339374 0.299405
O O9 0.175593 0.175593 0.791257
O O10 0.337499 0.139517 0.699036
O O11 0.254713 0.000000 0.790928
O O12 0.101845 0.500000 0.097219
O O13 0.000000 0.339087 0.089249
O O14 0.748125 0.500000 0.423330
O O15 0.658702 0.341299 0.448315
O O16 0.814813 0.375332 0.542137
O O17 0.242291 0.500000 0.664917
O O18 0.327561 0.327561 0.655243
#
# Coordination Sequence:
#
# PCOD8306544 Si02
#       6
#     8   8   8   8   8   8
#     4  10  20  32  47  69  96 126 159 192 227 270
#     4   8  14  25  41  61  84 111 147 191 234 271
#     4  10  21  36  53  73  95 118 148 188 233 281
#     4   8  14  26  44  63  83 111 149 192 234 272
#     4   9  17  28  42  62  90 122 154 187 222 265
#     4   9  18  31  46  67  94 124 159 195 231 273
#
# _framework density 16.846316000000002
#
# number of rings (size 3 to 8) (size 9 to 14) (size 15 to 20)
#    0.000    3.000    0.000    2.000    0.000    4.000 
#    0.000    3.333    0.000    3.000    0.000    4.667 
#    0.000    0.333    0.000    3.667    0.000    6.333 
#
# Total GULP energy -594802.328044 kJ/mol
# GULP energy per Si atom -12391.715168 kJ/mol
# Density = 1.680797 g / cm^3
# Si number density = 16.846316 Si / 1000 Ang^3
#
#
#
# Elastic Constant Matrix: (Units=GPa)
#
#
# Indices 1 2 3 4 5 6 
#
# 1 79.0141 34.4743 45.5687 0.0000 0.0000 0.0002
# 2 34.4743 79.0141 45.5687 0.0000 0.0000 -0.0002
# 3 45.5687 45.5687 130.3495 0.0000 0.0000 0.0000
# 4 0.0000 0.0000 0.0000 23.8460 0.0000 0.0000
# 5 0.0000 0.0000 0.0000 0.0000 23.8460 0.0000
# 6 0.0002 -0.0002 0.0000 0.0000 0.0000 10.1072
#
#
#
# Elastic Compliance Matrix: (Units=1/GPa)
#
#
# Indices 1 2 3 4 5 6 
#
# 1 0.017351 -0.005101 -0.004283 0.000000 0.000000 0.000000
# 2 -0.005101 0.017351 -0.004283 0.000000 0.000000 0.000000
# 3 -0.004283 -0.004283 0.010666 0.000000 0.000000 0.000000
# 4 0.000000 0.000000 0.000000 0.041936 0.000000 0.000000
# 5 0.000000 0.000000 0.000000 0.000000 0.041936 0.000000
# 6 0.000000 0.000000 0.000000 0.000000 0.000000 0.098940
#
#
# Mechanical properties :
#
#
# Convention : Reuss Voigt Hill
#
# Bulk Modulus (GPa) = 55.44264 59.95568 57.69916
# Shear Modulus (GPa) = 19.11872 22.41091 20.76481
#
# Velocity S-wave (km/s) = 3.37247 3.65131 3.51465
# Velocity P-wave (km/s) = 6.93880 7.31048 7.12706
#
# Compressibility (1/GPa) = 0.01803666
#
# Stress axis : x y z
#
# Youngs Moduli (GPa) = 57.63260 57.63260 93.75536
#
# Poissons Ratio (x) = 0.29396 0.40153
# Poissons Ratio (y) = 0.29396 0.40153
# Poissons Ratio (z) = 0.24682 0.24682
#
# Static dielectric constant tensor:
#      x y z
#    x 2.952210 0.000000 0.000000 
#    y 0.000000 2.952210 0.000000 
#    z 0.000000 0.000000 3.635940 
# 
# 
# High freq. dielectric constant tensor:
#      x y z
#    x 1.621320 0.000000 0.000000 
#    y 0.000000 1.621320 0.000000 
#    z 0.000000 0.000000 1.674470 
# 
# From -- ./inp_files/1716.got.cif
#   From: 2010.03.12/outbox.cif.g09.slc.cpg/sg99_cif.got.tgz:1716.got - 2010.04.08 21:11:30.
