data_PCOD8306518
_publ_section_title
;
Structure prediction by ZEFSAII (Michael W. Deem and Ramdas Pophale) SiO2 
 PCOD8306518
Probable space group: P 4 M M
;
_chemical_formula_sum "Si O2"
_cell_formula_units_Z 41
_cell_length_a 12.204294
_cell_length_b 12.204294
_cell_length_c 16.838390
_cell_angle_alpha 90.000000
_cell_angle_beta 90.000000
_cell_angle_gamma 90.000000
_cell_volume 2507.990497
_symmetry_space_group_name_H-M "P 4 M M"
_symmetry_group_IT_number 99
_symmetry_cell_setting 'tetragonal'
loop_
_space_group_symop_operation_xyz
x,y,z
-y,x,z
-x,-y,z
y,-x,z
-x,y,z
x,-y,z
-y,-x,z
y,x,z
loop_
_atom_site_type_symbol
_atom_site_label
_atom_site_fract_x
_atom_site_fract_y
_atom_site_fract_z
Si Si1 0.500000 0.679420 0.270041
Si Si2 0.681719 0.500000 0.448812
Si Si3 0.625863 0.802150 0.859522
Si Si4 0.500000 0.500000 0.065249
Si Si5 0.500000 0.872306 0.574967
Si Si6 0.875615 0.299452 0.024171
Si Si7 0.876593 0.695821 0.691722
Si Si8 0.244244 0.500000 0.104947
O O1 0.392852 0.607149 0.257642
O O2 0.500000 0.728007 0.358924
O O3 0.500000 0.770741 0.201102
O O4 0.607565 0.607565 0.465109
O O5 0.790879 0.500000 0.500987
O O6 0.500000 0.775051 0.875543
O O7 0.684330 0.684330 0.856009
O O8 0.641845 0.867580 0.778275
O O9 0.673390 0.875127 0.930370
O O10 0.369553 0.500000 0.079331
O O11 0.393792 0.844492 0.626794
O O12 0.500000 0.000000 0.547804
O O13 0.815644 0.184357 0.039943
O O14 0.815727 0.393533 0.072267
O O15 0.000000 0.288073 0.053220
O O16 0.799925 0.799925 0.681136
O O17 0.000000 0.736925 0.679154
#
# Coordination Sequence:
#
# PCOD8306518 Si02
#       8
#     4   4   8   1   4   8   8   4
#     4   9  15  29  50  75 104 133 159 189 242 298
#     4   9  18  31  52  76 100 130 160 194 236 291
#     4  10  20  34  49  71  99 133 169 209 249 294
#     4  12  20  32  56  80 112 128 158 220 252 300
#     4  10  19  32  50  71  99 131 159 196 242 292
#     4  11  23  36  52  74 101 136 176 216 257 301
#     4  10  20  33  51  70  94 128 165 204 247 288
#     4  12  19  33  54  81 104 132 167 208 256 308
#
# _framework density 16.347749
#
# number of rings (size 3 to 8) (size 9 to 14) (size 15 to 20)
#    0.000    1.756    3.902    2.049    0.000    1.366 
#    0.000    0.976    0.000    3.512    0.000    0.000 
#    0.000    0.000    0.000   10.537    0.000    0.000 
#
# Total GULP energy -507939.657128 kJ/mol
# GULP energy per Si atom -12388.772125 kJ/mol
# Density = 1.631054 g / cm^3
# Si number density = 16.347749 Si / 1000 Ang^3
#
#
#
# Elastic Constant Matrix: (Units=GPa)
#
#
# Indices 1 2 3 4 5 6 
#
# 1 120.7499 51.2084 42.3876 0.0000 0.0000 -0.0013
# 2 51.2084 120.7499 42.3876 0.0000 0.0000 0.0013
# 3 42.3876 42.3876 108.4356 0.0000 0.0000 0.0000
# 4 0.0000 0.0000 0.0000 13.2630 0.0000 0.0000
# 5 0.0000 0.0000 0.0000 0.0000 13.2630 0.0000
# 6 -0.0013 0.0013 0.0000 0.0000 0.0000 85.8289
#
#
#
# Elastic Compliance Matrix: (Units=1/GPa)
#
#
# Indices 1 2 3 4 5 6 
#
# 1 0.010792 -0.003588 -0.002816 0.000000 0.000000 0.000000
# 2 -0.003588 0.010792 -0.002816 0.000000 0.000000 0.000000
# 3 -0.002816 -0.002816 0.011424 0.000000 0.000000 0.000000
# 4 0.000000 0.000000 0.000000 0.075398 0.000000 0.000000
# 5 0.000000 0.000000 0.000000 0.000000 0.075398 0.000000
# 6 0.000000 0.000000 0.000000 0.000000 0.000000 0.011651
#
#
# Mechanical properties :
#
#
# Convention : Reuss Voigt Hill
#
# Bulk Modulus (GPa) = 68.64760 69.10029 68.87394
# Shear Modulus (GPa) = 22.85721 36.73443 29.79582
#
# Velocity S-wave (km/s) = 3.74329 4.74546 4.27385
# Velocity P-wave (km/s) = 7.79527 8.50803 8.15944
#
# Compressibility (1/GPa) = 0.01456715
#
# Stress axis : x y z
#
# Youngs Moduli (GPa) = 92.66341 92.66341 87.53863
#
# Poissons Ratio (x) = 0.33249 0.24650
# Poissons Ratio (y) = 0.33249 0.24650
# Poissons Ratio (z) = 0.26093 0.26093
#
# Static dielectric constant tensor:
#      x y z
#    x 3.291450 0.000000 0.000000 
#    y 0.000000 3.291450 0.000000 
#    z 0.000000 0.000000 3.119360 
# 
# 
# High freq. dielectric constant tensor:
#      x y z
#    x 1.628100 0.000000 0.000000 
#    y 0.000000 1.628100 0.000000 
#    z 0.000000 0.000000 1.617190 
# 
# From -- ./inp_files/1946.got.cif
#   From: 2010.03.12/outbox.cif.g09.slc.cpg/sg99_cif.got.tgz:1946.got - 2010.04.08 21:11:30.
