data_PCOD8306355
_publ_section_title
;
Structure prediction by ZEFSAII (Michael W. Deem and Ramdas Pophale) SiO2 
 PCOD8306355
Probable space group: I 41 2 2
;
_chemical_formula_sum "Si O2"
_cell_formula_units_Z 92
_cell_length_a 14.576978
_cell_length_b 14.576978
_cell_length_c 18.076042
_cell_angle_alpha 90.000000
_cell_angle_beta 90.000000
_cell_angle_gamma 90.000000
_cell_volume 3840.947211
_symmetry_space_group_name_H-M "I 41 2 2"
_symmetry_group_IT_number 98
_symmetry_cell_setting 'tetragonal'
loop_
_space_group_symop_operation_xyz
x,y,z
-y,1/2+x,1/4+z
-x,-y,z
y,1/2-x,1/4+z
x,1/2-y,1/4-z
-x,1/2+y,1/4-z
y,x,-z
-y,-x,-z
1/2+x,1/2+y,1/2+z
1/2-y,x,3/4+z
1/2-x,1/2-y,1/2+z
1/2+y,-x,3/4+z
1/2+x,-y,3/4-z
1/2-x,y,3/4-z
1/2+y,1/2+x,1/2-z
1/2-y,1/2-x,1/2-z
loop_
_atom_site_type_symbol
_atom_site_label
_atom_site_fract_x
_atom_site_fract_y
_atom_site_fract_z
Si Si1 0.051935 0.142537 0.257055
Si Si2 0.296348 0.995176 0.644068
Si Si3 0.337590 0.694702 0.913866
Si Si4 0.995691 0.642908 0.625042
Si Si5 0.500000 0.000000 0.890710
Si Si6 0.822434 0.735840 0.437284
Si Si7 0.500000 0.500000 0.000000
O O1 0.085821 0.065307 0.316305
O O2 0.137772 0.196957 0.223481
O O3 0.989988 0.228365 0.285268
O O4 0.997601 0.090259 0.192225
O O5 0.276208 0.910389 0.591177
O O6 0.406572 0.000814 0.659655
O O7 0.257820 0.078482 0.596802
O O8 0.250000 0.739397 0.875000
O O9 0.361833 0.605847 0.861211
O O10 0.328352 0.671649 0.000000
O O11 0.963665 0.750000 0.625000
O O12 0.990177 0.593283 0.703766
O O13 0.813939 0.813939 0.500000
O O14 0.750000 0.758178 0.375000
#
# Coordination Sequence:
#
# PCOD8306355 Si02
#       7
#    16  16  16  16   8  16   4
#     4  11  24  42  74 100 151 194 238 303 371 439
#     4  11  25  44  72 103 148 191 247 307 363 440
#     4  11  26  45  72 102 146 195 247 303 368 451
#     4  11  26  41  63 106 148 192 234 298 366 460
#     4  10  25  44  74 108 143 188 246 314 368 435
#     4  11  24  45  69 110 147 188 243 295 375 452
#     4  12  22  44  68 108 146 196 246 288 376 462
#
# _framework density 23.952427
#
# number of rings (size 3 to 8) (size 9 to 14) (size 15 to 20)
#    0.000    1.043    2.609    2.609   14.609    0.000 
#    1.565    3.478    3.826    1.043    0.000    0.000 
#    0.000    0.000    0.000    0.000    0.000    0.000 
#
# Total GULP energy -569851.728128 kJ/mol
# GULP energy per Si atom -12388.081046 kJ/mol
# Density = 2.389791 g / cm^3
# Si number density = 23.952427 Si / 1000 Ang^3
#
#
#
# Elastic Constant Matrix: (Units=GPa)
#
#
# Indices 1 2 3 4 5 6 
#
# 1 109.0318 56.5551 25.9914 0.0000 0.0000 0.0000
# 2 56.5551 109.0317 25.9915 0.0000 0.0000 0.0000
# 3 25.9914 25.9915 60.3308 0.0000 0.0000 0.0000
# 4 0.0000 0.0000 0.0000 17.7664 0.0000 0.0000
# 5 0.0000 0.0000 0.0000 0.0000 17.7665 0.0000
# 6 0.0000 0.0000 0.0000 0.0000 0.0000 37.2526
#
#
#
# Elastic Compliance Matrix: (Units=1/GPa)
#
#
# Indices 1 2 3 4 5 6 
#
# 1 0.013020 -0.006036 -0.003009 0.000000 0.000000 0.000000
# 2 -0.006036 0.013020 -0.003009 0.000000 0.000000 0.000000
# 3 -0.003009 -0.003009 0.019168 0.000000 0.000000 0.000000
# 4 0.000000 0.000000 0.000000 0.056286 0.000000 0.000000
# 5 0.000000 0.000000 0.000000 0.000000 0.056286 0.000000
# 6 0.000000 0.000000 0.000000 0.000000 0.000000 0.026844
#
#
# Mechanical properties :
#
#
# Convention : Reuss Voigt Hill
#
# Bulk Modulus (GPa) = 47.39276 55.05226 51.22251
# Shear Modulus (GPa) = 23.17355 25.88087 24.52721
#
# Velocity S-wave (km/s) = 3.11381 3.29068 3.20347
# Velocity P-wave (km/s) = 5.72337 6.12144 5.92575
#
# Compressibility (1/GPa) = 0.02110027
#
# Stress axis : x y z
#
# Youngs Moduli (GPa) = 76.80576 76.80562 52.17133
#
# Poissons Ratio (x) = 0.46362 0.15696
# Poissons Ratio (y) = 0.46362 0.15697
# Poissons Ratio (z) = 0.23108 0.23108
#
# Static dielectric constant tensor:
#      x y z
#    x 4.524340 0.000000 0.000000 
#    y 0.000000 4.524340 0.000000 
#    z 0.000000 0.000000 4.268080 
# 
# 
# High freq. dielectric constant tensor:
#      x y z
#    x 1.955390 0.000000 0.000000 
#    y 0.000000 1.955390 0.000000 
#    z 0.000000 0.000000 1.927710 
# 
# From -- ./inp_files/9004.got.cif
#   From: 2010.03.12/outbox.cif.g09.slc.cpg/sg98_5_cif.got.tgz:9004.got - 2010.04.08 21:04:41.
