data_PCOD8306330
_publ_section_title
;
Structure prediction by ZEFSAII (Michael W. Deem and Ramdas Pophale) SiO2 
 PCOD8306330
Probable space group: I 41 2 2
;
_chemical_formula_sum "Si O2"
_cell_formula_units_Z 96
_cell_length_a 15.028833
_cell_length_b 15.028833
_cell_length_c 18.685709
_cell_angle_alpha 90.000000
_cell_angle_beta 90.000000
_cell_angle_gamma 90.000000
_cell_volume 4220.463011
_symmetry_space_group_name_H-M "I 41 2 2"
_symmetry_group_IT_number 98
_symmetry_cell_setting 'tetragonal'
loop_
_space_group_symop_operation_xyz
x,y,z
-y,1/2+x,1/4+z
-x,-y,z
y,1/2-x,1/4+z
x,1/2-y,1/4-z
-x,1/2+y,1/4-z
y,x,-z
-y,-x,-z
1/2+x,1/2+y,1/2+z
1/2-y,x,3/4+z
1/2-x,1/2-y,1/2+z
1/2+y,-x,3/4+z
1/2+x,-y,3/4-z
1/2-x,y,3/4-z
1/2+y,1/2+x,1/2-z
1/2-y,1/2-x,1/2-z
loop_
_atom_site_type_symbol
_atom_site_label
_atom_site_fract_x
_atom_site_fract_y
_atom_site_fract_z
Si Si1 0.724543 0.962747 0.124948
Si Si2 0.545456 0.588216 0.081306
Si Si3 0.573488 0.279365 0.017120
Si Si4 0.000000 0.000000 0.806500
Si Si5 0.403518 0.094216 0.668484
Si Si6 0.092433 0.659960 0.989075
Si Si7 0.965613 0.250000 0.125000
O O1 0.637006 0.899728 0.125025
O O2 0.797673 0.893318 0.093348
O O3 0.742153 0.004700 0.203117
O O4 0.717737 0.048807 0.073569
O O5 0.500000 0.500000 0.115154
O O6 0.567244 0.567244 0.000000
O O7 0.483453 0.677069 0.083552
O O8 0.623515 0.187953 0.037477
O O9 0.646465 0.353536 0.000000
O O10 0.080712 0.975989 0.755164
O O11 0.985967 0.918683 0.862225
O O12 0.428257 0.071744 0.750000
O O13 0.466506 0.173358 0.645701
O O14 0.099572 0.721722 0.060150
#
# Coordination Sequence:
#
# PCOD8306330 Si02
#       7
#    16  16  16   8  16  16   8
#     4  11  22  40  69  98 130 180 234 274 339 428
#     4   9  17  38  66  91 135 183 214 262 342 418
#     4  11  22  42  65 100 141 183 223 285 348 421
#     4  10  23  40  62  92 129 170 226 274 332 416
#     4  11  21  44  68  91 124 180 227 280 347 412
#     4  11  24  40  65  99 134 172 228 289 341 406
#     4  10  24  44  66  96 132 166 224 306 352 398
#
# _framework density 22.746317999999999
#
# number of rings (size 3 to 8) (size 9 to 14) (size 15 to 20)
#    0.000    1.500    6.667    0.250    1.167    2.000 
#    0.000    4.167    0.000    0.000    0.000    0.000 
#    0.000    0.000    0.000    0.000    0.000    0.000 
#
# Total GULP energy -594687.730345 kJ/mol
# GULP energy per Si atom -12389.327716 kJ/mol
# Density = 2.269455 g / cm^3
# Si number density = 22.746318 Si / 1000 Ang^3
#
#
#
# Elastic Constant Matrix: (Units=GPa)
#
#
# Indices 1 2 3 4 5 6 
#
# 1 100.2969 37.3360 16.0693 0.0000 0.0000 0.0000
# 2 37.3360 100.2963 16.0687 0.0000 0.0000 0.0000
# 3 16.0693 16.0687 44.2323 0.0000 0.0000 0.0000
# 4 0.0000 0.0000 0.0000 15.2510 0.0000 0.0000
# 5 0.0000 0.0000 0.0000 0.0000 15.2502 0.0000
# 6 0.0000 0.0000 0.0000 0.0000 0.0000 39.1347
#
#
#
# Elastic Compliance Matrix: (Units=1/GPa)
#
#
# Indices 1 2 3 4 5 6 
#
# 1 0.011911 -0.003972 -0.002884 0.000000 0.000000 0.000000
# 2 -0.003972 0.011911 -0.002884 0.000000 0.000000 0.000000
# 3 -0.002884 -0.002884 0.024704 0.000000 0.000000 0.000000
# 4 0.000000 0.000000 0.000000 0.065569 0.000000 0.000000
# 5 0.000000 0.000000 0.000000 0.000000 0.065573 0.000000
# 6 0.000000 0.000000 0.000000 0.000000 0.000000 0.025553
#
#
# Mechanical properties :
#
#
# Convention : Reuss Voigt Hill
#
# Bulk Modulus (GPa) = 34.42924 42.64149 38.53537
# Shear Modulus (GPa) = 21.33260 25.61728 23.47494
#
# Velocity S-wave (km/s) = 3.06575 3.35956 3.21601
# Velocity P-wave (km/s) = 5.26316 5.81688 5.54693
#
# Compressibility (1/GPa) = 0.02904508
#
# Stress axis : x y z
#
# Youngs Moduli (GPa) = 83.95554 83.95540 40.48007
#
# Poissons Ratio (x) = 0.33346 0.11676
# Poissons Ratio (y) = 0.33346 0.11675
# Poissons Ratio (z) = 0.24215 0.24214
#
# Static dielectric constant tensor:
#      x y z
#    x 4.456670 0.000000 0.000000 
#    y 0.000000 4.456670 0.000000 
#    z 0.000000 0.000000 4.263840 
# 
# 
# High freq. dielectric constant tensor:
#      x y z
#    x 1.888750 0.000000 0.000000 
#    y 0.000000 1.888750 0.000000 
#    z 0.000000 0.000000 1.903680 
# 
# From -- ./inp_files/8992.got.cif
#   From: 2010.03.12/outbox.cif.g09.slc.cpg/sg98_5_cif.got.tgz:8992.got - 2010.04.08 21:04:41.
