data_PCOD8306782
_publ_section_title
;
Structure prediction by ZEFSAII (Michael W. Deem and Ramdas Pophale) SiO2 
 PCOD8306782
Probable space group: P 42 C M
;
_chemical_formula_sum "Si O2"
_cell_formula_units_Z 64
_cell_length_a 11.793461
_cell_length_b 11.793461
_cell_length_c 23.830976
_cell_angle_alpha 90.000000
_cell_angle_beta 90.000000
_cell_angle_gamma 90.000000
_cell_volume 3314.548511
_symmetry_space_group_name_H-M "P 42 C M"
_symmetry_group_IT_number 101
_symmetry_cell_setting 'tetragonal'
loop_
_space_group_symop_operation_xyz
x,y,z
-y,x,1/2+z
-x,-y,z
y,-x,1/2+z
-x,y,1/2+z
x,-y,1/2+z
-y,-x,z
y,x,z
loop_
_atom_site_type_symbol
_atom_site_label
_atom_site_fract_x
_atom_site_fract_y
_atom_site_fract_z
Si Si1 0.748905 0.564988 0.237860
Si Si2 0.811512 0.999907 0.346473
Si Si3 0.570998 0.110985 0.048033
Si Si4 0.820263 0.361239 0.167326
Si Si5 0.636104 0.002256 0.442642
Si Si6 0.629851 0.986220 0.252529
Si Si7 0.419085 0.236175 0.968382
Si Si8 0.685248 0.496840 0.355804
O O1 0.632201 0.632201 0.230232
O O2 0.752095 0.471279 0.189185
O O3 0.855960 0.649433 0.234079
O O4 0.759557 0.507030 0.299492
O O5 0.893197 0.893197 0.334101
O O6 0.726280 0.963657 0.396311
O O7 0.727169 0.025504 0.295183
O O8 0.887971 0.112030 0.358481
O O9 0.636241 0.161604 0.100714
O O10 0.500000 0.000000 0.066511
O O11 0.656502 0.075278 0.997760
O O12 0.491820 0.211692 0.023982
O O13 0.749865 0.250135 0.182527
O O14 0.941408 0.354367 0.196564
O O15 0.500000 0.000000 0.426766
O O16 0.667038 0.132300 0.457629
O O17 0.500000 0.000000 0.275751
O O18 0.352946 0.352946 0.978309
O O19 0.499847 0.241708 0.912830
O O20 0.623843 0.376158 0.352365
O O21 0.599513 0.599513 0.358630
#
# Coordination Sequence:
#
# PCOD8306782 Si02
#       8
#     8   8   8   8   8   8   8   8
#     4  10  21  36  57  85 116 151 190 235 287 340
#     4  11  23  37  56  85 119 149 183 235 294 344
#     4   9  20  38  56  79 112 145 192 238 281 330
#     4  11  23  39  60  84 112 152 193 238 285 335
#     4   9  20  36  57  82 111 147 190 235 281 335
#     4  10  22  38  59  82 112 148 195 234 279 339
#     4   9  18  32  54  81 112 151 190 231 283 341
#     4   9  18  31  48  78 120 154 181 223 284 348
#
# _framework density 19.308814999999999
#
# number of rings (size 3 to 8) (size 9 to 14) (size 15 to 20)
#    0.000    2.500    0.000    3.000    7.000    2.250 
#    0.000    0.000    0.000    2.250    0.000    1.750 
#    0.000    0.000    0.000    0.000    0.000    0.000 
#
# Total GULP energy -793144.880465 kJ/mol
# GULP energy per Si atom -12392.888757 kJ/mol
# Density = 1.926487 g / cm^3
# Si number density = 19.308815 Si / 1000 Ang^3
#
#
#
# Elastic Constant Matrix: (Units=GPa)
#
#
# Indices 1 2 3 4 5 6 
#
# 1 80.7454 30.3823 47.7464 0.0000 0.0000 -0.0001
# 2 30.3823 80.7454 47.7464 0.0000 0.0000 0.0001
# 3 47.7464 47.7464 124.3075 0.0000 0.0000 0.0000
# 4 0.0000 0.0000 0.0000 23.6481 0.0000 0.0000
# 5 0.0000 0.0000 0.0000 0.0000 23.6481 0.0000
# 6 -0.0001 0.0001 0.0000 0.0000 0.0000 22.6879
#
#
#
# Elastic Compliance Matrix: (Units=1/GPa)
#
#
# Indices 1 2 3 4 5 6 
#
# 1 0.016644 -0.003212 -0.005159 0.000000 0.000000 0.000000
# 2 -0.003212 0.016644 -0.005159 0.000000 0.000000 0.000000
# 3 -0.005159 -0.005159 0.012008 0.000000 0.000000 0.000000
# 4 0.000000 0.000000 0.000000 0.042287 0.000000 0.000000
# 5 0.000000 0.000000 0.000000 0.000000 0.042287 0.000000
# 6 0.000000 0.000000 0.000000 0.000000 0.000000 0.044076
#
#
# Mechanical properties :
#
#
# Convention : Reuss Voigt Hill
#
# Bulk Modulus (GPa) = 54.83959 59.72761 57.28360
# Shear Modulus (GPa) = 24.14474 24.65837 24.40155
#
# Velocity S-wave (km/s) = 3.54001 3.57746 3.55879
# Velocity P-wave (km/s) = 6.72100 6.93284 6.82774
#
# Compressibility (1/GPa) = 0.01823500
#
# Stress axis : x y z
#
# Youngs Moduli (GPa) = 60.08199 60.08199 83.27867
#
# Poissons Ratio (x) = 0.19298 0.42965
# Poissons Ratio (y) = 0.19298 0.42965
# Poissons Ratio (z) = 0.30998 0.30998
#
# Static dielectric constant tensor:
#      x y z
#    x 3.484490 0.000000 0.000000 
#    y 0.000000 3.484490 0.000000 
#    z 0.000000 0.000000 3.457120 
# 
# 
# High freq. dielectric constant tensor:
#      x y z
#    x 1.746500 0.000000 0.000000 
#    y 0.000000 1.746500 0.000000 
#    z 0.000000 0.000000 1.744090 
# 
# From -- ./inp_files/2778.got.cif
#   From: 2010.03.12/outbox.cif.g09.slc.cpg/sg101_2_cif.got.tgz:2778.got - 2010.04.14 01:38:52.
