data_PCOD8306913
_publ_section_title
;
Structure prediction by ZEFSAII (Michael W. Deem and Ramdas Pophale) SiO2 
 PCOD8306913
Probable space group: P 42 N M
;
_chemical_formula_sum "Si O2"
_cell_formula_units_Z 64
_cell_length_a 14.066944
_cell_length_b 14.066944
_cell_length_c 17.034055
_cell_angle_alpha 90.000000
_cell_angle_beta 90.000000
_cell_angle_gamma 90.000000
_cell_volume 3370.680296
_symmetry_space_group_name_H-M "P 42 N M"
_symmetry_group_IT_number 102
_symmetry_cell_setting 'tetragonal'
loop_
_space_group_symop_operation_xyz
x,y,z
1/2-y,1/2+x,1/2+z
-x,-y,z
1/2+y,1/2-x,1/2+z
1/2-x,1/2+y,1/2+z
1/2+x,1/2-y,1/2+z
-y,-x,z
y,x,z
loop_
_atom_site_type_symbol
_atom_site_label
_atom_site_fract_x
_atom_site_fract_y
_atom_site_fract_z
Si Si1 0.121784 0.273057 0.034210
Si Si2 0.621784 0.226943 0.188360
Si Si3 0.603832 0.034122 0.450259
Si Si4 0.785607 0.063856 0.952195
Si Si5 0.637684 0.212178 0.714612
Si Si6 0.563858 0.714395 0.270374
Si Si7 0.603833 0.034122 0.272312
Si Si8 0.212175 0.637686 0.007957
O O1 0.220578 0.220578 0.017562
O O2 0.100258 0.276198 0.126419
O O3 0.134779 0.379168 0.003952
O O4 0.040051 0.214242 0.989606
O O5 0.720578 0.279423 0.205010
O O6 0.540048 0.285757 0.232961
O O7 0.634779 0.120833 0.218619
O O8 0.600262 0.223800 0.096150
O O9 0.596537 0.069845 0.361285
O O10 0.500000 0.000000 0.479484
O O11 0.684756 0.952943 0.455428
O O12 0.891047 0.108954 0.958610
O O13 0.752506 0.059989 0.861284
O O14 0.712183 0.126417 0.001941
O O15 0.690163 0.309838 0.743365
O O16 0.712181 0.126421 0.720629
O O17 0.547055 0.184758 0.767143
O O18 0.608955 0.608955 0.263959
O O19 0.500000 0.000000 0.243087
O O20 0.309835 0.690166 0.979204
#
# Coordination Sequence:
#
# PCOD8306913 Si02
#       8
#     8   8   8   8   8   8   8   8
#     4  11  23  37  56  85 118 151 188 234 288 337
#     4  11  23  37  56  85 118 151 188 234 288 337
#     4  11  22  35  57  87 113 147 188 229 281 336
#     4  10  20  36  59  85 114 149 188 232 288 351
#     4  10  21  37  58  83 112 150 192 234 279 331
#     4  10  20  36  59  85 114 149 188 232 288 351
#     4  11  22  35  57  87 113 147 188 229 281 336
#     4  10  21  37  58  83 112 150 192 234 279 331
#
# _framework density 18.987266000000002
#
# number of rings (size 3 to 8) (size 9 to 14) (size 15 to 20)
#    0.000    1.500    2.500    3.000    0.000    4.000 
#    0.000    1.250    0.000    2.250    0.000    1.750 
#    0.000    0.000    0.000    0.000    0.000    0.000 
#
# Total GULP energy -793644.570540 kJ/mol
# GULP energy per Si atom -12400.696415 kJ/mol
# Density = 1.894405 g / cm^3
# Si number density = 18.987266 Si / 1000 Ang^3
#
#
#
# Elastic Constant Matrix: (Units=GPa)
#
#
# Indices 1 2 3 4 5 6 
#
# 1 87.8240 39.4068 28.2272 0.0000 0.0000 0.0001
# 2 39.4068 87.8240 28.2272 0.0000 0.0000 -0.0001
# 3 28.2272 28.2272 70.4793 0.0000 0.0000 0.0000
# 4 0.0000 0.0000 0.0000 28.9876 0.0000 0.0000
# 5 0.0000 0.0000 0.0000 0.0000 28.9876 0.0000
# 6 0.0001 -0.0001 0.0000 0.0000 0.0000 38.2089
#
#
#
# Elastic Compliance Matrix: (Units=1/GPa)
#
#
# Indices 1 2 3 4 5 6 
#
# 1 0.015106 -0.005548 -0.003828 0.000000 0.000000 0.000000
# 2 -0.005548 0.015106 -0.003828 0.000000 0.000000 0.000000
# 3 -0.003828 -0.003828 0.017255 0.000000 0.000000 0.000000
# 4 0.000000 0.000000 0.000000 0.034498 0.000000 0.000000
# 5 0.000000 0.000000 0.000000 0.000000 0.034498 0.000000
# 6 0.000000 0.000000 0.000000 0.000000 0.000000 0.026172
#
#
# Mechanical properties :
#
#
# Convention : Reuss Voigt Hill
#
# Bulk Modulus (GPa) = 47.48557 48.64996 48.06777
# Shear Modulus (GPa) = 28.39912 29.25456 28.82684
#
# Velocity S-wave (km/s) = 3.87161 3.92949 3.90066
# Velocity P-wave (km/s) = 6.71188 6.80191 6.75704
#
# Compressibility (1/GPa) = 0.02105903
#
# Stress axis : x y z
#
# Youngs Moduli (GPa) = 66.19849 66.19849 57.95443
#
# Poissons Ratio (x) = 0.36725 0.22186
# Poissons Ratio (y) = 0.36725 0.22186
# Poissons Ratio (z) = 0.25342 0.25342
#
# Static dielectric constant tensor:
#      x y z
#    x 3.486550 0.000000 0.000000 
#    y 0.000000 3.486550 0.000000 
#    z 0.000000 0.000000 3.477610 
# 
# 
# High freq. dielectric constant tensor:
#      x y z
#    x 1.731850 0.000000 0.000000 
#    y 0.000000 1.731850 0.000000 
#    z 0.000000 0.000000 1.743800 
# 
# From -- ./inp_files/2853.got.cif
#   From: 2010.03.12/outbox.cif.g09.slc.cpg/sg102_2_cif.got.tgz:2853.got - 2010.04.14 01:40:42.
