data_PCOD8306840
_publ_section_title
;
Structure prediction by ZEFSAII (Michael W. Deem and Ramdas Pophale) SiO2 
 PCOD8306840
Probable space group: P 42 N M
;
_chemical_formula_sum "Si O2"
_cell_formula_units_Z 56
_cell_length_a 16.195047
_cell_length_b 16.195047
_cell_length_c 11.750805
_cell_angle_alpha 90.000000
_cell_angle_beta 90.000000
_cell_angle_gamma 90.000000
_cell_volume 3081.995816
_symmetry_space_group_name_H-M "P 42 N M"
_symmetry_group_IT_number 102
_symmetry_cell_setting 'tetragonal'
loop_
_space_group_symop_operation_xyz
x,y,z
1/2-y,1/2+x,1/2+z
-x,-y,z
1/2+y,1/2-x,1/2+z
1/2-x,1/2+y,1/2+z
1/2+x,1/2-y,1/2+z
-y,-x,z
y,x,z
loop_
_atom_site_type_symbol
_atom_site_label
_atom_site_fract_x
_atom_site_fract_y
_atom_site_fract_z
Si Si1 0.384862 0.747798 0.597070
Si Si2 0.006957 0.868681 0.190828
Si Si3 0.887148 0.444828 0.203289
Si Si4 0.501580 0.632194 0.949309
Si Si5 0.115577 0.562615 0.755076
Si Si6 0.006628 0.690243 0.474661
Si Si7 0.675251 0.188999 0.371561
O O1 0.312445 0.687555 0.643449
O O2 0.475768 0.707929 0.616439
O O3 0.379708 0.832576 0.668402
O O4 0.376689 0.758329 0.462289
O O5 0.093563 0.906438 0.142890
O O6 0.020952 0.839789 0.320134
O O7 0.940614 0.940614 0.191279
O O8 0.895512 0.526715 0.282402
O O9 0.820832 0.380501 0.257476
O O10 0.974187 0.397932 0.194703
O O11 0.866814 0.480869 0.079346
O O12 0.416551 0.583450 0.958869
O O13 0.576735 0.576735 0.997236
O O14 0.491127 0.716474 0.018929
O O15 0.164896 0.554019 0.872495
O O16 0.101158 0.687338 0.432951
O O17 0.761855 0.238146 0.344695
#
# Coordination Sequence:
#
# PCOD8306840 Si02
#       7
#     8   8   8   8   8   8   8
#     4  10  18  33  56  78 107 144 181 225 275 334
#     4   8  14  26  47  76 104 131 170 219 267 316
#     4  10  23  36  54  79 110 146 183 228 279 336
#     4   9  17  29  48  77 108 135 172 222 275 329
#     4  10  21  35  54  80 107 140 187 228 270 335
#     4  11  20  34  57  79 106 147 177 233 279 331
#     4  10  22  38  56  81 111 146 187 231 281 338
#
# _framework density 18.170043
#
# number of rings (size 3 to 8) (size 9 to 14) (size 15 to 20)
#    0.000    2.286    2.857    1.286    2.000    1.714 
#    0.000    0.000    0.000    2.571    0.000    2.000 
#    0.000    0.000    0.000    0.000    0.000    0.000 
#
# Total GULP energy -693895.091331 kJ/mol
# GULP energy per Si atom -12390.983774 kJ/mol
# Density = 1.812869 g / cm^3
# Si number density = 18.170043 Si / 1000 Ang^3
#
#
#
# Elastic Constant Matrix: (Units=GPa)
#
#
# Indices 1 2 3 4 5 6 
#
# 1 80.7936 29.4191 25.4429 0.0000 0.0000 -0.0004
# 2 29.4191 80.7936 25.4429 0.0000 0.0000 0.0004
# 3 25.4429 25.4429 52.1098 0.0000 0.0000 0.0000
# 4 0.0000 0.0000 0.0000 23.6309 0.0000 0.0000
# 5 0.0000 0.0000 0.0000 0.0000 23.6309 0.0000
# 6 -0.0004 0.0004 0.0000 0.0000 0.0000 28.4475
#
#
#
# Elastic Compliance Matrix: (Units=1/GPa)
#
#
# Indices 1 2 3 4 5 6 
#
# 1 0.015589 -0.003875 -0.005719 0.000000 0.000000 0.000000
# 2 -0.003875 0.015589 -0.005719 0.000000 0.000000 0.000000
# 3 -0.005719 -0.005719 0.024775 0.000000 0.000000 0.000000
# 4 0.000000 0.000000 0.000000 0.042317 0.000000 0.000000
# 5 0.000000 0.000000 0.000000 0.000000 0.042317 0.000000
# 6 0.000000 0.000000 0.000000 0.000000 0.000000 0.035152
#
#
# Mechanical properties :
#
#
# Convention : Reuss Voigt Hill
#
# Bulk Modulus (GPa) = 39.48562 41.58963 40.53763
# Shear Modulus (GPa) = 23.27615 24.03469 23.65542
#
# Velocity S-wave (km/s) = 3.58301 3.64093 3.61209
# Velocity P-wave (km/s) = 6.23664 6.37291 6.30514
#
# Compressibility (1/GPa) = 0.02532567
#
# Stress axis : x y z
#
# Youngs Moduli (GPa) = 64.14578 64.14578 40.36269
#
# Poissons Ratio (x) = 0.24859 0.23085
# Poissons Ratio (y) = 0.24859 0.23085
# Poissons Ratio (z) = 0.36688 0.36688
#
# Static dielectric constant tensor:
#      x y z
#    x 3.580090 0.000000 0.000000 
#    y 0.000000 3.580090 0.000000 
#    z 0.000000 0.000000 3.066140 
# 
# 
# High freq. dielectric constant tensor:
#      x y z
#    x 1.706070 0.000000 0.000000 
#    y 0.000000 1.706070 0.000000 
#    z 0.000000 0.000000 1.666640 
# 
# From -- ./inp_files/1894.got.cif
#   From: 2010.03.12/outbox.cif.g09.slc.cpg/sg102_1_cif.got.tgz:1894.got - 2010.04.14 01:40:42.
