data_PCOD8306010
_publ_section_title
;
Structure prediction by ZEFSAII (Michael W. Deem and Ramdas Pophale) SiO2 
 PCOD8306010
Probable space group: P 43 21 2
;
_chemical_formula_sum "Si O2"
_cell_formula_units_Z 32
_cell_length_a 9.202976
_cell_length_b 9.202976
_cell_length_c 16.006781
_cell_angle_alpha 90.000000
_cell_angle_beta 90.000000
_cell_angle_gamma 90.000000
_cell_volume 1355.690591
_symmetry_space_group_name_H-M "P 43 21 2"
_symmetry_group_IT_number 96
_symmetry_cell_setting 'tetragonal'
loop_
_space_group_symop_operation_xyz
x,y,z
1/2-y,1/2+x,3/4+z
-x,-y,1/2+z
1/2+y,1/2-x,1/4+z
1/2+x,1/2-y,1/4-z
1/2-x,1/2+y,3/4-z
y,x,-z
-y,-x,1/2-z
loop_
_atom_site_type_symbol
_atom_site_label
_atom_site_fract_x
_atom_site_fract_y
_atom_site_fract_z
Si Si1 0.791228 0.541169 0.133630
Si Si2 0.102462 0.403257 0.140636
Si Si3 0.560041 0.560041 0.000000
Si Si4 0.677899 0.322102 0.250000
Si Si5 0.228454 0.136188 0.686825
O O1 0.715657 0.546861 0.044065
O O2 0.676675 0.468913 0.196802
O O3 0.820860 0.702195 0.164671
O O4 0.931457 0.435850 0.128289
O O5 0.172746 0.316121 0.062682
O O6 0.179073 0.562014 0.137715
O O7 0.131946 0.320424 0.226836
O O8 0.421222 0.546912 0.059948
#
# Coordination Sequence:
#
# PCOD8306010 Si02
#       5
#     8   8   4   4   8
#     4  12  28  49  74 115 153 201 258 324 383 468
#     4  12  27  49  78 111 154 201 261 320 392 475
#     4  12  27  48  73 108 152 194 259 308 383 456
#     4  12  25  46  79 106 152 200 253 320 389 464
#     4  12  28  48  78 111 150 206 255 322 391 463
#
# _framework density 23.604208
#
# number of rings (size 3 to 8) (size 9 to 14) (size 15 to 20)
#    0.000    0.000    5.000    3.750    7.000    0.000 
#    0.000    0.000    0.000    0.000    0.000    0.000 
#    0.000    0.000    0.000    0.000    0.000    0.000 
#
# Total GULP energy -396714.734581 kJ/mol
# GULP energy per Si atom -12397.335456 kJ/mol
# Density = 2.355048 g / cm^3
# Si number density = 23.604208 Si / 1000 Ang^3
#
#
#
# Elastic Constant Matrix: (Units=GPa)
#
#
# Indices 1 2 3 4 5 6 
#
# 1 99.0588 37.2143 16.5292 0.0000 0.0000 0.0000
# 2 37.2143 99.0579 16.5284 0.0000 0.0000 0.0000
# 3 16.5292 16.5284 43.4877 0.0000 0.0000 0.0000
# 4 0.0000 0.0000 0.0000 40.2851 0.0000 0.0000
# 5 0.0000 0.0000 0.0000 0.0000 40.2848 0.0000
# 6 0.0000 0.0000 0.0000 0.0000 0.0000 47.1755
#
#
#
# Elastic Compliance Matrix: (Units=1/GPa)
#
#
# Indices 1 2 3 4 5 6 
#
# 1 0.012127 -0.004043 -0.003073 0.000000 0.000000 0.000000
# 2 -0.004043 0.012127 -0.003072 0.000000 0.000000 0.000000
# 3 -0.003073 -0.003072 0.025330 0.000000 0.000000 0.000000
# 4 0.000000 0.000000 0.000000 0.024823 0.000000 0.000000
# 5 0.000000 0.000000 0.000000 0.000000 0.024823 0.000000
# 6 0.000000 0.000000 0.000000 0.000000 0.000000 0.021197
#
#
# Mechanical properties :
#
#
# Convention : Reuss Voigt Hill
#
# Bulk Modulus (GPa) = 34.23717 42.46092 38.34904
# Shear Modulus (GPa) = 33.21393 36.97125 35.09259
#
# Velocity S-wave (km/s) = 3.75523 3.96194 3.85997
# Velocity P-wave (km/s) = 5.77395 6.24156 6.01230
#
# Compressibility (1/GPa) = 0.02920802
#
# Stress axis : x y z
#
# Youngs Moduli (GPa) = 82.46332 82.46300 39.47812
#
# Poissons Ratio (x) = 0.33341 0.12130
# Poissons Ratio (y) = 0.33341 0.12129
# Poissons Ratio (z) = 0.25337 0.25335
#
# Static dielectric constant tensor:
#      x y z
#    x 4.378580 0.000000 0.000000 
#    y 0.000000 4.378580 0.000000 
#    z 0.000000 0.000000 4.259630 
# 
# 
# High freq. dielectric constant tensor:
#      x y z
#    x 1.947770 0.000000 0.000000 
#    y 0.000000 1.947770 0.000000 
#    z 0.000000 0.000000 1.929560 
# 
# From -- ./inp_files/3389.got.cif
#   From: 2010.03.12/outbox.cif.g09.slc.cpg/sg96_2_cif.got.tgz:3389.got - 2010.04.08 20:56:49.
