data_PCOD8306706
_publ_section_title
;
Structure prediction by ZEFSAII (Michael W. Deem and Ramdas Pophale) SiO2 
 PCOD8306706
Probable space group: P 42 C M
;
_chemical_formula_sum "Si O2"
_cell_formula_units_Z 64
_cell_length_a 12.212240
_cell_length_b 12.212240
_cell_length_c 27.522666
_cell_angle_alpha 90.000000
_cell_angle_beta 90.000000
_cell_angle_gamma 90.000000
_cell_volume 4104.697540
_symmetry_space_group_name_H-M "P 42 C M"
_symmetry_group_IT_number 101
_symmetry_cell_setting 'tetragonal'
loop_
_space_group_symop_operation_xyz
x,y,z
-y,x,1/2+z
-x,-y,z
y,-x,1/2+z
-x,y,1/2+z
x,-y,1/2+z
-y,-x,z
y,x,z
loop_
_atom_site_type_symbol
_atom_site_label
_atom_site_fract_x
_atom_site_fract_y
_atom_site_fract_z
Si Si1 0.677265 0.500832 0.906010
Si Si2 0.510273 0.125638 0.334446
Si Si3 0.864906 0.311741 0.161917
Si Si4 0.285641 0.110973 0.153987
Si Si5 0.499169 0.322736 0.019615
Si Si6 0.864904 0.311742 0.763708
Si Si7 0.285640 0.889029 0.271638
Si Si8 0.510272 0.125638 0.591179
O O1 0.606368 0.393633 0.893028
O O2 0.608824 0.608824 0.890478
O O3 0.793182 0.493216 0.879232
O O4 0.702914 0.504845 0.962812
O O5 0.424337 0.151572 0.292011
O O6 0.629343 0.148040 0.312510
O O7 0.500000 0.000000 0.352647
O O8 0.773526 0.226475 0.144386
O O9 0.857091 0.336203 0.219287
O O10 0.848428 0.424335 0.133613
O O11 0.982654 0.259494 0.149985
O O12 0.171581 0.171581 0.144646
O O13 0.336203 0.142912 0.206339
O O14 0.370659 0.148042 0.113116
O O15 0.606369 0.393631 0.032596
O O16 0.391177 0.391177 0.035146
O O17 0.506785 0.206818 0.046393
O O18 0.773523 0.226477 0.781240
O O19 0.982652 0.259494 0.775641
O O20 0.171580 0.828421 0.280978
O O21 0.500000 0.000000 0.572978
#
# Coordination Sequence:
#
# PCOD8306706 Si02
#       8
#     8   8   8   8   8   8   8   8
#     4   9  18  32  48  64  82 106 137 172 208 247
#     4  10  18  28  44  64  87 111 135 168 209 250
#     4   9  17  28  42  61  85 113 143 172 202 238
#     4   9  17  28  42  61  85 113 143 172 202 238
#     4   9  18  32  48  64  82 106 137 172 208 247
#     4   9  17  28  42  61  85 113 143 172 202 238
#     4   9  17  28  42  61  85 113 143 172 202 238
#     4  10  18  28  44  64  87 111 135 168 209 250
#
# _framework density 15.591891
#
# number of rings (size 3 to 8) (size 9 to 14) (size 15 to 20)
#    0.000    2.750    0.000    3.000    0.000    4.000 
#    0.000    2.500    0.000    0.000    0.000   10.500 
#    0.000    0.000    0.000   46.500    0.000    0.500 
#
# Total GULP energy -793520.926962 kJ/mol
# GULP energy per Si atom -12398.764484 kJ/mol
# Density = 1.555640 g / cm^3
# Si number density = 15.591891 Si / 1000 Ang^3
#
#
#
# Elastic Constant Matrix: (Units=GPa)
#
#
# Indices 1 2 3 4 5 6 
#
# 1 68.1078 27.4116 28.5311 0.0000 0.0000 0.0003
# 2 27.4116 68.1078 28.5311 0.0000 0.0000 -0.0003
# 3 28.5311 28.5311 50.2805 0.0000 0.0000 0.0000
# 4 0.0000 0.0000 0.0000 24.9033 0.0000 0.0000
# 5 0.0000 0.0000 0.0000 0.0000 24.9033 0.0000
# 6 0.0003 -0.0003 0.0000 0.0000 0.0000 22.4377
#
#
#
# Elastic Compliance Matrix: (Units=1/GPa)
#
#
# Indices 1 2 3 4 5 6 
#
# 1 0.020205 -0.004367 -0.008987 0.000000 0.000000 0.000000
# 2 -0.004367 0.020205 -0.008987 0.000000 0.000000 0.000000
# 3 -0.008987 -0.008987 0.030088 0.000000 0.000000 0.000000
# 4 0.000000 0.000000 0.000000 0.040155 0.000000 0.000000
# 5 0.000000 0.000000 0.000000 0.000000 0.040155 0.000000
# 6 0.000000 0.000000 0.000000 0.000000 0.000000 0.044568
#
#
# Mechanical properties :
#
#
# Convention : Reuss Voigt Hill
#
# Bulk Modulus (GPa) = 38.73684 39.49376 39.11530
# Shear Modulus (GPa) = 20.10749 21.25036 20.67892
#
# Velocity S-wave (km/s) = 3.59501 3.69577 3.64574
# Velocity P-wave (km/s) = 6.49079 6.60275 6.54701
#
# Compressibility (1/GPa) = 0.02581522
#
# Stress axis : x y z
#
# Youngs Moduli (GPa) = 49.49259 49.49259 33.23633
#
# Poissons Ratio (x) = 0.21615 0.29869
# Poissons Ratio (y) = 0.21615 0.29869
# Poissons Ratio (z) = 0.44479 0.44479
#
# Static dielectric constant tensor:
#      x y z
#    x 2.970080 0.000000 0.000000 
#    y 0.000000 2.970080 0.000000 
#    z 0.000000 0.000000 2.776760 
# 
# 
# High freq. dielectric constant tensor:
#      x y z
#    x 1.599590 0.000000 0.000000 
#    y 0.000000 1.599590 0.000000 
#    z 0.000000 0.000000 1.580940 
# 
# From -- ./inp_files/2779.got.cif
#   From: 2010.03.12/outbox.cif.g09.slc.cpg/sg101_2_cif.got.tgz:2779.got - 2010.04.14 01:38:52.
