data_PCOD8306629
_publ_section_title
;
Structure prediction by ZEFSAII (Michael W. Deem and Ramdas Pophale) SiO2 
 PCOD8306629
Probable space group: P 4 B M
;
_chemical_formula_sum "Si O2"
_cell_formula_units_Z 64
_cell_length_a 16.179841
_cell_length_b 16.179841
_cell_length_c 12.058302
_cell_angle_alpha 90.000000
_cell_angle_beta 90.000000
_cell_angle_gamma 90.000000
_cell_volume 3156.709778
_symmetry_space_group_name_H-M "P 4 B M"
_symmetry_group_IT_number 100
_symmetry_cell_setting 'tetragonal'
loop_
_space_group_symop_operation_xyz
x,y,z
-y,x,z
-x,-y,z
y,-x,z
1/2-x,1/2+y,z
1/2+x,1/2-y,z
1/2-y,1/2-x,z
1/2+y,1/2+x,z
loop_
_atom_site_type_symbol
_atom_site_label
_atom_site_fract_x
_atom_site_fract_y
_atom_site_fract_z
Si Si1 0.670972 0.958858 0.214170
Si Si2 0.471380 0.840707 0.449728
Si Si3 0.995419 0.366372 0.689182
Si Si4 0.390742 0.415069 0.681877
Si Si5 0.744193 0.103953 0.834442
Si Si6 0.803117 0.833725 0.243438
Si Si7 0.204138 0.836996 0.477458
Si Si8 0.396010 0.763999 0.083280
O O1 0.590742 0.909259 0.173370
O O2 0.754178 0.908494 0.186910
O O3 0.667691 0.967570 0.346697
O O4 0.672936 0.041872 0.143386
O O5 0.431774 0.931774 0.443332
O O6 0.520980 0.829561 0.565842
O O7 0.401195 0.772975 0.439903
O O8 0.069762 0.430239 0.678398
O O9 0.023901 0.294980 0.772923
O O10 0.912132 0.412132 0.732494
O O11 0.485290 0.385359 0.687772
O O12 0.334220 0.378060 0.781403
O O13 0.352585 0.375752 0.571631
O O14 0.684149 0.184149 0.822898
O O15 0.760638 0.074549 0.960422
O O16 0.748654 0.751347 0.253188
O O17 0.827737 0.855280 0.369959
O O18 0.881492 0.815428 0.162935
O O19 0.251427 0.751427 0.513918
O O20 0.309473 0.809473 0.066031
#
# Coordination Sequence:
#
# PCOD8306629 Si02
#       8
#     8   8   8   8   8   8   8   8
#     4  11  22  34  55  88 120 150 188 234 286 345
#     4  10  18  31  54  83 114 147 181 222 281 348
#     4   9  17  30  51  82 115 144 179 228 286 347
#     4  11  25  41  59  86 119 150 188 244 300 348
#     4  10  21  40  64  83 108 153 201 241 289 350
#     4   9  20  36  54  80 113 150 190 233 275 329
#     4  10  19  36  63  85 111 152 195 235 283 347
#     4  10  21  38  59  82 111 151 193 236 287 338
#
# _framework density 20.274273000000001
#
# number of rings (size 3 to 8) (size 9 to 14) (size 15 to 20)
#    0.000    2.000    2.500    1.125    1.750    3.000 
#    0.000    2.500    0.000    0.375    0.000    0.000 
#    0.000    0.000    0.000    0.000    0.000    0.000 
#
# Total GULP energy -793214.495072 kJ/mol
# GULP energy per Si atom -12393.976485 kJ/mol
# Density = 2.022813 g / cm^3
# Si number density = 20.274273 Si / 1000 Ang^3
#
#
#
# Elastic Constant Matrix: (Units=GPa)
#
#
# Indices 1 2 3 4 5 6 
#
# 1 62.4743 21.9772 32.8554 0.0000 0.0000 -0.0002
# 2 21.9772 62.4743 32.8554 0.0000 0.0000 0.0002
# 3 32.8554 32.8554 148.2563 0.0000 0.0000 0.0000
# 4 0.0000 0.0000 0.0000 12.0508 0.0000 0.0000
# 5 0.0000 0.0000 0.0000 0.0000 12.0508 0.0000
# 6 -0.0002 0.0002 0.0000 0.0000 0.0000 22.2450
#
#
#
# Elastic Compliance Matrix: (Units=1/GPa)
#
#
# Indices 1 2 3 4 5 6 
#
# 1 0.019501 -0.005192 -0.003171 0.000000 0.000000 0.000000
# 2 -0.005192 0.019501 -0.003171 0.000000 0.000000 0.000000
# 3 -0.003171 -0.003171 0.008150 0.000000 0.000000 0.000000
# 4 0.000000 0.000000 0.000000 0.082982 0.000000 0.000000
# 5 0.000000 0.000000 0.000000 0.000000 0.082982 0.000000
# 6 0.000000 0.000000 0.000000 0.000000 0.000000 0.044954
#
#
# Mechanical properties :
#
#
# Convention : Reuss Voigt Hill
#
# Bulk Modulus (GPa) = 41.52201 49.84230 45.68216
# Shear Modulus (GPa) = 17.29107 21.63710 19.46408
#
# Velocity S-wave (km/s) = 2.92354 3.27038 3.10181
# Velocity P-wave (km/s) = 5.64984 6.23682 5.95057
#
# Compressibility (1/GPa) = 0.02408361
#
# Stress axis : x y z
#
# Youngs Moduli (GPa) = 51.28006 51.28006 122.69193
#
# Poissons Ratio (x) = 0.26627 0.38904
# Poissons Ratio (y) = 0.26627 0.38904
# Poissons Ratio (z) = 0.16260 0.16260
#
# Static dielectric constant tensor:
#      x y z
#    x 3.554890 0.000000 0.000000 
#    y 0.000000 3.554890 0.000000 
#    z 0.000000 0.000000 3.779020 
# 
# 
# High freq. dielectric constant tensor:
#      x y z
#    x 1.775320 0.000000 0.000000 
#    y 0.000000 1.775320 0.000000 
#    z 0.000000 0.000000 1.791070 
# 
# From -- ./inp_files/1377.got.cif
#   From: 2010.03.12/outbox.cif.g09.slc.cpg/sg100_cif.got.tgz:1377.got - 2010.04.14 01:37:57.
