data_PCOD8306502
_publ_section_title
;
Structure prediction by ZEFSAII (Michael W. Deem and Ramdas Pophale) SiO2 
 PCOD8306502
Probable space group: P 4 M M
;
_chemical_formula_sum "Si O2"
_cell_formula_units_Z 64
_cell_length_a 13.538679
_cell_length_b 13.538679
_cell_length_c 20.423151
_cell_angle_alpha 90.000000
_cell_angle_beta 90.000000
_cell_angle_gamma 90.000000
_cell_volume 3743.478395
_symmetry_space_group_name_H-M "P 4 M M"
_symmetry_group_IT_number 99
_symmetry_cell_setting 'tetragonal'
loop_
_space_group_symop_operation_xyz
x,y,z
-y,x,z
-x,-y,z
y,-x,z
-x,y,z
x,-y,z
-y,-x,z
y,x,z
loop_
_atom_site_type_symbol
_atom_site_label
_atom_site_fract_x
_atom_site_fract_y
_atom_site_fract_z
Si Si1 0.387379 0.114398 0.325010
Si Si2 0.382929 0.890011 0.067990
Si Si3 0.275803 0.115532 0.828352
Si Si4 0.616008 0.773290 0.194637
Si Si5 0.612977 0.886868 0.696643
Si Si6 0.224738 0.384737 0.565335
Si Si7 0.383870 0.776037 0.939071
Si Si8 0.884598 0.275178 0.455879
O O1 0.500000 0.140047 0.343534
O O2 0.352569 0.174364 0.261775
O O3 0.319348 0.144626 0.385634
O O4 0.376395 0.000000 0.307407
O O5 0.500000 0.897441 0.068248
O O6 0.345543 0.840603 0.134976
O O7 0.337159 0.000000 0.062831
O O8 0.347834 0.825182 0.006641
O O9 0.173441 0.173441 0.839244
O O10 0.317670 0.141375 0.756988
O O11 0.357276 0.148671 0.881016
O O12 0.254348 0.000000 0.836596
O O13 0.500000 0.754691 0.190012
O O14 0.666946 0.666946 0.190781
O O15 0.500000 0.868415 0.717718
O O16 0.642884 0.818720 0.635988
O O17 0.628731 0.000000 0.675372
O O18 0.247574 0.500000 0.558781
O O19 0.326989 0.326989 0.554539
O O20 0.144981 0.354311 0.510884
O O21 0.500000 0.753862 0.938315
O O22 0.327768 0.672233 0.929748
O O23 0.827314 0.172687 0.466690
O O24 0.000000 0.252570 0.461258
#
# Coordination Sequence:
#
# PCOD8306502 Si02
#       8
#     8   8   8   8   8   8   8   8
#     4   9  17  30  49  71  93 119 154 196 239 281
#     4   9  17  30  48  68  90 118 154 195 235 274
#     4  10  20  33  50  72  98 129 165 204 245 287
#     4  10  19  30  45  66  94 126 158 193 234 281
#     4   9  17  30  50  74  97 123 158 199 241 286
#     4  10  20  33  50  72  98 128 162 199 238 282
#     4  10  20  33  50  73 100 129 161 197 239 289
#     4  10  20  33  50  72  97 125 158 197 241 289
#
# _framework density 17.096399000000002
#
# number of rings (size 3 to 8) (size 9 to 14) (size 15 to 20)
#    0.000    2.375    0.000    3.000    0.000    4.625 
#    0.000    0.000    0.000    2.250    0.000    5.250 
#    0.000   10.250    0.000    0.000    0.000    0.000 
#
# Total GULP energy -793725.892820 kJ/mol
# GULP energy per Si atom -12401.967075 kJ/mol
# Density = 1.705749 g / cm^3
# Si number density = 17.096399 Si / 1000 Ang^3
#
#
#
# Elastic Constant Matrix: (Units=GPa)
#
#
# Indices 1 2 3 4 5 6 
#
# 1 83.0610 43.1952 47.4542 0.0000 0.0000 0.0001
# 2 43.1952 83.0610 47.4542 0.0000 0.0000 -0.0001
# 3 47.4542 47.4542 113.7444 0.0000 0.0000 0.0000
# 4 0.0000 0.0000 0.0000 25.1677 0.0000 0.0000
# 5 0.0000 0.0000 0.0000 0.0000 25.1677 0.0000
# 6 0.0001 -0.0001 0.0000 0.0000 0.0000 19.2386
#
#
#
# Elastic Compliance Matrix: (Units=1/GPa)
#
#
# Indices 1 2 3 4 5 6 
#
# 1 0.018312 -0.006772 -0.004814 0.000000 0.000000 0.000000
# 2 -0.006772 0.018312 -0.004814 0.000000 0.000000 0.000000
# 3 -0.004814 -0.004814 0.012809 0.000000 0.000000 0.000000
# 4 0.000000 0.000000 0.000000 0.039733 0.000000 0.000000
# 5 0.000000 0.000000 0.000000 0.000000 0.039733 0.000000
# 6 0.000000 0.000000 0.000000 0.000000 0.000000 0.051979
#
#
# Mechanical properties :
#
#
# Convention : Reuss Voigt Hill
#
# Bulk Modulus (GPa) = 60.13080 61.78597 60.95838
# Shear Modulus (GPa) = 22.80781 23.36564 23.08672
#
# Velocity S-wave (km/s) = 3.65646 3.70090 3.67875
# Velocity P-wave (km/s) = 7.28520 7.38109 7.33330
#
# Compressibility (1/GPa) = 0.01663041
#
# Stress axis : x y z
#
# Youngs Moduli (GPa) = 54.60976 54.60976 78.07247
#
# Poissons Ratio (x) = 0.36984 0.37586
# Poissons Ratio (y) = 0.36984 0.37586
# Poissons Ratio (z) = 0.26290 0.26290
#
# Static dielectric constant tensor:
#      x y z
#    x 3.032480 0.000000 0.000000 
#    y 0.000000 3.032480 0.000000 
#    z 0.000000 0.000000 3.357300 
# 
# 
# High freq. dielectric constant tensor:
#      x y z
#    x 1.649550 0.000000 0.000000 
#    y 0.000000 1.649550 0.000000 
#    z 0.000000 0.000000 1.676910 
# 
# From -- ./inp_files/2260.got.cif
#   From: 2010.03.12/outbox.cif.g09.slc.cpg/sg99_cif.got.tgz:2260.got - 2010.04.08 21:11:30.
