data_PCOD8306231
_publ_section_title
;
Structure prediction by ZEFSAII (Michael W. Deem and Ramdas Pophale) SiO2 
 PCOD8306231
Probable space group: I 41 2 2
;
_chemical_formula_sum "Si O2"
_cell_formula_units_Z 96
_cell_length_a 25.709263
_cell_length_b 25.709263
_cell_length_c 9.623214
_cell_angle_alpha 90.000000
_cell_angle_beta 90.000000
_cell_angle_gamma 90.000000
_cell_volume 6360.619228
_symmetry_space_group_name_H-M "I 41 2 2"
_symmetry_group_IT_number 98
_symmetry_cell_setting 'tetragonal'
loop_
_space_group_symop_operation_xyz
x,y,z
-y,1/2+x,1/4+z
-x,-y,z
y,1/2-x,1/4+z
x,1/2-y,1/4-z
-x,1/2+y,1/4-z
y,x,-z
-y,-x,-z
1/2+x,1/2+y,1/2+z
1/2-y,x,3/4+z
1/2-x,1/2-y,1/2+z
1/2+y,-x,3/4+z
1/2+x,-y,3/4-z
1/2-x,y,3/4-z
1/2+y,1/2+x,1/2-z
1/2-y,1/2-x,1/2-z
loop_
_atom_site_type_symbol
_atom_site_label
_atom_site_fract_x
_atom_site_fract_y
_atom_site_fract_z
Si Si1 0.046036 0.458757 0.592080
Si Si2 0.555759 0.280135 0.254723
Si Si3 0.966775 0.391985 0.081350
Si Si4 0.112652 0.516056 0.100864
Si Si5 0.711452 0.091610 0.997855
Si Si6 0.333219 0.691841 0.146820
O O1 0.059235 0.440766 0.750000
O O2 0.096180 0.487061 0.527070
O O3 0.000000 0.500000 0.593398
O O4 0.031063 0.410588 0.491371
O O5 0.520075 0.326607 0.310502
O O6 0.566868 0.235841 0.365869
O O7 0.610214 0.305306 0.211363
O O8 0.529165 0.250000 0.125000
O O9 0.919667 0.432401 0.067341
O O10 0.993339 0.391595 0.233830
O O11 0.941398 0.338471 0.039501
O O12 0.750000 0.082745 0.875000
O O13 0.701764 0.153974 0.008312
O O14 0.308908 0.750000 0.125000
O O15 0.337465 0.662536 0.000000
#
# Coordination Sequence:
#
# PCOD8306231 Si02
#       6
#    16  16  16  16  16  16
#     4   9  19  32  50  77  91 115 150 190 250 300
#     4  11  22  35  50  68  91 128 162 202 260 291
#     4  10  20  33  52  69  95 121 151 207 247 300
#     4  10  19  34  51  69  95 120 157 197 248 300
#     4  12  23  36  52  69  92 122 171 209 254 306
#     4  11  22  37  46  62  85 121 165 212 263 288
#
# _framework density 15.092869
#
# number of rings (size 3 to 8) (size 9 to 14) (size 15 to 20)
#    0.000    1.500    6.667    0.500    2.333    3.333 
#    0.000    0.000    0.000    0.000    0.000    0.000 
#    0.000    0.000    0.000    0.000    0.000    5.000 
#
# Total GULP energy -594936.845335 kJ/mol
# GULP energy per Si atom -12394.517611 kJ/mol
# Density = 1.505852 g / cm^3
# Si number density = 15.092869 Si / 1000 Ang^3
#
#
#
# Elastic Constant Matrix: (Units=GPa)
#
#
# Indices 1 2 3 4 5 6 
#
# 1 62.2591 43.2190 35.3152 0.0000 0.0000 0.0000
# 2 43.2190 62.2595 35.3154 0.0000 0.0000 0.0000
# 3 35.3152 35.3154 105.3137 0.0000 0.0000 0.0000
# 4 0.0000 0.0000 0.0000 14.3696 0.0000 0.0000
# 5 0.0000 0.0000 0.0000 0.0000 14.3749 0.0000
# 6 0.0000 0.0000 0.0000 0.0000 0.0000 26.5303
#
#
#
# Elastic Compliance Matrix: (Units=1/GPa)
#
#
# Indices 1 2 3 4 5 6 
#
# 1 0.032373 -0.020147 -0.004100 0.000000 0.000000 0.000000
# 2 -0.020147 0.032373 -0.004100 0.000000 0.000000 0.000000
# 3 -0.004100 -0.004100 0.012245 0.000000 0.000000 0.000000
# 4 0.000000 0.000000 0.000000 0.069591 0.000000 0.000000
# 5 0.000000 0.000000 0.000000 0.000000 0.069566 0.000000
# 6 0.000000 0.000000 0.000000 0.000000 0.000000 0.037693
#
#
# Mechanical properties :
#
#
# Convention : Reuss Voigt Hill
#
# Bulk Modulus (GPa) = 49.26646 50.83684 50.05165
# Shear Modulus (GPa) = 15.75796 18.78715 17.27256
#
# Velocity S-wave (km/s) = 3.23471 3.53196 3.38660
# Velocity P-wave (km/s) = 6.83112 7.09850 6.96609
#
# Compressibility (1/GPa) = 0.02029778
#
# Stress axis : x y z
#
# Youngs Moduli (GPa) = 30.88985 30.89001 81.66575
#
# Poissons Ratio (x) = 0.62234 0.33481
# Poissons Ratio (y) = 0.62234 0.33481
# Poissons Ratio (z) = 0.12664 0.12664
#
# Static dielectric constant tensor:
#      x y z
#    x 2.751250 0.000000 0.000000 
#    y 0.000000 2.751240 0.000000 
#    z 0.000000 0.000000 3.298340 
# 
# 
# High freq. dielectric constant tensor:
#      x y z
#    x 1.545720 0.000000 0.000000 
#    y 0.000000 1.545720 0.000000 
#    z 0.000000 0.000000 1.603060 
# 
# From -- ./inp_files/3835.got.cif
#   From: 2010.03.12/outbox.cif.g09.slc.cpg/sg98_2_cif.got.tgz:3835.got - 2010.04.08 21:04:41.
