data_PCOD8306376
_publ_section_title
;
Structure prediction by ZEFSAII (Michael W. Deem and Ramdas Pophale) SiO2 
 PCOD8306376
Probable space group: I 41 2 2
;
_chemical_formula_sum "Si O2"
_cell_formula_units_Z 80
_cell_length_a 11.818183
_cell_length_b 11.818183
_cell_length_c 25.915515
_cell_angle_alpha 90.000000
_cell_angle_beta 90.000000
_cell_angle_gamma 90.000000
_cell_volume 3619.605712
_symmetry_space_group_name_H-M "I 41 2 2"
_symmetry_group_IT_number 98
_symmetry_cell_setting 'tetragonal'
loop_
_space_group_symop_operation_xyz
x,y,z
-y,1/2+x,1/4+z
-x,-y,z
y,1/2-x,1/4+z
x,1/2-y,1/4-z
-x,1/2+y,1/4-z
y,x,-z
-y,-x,-z
1/2+x,1/2+y,1/2+z
1/2-y,x,3/4+z
1/2-x,1/2-y,1/2+z
1/2+y,-x,3/4+z
1/2+x,-y,3/4-z
1/2-x,y,3/4-z
1/2+y,1/2+x,1/2-z
1/2-y,1/2-x,1/2-z
loop_
_atom_site_type_symbol
_atom_site_label
_atom_site_fract_x
_atom_site_fract_y
_atom_site_fract_z
Si Si1 0.613331 0.283826 0.377059
Si Si2 0.901587 0.719160 0.184471
Si Si3 0.092192 0.774832 0.260975
Si Si4 0.721024 0.049916 0.231523
Si Si5 0.292970 0.207031 0.250000
Si Si6 0.500000 0.000000 0.842280
O O1 0.750000 0.277430 0.375000
O O2 0.562982 0.225610 0.428419
O O3 0.553536 0.217729 0.330588
O O4 0.576123 0.415417 0.373177
O O5 0.921905 0.750000 0.125000
O O6 0.772276 0.745541 0.199618
O O7 0.924809 0.585184 0.192507
O O8 0.984213 0.787191 0.223511
O O9 0.157299 0.657299 0.250000
O O10 0.171033 0.881590 0.250902
O O11 0.603895 0.103895 0.250000
O O12 0.730761 0.925654 0.255268
#
# Coordination Sequence:
#
# PCOD8306376 Si02
#       6
#    16  16  16  16   8   8
#     4  12  22  41  70 109 135 189 246 301 363 442
#     4  12  26  45  68 110 151 192 242 301 372 451
#     4  11  22  41  75 106 138 189 253 295 361 440
#     4  11  24  47  73  98 137 194 253 305 360 448
#     4  12  29  45  66 102 150 188 240 299 379 434
#     4  12  22  37  70 102 152 184 224 298 389 424
#
# _framework density 22.101855
#
# number of rings (size 3 to 8) (size 9 to 14) (size 15 to 20)
#    0.000    0.400    6.000    4.500    0.000    1.600 
#    3.600    0.000    4.400    0.000    0.000    0.000 
#    0.000    0.000    0.000    0.000    0.000    0.000 
#
# Total GULP energy -495978.645383 kJ/mol
# GULP energy per Si atom -12399.466135 kJ/mol
# Density = 2.205155 g / cm^3
# Si number density = 22.101855 Si / 1000 Ang^3
#
#
#
# Elastic Constant Matrix: (Units=GPa)
#
#
# Indices 1 2 3 4 5 6 
#
# 1 137.1243 58.8686 60.6759 0.0000 0.0000 0.0000
# 2 58.8686 137.1224 60.6761 0.0000 0.0000 0.0000
# 3 60.6759 60.6761 184.6721 0.0000 0.0000 0.0000
# 4 0.0000 0.0000 0.0000 29.5535 0.0000 0.0000
# 5 0.0000 0.0000 0.0000 0.0000 29.5530 0.0000
# 6 0.0000 0.0000 0.0000 0.0000 0.0000 24.2759
#
#
#
# Elastic Compliance Matrix: (Units=1/GPa)
#
#
# Indices 1 2 3 4 5 6 
#
# 1 0.009592 -0.003187 -0.002105 0.000000 0.000000 0.000000
# 2 -0.003187 0.009592 -0.002105 0.000000 0.000000 0.000000
# 3 -0.002105 -0.002105 0.006798 0.000000 0.000000 0.000000
# 4 0.000000 0.000000 0.000000 0.033837 0.000000 0.000000
# 5 0.000000 0.000000 0.000000 0.000000 0.033837 0.000000
# 6 0.000000 0.000000 0.000000 0.000000 0.000000 0.041193
#
#
# Mechanical properties :
#
#
# Convention : Reuss Voigt Hill
#
# Bulk Modulus (GPa) = 89.36212 91.04000 90.20106
# Shear Modulus (GPa) = 32.60063 35.25636 33.92849
#
# Velocity S-wave (km/s) = 3.84476 3.99830 3.92228
# Velocity P-wave (km/s) = 7.76076 7.91175 7.83661
#
# Compressibility (1/GPa) = 0.01119042
#
# Stress axis : x y z
#
# Youngs Moduli (GPa) = 104.25392 104.25212 147.10344
#
# Poissons Ratio (x) = 0.33222 0.30958
# Poissons Ratio (y) = 0.33223 0.30959
# Poissons Ratio (z) = 0.21940 0.21941
#
# Static dielectric constant tensor:
#      x y z
#    x 4.006340 0.000000 0.000000 
#    y 0.000000 4.006370 0.000000 
#    z 0.000000 0.000000 4.177040 
# 
# 
# High freq. dielectric constant tensor:
#      x y z
#    x 1.864930 0.000000 0.000000 
#    y 0.000000 1.864930 0.000000 
#    z 0.000000 0.000000 1.871760 
# 
# From -- ./inp_files/11838.got.cif
#   From: 2010.03.12/outbox.cif.g09.slc.cpg/sg98_6_cif.got.tgz:11838.got - 2010.04.08 21:04:41.
