data_PCOD8306858
_publ_section_title
;
Structure prediction by ZEFSAII (Michael W. Deem and Ramdas Pophale) SiO2 
 PCOD8306858
Probable space group: P 42 N M
;
_chemical_formula_sum "Si O2"
_cell_formula_units_Z 64
_cell_length_a 12.633574
_cell_length_b 12.633574
_cell_length_c 22.858890
_cell_angle_alpha 90.000000
_cell_angle_beta 90.000000
_cell_angle_gamma 90.000000
_cell_volume 3648.443245
_symmetry_space_group_name_H-M "P 42 N M"
_symmetry_group_IT_number 102
_symmetry_cell_setting 'tetragonal'
loop_
_space_group_symop_operation_xyz
x,y,z
1/2-y,1/2+x,1/2+z
-x,-y,z
1/2+y,1/2-x,1/2+z
1/2-x,1/2+y,1/2+z
1/2+x,1/2-y,1/2+z
-y,-x,z
y,x,z
loop_
_atom_site_type_symbol
_atom_site_label
_atom_site_fract_x
_atom_site_fract_y
_atom_site_fract_z
Si Si1 0.605128 0.228610 0.449600
Si Si2 0.672041 0.493614 0.994894
Si Si3 0.069137 0.758565 0.859822
Si Si4 0.390750 0.936965 0.681462
Si Si5 0.825485 0.999232 0.736183
Si Si6 0.923002 0.242847 0.380003
Si Si7 0.815363 0.637378 0.060913
Si Si8 0.883537 0.449444 0.801504
O O1 0.656618 0.343383 0.459068
O O2 0.492303 0.244903 0.420474
O O3 0.676313 0.160703 0.406221
O O4 0.596946 0.169320 0.512318
O O5 0.618944 0.381057 0.011630
O O6 0.585715 0.585715 0.994376
O O7 0.761473 0.525037 0.042482
O O8 0.720381 0.487871 0.929420
O O9 0.158120 0.841880 0.874225
O O10 0.996591 0.796269 0.805104
O O11 0.123272 0.647605 0.845739
O O12 0.283277 0.003737 0.697786
O O13 0.372016 0.871312 0.622908
O O14 0.410424 0.857251 0.735743
O O15 0.500000 0.000000 0.672024
O O16 0.894629 0.105372 0.721844
O O17 0.894854 0.894854 0.721527
O O18 0.865380 0.134621 0.360880
O O19 0.969636 0.293395 0.321186
O O20 0.726550 0.726550 0.063631
O O21 0.000000 0.500000 0.803270
#
# Coordination Sequence:
#
# PCOD8306858 Si02
#       8
#     8   8   8   8   8   8   8   8
#     4   9  17  31  52  77 100 130 173 210 252 313
#     4   8  15  29  50  77 104 127 164 220 270 310
#     4  10  19  31  50  81 112 132 161 211 271 323
#     4  10  21  35  49  74 109 143 180 219 259 309
#     4   9  18  33  56  84 109 134 167 217 280 330
#     4   9  17  31  53  77 100 133 173 208 255 316
#     4   9  18  34  53  71  96 140 186 216 250 306
#     4  10  19  34  51  73 105 143 172 208 257 312
#
# _framework density 17.541729
#
# number of rings (size 3 to 8) (size 9 to 14) (size 15 to 20)
#    0.000    2.750    1.250    2.250    0.000    2.250 
#    4.500    1.250    0.000    1.500    0.000    0.000 
#    0.000    1.500    0.000    0.000    0.000    0.000 
#
# Total GULP energy -793090.396123 kJ/mol
# GULP energy per Si atom -12392.037439 kJ/mol
# Density = 1.750180 g / cm^3
# Si number density = 17.541729 Si / 1000 Ang^3
#
#
#
# Elastic Constant Matrix: (Units=GPa)
#
#
# Indices 1 2 3 4 5 6 
#
# 1 79.3509 33.9845 53.9243 0.0000 0.0000 -0.0001
# 2 33.9845 79.3509 53.9243 0.0000 0.0000 0.0001
# 3 53.9243 53.9243 131.2582 0.0000 0.0000 0.0000
# 4 0.0000 0.0000 0.0000 23.0684 0.0000 0.0000
# 5 0.0000 0.0000 0.0000 0.0000 23.0684 0.0000
# 6 -0.0001 0.0001 0.0000 0.0000 0.0000 25.3068
#
#
#
# Elastic Compliance Matrix: (Units=1/GPa)
#
#
# Indices 1 2 3 4 5 6 
#
# 1 0.018265 -0.003778 -0.005952 0.000000 0.000000 0.000000
# 2 -0.003778 0.018265 -0.005952 0.000000 0.000000 0.000000
# 3 -0.005952 -0.005952 0.012509 0.000000 0.000000 0.000000
# 4 0.000000 0.000000 0.000000 0.043349 0.000000 0.000000
# 5 0.000000 0.000000 0.000000 0.000000 0.043349 0.000000
# 6 0.000000 0.000000 0.000000 0.000000 0.000000 0.039515
#
#
# Mechanical properties :
#
#
# Convention : Reuss Voigt Hill
#
# Bulk Modulus (GPa) = 56.57371 63.73625 60.15498
# Shear Modulus (GPa) = 23.52871 24.16382 23.84627
#
# Velocity S-wave (km/s) = 3.66635 3.71550 3.69101
# Velocity P-wave (km/s) = 7.08828 7.40402 7.24787
#
# Compressibility (1/GPa) = 0.01767605
#
# Stress axis : x y z
#
# Youngs Moduli (GPa) = 54.75019 54.75019 79.94440
#
# Poissons Ratio (x) = 0.20684 0.47579
# Poissons Ratio (y) = 0.20684 0.47579
# Poissons Ratio (z) = 0.32585 0.32585
#
# Static dielectric constant tensor:
#      x y z
#    x 3.215730 0.000000 0.000000 
#    y 0.000000 3.215730 0.000000 
#    z 0.000000 0.000000 3.328690 
# 
# 
# High freq. dielectric constant tensor:
#      x y z
#    x 1.660830 0.000000 0.000000 
#    y 0.000000 1.660830 0.000000 
#    z 0.000000 0.000000 1.670670 
# 
# From -- ./inp_files/3455.got.cif
#   From: 2010.03.12/outbox.cif.g09.slc.cpg/sg102_2_cif.got.tgz:3455.got - 2010.04.14 01:40:42.
