data_PCOD8306683
_publ_section_title
;
Structure prediction by ZEFSAII (Michael W. Deem and Ramdas Pophale) SiO2 
 PCOD8306683
Probable space group: P 4 B M
;
_chemical_formula_sum "Si O2"
_cell_formula_units_Z 40
_cell_length_a 13.362841
_cell_length_b 13.362841
_cell_length_c 10.211193
_cell_angle_alpha 90.000000
_cell_angle_beta 90.000000
_cell_angle_gamma 90.000000
_cell_volume 1823.366984
_symmetry_space_group_name_H-M "P 4 B M"
_symmetry_group_IT_number 100
_symmetry_cell_setting 'tetragonal'
loop_
_space_group_symop_operation_xyz
x,y,z
-y,x,z
-x,-y,z
y,-x,z
1/2-x,1/2+y,z
1/2+x,1/2-y,z
1/2-y,1/2-x,z
1/2+y,1/2+x,z
loop_
_atom_site_type_symbol
_atom_site_label
_atom_site_fract_x
_atom_site_fract_y
_atom_site_fract_z
Si Si1 0.812508 0.312508 0.664741
Si Si2 0.057674 0.851570 0.035160
Si Si3 0.312510 0.812510 0.871821
Si Si4 0.557673 0.351570 0.501405
Si Si5 0.278066 0.778066 0.413535
Si Si6 0.278064 0.221937 0.123030
Si Si7 0.499999 0.283177 0.768282
O O1 0.749998 0.249998 0.768278
O O2 0.786210 0.286210 0.515893
O O3 0.789605 0.429099 0.684215
O O4 0.104465 0.749760 0.097151
O O5 0.944204 0.871480 0.081401
O O6 0.062345 0.848692 0.875301
O O7 0.429101 0.789606 0.852349
O O8 0.286211 0.786211 0.020668
O O9 0.628519 0.444203 0.455164
O O10 0.604462 0.249759 0.439415
O O11 0.562344 0.348692 0.661264
O O12 0.250003 0.750003 0.268281
#
# Coordination Sequence:
#
# PCOD8306683 Si02
#       7
#     4   8   4   8   4   4   8
#     4  12  22  41  64  99 134 173 230 287 348 410
#     4  11  22  39  69 104 132 169 224 286 348 405
#     4  12  22  41  64  99 134 173 230 287 348 410
#     4  11  22  39  69 104 132 169 224 286 348 405
#     4  12  26  44  62  94 146 187 221 277 347 422
#     4  12  26  44  62  94 146 187 221 277 347 422
#     4  12  20  40  72 102 134 170 226 302 352 402
#
# _framework density 21.937439000000001
#
# number of rings (size 3 to 8) (size 9 to 14) (size 15 to 20)
#    0.000    0.400    8.000    1.200    0.000    3.600 
#    0.000    2.000    0.000    1.200    0.000    2.800 
#    0.000    0.000    0.000    0.000    0.000    0.000 
#
# Total GULP energy -495832.427103 kJ/mol
# GULP energy per Si atom -12395.810678 kJ/mol
# Density = 2.188751 g / cm^3
# Si number density = 21.937439 Si / 1000 Ang^3
#
#
#
# Elastic Constant Matrix: (Units=GPa)
#
#
# Indices 1 2 3 4 5 6 
#
# 1 94.7283 47.7348 24.3446 0.0000 0.0000 0.0002
# 2 47.7348 94.7283 24.3446 0.0000 0.0000 -0.0002
# 3 24.3446 24.3446 123.1168 0.0000 0.0000 0.0000
# 4 0.0000 0.0000 0.0000 24.8607 0.0000 0.0000
# 5 0.0000 0.0000 0.0000 0.0000 24.8607 0.0000
# 6 0.0002 -0.0002 0.0000 0.0000 0.0000 42.3599
#
#
#
# Elastic Compliance Matrix: (Units=1/GPa)
#
#
# Indices 1 2 3 4 5 6 
#
# 1 0.014404 -0.006876 -0.001489 0.000000 0.000000 0.000000
# 2 -0.006876 0.014404 -0.001489 0.000000 0.000000 0.000000
# 3 -0.001489 -0.001489 0.008711 0.000000 0.000000 0.000000
# 4 0.000000 0.000000 0.000000 0.040224 0.000000 0.000000
# 5 0.000000 0.000000 0.000000 0.000000 0.040224 0.000000
# 6 0.000000 0.000000 0.000000 0.000000 0.000000 0.023607
#
#
# Mechanical properties :
#
#
# Convention : Reuss Voigt Hill
#
# Bulk Modulus (GPa) = 56.13888 56.15793 56.14841
# Shear Modulus (GPa) = 29.90112 32.82619 31.36366
#
# Velocity S-wave (km/s) = 3.69591 3.87247 3.78522
# Velocity P-wave (km/s) = 6.62261 6.75643 6.68986
#
# Compressibility (1/GPa) = 0.01781297
#
# Stress axis : x y z
#
# Youngs Moduli (GPa) = 69.42595 69.42595 114.79661
#
# Poissons Ratio (x) = 0.47735 0.17088
# Poissons Ratio (y) = 0.47735 0.17088
# Poissons Ratio (z) = 0.10335 0.10335
#
# Static dielectric constant tensor:
#      x y z
#    x 4.255250 0.000000 0.000000 
#    y 0.000000 4.255250 0.000000 
#    z 0.000000 0.000000 3.749500 
# 
# 
# High freq. dielectric constant tensor:
#      x y z
#    x 1.851450 0.000000 0.000000 
#    y 0.000000 1.851450 0.000000 
#    z 0.000000 0.000000 1.849150 
# 
# From -- ./inp_files/822.got.cif
#   From: 2010.03.12/outbox.cif.g09.slc.cpg/sg100_cif.got.tgz:822.got - 2010.04.14 01:37:57.
