data_PCOD8306066
_publ_section_title
;
Structure prediction by ZEFSAII (Michael W. Deem and Ramdas Pophale) SiO2 
 PCOD8306066
Probable space group: I 4 2 2 
;
_chemical_formula_sum "Si O2"
_cell_formula_units_Z 96
_cell_length_a 22.400420
_cell_length_b 22.400420
_cell_length_c 8.956340
_cell_angle_alpha 90.000000
_cell_angle_beta 90.000000
_cell_angle_gamma 90.000000
_cell_volume 4494.101682
_symmetry_space_group_name_H-M "I 4 2 2 "
_symmetry_group_IT_number 97
_symmetry_cell_setting 'tetragonal'
loop_
_space_group_symop_operation_xyz
x,y,z
-y,x,z
-x,-y,z
y,-x,z
x,-y,-z
-x,y,-z
y,x,-z
-y,-x,-z
1/2+x,1/2+y,1/2+z
1/2-y,1/2+x,1/2+z
1/2-x,1/2-y,1/2+z
1/2+y,1/2-x,1/2+z
1/2+x,1/2-y,1/2-z
1/2-x,1/2+y,1/2-z
1/2+y,1/2+x,1/2-z
1/2-y,1/2-x,1/2-z
loop_
_atom_site_type_symbol
_atom_site_label
_atom_site_fract_x
_atom_site_fract_y
_atom_site_fract_z
Si Si1 0.808637 0.401548 0.010596
Si Si2 0.026514 0.691028 0.225773
Si Si3 0.186001 0.594943 0.574885
Si Si4 0.971983 0.796100 0.352206
Si Si5 0.230671 0.189214 0.340232
Si Si6 0.377219 0.676731 0.359454
O O1 0.839235 0.453164 0.115648
O O2 0.782116 0.359260 0.139991
O O3 0.853549 0.364006 0.905081
O O4 0.756486 0.426237 0.904433
O O5 0.959211 0.669549 0.186637
O O6 0.023884 0.762991 0.258022
O O7 0.071879 0.678741 0.093678
O O8 0.253240 0.620184 0.594282
O O9 0.936795 0.839888 0.238149
O O10 0.000000 0.828559 0.500000
O O11 0.209869 0.209869 0.500000
O O12 0.254046 0.245955 0.250000
O O13 0.176684 0.161311 0.249210
O O14 0.367782 0.632219 0.500000
#
# Coordination Sequence:
#
# PCOD8306066 Si02
#       6
#    16  16  16  16  16  16
#     4  11  19  34  52  75 108 145 187 240 295 353
#     4   9  19  33  51  72  98 141 192 236 283 344
#     4  10  20  34  51  76 106 141 193 240 287 347
#     4   9  20  35  52  75 105 145 195 237 290 347
#     4  12  22  32  48  79 115 150 181 226 288 352
#     4  11  21  33  50  78 111 148 188 234 292 348
#
# _framework density 21.361332999999998
#
# number of rings (size 3 to 8) (size 9 to 14) (size 15 to 20)
#    0.000    1.667    1.667    5.000    0.000    2.000 
#    0.000    0.000    0.000    0.000    0.000   66.500 
#    0.000    0.000    0.000    0.000    0.000 4365.000 
#
# Total GULP energy -594633.754461 kJ/mol
# GULP energy per Si atom -12388.203218 kJ/mol
# Density = 2.131271 g / cm^3
# Si number density = 21.361333 Si / 1000 Ang^3
#
#
#
# Elastic Constant Matrix: (Units=GPa)
#
#
# Indices 1 2 3 4 5 6 
#
# 1 49.0980 32.1704 33.2746 0.0000 0.0000 0.0000
# 2 32.1704 49.1014 33.2743 0.0000 0.0000 0.0000
# 3 33.2746 33.2743 124.9738 0.0000 0.0000 0.0000
# 4 0.0000 0.0000 0.0000 40.2158 0.0000 0.0000
# 5 0.0000 0.0000 0.0000 0.0000 40.2164 0.0000
# 6 0.0000 0.0000 0.0000 0.0000 0.0000 18.3526
#
#
#
# Elastic Compliance Matrix: (Units=1/GPa)
#
#
# Indices 1 2 3 4 5 6 
#
# 1 0.037404 -0.021667 -0.004190 0.000000 0.000000 0.000000
# 2 -0.021667 0.037401 -0.004189 0.000000 0.000000 0.000000
# 3 -0.004190 -0.004189 0.010233 0.000000 0.000000 0.000000
# 4 0.000000 0.000000 0.000000 0.024866 0.000000 0.000000
# 5 0.000000 0.000000 0.000000 0.000000 0.024865 0.000000
# 6 0.000000 0.000000 0.000000 0.000000 0.000000 0.054488
#
#
# Mechanical properties :
#
#
# Convention : Reuss Voigt Hill
#
# Bulk Modulus (GPa) = 40.08811 46.73463 43.41137
# Shear Modulus (GPa) = 19.40515 28.05390 23.72953
#
# Velocity S-wave (km/s) = 3.01728 3.62788 3.33658
# Velocity P-wave (km/s) = 5.56292 6.28286 5.93382
#
# Compressibility (1/GPa) = 0.02494506
#
# Stress axis : x y z
#
# Youngs Moduli (GPa) = 26.73525 26.73756 97.72671
#
# Poissons Ratio (x) = 0.57932 0.40948
# Poissons Ratio (y) = 0.57927 0.40938
# Poissons Ratio (z) = 0.11202 0.11200
#
# Static dielectric constant tensor:
#      x y z
#    x 3.859550 0.000000 0.000000 
#    y 0.000000 3.859550 0.000000 
#    z 0.000000 0.000000 2.501470 
# 
# 
# High freq. dielectric constant tensor:
#      x y z
#    x 1.796140 0.000000 0.000000 
#    y 0.000000 1.796140 0.000000 
#    z 0.000000 0.000000 1.879170 
# 
# From -- ./inp_files/2490.got.cif
#   From: 2010.03.12/outbox.cif.g09.slc.cpg/sg97_2_cif.got.tgz:2490.got - 2010.04.08 20:59:42.
