data_PCOD8306405
_publ_section_title
;
Structure prediction by ZEFSAII (Michael W. Deem and Ramdas Pophale) SiO2 
 PCOD8306405
Probable space group: I 41 2 2
;
_chemical_formula_sum "Si O2"
_cell_formula_units_Z 56
_cell_length_a 13.505897
_cell_length_b 13.505897
_cell_length_c 11.615081
_cell_angle_alpha 90.000000
_cell_angle_beta 90.000000
_cell_angle_gamma 90.000000
_cell_volume 2118.698258
_symmetry_space_group_name_H-M "I 41 2 2"
_symmetry_group_IT_number 98
_symmetry_cell_setting 'tetragonal'
loop_
_space_group_symop_operation_xyz
x,y,z
-y,1/2+x,1/4+z
-x,-y,z
y,1/2-x,1/4+z
x,1/2-y,1/4-z
-x,1/2+y,1/4-z
y,x,-z
-y,-x,-z
1/2+x,1/2+y,1/2+z
1/2-y,x,3/4+z
1/2-x,1/2-y,1/2+z
1/2+y,-x,3/4+z
1/2+x,-y,3/4-z
1/2-x,y,3/4-z
1/2+y,1/2+x,1/2-z
1/2-y,1/2-x,1/2-z
loop_
_atom_site_type_symbol
_atom_site_label
_atom_site_fract_x
_atom_site_fract_y
_atom_site_fract_z
Si Si1 0.390991 0.229516 0.499430
Si Si2 0.890687 0.992470 0.324569
Si Si3 0.646563 0.353438 0.000000
Si Si4 0.919032 0.183948 0.892267
O O1 0.438583 0.250000 0.625000
O O2 0.288209 0.288209 0.500000
O O3 0.360623 0.118567 0.461247
O O4 0.472380 0.271698 0.413544
O O5 0.831850 0.040688 0.434009
O O6 0.891498 0.065614 0.213394
O O7 0.000000 0.000000 0.373568
O O8 0.729338 0.345387 0.099680
O O9 0.872444 0.127557 0.000000
#
# Coordination Sequence:
#
# PCOD8306405 Si02
#       4
#    16  16   8  16
#     4  12  26  48  82 125 160 215 273 337 421 499
#     4  12  26  53  83 117 171 216 272 343 427 502
#     4  12  29  56  80 124 164 221 272 342 424 495
#     4  12  29  52  83 116 165 216 279 343 410 503
#
# _framework density 26.431325000000001
#
# number of rings (size 3 to 8) (size 9 to 14) (size 15 to 20)
#    0.000    0.000    5.714    3.000    0.000    2.286 
#   10.286    0.000    3.143    0.000    0.000    0.000 
#    0.000    0.000    0.000    0.000    0.000    0.000 
#
# Total GULP energy -347020.071840 kJ/mol
# GULP energy per Si atom -12393.573994 kJ/mol
# Density = 2.637117 g / cm^3
# Si number density = 26.431325 Si / 1000 Ang^3
#
#
#
# Elastic Constant Matrix: (Units=GPa)
#
#
# Indices 1 2 3 4 5 6 
#
# 1 119.1038 37.7026 36.8966 0.0000 0.0000 0.0000
# 2 37.7026 119.1058 36.8980 0.0000 0.0000 0.0000
# 3 36.8966 36.8980 150.1912 0.0000 0.0000 0.0000
# 4 0.0000 0.0000 0.0000 50.3368 0.0000 0.0000
# 5 0.0000 0.0000 0.0000 0.0000 50.3363 0.0000
# 6 0.0000 0.0000 0.0000 0.0000 0.0000 31.5793
#
#
#
# Elastic Compliance Matrix: (Units=1/GPa)
#
#
# Indices 1 2 3 4 5 6 
#
# 1 0.009748 -0.002537 -0.001771 0.000000 0.000000 0.000000
# 2 -0.002537 0.009748 -0.001772 0.000000 0.000000 0.000000
# 3 -0.001771 -0.001772 0.007529 0.000000 0.000000 0.000000
# 4 0.000000 0.000000 0.000000 0.019866 0.000000 0.000000
# 5 0.000000 0.000000 0.000000 0.000000 0.019866 0.000000
# 6 0.000000 0.000000 0.000000 0.000000 0.000000 0.031666
#
#
# Mechanical properties :
#
#
# Convention : Reuss Voigt Hill
#
# Bulk Modulus (GPa) = 67.27464 67.93280 67.60372
# Shear Modulus (GPa) = 43.27593 44.91071 44.09332
#
# Velocity S-wave (km/s) = 4.05074 4.12654 4.08882
# Velocity P-wave (km/s) = 6.88374 6.96146 6.92271
#
# Compressibility (1/GPa) = 0.01486444
#
# Stress axis : x y z
#
# Youngs Moduli (GPa) = 102.58655 102.58782 132.82711
#
# Poissons Ratio (x) = 0.26025 0.23530
# Poissons Ratio (y) = 0.26025 0.23531
# Poissons Ratio (z) = 0.18173 0.18174
#
# Static dielectric constant tensor:
#      x y z
#    x 4.673280 0.000000 0.000000 
#    y 0.000000 4.673270 0.000000 
#    z 0.000000 0.000000 6.156010 
# 
# 
# High freq. dielectric constant tensor:
#      x y z
#    x 2.058890 0.000000 0.000000 
#    y 0.000000 2.058890 0.000000 
#    z 0.000000 0.000000 2.089200 
# 
# From -- ./inp_files/4634.got.cif
#   From: 2010.03.12/outbox.cif.g09.slc.cpg/sg98_3_cif.got.tgz:4634.got - 2010.04.08 21:04:41.
