data_PCOD8306084
_publ_section_title
;
Structure prediction by ZEFSAII (Michael W. Deem and Ramdas Pophale) SiO2 
 PCOD8306084
Probable space group: I 4 2 2 
;
_chemical_formula_sum "Si O2"
_cell_formula_units_Z 96
_cell_length_a 28.702902
_cell_length_b 28.702902
_cell_length_c 5.574391
_cell_angle_alpha 90.000000
_cell_angle_beta 90.000000
_cell_angle_gamma 90.000000
_cell_volume 4592.498723
_symmetry_space_group_name_H-M "I 4 2 2 "
_symmetry_group_IT_number 97
_symmetry_cell_setting 'tetragonal'
loop_
_space_group_symop_operation_xyz
x,y,z
-y,x,z
-x,-y,z
y,-x,z
x,-y,-z
-x,y,-z
y,x,-z
-y,-x,-z
1/2+x,1/2+y,1/2+z
1/2-y,1/2+x,1/2+z
1/2-x,1/2-y,1/2+z
1/2+y,1/2-x,1/2+z
1/2+x,1/2-y,1/2-z
1/2-x,1/2+y,1/2-z
1/2+y,1/2+x,1/2-z
1/2-y,1/2-x,1/2-z
loop_
_atom_site_type_symbol
_atom_site_label
_atom_site_fract_x
_atom_site_fract_y
_atom_site_fract_z
Si Si1 0.296094 0.884072 0.138122
Si Si2 0.413809 0.625052 0.253921
Si Si3 0.235638 0.065823 0.227678
Si Si4 0.363255 0.863255 0.750000
Si Si5 0.672976 0.050988 0.520855
Si Si6 0.000000 0.837340 0.000000
Si Si7 0.789417 0.141379 0.419247
O O1 0.331061 0.917464 0.284439
O O2 0.261478 0.852406 0.299271
O O3 0.263194 0.921016 0.009123
O O4 0.328527 0.850209 0.972678
O O5 0.400292 0.599709 0.500000
O O6 0.469023 0.633571 0.306209
O O7 0.385955 0.673907 0.250174
O O8 0.403495 0.596506 0.000000
O O9 0.272757 0.043545 0.412471
O O10 0.194130 0.031007 0.174610
O O11 0.213929 0.112444 0.336061
O O12 0.354711 0.918313 0.716481
O O13 0.649352 0.000000 0.500000
O O14 0.808001 0.192000 0.500000
#
# Coordination Sequence:
#
# PCOD8306084 Si02
#       7
#    16  16  16   8  16   8  16
#     4  10  20  38  57  93 123 168 212 262 337 394
#     4  11  25  40  58  94 135 176 222 278 349 421
#     4  10  21  33  56  97 120 159 206 273 336 401
#     4  10  22  38  60  90 127 172 204 268 336 396
#     4  10  21  37  61  93 130 157 211 266 331 398
#     4  12  20  38  66  87 138 174 215 284 356 414
#     4  10  21  35  56  88 129 168 212 268 333 402
#
# _framework density 20.903654
#
# number of rings (size 3 to 8) (size 9 to 14) (size 15 to 20)
#    0.000    1.667    1.667    3.500    2.333    4.000 
#    0.000    0.000    0.000    0.250  156.000   12.833 
#    0.000    0.000    0.000    0.000    0.000    0.000 
#
# Total GULP energy -594650.932558 kJ/mol
# GULP energy per Si atom -12388.561095 kJ/mol
# Density = 2.085608 g / cm^3
# Si number density = 20.903654 Si / 1000 Ang^3
#
#
#
# Elastic Constant Matrix: (Units=GPa)
#
#
# Indices 1 2 3 4 5 6 
#
# 1 97.3429 70.0808 43.4631 0.0000 0.0000 0.0000
# 2 70.0808 97.3414 43.4644 0.0000 0.0000 0.0000
# 3 43.4631 43.4644 107.9290 0.0000 0.0000 0.0000
# 4 0.0000 0.0000 0.0000 26.9141 0.0000 0.0000
# 5 0.0000 0.0000 0.0000 0.0000 26.9151 0.0000
# 6 0.0000 0.0000 0.0000 0.0000 0.0000 32.2078
#
#
#
# Elastic Compliance Matrix: (Units=1/GPa)
#
#
# Indices 1 2 3 4 5 6 
#
# 1 0.022117 -0.014565 -0.003041 0.000000 0.000000 0.000000
# 2 -0.014565 0.022117 -0.003042 0.000000 0.000000 0.000000
# 3 -0.003041 -0.003042 0.011715 0.000000 0.000000 0.000000
# 4 0.000000 0.000000 0.000000 0.037155 0.000000 0.000000
# 5 0.000000 0.000000 0.000000 0.000000 0.037154 0.000000
# 6 0.000000 0.000000 0.000000 0.000000 0.000000 0.031048
#
#
# Mechanical properties :
#
#
# Convention : Reuss Voigt Hill
#
# Bulk Modulus (GPa) = 68.24176 68.51443 68.37810
# Shear Modulus (GPa) = 24.09804 26.91440 25.50622
#
# Velocity S-wave (km/s) = 3.39900 3.59213 3.49690
# Velocity P-wave (km/s) = 6.93693 7.07474 7.00617
#
# Compressibility (1/GPa) = 0.01465378
#
# Stress axis : x y z
#
# Youngs Moduli (GPa) = 45.21489 45.21344 85.36224
#
# Poissons Ratio (x) = 0.65854 0.25957
# Poissons Ratio (y) = 0.65856 0.25964
# Poissons Ratio (z) = 0.13749 0.13752
#
# Static dielectric constant tensor:
#      x y z
#    x 3.857070 0.000000 0.000000 
#    y 0.000000 3.857060 0.000000 
#    z 0.000000 0.000000 4.068560 
# 
# 
# High freq. dielectric constant tensor:
#      x y z
#    x 1.795190 0.000000 0.000000 
#    y 0.000000 1.795190 0.000000 
#    z 0.000000 0.000000 1.837680 
# 
# From -- ./inp_files/1125.got.cif
#   From: 2010.03.12/outbox.cif.g09.slc.cpg/sg97_1_cif.got.tgz:1125.got - 2010.04.08 20:59:42.
