data_PCOD8306917
_publ_section_title
;
Structure prediction by ZEFSAII (Michael W. Deem and Ramdas Pophale) SiO2 
 PCOD8306917
Probable space group: P 42 N M
;
_chemical_formula_sum "Si O2"
_cell_formula_units_Z 48
_cell_length_a 11.212706
_cell_length_b 11.212706
_cell_length_c 18.730613
_cell_angle_alpha 90.000000
_cell_angle_beta 90.000000
_cell_angle_gamma 90.000000
_cell_volume 2354.902121
_symmetry_space_group_name_H-M "P 42 N M"
_symmetry_group_IT_number 102
_symmetry_cell_setting 'tetragonal'
loop_
_space_group_symop_operation_xyz
x,y,z
1/2-y,1/2+x,1/2+z
-x,-y,z
1/2+y,1/2-x,1/2+z
1/2-x,1/2+y,1/2+z
1/2+x,1/2-y,1/2+z
-y,-x,z
y,x,z
loop_
_atom_site_type_symbol
_atom_site_label
_atom_site_fract_x
_atom_site_fract_y
_atom_site_fract_z
Si Si1 0.808698 0.005986 0.439660
Si Si2 0.856942 0.337210 0.693453
Si Si3 0.983262 0.360336 0.072368
Si Si4 0.193228 0.000593 0.941634
Si Si5 0.902872 0.594232 0.350908
Si Si6 0.551653 0.258942 0.092803
O O1 0.911444 0.911444 0.450387
O O2 0.718303 0.950127 0.382828
O O3 0.751909 0.023208 0.518487
O O4 0.867337 0.132664 0.414060
O O5 0.743968 0.256033 0.710480
O O6 0.818712 0.443372 0.641148
O O7 0.899771 0.397450 0.766072
O O8 0.962550 0.259793 0.658636
O O9 0.842836 0.345541 0.089149
O O10 0.000000 0.500000 0.054883
O O11 0.027846 0.280446 0.007118
O O12 0.098319 0.901682 0.965375
O O13 0.272275 0.947540 0.877269
O O14 0.122478 0.122478 0.919576
O O15 0.000000 0.500000 0.376006
O O16 0.614224 0.385777 0.105047
#
# Coordination Sequence:
#
# PCOD8306917 Si02
#       6
#     8   8   8   8   8   8
#     4  10  21  39  65  93 121 160 213 266 315 370
#     4  11  24  41  63  88 125 166 206 255 312 376
#     4  10  20  38  61  93 122 162 206 254 309 364
#     4  11  23  39  62  92 127 167 209 254 313 383
#     4  12  25  43  62  91 125 166 210 263 322 376
#     4  10  20  37  64  94 125 162 207 259 311 366
#
# _framework density 20.383013999999999
#
# number of rings (size 3 to 8) (size 9 to 14) (size 15 to 20)
#    0.000    1.333    1.667    5.000    2.333    2.333 
#    0.000    3.333    0.000    4.000    0.000    0.000 
#    0.000    0.000    0.000    0.000    0.000    0.000 
#
# Total GULP energy -595103.297773 kJ/mol
# GULP energy per Si atom -12397.985370 kJ/mol
# Density = 2.033662 g / cm^3
# Si number density = 20.383014 Si / 1000 Ang^3
#
#
#
# Elastic Constant Matrix: (Units=GPa)
#
#
# Indices 1 2 3 4 5 6 
#
# 1 87.4774 33.9536 25.7722 0.0000 0.0000 0.0003
# 2 33.9536 87.4774 25.7722 0.0000 0.0000 -0.0003
# 3 25.7722 25.7722 114.8007 0.0000 0.0000 0.0000
# 4 0.0000 0.0000 0.0000 3.8708 0.0000 0.0000
# 5 0.0000 0.0000 0.0000 0.0000 3.8708 0.0000
# 6 0.0003 -0.0003 0.0000 0.0000 0.0000 39.6365
#
#
#
# Elastic Compliance Matrix: (Units=1/GPa)
#
#
# Indices 1 2 3 4 5 6 
#
# 1 0.013893 -0.004790 -0.002043 0.000000 0.000000 0.000000
# 2 -0.004790 0.013893 -0.002043 0.000000 0.000000 0.000000
# 3 -0.002043 -0.002043 0.009628 0.000000 0.000000 0.000000
# 4 0.000000 0.000000 0.000000 0.258343 0.000000 0.000000
# 5 0.000000 0.000000 0.000000 0.000000 0.258343 0.000000
# 6 0.000000 0.000000 0.000000 0.000000 0.000000 0.025229
#
#
# Mechanical properties :
#
#
# Convention : Reuss Voigt Hill
#
# Bulk Modulus (GPa) = 50.86621 51.19462 51.03042
# Shear Modulus (GPa) = 8.28313 23.09280 15.68797
#
# Velocity S-wave (km/s) = 2.01806 3.36957 2.77728
# Velocity P-wave (km/s) = 5.51720 6.34898 5.94765
#
# Compressibility (1/GPa) = 0.01965942
#
# Stress axis : x y z
#
# Youngs Moduli (GPa) = 71.97921 71.97921 103.86107
#
# Poissons Ratio (x) = 0.34481 0.21224
# Poissons Ratio (y) = 0.34481 0.21224
# Poissons Ratio (z) = 0.14709 0.14709
#
# Static dielectric constant tensor:
#      x y z
#    x 4.166650 0.000000 0.000000 
#    y 0.000000 4.166650 0.000000 
#    z 0.000000 0.000000 3.515470 
# 
# 
# High freq. dielectric constant tensor:
#      x y z
#    x 1.803520 0.000000 0.000000 
#    y 0.000000 1.803520 0.000000 
#    z 0.000000 0.000000 1.785620 
# 
# From -- ./inp_files/2717.got.cif
#   From: 2010.03.12/outbox.cif.g09.slc.cpg/sg102_2_cif.got.tgz:2717.got - 2010.04.14 01:40:42.
