data_PCOD8306429
_publ_section_title
;
Structure prediction by ZEFSAII (Michael W. Deem and Ramdas Pophale) SiO2 
 PCOD8306429
Probable space group: P 4 M M
;
_chemical_formula_sum "Si O2"
_cell_formula_units_Z 64
_cell_length_a 13.520495
_cell_length_b 13.520495
_cell_length_c 20.777257
_cell_angle_alpha 90.000000
_cell_angle_beta 90.000000
_cell_angle_gamma 90.000000
_cell_volume 3798.161222
_symmetry_space_group_name_H-M "P 4 M M"
_symmetry_group_IT_number 99
_symmetry_cell_setting 'tetragonal'
loop_
_space_group_symop_operation_xyz
x,y,z
-y,x,z
-x,-y,z
y,-x,z
-x,y,z
x,-y,z
-y,-x,z
y,x,z
loop_
_atom_site_type_symbol
_atom_site_label
_atom_site_fract_x
_atom_site_fract_y
_atom_site_fract_z
Si Si1 0.882893 0.389798 0.107330
Si Si2 0.117380 0.724322 0.232080
Si Si3 0.219701 0.616591 0.345143
Si Si4 0.610573 0.117420 0.724478
Si Si5 0.610573 0.882580 0.965808
Si Si6 0.117380 0.724322 0.458206
Si Si7 0.117107 0.389798 0.582956
Si Si8 0.268493 0.116587 0.845143
O O1 0.839095 0.500000 0.119462
O O2 0.847661 0.314553 0.162219
O O3 0.000000 0.397632 0.109527
O O4 0.849161 0.350569 0.036639
O O5 0.170349 0.829651 0.244707
O O6 0.153699 0.643602 0.283324
O O7 0.000000 0.740082 0.237743
O O8 0.243507 0.500000 0.345143
O O9 0.323143 0.676858 0.345143
O O10 0.153699 0.643602 0.406961
O O11 0.500000 0.158263 0.734634
O O12 0.649431 0.150839 0.653646
O O13 0.677828 0.159572 0.781640
O O14 0.609730 0.000000 0.728991
O O15 0.500000 0.841737 0.955651
O O16 0.677828 0.840428 0.908646
O O17 0.609730 0.000000 0.961295
O O18 0.170349 0.829651 0.445579
O O19 0.152339 0.685447 0.528067
O O20 0.000000 0.740082 0.452543
O O21 0.160905 0.500000 0.570824
O O22 0.000000 0.397633 0.580758
O O23 0.157339 0.157339 0.845143
O O24 0.262466 0.000000 0.845143
#
# Coordination Sequence:
#
# PCOD8306429 Si02
#       8
#     8   8   8   8   8   8   8   8
#     4   8  14  26  45  66  85 108 142 186 234 277
#     4  10  20  32  47  69  97 130 166 198 227 264
#     4  10  21  36  54  76  98 120 151 192 240 294
#     4   8  14  26  44  63  81 104 140 188 236 272
#     4   8  14  26  44  63  81 104 140 188 236 272
#     4  10  20  32  47  69  97 130 166 198 227 264
#     4   8  14  26  45  66  85 108 142 186 234 277
#     4  10  19  28  39  57  84 118 151 181 216 265
#
# _framework density 16.850259999999999
#
# number of rings (size 3 to 8) (size 9 to 14) (size 15 to 20)
#    0.000    3.000    0.000    3.000    0.000    5.000 
#    0.000    0.000    0.000    2.250    0.000    7.000 
#    0.000    4.000    0.000   18.500    0.000    1.500 
#
# Total GULP energy -793058.408509 kJ/mol
# GULP energy per Si atom -12391.537633 kJ/mol
# Density = 1.681191 g / cm^3
# Si number density = 16.850260 Si / 1000 Ang^3
#
#
#
# Elastic Constant Matrix: (Units=GPa)
#
#
# Indices 1 2 3 4 5 6 
#
# 1 70.3937 37.9238 43.9858 0.0000 0.0000 0.0001
# 2 37.9238 70.3937 43.9858 0.0000 0.0000 -0.0001
# 3 43.9858 43.9858 140.3868 0.0000 0.0000 0.0000
# 4 0.0000 0.0000 0.0000 15.2699 0.0000 0.0000
# 5 0.0000 0.0000 0.0000 0.0000 15.2699 0.0000
# 6 0.0001 -0.0001 0.0000 0.0000 0.0000 10.2823
#
#
#
# Elastic Compliance Matrix: (Units=1/GPa)
#
#
# Indices 1 2 3 4 5 6 
#
# 1 0.021591 -0.009207 -0.003880 0.000000 0.000000 0.000000
# 2 -0.009207 0.021591 -0.003880 0.000000 0.000000 0.000000
# 3 -0.003880 -0.003880 0.009554 0.000000 0.000000 0.000000
# 4 0.000000 0.000000 0.000000 0.065488 0.000000 0.000000
# 5 0.000000 0.000000 0.000000 0.000000 0.065488 0.000000
# 6 0.000000 0.000000 0.000000 0.000000 0.000000 0.097255
#
#
# Mechanical properties :
#
#
# Convention : Reuss Voigt Hill
#
# Bulk Modulus (GPa) = 53.18766 59.21833 56.20300
# Shear Modulus (GPa) = 15.56816 18.51632 17.04224
#
# Velocity S-wave (km/s) = 3.04289 3.31852 3.18369
# Velocity P-wave (km/s) = 6.63167 7.06425 6.85137
#
# Compressibility (1/GPa) = 0.01880135
#
# Stress axis : x y z
#
# Youngs Moduli (GPa) = 46.31666 46.31666 104.66301
#
# Poissons Ratio (x) = 0.42645 0.40608
# Poissons Ratio (y) = 0.42645 0.40608
# Poissons Ratio (z) = 0.17970 0.17970
#
# Static dielectric constant tensor:
#      x y z
#    x 2.862440 0.000000 0.000000 
#    y 0.000000 2.862440 0.000000 
#    z 0.000000 0.000000 3.718550 
# 
# 
# High freq. dielectric constant tensor:
#      x y z
#    x 1.617290 0.000000 0.000000 
#    y 0.000000 1.617290 0.000000 
#    z 0.000000 0.000000 1.676120 
# 
# From -- ./inp_files/2351.got.cif
#   From: 2010.03.12/outbox.cif.g09.slc.cpg/sg99_cif.got.tgz:2351.got - 2010.04.08 21:11:30.
