data_PCOD8306914
_publ_section_title
;
Structure prediction by ZEFSAII (Michael W. Deem and Ramdas Pophale) SiO2 
 PCOD8306914
Probable space group: P 42 N M
;
_chemical_formula_sum "Si O2"
_cell_formula_units_Z 40
_cell_length_a 13.341069
_cell_length_b 13.341069
_cell_length_c 11.854504
_cell_angle_alpha 90.000000
_cell_angle_beta 90.000000
_cell_angle_gamma 90.000000
_cell_volume 2109.913487
_symmetry_space_group_name_H-M "P 42 N M"
_symmetry_group_IT_number 102
_symmetry_cell_setting 'tetragonal'
loop_
_space_group_symop_operation_xyz
x,y,z
1/2-y,1/2+x,1/2+z
-x,-y,z
1/2+y,1/2-x,1/2+z
1/2-x,1/2+y,1/2+z
1/2+x,1/2-y,1/2+z
-y,-x,z
y,x,z
loop_
_atom_site_type_symbol
_atom_site_label
_atom_site_fract_x
_atom_site_fract_y
_atom_site_fract_z
Si Si1 0.335935 0.495502 0.453890
Si Si2 0.895165 0.267061 0.323429
Si Si3 0.732941 0.104835 0.584349
Si Si4 0.921695 0.756642 0.734280
Si Si5 0.243358 0.078306 0.173498
O O1 0.417578 0.582423 0.453890
O O2 0.386213 0.386213 0.453891
O O3 0.268449 0.506270 0.342749
O O4 0.268447 0.506271 0.565029
O O5 0.838924 0.161077 0.306830
O O6 0.893632 0.299088 0.453889
O O7 0.840127 0.352525 0.251179
O O8 0.009351 0.257899 0.282956
O O9 0.838927 0.161074 0.600946
O O10 0.647479 0.159875 0.656601
O O11 0.742103 0.990649 0.624822
O O12 0.855374 0.855374 0.715142
O O13 0.144624 0.144624 0.192637
#
# Coordination Sequence:
#
# PCOD8306914 Si02
#       5
#     8   8   8   8   8
#     4   9  16  30  56  83 105 137 186 241 283 321
#     4  10  21  39  60  82 116 155 187 234 293 337
#     4  10  21  39  60  82 116 155 187 234 293 337
#     4  10  20  37  58  84 116 149 191 236 281 342
#     4  10  20  37  58  84 116 149 191 236 281 342
#
# _framework density 18.958123000000001
#
# number of rings (size 3 to 8) (size 9 to 14) (size 15 to 20)
#    0.000    2.200    2.000    1.200    0.000    4.000 
#    3.600    4.000    0.000    0.000    0.000    0.000 
#    0.000    0.000    0.000    0.000    0.000    0.000 
#
# Total GULP energy -496119.526083 kJ/mol
# GULP energy per Si atom -12402.988152 kJ/mol
# Density = 1.891497 g / cm^3
# Si number density = 18.958123 Si / 1000 Ang^3
#
#
#
# Elastic Constant Matrix: (Units=GPa)
#
#
# Indices 1 2 3 4 5 6 
#
# 1 96.9550 40.6142 42.1010 0.0000 0.0000 0.0001
# 2 40.6142 96.9550 42.1010 0.0000 0.0000 -0.0001
# 3 42.1010 42.1010 69.6168 0.0000 0.0000 0.0000
# 4 0.0000 0.0000 0.0000 33.1429 0.0000 0.0000
# 5 0.0000 0.0000 0.0000 0.0000 33.1429 0.0000
# 6 0.0001 -0.0001 0.0000 0.0000 0.0000 17.3705
#
#
#
# Elastic Compliance Matrix: (Units=1/GPa)
#
#
# Indices 1 2 3 4 5 6 
#
# 1 0.014645 -0.003104 -0.006979 0.000000 0.000000 0.000000
# 2 -0.003104 0.014645 -0.006979 0.000000 0.000000 0.000000
# 3 -0.006979 -0.006979 0.022806 0.000000 0.000000 0.000000
# 4 0.000000 0.000000 0.000000 0.030172 0.000000 0.000000
# 5 0.000000 0.000000 0.000000 0.000000 0.030172 0.000000
# 6 0.000000 0.000000 0.000000 0.000000 0.000000 0.057569
#
#
# Mechanical properties :
#
#
# Convention : Reuss Voigt Hill
#
# Bulk Modulus (GPa) = 55.64766 57.01770 56.33268
# Shear Modulus (GPa) = 23.79525 25.97862 24.88694
#
# Velocity S-wave (km/s) = 3.54665 3.70579 3.62710
# Velocity P-wave (km/s) = 6.79620 6.96071 6.87894
#
# Compressibility (1/GPa) = 0.01797021
#
# Stress axis : x y z
#
# Youngs Moduli (GPa) = 68.28242 68.28242 43.84801
#
# Poissons Ratio (x) = 0.21195 0.30604
# Poissons Ratio (y) = 0.21195 0.30604
# Poissons Ratio (z) = 0.47657 0.47657
#
# Static dielectric constant tensor:
#      x y z
#    x 3.300850 0.000000 0.000000 
#    y 0.000000 3.300850 0.000000 
#    z 0.000000 0.000000 3.403470 
# 
# 
# High freq. dielectric constant tensor:
#      x y z
#    x 1.726150 0.000000 0.000000 
#    y 0.000000 1.726150 0.000000 
#    z 0.000000 0.000000 1.735130 
# 
# From -- ./inp_files/2237.got.cif
#   From: 2010.03.12/outbox.cif.g09.slc.cpg/sg102_2_cif.got.tgz:2237.got - 2010.04.14 01:40:42.
