data_PCOD8306820
_publ_section_title
;
Structure prediction by ZEFSAII (Michael W. Deem and Ramdas Pophale) SiO2 
 PCOD8306820
Probable space group: P 42 N M
;
_chemical_formula_sum "Si O2"
_cell_formula_units_Z 56
_cell_length_a 11.848463
_cell_length_b 11.848463
_cell_length_c 23.309391
_cell_angle_alpha 90.000000
_cell_angle_beta 90.000000
_cell_angle_gamma 90.000000
_cell_volume 3272.313924
_symmetry_space_group_name_H-M "P 42 N M"
_symmetry_group_IT_number 102
_symmetry_cell_setting 'tetragonal'
loop_
_space_group_symop_operation_xyz
x,y,z
1/2-y,1/2+x,1/2+z
-x,-y,z
1/2+y,1/2-x,1/2+z
1/2-x,1/2+y,1/2+z
1/2+x,1/2-y,1/2+z
-y,-x,z
y,x,z
loop_
_atom_site_type_symbol
_atom_site_label
_atom_site_fract_x
_atom_site_fract_y
_atom_site_fract_z
Si Si1 0.999686 0.185469 0.751750
Si Si2 0.600509 0.084349 0.467722
Si Si3 0.904915 0.095086 0.063439
Si Si4 0.905211 0.094790 0.934052
Si Si5 0.495250 0.684537 0.022148
Si Si6 0.749326 0.937308 0.872604
Si Si7 0.733240 0.921619 0.077317
Si Si8 0.267870 0.921745 0.636940
O O1 0.099519 0.099519 0.736289
O O2 0.033753 0.264541 0.805326
O O3 0.984176 0.270185 0.698030
O O4 0.886679 0.113322 0.765817
O O5 0.718029 0.017529 0.475597
O O6 0.597123 0.131630 0.402565
O O7 0.586928 0.186882 0.512598
O O8 0.500000 0.000000 0.479518
O O9 0.955207 0.210803 0.091495
O O10 0.874160 0.125841 0.998583
O O11 0.000000 0.000000 0.065263
O O12 0.949129 0.206837 0.902988
O O13 0.000000 0.000000 0.929207
O O14 0.375687 0.624314 0.009510
O O15 0.596156 0.596156 0.017654
O O16 0.491166 0.738455 0.085917
O O17 0.835251 0.835251 0.881219
O O18 0.830341 0.830341 0.081760
O O19 0.635473 0.890136 0.123278
O O20 0.171916 0.828085 0.639154
#
# Coordination Sequence:
#
# PCOD8306820 Si02
#       8
#     8   8   4   4   8   8   8   8
#     4   9  15  23  40  70  99 120 150 192 242 296
#     4  11  21  31  42  66  99 123 160 194 249 294
#     4   9  14  22  42  68  92 122 160 192 227 281
#     4   9  14  22  40  66  90 120 150 182 229 283
#     4   9  17  32  51  67  90 130 172 203 234 284
#     4  10  17  28  45  66  95 128 155 188 236 294
#     4   9  16  28  46  67  95 130 162 193 233 286
#     4   8  14  24  42  68  97 124 156 200 242 282
#
# _framework density 17.113271999999998
#
# number of rings (size 3 to 8) (size 9 to 14) (size 15 to 20)
#    0.000    2.714    2.143    2.571    0.000    1.714 
#    2.571    0.000    0.000    3.429    0.000    0.000 
#    6.429    0.000    1.714    0.000    0.000    5.143 
#
# Total GULP energy -693961.636203 kJ/mol
# GULP energy per Si atom -12392.172075 kJ/mol
# Density = 1.707432 g / cm^3
# Si number density = 17.113272 Si / 1000 Ang^3
#
#
#
# Elastic Constant Matrix: (Units=GPa)
#
#
# Indices 1 2 3 4 5 6 
#
# 1 66.7455 48.4946 44.2309 0.0000 0.0000 -0.0001
# 2 48.4946 66.7455 44.2309 0.0000 0.0000 0.0001
# 3 44.2309 44.2309 112.1808 0.0000 0.0000 0.0000
# 4 0.0000 0.0000 0.0000 16.7642 0.0000 0.0000
# 5 0.0000 0.0000 0.0000 0.0000 16.7642 0.0000
# 6 -0.0001 0.0001 0.0000 0.0000 0.0000 25.0304
#
#
#
# Elastic Compliance Matrix: (Units=1/GPa)
#
#
# Indices 1 2 3 4 5 6 
#
# 1 0.033618 -0.021174 -0.004906 0.000000 0.000000 0.000000
# 2 -0.021174 0.033618 -0.004906 0.000000 0.000000 0.000000
# 3 -0.004906 -0.004906 0.012783 0.000000 0.000000 0.000000
# 4 0.000000 0.000000 0.000000 0.059651 0.000000 0.000000
# 5 0.000000 0.000000 0.000000 0.000000 0.059651 0.000000
# 6 0.000000 0.000000 0.000000 0.000000 0.000000 0.039951
#
#
# Mechanical properties :
#
#
# Convention : Reuss Voigt Hill
#
# Bulk Modulus (GPa) = 55.41608 57.73163 56.57386
# Shear Modulus (GPa) = 16.27287 18.95948 17.61617
#
# Velocity S-wave (km/s) = 3.08700 3.33210 3.21189
# Velocity P-wave (km/s) = 6.71999 6.97224 6.84728
#
# Compressibility (1/GPa) = 0.01804530
#
# Stress axis : x y z
#
# Youngs Moduli (GPa) = 29.74624 29.74624 78.22782
#
# Poissons Ratio (x) = 0.62984 0.38382
# Poissons Ratio (y) = 0.62984 0.38382
# Poissons Ratio (z) = 0.14595 0.14595
#
# Static dielectric constant tensor:
#      x y z
#    x 3.177910 0.000000 0.000000 
#    y 0.000000 3.177910 0.000000 
#    z 0.000000 0.000000 3.159430 
# 
# 
# High freq. dielectric constant tensor:
#      x y z
#    x 1.640070 0.000000 0.000000 
#    y 0.000000 1.640070 0.000000 
#    z 0.000000 0.000000 1.637160 
# 
# From -- ./inp_files/3367.got.cif
#   From: 2010.03.12/outbox.cif.g09.slc.cpg/sg102_2_cif.got.tgz:3367.got - 2010.04.14 01:40:42.
