data_PCOD8306278
_publ_section_title
;
Structure prediction by ZEFSAII (Michael W. Deem and Ramdas Pophale) SiO2 
 PCOD8306278
Probable space group: I 41 2 2
;
_chemical_formula_sum "Si O2"
_cell_formula_units_Z 96
_cell_length_a 21.970746
_cell_length_b 21.970746
_cell_length_c 12.402435
_cell_angle_alpha 90.000000
_cell_angle_beta 90.000000
_cell_angle_gamma 90.000000
_cell_volume 5986.825037
_symmetry_space_group_name_H-M "I 41 2 2"
_symmetry_group_IT_number 98
_symmetry_cell_setting 'tetragonal'
loop_
_space_group_symop_operation_xyz
x,y,z
-y,1/2+x,1/4+z
-x,-y,z
y,1/2-x,1/4+z
x,1/2-y,1/4-z
-x,1/2+y,1/4-z
y,x,-z
-y,-x,-z
1/2+x,1/2+y,1/2+z
1/2-y,x,3/4+z
1/2-x,1/2-y,1/2+z
1/2+y,-x,3/4+z
1/2+x,-y,3/4-z
1/2-x,y,3/4-z
1/2+y,1/2+x,1/2-z
1/2-y,1/2-x,1/2-z
loop_
_atom_site_type_symbol
_atom_site_label
_atom_site_fract_x
_atom_site_fract_y
_atom_site_fract_z
Si Si1 0.780547 0.123300 0.490182
Si Si2 0.993148 0.900444 0.264716
Si Si3 0.565712 0.321825 0.611801
Si Si4 0.831891 0.415709 0.115750
Si Si5 0.977806 0.381699 0.755165
Si Si6 0.902334 0.999105 0.275336
O O1 0.809167 0.190834 0.500000
O O2 0.750000 0.115436 0.375000
O O3 0.733755 0.111355 0.587082
O O4 0.832301 0.074390 0.504831
O O5 0.932797 0.937542 0.227559
O O6 0.006868 0.846837 0.178216
O O7 0.982550 0.873401 0.385663
O O8 0.049531 0.946124 0.273394
O O9 0.574369 0.250000 0.625000
O O10 0.558842 0.336055 0.486214
O O11 0.623735 0.358555 0.656706
O O12 0.846356 0.475948 0.045335
O O13 0.948912 0.448912 0.750000
O O14 0.017122 0.377233 0.645276
#
# Coordination Sequence:
#
# PCOD8306278 Si02
#       6
#    16  16  16  16  16  16
#     4  11  22  33  48  66  90 127 170 208 246 280
#     4   9  17  28  48  67  85 117 148 193 245 301
#     4  10  21  34  47  60  91 125 162 201 238 284
#     4  10  21  34  46  65  89 123 163 211 240 273
#     4   9  16  28  46  66  91 113 149 197 240 285
#     4   9  16  29  46  69  89 107 152 199 247 288
#
# _framework density 16.035209999999999
#
# number of rings (size 3 to 8) (size 9 to 14) (size 15 to 20)
#    0.000    2.333    1.667    1.500    4.667    3.333 
#    0.000    3.333    0.000    0.000    0.000    0.000 
#    0.000    0.000    0.000    0.000   82.333    0.000 
#
# Total GULP energy -594793.104874 kJ/mol
# GULP energy per Si atom -12391.523018 kJ/mol
# Density = 1.599871 g / cm^3
# Si number density = 16.035210 Si / 1000 Ang^3
#
#
#
# Elastic Constant Matrix: (Units=GPa)
#
#
# Indices 1 2 3 4 5 6 
#
# 1 50.5875 47.6683 35.0982 0.0000 0.0000 0.0000
# 2 47.6683 50.5884 35.0985 0.0000 0.0000 0.0000
# 3 35.0982 35.0985 92.5628 0.0000 0.0000 0.0000
# 4 0.0000 0.0000 0.0000 22.1117 0.0000 0.0000
# 5 0.0000 0.0000 0.0000 0.0000 22.1095 0.0000
# 6 0.0000 0.0000 0.0000 0.0000 0.0000 21.1186
#
#
#
# Elastic Compliance Matrix: (Units=1/GPa)
#
#
# Indices 1 2 3 4 5 6 
#
# 1 0.178233 -0.164272 -0.005293 0.000000 0.000000 0.000000
# 2 -0.164272 0.178230 -0.005293 0.000000 0.000000 0.000000
# 3 -0.005293 -0.005293 0.014818 0.000000 0.000000 0.000000
# 4 0.000000 0.000000 0.000000 0.045225 0.000000 0.000000
# 5 0.000000 0.000000 0.000000 0.000000 0.045229 0.000000
# 6 0.000000 0.000000 0.000000 0.000000 0.000000 0.047352
#
#
# Mechanical properties :
#
#
# Convention : Reuss Voigt Hill
#
# Bulk Modulus (GPa) = 46.37497 47.71875 47.04686
# Shear Modulus (GPa) = 5.77374 18.12621 11.94997
#
# Velocity S-wave (km/s) = 1.89960 3.36579 2.73286
# Velocity P-wave (km/s) = 5.81333 6.70284 6.27387
#
# Compressibility (1/GPa) = 0.02156335
#
# Stress axis : x y z
#
# Youngs Moduli (GPa) = 5.61064 5.61074 67.48769
#
# Poissons Ratio (x) = 0.92169 0.35723
# Poissons Ratio (y) = 0.92167 0.35720
# Poissons Ratio (z) = 0.02970 0.02970
#
# Static dielectric constant tensor:
#      x y z
#    x 2.871920 0.000000 0.000000 
#    y 0.000000 2.871920 0.000000 
#    z 0.000000 0.000000 3.312920 
# 
# 
# High freq. dielectric constant tensor:
#      x y z
#    x 1.580690 0.000000 0.000000 
#    y 0.000000 1.580690 0.000000 
#    z 0.000000 0.000000 1.635130 
# 
# From -- ./inp_files/5297.got.cif
#   From: 2010.03.12/outbox.cif.g09.slc.cpg/sg98_3_cif.got.tgz:5297.got - 2010.04.08 21:04:41.
