data_PCOD8306143
_publ_section_title
;
Structure prediction by ZEFSAII (Michael W. Deem and Ramdas Pophale) SiO2 
 PCOD8306143
Probable space group: I 4 2 2 
;
_chemical_formula_sum "Si O2"
_cell_formula_units_Z 44
_cell_length_a 15.788661
_cell_length_b 15.788661
_cell_length_c 8.448616
_cell_angle_alpha 90.000000
_cell_angle_beta 90.000000
_cell_angle_gamma 90.000000
_cell_volume 2106.086341
_symmetry_space_group_name_H-M "I 4 2 2 "
_symmetry_group_IT_number 97
_symmetry_cell_setting 'tetragonal'
loop_
_space_group_symop_operation_xyz
x,y,z
-y,x,z
-x,-y,z
y,-x,z
x,-y,-z
-x,y,-z
y,x,-z
-y,-x,-z
1/2+x,1/2+y,1/2+z
1/2-y,1/2+x,1/2+z
1/2-x,1/2-y,1/2+z
1/2+y,1/2-x,1/2+z
1/2+x,1/2-y,1/2-z
1/2-x,1/2+y,1/2-z
1/2+y,1/2+x,1/2-z
1/2-y,1/2-x,1/2-z
loop_
_atom_site_type_symbol
_atom_site_label
_atom_site_fract_x
_atom_site_fract_y
_atom_site_fract_z
Si Si1 0.354160 0.000000 0.500000
Si Si2 0.396706 0.592591 0.320800
Si Si3 0.656093 0.246300 0.884656
Si Si4 0.500000 0.000000 0.750000
O O1 0.292900 0.080651 0.487956
O O2 0.413708 0.004096 0.652245
O O3 0.382217 0.493357 0.291571
O O4 0.377027 0.622974 0.500000
O O5 0.336699 0.636969 0.194866
O O6 0.679133 0.179133 0.750000
O O7 0.735679 0.264322 0.000000
#
# Coordination Sequence:
#
# PCOD8306143 Si02
#       4
#     8  16  16   4
#     4  11  24  48  70  93 132 178 232 267 328 404
#     4   9  19  40  65  91 128 176 216 252 317 402
#     4  12  25  41  62 100 132 166 211 280 338 380
#     4  10  24  50  72  90 120 194 232 266 312 414
#
# _framework density 20.891831
#
# number of rings (size 3 to 8) (size 9 to 14) (size 15 to 20)
#    0.000    1.455    1.818    4.364    2.545    0.000 
#   13.091    1.818    0.000    0.000    0.000    0.000 
#    0.000    0.000    0.000    0.000    0.000    0.000 
#
# Total GULP energy -272763.750014 kJ/mol
# GULP energy per Si atom -12398.352273 kJ/mol
# Density = 2.084428 g / cm^3
# Si number density = 20.891831 Si / 1000 Ang^3
#
#
#
# Elastic Constant Matrix: (Units=GPa)
#
#
# Indices 1 2 3 4 5 6 
#
# 1 90.6797 49.3747 47.1778 0.0000 0.0000 0.0000
# 2 49.3747 90.6808 47.1781 0.0000 0.0000 0.0000
# 3 47.1778 47.1781 100.4897 0.0000 0.0000 0.0000
# 4 0.0000 0.0000 0.0000 22.2393 0.0000 0.0000
# 5 0.0000 0.0000 0.0000 0.0000 22.2381 0.0000
# 6 0.0000 0.0000 0.0000 0.0000 0.0000 36.9591
#
#
#
# Elastic Compliance Matrix: (Units=1/GPa)
#
#
# Indices 1 2 3 4 5 6 
#
# 1 0.017327 -0.006883 -0.004903 0.000000 0.000000 0.000000
# 2 -0.006883 0.017326 -0.004903 0.000000 0.000000 0.000000
# 3 -0.004903 -0.004903 0.014555 0.000000 0.000000 0.000000
# 4 0.000000 0.000000 0.000000 0.044965 0.000000 0.000000
# 5 0.000000 0.000000 0.000000 0.000000 0.044968 0.000000
# 6 0.000000 0.000000 0.000000 0.000000 0.000000 0.027057
#
#
# Mechanical properties :
#
#
# Convention : Reuss Voigt Hill
#
# Bulk Modulus (GPa) = 63.17228 63.25682 63.21455
# Shear Modulus (GPa) = 24.40779 25.49529 24.95154
#
# Velocity S-wave (km/s) = 3.42174 3.49714 3.45964
# Velocity P-wave (km/s) = 6.77602 6.83012 6.80313
#
# Compressibility (1/GPa) = 0.01582973
#
# Stress axis : x y z
#
# Youngs Moduli (GPa) = 57.71485 57.71554 68.70563
#
# Poissons Ratio (x) = 0.39727 0.33685
# Poissons Ratio (y) = 0.39727 0.33685
# Poissons Ratio (z) = 0.28297 0.28297
#
# Static dielectric constant tensor:
#      x y z
#    x 3.678090 0.000000 0.000000 
#    y 0.000000 3.678080 0.000000 
#    z 0.000000 0.000000 3.870300 
# 
# 
# High freq. dielectric constant tensor:
#      x y z
#    x 1.820570 0.000000 0.000000 
#    y 0.000000 1.820570 0.000000 
#    z 0.000000 0.000000 1.828160 
# 
# From -- ./inp_files/1694.got.cif
#   From: 2010.03.12/outbox.cif.g09.slc.cpg/sg97_1_cif.got.tgz:1694.got - 2010.04.08 20:59:42.
