data_PCOD8306739
_publ_section_title
;
Structure prediction by ZEFSAII (Michael W. Deem and Ramdas Pophale) SiO2 
 PCOD8306739
Probable space group: P 42 C M
;
_chemical_formula_sum "Si O2"
_cell_formula_units_Z 48
_cell_length_a 12.661551
_cell_length_b 12.661551
_cell_length_c 18.828942
_cell_angle_alpha 90.000000
_cell_angle_beta 90.000000
_cell_angle_gamma 90.000000
_cell_volume 3018.559459
_symmetry_space_group_name_H-M "P 42 C M"
_symmetry_group_IT_number 101
_symmetry_cell_setting 'tetragonal'
loop_
_space_group_symop_operation_xyz
x,y,z
-y,x,1/2+z
-x,-y,z
y,-x,1/2+z
-x,y,1/2+z
x,-y,1/2+z
-y,-x,z
y,x,z
loop_
_atom_site_type_symbol
_atom_site_label
_atom_site_fract_x
_atom_site_fract_y
_atom_site_fract_z
Si Si1 0.000000 0.623836 0.262200
Si Si2 0.713796 0.883353 0.640576
Si Si3 0.713798 0.116646 0.640576
Si Si4 0.377867 0.206384 0.504847
Si Si5 0.377866 0.793618 0.504847
Si Si6 0.625517 0.000001 0.921001
O O1 0.895314 0.660104 0.218517
O O2 0.000001 0.672738 0.341149
O O3 0.000000 0.500000 0.269062
O O4 0.104686 0.660102 0.218516
O O5 0.824461 0.824461 0.648897
O O6 0.635462 0.820589 0.588198
O O7 0.736360 0.999999 0.608624
O O8 0.824464 0.175537 0.648897
O O9 0.635464 0.179410 0.588199
O O10 0.308026 0.308026 0.483642
O O11 0.500001 0.232904 0.489229
O O12 0.335532 0.106319 0.459918
O O13 0.308023 0.691978 0.483642
O O14 0.335531 0.893684 0.459919
O O15 0.500000 0.000000 0.922141
#
# Coordination Sequence:
#
# PCOD8306739 Si02
#       6
#     8   8   8   8   8   8
#     4   9  17  29  48  69  94 124 158 200 233 276
#     4   9  18  30  48  69  92 126 156 192 238 281
#     4   9  18  30  48  69  92 126 156 192 238 281
#     4  10  19  32  51  72  97 127 160 200 240 283
#     4  10  19  32  51  72  97 127 160 200 240 283
#     4   9  17  31  49  70  95 127 164 194 231 282
#
# _framework density 15.901624
#
# number of rings (size 3 to 8) (size 9 to 14) (size 15 to 20)
#    1.000    1.667    1.667    1.000    0.000    2.000 
#    0.000    0.000    0.000    0.500    0.000    0.000 
#    0.000    8.000    0.000    0.000    0.000    0.000 
#
# Total GULP energy -594775.864714 kJ/mol
# GULP energy per Si atom -12391.163848 kJ/mol
# Density = 1.586543 g / cm^3
# Si number density = 15.901624 Si / 1000 Ang^3
#
#
#
# Elastic Constant Matrix: (Units=GPa)
#
#
# Indices 1 2 3 4 5 6 
#
# 1 85.6029 51.9263 30.2732 0.0000 0.0000 -0.0002
# 2 51.9263 85.6029 30.2732 0.0000 0.0000 0.0002
# 3 30.2732 30.2732 99.1880 0.0000 0.0000 0.0000
# 4 0.0000 0.0000 0.0000 14.5102 0.0000 0.0000
# 5 0.0000 0.0000 0.0000 0.0000 14.5102 0.0000
# 6 -0.0002 0.0002 0.0000 0.0000 0.0000 25.1236
#
#
#
# Elastic Compliance Matrix: (Units=1/GPa)
#
#
# Indices 1 2 3 4 5 6 
#
# 1 0.019047 -0.010647 -0.002564 0.000000 0.000000 0.000000
# 2 -0.010647 0.019047 -0.002564 0.000000 0.000000 0.000000
# 3 -0.002564 -0.002564 0.011647 0.000000 0.000000 0.000000
# 4 0.000000 0.000000 0.000000 0.068917 0.000000 0.000000
# 5 0.000000 0.000000 0.000000 0.000000 0.068917 0.000000
# 6 0.000000 0.000000 0.000000 0.000000 0.000000 0.039803
#
#
# Mechanical properties :
#
#
# Convention : Reuss Voigt Hill
#
# Bulk Modulus (GPa) = 54.97035 55.03768 55.00402
# Shear Modulus (GPa) = 18.86853 21.35685 20.11269
#
# Velocity S-wave (km/s) = 3.44841 3.66876 3.56029
# Velocity P-wave (km/s) = 7.10630 7.25485 7.18096
#
# Compressibility (1/GPa) = 0.01819163
#
# Stress axis : x y z
#
# Youngs Moduli (GPa) = 52.50161 52.50161 85.86043
#
# Poissons Ratio (x) = 0.55899 0.22012
# Poissons Ratio (y) = 0.55899 0.22012
# Poissons Ratio (z) = 0.13460 0.13460
#
# Static dielectric constant tensor:
#      x y z
#    x 2.841360 0.000000 0.000000 
#    y 0.000000 2.841360 0.000000 
#    z 0.000000 0.000000 3.210500 
# 
# 
# High freq. dielectric constant tensor:
#      x y z
#    x 1.595530 0.000000 0.000000 
#    y 0.000000 1.595530 0.000000 
#    z 0.000000 0.000000 1.610240 
# 
# From -- ./inp_files/2446.got.cif
#   From: 2010.03.12/outbox.cif.g09.slc.cpg/sg101_2_cif.got.tgz:2446.got - 2010.04.14 01:38:52.
