data_PCOD8306785
_publ_section_title
;
Structure prediction by ZEFSAII (Michael W. Deem and Ramdas Pophale) SiO2 
 PCOD8306785
Probable space group: P 42 C M
;
_chemical_formula_sum "Si O2"
_cell_formula_units_Z 64
_cell_length_a 11.542961
_cell_length_b 11.542961
_cell_length_c 23.672617
_cell_angle_alpha 90.000000
_cell_angle_beta 90.000000
_cell_angle_gamma 90.000000
_cell_volume 3154.138273
_symmetry_space_group_name_H-M "P 42 C M"
_symmetry_group_IT_number 101
_symmetry_cell_setting 'tetragonal'
loop_
_space_group_symop_operation_xyz
x,y,z
-y,x,1/2+z
-x,-y,z
y,-x,1/2+z
-x,y,1/2+z
x,-y,1/2+z
-y,-x,z
y,x,z
loop_
_atom_site_type_symbol
_atom_site_label
_atom_site_fract_x
_atom_site_fract_y
_atom_site_fract_z
Si Si1 0.753438 0.569185 0.228780
Si Si2 0.811422 0.000105 0.349155
Si Si3 0.640636 0.172104 0.038598
Si Si4 0.902986 0.407735 0.161694
Si Si5 0.636035 0.014227 0.448135
Si Si6 0.762082 0.945374 0.222757
Si Si7 0.435751 0.249870 0.966858
Si Si8 0.687443 0.497455 0.347492
O O1 0.623410 0.623410 0.217265
O O2 0.783034 0.456013 0.190172
O O3 0.843885 0.669806 0.217428
O O4 0.765582 0.530258 0.293935
O O5 0.882583 0.117418 0.359413
O O6 0.701470 0.997883 0.389591
O O7 0.767391 0.996197 0.285387
O O8 0.888766 0.888766 0.363255
O O9 0.747694 0.252307 0.054702
O O10 0.596247 0.110704 0.094855
O O11 0.683139 0.076199 0.994095
O O12 0.537390 0.248624 0.012674
O O13 0.000000 0.500000 0.178585
O O14 0.946305 0.280636 0.183848
O O15 0.500000 0.000000 0.437720
O O16 0.653285 0.142719 0.474652
O O17 0.888468 0.888468 0.205886
O O18 0.371508 0.371508 0.974562
O O19 0.486670 0.234437 0.903409
O O20 0.623450 0.376551 0.334042
O O21 0.596513 0.596513 0.361564
#
# Coordination Sequence:
#
# PCOD8306785 Si02
#       8
#     8   8   8   8   8   8   8   8
#     4   9  19  34  55  85 119 157 196 242 302 363
#     4  10  21  37  58  86 120 153 190 243 302 356
#     4  11  24  41  60  85 116 157 202 247 296 354
#     4  10  21  39  60  82 116 152 202 251 298 357
#     4  10  22  37  58  85 116 152 198 241 292 351
#     4   9  20  36  57  84 114 153 197 247 308 363
#     4  10  21  37  59  87 119 156 197 245 300 356
#     4   9  18  32  51  81 121 157 190 235 294 357
#
# _framework density 20.290804999999999
#
# number of rings (size 3 to 8) (size 9 to 14) (size 15 to 20)
#    0.000    2.250    0.000    2.250    5.250    2.750 
#    0.000    3.750    0.000    1.500    0.000    0.000 
#    0.000    0.000    0.000    0.000    0.000    0.000 
#
# Total GULP energy -793344.223176 kJ/mol
# GULP energy per Si atom -12396.003487 kJ/mol
# Density = 2.024462 g / cm^3
# Si number density = 20.290805 Si / 1000 Ang^3
#
#
#
# Elastic Constant Matrix: (Units=GPa)
#
#
# Indices 1 2 3 4 5 6 
#
# 1 61.0418 28.8044 38.6144 0.0000 0.0000 0.0002
# 2 28.8044 61.0418 38.6144 0.0000 0.0000 -0.0002
# 3 38.6144 38.6144 107.7612 0.0000 0.0000 0.0000
# 4 0.0000 0.0000 0.0000 19.9505 0.0000 0.0000
# 5 0.0000 0.0000 0.0000 0.0000 19.9505 0.0000
# 6 0.0002 -0.0002 0.0000 0.0000 0.0000 18.4295
#
#
#
# Elastic Compliance Matrix: (Units=1/GPa)
#
#
# Indices 1 2 3 4 5 6 
#
# 1 0.023552 -0.007468 -0.005764 0.000000 0.000000 0.000000
# 2 -0.007468 0.023552 -0.005764 0.000000 0.000000 0.000000
# 3 -0.005764 -0.005764 0.013410 0.000000 0.000000 0.000000
# 4 0.000000 0.000000 0.000000 0.050124 0.000000 0.000000
# 5 0.000000 0.000000 0.000000 0.000000 0.050124 0.000000
# 6 0.000000 0.000000 0.000000 0.000000 0.000000 0.054261
#
#
# Mechanical properties :
#
#
# Convention : Reuss Voigt Hill
#
# Bulk Modulus (GPa) = 44.39564 49.10122 46.74843
# Shear Modulus (GPa) = 19.19227 19.92019 19.55623
#
# Velocity S-wave (km/s) = 3.07882 3.13666 3.10788
# Velocity P-wave (km/s) = 5.87929 6.11306 5.99731
#
# Compressibility (1/GPa) = 0.02252473
#
# Stress axis : x y z
#
# Youngs Moduli (GPa) = 42.45913 42.45913 74.56958
#
# Poissons Ratio (x) = 0.31708 0.42978
# Poissons Ratio (y) = 0.31708 0.42978
# Poissons Ratio (z) = 0.24471 0.24471
#
# Static dielectric constant tensor:
#      x y z
#    x 3.876820 0.000000 0.000000 
#    y 0.000000 3.876820 0.000000 
#    z 0.000000 0.000000 3.470640 
# 
# 
# High freq. dielectric constant tensor:
#      x y z
#    x 1.790960 0.000000 0.000000 
#    y 0.000000 1.790960 0.000000 
#    z 0.000000 0.000000 1.781240 
# 
# From -- ./inp_files/2777.got.cif
#   From: 2010.03.12/outbox.cif.g09.slc.cpg/sg101_2_cif.got.tgz:2777.got - 2010.04.14 01:38:52.
