data_PCOD8306106
_publ_section_title
;
Structure prediction by ZEFSAII (Michael W. Deem and Ramdas Pophale) SiO2 
 PCOD8306106
Probable space group: I 4 2 2 
;
_chemical_formula_sum "Si O2"
_cell_formula_units_Z 96
_cell_length_a 14.717996
_cell_length_b 14.717996
_cell_length_c 20.750040
_cell_angle_alpha 90.000000
_cell_angle_beta 90.000000
_cell_angle_gamma 90.000000
_cell_volume 4494.861345
_symmetry_space_group_name_H-M "I 4 2 2 "
_symmetry_group_IT_number 97
_symmetry_cell_setting 'tetragonal'
loop_
_space_group_symop_operation_xyz
x,y,z
-y,x,z
-x,-y,z
y,-x,z
x,-y,-z
-x,y,-z
y,x,-z
-y,-x,-z
1/2+x,1/2+y,1/2+z
1/2-y,1/2+x,1/2+z
1/2-x,1/2-y,1/2+z
1/2+y,1/2-x,1/2+z
1/2+x,1/2-y,1/2-z
1/2-x,1/2+y,1/2-z
1/2+y,1/2+x,1/2-z
1/2-y,1/2-x,1/2-z
loop_
_atom_site_type_symbol
_atom_site_label
_atom_site_fract_x
_atom_site_fract_y
_atom_site_fract_z
Si Si1 0.719379 0.780622 0.750000
Si Si2 0.481951 0.248607 0.713644
Si Si3 0.595080 0.947518 0.119765
Si Si4 0.888466 0.901958 0.429463
Si Si5 0.536970 0.642680 0.589784
Si Si6 0.000000 0.295389 0.000000
Si Si7 0.755565 0.378304 0.172602
O O1 0.612401 0.763922 0.750611
O O2 0.769021 0.727569 0.808850
O O3 0.506032 0.157622 0.673908
O O4 0.466162 0.332310 0.665175
O O5 0.559540 0.272208 0.765994
O O6 0.577549 0.843592 0.139657
O O7 0.500000 0.000000 0.116793
O O8 0.640772 0.943648 0.048878
O O9 0.863182 0.863182 0.500000
O O10 0.825898 0.859720 0.376006
O O11 0.991559 0.874106 0.420078
O O12 0.434975 0.609177 0.573208
O O13 0.561789 0.729977 0.545400
#
# Coordination Sequence:
#
# PCOD8306106 Si02
#       7
#     8  16  16  16  16   8  16
#     4  12  24  40  66  98 132 170 226 274 346 422
#     4  11  23  40  65  96 134 170 222 287 348 416
#     4  11  24  45  64  90 135 184 230 282 343 413
#     4   9  20  42  66  95 132 170 218 279 344 410
#     4  10  21  39  65  95 132 173 216 277 356 424
#     4  10  23  41  62  90 124 176 230 277 325 410
#     4  12  23  43  66 100 133 175 229 284 345 423
#
# _framework density 21.357721000000002
#
# number of rings (size 3 to 8) (size 9 to 14) (size 15 to 20)
#    0.000    1.333    1.667    4.250    2.333    1.333 
#   12.000    1.667    0.000    0.000    0.000    0.000 
#    0.000    0.000    0.000    0.000    0.000    0.000 
#
# Total GULP energy -594806.664812 kJ/mol
# GULP energy per Si atom -12391.805517 kJ/mol
# Density = 2.130911 g / cm^3
# Si number density = 21.357721 Si / 1000 Ang^3
#
#
#
# Elastic Constant Matrix: (Units=GPa)
#
#
# Indices 1 2 3 4 5 6 
#
# 1 77.9873 28.6596 43.6971 0.0000 0.0000 0.0000
# 2 28.6596 77.9878 43.6970 0.0000 0.0000 0.0000
# 3 43.6971 43.6970 127.8681 0.0000 0.0000 0.0000
# 4 0.0000 0.0000 0.0000 36.5775 0.0000 0.0000
# 5 0.0000 0.0000 0.0000 0.0000 36.5776 0.0000
# 6 0.0000 0.0000 0.0000 0.0000 0.0000 23.6234
#
#
#
# Elastic Compliance Matrix: (Units=1/GPa)
#
#
# Indices 1 2 3 4 5 6 
#
# 1 0.016648 -0.003624 -0.004451 0.000000 0.000000 0.000000
# 2 -0.003624 0.016648 -0.004451 0.000000 0.000000 0.000000
# 3 -0.004451 -0.004451 0.010863 0.000000 0.000000 0.000000
# 4 0.000000 0.000000 0.000000 0.027339 0.000000 0.000000
# 5 0.000000 0.000000 0.000000 0.000000 0.027339 0.000000
# 6 0.000000 0.000000 0.000000 0.000000 0.000000 0.042331
#
#
# Mechanical properties :
#
#
# Convention : Reuss Voigt Hill
#
# Bulk Modulus (GPa) = 52.33560 57.32786 54.83173
# Shear Modulus (GPa) = 28.97059 30.54168 29.75614
#
# Velocity S-wave (km/s) = 3.68699 3.78565 3.73664
# Velocity P-wave (km/s) = 6.53320 6.78293 6.65924
#
# Compressibility (1/GPa) = 0.01910745
#
# Stress axis : x y z
#
# Youngs Moduli (GPa) = 60.06616 60.06674 92.05974
#
# Poissons Ratio (x) = 0.21770 0.40974
# Poissons Ratio (y) = 0.21770 0.40973
# Poissons Ratio (z) = 0.26734 0.26734
#
# Static dielectric constant tensor:
#      x y z
#    x 3.924830 0.000000 0.000000 
#    y 0.000000 3.924810 0.000000 
#    z 0.000000 0.000000 4.217890 
# 
# 
# High freq. dielectric constant tensor:
#      x y z
#    x 1.831680 0.000000 0.000000 
#    y 0.000000 1.831680 0.000000 
#    z 0.000000 0.000000 1.853500 
# 
# From -- ./inp_files/6673.got.cif
#   From: 2010.03.12/outbox.cif.g09.slc.cpg/sg97_4_cif.got.tgz:6673.got - 2010.04.08 20:59:42.
