data_PCOD8306455
_publ_section_title
;
Structure prediction by ZEFSAII (Michael W. Deem and Ramdas Pophale) SiO2 
 PCOD8306455
Probable space group: P 4 M M
;
_chemical_formula_sum "Si O2"
_cell_formula_units_Z 64
_cell_length_a 13.374948
_cell_length_b 13.374948
_cell_length_c 20.667188
_cell_angle_alpha 90.000000
_cell_angle_beta 90.000000
_cell_angle_gamma 90.000000
_cell_volume 3697.137430
_symmetry_space_group_name_H-M "P 4 M M"
_symmetry_group_IT_number 99
_symmetry_cell_setting 'tetragonal'
loop_
_space_group_symop_operation_xyz
x,y,z
-y,x,z
-x,-y,z
y,-x,z
-x,y,z
x,-y,z
-y,-x,z
y,x,z
loop_
_atom_site_type_symbol
_atom_site_label
_atom_site_fract_x
_atom_site_fract_y
_atom_site_fract_z
Si Si1 0.778200 0.382342 0.245880
Si Si2 0.112577 0.383302 0.376550
Si Si3 0.617263 0.218092 0.010759
Si Si4 0.117459 0.271847 0.504127
Si Si5 0.281509 0.117380 0.130567
Si Si6 0.881286 0.388199 0.627164
Si Si7 0.881597 0.388543 0.769121
Si Si8 0.881860 0.277441 0.895718
O O1 0.761591 0.500000 0.236492
O O2 0.672434 0.327567 0.233668
O O3 0.816657 0.354631 0.317132
O O4 0.860783 0.342675 0.195903
O O5 0.113282 0.500000 0.389758
O O6 0.153822 0.333006 0.441602
O O7 0.000000 0.346544 0.360959
O O8 0.500000 0.242829 0.014127
O O9 0.677132 0.322869 0.009598
O O10 0.648904 0.151898 0.071810
O O11 0.639978 0.152359 0.947374
O O12 0.160633 0.160633 0.499443
O O13 0.162502 0.322162 0.568992
O O14 0.000000 0.263115 0.507221
O O15 0.176000 0.176000 0.129616
O O16 0.258210 0.000000 0.125410
O O17 0.839303 0.500000 0.618926
O O18 0.848796 0.346898 0.698223
O O19 0.000000 0.389688 0.621764
O O20 0.836960 0.500000 0.779708
O O21 0.844887 0.314883 0.825379
O O22 0.000000 0.396361 0.772327
O O23 0.828179 0.171822 0.910363
O O24 0.000000 0.260030 0.899961
#
# Coordination Sequence:
#
# PCOD8306455 Si02
#       8
#     8   8   8   8   8   8   8   8
#     4  10  20  33  50  73 100 129 161 197 238 286
#     4   9  17  30  49  70  89 113 150 196 243 285
#     4  10  21  36  54  77 102 128 161 200 243 292
#     4  10  19  29  42  61  88 121 153 186 225 273
#     4  10  21  36  54  77 103 131 165 202 239 281
#     4   8  14  26  44  64  84 108 144 191 237 275
#     4   8  14  26  45  66  86 111 146 190 238 282
#     4  10  20  32  47  69  97 130 167 203 239 282
#
# _framework density 17.310690000000001
#
# number of rings (size 3 to 8) (size 9 to 14) (size 15 to 20)
#    0.000    2.625    0.000    3.000    0.000    5.375 
#    0.000    0.000    0.000    4.500    0.000    5.250 
#    0.000    2.250    0.000    9.250    0.000    1.000 
#
# Total GULP energy -793362.117190 kJ/mol
# GULP energy per Si atom -12396.283081 kJ/mol
# Density = 1.727129 g / cm^3
# Si number density = 17.310690 Si / 1000 Ang^3
#
#
#
# Elastic Constant Matrix: (Units=GPa)
#
#
# Indices 1 2 3 4 5 6 
#
# 1 82.9045 44.0746 46.3314 0.0000 0.0000 -0.0002
# 2 44.0746 82.9045 46.3314 0.0000 0.0000 0.0002
# 3 46.3314 46.3314 133.0867 0.0000 0.0000 0.0000
# 4 0.0000 0.0000 0.0000 21.1910 0.0000 0.0000
# 5 0.0000 0.0000 0.0000 0.0000 21.1910 0.0000
# 6 -0.0002 0.0002 0.0000 0.0000 0.0000 16.1129
#
#
#
# Elastic Compliance Matrix: (Units=1/GPa)
#
#
# Indices 1 2 3 4 5 6 
#
# 1 0.018155 -0.007598 -0.003675 0.000000 0.000000 0.000000
# 2 -0.007598 0.018155 -0.003675 0.000000 0.000000 0.000000
# 3 -0.003675 -0.003675 0.010073 0.000000 0.000000 0.000000
# 4 0.000000 0.000000 0.000000 0.047190 0.000000 0.000000
# 5 0.000000 0.000000 0.000000 0.000000 0.047190 0.000000
# 6 0.000000 0.000000 0.000000 0.000000 0.000000 0.062062
#
#
# Mechanical properties :
#
#
# Convention : Reuss Voigt Hill
#
# Bulk Modulus (GPa) = 60.65639 63.59671 62.12655
# Shear Modulus (GPa) = 20.98919 22.50955 21.74937
#
# Velocity S-wave (km/s) = 3.48587 3.60992 3.54844
# Velocity P-wave (km/s) = 7.16363 7.36162 7.26330
#
# Compressibility (1/GPa) = 0.01648631
#
# Stress axis : x y z
#
# Youngs Moduli (GPa) = 55.08009 55.08009 99.27647
#
# Poissons Ratio (x) = 0.41850 0.36487
# Poissons Ratio (y) = 0.41850 0.36487
# Poissons Ratio (z) = 0.20244 0.20244
#
# Static dielectric constant tensor:
#      x y z
#    x 3.002150 0.000000 0.000000 
#    y 0.000000 3.002150 0.000000 
#    z 0.000000 0.000000 3.626550 
# 
# 
# High freq. dielectric constant tensor:
#      x y z
#    x 1.648010 0.000000 0.000000 
#    y 0.000000 1.648010 0.000000 
#    z 0.000000 0.000000 1.692990 
# 
# From -- ./inp_files/2268.got.cif
#   From: 2010.03.12/outbox.cif.g09.slc.cpg/sg99_cif.got.tgz:2268.got - 2010.04.08 21:11:30.
