data_PCOD8306627
_publ_section_title
;
Structure prediction by ZEFSAII (Michael W. Deem and Ramdas Pophale) SiO2 
 PCOD8306627
Probable space group: P 4 B M
;
_chemical_formula_sum "Si O2"
_cell_formula_units_Z 48
_cell_length_a 16.065718
_cell_length_b 16.065718
_cell_length_c 10.402513
_cell_angle_alpha 90.000000
_cell_angle_beta 90.000000
_cell_angle_gamma 90.000000
_cell_volume 2684.964490
_symmetry_space_group_name_H-M "P 4 B M"
_symmetry_group_IT_number 100
_symmetry_cell_setting 'tetragonal'
loop_
_space_group_symop_operation_xyz
x,y,z
-y,x,z
-x,-y,z
y,-x,z
1/2-x,1/2+y,z
1/2+x,1/2-y,z
1/2-y,1/2-x,z
1/2+y,1/2+x,z
loop_
_atom_site_type_symbol
_atom_site_label
_atom_site_fract_x
_atom_site_fract_y
_atom_site_fract_z
Si Si1 0.504580 0.134459 0.077580
Si Si2 0.003583 0.364374 0.577580
Si Si3 0.122040 0.057545 0.227092
Si Si4 0.377960 0.557545 0.928068
Si Si5 0.705967 0.932969 0.828523
Si Si6 0.432970 0.205967 0.326633
O O1 0.440532 0.059469 0.077588
O O2 0.492028 0.188388 0.204983
O O3 0.598099 0.098099 0.077578
O O4 0.492025 0.188383 0.950172
O O5 0.939716 0.439716 0.577584
O O6 0.988851 0.308151 0.702729
O O7 0.988850 0.308155 0.452426
O O8 0.096876 0.403125 0.577579
O O9 0.197238 0.093022 0.314899
O O10 0.039528 0.108949 0.260680
O O11 0.144092 0.068687 0.077580
O O12 0.391051 0.460472 0.894480
O O13 0.302762 0.593022 0.840261
O O14 0.650039 0.849962 0.827214
O O15 0.349963 0.150038 0.327934
#
# Coordination Sequence:
#
# PCOD8306627 Si02
#       6
#     8   8   8   8   8   8
#     4   9  16  26  44  71 100 128 161 202 250 304
#     4   9  18  32  50  73 106 146 173 194 250 326
#     4   9  18  34  55  75 100 137 177 214 259 316
#     4   9  18  34  55  75 100 137 177 214 259 316
#     4  10  18  31  52  76 104 134 169 217 261 301
#     4  10  18  31  52  76 104 134 169 217 261 301
#
# _framework density 17.877331999999999
#
# number of rings (size 3 to 8) (size 9 to 14) (size 15 to 20)
#    0.000    2.667    1.667    2.000    0.000    4.000 
#    0.000    5.000    0.000    4.000    0.000    0.000 
#    0.000    0.000    0.000    0.000    0.000    0.000 
#
# Total GULP energy -595071.943880 kJ/mol
# GULP energy per Si atom -12397.332164 kJ/mol
# Density = 1.783664 g / cm^3
# Si number density = 17.877332 Si / 1000 Ang^3
#
#
#
# Elastic Constant Matrix: (Units=GPa)
#
#
# Indices 1 2 3 4 5 6 
#
# 1 82.4422 24.5396 31.9795 0.0000 0.0000 -0.0001
# 2 24.5396 82.4422 31.9795 0.0000 0.0000 0.0001
# 3 31.9795 31.9795 116.9858 0.0000 0.0000 0.0000
# 4 0.0000 0.0000 0.0000 22.1823 0.0000 0.0000
# 5 0.0000 0.0000 0.0000 0.0000 22.1823 0.0000
# 6 -0.0001 0.0001 0.0000 0.0000 0.0000 13.8947
#
#
#
# Elastic Compliance Matrix: (Units=1/GPa)
#
#
# Indices 1 2 3 4 5 6 
#
# 1 0.014222 -0.003048 -0.003054 0.000000 0.000000 0.000000
# 2 -0.003048 0.014222 -0.003054 0.000000 0.000000 0.000000
# 3 -0.003054 -0.003054 0.010218 0.000000 0.000000 0.000000
# 4 0.000000 0.000000 0.000000 0.045081 0.000000 0.000000
# 5 0.000000 0.000000 0.000000 0.000000 0.045081 0.000000
# 6 0.000000 0.000000 0.000000 0.000000 0.000000 0.071970
#
#
# Mechanical properties :
#
#
# Convention : Reuss Voigt Hill
#
# Bulk Modulus (GPa) = 49.14662 50.98524 50.06593
# Shear Modulus (GPa) = 22.13461 24.54329 23.33895
#
# Velocity S-wave (km/s) = 3.52254 3.70925 3.61710
# Velocity P-wave (km/s) = 6.64041 6.85026 6.74615
#
# Compressibility (1/GPa) = 0.02034728
#
# Stress axis : x y z
#
# Youngs Moduli (GPa) = 70.31404 70.31404 97.86688
#
# Poissons Ratio (x) = 0.21435 0.29892
# Poissons Ratio (y) = 0.21435 0.29892
# Poissons Ratio (z) = 0.21477 0.21477
#
# Static dielectric constant tensor:
#      x y z
#    x 3.172070 0.000000 0.000000 
#    y 0.000000 3.172070 0.000000 
#    z 0.000000 0.000000 3.291600 
# 
# 
# High freq. dielectric constant tensor:
#      x y z
#    x 1.675490 0.000000 0.000000 
#    y 0.000000 1.675490 0.000000 
#    z 0.000000 0.000000 1.683040 
# 
# From -- ./inp_files/900.got.cif
#   From: 2010.03.12/outbox.cif.g09.slc.cpg/sg100_cif.got.tgz:900.got - 2010.04.14 01:37:57.
