data_PCOD8306552
_publ_section_title
;
Structure prediction by ZEFSAII (Michael W. Deem and Ramdas Pophale) SiO2 
 PCOD8306552
Probable space group: P 4 M M
;
_chemical_formula_sum "Si O2"
_cell_formula_units_Z 56
_cell_length_a 14.033885
_cell_length_b 14.033885
_cell_length_c 17.736738
_cell_angle_alpha 90.000000
_cell_angle_beta 90.000000
_cell_angle_gamma 90.000000
_cell_volume 3493.249275
_symmetry_space_group_name_H-M "P 4 M M"
_symmetry_group_IT_number 99
_symmetry_cell_setting 'tetragonal'
loop_
_space_group_symop_operation_xyz
x,y,z
-y,x,z
-x,-y,z
y,-x,z
-x,y,z
x,-y,z
-y,-x,z
y,x,z
loop_
_atom_site_type_symbol
_atom_site_label
_atom_site_fract_x
_atom_site_fract_y
_atom_site_fract_z
Si Si1 0.733788 0.110838 0.707710
Si Si2 0.109904 0.736462 0.145881
Si Si3 0.886873 0.394926 0.012087
Si Si4 0.386893 0.230538 0.596945
Si Si5 0.262436 0.108934 0.314695
Si Si6 0.738556 0.108526 0.880228
Si Si7 0.107977 0.610678 0.452615
O O1 0.833082 0.166919 0.692003
O O2 0.647459 0.158492 0.661970
O O3 0.702687 0.120115 0.794707
O O4 0.747877 0.000000 0.684802
O O5 0.165052 0.834949 0.134096
O O6 0.125873 0.695932 0.230521
O O7 0.000000 0.759838 0.130079
O O8 0.149338 0.658932 0.086939
O O9 0.841058 0.500000 0.012266
O O10 0.851799 0.342500 0.936166
O O11 0.000000 0.402150 0.012882
O O12 0.500000 0.248844 0.605346
O O13 0.331397 0.331397 0.601917
O O14 0.360139 0.180145 0.518458
O O15 0.166394 0.166394 0.328406
O O16 0.340323 0.141640 0.375370
O O17 0.233741 0.000000 0.326476
O O18 0.835432 0.164569 0.894660
O O19 0.763139 0.000000 0.899616
O O20 0.113202 0.500000 0.436097
O O21 0.000000 0.640562 0.475320
#
# Coordination Sequence:
#
# PCOD8306552 Si02
#       7
#     8   8   8   8   8   8   8
#     4   9  18  31  47  69  95 122 152 184 219 263
#     4   9  17  28  42  61  85 113 144 177 214 258
#     4   9  17  28  41  58  82 112 144 178 215 251
#     4  10  20  33  49  68  90 117 150 190 234 276
#     4   9  17  28  42  61  86 115 144 175 211 253
#     4   9  17  29  45  66  92 119 146 176 210 252
#     4   9  17  29  46  67  88 112 144 180 219 264
#
# _framework density 16.030919999999998
#
# number of rings (size 3 to 8) (size 9 to 14) (size 15 to 20)
#    0.000    2.857    0.000    1.286    0.000    2.714 
#    0.000    7.143    0.000    2.571    0.000    2.000 
#    0.000    4.571    0.000   10.571    0.000    0.857 
#
# Total GULP energy -694238.073534 kJ/mol
# GULP energy per Si atom -12397.108456 kJ/mol
# Density = 1.599443 g / cm^3
# Si number density = 16.030920 Si / 1000 Ang^3
#
#
#
# Elastic Constant Matrix: (Units=GPa)
#
#
# Indices 1 2 3 4 5 6 
#
# 1 85.4773 46.0907 58.2689 0.0000 0.0000 0.0000
# 2 46.0907 85.4773 58.2689 0.0000 0.0000 0.0000
# 3 58.2689 58.2689 115.2217 0.0000 0.0000 0.0000
# 4 0.0000 0.0000 0.0000 25.3269 0.0000 0.0000
# 5 0.0000 0.0000 0.0000 0.0000 25.3269 0.0000
# 6 0.0000 0.0000 0.0000 0.0000 0.0000 15.0072
#
#
#
# Elastic Compliance Matrix: (Units=1/GPa)
#
#
# Indices 1 2 3 4 5 6 
#
# 1 0.019579 -0.005811 -0.006962 0.000000 0.000000 0.000000
# 2 -0.005811 0.019579 -0.006962 0.000000 0.000000 0.000000
# 3 -0.006962 -0.006962 0.015721 0.000000 0.000000 0.000000
# 4 0.000000 0.000000 0.000000 0.039484 0.000000 0.000000
# 5 0.000000 0.000000 0.000000 0.000000 0.039484 0.000000
# 6 0.000000 0.000000 0.000000 0.000000 0.000000 0.066634
#
#
# Mechanical properties :
#
#
# Convention : Reuss Voigt Hill
#
# Bulk Modulus (GPa) = 64.90796 67.93704 66.42250
# Shear Modulus (GPa) = 20.40092 21.36873 20.88483
#
# Velocity S-wave (km/s) = 3.57122 3.65495 3.61333
# Velocity P-wave (km/s) = 7.58828 7.76417 7.67672
#
# Compressibility (1/GPa) = 0.01540643
#
# Stress axis : x y z
#
# Youngs Moduli (GPa) = 51.07627 51.07627 63.60943
#
# Poissons Ratio (x) = 0.29680 0.44288
# Poissons Ratio (y) = 0.29680 0.44288
# Poissons Ratio (z) = 0.35562 0.35562
#
# Static dielectric constant tensor:
#      x y z
#    x 2.950470 0.000000 0.000000 
#    y 0.000000 2.950470 0.000000 
#    z 0.000000 0.000000 3.282200 
# 
# 
# High freq. dielectric constant tensor:
#      x y z
#    x 1.598770 0.000000 0.000000 
#    y 0.000000 1.598770 0.000000 
#    z 0.000000 0.000000 1.632060 
# 
# From -- ./inp_files/1788.got.cif
#   From: 2010.03.12/outbox.cif.g09.slc.cpg/sg99_cif.got.tgz:1788.got - 2010.04.08 21:11:30.
