data_PCOD8306908
_publ_section_title
;
Structure prediction by ZEFSAII (Michael W. Deem and Ramdas Pophale) SiO2 
 PCOD8306908
Probable space group: P 42 N M
;
_chemical_formula_sum "Si O2"
_cell_formula_units_Z 64
_cell_length_a 10.804852
_cell_length_b 10.804852
_cell_length_c 27.562549
_cell_angle_alpha 90.000000
_cell_angle_beta 90.000000
_cell_angle_gamma 90.000000
_cell_volume 3217.785008
_symmetry_space_group_name_H-M "P 42 N M"
_symmetry_group_IT_number 102
_symmetry_cell_setting 'tetragonal'
loop_
_space_group_symop_operation_xyz
x,y,z
1/2-y,1/2+x,1/2+z
-x,-y,z
1/2+y,1/2-x,1/2+z
1/2-x,1/2+y,1/2+z
1/2+x,1/2-y,1/2+z
-y,-x,z
y,x,z
loop_
_atom_site_type_symbol
_atom_site_label
_atom_site_fract_x
_atom_site_fract_y
_atom_site_fract_z
Si Si1 0.885285 0.306254 0.381790
Si Si2 0.946469 0.242516 0.887165
Si Si3 0.804466 0.390416 0.812662
Si Si4 0.633190 0.163941 0.063365
Si Si5 0.300386 0.501399 0.623762
Si Si6 0.302197 0.499074 0.144461
Si Si7 0.060442 0.373092 0.456430
Si Si8 0.888007 0.406400 0.703544
O O1 0.820401 0.179600 0.368343
O O2 0.775653 0.408585 0.390032
O O3 0.976724 0.331546 0.336887
O O4 0.966273 0.277475 0.430546
O O5 0.904026 0.095975 0.889769
O O6 0.901029 0.294963 0.835758
O O7 0.870188 0.304570 0.932077
O O8 0.664750 0.335251 0.820007
O O9 0.830499 0.400911 0.756162
O O10 0.722252 0.277748 0.052658
O O11 0.531703 0.201780 0.103262
O O12 0.708888 0.042729 0.080617
O O13 0.560736 0.136955 0.014099
O O14 0.387741 0.612260 0.603883
O O15 0.384485 0.384485 0.640501
O O16 0.222223 0.549471 0.668800
O O17 0.377388 0.622613 0.160948
O O18 0.398171 0.398171 0.123430
O O19 0.229091 0.440053 0.189496
O O20 0.000000 0.500000 0.438700
O O21 0.000000 0.500000 0.700316
#
# Coordination Sequence:
#
# PCOD8306908 Si02
#       8
#     8   8   8   8   8   8   8   8
#     4  10  21  38  58  89 125 152 189 246 304 364
#     4   9  18  37  60  82 112 152 195 238 286 345
#     4  10  21  38  60  85 114 153 197 242 292 357
#     4  10  20  36  57  84 116 155 200 247 303 356
#     4  10  22  39  57  83 120 157 201 254 303 358
#     4  10  22  39  57  82 118 155 199 253 302 357
#     4   9  19  34  57  82 113 152 196 238 292 356
#     4  12  22  37  63  87 118 160 203 246 305 361
#
# _framework density 19.889457
#
# number of rings (size 3 to 8) (size 9 to 14) (size 15 to 20)
#    0.000    2.000    1.250    3.375    1.750    2.000 
#    0.000    4.375    0.000    3.750    0.000    0.000 
#    0.000    0.000    0.000    0.000    0.000    0.000 
#
# Total GULP energy -793059.507768 kJ/mol
# GULP energy per Si atom -12391.554809 kJ/mol
# Density = 1.984419 g / cm^3
# Si number density = 19.889457 Si / 1000 Ang^3
#
#
#
# Elastic Constant Matrix: (Units=GPa)
#
#
# Indices 1 2 3 4 5 6 
#
# 1 79.7480 49.9030 38.9623 0.0000 0.0000 -0.0004
# 2 49.9030 79.7480 38.9623 0.0000 0.0000 0.0004
# 3 38.9623 38.9623 123.4336 0.0000 0.0000 0.0000
# 4 0.0000 0.0000 0.0000 12.1457 0.0000 0.0000
# 5 0.0000 0.0000 0.0000 0.0000 12.1457 0.0000
# 6 -0.0004 0.0004 0.0000 0.0000 0.0000 39.4167
#
#
#
# Elastic Compliance Matrix: (Units=1/GPa)
#
#
# Indices 1 2 3 4 5 6 
#
# 1 0.021513 -0.011994 -0.003005 0.000000 0.000000 0.000000
# 2 -0.011994 0.021513 -0.003005 0.000000 0.000000 0.000000
# 3 -0.003005 -0.003005 0.009998 0.000000 0.000000 0.000000
# 4 0.000000 0.000000 0.000000 0.082334 0.000000 0.000000
# 5 0.000000 0.000000 0.000000 0.000000 0.082334 0.000000
# 6 0.000000 0.000000 0.000000 0.000000 0.000000 0.025370
#
#
# Mechanical properties :
#
#
# Convention : Reuss Voigt Hill
#
# Bulk Modulus (GPa) = 58.76296 59.84273 59.30285
# Shear Modulus (GPa) = 17.55987 23.08174 20.32080
#
# Velocity S-wave (km/s) = 2.97454 3.41031 3.19985
# Velocity P-wave (km/s) = 6.43476 6.75721 6.59796
#
# Compressibility (1/GPa) = 0.01701752
#
# Stress axis : x y z
#
# Youngs Moduli (GPa) = 46.48415 46.48415 100.01598
#
# Poissons Ratio (x) = 0.55752 0.30052
# Poissons Ratio (y) = 0.55752 0.30052
# Poissons Ratio (z) = 0.13967 0.13967
#
# Static dielectric constant tensor:
#      x y z
#    x 3.738270 0.000000 0.000000 
#    y 0.000000 3.738270 0.000000 
#    z 0.000000 0.000000 3.420430 
# 
# 
# High freq. dielectric constant tensor:
#      x y z
#    x 1.778280 0.000000 0.000000 
#    y 0.000000 1.778280 0.000000 
#    z 0.000000 0.000000 1.761280 
# 
# From -- ./inp_files/3553.got.cif
#   From: 2010.03.12/outbox.cif.g09.slc.cpg/sg102_2_cif.got.tgz:3553.got - 2010.04.14 01:40:42.
