data_PCOD8306880
_publ_section_title
;
Structure prediction by ZEFSAII (Michael W. Deem and Ramdas Pophale) SiO2 
 PCOD8306880
Probable space group: P 42 N M
;
_chemical_formula_sum "Si O2"
_cell_formula_units_Z 64
_cell_length_a 12.161083
_cell_length_b 12.161083
_cell_length_c 22.803150
_cell_angle_alpha 90.000000
_cell_angle_beta 90.000000
_cell_angle_gamma 90.000000
_cell_volume 3372.402086
_symmetry_space_group_name_H-M "P 42 N M"
_symmetry_group_IT_number 102
_symmetry_cell_setting 'tetragonal'
loop_
_space_group_symop_operation_xyz
x,y,z
1/2-y,1/2+x,1/2+z
-x,-y,z
1/2+y,1/2-x,1/2+z
1/2-x,1/2+y,1/2+z
1/2+x,1/2-y,1/2+z
-y,-x,z
y,x,z
loop_
_atom_site_type_symbol
_atom_site_label
_atom_site_fract_x
_atom_site_fract_y
_atom_site_fract_z
Si Si1 0.815583 0.633608 0.221860
Si Si2 0.073857 0.603859 0.600849
Si Si3 0.762510 0.063687 0.422302
Si Si4 0.765782 0.416123 0.277332
Si Si5 0.128298 0.495269 0.813883
Si Si6 0.497389 0.678100 0.044568
Si Si7 0.678154 0.506738 0.393111
Si Si8 0.720307 0.895345 0.992392
O O1 0.715346 0.715346 0.231482
O O2 0.865741 0.647060 0.157100
O O3 0.771577 0.507886 0.226590
O O4 0.908198 0.660370 0.269656
O O5 0.153249 0.564926 0.548581
O O6 0.000000 0.500000 0.617944
O O7 0.001625 0.709254 0.581156
O O8 0.868391 0.131610 0.398320
O O9 0.706652 0.993210 0.370599
O O10 0.674913 0.149212 0.447219
O O11 0.798252 0.983026 0.475157
O O12 0.664264 0.335737 0.264162
O O13 0.878856 0.347454 0.281465
O O14 0.756185 0.482959 0.338312
O O15 0.000000 0.500000 0.831789
O O16 0.393937 0.606064 0.066271
O O17 0.612105 0.612105 0.054392
O O18 0.584346 0.415655 0.394228
O O19 0.628018 0.628018 0.385969
O O20 0.742574 0.501915 0.455034
O O21 0.823745 0.823745 0.014571
#
# Coordination Sequence:
#
# PCOD8306880 Si02
#       8
#     8   8   8   8   8   8   8   8
#     4  11  24  40  56  81 113 152 196 237 282 334
#     4  11  22  39  59  78 108 146 192 234 285 343
#     4   9  16  30  54  81 111 149 186 219 275 346
#     4  10  19  35  59  87 116 146 187 237 289 341
#     4  10  20  33  53  79 117 154 191 227 274 335
#     4   9  19  36  59  87 114 140 180 238 293 340
#     4   9  16  28  50  81 113 142 179 228 280 334
#     4   9  17  32  55  79 105 145 186 224 274 339
#
# _framework density 18.977571999999999
#
# number of rings (size 3 to 8) (size 9 to 14) (size 15 to 20)
#    0.000    2.250    1.250    3.750    0.000    3.750 
#    0.000    0.625    0.000    2.625    0.000    0.000 
#    0.000    0.000    0.000    0.000    0.000    0.000 
#
# Total GULP energy -793492.078580 kJ/mol
# GULP energy per Si atom -12398.313728 kJ/mol
# Density = 1.893438 g / cm^3
# Si number density = 18.977572 Si / 1000 Ang^3
#
#
#
# Elastic Constant Matrix: (Units=GPa)
#
#
# Indices 1 2 3 4 5 6 
#
# 1 70.0877 25.2231 24.0538 0.0000 0.0000 0.0001
# 2 25.2231 70.0877 24.0538 0.0000 0.0000 -0.0001
# 3 24.0538 24.0538 84.9561 0.0000 0.0000 0.0000
# 4 0.0000 0.0000 0.0000 23.0215 0.0000 0.0000
# 5 0.0000 0.0000 0.0000 0.0000 23.0215 0.0000
# 6 0.0001 -0.0001 0.0000 0.0000 0.0000 24.9859
#
#
#
# Elastic Compliance Matrix: (Units=1/GPa)
#
#
# Indices 1 2 3 4 5 6 
#
# 1 0.017265 -0.005024 -0.003466 0.000000 0.000000 0.000000
# 2 -0.005024 0.017265 -0.003466 0.000000 0.000000 0.000000
# 3 -0.003466 -0.003466 0.013733 0.000000 0.000000 0.000000
# 4 0.000000 0.000000 0.000000 0.043438 0.000000 0.000000
# 5 0.000000 0.000000 0.000000 0.000000 0.043438 0.000000
# 6 0.000000 0.000000 0.000000 0.000000 0.000000 0.040023
#
#
# Mechanical properties :
#
#
# Convention : Reuss Voigt Hill
#
# Bulk Modulus (GPa) = 41.06358 41.31033 41.18695
# Shear Modulus (GPa) = 24.13233 24.32586 24.22909
#
# Velocity S-wave (km/s) = 3.56985 3.58414 3.57700
# Velocity P-wave (km/s) = 6.21906 6.24046 6.22977
#
# Compressibility (1/GPa) = 0.02435248
#
# Stress axis : x y z
#
# Youngs Moduli (GPa) = 57.91952 57.91952 72.81508
#
# Poissons Ratio (x) = 0.29098 0.25237
# Poissons Ratio (y) = 0.29098 0.25237
# Poissons Ratio (z) = 0.20075 0.20075
#
# Static dielectric constant tensor:
#      x y z
#    x 3.422900 0.000000 0.000000 
#    y 0.000000 3.422900 0.000000 
#    z 0.000000 0.000000 3.415350 
# 
# 
# High freq. dielectric constant tensor:
#      x y z
#    x 1.723930 0.000000 0.000000 
#    y 0.000000 1.723930 0.000000 
#    z 0.000000 0.000000 1.731940 
# 
# From -- ./inp_files/3399.got.cif
#   From: 2010.03.12/outbox.cif.g09.slc.cpg/sg102_2_cif.got.tgz:3399.got - 2010.04.14 01:40:42.
