data_PCOD8306325
_publ_section_title
;
Structure prediction by ZEFSAII (Michael W. Deem and Ramdas Pophale) SiO2 
 PCOD8306325
Probable space group: I 41 2 2
;
_chemical_formula_sum "Si O2"
_cell_formula_units_Z 40
_cell_length_a 14.267946
_cell_length_b 14.267946
_cell_length_c 8.730555
_cell_angle_alpha 90.000000
_cell_angle_beta 90.000000
_cell_angle_gamma 90.000000
_cell_volume 1777.316475
_symmetry_space_group_name_H-M "I 41 2 2"
_symmetry_group_IT_number 98
_symmetry_cell_setting 'tetragonal'
loop_
_space_group_symop_operation_xyz
x,y,z
-y,1/2+x,1/4+z
-x,-y,z
y,1/2-x,1/4+z
x,1/2-y,1/4-z
-x,1/2+y,1/4-z
y,x,-z
-y,-x,-z
1/2+x,1/2+y,1/2+z
1/2-y,x,3/4+z
1/2-x,1/2-y,1/2+z
1/2+y,-x,3/4+z
1/2+x,-y,3/4-z
1/2-x,y,3/4-z
1/2+y,1/2+x,1/2-z
1/2-y,1/2-x,1/2-z
loop_
_atom_site_type_symbol
_atom_site_label
_atom_site_fract_x
_atom_site_fract_y
_atom_site_fract_z
Si Si1 0.993892 0.768454 0.294796
Si Si2 0.544632 0.092371 0.989282
Si Si3 0.895905 0.895905 0.500000
O O1 0.903256 0.803794 0.392963
O O2 0.074634 0.847657 0.286172
O O3 0.039352 0.676661 0.368991
O O4 0.955288 0.750000 0.125000
O O5 0.488626 0.110366 0.145921
O O6 0.500000 0.000000 0.909424
#
# Coordination Sequence:
#
# PCOD8306325 Si02
#       3
#    16  16   8
#     4  11  22  39  67 100 133 173 218 267 327 391
#     4  10  22  43  68  97 132 173 218 271 331 387
#     4  10  23  42  66  94 132 174 210 266 331 394
#
# _framework density 22.505839999999999
#
# number of rings (size 3 to 8) (size 9 to 14) (size 15 to 20)
#    0.000    1.600    0.000    7.800    0.000   11.200 
#    0.000   16.000    0.000   96.000    0.000    0.000 
#    0.000    0.000    0.000    0.000    0.000    0.000 
#
# Total GULP energy -247858.421264 kJ/mol
# GULP energy per Si atom -12392.921063 kJ/mol
# Density = 2.245462 g / cm^3
# Si number density = 22.505840 Si / 1000 Ang^3
#
#
#
# Elastic Constant Matrix: (Units=GPa)
#
#
# Indices 1 2 3 4 5 6 
#
# 1 128.3424 60.8396 58.8734 0.0000 0.0000 0.0000
# 2 60.8396 128.3424 58.8734 0.0000 0.0000 0.0000
# 3 58.8734 58.8734 162.0417 0.0000 0.0000 0.0000
# 4 0.0000 0.0000 0.0000 31.9386 0.0000 0.0000
# 5 0.0000 0.0000 0.0000 0.0000 31.9386 0.0000
# 6 0.0000 0.0000 0.0000 0.0000 0.0000 13.8915
#
#
#
# Elastic Compliance Matrix: (Units=1/GPa)
#
#
# Indices 1 2 3 4 5 6 
#
# 1 0.010822 -0.003992 -0.002482 0.000000 0.000000 0.000000
# 2 -0.003992 0.010822 -0.002482 0.000000 0.000000 0.000000
# 3 -0.002482 -0.002482 0.007975 0.000000 0.000000 0.000000
# 4 0.000000 0.000000 0.000000 0.031310 0.000000 0.000000
# 5 0.000000 0.000000 0.000000 0.000000 0.031310 0.000000
# 6 0.000000 0.000000 0.000000 0.000000 0.000000 0.071986
#
#
# Mechanical properties :
#
#
# Convention : Reuss Voigt Hill
#
# Bulk Modulus (GPa) = 85.40545 86.21106 85.80825
# Shear Modulus (GPa) = 26.87606 31.56308 29.21957
#
# Velocity S-wave (km/s) = 3.45944 3.74898 3.60712
# Velocity P-wave (km/s) = 7.34762 7.55837 7.45374
#
# Compressibility (1/GPa) = 0.01170885
#
# Stress axis : x y z
#
# Youngs Moduli (GPa) = 92.40132 92.40132 125.39894
#
# Poissons Ratio (x) = 0.36885 0.31120
# Poissons Ratio (y) = 0.36885 0.31120
# Poissons Ratio (z) = 0.22931 0.22931
#
# Static dielectric constant tensor:
#      x y z
#    x 4.072690 0.000000 0.000000 
#    y 0.000000 4.072690 0.000000 
#    z 0.000000 0.000000 4.366410 
# 
# 
# High freq. dielectric constant tensor:
#      x y z
#    x 1.867000 0.000000 0.000000 
#    y 0.000000 1.867000 0.000000 
#    z 0.000000 0.000000 1.917530 
# 
# From -- ./inp_files/2483.got.cif
#   From: 2010.03.12/outbox.cif.g09.slc.cpg/sg98_2_cif.got.tgz:2483.got - 2010.04.08 21:04:41.
