data_PCOD8306312
_publ_section_title
;
Structure prediction by ZEFSAII (Michael W. Deem and Ramdas Pophale) SiO2 
 PCOD8306312
Probable space group: I 41 2 2
;
_chemical_formula_sum "Si O2"
_cell_formula_units_Z 56
_cell_length_a 13.665143
_cell_length_b 13.665143
_cell_length_c 14.239541
_cell_angle_alpha 90.000000
_cell_angle_beta 90.000000
_cell_angle_gamma 90.000000
_cell_volume 2659.036825
_symmetry_space_group_name_H-M "I 41 2 2"
_symmetry_group_IT_number 98
_symmetry_cell_setting 'tetragonal'
loop_
_space_group_symop_operation_xyz
x,y,z
-y,1/2+x,1/4+z
-x,-y,z
y,1/2-x,1/4+z
x,1/2-y,1/4-z
-x,1/2+y,1/4-z
y,x,-z
-y,-x,-z
1/2+x,1/2+y,1/2+z
1/2-y,x,3/4+z
1/2-x,1/2-y,1/2+z
1/2+y,-x,3/4+z
1/2+x,-y,3/4-z
1/2-x,y,3/4-z
1/2+y,1/2+x,1/2-z
1/2-y,1/2-x,1/2-z
loop_
_atom_site_type_symbol
_atom_site_label
_atom_site_fract_x
_atom_site_fract_y
_atom_site_fract_z
Si Si1 0.873870 0.250000 0.125000
Si Si2 0.420900 0.768702 0.421341
Si Si3 0.431260 0.220564 0.261619
Si Si4 0.482223 0.611724 0.148623
O O1 0.809289 0.348918 0.122923
O O2 0.940874 0.254668 0.218515
O O3 0.526036 0.774613 0.367966
O O4 0.361923 0.870453 0.418982
O O5 0.318505 0.181496 0.250000
O O6 0.443055 0.325882 0.213403
O O7 0.496958 0.138658 0.209214
O O8 0.500000 0.500000 0.172930
#
# Coordination Sequence:
#
# PCOD8306312 Si02
#       4
#     8  16  16  16
#     4  10  22  34  58  84 128 166 216 278 326 406
#     4  11  20  35  54  89 125 166 211 271 345 389
#     4  11  22  36  61  97 134 164 213 282 357 403
#     4  11  22  36  59  97 132 171 215 277 347 413
#
# _framework density 21.060257
#
# number of rings (size 3 to 8) (size 9 to 14) (size 15 to 20)
#    0.000    1.143    5.714    2.571    4.000    0.000 
#    0.000    0.000    0.000    6.857    0.000    0.000 
#    0.000    0.000    0.000    0.000    0.000    0.000 
#
# Total GULP energy -346973.949188 kJ/mol
# GULP energy per Si atom -12391.926757 kJ/mol
# Density = 2.101232 g / cm^3
# Si number density = 21.060257 Si / 1000 Ang^3
#
#
#
# Elastic Constant Matrix: (Units=GPa)
#
#
# Indices 1 2 3 4 5 6 
#
# 1 106.3869 26.9737 40.6484 0.0000 0.0000 0.0000
# 2 26.9737 106.3860 40.6482 0.0000 0.0000 0.0000
# 3 40.6484 40.6482 145.1026 0.0000 0.0000 0.0000
# 4 0.0000 0.0000 0.0000 25.7346 0.0000 0.0000
# 5 0.0000 0.0000 0.0000 0.0000 25.7350 0.0000
# 6 0.0000 0.0000 0.0000 0.0000 0.0000 24.3875
#
#
#
# Elastic Compliance Matrix: (Units=1/GPa)
#
#
# Indices 1 2 3 4 5 6 
#
# 1 0.010818 -0.001775 -0.002533 0.000000 0.000000 0.000000
# 2 -0.001775 0.010818 -0.002533 0.000000 0.000000 0.000000
# 3 -0.002533 -0.002533 0.008311 0.000000 0.000000 0.000000
# 4 0.000000 0.000000 0.000000 0.038858 0.000000 0.000000
# 5 0.000000 0.000000 0.000000 0.000000 0.038858 0.000000
# 6 0.000000 0.000000 0.000000 0.000000 0.000000 0.041005
#
#
# Mechanical properties :
#
#
# Convention : Reuss Voigt Hill
#
# Bulk Modulus (GPa) = 61.48678 63.82401 62.65539
# Shear Modulus (GPa) = 29.80269 31.81177 30.80723
#
# Velocity S-wave (km/s) = 3.76588 3.89075 3.82882
# Velocity P-wave (km/s) = 6.94033 7.11021 7.02578
#
# Compressibility (1/GPa) = 0.01626366
#
# Stress axis : x y z
#
# Youngs Moduli (GPa) = 92.44243 92.44173 120.32331
#
# Poissons Ratio (x) = 0.16407 0.30480
# Poissons Ratio (y) = 0.16407 0.30480
# Poissons Ratio (z) = 0.23417 0.23417
#
# Static dielectric constant tensor:
#      x y z
#    x 3.645630 0.000000 0.000000 
#    y 0.000000 3.645630 0.000000 
#    z 0.000000 0.000000 3.901230 
# 
# 
# High freq. dielectric constant tensor:
#      x y z
#    x 1.801460 0.000000 0.000000 
#    y 0.000000 1.801460 0.000000 
#    z 0.000000 0.000000 1.830680 
# 
# From -- ./inp_files/6148.got.cif
#   From: 2010.03.12/outbox.cif.g09.slc.cpg/sg98_4_cif.got.tgz:6148.got - 2010.04.08 21:04:41.
