data_PCOD8306522
_publ_section_title
;
Structure prediction by ZEFSAII (Michael W. Deem and Ramdas Pophale) SiO2 
 PCOD8306522
Probable space group: P 4 M M
;
_chemical_formula_sum "Si O2"
_cell_formula_units_Z 48
_cell_length_a 22.320655
_cell_length_b 22.320655
_cell_length_c 4.986401
_cell_angle_alpha 90.000000
_cell_angle_beta 90.000000
_cell_angle_gamma 90.000000
_cell_volume 2484.283018
_symmetry_space_group_name_H-M "P 4 M M"
_symmetry_group_IT_number 99
_symmetry_cell_setting 'tetragonal'
loop_
_space_group_symop_operation_xyz
x,y,z
-y,x,z
-x,-y,z
y,-x,z
-x,y,z
x,-y,z
-y,-x,z
y,x,z
loop_
_atom_site_type_symbol
_atom_site_label
_atom_site_fract_x
_atom_site_fract_y
_atom_site_fract_z
Si Si1 0.163727 0.836274 0.998900
Si Si2 0.872920 0.310231 0.602494
Si Si3 0.568994 0.431007 0.596127
Si Si4 0.782380 0.217621 0.498752
Si Si5 0.748244 0.069849 0.102427
Si Si6 0.567176 0.824944 0.491840
Si Si7 0.566857 0.746246 0.994000
Si Si8 0.625105 0.374896 0.096609
O O1 0.175191 0.824810 0.684375
O O2 0.206233 0.793768 0.184113
O O3 0.183476 0.904400 0.069182
O O4 0.803663 0.285677 0.567487
O O5 0.917316 0.276780 0.397950
O O6 0.874072 0.381934 0.558235
O O7 0.896977 0.296628 0.898257
O O8 0.583755 0.500000 0.543327
O O9 0.609136 0.390865 0.401370
O O10 0.584724 0.415277 0.901260
O O11 0.750607 0.000000 0.044874
O O12 0.500000 0.853199 0.519182
O O13 0.578351 0.802005 0.191071
O O14 0.573685 0.768772 0.691099
O O15 0.500000 0.720157 0.041703
O O16 0.614954 0.695033 0.047213
#
# Coordination Sequence:
#
# PCOD8306522 Si02
#       8
#     4   8   4   4   8   8   8   4
#     4   8  16  30  47  75 108 142 170 202 248 293
#     4  10  19  33  53  78 105 137 177 219 264 312
#     4  11  22  34  49  68  91 126 168 208 261 330
#     4   8  16  28  47  72 101 129 166 213 255 300
#     4  10  19  33  55  82 112 143 177 217 257 300
#     4  10  21  37  54  72  99 135 171 210 265 330
#     4  10  21  35  50  70  94 124 162 203 258 325
#     4  12  22  35  53  72  96 124 160 218 274 319
#
# _framework density 19.321472
#
# number of rings (size 3 to 8) (size 9 to 14) (size 15 to 20)
#    0.000    2.083    0.000    4.000    0.000    3.333 
#    0.000    1.667    0.000    3.250    0.000    0.000 
#    0.000    8.000    0.000    0.000    0.000    1.333 
#
# Total GULP energy -595019.975354 kJ/mol
# GULP energy per Si atom -12396.249487 kJ/mol
# Density = 1.927750 g / cm^3
# Si number density = 19.321472 Si / 1000 Ang^3
#
#
#
# Elastic Constant Matrix: (Units=GPa)
#
#
# Indices 1 2 3 4 5 6 
#
# 1 74.9721 42.9060 1.9261 0.0000 0.0000 0.0013
# 2 42.9060 74.9721 1.9261 0.0000 0.0000 -0.0013
# 3 1.9261 1.9261 69.4182 0.0000 0.0000 0.0000
# 4 0.0000 0.0000 0.0000 20.7325 0.0000 0.0000
# 5 0.0000 0.0000 0.0000 0.0000 20.7325 0.0000
# 6 0.0013 -0.0013 0.0000 0.0000 0.0000 17.6803
#
#
#
# Elastic Compliance Matrix: (Units=1/GPa)
#
#
# Indices 1 2 3 4 5 6 
#
# 1 0.019838 -0.011347 -0.000236 0.000000 0.000000 -0.000002
# 2 -0.011347 0.019838 -0.000236 0.000000 0.000000 0.000002
# 3 -0.000236 -0.000236 0.014419 0.000000 0.000000 0.000000
# 4 0.000000 0.000000 0.000000 0.048233 0.000000 0.000000
# 5 0.000000 0.000000 0.000000 0.000000 0.048233 0.000000
# 6 -0.000002 0.000002 0.000000 0.000000 0.000000 0.056560
#
#
# Mechanical properties :
#
#
# Convention : Reuss Voigt Hill
#
# Bulk Modulus (GPa) = 32.83187 34.76433 33.79810
# Shear Modulus (GPa) = 20.75448 23.33600 22.04524
#
# Velocity S-wave (km/s) = 3.28100 3.47908 3.38149
# Velocity P-wave (km/s) = 5.60202 5.84554 5.72507
#
# Compressibility (1/GPa) = 0.03045821
#
# Stress axis : x y z
#
# Youngs Moduli (GPa) = 50.40750 50.40750 69.35520
#
# Poissons Ratio (x) = 0.57199 0.01634
# Poissons Ratio (y) = 0.57199 0.01634
# Poissons Ratio (z) = 0.01188 0.01188
#
# Static dielectric constant tensor:
#      x y z
#    x 3.278980 0.000000 0.000000 
#    y 0.000000 3.278980 0.000000 
#    z 0.000000 0.000000 3.675250 
# 
# 
# High freq. dielectric constant tensor:
#      x y z
#    x 1.719460 0.000000 0.000000 
#    y 0.000000 1.719460 0.000000 
#    z 0.000000 0.000000 1.777800 
# 
# From -- ./inp_files/394.got.cif
#   From: 2010.03.12/outbox.cif.g09.slc.cpg/sg99_cif.got.tgz:394.got - 2010.04.08 21:11:30.
