data_PCOD8306647
_publ_section_title
;
Structure prediction by ZEFSAII (Michael W. Deem and Ramdas Pophale) SiO2 
 PCOD8306647
Probable space group: P 4 B M
;
_chemical_formula_sum "Si O2"
_cell_formula_units_Z 48
_cell_length_a 16.392099
_cell_length_b 16.392099
_cell_length_c 9.448750
_cell_angle_alpha 90.000000
_cell_angle_beta 90.000000
_cell_angle_gamma 90.000000
_cell_volume 2538.887720
_symmetry_space_group_name_H-M "P 4 B M"
_symmetry_group_IT_number 100
_symmetry_cell_setting 'tetragonal'
loop_
_space_group_symop_operation_xyz
x,y,z
-y,x,z
-x,-y,z
y,-x,z
1/2-x,1/2+y,z
1/2+x,1/2-y,z
1/2-y,1/2-x,z
1/2+y,1/2+x,z
loop_
_atom_site_type_symbol
_atom_site_label
_atom_site_fract_x
_atom_site_fract_y
_atom_site_fract_z
Si Si1 0.368029 0.995154 0.763690
Si Si2 0.424798 0.390539 0.758873
Si Si3 0.104061 0.739120 0.257163
Si Si4 0.739119 0.895940 0.586398
Si Si5 0.609461 0.424798 0.084688
Si Si6 0.995154 0.631972 0.079873
O O1 0.408310 0.908310 0.718902
O O2 0.437932 0.062069 0.764022
O O3 0.298456 0.021353 0.653668
O O4 0.330148 0.988279 0.921781
O O5 0.520944 0.388627 0.724752
O O6 0.378327 0.325704 0.659985
O O7 0.409234 0.367568 0.921781
O O8 0.181586 0.681586 0.228795
O O9 0.087799 0.751975 0.421780
O O10 0.121674 0.825705 0.183577
O O11 0.021354 0.701546 0.189893
O O12 0.681585 0.818416 0.614766
O O13 0.611373 0.520944 0.118808
O O14 0.908311 0.591690 0.124661
O O15 0.062070 0.562070 0.079544
#
# Coordination Sequence:
#
# PCOD8306647 Si02
#       6
#     8   8   8   8   8   8
#     4   8  14  26  45  68  95 131 173 210 245 291
#     4   9  19  37  59  79  98 126 170 218 257 298
#     4  10  20  32  49  77 110 139 167 204 253 307
#     4  10  20  32  49  77 110 139 167 204 253 307
#     4   9  19  37  59  79  98 126 170 218 257 298
#     4   8  14  26  45  68  95 131 173 210 245 291
#
# _framework density 18.905916999999999
#
# number of rings (size 3 to 8) (size 9 to 14) (size 15 to 20)
#    0.000    3.000    0.000    3.000    0.000    4.000 
#    0.000    6.667    0.000    2.000    0.000    0.000 
#    0.000    0.000    0.000    0.000    0.000    0.000 
#
# Total GULP energy -595034.531024 kJ/mol
# GULP energy per Si atom -12396.552730 kJ/mol
# Density = 1.886289 g / cm^3
# Si number density = 18.905917 Si / 1000 Ang^3
#
#
#
# Elastic Constant Matrix: (Units=GPa)
#
#
# Indices 1 2 3 4 5 6 
#
# 1 66.1184 17.7195 47.2291 0.0000 0.0000 0.0003
# 2 17.7195 66.1184 47.2291 0.0000 0.0000 -0.0003
# 3 47.2291 47.2291 115.4579 0.0000 0.0000 0.0000
# 4 0.0000 0.0000 0.0000 24.0265 0.0000 0.0000
# 5 0.0000 0.0000 0.0000 0.0000 24.0265 0.0000
# 6 0.0003 -0.0003 0.0000 0.0000 0.0000 12.6045
#
#
#
# Elastic Compliance Matrix: (Units=1/GPa)
#
#
# Indices 1 2 3 4 5 6 
#
# 1 0.021393 0.000731 -0.009050 0.000000 0.000000 0.000000
# 2 0.000731 0.021393 -0.009050 0.000000 0.000000 0.000000
# 3 -0.009050 -0.009050 0.016065 0.000000 0.000000 0.000000
# 4 0.000000 0.000000 0.000000 0.041621 0.000000 0.000000
# 5 0.000000 0.000000 0.000000 0.000000 0.041621 0.000000
# 6 0.000000 0.000000 0.000000 0.000000 0.000000 0.079337
#
#
# Mechanical properties :
#
#
# Convention : Reuss Voigt Hill
#
# Bulk Modulus (GPa) = 41.47083 52.45003 46.96043
# Shear Modulus (GPa) = 18.92469 21.16598 20.04533
#
# Velocity S-wave (km/s) = 3.16728 3.34959 3.25971
# Velocity P-wave (km/s) = 5.94630 6.53931 6.24984
#
# Compressibility (1/GPa) = 0.02411333
#
# Stress axis : x y z
#
# Youngs Moduli (GPa) = 46.74426 46.74426 62.24605
#
# Poissons Ratio (x) = -0.03419 0.56334
# Poissons Ratio (y) = -0.03419 0.56334
# Poissons Ratio (z) = 0.42304 0.42304
#
# Static dielectric constant tensor:
#      x y z
#    x 3.355000 0.000000 0.000000 
#    y 0.000000 3.355000 0.000000 
#    z 0.000000 0.000000 3.423130 
# 
# 
# High freq. dielectric constant tensor:
#      x y z
#    x 1.718590 0.000000 0.000000 
#    y 0.000000 1.718590 0.000000 
#    z 0.000000 0.000000 1.728760 
# 
# From -- ./inp_files/886.got.cif
#   From: 2010.03.12/outbox.cif.g09.slc.cpg/sg100_cif.got.tgz:886.got - 2010.04.14 01:37:57.
