data_PCOD8306304
_publ_section_title
;
Structure prediction by ZEFSAII (Michael W. Deem and Ramdas Pophale) SiO2 
 PCOD8306304
Probable space group: I 41 2 2
;
_chemical_formula_sum "Si O2"
_cell_formula_units_Z 48
_cell_length_a 9.460211
_cell_length_b 9.460211
_cell_length_c 29.585372
_cell_angle_alpha 90.000000
_cell_angle_beta 90.000000
_cell_angle_gamma 90.000000
_cell_volume 2647.760387
_symmetry_space_group_name_H-M "I 41 2 2"
_symmetry_group_IT_number 98
_symmetry_cell_setting 'tetragonal'
loop_
_space_group_symop_operation_xyz
x,y,z
-y,1/2+x,1/4+z
-x,-y,z
y,1/2-x,1/4+z
x,1/2-y,1/4-z
-x,1/2+y,1/4-z
y,x,-z
-y,-x,-z
1/2+x,1/2+y,1/2+z
1/2-y,x,3/4+z
1/2-x,1/2-y,1/2+z
1/2+y,-x,3/4+z
1/2+x,-y,3/4-z
1/2-x,y,3/4-z
1/2+y,1/2+x,1/2-z
1/2-y,1/2-x,1/2-z
loop_
_atom_site_type_symbol
_atom_site_label
_atom_site_fract_x
_atom_site_fract_y
_atom_site_fract_z
Si Si1 0.312926 0.143513 0.036333
Si Si2 0.845208 0.386469 0.996980
Si Si3 0.750000 0.832478 0.875000
Si Si4 0.500000 0.000000 0.580067
O O1 0.470922 0.201595 0.028547
O O2 0.267503 0.191679 0.085733
O O3 0.311904 0.973538 0.030123
O O4 0.205002 0.205002 0.000000
O O5 0.712322 0.287679 0.000000
O O6 0.885894 0.423831 0.048283
O O7 0.881065 0.929472 0.860855
#
# Coordination Sequence:
#
# PCOD8306304 Si02
#       4
#    16  16   8   8
#     4  10  21  42  61  89 126 161 203 262 305 368
#     4  10  22  44  62  89 122 166 214 252 317 366
#     4  12  22  42  64  94 128 164 208 260 316 362
#     4  10  24  40  63  96 122 160 219 254 304 384
#
# _framework density 18.128529
#
# number of rings (size 3 to 8) (size 9 to 14) (size 15 to 20)
#    0.000    2.000    6.667    0.000    4.667    1.333 
#   12.000    0.000    0.000    0.000    0.000    0.000 
#    0.000    0.000    0.000    0.000    0.000    0.000 
#
# Total GULP energy -297569.526387 kJ/mol
# GULP energy per Si atom -12398.730266 kJ/mol
# Density = 1.808727 g / cm^3
# Si number density = 18.128529 Si / 1000 Ang^3
#
#
#
# Elastic Constant Matrix: (Units=GPa)
#
#
# Indices 1 2 3 4 5 6 
#
# 1 90.1378 70.2461 51.2624 0.0000 0.0000 0.0000
# 2 70.2461 90.1316 51.2616 0.0000 0.0000 0.0000
# 3 51.2624 51.2616 140.0612 0.0000 0.0000 0.0000
# 4 0.0000 0.0000 0.0000 27.6591 0.0000 0.0000
# 5 0.0000 0.0000 0.0000 0.0000 27.6678 0.0000
# 6 0.0000 0.0000 0.0000 0.0000 0.0000 46.9710
#
#
#
# Elastic Compliance Matrix: (Units=1/GPa)
#
#
# Indices 1 2 3 4 5 6 
#
# 1 0.029209 -0.021070 -0.002979 0.000000 0.000000 0.000000
# 2 -0.021070 0.029211 -0.002979 0.000000 0.000000 0.000000
# 3 -0.002979 -0.002979 0.009320 0.000000 0.000000 0.000000
# 4 0.000000 0.000000 0.000000 0.036154 0.000000 0.000000
# 5 0.000000 0.000000 0.000000 0.000000 0.036143 0.000000
# 6 0.000000 0.000000 0.000000 0.000000 0.000000 0.021290
#
#
# Mechanical properties :
#
#
# Convention : Reuss Voigt Hill
#
# Bulk Modulus (GPa) = 73.08201 73.98564 73.53383
# Shear Modulus (GPa) = 22.73295 30.29694 26.51494
#
# Velocity S-wave (km/s) = 3.54501 4.09250 3.82856
# Velocity P-wave (km/s) = 7.56022 7.95184 7.75850
#
# Compressibility (1/GPa) = 0.01368326
#
# Stress axis : x y z
#
# Youngs Moduli (GPa) = 34.23646 34.23374 107.29176
#
# Poissons Ratio (x) = 0.72131 0.31960
# Poissons Ratio (y) = 0.72137 0.31966
# Poissons Ratio (z) = 0.10198 0.10199
#
# Static dielectric constant tensor:
#      x y z
#    x 3.425740 0.000000 0.000000 
#    y 0.000000 3.425750 0.000000 
#    z 0.000000 0.000000 3.559700 
# 
# 
# High freq. dielectric constant tensor:
#      x y z
#    x 1.707590 0.000000 0.000000 
#    y 0.000000 1.707590 0.000000 
#    z 0.000000 0.000000 1.704170 
# 
# From -- ./inp_files/11326.got.cif
#   From: 2010.03.12/outbox.cif.g09.slc.cpg/sg98_6_cif.got.tgz:11326.got - 2010.04.08 21:04:41.
