data_PCOD8306852
_publ_section_title
;
Structure prediction by ZEFSAII (Michael W. Deem and Ramdas Pophale) SiO2 
 PCOD8306852
Probable space group: P 42 N M
;
_chemical_formula_sum "Si O2"
_cell_formula_units_Z 64
_cell_length_a 12.030965
_cell_length_b 12.030965
_cell_length_c 23.155955
_cell_angle_alpha 90.000000
_cell_angle_beta 90.000000
_cell_angle_gamma 90.000000
_cell_volume 3351.688302
_symmetry_space_group_name_H-M "P 42 N M"
_symmetry_group_IT_number 102
_symmetry_cell_setting 'tetragonal'
loop_
_space_group_symop_operation_xyz
x,y,z
1/2-y,1/2+x,1/2+z
-x,-y,z
1/2+y,1/2-x,1/2+z
1/2-x,1/2+y,1/2+z
1/2+x,1/2-y,1/2+z
-y,-x,z
y,x,z
loop_
_atom_site_type_symbol
_atom_site_label
_atom_site_fract_x
_atom_site_fract_y
_atom_site_fract_z
Si Si1 0.817936 0.639351 0.219520
Si Si2 0.062139 0.612251 0.597584
Si Si3 0.735569 0.074601 0.420324
Si Si4 0.751773 0.430529 0.280925
Si Si5 0.126207 0.482792 0.806244
Si Si6 0.406817 0.778721 0.012616
Si Si7 0.673740 0.506307 0.396653
Si Si8 0.662082 0.972155 0.986845
O O1 0.749965 0.749965 0.229462
O O2 0.843188 0.627803 0.152060
O O3 0.744717 0.532479 0.236845
O O4 0.926113 0.654860 0.258522
O O5 0.156289 0.583531 0.549702
O O6 0.000000 0.500000 0.616037
O O7 0.974947 0.704802 0.572692
O O8 0.819035 0.180966 0.416250
O O9 0.612507 0.106924 0.441577
O O10 0.716662 0.016949 0.357978
O O11 0.784815 0.983175 0.465143
O O12 0.645965 0.354036 0.269178
O O13 0.761717 0.478752 0.346504
O O14 0.865334 0.362359 0.272437
O O15 0.000000 0.500000 0.828744
O O16 0.293711 0.706290 0.022743
O O17 0.390748 0.904457 0.988259
O O18 0.569946 0.430054 0.384796
O O19 0.634436 0.634436 0.390373
O O20 0.714580 0.487811 0.462170
#
# Coordination Sequence:
#
# PCOD8306852 Si02
#       8
#     8   8   8   8   8   8   8   8
#     4  11  24  39  58  87 117 150 196 246 295 343
#     4   9  20  40  60  80 110 150 201 244 281 340
#     4  11  21  35  57  86 120 157 197 234 283 354
#     4  10  20  36  59  86 117 152 191 237 292 352
#     4  10  20  36  58  83 114 152 198 240 282 338
#     4  10  22  37  58  89 120 151 190 241 298 351
#     4  10  19  30  50  86 124 150 180 233 299 354
#     4  10  19  36  61  86 112 150 194 240 283 338
#
# _framework density 19.094854000000002
#
# number of rings (size 3 to 8) (size 9 to 14) (size 15 to 20)
#    0.000    1.875    1.250    4.500    1.750    4.500 
#    0.000    0.000    0.000    3.375    0.000    0.000 
#    0.000    0.000    0.000    0.000    0.000    0.000 
#
# Total GULP energy -792939.266447 kJ/mol
# GULP energy per Si atom -12389.676038 kJ/mol
# Density = 1.905139 g / cm^3
# Si number density = 19.094854 Si / 1000 Ang^3
#
#
#
# Elastic Constant Matrix: (Units=GPa)
#
#
# Indices 1 2 3 4 5 6 
#
# 1 93.4308 51.2354 56.2117 0.0000 0.0000 0.0007
# 2 51.2354 93.4308 56.2117 0.0000 0.0000 -0.0007
# 3 56.2117 56.2117 123.0288 0.0000 0.0000 0.0000
# 4 0.0000 0.0000 0.0000 17.1901 0.0000 0.0000
# 5 0.0000 0.0000 0.0000 0.0000 17.1901 0.0000
# 6 0.0007 -0.0007 0.0000 0.0000 0.0000 23.5147
#
#
#
# Elastic Compliance Matrix: (Units=1/GPa)
#
#
# Indices 1 2 3 4 5 6 
#
# 1 0.017209 -0.006491 -0.004897 0.000000 0.000000 -0.000001
# 2 -0.006491 0.017209 -0.004897 0.000000 0.000000 0.000001
# 3 -0.004897 -0.004897 0.012603 0.000000 0.000000 0.000000
# 4 0.000000 0.000000 0.000000 0.058173 0.000000 0.000000
# 5 0.000000 0.000000 0.000000 0.000000 0.058173 0.000000
# 6 -0.000001 0.000001 0.000000 0.000000 0.000000 0.042527
#
#
# Mechanical properties :
#
#
# Convention : Reuss Voigt Hill
#
# Bulk Modulus (GPa) = 69.19946 70.80090 70.00018
# Shear Modulus (GPa) = 20.55247 21.32773 20.94010
#
# Velocity S-wave (km/s) = 3.28431 3.34569 3.31514
# Velocity P-wave (km/s) = 7.12045 7.21691 7.16884
#
# Compressibility (1/GPa) = 0.01445098
#
# Stress axis : x y z
#
# Youngs Moduli (GPa) = 58.11013 58.11013 79.34535
#
# Poissons Ratio (x) = 0.37717 0.38856
# Poissons Ratio (y) = 0.37717 0.38856
# Poissons Ratio (z) = 0.28457 0.28457
#
# Static dielectric constant tensor:
#      x y z
#    x 3.706360 0.000000 0.000000 
#    y 0.000000 3.706360 0.000000 
#    z 0.000000 0.000000 3.462090 
# 
# 
# High freq. dielectric constant tensor:
#      x y z
#    x 1.734260 0.000000 0.000000 
#    y 0.000000 1.734260 0.000000 
#    z 0.000000 0.000000 1.736030 
# 
# From -- ./inp_files/3398.got.cif
#   From: 2010.03.12/outbox.cif.g09.slc.cpg/sg102_2_cif.got.tgz:3398.got - 2010.04.14 01:40:42.
