data_PCOD8306748
_publ_section_title
;
Structure prediction by ZEFSAII (Michael W. Deem and Ramdas Pophale) SiO2 
 PCOD8306748
Probable space group: P 42 C M
;
_chemical_formula_sum "Si O2"
_cell_formula_units_Z 48
_cell_length_a 15.526028
_cell_length_b 15.526028
_cell_length_c 11.363815
_cell_angle_alpha 90.000000
_cell_angle_beta 90.000000
_cell_angle_gamma 90.000000
_cell_volume 2739.333351
_symmetry_space_group_name_H-M "P 42 C M"
_symmetry_group_IT_number 101
_symmetry_cell_setting 'tetragonal'
loop_
_space_group_symop_operation_xyz
x,y,z
-y,x,1/2+z
-x,-y,z
y,-x,1/2+z
-x,y,1/2+z
x,-y,1/2+z
-y,-x,z
y,x,z
loop_
_atom_site_type_symbol
_atom_site_label
_atom_site_fract_x
_atom_site_fract_y
_atom_site_fract_z
Si Si1 0.668394 0.196343 0.912570
Si Si2 0.049565 0.334498 0.093511
Si Si3 0.245058 0.888910 0.374343
Si Si4 0.140377 0.355739 0.656592
Si Si5 0.069284 0.204175 0.296610
Si Si6 0.526212 0.098652 0.769070
O O1 0.711565 0.288436 0.867031
O O2 0.738553 0.122742 0.888315
O O3 0.577651 0.161770 0.859038
O O4 0.654777 0.210248 0.053149
O O5 0.066491 0.249226 0.169709
O O6 0.093761 0.416340 0.152469
O O7 0.949159 0.354789 0.085225
O O8 0.090623 0.322757 0.964360
O O9 0.181925 0.818076 0.430121
O O10 0.279722 0.853213 0.250893
O O11 0.190961 0.975198 0.350704
O O12 0.151624 0.442501 0.731731
O O13 0.110439 0.110439 0.280340
O O14 0.500000 0.000000 0.814602
#
# Coordination Sequence:
#
# PCOD8306748 Si02
#       6
#     8   8   8   8   8   8
#     4  10  19  34  54  77 110 145 177 219 279 334
#     4   9  18  33  48  72  97 134 176 224 275 316
#     4  11  21  32  48  72 104 137 180 229 272 317
#     4  10  20  32  51  74 104 134 176 220 274 324
#     4   9  18  33  49  65  95 142 185 217 257 313
#     4   9  20  32  55  79 104 140 183 225 267 335
#
# _framework density 17.522513
#
# number of rings (size 3 to 8) (size 9 to 14) (size 15 to 20)
#    0.000    2.333    1.667    2.000    2.333    1.667 
#    0.000    0.000    0.000    2.000    0.000    0.000 
#    0.000    5.333    0.000    0.000    0.000    0.000 
#
# Total GULP energy -594687.104537 kJ/mol
# GULP energy per Si atom -12389.314678 kJ/mol
# Density = 1.748263 g / cm^3
# Si number density = 17.522513 Si / 1000 Ang^3
#
#
#
# Elastic Constant Matrix: (Units=GPa)
#
#
# Indices 1 2 3 4 5 6 
#
# 1 64.6708 45.0869 20.0669 0.0000 0.0000 0.0001
# 2 45.0869 64.6708 20.0669 0.0000 0.0000 -0.0001
# 3 20.0669 20.0669 72.9602 0.0000 0.0000 0.0000
# 4 0.0000 0.0000 0.0000 17.7752 0.0000 0.0000
# 5 0.0000 0.0000 0.0000 0.0000 17.7752 0.0000
# 6 0.0001 -0.0001 0.0000 0.0000 0.0000 27.6571
#
#
#
# Elastic Compliance Matrix: (Units=1/GPa)
#
#
# Indices 1 2 3 4 5 6 
#
# 1 0.030596 -0.020466 -0.002786 0.000000 0.000000 0.000000
# 2 -0.020466 0.030596 -0.002786 0.000000 0.000000 0.000000
# 3 -0.002786 -0.002786 0.015239 0.000000 0.000000 0.000000
# 4 0.000000 0.000000 0.000000 0.056258 0.000000 0.000000
# 5 0.000000 0.000000 0.000000 0.000000 0.056258 0.000000
# 6 0.000000 0.000000 0.000000 0.000000 0.000000 0.036157
#
#
# Mechanical properties :
#
#
# Convention : Reuss Voigt Hill
#
# Bulk Modulus (GPa) = 41.06130 41.41591 41.23861
# Shear Modulus (GPa) = 17.52550 20.44692 18.98621
#
# Velocity S-wave (km/s) = 3.16598 3.41969 3.29528
# Velocity P-wave (km/s) = 6.07033 6.26734 6.16962
#
# Compressibility (1/GPa) = 0.02435383
#
# Stress axis : x y z
#
# Youngs Moduli (GPa) = 32.68404 32.68404 65.62256
#
# Poissons Ratio (x) = 0.66892 0.18283
# Poissons Ratio (y) = 0.66892 0.18283
# Poissons Ratio (z) = 0.09106 0.09106
#
# Static dielectric constant tensor:
#      x y z
#    x 3.148150 0.000000 0.000000 
#    y 0.000000 3.148150 0.000000 
#    z 0.000000 0.000000 3.266270 
# 
# 
# High freq. dielectric constant tensor:
#      x y z
#    x 1.649980 0.000000 0.000000 
#    y 0.000000 1.649980 0.000000 
#    z 0.000000 0.000000 1.683840 
# 
# From -- ./inp_files/677.got.cif
#   From: 2010.03.12/outbox.cif.g09.slc.cpg/sg101_1_cif.got.tgz:677.got - 2010.04.14 01:38:52.
