data_PCOD8306205
_publ_section_title
;
Structure prediction by ZEFSAII (Michael W. Deem and Ramdas Pophale) SiO2 
 PCOD8306205
Probable space group: I 41 2 2
;
_chemical_formula_sum "Si O2"
_cell_formula_units_Z 80
_cell_length_a 29.280711
_cell_length_b 29.280711
_cell_length_c 5.212127
_cell_angle_alpha 90.000000
_cell_angle_beta 90.000000
_cell_angle_gamma 90.000000
_cell_volume 4468.669396
_symmetry_space_group_name_H-M "I 41 2 2"
_symmetry_group_IT_number 98
_symmetry_cell_setting 'tetragonal'
loop_
_space_group_symop_operation_xyz
x,y,z
-y,1/2+x,1/4+z
-x,-y,z
y,1/2-x,1/4+z
x,1/2-y,1/4-z
-x,1/2+y,1/4-z
y,x,-z
-y,-x,-z
1/2+x,1/2+y,1/2+z
1/2-y,x,3/4+z
1/2-x,1/2-y,1/2+z
1/2+y,-x,3/4+z
1/2+x,-y,3/4-z
1/2-x,y,3/4-z
1/2+y,1/2+x,1/2-z
1/2-y,1/2-x,1/2-z
loop_
_atom_site_type_symbol
_atom_site_label
_atom_site_fract_x
_atom_site_fract_y
_atom_site_fract_z
Si Si1 0.698578 0.530374 0.876814
Si Si2 0.632206 0.108230 0.996722
Si Si3 0.564679 0.607299 0.248054
Si Si4 0.967267 0.434963 0.497855
Si Si5 0.801271 0.026787 0.874790
O O1 0.750000 0.550642 0.875000
O O2 0.661731 0.569776 0.806951
O O3 0.690901 0.490645 0.664280
O O4 0.690780 0.513265 0.167441
O O5 0.640550 0.140550 0.750000
O O6 0.578142 0.095909 0.998740
O O7 0.664023 0.064717 0.973295
O O8 0.639361 0.139361 0.250000
O O9 0.592925 0.592925 0.500000
O O10 0.510882 0.597577 0.275660
O O11 0.580948 0.580948 0.000000
O O12 0.967831 0.467831 0.250000
O O13 0.967202 0.467202 0.750000
O O14 0.750000 0.046718 0.875000
#
# Coordination Sequence:
#
# PCOD8306205 Si02
#       5
#    16  16  16  16  16
#     4  10  20  36  55  72  95 132 173 215 262 301
#     4  10  18  29  47  68  96 130 164 206 256 302
#     4  12  24  35  49  72 103 134 171 210 244 296
#     4  10  19  31  45  62  94 135 172 201 235 282
#     4  10  19  33  54  75  96 129 177 226 262 297
#
# _framework density 17.902421
#
# number of rings (size 3 to 8) (size 9 to 14) (size 15 to 20)
#    0.000    1.600    0.000    8.400    0.000    2.400 
#    0.000    0.000    0.000    0.000    0.000    0.000 
#    0.000    3.200    0.000    0.000    0.000    0.000 
#
# Total GULP energy -495557.576707 kJ/mol
# GULP energy per Si atom -12388.939418 kJ/mol
# Density = 1.786167 g / cm^3
# Si number density = 17.902421 Si / 1000 Ang^3
#
#
#
# Elastic Constant Matrix: (Units=GPa)
#
#
# Indices 1 2 3 4 5 6 
#
# 1 140.7040 -34.9514 19.8009 0.0000 0.0000 0.0000
# 2 -34.9514 140.7040 19.8009 0.0000 0.0000 0.0000
# 3 19.8009 19.8009 147.5008 0.0000 0.0000 0.0000
# 4 0.0000 0.0000 0.0000 17.9147 0.0000 0.0000
# 5 0.0000 0.0000 0.0000 0.0000 17.9147 0.0000
# 6 0.0000 0.0000 0.0000 0.0000 0.0000 11.7990
#
#
#
# Elastic Compliance Matrix: (Units=1/GPa)
#
#
# Indices 1 2 3 4 5 6 
#
# 1 0.007825 0.002132 -0.001337 0.000000 0.000000 0.000000
# 2 0.002132 0.007825 -0.001337 0.000000 0.000000 0.000000
# 3 -0.001337 -0.001337 0.007138 0.000000 0.000000 0.000000
# 4 0.000000 0.000000 0.000000 0.055820 0.000000 0.000000
# 5 0.000000 0.000000 0.000000 0.000000 0.055820 0.000000
# 6 0.000000 0.000000 0.000000 0.000000 0.000000 0.084753
#
#
# Mechanical properties :
#
#
# Convention : Reuss Voigt Hill
#
# Bulk Modulus (GPa) = 46.07187 48.68994 47.38091
# Shear Modulus (GPa) = 21.97810 37.80956 29.89383
#
# Velocity S-wave (km/s) = 3.50760 4.60061 4.09078
# Velocity P-wave (km/s) = 6.49578 7.44831 6.98829
#
# Compressibility (1/GPa) = 0.02170522
#
# Stress axis : x y z
#
# Youngs Moduli (GPa) = 127.79941 127.79941 140.08584
#
# Poissons Ratio (x) = -0.27244 0.18724
# Poissons Ratio (y) = -0.27244 0.18724
# Poissons Ratio (z) = 0.17082 0.17082
#
# Static dielectric constant tensor:
#      x y z
#    x 3.101340 0.000000 0.000000 
#    y 0.000000 3.101340 0.000000 
#    z 0.000000 0.000000 5.777290 
# 
# 
# High freq. dielectric constant tensor:
#      x y z
#    x 1.652810 0.000000 0.000000 
#    y 0.000000 1.652810 0.000000 
#    z 0.000000 0.000000 1.737140 
# 
# From -- ./inp_files/1870.got.cif
#   From: 2010.03.12/outbox.cif.g09.slc.cpg/sg98_1_cif.got.tgz:1870.got - 2010.04.08 21:04:41.
