data_PCOD8306374
_publ_section_title
;
Structure prediction by ZEFSAII (Michael W. Deem and Ramdas Pophale) SiO2 
 PCOD8306374
Probable space group: I 41 2 2
;
_chemical_formula_sum "Si O2"
_cell_formula_units_Z 64
_cell_length_a 18.353110
_cell_length_b 18.353110
_cell_length_c 10.140506
_cell_angle_alpha 90.000000
_cell_angle_beta 90.000000
_cell_angle_gamma 90.000000
_cell_volume 3415.694037
_symmetry_space_group_name_H-M "I 41 2 2"
_symmetry_group_IT_number 98
_symmetry_cell_setting 'tetragonal'
loop_
_space_group_symop_operation_xyz
x,y,z
-y,1/2+x,1/4+z
-x,-y,z
y,1/2-x,1/4+z
x,1/2-y,1/4-z
-x,1/2+y,1/4-z
y,x,-z
-y,-x,-z
1/2+x,1/2+y,1/2+z
1/2-y,x,3/4+z
1/2-x,1/2-y,1/2+z
1/2+y,-x,3/4+z
1/2+x,-y,3/4-z
1/2-x,y,3/4-z
1/2+y,1/2+x,1/2-z
1/2-y,1/2-x,1/2-z
loop_
_atom_site_type_symbol
_atom_site_label
_atom_site_fract_x
_atom_site_fract_y
_atom_site_fract_z
Si Si1 0.025395 0.704264 0.496499
Si Si2 0.443732 0.434816 0.152745
Si Si3 0.829655 0.148893 0.856332
Si Si4 0.508525 0.795433 0.502416
O O1 0.013142 0.750000 0.625000
O O2 0.112572 0.696131 0.475571
O O3 0.984468 0.629315 0.521871
O O4 0.987155 0.744692 0.375441
O O5 0.500000 0.500000 0.163000
O O6 0.369328 0.447040 0.232499
O O7 0.421950 0.421950 0.000000
O O8 0.750000 0.187917 0.875000
O O9 0.816456 0.074753 0.778774
O O10 0.865401 0.134600 0.000000
O O11 0.541726 0.750000 0.625000
#
# Coordination Sequence:
#
# PCOD8306374 Si02
#       4
#    16  16  16  16
#     4  12  24  41  67  94 129 177 216 270 336 379
#     4  11  23  40  68  97 128 172 228 277 317 388
#     4  11  22  40  58  90 137 172 210 261 313 395
#     4  11  23  43  64  95 136 164 220 268 331 392
#
# _framework density 18.737041999999999
#
# number of rings (size 3 to 8) (size 9 to 14) (size 15 to 20)
#    0.000    0.750   10.000    0.000    0.000    3.000 
#    0.000    2.500    0.000    4.500    0.000    0.000 
#    0.000    0.000    0.000    0.000    0.000    0.000 
#
# Total GULP energy -396688.702164 kJ/mol
# GULP energy per Si atom -12396.521943 kJ/mol
# Density = 1.869440 g / cm^3
# Si number density = 18.737042 Si / 1000 Ang^3
#
#
#
# Elastic Constant Matrix: (Units=GPa)
#
#
# Indices 1 2 3 4 5 6 
#
# 1 97.2218 45.3815 45.3368 0.0000 0.0000 0.0000
# 2 45.3815 97.2221 45.3370 0.0000 0.0000 0.0000
# 3 45.3368 45.3370 139.7925 0.0000 0.0000 0.0000
# 4 0.0000 0.0000 0.0000 21.3617 0.0000 0.0000
# 5 0.0000 0.0000 0.0000 0.0000 21.3635 0.0000
# 6 0.0000 0.0000 0.0000 0.0000 0.0000 30.9412
#
#
#
# Elastic Compliance Matrix: (Units=1/GPa)
#
#
# Indices 1 2 3 4 5 6 
#
# 1 0.014062 -0.005228 -0.002865 0.000000 0.000000 0.000000
# 2 -0.005228 0.014062 -0.002865 0.000000 0.000000 0.000000
# 3 -0.002865 -0.002865 0.009012 0.000000 0.000000 0.000000
# 4 0.000000 0.000000 0.000000 0.046813 0.000000 0.000000
# 5 0.000000 0.000000 0.000000 0.000000 0.046809 0.000000
# 6 0.000000 0.000000 0.000000 0.000000 0.000000 0.032319
#
#
# Mechanical properties :
#
#
# Convention : Reuss Voigt Hill
#
# Bulk Modulus (GPa) = 65.70326 67.37191 66.53759
# Shear Modulus (GPa) = 26.30659 27.94533 27.12596
#
# Velocity S-wave (km/s) = 3.75105 3.86612 3.80902
# Velocity P-wave (km/s) = 7.34184 7.48089 7.41169
#
# Compressibility (1/GPa) = 0.01521994
#
# Stress axis : x y z
#
# Youngs Moduli (GPa) = 71.11318 71.11332 110.96524
#
# Poissons Ratio (x) = 0.37177 0.31792
# Poissons Ratio (y) = 0.37177 0.31792
# Poissons Ratio (z) = 0.20374 0.20375
#
# Static dielectric constant tensor:
#      x y z
#    x 3.433980 0.000000 0.000000 
#    y 0.000000 3.433980 0.000000 
#    z 0.000000 0.000000 3.675620 
# 
# 
# High freq. dielectric constant tensor:
#      x y z
#    x 1.716450 0.000000 0.000000 
#    y 0.000000 1.716450 0.000000 
#    z 0.000000 0.000000 1.746910 
# 
# From -- ./inp_files/4879.got.cif
#   From: 2010.03.12/outbox.cif.g09.slc.cpg/sg98_3_cif.got.tgz:4879.got - 2010.04.08 21:04:41.
