data_PCOD8306035
_publ_section_title
;
Structure prediction by ZEFSAII (Michael W. Deem and Ramdas Pophale) SiO2 
 PCOD8306035
Probable space group: I 4 2 2 
;
_chemical_formula_sum "Si O2"
_cell_formula_units_Z 96
_cell_length_a 15.712218
_cell_length_b 15.712218
_cell_length_c 20.097932
_cell_angle_alpha 90.000000
_cell_angle_beta 90.000000
_cell_angle_gamma 90.000000
_cell_volume 4961.652734
_symmetry_space_group_name_H-M "I 4 2 2 "
_symmetry_group_IT_number 97
_symmetry_cell_setting 'tetragonal'
loop_
_space_group_symop_operation_xyz
x,y,z
-y,x,z
-x,-y,z
y,-x,z
x,-y,-z
-x,y,-z
y,x,-z
-y,-x,-z
1/2+x,1/2+y,1/2+z
1/2-y,1/2+x,1/2+z
1/2-x,1/2-y,1/2+z
1/2+y,1/2-x,1/2+z
1/2+x,1/2-y,1/2-z
1/2-x,1/2+y,1/2-z
1/2+y,1/2+x,1/2-z
1/2-y,1/2-x,1/2-z
loop_
_atom_site_type_symbol
_atom_site_label
_atom_site_fract_x
_atom_site_fract_y
_atom_site_fract_z
Si Si1 0.086455 0.112557 0.713794
Si Si2 0.762124 0.988070 0.921391
Si Si3 0.079077 0.546557 0.568956
Si Si4 0.229083 0.588911 0.986397
Si Si5 0.221182 0.814700 0.607904
Si Si6 0.169895 0.846093 0.855543
O O1 0.121590 0.178408 0.659791
O O2 0.124406 0.145250 0.782664
O O3 0.984551 0.117943 0.707178
O O4 0.784702 0.076781 0.890476
O O5 0.668504 0.963169 0.892881
O O6 0.825109 0.913794 0.898199
O O7 0.767036 0.000000 0.000000
O O8 0.091127 0.500000 0.500000
O O9 0.061261 0.644217 0.552744
O O10 0.000000 0.500000 0.607784
O O11 0.283735 0.644387 0.937208
O O12 0.278404 0.500000 0.000000
O O13 0.213481 0.637361 0.057202
O O14 0.267687 0.736628 0.645125
#
# Coordination Sequence:
#
# PCOD8306035 Si02
#       6
#    16  16  16  16  16  16
#     4  11  24  46  64  83 115 163 214 256 308 366
#     4  11  23  37  61  95 127 160 198 250 301 358
#     4  10  18  33  56  88 128 160 185 234 302 373
#     4  11  21  37  61  95 122 154 199 243 312 366
#     4  11  24  39  64  89 125 155 199 264 301 366
#     4  12  23  41  63  90 126 163 209 248 303 370
#
# _framework density 19.348389999999998
#
# number of rings (size 3 to 8) (size 9 to 14) (size 15 to 20)
#    0.000    1.000    5.000    4.000    2.333    0.333 
#    0.000    0.833    0.000    4.000    0.000    2.333 
#    0.000    0.000    0.000    0.000    0.000    0.000 
#
# Total GULP energy -594864.586436 kJ/mol
# GULP energy per Si atom -12393.012217 kJ/mol
# Density = 1.930435 g / cm^3
# Si number density = 19.348390 Si / 1000 Ang^3
#
#
#
# Elastic Constant Matrix: (Units=GPa)
#
#
# Indices 1 2 3 4 5 6 
#
# 1 106.3868 34.9727 38.8714 0.0000 0.0000 0.0000
# 2 34.9727 106.3868 38.8714 0.0000 0.0000 0.0000
# 3 38.8714 38.8714 88.7276 0.0000 0.0000 0.0000
# 4 0.0000 0.0000 0.0000 89.5132 0.0000 0.0000
# 5 0.0000 0.0000 0.0000 0.0000 89.5132 0.0000
# 6 0.0000 0.0000 0.0000 0.0000 0.0000 30.7961
#
#
#
# Elastic Compliance Matrix: (Units=1/GPa)
#
#
# Indices 1 2 3 4 5 6 
#
# 1 0.011661 -0.002342 -0.004083 0.000000 0.000000 0.000000
# 2 -0.002342 0.011661 -0.004083 0.000000 0.000000 0.000000
# 3 -0.004083 -0.004083 0.014848 0.000000 0.000000 0.000000
# 4 0.000000 0.000000 0.000000 0.011172 0.000000 0.000000
# 5 0.000000 0.000000 0.000000 0.000000 0.011172 0.000000
# 6 0.000000 0.000000 0.000000 0.000000 0.000000 0.032472
#
#
# Mechanical properties :
#
#
# Convention : Reuss Voigt Hill
#
# Bulk Modulus (GPa) = 58.29041 58.54803 58.41922
# Shear Modulus (GPa) = 41.76464 54.55021 48.15742
#
# Velocity S-wave (km/s) = 4.65107 5.31553 4.99436
# Velocity P-wave (km/s) = 7.68345 8.24614 7.96976
#
# Compressibility (1/GPa) = 0.01715548
#
# Stress axis : x y z
#
# Youngs Moduli (GPa) = 85.75419 85.75420 67.34962
#
# Poissons Ratio (x) = 0.20080 0.27498
# Poissons Ratio (y) = 0.20080 0.27498
# Poissons Ratio (z) = 0.35013 0.35013
#
# Static dielectric constant tensor:
#      x y z
#    x 0.971620 0.000000 0.000000 
#    y 0.000000 0.971610 0.000000 
#    z 0.000000 0.000000 3.330000 
# 
# 
# High freq. dielectric constant tensor:
#      x y z
#    x 1.769670 0.000000 0.000000 
#    y 0.000000 1.769670 0.000000 
#    z 0.000000 0.000000 1.726070 
# 
# From -- ./inp_files/6641.got.cif
#   From: 2010.03.12/outbox.cif.g09.slc.cpg/sg97_4_cif.got.tgz:6641.got - 2010.04.08 20:59:42.
