data_PCOD8306203
_publ_section_title
;
Structure prediction by ZEFSAII (Michael W. Deem and Ramdas Pophale) SiO2 
 PCOD8306203
Probable space group: I 41 2 2
;
_chemical_formula_sum "Si O2"
_cell_formula_units_Z 112
_cell_length_a 14.276357
_cell_length_b 14.276357
_cell_length_c 30.924013
_cell_angle_alpha 90.000000
_cell_angle_beta 90.000000
_cell_angle_gamma 90.000000
_cell_volume 6302.758202
_symmetry_space_group_name_H-M "I 41 2 2"
_symmetry_group_IT_number 98
_symmetry_cell_setting 'tetragonal'
loop_
_space_group_symop_operation_xyz
x,y,z
-y,1/2+x,1/4+z
-x,-y,z
y,1/2-x,1/4+z
x,1/2-y,1/4-z
-x,1/2+y,1/4-z
y,x,-z
-y,-x,-z
1/2+x,1/2+y,1/2+z
1/2-y,x,3/4+z
1/2-x,1/2-y,1/2+z
1/2+y,-x,3/4+z
1/2+x,-y,3/4-z
1/2-x,y,3/4-z
1/2+y,1/2+x,1/2-z
1/2-y,1/2-x,1/2-z
loop_
_atom_site_type_symbol
_atom_site_label
_atom_site_fract_x
_atom_site_fract_y
_atom_site_fract_z
Si Si1 0.920153 0.922097 0.451928
Si Si2 0.354420 0.696260 0.250525
Si Si3 0.352857 0.992350 0.657924
Si Si4 0.486648 0.339609 0.592569
Si Si5 0.450310 0.775508 0.329337
Si Si6 0.569840 0.209210 0.171411
Si Si7 0.952663 0.295428 0.249580
O O1 0.892512 0.892512 0.500000
O O2 0.951402 0.827210 0.428591
O O3 0.830791 0.965768 0.428233
O O4 0.000000 0.000000 0.452952
O O5 0.276515 0.776515 0.250000
O O6 0.424439 0.701335 0.291665
O O7 0.413815 0.709553 0.206789
O O8 0.307197 0.594258 0.251446
O O9 0.400449 0.091641 0.645326
O O10 0.420836 0.902916 0.654560
O O11 0.271134 0.963199 0.625563
O O12 0.309619 0.008895 0.705717
O O13 0.490203 0.250000 0.625000
O O14 0.480213 0.304607 0.542547
O O15 0.369066 0.851218 0.326916
O O16 0.575108 0.250000 0.125000
O O17 0.874118 0.374118 0.250000
#
# Coordination Sequence:
#
# PCOD8306203 Si02
#       7
#    16  16  16  16  16  16  16
#     4   9  16  30  49  69  99 139 171 199 244 307
#     4   9  16  26  46  77 107 132 159 206 265 311
#     4  10  20  33  53  79 102 135 175 217 265 311
#     4  10  20  35  54  74 103 138 174 214 262 322
#     4  10  18  30  50  74 103 135 173 211 253 309
#     4  10  18  28  47  77 106 133 169 214 258 300
#     4   9  17  30  50  78 106 127 158 210 269 316
#
# _framework density 17.769998000000001
#
# number of rings (size 3 to 8) (size 9 to 14) (size 15 to 20)
#    0.000    2.429    1.429    2.143    0.000    4.571 
#    0.000    0.714    3.143    1.714    0.000    0.000 
#    0.000    0.000    0.000    0.000    0.000    0.000 
#
# Total GULP energy -693930.229427 kJ/mol
# GULP energy per Si atom -12391.611240 kJ/mol
# Density = 1.772955 g / cm^3
# Si number density = 17.769998 Si / 1000 Ang^3
#
#
#
# Elastic Constant Matrix: (Units=GPa)
#
#
# Indices 1 2 3 4 5 6 
#
# 1 48.5807 20.5548 18.0383 0.0000 0.0000 0.0000
# 2 20.5548 48.5807 18.0383 0.0000 0.0000 0.0000
# 3 18.0383 18.0383 109.0865 0.0000 0.0000 0.0000
# 4 0.0000 0.0000 0.0000 -29.2268 0.0000 0.0000
# 5 0.0000 0.0000 0.0000 0.0000 -29.2268 0.0000
# 6 0.0000 0.0000 0.0000 0.0000 0.0000 32.6280
#
#
#
# Elastic Compliance Matrix: (Units=1/GPa)
#
#
# Indices 1 2 3 4 5 6 
#
# 1 0.025756 -0.009925 -0.002618 0.000000 0.000000 0.000000
# 2 -0.009925 0.025756 -0.002618 0.000000 0.000000 0.000000
# 3 -0.002618 -0.002618 0.010033 0.000000 0.000000 0.000000
# 4 0.000000 0.000000 0.000000 -0.034215 0.000000 0.000000
# 5 0.000000 0.000000 0.000000 0.000000 -0.034215 0.000000
# 6 0.000000 0.000000 0.000000 0.000000 0.000000 0.030649
#
#
# Mechanical properties :
#
#
# Convention : Reuss Voigt Hill
#
# Bulk Modulus (GPa) = 32.02796 35.50118 33.76457
# Shear Modulus (GPa) = 77.52919 4.80929 41.16924
#
# Velocity S-wave (km/s) = 6.61241 1.64690 4.81852
# Velocity P-wave (km/s) = 8.73850 4.86188 7.07104
#
# Compressibility (1/GPa) = 0.03122272
#
# Stress axis : x y z
#
# Youngs Moduli (GPa) = 38.82620 38.82620 99.67366
#
# Poissons Ratio (x) = 0.38537 0.26091
# Poissons Ratio (y) = 0.38537 0.26091
# Poissons Ratio (z) = 0.10163 0.10163
#
# Static dielectric constant tensor:
#      x y z
#    x 3.110890 0.000000 0.000000 
#    y 0.000000 3.110890 0.000000 
#    z 0.000000 0.000000 3.370800 
# 
# 
# High freq. dielectric constant tensor:
#      x y z
#    x 1.659180 0.000000 0.000000 
#    y 0.000000 1.659180 0.000000 
#    z 0.000000 0.000000 1.702070 
# 
# From -- ./inp_files/10972.got.cif
#   From: 2010.03.12/outbox.cif.g09.slc.cpg/sg98_6_cif.got.tgz:10972.got - 2010.04.08 21:04:41.
