data_PCOD8306729
_publ_section_title
;
Structure prediction by ZEFSAII (Michael W. Deem and Ramdas Pophale) SiO2 
 PCOD8306729
Probable space group: P 42 C M
;
_chemical_formula_sum "Si O2"
_cell_formula_units_Z 40
_cell_length_a 21.146504
_cell_length_b 21.146504
_cell_length_c 4.982854
_cell_angle_alpha 90.000000
_cell_angle_beta 90.000000
_cell_angle_gamma 90.000000
_cell_volume 2228.205901
_symmetry_space_group_name_H-M "P 42 C M"
_symmetry_group_IT_number 101
_symmetry_cell_setting 'tetragonal'
loop_
_space_group_symop_operation_xyz
x,y,z
-y,x,1/2+z
-x,-y,z
y,-x,1/2+z
-x,y,1/2+z
x,-y,1/2+z
-y,-x,z
y,x,z
loop_
_atom_site_type_symbol
_atom_site_label
_atom_site_fract_x
_atom_site_fract_y
_atom_site_fract_z
Si Si1 0.222012 0.676374 0.025390
Si Si2 0.736771 0.835410 0.035993
Si Si3 0.038703 0.577157 0.221998
Si Si4 0.035245 0.726307 0.274570
Si Si5 0.459738 0.181816 0.626186
O O1 0.289283 0.710718 0.946465
O O2 0.203723 0.697168 0.321285
O O3 0.224844 0.600297 0.039431
O O4 0.166908 0.696374 0.812747
O O5 0.804150 0.804150 0.095325
O O6 0.753826 0.903353 0.918261
O O7 0.042175 0.651690 0.258910
O O8 0.107079 0.554842 0.122383
O O9 0.015035 0.552814 0.512517
O O10 0.977702 0.749304 0.471230
O O11 0.516241 0.198969 0.422419
#
# Coordination Sequence:
#
# PCOD8306729 Si02
#       5
#     8   8   8   8   8
#     4  10  21  37  55  73  99 131 167 212 267 308
#     4  10  19  33  54  74  96 129 173 214 258 312
#     4  10  21  33  47  65  99 142 175 206 238 279
#     4  10  19  30  49  71  98 132 168 211 251 295
#     4  12  24  35  52  73 101 131 175 216 241 293
#
# _framework density 17.951661000000001
#
# number of rings (size 3 to 8) (size 9 to 14) (size 15 to 20)
#    0.000    1.600    2.000    3.600    5.600    2.400 
#    0.000    0.000    0.000    0.000    0.000    0.000 
#    0.000    4.800    0.000    0.000    0.000    0.000 
#
# Total GULP energy -495626.047162 kJ/mol
# GULP energy per Si atom -12390.651179 kJ/mol
# Density = 1.791080 g / cm^3
# Si number density = 17.951661 Si / 1000 Ang^3
#
#
#
# Elastic Constant Matrix: (Units=GPa)
#
#
# Indices 1 2 3 4 5 6 
#
# 1 57.1422 33.7454 9.1789 0.0000 0.0000 0.0002
# 2 33.7454 57.1422 9.1789 0.0000 0.0000 -0.0002
# 3 9.1789 9.1789 67.4301 0.0000 0.0000 0.0000
# 4 0.0000 0.0000 0.0000 25.0105 0.0000 0.0000
# 5 0.0000 0.0000 0.0000 0.0000 25.0105 0.0000
# 6 0.0002 -0.0002 0.0000 0.0000 0.0000 22.1432
#
#
#
# Elastic Compliance Matrix: (Units=1/GPa)
#
#
# Indices 1 2 3 4 5 6 
#
# 1 0.027027 -0.015714 -0.001540 0.000000 0.000000 0.000000
# 2 -0.015714 0.027027 -0.001540 0.000000 0.000000 0.000000
# 3 -0.001540 -0.001540 0.015249 0.000000 0.000000 0.000000
# 4 0.000000 0.000000 0.000000 0.039983 0.000000 0.000000
# 5 0.000000 0.000000 0.000000 0.000000 0.039983 0.000000
# 6 0.000000 0.000000 0.000000 0.000000 0.000000 0.045161
#
#
# Mechanical properties :
#
#
# Convention : Reuss Voigt Hill
#
# Bulk Modulus (GPa) = 31.52929 31.76897 31.64913
# Shear Modulus (GPa) = 20.61084 23.07358 21.84221
#
# Velocity S-wave (km/s) = 3.39208 3.58902 3.49194
# Velocity P-wave (km/s) = 5.73962 5.90848 5.82466
#
# Compressibility (1/GPa) = 0.03171654
#
# Stress axis : x y z
#
# Youngs Moduli (GPa) = 36.99963 36.99963 65.57608
#
# Poissons Ratio (x) = 0.58140 0.10099
# Poissons Ratio (y) = 0.58140 0.10099
# Poissons Ratio (z) = 0.05698 0.05698
#
# Static dielectric constant tensor:
#      x y z
#    x 3.236340 0.000000 0.000000 
#    y 0.000000 3.236340 0.000000 
#    z 0.000000 0.000000 3.733900 
# 
# 
# High freq. dielectric constant tensor:
#      x y z
#    x 1.660570 0.000000 0.000000 
#    y 0.000000 1.660570 0.000000 
#    z 0.000000 0.000000 1.727010 
# 
# From -- ./inp_files/106.got.cif
#   From: 2010.03.12/outbox.cif.g09.slc.cpg/sg101_1_cif.got.tgz:106.got - 2010.04.14 01:38:52.
