data_PCOD8306734
_publ_section_title
;
Structure prediction by ZEFSAII (Michael W. Deem and Ramdas Pophale) SiO2 
 PCOD8306734
Probable space group: P 42 C M
;
_chemical_formula_sum "Si O2"
_cell_formula_units_Z 64
_cell_length_a 12.646777
_cell_length_b 12.646777
_cell_length_c 22.231733
_cell_angle_alpha 90.000000
_cell_angle_beta 90.000000
_cell_angle_gamma 90.000000
_cell_volume 3555.764907
_symmetry_space_group_name_H-M "P 42 C M"
_symmetry_group_IT_number 101
_symmetry_cell_setting 'tetragonal'
loop_
_space_group_symop_operation_xyz
x,y,z
-y,x,1/2+z
-x,-y,z
y,-x,1/2+z
-x,y,1/2+z
x,-y,1/2+z
-y,-x,z
y,x,z
loop_
_atom_site_type_symbol
_atom_site_label
_atom_site_fract_x
_atom_site_fract_y
_atom_site_fract_z
Si Si1 0.581966 0.249754 0.838150
Si Si2 0.235583 0.398279 0.753751
Si Si3 0.885662 0.725826 0.849966
Si Si4 0.281260 0.104916 0.144651
Si Si5 0.316688 0.861261 0.138000
Si Si6 0.901954 0.260707 0.781237
Si Si7 0.455661 0.883663 0.432525
Si Si8 0.123094 0.481756 0.069432
O O1 0.635656 0.364345 0.852243
O O2 0.518617 0.255876 0.774494
O O3 0.672833 0.164723 0.828555
O O4 0.514063 0.207777 0.894441
O O5 0.346332 0.346332 0.731996
O O6 0.198990 0.342595 0.814358
O O7 0.148015 0.378989 0.701875
O O8 0.841272 0.841272 0.865973
O O9 0.902386 0.665701 0.912739
O O10 0.981235 0.741927 0.805158
O O11 0.174011 0.174011 0.130849
O O12 0.310330 0.107406 0.214940
O O13 0.380200 0.157635 0.109204
O O14 0.270321 0.980041 0.127057
O O15 0.217393 0.782608 0.133660
O O16 0.406468 0.825618 0.089814
O O17 0.859238 0.140763 0.779430
O O18 0.459259 0.844944 0.500948
O O19 0.500000 0.000000 0.422261
O O20 0.000000 0.500000 0.078131
#
# Coordination Sequence:
#
# PCOD8306734 Si02
#       8
#     8   8   8   8   8   8   8   8
#     4  10  20  32  51  78 106 139 181 228 277 324
#     4   9  18  31  50  75 105 139 176 220 272 326
#     4  10  19  32  51  76 104 137 176 217 266 322
#     4  10  20  34  55  82 114 147 182 228 275 328
#     4  10  19  34  55  80 110 145 183 228 279 327
#     4  10  19  31  50  78 109 142 174 216 274 325
#     4  10  19  35  55  75 101 143 184 224 265 312
#     4   9  20  35  53  79 106 142 191 228 266 319
#
# _framework density 17.998940000000001
#
# number of rings (size 3 to 8) (size 9 to 14) (size 15 to 20)
#    0.000    2.250    2.500    0.750    0.000    1.750 
#    0.000    1.250    0.000    1.125    0.000    3.500 
#    0.000    0.000    0.000    0.000    0.000    0.000 
#
# Total GULP energy -792842.948241 kJ/mol
# GULP energy per Si atom -12388.171066 kJ/mol
# Density = 1.795797 g / cm^3
# Si number density = 17.998940 Si / 1000 Ang^3
#
#
#
# Elastic Constant Matrix: (Units=GPa)
#
#
# Indices 1 2 3 4 5 6 
#
# 1 77.6747 64.1053 42.6536 0.0000 0.0000 0.0002
# 2 64.1053 77.6747 42.6536 0.0000 0.0000 -0.0002
# 3 42.6536 42.6536 105.0311 0.0000 0.0000 0.0000
# 4 0.0000 0.0000 0.0000 17.4445 0.0000 0.0000
# 5 0.0000 0.0000 0.0000 0.0000 17.4445 0.0000
# 6 0.0002 -0.0002 0.0000 0.0000 0.0000 23.8937
#
#
#
# Elastic Compliance Matrix: (Units=1/GPa)
#
#
# Indices 1 2 3 4 5 6 
#
# 1 0.041514 -0.032181 -0.003791 0.000000 0.000000 -0.000001
# 2 -0.032181 0.041514 -0.003791 0.000000 0.000000 0.000001
# 3 -0.003791 -0.003791 0.012600 0.000000 0.000000 0.000000
# 4 0.000000 0.000000 0.000000 0.057325 0.000000 0.000000
# 5 0.000000 0.000000 0.000000 0.000000 0.057325 0.000000
# 6 -0.000001 0.000001 0.000000 0.000000 0.000000 0.041852
#
#
# Mechanical properties :
#
#
# Convention : Reuss Voigt Hill
#
# Bulk Modulus (GPa) = 62.09119 62.13394 62.11256
# Shear Modulus (GPa) = 14.83585 19.15442 16.99513
#
# Velocity S-wave (km/s) = 2.87411 3.26574 3.07617
# Velocity P-wave (km/s) = 6.75174 6.98684 6.87030
#
# Compressibility (1/GPa) = 0.01610535
#
# Stress axis : x y z
#
# Youngs Moduli (GPa) = 24.08803 24.08803 79.36700
#
# Poissons Ratio (x) = 0.77516 0.30084
# Poissons Ratio (y) = 0.77516 0.30084
# Poissons Ratio (z) = 0.09131 0.09131
#
# Static dielectric constant tensor:
#      x y z
#    x 3.416100 0.000000 0.000000 
#    y 0.000000 3.416100 0.000000 
#    z 0.000000 0.000000 3.239460 
# 
# 
# High freq. dielectric constant tensor:
#      x y z
#    x 1.688980 0.000000 0.000000 
#    y 0.000000 1.688980 0.000000 
#    z 0.000000 0.000000 1.686140 
# 
# From -- ./inp_files/2752.got.cif
#   From: 2010.03.12/outbox.cif.g09.slc.cpg/sg101_2_cif.got.tgz:2752.got - 2010.04.14 01:38:52.
