data_PCOD8306153
_publ_section_title
;
Structure prediction by ZEFSAII (Michael W. Deem and Ramdas Pophale) SiO2 
 PCOD8306153
Probable space group: I 4 2 2 
;
_chemical_formula_sum "Si O2"
_cell_formula_units_Z 48
_cell_length_a 9.704892
_cell_length_b 9.704892
_cell_length_c 26.124445
_cell_angle_alpha 90.000000
_cell_angle_beta 90.000000
_cell_angle_gamma 90.000000
_cell_volume 2460.528990
_symmetry_space_group_name_H-M "I 4 2 2 "
_symmetry_group_IT_number 97
_symmetry_cell_setting 'tetragonal'
loop_
_space_group_symop_operation_xyz
x,y,z
-y,x,z
-x,-y,z
y,-x,z
x,-y,-z
-x,y,-z
y,x,-z
-y,-x,-z
1/2+x,1/2+y,1/2+z
1/2-y,1/2+x,1/2+z
1/2-x,1/2-y,1/2+z
1/2+y,1/2-x,1/2+z
1/2+x,1/2-y,1/2-z
1/2-x,1/2+y,1/2-z
1/2+y,1/2+x,1/2-z
1/2-y,1/2-x,1/2-z
loop_
_atom_site_type_symbol
_atom_site_label
_atom_site_fract_x
_atom_site_fract_y
_atom_site_fract_z
Si Si1 0.841362 0.663587 0.153928
Si Si2 0.146841 0.173673 0.056336
Si Si3 0.865499 0.634669 0.807933
O O1 0.791922 0.720060 0.098078
O O2 0.819104 0.500459 0.160144
O O3 0.743944 0.742380 0.193979
O O4 0.000301 0.701380 0.165368
O O5 0.983789 0.190160 0.063643
O O6 0.208125 0.208125 0.000000
O O7 0.905399 0.594602 0.750000
#
# Coordination Sequence:
#
# PCOD8306153 Si02
#       3
#    16  16  16
#     4  11  21  38  58  85 119 157 195 247 298 350
#     4   9  17  33  59  87 112 144 198 252 291 339
#     4  11  23  38  58  85 121 159 202 242 294 360
#
# _framework density 19.507999999999999
#
# number of rings (size 3 to 8) (size 9 to 14) (size 15 to 20)
#    0.000    1.667    3.333    5.000    0.000    1.333 
#    0.000    5.000    0.000    0.000    0.000    2.333 
#    0.000    0.000    0.000    0.000    0.000    0.000 
#
# Total GULP energy -297392.306625 kJ/mol
# GULP energy per Si atom -12391.346109 kJ/mol
# Density = 1.946360 g / cm^3
# Si number density = 19.508000 Si / 1000 Ang^3
#
#
#
# Elastic Constant Matrix: (Units=GPa)
#
#
# Indices 1 2 3 4 5 6 
#
# 1 76.0396 65.3874 30.5154 0.0000 0.0000 0.0000
# 2 65.3874 76.0398 30.5156 0.0000 0.0000 0.0000
# 3 30.5154 30.5156 148.1911 0.0000 0.0000 0.0000
# 4 0.0000 0.0000 0.0000 26.1157 0.0000 0.0000
# 5 0.0000 0.0000 0.0000 0.0000 26.1158 0.0000
# 6 0.0000 0.0000 0.0000 0.0000 0.0000 35.1117
#
#
#
# Elastic Compliance Matrix: (Units=1/GPa)
#
#
# Indices 1 2 3 4 5 6 
#
# 1 0.050818 -0.043058 -0.001598 0.000000 0.000000 0.000000
# 2 -0.043058 0.050818 -0.001598 0.000000 0.000000 0.000000
# 3 -0.001598 -0.001598 0.007406 0.000000 0.000000 0.000000
# 4 0.000000 0.000000 0.000000 0.038291 0.000000 0.000000
# 5 0.000000 0.000000 0.000000 0.000000 0.038291 0.000000
# 6 0.000000 0.000000 0.000000 0.000000 0.000000 0.028481
#
#
# Mechanical properties :
#
#
# Convention : Reuss Voigt Hill
#
# Bulk Modulus (GPa) = 60.47827 61.45638 60.96732
# Shear Modulus (GPa) = 16.01921 29.05878 22.53900
#
# Velocity S-wave (km/s) = 2.86870 3.86370 3.40276
# Velocity P-wave (km/s) = 6.48395 7.17466 6.83803
#
# Compressibility (1/GPa) = 0.01653487
#
# Stress axis : x y z
#
# Youngs Moduli (GPa) = 19.67790 19.67796 135.02255
#
# Poissons Ratio (x) = 0.84729 0.21576
# Poissons Ratio (y) = 0.84729 0.21577
# Poissons Ratio (z) = 0.03144 0.03145
#
# Static dielectric constant tensor:
#      x y z
#    x 3.296060 0.000000 0.000000 
#    y 0.000000 3.296060 0.000000 
#    z 0.000000 0.000000 3.689650 
# 
# 
# High freq. dielectric constant tensor:
#      x y z
#    x 1.739830 0.000000 0.000000 
#    y 0.000000 1.739830 0.000000 
#    z 0.000000 0.000000 1.771010 
# 
# From -- ./inp_files/7812.got.cif
#   From: 2010.03.12/outbox.cif.g09.slc.cpg/sg97_4_cif.got.tgz:7812.got - 2010.04.08 20:59:42.
