data_PCOD8306716
_publ_section_title
;
Structure prediction by ZEFSAII (Michael W. Deem and Ramdas Pophale) SiO2 
 PCOD8306716
Probable space group: P 42 C M
;
_chemical_formula_sum "Si O2"
_cell_formula_units_Z 64
_cell_length_a 13.542512
_cell_length_b 13.542512
_cell_length_c 19.895159
_cell_angle_alpha 90.000000
_cell_angle_beta 90.000000
_cell_angle_gamma 90.000000
_cell_volume 3648.764825
_symmetry_space_group_name_H-M "P 42 C M"
_symmetry_group_IT_number 101
_symmetry_cell_setting 'tetragonal'
loop_
_space_group_symop_operation_xyz
x,y,z
-y,x,1/2+z
-x,-y,z
y,-x,1/2+z
-x,y,1/2+z
x,-y,1/2+z
-y,-x,z
y,x,z
loop_
_atom_site_type_symbol
_atom_site_label
_atom_site_fract_x
_atom_site_fract_y
_atom_site_fract_z
Si Si1 0.501322 0.338713 0.174100
Si Si2 0.341500 0.012895 0.086395
Si Si3 0.101907 0.268388 0.222364
Si Si4 0.838295 0.487313 0.070573
Si Si5 0.594694 0.756610 0.292779
Si Si6 0.614065 0.772989 0.440391
Si Si7 0.065089 0.223661 0.467610
Si Si8 0.994306 0.840024 0.832960
O O1 0.605412 0.394589 0.168665
O O2 0.410873 0.410873 0.155526
O O3 0.498249 0.247323 0.124351
O O4 0.489425 0.300577 0.250891
O O5 0.288621 0.043282 0.154536
O O6 0.413127 0.099749 0.061562
O O7 0.399506 0.909629 0.095768
O O8 0.256370 0.998636 0.031398
O O9 0.184038 0.184038 0.210063
O O10 0.148819 0.370554 0.249485
O O11 0.018281 0.238539 0.275582
O O12 0.787745 0.465454 0.999018
O O13 0.692310 0.692310 0.304007
O O14 0.557420 0.781518 0.368235
O O15 0.666615 0.666615 0.450282
O O16 0.693959 0.859008 0.442890
O O17 0.123539 0.123539 0.486593
O O18 0.988795 0.208713 0.406510
O O19 0.889581 0.889581 0.815938
O O20 0.081091 0.918910 0.834585
#
# Coordination Sequence:
#
# PCOD8306716 Si02
#       8
#     8   8   8   8   8   8   8   8
#     4  10  20  35  57  82 107 138 176 221 275 326
#     4  10  21  33  51  76 108 141 179 216 264 318
#     4  10  18  32  54  76 100 138 181 218 258 311
#     4  10  20  35  51  75 110 139 173 220 262 324
#     4   9  16  30  54  78  99 132 179 219 260 319
#     4   9  16  30  54  76  96 132 176 214 259 316
#     4   9  17  31  49  69  97 137 180 216 258 311
#     4   9  17  30  49  73 101 132 173 222 260 300
#
# _framework density 17.540182999999999
#
# number of rings (size 3 to 8) (size 9 to 14) (size 15 to 20)
#    0.000    2.500    2.500    0.375    0.000    1.500 
#    0.000    1.875    2.750    2.250    0.000    0.000 
#    0.000    0.000    0.000    0.000    0.000    0.000 
#
# Total GULP energy -793491.038726 kJ/mol
# GULP energy per Si atom -12398.297480 kJ/mol
# Density = 1.750026 g / cm^3
# Si number density = 17.540183 Si / 1000 Ang^3
#
#
#
# Elastic Constant Matrix: (Units=GPa)
#
#
# Indices 1 2 3 4 5 6 
#
# 1 64.5466 34.5159 52.0145 0.0000 0.0000 0.0000
# 2 34.5159 64.5466 52.0145 0.0000 0.0000 0.0000
# 3 52.0145 52.0145 151.5291 0.0000 0.0000 0.0000
# 4 0.0000 0.0000 0.0000 30.0479 0.0000 0.0000
# 5 0.0000 0.0000 0.0000 0.0000 30.0479 0.0000
# 6 0.0000 0.0000 0.0000 0.0000 0.0000 21.0007
#
#
#
# Elastic Compliance Matrix: (Units=1/GPa)
#
#
# Indices 1 2 3 4 5 6 
#
# 1 0.024542 -0.008757 -0.005418 0.000000 0.000000 0.000000
# 2 -0.008757 0.024542 -0.005418 0.000000 0.000000 0.000000
# 3 -0.005418 -0.005418 0.010319 0.000000 0.000000 0.000000
# 4 0.000000 0.000000 0.000000 0.033280 0.000000 0.000000
# 5 0.000000 0.000000 0.000000 0.000000 0.033280 0.000000
# 6 0.000000 0.000000 0.000000 0.000000 0.000000 0.047617
#
#
# Mechanical properties :
#
#
# Convention : Reuss Voigt Hill
#
# Bulk Modulus (GPa) = 49.46767 61.96802 55.71785
# Shear Modulus (GPa) = 22.77832 25.69113 24.23472
#
# Velocity S-wave (km/s) = 3.60757 3.83129 3.72111
# Velocity P-wave (km/s) = 6.75400 7.41469 7.09204
#
# Compressibility (1/GPa) = 0.02021522
#
# Stress axis : x y z
#
# Youngs Moduli (GPa) = 40.74664 40.74664 96.90674
#
# Poissons Ratio (x) = 0.35683 0.52507
# Poissons Ratio (y) = 0.35683 0.52507
# Poissons Ratio (z) = 0.22078 0.22078
#
# Static dielectric constant tensor:
#      x y z
#    x 3.175130 0.000000 0.000000 
#    y 0.000000 3.175130 0.000000 
#    z 0.000000 0.000000 3.384810 
# 
# 
# High freq. dielectric constant tensor:
#      x y z
#    x 1.659750 0.000000 0.000000 
#    y 0.000000 1.659750 0.000000 
#    z 0.000000 0.000000 1.688510 
# 
# From -- ./inp_files/2301.got.cif
#   From: 2010.03.12/outbox.cif.g09.slc.cpg/sg101_2_cif.got.tgz:2301.got - 2010.04.14 01:38:52.
