data_PCOD8306825
_publ_section_title
;
Structure prediction by ZEFSAII (Michael W. Deem and Ramdas Pophale) SiO2 
 PCOD8306825
Probable space group: P 42 N M
;
_chemical_formula_sum "Si O2"
_cell_formula_units_Z 64
_cell_length_a 12.076654
_cell_length_b 12.076654
_cell_length_c 23.528704
_cell_angle_alpha 90.000000
_cell_angle_beta 90.000000
_cell_angle_gamma 90.000000
_cell_volume 3431.557289
_symmetry_space_group_name_H-M "P 42 N M"
_symmetry_group_IT_number 102
_symmetry_cell_setting 'tetragonal'
loop_
_space_group_symop_operation_xyz
x,y,z
1/2-y,1/2+x,1/2+z
-x,-y,z
1/2+y,1/2-x,1/2+z
1/2-x,1/2+y,1/2+z
1/2+x,1/2-y,1/2+z
-y,-x,z
y,x,z
loop_
_atom_site_type_symbol
_atom_site_label
_atom_site_fract_x
_atom_site_fract_y
_atom_site_fract_z
Si Si1 0.358622 0.179648 0.313940
Si Si2 0.670809 0.848147 0.183576
Si Si3 0.245063 0.068261 0.879318
Si Si4 0.122727 0.528745 0.101268
Si Si5 0.763093 0.053051 0.123549
Si Si6 0.480771 0.125607 0.894646
Si Si7 0.276402 0.450325 0.494557
Si Si8 0.266181 0.089243 0.493426
O O1 0.247243 0.247243 0.326552
O O2 0.370668 0.151467 0.248018
O O3 0.460276 0.251363 0.339278
O O4 0.349490 0.061432 0.342861
O O5 0.737089 0.737089 0.170115
O O6 0.558802 0.844975 0.148443
O O7 0.750835 0.952391 0.168179
O O8 0.140348 0.140348 0.859711
O O9 0.356675 0.139444 0.871206
O O10 0.237964 0.043491 0.946955
O O11 0.126807 0.651962 0.128005
O O12 0.000000 0.500000 0.077225
O O13 0.213817 0.522613 0.051650
O O14 0.869737 0.130264 0.137683
O O15 0.771144 0.002957 0.059196
O O16 0.501867 0.217608 0.942843
O O17 0.500000 0.000000 0.917877
O O18 0.396163 0.396163 0.484777
O O19 0.183016 0.358437 0.485901
O O20 0.143997 0.143997 0.492390
#
# Coordination Sequence:
#
# PCOD8306825 Si02
#       8
#     8   8   8   8   8   8   8   8
#     4  10  21  40  61  80 105 148 195 232 276 334
#     4  10  22  38  57  82 114 150 190 233 281 335
#     4  11  23  35  54  86 118 144 177 232 294 340
#     4   9  18  31  53  81 112 147 191 231 273 323
#     4   9  19  35  58  86 115 147 188 236 285 334
#     4  10  19  32  55  81 110 139 183 229 278 332
#     4   9  17  31  53  85 117 146 181 224 280 338
#     4  10  17  30  54  80 107 146 190 229 267 322
#
# _framework density 18.650423
#
# number of rings (size 3 to 8) (size 9 to 14) (size 15 to 20)
#    0.000    2.250    2.500    2.250    3.500    6.250 
#    0.000    4.375    0.000    6.000    0.000    0.000 
#    0.000    0.000    0.000    0.000    0.000    0.000 
#
# Total GULP energy -793360.529372 kJ/mol
# GULP energy per Si atom -12396.258271 kJ/mol
# Density = 1.860797 g / cm^3
# Si number density = 18.650423 Si / 1000 Ang^3
#
#
#
# Elastic Constant Matrix: (Units=GPa)
#
#
# Indices 1 2 3 4 5 6 
#
# 1 70.8249 44.8591 57.3779 0.0000 0.0000 -0.0002
# 2 44.8591 70.8249 57.3779 0.0000 0.0000 0.0002
# 3 57.3779 57.3779 114.6371 0.0000 0.0000 0.0000
# 4 0.0000 0.0000 0.0000 20.2864 0.0000 0.0000
# 5 0.0000 0.0000 0.0000 0.0000 20.2864 0.0000
# 6 -0.0002 0.0002 0.0000 0.0000 0.0000 28.4458
#
#
#
# Elastic Compliance Matrix: (Units=1/GPa)
#
#
# Indices 1 2 3 4 5 6 
#
# 1 0.027840 -0.010672 -0.008593 0.000000 0.000000 0.000000
# 2 -0.010672 0.027840 -0.008593 0.000000 0.000000 0.000000
# 3 -0.008593 -0.008593 0.017325 0.000000 0.000000 0.000000
# 4 0.000000 0.000000 0.000000 0.049294 0.000000 0.000000
# 5 0.000000 0.000000 0.000000 0.000000 0.049294 0.000000
# 6 0.000000 0.000000 0.000000 0.000000 0.000000 0.035155
#
#
# Mechanical properties :
#
#
# Convention : Reuss Voigt Hill
#
# Bulk Modulus (GPa) = 57.83827 63.94630 60.89229
# Shear Modulus (GPa) = 18.64088 20.24854 19.44471
#
# Velocity S-wave (km/s) = 3.16490 3.29855 3.23242
# Velocity P-wave (km/s) = 6.66592 6.99060 6.83019
#
# Compressibility (1/GPa) = 0.01728959
#
# Stress axis : x y z
#
# Youngs Moduli (GPa) = 35.91913 35.91913 57.71965
#
# Poissons Ratio (x) = 0.38333 0.49599
# Poissons Ratio (y) = 0.38333 0.49599
# Poissons Ratio (z) = 0.30865 0.30865
#
# Static dielectric constant tensor:
#      x y z
#    x 3.399000 0.000000 0.000000 
#    y 0.000000 3.399000 0.000000 
#    z 0.000000 0.000000 3.420820 
# 
# 
# High freq. dielectric constant tensor:
#      x y z
#    x 1.710110 0.000000 0.000000 
#    y 0.000000 1.710110 0.000000 
#    z 0.000000 0.000000 1.716910 
# 
# From -- ./inp_files/3435.got.cif
#   From: 2010.03.12/outbox.cif.g09.slc.cpg/sg102_2_cif.got.tgz:3435.got - 2010.04.14 01:40:42.
