data_PCOD8306281
_publ_section_title
;
Structure prediction by ZEFSAII (Michael W. Deem and Ramdas Pophale) SiO2 
 PCOD8306281
Probable space group: I 41 2 2
;
_chemical_formula_sum "Si O2"
_cell_formula_units_Z 88
_cell_length_a 13.838076
_cell_length_b 13.838076
_cell_length_c 24.032576
_cell_angle_alpha 90.000000
_cell_angle_beta 90.000000
_cell_angle_gamma 90.000000
_cell_volume 4602.054392
_symmetry_space_group_name_H-M "I 41 2 2"
_symmetry_group_IT_number 98
_symmetry_cell_setting 'tetragonal'
loop_
_space_group_symop_operation_xyz
x,y,z
-y,1/2+x,1/4+z
-x,-y,z
y,1/2-x,1/4+z
x,1/2-y,1/4-z
-x,1/2+y,1/4-z
y,x,-z
-y,-x,-z
1/2+x,1/2+y,1/2+z
1/2-y,x,3/4+z
1/2-x,1/2-y,1/2+z
1/2+y,-x,3/4+z
1/2+x,-y,3/4-z
1/2-x,y,3/4-z
1/2+y,1/2+x,1/2-z
1/2-y,1/2-x,1/2-z
loop_
_atom_site_type_symbol
_atom_site_label
_atom_site_fract_x
_atom_site_fract_y
_atom_site_fract_z
Si Si1 0.055987 0.689001 0.390890
Si Si2 0.982296 0.394213 0.038178
Si Si3 0.838318 0.838318 0.500000
Si Si4 0.296980 0.946067 0.257317
Si Si5 0.209790 0.840641 0.711100
Si Si6 0.842749 0.822501 0.838920
O O1 0.095798 0.581285 0.404724
O O2 0.062510 0.744786 0.448516
O O3 0.125174 0.739214 0.345775
O O4 0.941838 0.687534 0.374345
O O5 0.000000 0.500000 0.011788
O O6 0.085459 0.348729 0.049467
O O7 0.935931 0.326048 0.991988
O O8 0.820119 0.770488 0.447903
O O9 0.944347 0.816006 0.525605
O O10 0.402791 0.902791 0.250000
O O11 0.231234 0.882135 0.300354
O O12 0.287190 0.787190 0.750000
O O13 0.750000 0.840444 0.875000
#
# Coordination Sequence:
#
# PCOD8306281 Si02
#       6
#    16  16   8  16  16  16
#     4   9  20  39  56  87 117 148 198 246 299 355
#     4   9  20  39  60  79 120 158 187 244 310 357
#     4  10  21  40  56  80 123 152 202 240 286 372
#     4   9  19  37  60  83 116 155 185 248 309 345
#     4  10  21  35  62  94 115 152 205 253 295 364
#     4  10  22  37  59  81 114 162 193 241 297 355
#
# _framework density 19.121894000000001
#
# number of rings (size 3 to 8) (size 9 to 14) (size 15 to 20)
#    0.000    2.545    0.000    1.364    5.091    5.818 
#    3.273    1.818    0.000    0.000    0.000    0.000 
#    0.000    0.000    0.000    0.000    0.000    0.000 
#
# Total GULP energy -545256.430626 kJ/mol
# GULP energy per Si atom -12392.191605 kJ/mol
# Density = 1.907837 g / cm^3
# Si number density = 19.121894 Si / 1000 Ang^3
#
#
#
# Elastic Constant Matrix: (Units=GPa)
#
#
# Indices 1 2 3 4 5 6 
#
# 1 98.0538 29.3157 19.6006 0.0000 0.0000 0.0000
# 2 29.3157 98.0538 19.6006 0.0000 0.0000 0.0000
# 3 19.6006 19.6006 38.5496 0.0000 0.0000 0.0000
# 4 0.0000 0.0000 0.0000 25.8955 0.0000 0.0000
# 5 0.0000 0.0000 0.0000 0.0000 25.8955 0.0000
# 6 0.0000 0.0000 0.0000 0.0000 0.0000 37.4333
#
#
#
# Elastic Compliance Matrix: (Units=1/GPa)
#
#
# Indices 1 2 3 4 5 6 
#
# 1 0.011928 -0.002620 -0.004733 0.000000 0.000000 0.000000
# 2 -0.002620 0.011928 -0.004733 0.000000 0.000000 0.000000
# 3 -0.004733 -0.004733 0.030753 0.000000 0.000000 0.000000
# 4 0.000000 0.000000 0.000000 0.038617 0.000000 0.000000
# 5 0.000000 0.000000 0.000000 0.000000 0.038617 0.000000
# 6 0.000000 0.000000 0.000000 0.000000 0.000000 0.026714
#
#
# Mechanical properties :
#
#
# Convention : Reuss Voigt Hill
#
# Bulk Modulus (GPa) = 32.85315 41.29899 37.07607
# Shear Modulus (GPa) = 25.92380 28.92089 27.42234
#
# Velocity S-wave (km/s) = 3.68600 3.89324 3.79103
# Velocity P-wave (km/s) = 5.94421 6.46950 6.21241
#
# Compressibility (1/GPa) = 0.03043848
#
# Stress axis : x y z
#
# Youngs Moduli (GPa) = 83.83744 83.83744 32.51703
#
# Poissons Ratio (x) = 0.21966 0.15389
# Poissons Ratio (y) = 0.21966 0.15389
# Poissons Ratio (z) = 0.39676 0.39676
#
# Static dielectric constant tensor:
#      x y z
#    x 3.891140 0.000000 0.000000 
#    y 0.000000 3.891140 0.000000 
#    z 0.000000 0.000000 3.097210 
# 
# 
# High freq. dielectric constant tensor:
#      x y z
#    x 1.762500 0.000000 0.000000 
#    y 0.000000 1.762500 0.000000 
#    z 0.000000 0.000000 1.700060 
# 
# From -- ./inp_files/8804.got.cif
#   From: 2010.03.12/outbox.cif.g09.slc.cpg/sg98_5_cif.got.tgz:8804.got - 2010.04.08 21:04:41.
