data_PCOD8306138
_publ_section_title
;
Structure prediction by ZEFSAII (Michael W. Deem and Ramdas Pophale) SiO2 
 PCOD8306138
Probable space group: I 4 2 2 
;
_chemical_formula_sum "Si O2"
_cell_formula_units_Z 44
_cell_length_a 11.024009
_cell_length_b 11.024009
_cell_length_c 16.939582
_cell_angle_alpha 90.000000
_cell_angle_beta 90.000000
_cell_angle_gamma 90.000000
_cell_volume 2058.646640
_symmetry_space_group_name_H-M "I 4 2 2 "
_symmetry_group_IT_number 97
_symmetry_cell_setting 'tetragonal'
loop_
_space_group_symop_operation_xyz
x,y,z
-y,x,z
-x,-y,z
y,-x,z
x,-y,-z
-x,y,-z
y,x,-z
-y,-x,-z
1/2+x,1/2+y,1/2+z
1/2-y,1/2+x,1/2+z
1/2-x,1/2-y,1/2+z
1/2+y,1/2-x,1/2+z
1/2+x,1/2-y,1/2-z
1/2-x,1/2+y,1/2-z
1/2+y,1/2+x,1/2-z
1/2-y,1/2-x,1/2-z
loop_
_atom_site_type_symbol
_atom_site_label
_atom_site_fract_x
_atom_site_fract_y
_atom_site_fract_z
Si Si1 0.500000 0.000000 0.500000
Si Si2 0.143589 0.143589 0.500000
Si Si3 0.163334 0.351102 0.880822
Si Si4 0.692473 0.450054 0.258543
O O1 0.585091 0.919988 0.445251
O O2 0.213358 0.197898 0.423507
O O3 0.000000 0.169743 0.500000
O O4 0.205402 0.434999 0.808172
O O5 0.078340 0.245144 0.845599
O O6 0.646608 0.585478 0.248214
#
# Coordination Sequence:
#
# PCOD8306138 Si02
#       4
#     4   8  16  16
#     4  12  28  42  62 110 136 178 220 294 350 406
#     4  11  22  40  68 101 134 178 232 285 334 414
#     4  11  25  42  68  97 140 175 225 285 351 406
#     4  10  24  45  68  96 131 184 231 278 335 418
#
# _framework density 21.373265
#
# number of rings (size 3 to 8) (size 9 to 14) (size 15 to 20)
#    0.000    1.273    1.818    2.182    5.091    8.727 
#    0.000    0.000    0.000    0.000    0.000    0.000 
#    0.000    0.000    0.000    0.000    0.000    0.000 
#
# Total GULP energy -272686.959797 kJ/mol
# GULP energy per Si atom -12394.861809 kJ/mol
# Density = 2.132462 g / cm^3
# Si number density = 21.373265 Si / 1000 Ang^3
#
#
#
# Elastic Constant Matrix: (Units=GPa)
#
#
# Indices 1 2 3 4 5 6 
#
# 1 86.8886 47.7234 58.0761 0.0000 0.0000 0.0000
# 2 47.7234 86.8886 58.0761 0.0000 0.0000 0.0000
# 3 58.0761 58.0761 148.9482 0.0000 0.0000 0.0000
# 4 0.0000 0.0000 0.0000 45.0264 0.0000 0.0000
# 5 0.0000 0.0000 0.0000 0.0000 45.0264 0.0000
# 6 0.0000 0.0000 0.0000 0.0000 0.0000 7.1359
#
#
#
# Elastic Compliance Matrix: (Units=1/GPa)
#
#
# Indices 1 2 3 4 5 6 
#
# 1 0.018364 -0.007169 -0.004365 0.000000 0.000000 0.000000
# 2 -0.007169 0.018364 -0.004365 0.000000 0.000000 0.000000
# 3 -0.004365 -0.004365 0.010118 0.000000 0.000000 0.000000
# 4 0.000000 0.000000 0.000000 0.022209 0.000000 0.000000
# 5 0.000000 0.000000 0.000000 0.000000 0.022209 0.000000
# 6 0.000000 0.000000 0.000000 0.000000 0.000000 0.140137
#
#
# Mechanical properties :
#
#
# Convention : Reuss Voigt Hill
#
# Bulk Modulus (GPa) = 66.45498 72.27519 69.36509
# Shear Modulus (GPa) = 18.64176 30.02775 24.33476
#
# Velocity S-wave (km/s) = 2.95651 3.75229 3.37792
# Velocity P-wave (km/s) = 6.54329 7.25686 6.90929
#
# Compressibility (1/GPa) = 0.01504778
#
# Stress axis : x y z
#
# Youngs Moduli (GPa) = 54.45417 54.45417 98.83633
#
# Poissons Ratio (x) = 0.39037 0.43143
# Poissons Ratio (y) = 0.39037 0.43143
# Poissons Ratio (z) = 0.23770 0.23770
#
# Static dielectric constant tensor:
#      x y z
#    x 4.026450 0.000000 0.000000 
#    y 0.000000 4.026450 0.000000 
#    z 0.000000 0.000000 4.140180 
# 
# 
# High freq. dielectric constant tensor:
#      x y z
#    x 1.836530 0.000000 0.000000 
#    y 0.000000 1.836530 0.000000 
#    z 0.000000 0.000000 1.854140 
# 
# From -- ./inp_files/5269.got.cif
#   From: 2010.03.12/outbox.cif.g09.slc.cpg/sg97_3_cif.got.tgz:5269.got - 2010.04.08 20:59:42.
