data_PCOD8306380
_publ_section_title
;
Structure prediction by ZEFSAII (Michael W. Deem and Ramdas Pophale) SiO2 
 PCOD8306380
Probable space group: I 41 2 2
;
_chemical_formula_sum "Si O2"
_cell_formula_units_Z 60
_cell_length_a 11.107717
_cell_length_b 11.107717
_cell_length_c 18.873695
_cell_angle_alpha 90.000000
_cell_angle_beta 90.000000
_cell_angle_gamma 90.000000
_cell_volume 2328.662477
_symmetry_space_group_name_H-M "I 41 2 2"
_symmetry_group_IT_number 98
_symmetry_cell_setting 'tetragonal'
loop_
_space_group_symop_operation_xyz
x,y,z
-y,1/2+x,1/4+z
-x,-y,z
y,1/2-x,1/4+z
x,1/2-y,1/4-z
-x,1/2+y,1/4-z
y,x,-z
-y,-x,-z
1/2+x,1/2+y,1/2+z
1/2-y,x,3/4+z
1/2-x,1/2-y,1/2+z
1/2+y,-x,3/4+z
1/2+x,-y,3/4-z
1/2-x,y,3/4-z
1/2+y,1/2+x,1/2-z
1/2-y,1/2-x,1/2-z
loop_
_atom_site_type_symbol
_atom_site_label
_atom_site_fract_x
_atom_site_fract_y
_atom_site_fract_z
Si Si1 0.000000 0.000000 0.500000
Si Si2 0.963098 0.637168 0.020156
Si Si3 0.750000 0.533400 0.875000
Si Si4 0.560271 0.342054 0.874054
Si Si5 0.362856 0.750000 0.625000
Si Si6 0.704962 0.704962 0.000000
O O1 0.008188 0.877822 0.451606
O O2 0.829496 0.679708 0.042455
O O3 0.000000 0.500000 0.041667
O O4 0.054373 0.732667 0.055740
O O5 0.956054 0.661457 0.935098
O O6 0.646302 0.447330 0.843944
O O7 0.810502 0.604530 0.810720
O O8 0.629441 0.216126 0.872433
#
# Coordination Sequence:
#
# PCOD8306380 Si02
#       6
#     4  16   8  16   8   8
#     4  12  22  40  80 112 150 214 260 362 432 476
#     4  12  26  52  74 117 163 216 282 342 420 521
#     4  11  23  42  74 112 149 205 268 342 416 481
#     4  11  25  46  75 116 159 205 277 347 424 500
#     4  11  29  46  78 110 165 219 266 340 422 509
#     4  12  25  46  79 111 156 213 274 339 413 507
#
# _framework density 25.765865000000002
#
# number of rings (size 3 to 8) (size 9 to 14) (size 15 to 20)
#    0.000    0.533    4.000    2.400    7.467    6.400 
#    0.000    1.333    0.000    0.000    0.000    0.000 
#    0.000    0.000    0.000    0.000    0.000    0.000 
#
# Total GULP energy -371844.776239 kJ/mol
# GULP energy per Si atom -12394.825875 kJ/mol
# Density = 2.570722 g / cm^3
# Si number density = 25.765865 Si / 1000 Ang^3
#
#
#
# Elastic Constant Matrix: (Units=GPa)
#
#
# Indices 1 2 3 4 5 6 
#
# 1 138.7694 43.2072 32.6958 0.0000 0.0000 0.0000
# 2 43.2072 138.7694 32.6958 0.0000 0.0000 0.0000
# 3 32.6958 32.6958 156.7723 0.0000 0.0000 0.0000
# 4 0.0000 0.0000 0.0000 40.8754 0.0000 0.0000
# 5 0.0000 0.0000 0.0000 0.0000 40.8754 0.0000
# 6 0.0000 0.0000 0.0000 0.0000 0.0000 59.5700
#
#
#
# Elastic Compliance Matrix: (Units=1/GPa)
#
#
# Indices 1 2 3 4 5 6 
#
# 1 0.008202 -0.002262 -0.001239 0.000000 0.000000 0.000000
# 2 -0.002262 0.008202 -0.001239 0.000000 0.000000 0.000000
# 3 -0.001239 -0.001239 0.006895 0.000000 0.000000 0.000000
# 4 0.000000 0.000000 0.000000 0.024465 0.000000 0.000000
# 5 0.000000 0.000000 0.000000 0.000000 0.024465 0.000000
# 6 0.000000 0.000000 0.000000 0.000000 0.000000 0.016787
#
#
# Mechanical properties :
#
#
# Convention : Reuss Voigt Hill
#
# Bulk Modulus (GPa) = 72.35565 72.38984 72.37274
# Shear Modulus (GPa) = 48.49525 49.97831 49.23678
#
# Velocity S-wave (km/s) = 4.34308 4.40899 4.37616
# Velocity P-wave (km/s) = 7.30019 7.35358 7.32694
#
# Compressibility (1/GPa) = 0.01382062
#
# Stress axis : x y z
#
# Youngs Moduli (GPa) = 121.91563 121.91563 145.02343
#
# Poissons Ratio (x) = 0.27577 0.17967
# Poissons Ratio (y) = 0.27577 0.17967
# Poissons Ratio (z) = 0.15104 0.15104
#
# Static dielectric constant tensor:
#      x y z
#    x 4.936270 0.000000 0.000000 
#    y 0.000000 4.936270 0.000000 
#    z 0.000000 0.000000 4.469720 
# 
# 
# High freq. dielectric constant tensor:
#      x y z
#    x 2.049930 0.000000 0.000000 
#    y 0.000000 2.049930 0.000000 
#    z 0.000000 0.000000 2.026910 
# 
# From -- ./inp_files/8628.got.cif
#   From: 2010.03.12/outbox.cif.g09.slc.cpg/sg98_5_cif.got.tgz:8628.got - 2010.04.08 21:04:41.
