data_PCOD8306209
_publ_section_title
;
Structure prediction by ZEFSAII (Michael W. Deem and Ramdas Pophale) SiO2 
 PCOD8306209
Probable space group: I 41 2 2
;
_chemical_formula_sum "Si O2"
_cell_formula_units_Z 96
_cell_length_a 16.832718
_cell_length_b 16.832718
_cell_length_c 20.186008
_cell_angle_alpha 90.000000
_cell_angle_beta 90.000000
_cell_angle_gamma 90.000000
_cell_volume 5719.511486
_symmetry_space_group_name_H-M "I 41 2 2"
_symmetry_group_IT_number 98
_symmetry_cell_setting 'tetragonal'
loop_
_space_group_symop_operation_xyz
x,y,z
-y,1/2+x,1/4+z
-x,-y,z
y,1/2-x,1/4+z
x,1/2-y,1/4-z
-x,1/2+y,1/4-z
y,x,-z
-y,-x,-z
1/2+x,1/2+y,1/2+z
1/2-y,x,3/4+z
1/2-x,1/2-y,1/2+z
1/2+y,-x,3/4+z
1/2+x,-y,3/4-z
1/2-x,y,3/4-z
1/2+y,1/2+x,1/2-z
1/2-y,1/2-x,1/2-z
loop_
_atom_site_type_symbol
_atom_site_label
_atom_site_fract_x
_atom_site_fract_y
_atom_site_fract_z
Si Si1 0.032329 0.615516 0.692922
Si Si2 0.428729 0.590297 0.205577
Si Si3 0.416541 0.394641 0.769084
Si Si4 0.161751 0.365401 0.847921
Si Si5 0.211592 0.297403 0.445428
Si Si6 0.751756 0.157237 0.300599
O O1 0.052353 0.552353 0.750000
O O2 0.056965 0.576627 0.622930
O O3 0.079591 0.697037 0.704186
O O4 0.939160 0.635604 0.697641
O O5 0.391355 0.511792 0.238699
O O6 0.513999 0.611830 0.237327
O O7 0.367272 0.659999 0.220363
O O8 0.396142 0.356928 0.839831
O O9 0.372570 0.343081 0.713143
O O10 0.250000 0.381200 0.875000
O O11 0.157728 0.282686 0.807695
O O12 0.280815 0.280815 0.500000
O O13 0.250000 0.316849 0.375000
O O14 0.750000 0.192216 0.375000
O O15 0.725074 0.225074 0.250000
#
# Coordination Sequence:
#
# PCOD8306209 Si02
#       6
#    16  16  16  16  16  16
#     4   9  17  30  50  78 112 146 172 202 247 316
#     4   9  19  34  54  72 107 142 173 214 262 324
#     4  10  19  36  51  75 104 140 180 212 259 320
#     4  10  18  32  51  74 111 145 176 211 257 316
#     4  11  21  35  52  79 105 143 183 223 268 310
#     4   9  17  32  51  76 102 133 172 212 256 310
#
# _framework density 16.784649999999999
#
# number of rings (size 3 to 8) (size 9 to 14) (size 15 to 20)
#    0.000    2.333    3.333    2.500    0.000    1.333 
#    6.000    6.667    0.000    0.000    0.000    2.333 
#    0.000    0.000    0.000    0.000    0.000    0.000 
#
# Total GULP energy -595130.962954 kJ/mol
# GULP energy per Si atom -12398.561728 kJ/mol
# Density = 1.674645 g / cm^3
# Si number density = 16.784650 Si / 1000 Ang^3
#
#
#
# Elastic Constant Matrix: (Units=GPa)
#
#
# Indices 1 2 3 4 5 6 
#
# 1 106.5450 55.8020 52.4441 0.0000 0.0000 0.0000
# 2 55.8020 106.5449 52.4441 0.0000 0.0000 0.0000
# 3 52.4441 52.4441 90.8817 0.0000 0.0000 0.0000
# 4 0.0000 0.0000 0.0000 30.5112 0.0000 0.0000
# 5 0.0000 0.0000 0.0000 0.0000 30.5112 0.0000
# 6 0.0000 0.0000 0.0000 0.0000 0.0000 30.3257
#
#
#
# Elastic Compliance Matrix: (Units=1/GPa)
#
#
# Indices 1 2 3 4 5 6 
#
# 1 0.014764 -0.004943 -0.005667 0.000000 0.000000 0.000000
# 2 -0.004943 0.014764 -0.005667 0.000000 0.000000 0.000000
# 3 -0.005667 -0.005667 0.017544 0.000000 0.000000 0.000000
# 4 0.000000 0.000000 0.000000 0.032775 0.000000 0.000000
# 5 0.000000 0.000000 0.000000 0.000000 0.032775 0.000000
# 6 0.000000 0.000000 0.000000 0.000000 0.000000 0.032975
#
#
# Mechanical properties :
#
#
# Convention : Reuss Voigt Hill
#
# Bulk Modulus (GPa) = 68.88503 69.48355 69.18429
# Shear Modulus (GPa) = 27.32357 27.82173 27.57265
#
# Velocity S-wave (km/s) = 4.03909 4.07574 4.05746
# Velocity P-wave (km/s) = 7.92981 7.97721 7.95355
#
# Compressibility (1/GPa) = 0.01451694
#
# Stress axis : x y z
#
# Youngs Moduli (GPa) = 67.73141 67.73141 56.99890
#
# Poissons Ratio (x) = 0.33479 0.32304
# Poissons Ratio (y) = 0.33479 0.32304
# Poissons Ratio (z) = 0.38386 0.38386
#
# Static dielectric constant tensor:
#      x y z
#    x 3.113750 0.000000 0.000000 
#    y 0.000000 3.113750 0.000000 
#    z 0.000000 0.000000 3.056810 
# 
# 
# High freq. dielectric constant tensor:
#      x y z
#    x 1.637140 0.000000 0.000000 
#    y 0.000000 1.637140 0.000000 
#    z 0.000000 0.000000 1.631330 
# 
# From -- ./inp_files/9059.got.cif
#   From: 2010.03.12/outbox.cif.g09.slc.cpg/sg98_5_cif.got.tgz:9059.got - 2010.04.08 21:04:41.
