data_PCOD8306648
_publ_section_title
;
Structure prediction by ZEFSAII (Michael W. Deem and Ramdas Pophale) SiO2 
 PCOD8306648
Probable space group: P 4 B M
;
_chemical_formula_sum "Si O2"
_cell_formula_units_Z 64
_cell_length_a 16.067920
_cell_length_b 16.067920
_cell_length_c 12.777389
_cell_angle_alpha 90.000000
_cell_angle_beta 90.000000
_cell_angle_gamma 90.000000
_cell_volume 3298.841416
_symmetry_space_group_name_H-M "P 4 B M"
_symmetry_group_IT_number 100
_symmetry_cell_setting 'tetragonal'
loop_
_space_group_symop_operation_xyz
x,y,z
-y,x,z
-x,-y,z
y,-x,z
1/2-x,1/2+y,z
1/2+x,1/2-y,z
1/2-y,1/2-x,z
1/2+y,1/2+x,z
loop_
_atom_site_type_symbol
_atom_site_label
_atom_site_fract_x
_atom_site_fract_y
_atom_site_fract_z
Si Si1 0.500784 0.135951 0.358090
Si Si2 0.135967 0.503773 0.937413
Si Si3 0.808572 0.171165 0.605270
Si Si4 0.201195 0.435366 0.143692
Si Si5 0.437889 0.619137 0.440335
Si Si6 0.878214 0.057327 0.198403
Si Si7 0.305079 0.057031 0.569811
Si Si8 0.792760 0.571089 0.746243
O O1 0.423240 0.076761 0.333181
O O2 0.517978 0.187759 0.253365
O O3 0.477894 0.201388 0.450540
O O4 0.580825 0.080825 0.390584
O O5 0.095676 0.595676 0.921605
O O6 0.208854 0.486905 0.850421
O O7 0.063256 0.436745 0.927165
O O8 0.176896 0.498813 0.051686
O O9 0.731160 0.231160 0.581298
O O10 0.809689 0.103393 0.511758
O O11 0.894012 0.222806 0.608100
O O12 0.793327 0.119484 0.714224
O O13 0.149236 0.350765 0.135178
O O14 0.298563 0.410966 0.133285
O O15 0.389859 0.534173 0.468595
O O16 0.427856 0.641759 0.319739
O O17 0.960307 0.108767 0.169737
O O18 0.385163 0.114838 0.575537
O O19 0.322309 0.981967 0.647492
O O20 0.860380 0.639621 0.770878
#
# Coordination Sequence:
#
# PCOD8306648 Si02
#       8
#     8   8   8   8   8   8   8   8
#     4   9  18  31  48  75 111 146 177 218 280 347
#     4   9  18  35  58  81 107 142 183 225 275 337
#     4  10  21  32  47  76 110 141 174 224 284 330
#     4  10  20  34  56  83 109 140 184 241 290 332
#     4   9  18  33  53  72  97 140 186 220 252 315
#     4   9  20  37  55  76 107 150 191 225 271 337
#     4  10  20  33  49  75 109 143 174 216 274 334
#     4  10  20  34  54  77 103 141 186 229 272 330
#
# _framework density 19.400751
#
# number of rings (size 3 to 8) (size 9 to 14) (size 15 to 20)
#    0.000    2.500    0.000    2.625    5.250    3.250 
#    0.000    2.500    0.000    1.500    0.000    1.750 
#    0.000    0.000    0.000    0.000    0.000    0.000 
#
# Total GULP energy -793231.486050 kJ/mol
# GULP energy per Si atom -12394.241970 kJ/mol
# Density = 1.935659 g / cm^3
# Si number density = 19.400751 Si / 1000 Ang^3
#
#
#
# Elastic Constant Matrix: (Units=GPa)
#
#
# Indices 1 2 3 4 5 6 
#
# 1 70.5458 20.3766 32.2283 0.0000 0.0000 0.0004
# 2 20.3766 70.5458 32.2283 0.0000 0.0000 -0.0004
# 3 32.2283 32.2283 81.5948 0.0000 0.0000 0.0000
# 4 0.0000 0.0000 0.0000 24.2113 0.0000 0.0000
# 5 0.0000 0.0000 0.0000 0.0000 24.2113 0.0000
# 6 0.0004 -0.0004 0.0000 0.0000 0.0000 17.0907
#
#
#
# Elastic Compliance Matrix: (Units=1/GPa)
#
#
# Indices 1 2 3 4 5 6 
#
# 1 0.017604 -0.002328 -0.006034 0.000000 0.000000 0.000000
# 2 -0.002328 0.017604 -0.006034 0.000000 0.000000 0.000000
# 3 -0.006034 -0.006034 0.017022 0.000000 0.000000 0.000000
# 4 0.000000 0.000000 0.000000 0.041303 0.000000 0.000000
# 5 0.000000 0.000000 0.000000 0.000000 0.041303 0.000000
# 6 0.000000 0.000000 0.000000 0.000000 0.000000 0.058511
#
#
# Mechanical properties :
#
#
# Convention : Reuss Voigt Hill
#
# Bulk Modulus (GPa) = 42.66388 43.59474 43.12931
# Shear Modulus (GPa) = 21.74368 22.29287 22.01828
#
# Velocity S-wave (km/s) = 3.35141 3.39348 3.37251
# Velocity P-wave (km/s) = 6.08396 6.15416 6.11916
#
# Compressibility (1/GPa) = 0.02343903
#
# Stress axis : x y z
#
# Youngs Moduli (GPa) = 56.80480 56.80480 58.74758
#
# Poissons Ratio (x) = 0.13227 0.35446
# Poissons Ratio (y) = 0.13227 0.35446
# Poissons Ratio (z) = 0.34274 0.34274
#
# Static dielectric constant tensor:
#      x y z
#    x 3.542800 0.000000 0.000000 
#    y 0.000000 3.542800 0.000000 
#    z 0.000000 0.000000 3.493900 
# 
# 
# High freq. dielectric constant tensor:
#      x y z
#    x 1.749370 0.000000 0.000000 
#    y 0.000000 1.749370 0.000000 
#    z 0.000000 0.000000 1.736490 
# 
# From -- ./inp_files/1385.got.cif
#   From: 2010.03.12/outbox.cif.g09.slc.cpg/sg100_cif.got.tgz:1385.got - 2010.04.14 01:37:57.
