data_PCOD8306615
_publ_section_title
;
Structure prediction by ZEFSAII (Michael W. Deem and Ramdas Pophale) SiO2 
 PCOD8306615
Probable space group: P 4 M M
;
_chemical_formula_sum "Si O2"
_cell_formula_units_Z 56
_cell_length_a 13.398766
_cell_length_b 13.398766
_cell_length_c 18.078959
_cell_angle_alpha 90.000000
_cell_angle_beta 90.000000
_cell_angle_gamma 90.000000
_cell_volume 3245.660013
_symmetry_space_group_name_H-M "P 4 M M"
_symmetry_group_IT_number 99
_symmetry_cell_setting 'tetragonal'
loop_
_space_group_symop_operation_xyz
x,y,z
-y,x,z
-x,-y,z
y,-x,z
-x,y,z
x,-y,z
-y,-x,z
y,x,z
loop_
_atom_site_type_symbol
_atom_site_label
_atom_site_fract_x
_atom_site_fract_y
_atom_site_fract_z
Si Si1 0.615529 0.776684 0.017940
Si Si2 0.279235 0.885461 0.305161
Si Si3 0.225941 0.387257 0.185860
Si Si4 0.780176 0.616210 0.756890
Si Si5 0.887313 0.271777 0.465156
Si Si6 0.882613 0.718363 0.625873
Si Si7 0.116445 0.279744 0.890791
O O1 0.500000 0.759689 0.998131
O O2 0.671645 0.671645 0.003381
O O3 0.630490 0.812534 0.102370
O O4 0.662798 0.862712 0.967396
O O5 0.181033 0.818968 0.292081
O O6 0.361150 0.862162 0.242833
O O7 0.328922 0.864604 0.387259
O O8 0.246682 0.000000 0.297425
O O9 0.259771 0.500000 0.197454
O O10 0.322746 0.322746 0.204557
O O11 0.754275 0.500000 0.763048
O O12 0.676165 0.676165 0.757804
O O13 0.841605 0.635863 0.681939
O O14 0.849624 0.648525 0.824730
O O15 0.832218 0.167783 0.463074
O O16 0.862428 0.327743 0.542832
O O17 0.000000 0.238200 0.467387
O O18 0.822686 0.822686 0.637267
O O19 0.000000 0.738517 0.640002
O O20 0.174909 0.174909 0.887353
O O21 0.000000 0.255681 0.884142
#
# Coordination Sequence:
#
# PCOD8306615 Si02
#       7
#     8   8   8   8   8   8   8
#     4   9  18  32  50  73  98 123 154 192 235 283
#     4   9  17  29  45  66  93 124 157 193 233 278
#     4   9  18  32  49  69  93 121 154 194 239 284
#     4  10  21  36  53  73  96 123 157 196 237 280
#     4   8  14  25  41  62  90 122 154 190 231 274
#     4   9  17  29  46  70  98 126 157 191 229 277
#     4  10  21  36  53  74 100 129 161 194 227 268
#
# _framework density 17.253810000000001
#
# number of rings (size 3 to 8) (size 9 to 14) (size 15 to 20)
#    0.000    2.857    0.000    0.857    0.000    3.857 
#    0.000    6.429    0.000    7.714    0.000    4.000 
#    0.000    5.714    0.000    0.000    0.000    0.000 
#
# Total GULP energy -693919.647092 kJ/mol
# GULP energy per Si atom -12391.422269 kJ/mol
# Density = 1.721454 g / cm^3
# Si number density = 17.253810 Si / 1000 Ang^3
#
#
#
# Elastic Constant Matrix: (Units=GPa)
#
#
# Indices 1 2 3 4 5 6 
#
# 1 96.0938 37.2734 54.4030 0.0000 0.0000 0.0003
# 2 37.2734 96.0938 54.4030 0.0000 0.0000 -0.0003
# 3 54.4030 54.4030 133.6657 0.0000 0.0000 0.0000
# 4 0.0000 0.0000 0.0000 22.2667 0.0000 0.0000
# 5 0.0000 0.0000 0.0000 0.0000 22.2667 0.0000
# 6 0.0003 -0.0003 0.0000 0.0000 0.0000 10.4149
#
#
#
# Elastic Compliance Matrix: (Units=1/GPa)
#
#
# Indices 1 2 3 4 5 6 
#
# 1 0.014113 -0.002888 -0.004569 0.000000 0.000000 0.000000
# 2 -0.002888 0.014113 -0.004569 0.000000 0.000000 0.000000
# 3 -0.004569 -0.004569 0.011200 0.000000 0.000000 0.000000
# 4 0.000000 0.000000 0.000000 0.044910 0.000000 0.000000
# 5 0.000000 0.000000 0.000000 0.000000 0.044910 0.000000
# 6 0.000000 0.000000 0.000000 0.000000 0.000000 0.096017
#
#
# Mechanical properties :
#
#
# Convention : Reuss Voigt Hill
#
# Bulk Modulus (GPa) = 65.03615 68.66801 66.85208
# Shear Modulus (GPa) = 19.65099 22.97458 21.31278
#
# Velocity S-wave (km/s) = 3.37847 3.65302 3.51843
# Velocity P-wave (km/s) = 7.27973 7.59460 7.43883
#
# Compressibility (1/GPa) = 0.01537606
#
# Stress axis : x y z
#
# Youngs Moduli (GPa) = 70.85548 70.85548 89.28175
#
# Poissons Ratio (x) = 0.20461 0.40792
# Poissons Ratio (y) = 0.20461 0.40792
# Poissons Ratio (z) = 0.32373 0.32373
#
# Static dielectric constant tensor:
#      x y z
#    x 3.013270 0.000000 0.000000 
#    y 0.000000 3.013270 0.000000 
#    z 0.000000 0.000000 3.793470 
# 
# 
# High freq. dielectric constant tensor:
#      x y z
#    x 1.646580 0.000000 0.000000 
#    y 0.000000 1.646580 0.000000 
#    z 0.000000 0.000000 1.693210 
# 
# From -- ./inp_files/2140.got.cif
#   From: 2010.03.12/outbox.cif.g09.slc.cpg/sg99_cif.got.tgz:2140.got - 2010.04.08 21:11:30.
