data_PCOD8306444
_publ_section_title
;
Structure prediction by ZEFSAII (Michael W. Deem and Ramdas Pophale) SiO2 
 PCOD8306444
Probable space group: P 4 M M
;
_chemical_formula_sum "Si O2"
_cell_formula_units_Z 64
_cell_length_a 14.284607
_cell_length_b 14.284607
_cell_length_c 20.369251
_cell_angle_alpha 90.000000
_cell_angle_beta 90.000000
_cell_angle_gamma 90.000000
_cell_volume 4156.345608
_symmetry_space_group_name_H-M "P 4 M M"
_symmetry_group_IT_number 99
_symmetry_cell_setting 'tetragonal'
loop_
_space_group_symop_operation_xyz
x,y,z
-y,x,z
-x,-y,z
y,-x,z
-x,y,z
x,-y,z
-y,-x,z
y,x,z
loop_
_atom_site_type_symbol
_atom_site_label
_atom_site_fract_x
_atom_site_fract_y
_atom_site_fract_z
Si Si1 0.757011 0.607752 0.034600
Si Si2 0.108523 0.393071 0.770516
Si Si3 0.109548 0.736332 0.650037
Si Si4 0.237274 0.609741 0.404135
Si Si5 0.895326 0.389073 0.289120
Si Si6 0.103743 0.388857 0.143091
Si Si7 0.393262 0.107003 0.527346
Si Si8 0.241375 0.393098 0.887189
O O1 0.737997 0.500000 0.050432
O O2 0.657761 0.657761 0.042299
O O3 0.829042 0.652507 0.086896
O O4 0.797468 0.622499 0.961107
O O5 0.131477 0.500000 0.750202
O O6 0.140909 0.325365 0.712196
O O7 0.160492 0.363261 0.837056
O O8 0.000000 0.380542 0.785579
O O9 0.167715 0.832286 0.648683
O O10 0.133157 0.675589 0.586177
O O11 0.000000 0.762315 0.653207
O O12 0.261587 0.500000 0.397543
O O13 0.334420 0.665581 0.409224
O O14 0.179134 0.648768 0.341746
O O15 0.174721 0.630345 0.467525
O O16 0.900331 0.500000 0.295257
O O17 0.861768 0.359395 0.215988
O O18 0.000000 0.349025 0.302952
O O19 0.100850 0.500000 0.137407
O O20 0.000000 0.348257 0.130872
O O21 0.500000 0.120975 0.551579
O O22 0.378143 0.000000 0.504107
O O23 0.271816 0.500000 0.876794
O O24 0.333116 0.333116 0.872813
#
# Coordination Sequence:
#
# PCOD8306444 Si02
#       8
#     8   8   8   8   8   8   8   8
#     4   9  17  27  39  57  82 112 142 169 199 239
#     4   9  17  29  45  64  83 104 134 172 212 250
#     4  10  19  30  45  64  87 113 137 164 201 247
#     4  10  19  29  42  61  86 115 143 169 199 239
#     4   8  14  26  43  60  77 100 133 173 212 242
#     4   8  14  25  41  59  78 101 131 169 211 247
#     4   9  17  30  48  67  84 104 136 178 216 244
#     4   9  17  28  41  58  81 109 140 172 204 240
#
# _framework density 15.398142
#
# number of rings (size 3 to 8) (size 9 to 14) (size 15 to 20)
#    0.000    3.000    0.000    2.250    0.000    4.500 
#    0.000    3.750    0.000    0.000    0.000    3.500 
#    0.000   11.500    0.000    8.250    0.000    4.750 
#
# Total GULP energy -793344.028722 kJ/mol
# GULP energy per Si atom -12396.000449 kJ/mol
# Density = 1.536309 g / cm^3
# Si number density = 15.398142 Si / 1000 Ang^3
#
#
#
# Elastic Constant Matrix: (Units=GPa)
#
#
# Indices 1 2 3 4 5 6 
#
# 1 67.6391 44.5833 56.9098 0.0000 0.0000 -0.0001
# 2 44.5833 67.6391 56.9098 0.0000 0.0000 0.0001
# 3 56.9098 56.9098 121.9927 0.0000 0.0000 0.0000
# 4 0.0000 0.0000 0.0000 20.9680 0.0000 0.0000
# 5 0.0000 0.0000 0.0000 0.0000 20.9680 0.0000
# 6 -0.0001 0.0001 0.0000 0.0000 0.0000 20.1733
#
#
#
# Elastic Compliance Matrix: (Units=1/GPa)
#
#
# Indices 1 2 3 4 5 6 
#
# 1 0.030143 -0.013230 -0.007890 0.000000 0.000000 0.000000
# 2 -0.013230 0.030143 -0.007890 0.000000 0.000000 0.000000
# 3 -0.007890 -0.007890 0.015559 0.000000 0.000000 0.000000
# 4 0.000000 0.000000 0.000000 0.047692 0.000000 0.000000
# 5 0.000000 0.000000 0.000000 0.000000 0.047692 0.000000
# 6 0.000000 0.000000 0.000000 0.000000 0.000000 0.049570
#
#
# Mechanical properties :
#
#
# Convention : Reuss Voigt Hill
#
# Bulk Modulus (GPa) = 56.10125 63.78630 59.94378
# Shear Modulus (GPa) = 17.55862 19.01306 18.28584
#
# Velocity S-wave (km/s) = 3.38051 3.51773 3.44980
# Velocity P-wave (km/s) = 7.19375 7.61668 7.40823
#
# Compressibility (1/GPa) = 0.01782491
#
# Stress axis : x y z
#
# Youngs Moduli (GPa) = 33.17505 33.17505 64.27280
#
# Poissons Ratio (x) = 0.43890 0.50712
# Poissons Ratio (y) = 0.43890 0.50712
# Poissons Ratio (z) = 0.26175 0.26175
#
# Static dielectric constant tensor:
#      x y z
#    x 2.802380 0.000000 0.000000 
#    y 0.000000 2.802380 0.000000 
#    z 0.000000 0.000000 3.196480 
# 
# 
# High freq. dielectric constant tensor:
#      x y z
#    x 1.568960 0.000000 0.000000 
#    y 0.000000 1.568960 0.000000 
#    z 0.000000 0.000000 1.605550 
# 
# From -- ./inp_files/2045.got.cif
#   From: 2010.03.12/outbox.cif.g09.slc.cpg/sg99_cif.got.tgz:2045.got - 2010.04.08 21:11:30.
