data_PCOD8306454
_publ_section_title
;
Structure prediction by ZEFSAII (Michael W. Deem and Ramdas Pophale) SiO2 
 PCOD8306454
Probable space group: P 4 M M
;
_chemical_formula_sum "Si O2"
_cell_formula_units_Z 48
_cell_length_a 13.702908
_cell_length_b 13.702908
_cell_length_c 15.414744
_cell_angle_alpha 90.000000
_cell_angle_beta 90.000000
_cell_angle_gamma 90.000000
_cell_volume 2894.421666
_symmetry_space_group_name_H-M "P 4 M M"
_symmetry_group_IT_number 99
_symmetry_cell_setting 'tetragonal'
loop_
_space_group_symop_operation_xyz
x,y,z
-y,x,z
-x,-y,z
y,-x,z
-x,y,z
x,-y,z
-y,-x,z
y,x,z
loop_
_atom_site_type_symbol
_atom_site_label
_atom_site_fract_x
_atom_site_fract_y
_atom_site_fract_z
Si Si1 0.889441 0.387066 0.897520
Si Si2 0.773963 0.385262 0.069475
Si Si3 0.114489 0.731907 0.728896
Si Si4 0.115587 0.272850 0.212079
Si Si5 0.884119 0.608951 0.568569
Si Si6 0.884436 0.608762 0.376984
O O1 0.883424 0.500000 0.873317
O O2 0.855019 0.329575 0.812862
O O3 0.000000 0.358478 0.924001
O O4 0.817687 0.360438 0.975604
O O5 0.753860 0.500000 0.081257
O O6 0.672235 0.327766 0.081573
O O7 0.853706 0.350773 0.139348
O O8 0.161978 0.838023 0.735342
O O9 0.157374 0.678609 0.643464
O O10 0.000000 0.747774 0.722703
O O11 0.169659 0.169659 0.197175
O O12 0.151610 0.315878 0.304296
O O13 0.000000 0.254566 0.207778
O O14 0.843105 0.500000 0.583592
O O15 0.851747 0.646042 0.472676
O O16 0.000000 0.606620 0.575353
O O17 0.841551 0.500000 0.359667
O O18 0.000000 0.601733 0.372743
#
# Coordination Sequence:
#
# PCOD8306454 Si02
#       6
#     8   8   8   8   8   8
#     4   9  17  30  49  70  89 112 146 188 231 272
#     4  10  20  33  50  72  96 121 150 186 230 281
#     4  10  19  29  42  61  88 121 153 185 221 265
#     4  10  20  32  47  68  94 125 160 195 230 270
#     4   8  14  26  44  64  84 108 143 188 232 266
#     4   8  14  26  45  66  86 110 143 185 230 272
#
# _framework density 16.583624
#
# number of rings (size 3 to 8) (size 9 to 14) (size 15 to 20)
#    0.000    2.833    0.000    3.000    0.000    4.833 
#    0.000    0.000    0.000    0.000    0.000    7.000 
#    0.000    3.000    0.000   12.333    0.000    1.333 
#
# Total GULP energy -594998.420051 kJ/mol
# GULP energy per Si atom -12395.800418 kJ/mol
# Density = 1.654588 g / cm^3
# Si number density = 16.583624 Si / 1000 Ang^3
#
#
#
# Elastic Constant Matrix: (Units=GPa)
#
#
# Indices 1 2 3 4 5 6 
#
# 1 68.6740 39.7151 47.3979 0.0000 0.0000 0.0003
# 2 39.7151 68.6740 47.3979 0.0000 0.0000 -0.0003
# 3 47.3979 47.3979 124.8147 0.0000 0.0000 0.0000
# 4 0.0000 0.0000 0.0000 18.5415 0.0000 0.0000
# 5 0.0000 0.0000 0.0000 0.0000 18.5415 0.0000
# 6 0.0003 -0.0003 0.0000 0.0000 0.0000 16.6581
#
#
#
# Elastic Compliance Matrix: (Units=1/GPa)
#
#
# Indices 1 2 3 4 5 6 
#
# 1 0.024173 -0.010359 -0.005246 0.000000 0.000000 -0.000001
# 2 -0.010359 0.024173 -0.005246 0.000000 0.000000 0.000001
# 3 -0.005246 -0.005246 0.011996 0.000000 0.000000 0.000000
# 4 0.000000 0.000000 0.000000 0.053933 0.000000 0.000000
# 5 0.000000 0.000000 0.000000 0.000000 0.053933 0.000000
# 6 -0.000001 0.000001 0.000000 0.000000 0.000000 0.060031
#
#
# Mechanical properties :
#
#
# Convention : Reuss Voigt Hill
#
# Bulk Modulus (GPa) = 53.64601 59.02051 56.33326
# Shear Modulus (GPa) = 18.10591 19.25835 18.68213
#
# Velocity S-wave (km/s) = 3.30782 3.41146 3.36004
# Velocity P-wave (km/s) = 6.85623 7.15432 7.00686
#
# Compressibility (1/GPa) = 0.01864071
#
# Stress axis : x y z
#
# Youngs Moduli (GPa) = 41.36880 41.36880 83.36098
#
# Poissons Ratio (x) = 0.42853 0.43729
# Poissons Ratio (y) = 0.42853 0.43729
# Poissons Ratio (z) = 0.21701 0.21701
#
# Static dielectric constant tensor:
#      x y z
#    x 2.883920 0.000000 0.000000 
#    y 0.000000 2.883920 0.000000 
#    z 0.000000 0.000000 3.448460 
# 
# 
# High freq. dielectric constant tensor:
#      x y z
#    x 1.615150 0.000000 0.000000 
#    y 0.000000 1.615150 0.000000 
#    z 0.000000 0.000000 1.658690 
# 
# From -- ./inp_files/1956.got.cif
#   From: 2010.03.12/outbox.cif.g09.slc.cpg/sg99_cif.got.tgz:1956.got - 2010.04.08 21:11:30.
