data_PCOD8306993
_publ_section_title
;
Structure prediction by ZEFSAII (Michael W. Deem and Ramdas Pophale) SiO2 
 PCOD8306993
Probable space group: P 4 C C
;
_chemical_formula_sum "Si O2"
_cell_formula_units_Z 48
_cell_length_a 8.448013
_cell_length_b 8.448013
_cell_length_c 32.611821
_cell_angle_alpha 90.000000
_cell_angle_beta 90.000000
_cell_angle_gamma 90.000000
_cell_volume 2327.470563
_symmetry_space_group_name_H-M "P 4 C C"
_symmetry_group_IT_number 103
_symmetry_cell_setting 'tetragonal'
loop_
_space_group_symop_operation_xyz
x,y,z
-y,x,z
-x,-y,z
y,-x,z
-x,y,1/2+z
x,-y,1/2+z
-y,-x,1/2+z
y,x,1/2+z
loop_
_atom_site_type_symbol
_atom_site_label
_atom_site_fract_x
_atom_site_fract_y
_atom_site_fract_z
Si Si1 0.943735 0.255950 0.448940
Si Si2 0.742814 0.953830 0.669732
Si Si3 0.253575 0.420574 0.013270
Si Si4 0.488502 0.242967 0.810567
Si Si5 0.500000 0.000000 0.239840
Si Si6 0.500000 0.000000 0.380116
Si Si7 0.422797 0.252471 0.607738
O O1 0.899518 0.374022 0.486270
O O2 0.118713 0.186442 0.451592
O O3 0.936728 0.353241 0.406863
O O4 0.654801 0.961391 0.713104
O O5 0.617435 0.903306 0.634530
O O6 0.874914 0.818875 0.665137
O O7 0.400297 0.304418 0.003118
O O8 0.203664 0.404202 0.060479
O O9 0.649776 0.336294 0.811702
O O10 0.513574 0.151238 0.768436
O O11 0.452499 0.142283 0.850806
O O12 0.601598 0.305305 0.617881
#
# Coordination Sequence:
#
# PCOD8306993 Si02
#       7
#     8   8   8   8   4   4   8
#     4  11  23  37  56  85 119 155 195 239 292 354
#     4  11  23  37  56  85 119 155 195 239 292 354
#     4   9  19  37  60  85 115 155 203 252 300 347
#     4  10  22  40  64  90 112 142 188 236 282 342
#     4  11  22  40  61  84 118 152 183 230 292 351
#     4  11  22  40  61  84 118 152 183 230 292 351
#     4   9  19  37  60  85 115 155 203 252 300 347
#
# _framework density 20.623245000000001
#
# number of rings (size 3 to 8) (size 9 to 14) (size 15 to 20)
#    0.000    1.833    0.000    5.000    0.000    1.333 
#    0.000    9.167    0.000    8.000    0.000    0.000 
#    0.000    0.000    0.000    0.000    0.000    0.000 
#
# Total GULP energy -594944.341209 kJ/mol
# GULP energy per Si atom -12394.673775 kJ/mol
# Density = 2.057631 g / cm^3
# Si number density = 20.623245 Si / 1000 Ang^3
#
#
#
# Elastic Constant Matrix: (Units=GPa)
#
#
# Indices 1 2 3 4 5 6 
#
# 1 64.9053 13.5020 35.3270 0.0000 0.0000 0.0000
# 2 13.5020 64.9053 35.3270 0.0000 0.0000 0.0000
# 3 35.3270 35.3270 124.8980 0.0000 0.0000 0.0000
# 4 0.0000 0.0000 0.0000 30.9651 0.0000 0.0000
# 5 0.0000 0.0000 0.0000 0.0000 30.9651 0.0000
# 6 0.0000 0.0000 0.0000 0.0000 0.0000 33.5865
#
#
#
# Elastic Compliance Matrix: (Units=1/GPa)
#
#
# Indices 1 2 3 4 5 6 
#
# 1 0.018285 -0.001169 -0.004841 0.000000 0.000000 0.000000
# 2 -0.001169 0.018285 -0.004841 0.000000 0.000000 0.000000
# 3 -0.004841 -0.004841 0.010745 0.000000 0.000000 0.000000
# 4 0.000000 0.000000 0.000000 0.032294 0.000000 0.000000
# 5 0.000000 0.000000 0.000000 0.000000 0.032294 0.000000
# 6 0.000000 0.000000 0.000000 0.000000 0.000000 0.029774
#
#
# Mechanical properties :
#
#
# Convention : Reuss Voigt Hill
#
# Bulk Modulus (GPa) = 39.04282 47.00231 43.02256
# Shear Modulus (GPa) = 29.08343 30.47349 29.77846
#
# Velocity S-wave (km/s) = 3.75937 3.84816 3.80403
# Velocity P-wave (km/s) = 6.14950 6.52571 6.34040
#
# Compressibility (1/GPa) = 0.02561290
#
# Stress axis : x y z
#
# Youngs Moduli (GPa) = 54.68878 54.68878 93.06423
#
# Poissons Ratio (x) = 0.06392 0.45056
# Poissons Ratio (y) = 0.06392 0.45056
# Poissons Ratio (z) = 0.26477 0.26477
#
# Static dielectric constant tensor:
#      x y z
#    x 3.755460 0.000000 0.000000 
#    y 0.000000 3.755460 0.000000 
#    z 0.000000 0.000000 3.720060 
# 
# 
# High freq. dielectric constant tensor:
#      x y z
#    x 1.818170 0.000000 0.000000 
#    y 0.000000 1.818170 0.000000 
#    z 0.000000 0.000000 1.807380 
# 
# From -- ./inp_files/1583.got.cif
#   From: 2010.03.12/outbox.cif.g09.slc.cpg/sg103_cif.got.tgz:1583.got - 2010.04.14 01:42:52.
