data_PCOD8306571
_publ_section_title
;
Structure prediction by ZEFSAII (Michael W. Deem and Ramdas Pophale) SiO2 
 PCOD8306571
Probable space group: P 4 M M
;
_chemical_formula_sum "Si O2"
_cell_formula_units_Z 64
_cell_length_a 13.509359
_cell_length_b 13.509359
_cell_length_c 20.317959
_cell_angle_alpha 90.000000
_cell_angle_beta 90.000000
_cell_angle_gamma 90.000000
_cell_volume 3708.084013
_symmetry_space_group_name_H-M "P 4 M M"
_symmetry_group_IT_number 99
_symmetry_cell_setting 'tetragonal'
loop_
_space_group_symop_operation_xyz
x,y,z
-y,x,z
-x,-y,z
y,-x,z
-x,y,z
x,-y,z
-y,-x,z
y,x,z
loop_
_atom_site_type_symbol
_atom_site_label
_atom_site_fract_x
_atom_site_fract_y
_atom_site_fract_z
Si Si1 0.885927 0.613341 0.812030
Si Si2 0.113769 0.274068 0.199048
Si Si3 0.115948 0.276338 0.679363
Si Si4 0.222981 0.383625 0.566922
Si Si5 0.273450 0.886882 0.048536
Si Si6 0.110647 0.382737 0.436383
Si Si7 0.775984 0.384383 0.306824
Si Si8 0.614729 0.774375 0.943195
O O1 0.863114 0.500000 0.793021
O O2 0.856874 0.681527 0.750835
O O3 0.822355 0.647674 0.874334
O O4 0.000000 0.626679 0.831282
O O5 0.172832 0.172832 0.213617
O O6 0.127274 0.308131 0.123714
O O7 0.155448 0.362589 0.243785
O O8 0.000000 0.253254 0.216293
O O9 0.173551 0.173551 0.668098
O O10 0.148973 0.357820 0.626238
O O11 0.000000 0.255279 0.671726
O O12 0.245751 0.500000 0.566813
O O13 0.327077 0.327077 0.575145
O O14 0.171149 0.347278 0.499939
O O15 0.174015 0.825986 0.033092
O O16 0.248287 0.000000 0.032813
O O17 0.362175 0.850180 0.002229
O O18 0.102875 0.500000 0.435836
O O19 0.166648 0.345738 0.371304
O O20 0.000000 0.336831 0.438024
O O21 0.751979 0.500000 0.310282
O O22 0.671752 0.328249 0.301142
O O23 0.500000 0.748707 0.944221
O O24 0.672266 0.672266 0.953737
#
# Coordination Sequence:
#
# PCOD8306571 Si02
#       8
#     8   8   8   8   8   8   8   8
#     4   9  17  30  50  74  96 120 154 196 242 291
#     4   9  18  32  50  73  99 126 157 194 238 289
#     4  10  20  33  50  72  98 129 164 201 241 286
#     4  10  20  33  50  73 100 130 165 203 243 288
#     4   9  18  32  50  73  99 125 155 193 238 289
#     4   9  17  30  49  71  94 122 157 196 237 281
#     4  10  20  33  49  70  97 129 166 206 246 288
#     4  10  20  33  49  69  95 127 163 202 240 280
#
# _framework density 17.259588000000001
#
# number of rings (size 3 to 8) (size 9 to 14) (size 15 to 20)
#    0.000    2.500    0.000    2.250    0.000    4.000 
#    0.000    2.500    0.000    2.250    0.000    7.000 
#    0.000    9.000    0.000    0.000    0.000    0.000 
#
# Total GULP energy -793726.794840 kJ/mol
# GULP energy per Si atom -12401.981169 kJ/mol
# Density = 1.722030 g / cm^3
# Si number density = 17.259588 Si / 1000 Ang^3
#
#
#
# Elastic Constant Matrix: (Units=GPa)
#
#
# Indices 1 2 3 4 5 6 
#
# 1 89.6003 38.8499 49.3394 0.0000 0.0000 0.0001
# 2 38.8499 89.6003 49.3394 0.0000 0.0000 -0.0001
# 3 49.3394 49.3394 111.0876 0.0000 0.0000 0.0000
# 4 0.0000 0.0000 0.0000 27.4866 0.0000 0.0000
# 5 0.0000 0.0000 0.0000 0.0000 27.4866 0.0000
# 6 0.0001 -0.0001 0.0000 0.0000 0.0000 14.5033
#
#
#
# Elastic Compliance Matrix: (Units=1/GPa)
#
#
# Indices 1 2 3 4 5 6 
#
# 1 0.015761 -0.003944 -0.005249 0.000000 0.000000 0.000000
# 2 -0.003944 0.015761 -0.005249 0.000000 0.000000 0.000000
# 3 -0.005249 -0.005249 0.013664 0.000000 0.000000 0.000000
# 4 0.000000 0.000000 0.000000 0.036381 0.000000 0.000000
# 5 0.000000 0.000000 0.000000 0.000000 0.036381 0.000000
# 6 0.000000 0.000000 0.000000 0.000000 0.000000 0.068950
#
#
# Mechanical properties :
#
#
# Convention : Reuss Voigt Hill
#
# Bulk Modulus (GPa) = 61.33364 62.81617 62.07490
# Shear Modulus (GPa) = 22.60253 24.07930 23.34091
#
# Velocity S-wave (km/s) = 3.62272 3.73919 3.68141
# Velocity P-wave (km/s) = 7.28779 7.42402 7.35622
#
# Compressibility (1/GPa) = 0.01630427
#
# Stress axis : x y z
#
# Youngs Moduli (GPa) = 63.44875 63.44875 73.18391
#
# Poissons Ratio (x) = 0.25021 0.38411
# Poissons Ratio (y) = 0.25021 0.38411
# Poissons Ratio (z) = 0.33302 0.33302
#
# Static dielectric constant tensor:
#      x y z
#    x 3.076100 0.000000 0.000000 
#    y 0.000000 3.076100 0.000000 
#    z 0.000000 0.000000 3.405100 
# 
# 
# High freq. dielectric constant tensor:
#      x y z
#    x 1.658000 0.000000 0.000000 
#    y 0.000000 1.658000 0.000000 
#    z 0.000000 0.000000 1.681570 
# 
# From -- ./inp_files/2248.got.cif
#   From: 2010.03.12/outbox.cif.g09.slc.cpg/sg99_cif.got.tgz:2248.got - 2010.04.08 21:11:30.
