data_PCOD8306942
_publ_section_title
;
Structure prediction by ZEFSAII (Michael W. Deem and Ramdas Pophale) SiO2 
 PCOD8306942
Probable space group: P 42 N M
;
_chemical_formula_sum "Si O2"
_cell_formula_units_Z 48
_cell_length_a 11.544989
_cell_length_b 11.544989
_cell_length_c 17.695216
_cell_angle_alpha 90.000000
_cell_angle_beta 90.000000
_cell_angle_gamma 90.000000
_cell_volume 2358.538203
_symmetry_space_group_name_H-M "P 42 N M"
_symmetry_group_IT_number 102
_symmetry_cell_setting 'tetragonal'
loop_
_space_group_symop_operation_xyz
x,y,z
1/2-y,1/2+x,1/2+z
-x,-y,z
1/2+y,1/2-x,1/2+z
1/2-x,1/2+y,1/2+z
1/2+x,1/2-y,1/2+z
-y,-x,z
y,x,z
loop_
_atom_site_type_symbol
_atom_site_label
_atom_site_fract_x
_atom_site_fract_y
_atom_site_fract_z
Si Si1 0.912679 0.594844 0.829820
Si Si2 0.905832 0.276082 0.473534
Si Si3 0.685085 0.502623 0.112413
Si Si4 0.939510 0.751105 0.066724
Si Si5 0.330654 0.857463 0.172115
Si Si6 0.814719 0.004068 0.906966
O O1 0.825372 0.624717 0.762258
O O2 0.990002 0.703005 0.855486
O O3 0.000000 0.500000 0.797930
O O4 0.844028 0.542172 0.902164
O O5 0.805467 0.194534 0.439364
O O6 0.852788 0.358604 0.538329
O O7 0.001650 0.205047 0.520915
O O8 0.587730 0.412271 0.135239
O O9 0.632254 0.632254 0.134251
O O10 0.804478 0.459293 0.152506
O O11 0.860667 0.860667 0.095190
O O12 0.020816 0.699184 0.132153
O O13 0.019137 0.788276 0.995812
O O14 0.232577 0.767424 0.146694
O O15 0.888035 0.888035 0.895442
O O16 0.883377 0.116623 0.878147
#
# Coordination Sequence:
#
# PCOD8306942 Si02
#       6
#     8   8   8   8   8   8
#     4  11  24  37  53  85 118 156 188 229 285 349
#     4   9  19  38  61  80 110 147 187 238 285 334
#     4   9  20  37  59  86 112 148 195 238 283 338
#     4   9  19  35  60  89 111 142 190 242 292 340
#     4  11  23  37  57  82 117 154 188 233 286 346
#     4   9  18  37  64  87 109 143 195 253 295 332
#
# _framework density 20.351586999999999
#
# number of rings (size 3 to 8) (size 9 to 14) (size 15 to 20)
#    0.000    2.333    0.000    3.000    7.000    1.667 
#    0.000    3.333    0.000    2.000    0.000    0.000 
#    0.000    0.000    0.000    0.000    0.000    0.000 
#
# Total GULP energy -594740.127807 kJ/mol
# GULP energy per Si atom -12390.419329 kJ/mol
# Density = 2.030527 g / cm^3
# Si number density = 20.351587 Si / 1000 Ang^3
#
#
#
# Elastic Constant Matrix: (Units=GPa)
#
#
# Indices 1 2 3 4 5 6 
#
# 1 70.8814 25.5375 35.0487 0.0000 0.0000 -0.0002
# 2 25.5375 70.8814 35.0487 0.0000 0.0000 0.0002
# 3 35.0487 35.0487 102.5764 0.0000 0.0000 0.0000
# 4 0.0000 0.0000 0.0000 20.3662 0.0000 0.0000
# 5 0.0000 0.0000 0.0000 0.0000 20.3662 0.0000
# 6 -0.0002 0.0002 0.0000 0.0000 0.0000 25.5605
#
#
#
# Elastic Compliance Matrix: (Units=1/GPa)
#
#
# Indices 1 2 3 4 5 6 
#
# 1 0.017926 -0.004127 -0.004715 0.000000 0.000000 0.000000
# 2 -0.004127 0.017926 -0.004715 0.000000 0.000000 0.000000
# 3 -0.004715 -0.004715 0.012971 0.000000 0.000000 0.000000
# 4 0.000000 0.000000 0.000000 0.049101 0.000000 0.000000
# 5 0.000000 0.000000 0.000000 0.000000 0.049101 0.000000
# 6 0.000000 0.000000 0.000000 0.000000 0.000000 0.039123
#
#
# Mechanical properties :
#
#
# Convention : Reuss Voigt Hill
#
# Bulk Modulus (GPa) = 46.06288 48.40103 47.23196
# Shear Modulus (GPa) = 22.67578 23.17219 22.92399
#
# Velocity S-wave (km/s) = 3.34159 3.37797 3.35983
# Velocity P-wave (km/s) = 6.12952 6.24886 6.18948
#
# Compressibility (1/GPa) = 0.02170945
#
# Stress axis : x y z
#
# Youngs Moduli (GPa) = 55.78347 55.78347 77.09562
#
# Poissons Ratio (x) = 0.23023 0.36350
# Poissons Ratio (y) = 0.23023 0.36350
# Poissons Ratio (z) = 0.26302 0.26302
#
# Static dielectric constant tensor:
#      x y z
#    x 3.764630 0.000000 0.000000 
#    y 0.000000 3.764630 0.000000 
#    z 0.000000 0.000000 3.440370 
# 
# 
# High freq. dielectric constant tensor:
#      x y z
#    x 1.789580 0.000000 0.000000 
#    y 0.000000 1.789580 0.000000 
#    z 0.000000 0.000000 1.777000 
# 
# From -- ./inp_files/2711.got.cif
#   From: 2010.03.12/outbox.cif.g09.slc.cpg/sg102_2_cif.got.tgz:2711.got - 2010.04.14 01:40:42.
