data_PCOD8306956
_publ_section_title
;
Structure prediction by ZEFSAII (Michael W. Deem and Ramdas Pophale) SiO2 
 PCOD8306956
Probable space group: P 42 N M
;
_chemical_formula_sum "Si O2"
_cell_formula_units_Z 40
_cell_length_a 19.836213
_cell_length_b 19.836213
_cell_length_c 5.248193
_cell_angle_alpha 90.000000
_cell_angle_beta 90.000000
_cell_angle_gamma 90.000000
_cell_volume 2065.034558
_symmetry_space_group_name_H-M "P 42 N M"
_symmetry_group_IT_number 102
_symmetry_cell_setting 'tetragonal'
loop_
_space_group_symop_operation_xyz
x,y,z
1/2-y,1/2+x,1/2+z
-x,-y,z
1/2+y,1/2-x,1/2+z
1/2-x,1/2+y,1/2+z
1/2+x,1/2-y,1/2+z
-y,-x,z
y,x,z
loop_
_atom_site_type_symbol
_atom_site_label
_atom_site_fract_x
_atom_site_fract_y
_atom_site_fract_z
Si Si1 0.090048 0.798801 0.236780
Si Si2 0.860851 0.252942 0.739186
Si Si3 0.409952 0.701200 0.295067
Si Si4 0.860849 0.747057 0.292661
Si Si5 0.000001 0.892426 0.515932
O O1 0.157355 0.842646 0.226819
O O2 0.096597 0.748316 0.477976
O O3 0.024584 0.846565 0.279496
O O4 0.086221 0.757240 0.973139
O O5 0.806201 0.193800 0.739189
O O6 0.825183 0.325181 0.765924
O O7 0.342649 0.657351 0.305024
O O8 0.413776 0.742762 0.558708
O O9 0.475419 0.653440 0.252356
O O10 0.403401 0.751685 0.053870
O O11 0.806198 0.806198 0.292655
O O12 0.938449 0.938449 0.410737
O O13 0.061553 0.938448 0.621139
#
# Coordination Sequence:
#
# PCOD8306956 Si02
#       5
#     8   8   8   8   8
#     4   9  17  28  42  60  81 109 146 185 228 273
#     4   9  16  27  43  61  79 100 135 188 241 282
#     4   9  17  28  42  60  81 109 146 185 228 273
#     4   9  16  27  43  61  79 100 135 188 241 282
#     4   9  18  32  46  62  90 128 166 199 226 266
#
# _framework density 19.370135000000001
#
# number of rings (size 3 to 8) (size 9 to 14) (size 15 to 20)
#    0.000    3.000    0.000    1.200    0.000    6.400 
#    0.000    6.000    0.000   16.800    0.000    0.000 
#    0.000    0.000    0.000    0.000    0.000   28.000 
#
# Total GULP energy -495730.011454 kJ/mol
# GULP energy per Si atom -12393.250286 kJ/mol
# Density = 1.932605 g / cm^3
# Si number density = 19.370135 Si / 1000 Ang^3
#
#
#
# Elastic Constant Matrix: (Units=GPa)
#
#
# Indices 1 2 3 4 5 6 
#
# 1 42.9328 37.9356 21.9002 0.0000 0.0000 0.0000
# 2 37.9356 42.9328 21.9002 0.0000 0.0000 0.0000
# 3 21.9002 21.9002 126.3652 0.0000 0.0000 0.0000
# 4 0.0000 0.0000 0.0000 21.1157 0.0000 0.0000
# 5 0.0000 0.0000 0.0000 0.0000 21.1157 0.0000
# 6 0.0000 0.0000 0.0000 0.0000 0.0000 33.4043
#
#
#
# Elastic Compliance Matrix: (Units=1/GPa)
#
#
# Indices 1 2 3 4 5 6 
#
# 1 0.106879 -0.093232 -0.002365 0.000000 0.000000 0.000000
# 2 -0.093232 0.106879 -0.002365 0.000000 0.000000 0.000000
# 3 -0.002365 -0.002365 0.008733 0.000000 0.000000 0.000000
# 4 0.000000 0.000000 0.000000 0.047358 0.000000 0.000000
# 5 0.000000 0.000000 0.000000 0.000000 0.047358 0.000000
# 6 0.000000 0.000000 0.000000 0.000000 0.000000 0.029936
#
#
# Mechanical properties :
#
#
# Convention : Reuss Voigt Hill
#
# Bulk Modulus (GPa) = 37.64142 41.74475 39.69308
# Shear Modulus (GPa) = 9.05922 23.82681 16.44302
#
# Velocity S-wave (km/s) = 2.16496 3.51105 2.91672
# Velocity P-wave (km/s) = 5.07191 6.16722 5.64619
#
# Compressibility (1/GPa) = 0.02656648
#
# Stress axis : x y z
#
# Youngs Moduli (GPa) = 9.35638 9.35638 114.50349
#
# Poissons Ratio (x) = 0.87232 0.27081
# Poissons Ratio (y) = 0.87232 0.27081
# Poissons Ratio (z) = 0.02213 0.02213
#
# Static dielectric constant tensor:
#      x y z
#    x 3.259810 0.000000 0.000000 
#    y 0.000000 3.259810 0.000000 
#    z 0.000000 0.000000 3.851850 
# 
# 
# High freq. dielectric constant tensor:
#      x y z
#    x 1.704640 0.000000 0.000000 
#    y 0.000000 1.704640 0.000000 
#    z 0.000000 0.000000 1.769040 
# 
# From -- ./inp_files/277.got.cif
#   From: 2010.03.12/outbox.cif.g09.slc.cpg/sg102_1_cif.got.tgz:277.got - 2010.04.14 01:40:42.
