data_PCOD8306238
_publ_section_title
;
Structure prediction by ZEFSAII (Michael W. Deem and Ramdas Pophale) SiO2 
 PCOD8306238
Probable space group: I 41 2 2
;
_chemical_formula_sum "Si O2"
_cell_formula_units_Z 64
_cell_length_a 10.096814
_cell_length_b 10.096814
_cell_length_c 34.354487
_cell_angle_alpha 90.000000
_cell_angle_beta 90.000000
_cell_angle_gamma 90.000000
_cell_volume 3502.290609
_symmetry_space_group_name_H-M "I 41 2 2"
_symmetry_group_IT_number 98
_symmetry_cell_setting 'tetragonal'
loop_
_space_group_symop_operation_xyz
x,y,z
-y,1/2+x,1/4+z
-x,-y,z
y,1/2-x,1/4+z
x,1/2-y,1/4-z
-x,1/2+y,1/4-z
y,x,-z
-y,-x,-z
1/2+x,1/2+y,1/2+z
1/2-y,x,3/4+z
1/2-x,1/2-y,1/2+z
1/2+y,-x,3/4+z
1/2+x,-y,3/4-z
1/2-x,y,3/4-z
1/2+y,1/2+x,1/2-z
1/2-y,1/2-x,1/2-z
loop_
_atom_site_type_symbol
_atom_site_label
_atom_site_fract_x
_atom_site_fract_y
_atom_site_fract_z
Si Si1 0.740641 0.850083 0.038230
Si Si2 0.154796 0.991775 0.338621
Si Si3 0.510780 0.849555 0.659783
Si Si4 0.654095 0.239811 0.788846
O O1 0.598714 0.813053 0.055606
O O2 0.846813 0.820371 0.071775
O O3 0.745371 0.002578 0.025404
O O4 0.761688 0.761688 0.000000
O O5 0.250000 0.016633 0.375000
O O6 0.192780 0.850955 0.320030
O O7 0.000000 0.000000 0.351493
O O8 0.485100 0.750000 0.625000
O O9 0.402613 0.823121 0.692504
O O10 0.500000 0.000000 0.643977
O O11 0.745271 0.245271 0.750000
#
# Coordination Sequence:
#
# PCOD8306238 Si02
#       4
#    16  16  16  16
#     4  10  19  36  59  81 112 146 183 226 278 322
#     4  10  22  40  58  80 115 152 182 224 281 332
#     4  10  20  34  56  84 111 140 180 226 269 324
#     4  10  19  36  59  81 112 146 183 226 278 322
#
# _framework density 18.273754
#
# number of rings (size 3 to 8) (size 9 to 14) (size 15 to 20)
#    0.000    2.000    2.500    1.500    0.000    0.000 
#    9.000    0.000    0.000    0.000    0.000    0.000 
#    0.000    0.000    0.000    0.000    0.000    0.000 
#
# Total GULP energy -396857.958424 kJ/mol
# GULP energy per Si atom -12401.811201 kJ/mol
# Density = 1.823216 g / cm^3
# Si number density = 18.273754 Si / 1000 Ang^3
#
#
#
# Elastic Constant Matrix: (Units=GPa)
#
#
# Indices 1 2 3 4 5 6 
#
# 1 54.6442 37.1343 34.6779 0.0000 0.0000 0.0000
# 2 37.1343 54.6442 34.6779 0.0000 0.0000 0.0000
# 3 34.6779 34.6779 93.2757 0.0000 0.0000 0.0000
# 4 0.0000 0.0000 0.0000 -10.7347 0.0000 0.0000
# 5 0.0000 0.0000 0.0000 0.0000 -10.7347 0.0000
# 6 0.0000 0.0000 0.0000 0.0000 0.0000 18.8715
#
#
#
# Elastic Compliance Matrix: (Units=1/GPa)
#
#
# Indices 1 2 3 4 5 6 
#
# 1 0.036132 -0.020979 -0.005634 0.000000 0.000000 0.000000
# 2 -0.020979 0.036132 -0.005634 0.000000 0.000000 0.000000
# 3 -0.005634 -0.005634 0.014910 0.000000 0.000000 0.000000
# 4 0.000000 0.000000 0.000000 -0.093156 0.000000 0.000000
# 5 0.000000 0.000000 0.000000 0.000000 -0.093156 0.000000
# 6 0.000000 0.000000 0.000000 0.000000 0.000000 0.052990
#
#
# Mechanical properties :
#
#
# Convention : Reuss Voigt Hill
#
# Bulk Modulus (GPa) = 44.08872 46.17160 45.13016
# Shear Modulus (GPa) = 193.02660 5.88536 99.45598
#
# Velocity S-wave (km/s) = 10.28882 1.79657 7.38537
# Velocity P-wave (km/s) = 12.85790 5.44289 9.87296
#
# Compressibility (1/GPa) = 0.02268154
#
# Stress axis : x y z
#
# Youngs Moduli (GPa) = 27.67654 27.67654 67.07005
#
# Poissons Ratio (x) = 0.58062 0.37784
# Poissons Ratio (y) = 0.58062 0.37784
# Poissons Ratio (z) = 0.15592 0.15592
#
# Static dielectric constant tensor:
#      x y z
#    x 3.495090 0.000000 0.000000 
#    y 0.000000 3.495090 0.000000 
#    z 0.000000 0.000000 3.192730 
# 
# 
# High freq. dielectric constant tensor:
#      x y z
#    x 1.703400 0.000000 0.000000 
#    y 0.000000 1.703400 0.000000 
#    z 0.000000 0.000000 1.709040 
# 
# From -- ./inp_files/9827.got.cif
#   From: 2010.03.12/outbox.cif.g09.slc.cpg/sg98_5_cif.got.tgz:9827.got - 2010.04.08 21:04:41.
