data_PCOD8306746
_publ_section_title
;
Structure prediction by ZEFSAII (Michael W. Deem and Ramdas Pophale) SiO2 
 PCOD8306746
Probable space group: P 42 C M
;
_chemical_formula_sum "Si O2"
_cell_formula_units_Z 64
_cell_length_a 12.078572
_cell_length_b 12.078572
_cell_length_c 23.048518
_cell_angle_alpha 90.000000
_cell_angle_beta 90.000000
_cell_angle_gamma 90.000000
_cell_volume 3362.592119
_symmetry_space_group_name_H-M "P 42 C M"
_symmetry_group_IT_number 101
_symmetry_cell_setting 'tetragonal'
loop_
_space_group_symop_operation_xyz
x,y,z
-y,x,1/2+z
-x,-y,z
y,-x,1/2+z
-x,y,1/2+z
x,-y,1/2+z
-y,-x,z
y,x,z
loop_
_atom_site_type_symbol
_atom_site_label
_atom_site_fract_x
_atom_site_fract_y
_atom_site_fract_z
Si Si1 0.481741 0.125076 0.719520
Si Si2 0.499454 0.320842 0.307236
Si Si3 0.064576 0.244569 0.834476
Si Si4 0.390481 0.789121 0.405076
Si Si5 0.996608 0.822612 0.452971
Si Si6 0.860076 0.319207 0.635920
Si Si7 0.062886 0.754173 0.206095
Si Si8 0.606737 0.928959 0.012234
O O1 0.508531 0.211631 0.769386
O O2 0.561983 0.149314 0.665922
O O3 0.355136 0.139121 0.697617
O O4 0.500000 0.000000 0.742859
O O5 0.601531 0.398470 0.286817
O O6 0.384095 0.384095 0.302533
O O7 0.516552 0.286493 0.374686
O O8 0.170329 0.170329 0.820465
O O9 0.111683 0.360428 0.859904
O O10 0.984644 0.191385 0.883004
O O11 0.007623 0.255346 0.771121
O O12 0.279412 0.720589 0.419354
O O13 0.434664 0.837840 0.465626
O O14 0.109929 0.890071 0.466470
O O15 0.996931 0.704048 0.483878
O O16 0.890688 0.890688 0.475362
O O17 0.748240 0.251761 0.647150
O O18 0.871699 0.341164 0.567978
O O19 0.963484 0.247147 0.659823
O O20 0.135544 0.864457 0.195638
O O21 0.500000 0.000000 0.030172
#
# Coordination Sequence:
#
# PCOD8306746 Si02
#       8
#     8   8   8   8   8   8   8   8
#     4  10  20  35  56  81 118 155 189 226 276 337
#     4  10  19  33  58  89 116 143 184 237 287 335
#     4   8  14  28  52  80 112 149 182 213 269 343
#     4   9  17  33  57  81 107 146 188 226 273 338
#     4   9  18  34  58  86 113 143 184 235 285 336
#     4  11  24  40  56  80 112 153 198 237 280 333
#     4  10  19  34  58  86 116 150 189 234 283 337
#     4  11  22  39  59  78 108 149 196 234 282 340
#
# _framework density 19.032934999999998
#
# number of rings (size 3 to 8) (size 9 to 14) (size 15 to 20)
#    0.000    2.250    1.250    3.750    0.000    1.750 
#    2.250    1.875    0.000    1.500    0.000    1.750 
#    0.000    0.000    0.000    0.000    0.000    0.000 
#
# Total GULP energy -793252.196323 kJ/mol
# GULP energy per Si atom -12394.565568 kJ/mol
# Density = 1.898961 g / cm^3
# Si number density = 19.032935 Si / 1000 Ang^3
#
#
#
# Elastic Constant Matrix: (Units=GPa)
#
#
# Indices 1 2 3 4 5 6 
#
# 1 79.7052 27.3892 31.0632 0.0000 0.0000 0.0007
# 2 27.3892 79.7052 31.0632 0.0000 0.0000 -0.0007
# 3 31.0632 31.0632 104.4074 0.0000 0.0000 0.0000
# 4 0.0000 0.0000 0.0000 24.6319 0.0000 0.0000
# 5 0.0000 0.0000 0.0000 0.0000 24.6319 0.0000
# 6 0.0007 -0.0007 0.0000 0.0000 0.0000 26.8840
#
#
#
# Elastic Compliance Matrix: (Units=1/GPa)
#
#
# Indices 1 2 3 4 5 6 
#
# 1 0.015200 -0.003915 -0.003358 0.000000 0.000000 0.000000
# 2 -0.003915 0.015200 -0.003358 0.000000 0.000000 0.000000
# 3 -0.003358 -0.003358 0.011576 0.000000 0.000000 0.000000
# 4 0.000000 0.000000 0.000000 0.040598 0.000000 0.000000
# 5 0.000000 0.000000 0.000000 0.000000 0.040598 0.000000
# 6 0.000000 0.000000 0.000000 0.000000 0.000000 0.037197
#
#
# Mechanical properties :
#
#
# Convention : Reuss Voigt Hill
#
# Bulk Modulus (GPa) = 48.27182 49.20544 48.73863
# Shear Modulus (GPa) = 26.52052 26.84968 26.68510
#
# Velocity S-wave (km/s) = 3.73688 3.76000 3.74846
# Velocity P-wave (km/s) = 6.63599 6.69022 6.66316
#
# Compressibility (1/GPa) = 0.02071602
#
# Stress axis : x y z
#
# Youngs Moduli (GPa) = 65.78956 65.78956 86.38734
#
# Poissons Ratio (x) = 0.25754 0.29005
# Poissons Ratio (y) = 0.25754 0.29005
# Poissons Ratio (z) = 0.22090 0.22090
#
# Static dielectric constant tensor:
#      x y z
#    x 3.413060 0.000000 0.000000 
#    y 0.000000 3.413060 0.000000 
#    z 0.000000 0.000000 3.485990 
# 
# 
# High freq. dielectric constant tensor:
#      x y z
#    x 1.727510 0.000000 0.000000 
#    y 0.000000 1.727510 0.000000 
#    z 0.000000 0.000000 1.734350 
# 
# From -- ./inp_files/2781.got.cif
#   From: 2010.03.12/outbox.cif.g09.slc.cpg/sg101_2_cif.got.tgz:2781.got - 2010.04.14 01:38:52.
