data_PCOD8306373
_publ_section_title
;
Structure prediction by ZEFSAII (Michael W. Deem and Ramdas Pophale) SiO2 
 PCOD8306373
Probable space group: I 41 2 2
;
_chemical_formula_sum "Si O2"
_cell_formula_units_Z 76
_cell_length_a 11.947284
_cell_length_b 11.947284
_cell_length_c 25.839488
_cell_angle_alpha 90.000000
_cell_angle_beta 90.000000
_cell_angle_gamma 90.000000
_cell_volume 3688.266373
_symmetry_space_group_name_H-M "I 41 2 2"
_symmetry_group_IT_number 98
_symmetry_cell_setting 'tetragonal'
loop_
_space_group_symop_operation_xyz
x,y,z
-y,1/2+x,1/4+z
-x,-y,z
y,1/2-x,1/4+z
x,1/2-y,1/4-z
-x,1/2+y,1/4-z
y,x,-z
-y,-x,-z
1/2+x,1/2+y,1/2+z
1/2-y,x,3/4+z
1/2-x,1/2-y,1/2+z
1/2+y,-x,3/4+z
1/2+x,-y,3/4-z
1/2-x,y,3/4-z
1/2+y,1/2+x,1/2-z
1/2-y,1/2-x,1/2-z
loop_
_atom_site_type_symbol
_atom_site_label
_atom_site_fract_x
_atom_site_fract_y
_atom_site_fract_z
Si Si1 0.961362 0.750000 0.625000
Si Si2 0.000000 0.000000 0.000000
Si Si3 0.232065 0.278421 0.692142
Si Si4 0.891091 0.073633 0.286994
Si Si5 0.516123 0.714352 0.430044
Si Si6 0.514915 0.630534 0.321013
O O1 0.874676 0.675378 0.659399
O O2 0.040514 0.681894 0.586523
O O3 0.001985 0.104787 0.963012
O O4 0.198289 0.301712 0.750000
O O5 0.250165 0.147026 0.680203
O O6 0.343306 0.351490 0.681668
O O7 0.932224 0.199816 0.292391
O O8 0.829780 0.051305 0.231294
O O9 0.000000 0.000000 0.286513
O O10 0.470440 0.696090 0.371555
O O11 0.500000 0.500000 0.330397
#
# Coordination Sequence:
#
# PCOD8306373 Si02
#       6
#     8   4  16  16  16  16
#     4  12  22  40  72  96 134 182 232 286 354 434
#     4  12  28  44  68 104 140 190 238 288 370 440
#     4  12  20  38  71 100 130 178 239 286 339 426
#     4  11  23  44  67 100 138 176 232 295 354 417
#     4  12  24  45  67 100 141 181 233 293 355 432
#     4  11  22  39  67 106 132 171 232 291 355 406
#
# _framework density 20.605888
#
# number of rings (size 3 to 8) (size 9 to 14) (size 15 to 20)
#    0.000    0.421    8.421    1.263    0.000    0.000 
#    3.789    0.000    0.000    0.000    0.000    0.000 
#    0.000    0.000    0.000    0.000    0.000    0.000 
#
# Total GULP energy -470770.483278 kJ/mol
# GULP energy per Si atom -12388.696928 kJ/mol
# Density = 2.055899 g / cm^3
# Si number density = 20.605888 Si / 1000 Ang^3
#
#
#
# Elastic Constant Matrix: (Units=GPa)
#
#
# Indices 1 2 3 4 5 6 
#
# 1 115.5711 37.8479 53.5281 0.0000 0.0000 0.0000
# 2 37.8479 115.5710 53.5281 0.0000 0.0000 0.0000
# 3 53.5281 53.5281 204.7400 0.0000 0.0000 0.0000
# 4 0.0000 0.0000 0.0000 37.4805 0.0000 0.0000
# 5 0.0000 0.0000 0.0000 0.0000 37.4806 0.0000
# 6 0.0000 0.0000 0.0000 0.0000 0.0000 41.4163
#
#
#
# Elastic Compliance Matrix: (Units=1/GPa)
#
#
# Indices 1 2 3 4 5 6 
#
# 1 0.010419 -0.002447 -0.002084 0.000000 0.000000 0.000000
# 2 -0.002447 0.010419 -0.002084 0.000000 0.000000 0.000000
# 3 -0.002084 -0.002084 0.005974 0.000000 0.000000 0.000000
# 4 0.000000 0.000000 0.000000 0.026681 0.000000 0.000000
# 5 0.000000 0.000000 0.000000 0.000000 0.026680 0.000000
# 6 0.000000 0.000000 0.000000 0.000000 0.000000 0.024145
#
#
# Mechanical properties :
#
#
# Convention : Reuss Voigt Hill
#
# Bulk Modulus (GPa) = 73.62808 80.63227 77.13018
# Shear Modulus (GPa) = 40.95761 42.67400 41.81580
#
# Velocity S-wave (km/s) = 4.46316 4.55572 4.50968
# Velocity P-wave (km/s) = 7.89740 8.17853 8.03919
#
# Compressibility (1/GPa) = 0.01358177
#
# Stress axis : x y z
#
# Youngs Moduli (GPa) = 95.97496 95.97487 167.38786
#
# Poissons Ratio (x) = 0.23483 0.34890
# Poissons Ratio (y) = 0.23483 0.34890
# Poissons Ratio (z) = 0.20005 0.20005
#
# Static dielectric constant tensor:
#      x y z
#    x 3.628200 0.000000 0.000000 
#    y 0.000000 3.628200 0.000000 
#    z 0.000000 0.000000 4.765070 
# 
# 
# High freq. dielectric constant tensor:
#      x y z
#    x 1.786080 0.000000 0.000000 
#    y 0.000000 1.786080 0.000000 
#    z 0.000000 0.000000 1.846980 
# 
# From -- ./inp_files/11875.got.cif
#   From: 2010.03.12/outbox.cif.g09.slc.cpg/sg98_6_cif.got.tgz:11875.got - 2010.04.08 21:04:41.
