data_PCOD8306656
_publ_section_title
;
Structure prediction by ZEFSAII (Michael W. Deem and Ramdas Pophale) SiO2 
 PCOD8306656
Probable space group: P 4 B M
;
_chemical_formula_sum "Si O2"
_cell_formula_units_Z 64
_cell_length_a 18.056454
_cell_length_b 18.056454
_cell_length_c 10.003961
_cell_angle_alpha 90.000000
_cell_angle_beta 90.000000
_cell_angle_gamma 90.000000
_cell_volume 3261.646737
_symmetry_space_group_name_H-M "P 4 B M"
_symmetry_group_IT_number 100
_symmetry_cell_setting 'tetragonal'
loop_
_space_group_symop_operation_xyz
x,y,z
-y,x,z
-x,-y,z
y,-x,z
1/2-x,1/2+y,z
1/2+x,1/2-y,z
1/2-y,1/2-x,z
1/2+y,1/2+x,z
loop_
_atom_site_type_symbol
_atom_site_label
_atom_site_fract_x
_atom_site_fract_y
_atom_site_fract_z
Si Si1 0.914360 0.085646 0.167330
Si Si2 0.297602 0.084836 0.806437
Si Si3 0.202406 0.415159 0.806434
Si Si4 0.846576 0.153431 0.422169
Si Si5 0.915444 0.701571 0.495235
Si Si6 0.798435 0.415448 0.495236
Si Si7 0.152456 0.152448 0.915056
Si Si8 0.415771 0.415763 0.669164
O O1 0.894075 0.105934 0.318608
O O2 0.000004 0.103365 0.142530
O O3 0.864885 0.135124 0.068964
O O4 0.377905 0.122096 0.829844
O O5 0.275753 0.086792 0.650757
O O6 0.237967 0.133358 0.887392
O O7 0.300278 0.999997 0.858144
O O8 0.122105 0.377896 0.829836
O O9 0.224257 0.413206 0.650755
O O10 0.262042 0.366640 0.887392
O O11 0.759797 0.133286 0.408485
O O12 0.866716 0.240211 0.408487
O O13 0.866826 0.133186 0.573081
O O14 0.879233 0.620768 0.473855
O O15 0.999998 0.699300 0.443111
O O16 0.879240 0.379240 0.473852
O O17 0.100760 0.100749 0.823568
O O18 0.500005 0.396418 0.638873
#
# Coordination Sequence:
#
# PCOD8306656 Si02
#       8
#     8   8   8   8   8   8   8   8
#     4  11  24  38  53  80 120 160 193 231 286 346
#     4  10  20  35  57  85 116 150 189 234 284 339
#     4  10  20  35  57  85 116 150 189 234 284 339
#     4  12  21  36  58  81 113 148 188 237 285 332
#     4  10  20  35  57  85 116 150 189 234 284 339
#     4  10  20  35  57  85 116 150 189 234 284 339
#     4  12  21  36  58  81 113 148 188 237 285 332
#     4  11  20  30  51  80 108 142 183 225 274 332
#
# _framework density 19.621991000000001
#
# number of rings (size 3 to 8) (size 9 to 14) (size 15 to 20)
#    0.000    1.250    2.500    5.250    0.000    4.500 
#    0.000    5.000    0.000    0.000    0.000    0.000 
#    0.000    6.000    0.000    0.000    0.000    0.000 
#
# Total GULP energy -793684.166884 kJ/mol
# GULP energy per Si atom -12401.315108 kJ/mol
# Density = 1.957733 g / cm^3
# Si number density = 19.621991 Si / 1000 Ang^3
#
#
#
# Elastic Constant Matrix: (Units=GPa)
#
#
# Indices 1 2 3 4 5 6 
#
# 1 121.1397 68.4477 18.9574 0.0000 0.0000 0.0000
# 2 68.4477 121.1397 18.9574 0.0000 0.0000 0.0000
# 3 18.9574 18.9574 41.6357 0.0000 0.0000 0.0000
# 4 0.0000 0.0000 0.0000 19.2131 0.0000 0.0000
# 5 0.0000 0.0000 0.0000 0.0000 19.2131 0.0000
# 6 0.0000 0.0000 0.0000 0.0000 0.0000 34.1085
#
#
#
# Elastic Compliance Matrix: (Units=1/GPa)
#
#
# Indices 1 2 3 4 5 6 
#
# 1 0.012391 -0.006588 -0.002642 0.000000 0.000000 0.000000
# 2 -0.006588 0.012391 -0.002642 0.000000 0.000000 0.000000
# 3 -0.002642 -0.002642 0.026424 0.000000 0.000000 0.000000
# 4 0.000000 0.000000 0.000000 0.052048 0.000000 0.000000
# 5 0.000000 0.000000 0.000000 0.000000 0.052048 0.000000
# 6 0.000000 0.000000 0.000000 0.000000 0.000000 0.029318
#
#
# Mechanical properties :
#
#
# Convention : Reuss Voigt Hill
#
# Bulk Modulus (GPa) = 36.41511 55.18222 45.79867
# Shear Modulus (GPa) = 22.98677 26.34381 24.66529
#
# Velocity S-wave (km/s) = 3.42640 3.66808 3.54930
# Velocity P-wave (km/s) = 5.85254 6.79142 6.33939
#
# Compressibility (1/GPa) = 0.02746113
#
# Stress axis : x y z
#
# Youngs Moduli (GPa) = 80.70629 80.70629 37.84453
#
# Poissons Ratio (x) = 0.53166 0.09999
# Poissons Ratio (y) = 0.53166 0.09999
# Poissons Ratio (z) = 0.21324 0.21324
#
# Static dielectric constant tensor:
#      x y z
#    x 3.587930 0.000000 0.000000 
#    y 0.000000 3.587930 0.000000 
#    z 0.000000 0.000000 3.142270 
# 
# 
# High freq. dielectric constant tensor:
#      x y z
#    x 1.769550 0.000000 0.000000 
#    y 0.000000 1.769550 0.000000 
#    z 0.000000 0.000000 1.719930 
# 
# From -- ./inp_files/1372.got.cif
#   From: 2010.03.12/outbox.cif.g09.slc.cpg/sg100_cif.got.tgz:1372.got - 2010.04.14 01:37:57.
