data_PCOD8306765
_publ_section_title
;
Structure prediction by ZEFSAII (Michael W. Deem and Ramdas Pophale) SiO2 
 PCOD8306765
Probable space group: P 42 C M
;
_chemical_formula_sum "Si O2"
_cell_formula_units_Z 48
_cell_length_a 12.775542
_cell_length_b 12.775542
_cell_length_c 17.071789
_cell_angle_alpha 90.000000
_cell_angle_beta 90.000000
_cell_angle_gamma 90.000000
_cell_volume 2786.363052
_symmetry_space_group_name_H-M "P 42 C M"
_symmetry_group_IT_number 101
_symmetry_cell_setting 'tetragonal'
loop_
_space_group_symop_operation_xyz
x,y,z
-y,x,1/2+z
-x,-y,z
y,-x,1/2+z
-x,y,1/2+z
x,-y,1/2+z
-y,-x,z
y,x,z
loop_
_atom_site_type_symbol
_atom_site_label
_atom_site_fract_x
_atom_site_fract_y
_atom_site_fract_z
Si Si1 0.555538 0.274366 0.998290
Si Si2 0.270278 0.102232 0.963559
Si Si3 0.441612 0.108357 0.265331
Si Si4 0.591575 0.242974 0.359375
Si Si5 0.705600 0.124043 0.910990
Si Si6 0.204666 0.377659 0.105690
O O1 0.621660 0.378341 0.017233
O O2 0.477228 0.298610 0.926664
O O3 0.630447 0.179030 0.973788
O O4 0.491818 0.240518 0.075384
O O5 0.158007 0.158007 0.959911
O O6 0.345894 0.145691 0.895947
O O7 0.250717 0.979869 0.951889
O O8 0.325163 0.122594 0.046541
O O9 0.522107 0.200201 0.288622
O O10 0.355978 0.093489 0.332712
O O11 0.384684 0.144413 0.187040
O O12 0.500000 0.000000 0.249957
O O13 0.670638 0.329363 0.324894
O O14 0.802041 0.197960 0.887799
O O15 0.307888 0.307888 0.114984
#
# Coordination Sequence:
#
# PCOD8306765 Si02
#       6
#     8   8   8   8   8   8
#     4   9  19  33  53  79 107 140 179 221 261 304
#     4   9  18  35  56  77 103 137 178 222 264 310
#     4  11  21  34  54  80 106 145 174 213 267 316
#     4   9  18  33  53  77 104 136 180 220 255 307
#     4  10  20  35  56  82 108 133 178 229 261 308
#     4  10  22  35  52  78 110 142 176 217 262 319
#
# _framework density 17.226758
#
# number of rings (size 3 to 8) (size 9 to 14) (size 15 to 20)
#    0.000    2.333    1.667    2.000    2.333    3.000 
#    0.000    0.000    0.000    1.000    0.000    2.333 
#    0.000    0.000    0.000    0.000    0.000    0.000 
#
# Total GULP energy -595301.964879 kJ/mol
# GULP energy per Si atom -12402.124268 kJ/mol
# Density = 1.718755 g / cm^3
# Si number density = 17.226758 Si / 1000 Ang^3
#
#
#
# Elastic Constant Matrix: (Units=GPa)
#
#
# Indices 1 2 3 4 5 6 
#
# 1 95.7394 45.7108 35.0648 0.0000 0.0000 0.0000
# 2 45.7108 95.7394 35.0648 0.0000 0.0000 0.0000
# 3 35.0648 35.0648 77.6694 0.0000 0.0000 0.0000
# 4 0.0000 0.0000 0.0000 17.8872 0.0000 0.0000
# 5 0.0000 0.0000 0.0000 0.0000 17.8872 0.0000
# 6 0.0000 0.0000 0.0000 0.0000 0.0000 16.9272
#
#
#
# Elastic Compliance Matrix: (Units=1/GPa)
#
#
# Indices 1 2 3 4 5 6 
#
# 1 0.014548 -0.005440 -0.004112 0.000000 0.000000 0.000000
# 2 -0.005440 0.014548 -0.004112 0.000000 0.000000 0.000000
# 3 -0.004112 -0.004112 0.016588 0.000000 0.000000 0.000000
# 4 0.000000 0.000000 0.000000 0.055906 0.000000 0.000000
# 5 0.000000 0.000000 0.000000 0.000000 0.055906 0.000000
# 6 0.000000 0.000000 0.000000 0.000000 0.000000 0.059076
#
#
# Mechanical properties :
#
#
# Convention : Reuss Voigt Hill
#
# Bulk Modulus (GPa) = 54.47701 55.64769 55.06235
# Shear Modulus (GPa) = 19.99836 20.76084 20.37960
#
# Velocity S-wave (km/s) = 3.41088 3.47529 3.44324
# Velocity P-wave (km/s) = 6.87054 6.96252 6.91668
#
# Compressibility (1/GPa) = 0.01835637
#
# Stress axis : x y z
#
# Youngs Moduli (GPa) = 68.73577 68.73577 60.28456
#
# Poissons Ratio (x) = 0.37393 0.24790
# Poissons Ratio (y) = 0.37393 0.24790
# Poissons Ratio (z) = 0.28265 0.28265
#
# Static dielectric constant tensor:
#      x y z
#    x 3.180790 0.000000 0.000000 
#    y 0.000000 3.180790 0.000000 
#    z 0.000000 0.000000 3.019090 
# 
# 
# High freq. dielectric constant tensor:
#      x y z
#    x 1.665990 0.000000 0.000000 
#    y 0.000000 1.665990 0.000000 
#    z 0.000000 0.000000 1.650190 
# 
# From -- ./inp_files/2126.got.cif
#   From: 2010.03.12/outbox.cif.g09.slc.cpg/sg101_2_cif.got.tgz:2126.got - 2010.04.14 01:38:52.
