data_PCOD8306868
_publ_section_title
;
Structure prediction by ZEFSAII (Michael W. Deem and Ramdas Pophale) SiO2 
 PCOD8306868
Probable space group: P 42 N M
;
_chemical_formula_sum "Si O2"
_cell_formula_units_Z 56
_cell_length_a 12.430772
_cell_length_b 12.430772
_cell_length_c 20.032351
_cell_angle_alpha 90.000000
_cell_angle_beta 90.000000
_cell_angle_gamma 90.000000
_cell_volume 3095.480859
_symmetry_space_group_name_H-M "P 42 N M"
_symmetry_group_IT_number 102
_symmetry_cell_setting 'tetragonal'
loop_
_space_group_symop_operation_xyz
x,y,z
1/2-y,1/2+x,1/2+z
-x,-y,z
1/2+y,1/2-x,1/2+z
1/2-x,1/2+y,1/2+z
1/2+x,1/2-y,1/2+z
-y,-x,z
y,x,z
loop_
_atom_site_type_symbol
_atom_site_label
_atom_site_fract_x
_atom_site_fract_y
_atom_site_fract_z
Si Si1 0.730798 0.094661 0.965780
Si Si2 0.126873 0.508896 0.014406
Si Si3 0.108293 0.433871 0.787011
Si Si4 0.872440 0.497479 0.162832
Si Si5 0.109896 0.281337 0.214823
Si Si6 0.135327 0.313672 0.919608
Si Si7 0.500004 0.667963 0.594157
O O1 0.822117 0.177884 0.939557
O O2 0.724391 0.989507 0.919213
O O3 0.615389 0.155336 0.970879
O O4 0.756079 0.052065 0.039427
O O5 0.179014 0.521901 0.089201
O O6 0.000000 0.500000 0.020652
O O7 0.166495 0.401262 0.976618
O O8 0.198894 0.523894 0.773087
O O9 0.154000 0.364127 0.847176
O O10 0.000000 0.500000 0.806169
O O11 0.091531 0.355015 0.721682
O O12 0.828633 0.610351 0.192011
O O13 0.000000 0.500000 0.154879
O O14 0.195778 0.195778 0.241680
O O15 0.046014 0.242581 0.150542
O O16 0.211673 0.211673 0.930415
O O17 0.404530 0.595470 0.561791
O O18 0.590392 0.590392 0.625698
#
# Coordination Sequence:
#
# PCOD8306868 Si02
#       7
#     8   8   8   8   8   8   8
#     4  10  19  32  53  78 104 135 173 217 260 307
#     4   9  17  32  52  77 105 137 174 208 251 312
#     4   9  18  34  49  68 100 136 175 219 263 314
#     4   8  15  28  48  70  98 131 166 208 250 305
#     4   9  16  27  47  73  99 130 169 211 254 304
#     4  11  22  35  53  76 105 139 175 222 280 335
#     4   9  16  25  41  72 109 134 155 197 262 323
#
# _framework density 18.090888
#
# number of rings (size 3 to 8) (size 9 to 14) (size 15 to 20)
#    0.000    3.000    0.000    5.143    0.000    3.143 
#    0.000    7.143    0.000    1.286    0.000    0.000 
#    0.000    4.571    0.000    0.000    0.000    0.000 
#
# Total GULP energy -693789.052401 kJ/mol
# GULP energy per Si atom -12389.090221 kJ/mol
# Density = 1.804971 g / cm^3
# Si number density = 18.090888 Si / 1000 Ang^3
#
#
#
# Elastic Constant Matrix: (Units=GPa)
#
#
# Indices 1 2 3 4 5 6 
#
# 1 72.1909 38.8972 26.9450 0.0000 0.0000 -0.0001
# 2 38.8972 72.1909 26.9450 0.0000 0.0000 0.0001
# 3 26.9450 26.9450 93.5944 0.0000 0.0000 0.0000
# 4 0.0000 0.0000 0.0000 11.7938 0.0000 0.0000
# 5 0.0000 0.0000 0.0000 0.0000 11.7938 0.0000
# 6 -0.0001 0.0001 0.0000 0.0000 0.0000 20.2020
#
#
#
# Elastic Compliance Matrix: (Units=1/GPa)
#
#
# Indices 1 2 3 4 5 6 
#
# 1 0.020249 -0.009786 -0.003012 0.000000 0.000000 0.000000
# 2 -0.009786 0.020249 -0.003012 0.000000 0.000000 0.000000
# 3 -0.003012 -0.003012 0.012419 0.000000 0.000000 0.000000
# 4 0.000000 0.000000 0.000000 0.084791 0.000000 0.000000
# 5 0.000000 0.000000 0.000000 0.000000 0.084791 0.000000
# 6 0.000000 0.000000 0.000000 0.000000 0.000000 0.049500
#
#
# Mechanical properties :
#
#
# Convention : Reuss Voigt Hill
#
# Bulk Modulus (GPa) = 46.95698 47.06118 47.00908
# Shear Modulus (GPa) = 16.09172 18.43718 17.26445
#
# Velocity S-wave (km/s) = 2.98567 3.19586 3.09255
# Velocity P-wave (km/s) = 6.15615 6.29986 6.22842
#
# Compressibility (1/GPa) = 0.02129609
#
# Stress axis : x y z
#
# Youngs Moduli (GPa) = 49.38417 49.38417 80.52308
#
# Poissons Ratio (x) = 0.48329 0.24256
# Poissons Ratio (y) = 0.48329 0.24256
# Poissons Ratio (z) = 0.14876 0.14876
#
# Static dielectric constant tensor:
#      x y z
#    x 3.349030 0.000000 0.000000 
#    y 0.000000 3.349030 0.000000 
#    z 0.000000 0.000000 3.548090 
# 
# 
# High freq. dielectric constant tensor:
#      x y z
#    x 1.676460 0.000000 0.000000 
#    y 0.000000 1.676460 0.000000 
#    z 0.000000 0.000000 1.695500 
# 
# From -- ./inp_files/3353.got.cif
#   From: 2010.03.12/outbox.cif.g09.slc.cpg/sg102_2_cif.got.tgz:3353.got - 2010.04.14 01:40:42.
