data_PCOD8306256
_publ_section_title
;
Structure prediction by ZEFSAII (Michael W. Deem and Ramdas Pophale) SiO2 
 PCOD8306256
Probable space group: I 41 2 2
;
_chemical_formula_sum "Si O2"
_cell_formula_units_Z 92
_cell_length_a 14.972287
_cell_length_b 14.972287
_cell_length_c 20.092654
_cell_angle_alpha 90.000000
_cell_angle_beta 90.000000
_cell_angle_gamma 90.000000
_cell_volume 4504.157750
_symmetry_space_group_name_H-M "I 41 2 2"
_symmetry_group_IT_number 98
_symmetry_cell_setting 'tetragonal'
loop_
_space_group_symop_operation_xyz
x,y,z
-y,1/2+x,1/4+z
-x,-y,z
y,1/2-x,1/4+z
x,1/2-y,1/4-z
-x,1/2+y,1/4-z
y,x,-z
-y,-x,-z
1/2+x,1/2+y,1/2+z
1/2-y,x,3/4+z
1/2-x,1/2-y,1/2+z
1/2+y,-x,3/4+z
1/2+x,-y,3/4-z
1/2-x,y,3/4-z
1/2+y,1/2+x,1/2-z
1/2-y,1/2-x,1/2-z
loop_
_atom_site_type_symbol
_atom_site_label
_atom_site_fract_x
_atom_site_fract_y
_atom_site_fract_z
Si Si1 0.290529 0.790529 0.250000
Si Si2 0.118586 0.875251 0.280684
Si Si3 0.500000 0.000000 0.250000
Si Si4 0.261257 0.261257 0.000000
Si Si5 0.458311 0.668727 0.915878
Si Si6 0.094839 0.479919 0.421085
Si Si7 0.052983 0.191642 0.754486
Si Si8 0.750000 0.870001 0.875000
O O1 0.190749 0.796543 0.278630
O O2 0.309642 0.858941 0.190321
O O3 0.046661 0.856090 0.338203
O O4 0.069527 0.874735 0.209145
O O5 0.176763 0.967109 0.293804
O O6 0.413047 0.002843 0.204428
O O7 0.362796 0.245583 0.027451
O O8 0.191598 0.246297 0.059823
O O9 0.521921 0.754196 0.929026
O O10 0.082413 0.407702 0.478891
O O11 0.166148 0.438109 0.370264
O O12 0.000000 0.500000 0.384313
#
# Coordination Sequence:
#
# PCOD8306256 Si02
#       8
#     8  16   4   8  16  16  16   8
#     4   9  20  39  52  92 118 161 213 256 312 368
#     4  10  20  38  63  84 124 169 205 254 324 374
#     4  10  22  32  52  92 124 158 210 236 310 380
#     4  10  21  42  65  93 124 163 208 262 322 388
#     4  10  20  36  56  86 130 158 199 259 298 386
#     4   9  20  39  60  88 118 160 213 256 312 382
#     4   9  20  37  58  90 118 160 206 245 315 380
#     4  10  22  42  64  92 124 162 212 270 318 388
#
# _framework density 20.425573
#
# number of rings (size 3 to 8) (size 9 to 14) (size 15 to 20)
#    0.000    2.435    0.000    1.043    3.652    5.565 
#   18.783    0.435    0.000    0.000    0.000    0.000 
#    0.000    0.000    0.000    0.000    0.000    0.000 
#
# Total GULP energy -569975.487969 kJ/mol
# GULP energy per Si atom -12390.771478 kJ/mol
# Density = 2.037908 g / cm^3
# Si number density = 20.425573 Si / 1000 Ang^3
#
#
#
# Elastic Constant Matrix: (Units=GPa)
#
#
# Indices 1 2 3 4 5 6 
#
# 1 105.7229 58.2315 27.6964 0.0000 0.0000 0.0000
# 2 58.2315 105.7229 27.6964 0.0000 0.0000 0.0000
# 3 27.6964 27.6964 69.9395 0.0000 0.0000 0.0000
# 4 0.0000 0.0000 0.0000 24.1446 0.0000 0.0000
# 5 0.0000 0.0000 0.0000 0.0000 24.1446 0.0000
# 6 0.0000 0.0000 0.0000 0.0000 0.0000 39.1743
#
#
#
# Elastic Compliance Matrix: (Units=1/GPa)
#
#
# Indices 1 2 3 4 5 6 
#
# 1 0.014049 -0.007008 -0.002788 0.000000 0.000000 0.000000
# 2 -0.007008 0.014049 -0.002788 0.000000 0.000000 0.000000
# 3 -0.002788 -0.002788 0.016507 0.000000 0.000000 0.000000
# 4 0.000000 0.000000 0.000000 0.041417 0.000000 0.000000
# 5 0.000000 0.000000 0.000000 0.000000 0.041417 0.000000
# 6 0.000000 0.000000 0.000000 0.000000 0.000000 0.025527
#
#
# Mechanical properties :
#
#
# Convention : Reuss Voigt Hill
#
# Bulk Modulus (GPa) = 51.45208 56.51489 53.98348
# Shear Modulus (GPa) = 27.08370 28.67674 27.88022
#
# Velocity S-wave (km/s) = 3.64534 3.75101 3.69855
# Velocity P-wave (km/s) = 6.55459 6.81828 6.68773
#
# Compressibility (1/GPa) = 0.01943556
#
# Stress axis : x y z
#
# Youngs Moduli (GPa) = 71.17998 71.17998 60.58216
#
# Poissons Ratio (x) = 0.49880 0.16893
# Poissons Ratio (y) = 0.49880 0.16893
# Poissons Ratio (z) = 0.19848 0.19848
#
# Static dielectric constant tensor:
#      x y z
#    x 4.027770 0.000000 0.000000 
#    y 0.000000 4.027770 0.000000 
#    z 0.000000 0.000000 3.179850 
# 
# 
# High freq. dielectric constant tensor:
#      x y z
#    x 1.811070 0.000000 0.000000 
#    y 0.000000 1.811070 0.000000 
#    z 0.000000 0.000000 1.745500 
# 
# From -- ./inp_files/9020.got.cif
#   From: 2010.03.12/outbox.cif.g09.slc.cpg/sg98_5_cif.got.tgz:9020.got - 2010.04.08 21:04:41.
