data_PCOD8306533
_publ_section_title
;
Structure prediction by ZEFSAII (Michael W. Deem and Ramdas Pophale) SiO2 
 PCOD8306533
Probable space group: P 4 M M
;
_chemical_formula_sum "Si O2"
_cell_formula_units_Z 56
_cell_length_a 13.480377
_cell_length_b 13.480377
_cell_length_c 17.851389
_cell_angle_alpha 90.000000
_cell_angle_beta 90.000000
_cell_angle_gamma 90.000000
_cell_volume 3243.964478
_symmetry_space_group_name_H-M "P 4 M M"
_symmetry_group_IT_number 99
_symmetry_cell_setting 'tetragonal'
loop_
_space_group_symop_operation_xyz
x,y,z
-y,x,z
-x,-y,z
y,-x,z
-x,y,z
x,-y,z
-y,-x,z
y,x,z
loop_
_atom_site_type_symbol
_atom_site_label
_atom_site_fract_x
_atom_site_fract_y
_atom_site_fract_z
Si Si1 0.614329 0.774214 0.261320
Si Si2 0.389935 0.117987 0.826604
Si Si3 0.721103 0.115813 0.387700
Si Si4 0.616951 0.224304 0.517476
Si Si5 0.382158 0.890067 0.663002
Si Si6 0.884698 0.273605 0.970282
Si Si7 0.386896 0.225885 0.089729
O O1 0.500000 0.758924 0.284098
O O2 0.669514 0.669514 0.275840
O O3 0.664161 0.860073 0.310630
O O4 0.625751 0.808330 0.175505
O O5 0.500000 0.162894 0.839323
O O6 0.347424 0.150138 0.744807
O O7 0.318888 0.156374 0.892422
O O8 0.396827 0.000000 0.829184
O O9 0.824141 0.175860 0.393542
O O10 0.648065 0.144009 0.455577
O O11 0.746497 0.000000 0.390577
O O12 0.500000 0.242972 0.513667
O O13 0.671358 0.328643 0.502116
O O14 0.652849 0.183973 0.598130
O O15 0.500000 0.898027 0.663654
O O16 0.337634 0.000000 0.647777
O O17 0.829462 0.170539 0.985708
O O18 0.000000 0.249847 0.966696
O O19 0.864033 0.350386 0.037576
O O20 0.500000 0.251682 0.071241
O O21 0.324620 0.324620 0.071925
#
# Coordination Sequence:
#
# PCOD8306533 Si02
#       7
#     8   8   8   8   8   8   8
#     4   9  18  32  50  74 102 129 157 188 224 270
#     4   8  14  26  45  68  91 114 145 189 238 284
#     4  10  21  36  53  73  96 122 155 195 237 281
#     4  10  20  32  47  69  96 127 162 196 231 273
#     4   8  14  26  45  68  92 117 148 189 234 278
#     4  10  20  32  46  65  90 122 160 200 240 281
#     4   9  18  32  50  73  99 125 154 189 230 277
#
# _framework density 17.262827000000001
#
# number of rings (size 3 to 8) (size 9 to 14) (size 15 to 20)
#    0.000    2.857    0.000    2.143    0.000    4.429 
#    0.000    2.857    0.000    2.571    0.000    4.000 
#    0.000    6.857    0.000    0.000    0.000    0.000 
#
# Total GULP energy -694259.963468 kJ/mol
# GULP energy per Si atom -12397.499348 kJ/mol
# Density = 1.722354 g / cm^3
# Si number density = 17.262827 Si / 1000 Ang^3
#
#
#
# Elastic Constant Matrix: (Units=GPa)
#
#
# Indices 1 2 3 4 5 6 
#
# 1 88.0322 35.1672 43.3198 0.0000 0.0000 0.0001
# 2 35.1672 88.0322 43.3198 0.0000 0.0000 -0.0001
# 3 43.3198 43.3198 109.9294 0.0000 0.0000 0.0000
# 4 0.0000 0.0000 0.0000 24.4275 0.0000 0.0000
# 5 0.0000 0.0000 0.0000 0.0000 24.4275 0.0000
# 6 0.0001 -0.0001 0.0000 0.0000 0.0000 12.4652
#
#
#
# Elastic Compliance Matrix: (Units=1/GPa)
#
#
# Indices 1 2 3 4 5 6 
#
# 1 0.015072 -0.003844 -0.004425 0.000000 0.000000 0.000000
# 2 -0.003844 0.015072 -0.004425 0.000000 0.000000 0.000000
# 3 -0.004425 -0.004425 0.012584 0.000000 0.000000 0.000000
# 4 0.000000 0.000000 0.000000 0.040937 0.000000 0.000000
# 5 0.000000 0.000000 0.000000 0.000000 0.040937 0.000000
# 6 0.000000 0.000000 0.000000 0.000000 0.000000 0.080223
#
#
# Mechanical properties :
#
#
# Convention : Reuss Voigt Hill
#
# Bulk Modulus (GPa) = 57.66335 58.84528 58.25431
# Shear Modulus (GPa) = 21.18690 23.20984 22.19837
#
# Velocity S-wave (km/s) = 3.50710 3.67072 3.58984
# Velocity P-wave (km/s) = 7.06225 7.21993 7.14153
#
# Compressibility (1/GPa) = 0.01734204
#
# Stress axis : x y z
#
# Youngs Moduli (GPa) = 66.34632 66.34632 79.46481
#
# Poissons Ratio (x) = 0.25502 0.35162
# Poissons Ratio (y) = 0.25502 0.35162
# Poissons Ratio (z) = 0.29358 0.29358
#
# Static dielectric constant tensor:
#      x y z
#    x 2.993780 0.000000 0.000000 
#    y 0.000000 2.993780 0.000000 
#    z 0.000000 0.000000 3.613910 
# 
# 
# High freq. dielectric constant tensor:
#      x y z
#    x 1.645910 0.000000 0.000000 
#    y 0.000000 1.645910 0.000000 
#    z 0.000000 0.000000 1.686570 
# 
# From -- ./inp_files/2132.got.cif
#   From: 2010.03.12/outbox.cif.g09.slc.cpg/sg99_cif.got.tgz:2132.got - 2010.04.08 21:11:30.
