data_PCOD8306532
_publ_section_title
;
Structure prediction by ZEFSAII (Michael W. Deem and Ramdas Pophale) SiO2 
 PCOD8306532
Probable space group: P 4 M M
;
_chemical_formula_sum "Si O2"
_cell_formula_units_Z 64
_cell_length_a 13.618360
_cell_length_b 13.618360
_cell_length_c 20.500971
_cell_angle_alpha 90.000000
_cell_angle_beta 90.000000
_cell_angle_gamma 90.000000
_cell_volume 3802.104528
_symmetry_space_group_name_H-M "P 4 M M"
_symmetry_group_IT_number 99
_symmetry_cell_setting 'tetragonal'
loop_
_space_group_symop_operation_xyz
x,y,z
-y,x,z
-x,-y,z
y,-x,z
-x,y,z
x,-y,z
-y,-x,z
y,x,z
loop_
_atom_site_type_symbol
_atom_site_label
_atom_site_fract_x
_atom_site_fract_y
_atom_site_fract_z
Si Si1 0.116486 0.609559 0.788120
Si Si2 0.108262 0.616210 0.283661
Si Si3 0.116337 0.609355 0.644121
Si Si4 0.115025 0.727733 0.911696
Si Si5 0.224804 0.615921 0.410489
Si Si6 0.613173 0.226402 0.015233
Si Si7 0.230048 0.387639 0.162737
Si Si8 0.883902 0.274102 0.519277
O O1 0.158347 0.500000 0.800768
O O2 0.150081 0.646208 0.716102
O O3 0.155128 0.682858 0.843640
O O4 0.000000 0.605562 0.792076
O O5 0.099001 0.500000 0.284605
O O6 0.179685 0.650025 0.341546
O O7 0.149967 0.652550 0.213999
O O8 0.000000 0.663101 0.292919
O O9 0.159244 0.500000 0.630934
O O10 0.152436 0.684798 0.589228
O O11 0.000000 0.602799 0.641490
O O12 0.169367 0.830634 0.923862
O O13 0.138986 0.651334 0.969374
O O14 0.000000 0.749231 0.910615
O O15 0.245323 0.500000 0.413845
O O16 0.327616 0.672385 0.421154
O O17 0.146126 0.645485 0.465558
O O18 0.500000 0.249694 0.999767
O O19 0.674011 0.325990 0.001991
O O20 0.626731 0.189066 0.089558
O O21 0.255343 0.500000 0.177802
O O22 0.331622 0.331622 0.172560
O O23 0.828980 0.171021 0.506537
O O24 0.000000 0.255145 0.516301
#
# Coordination Sequence:
#
# PCOD8306532 Si02
#       8
#     8   8   8   8   8   8   8   8
#     4   8  14  26  45  67  88 112 145 186 232 279
#     4   9  17  29  45  65  90 121 155 188 221 260
#     4   8  14  26  45  67  89 114 147 188 232 277
#     4  10  20  32  46  65  90 121 158 199 240 283
#     4  10  20  33  50  72  96 122 154 193 239 292
#     4   9  18  31  47  69  95 122 154 192 235 285
#     4   9  17  29  45  67  95 123 151 185 227 278
#     4  10  20  32  47  68  94 126 164 203 240 278
#
# _framework density 16.832782999999999
#
# number of rings (size 3 to 8) (size 9 to 14) (size 15 to 20)
#    0.000    2.875    0.000    2.250    0.000    3.625 
#    0.000    2.500    0.000    2.250    0.000    3.500 
#    0.000    2.250    0.000   23.750    0.000    1.375 
#
# Total GULP energy -793337.101422 kJ/mol
# GULP energy per Si atom -12395.892210 kJ/mol
# Density = 1.679447 g / cm^3
# Si number density = 16.832783 Si / 1000 Ang^3
#
#
#
# Elastic Constant Matrix: (Units=GPa)
#
#
# Indices 1 2 3 4 5 6 
#
# 1 74.5488 31.9781 41.5513 0.0000 0.0000 0.0000
# 2 31.9781 74.5488 41.5513 0.0000 0.0000 0.0000
# 3 41.5513 41.5513 116.7537 0.0000 0.0000 0.0000
# 4 0.0000 0.0000 0.0000 24.1919 0.0000 0.0000
# 5 0.0000 0.0000 0.0000 0.0000 24.1919 0.0000
# 6 0.0000 0.0000 0.0000 0.0000 0.0000 13.5163
#
#
#
# Elastic Compliance Matrix: (Units=1/GPa)
#
#
# Indices 1 2 3 4 5 6 
#
# 1 0.018243 -0.005248 -0.004625 0.000000 0.000000 0.000000
# 2 -0.005248 0.018243 -0.004625 0.000000 0.000000 0.000000
# 3 -0.004625 -0.004625 0.011857 0.000000 0.000000 0.000000
# 4 0.000000 0.000000 0.000000 0.041336 0.000000 0.000000
# 5 0.000000 0.000000 0.000000 0.000000 0.041336 0.000000
# 6 0.000000 0.000000 0.000000 0.000000 0.000000 0.073984
#
#
# Mechanical properties :
#
#
# Convention : Reuss Voigt Hill
#
# Bulk Modulus (GPa) = 51.68522 55.11255 53.39888
# Shear Modulus (GPa) = 20.79496 22.43142 21.61319
#
# Velocity S-wave (km/s) = 3.51862 3.65444 3.58717
# Velocity P-wave (km/s) = 6.87599 7.11470 6.99636
#
# Compressibility (1/GPa) = 0.01934789
#
# Stress axis : x y z
#
# Youngs Moduli (GPa) = 54.81629 54.81629 84.33911
#
# Poissons Ratio (x) = 0.28765 0.39005
# Poissons Ratio (y) = 0.28765 0.39005
# Poissons Ratio (z) = 0.25352 0.25352
#
# Static dielectric constant tensor:
#      x y z
#    x 2.946040 0.000000 0.000000 
#    y 0.000000 2.946040 0.000000 
#    z 0.000000 0.000000 3.528280 
# 
# 
# High freq. dielectric constant tensor:
#      x y z
#    x 1.625760 0.000000 0.000000 
#    y 0.000000 1.625760 0.000000 
#    z 0.000000 0.000000 1.668220 
# 
# From -- ./inp_files/2095.got.cif
#   From: 2010.03.12/outbox.cif.g09.slc.cpg/sg99_cif.got.tgz:2095.got - 2010.04.08 21:11:30.
