data_PCOD8306094
_publ_section_title
;
Structure prediction by ZEFSAII (Michael W. Deem and Ramdas Pophale) SiO2 
 PCOD8306094
Probable space group: I 4 2 2 
;
_chemical_formula_sum "Si O2"
_cell_formula_units_Z 120
_cell_length_a 27.841291
_cell_length_b 27.841291
_cell_length_c 8.331383
_cell_angle_alpha 90.000000
_cell_angle_beta 90.000000
_cell_angle_gamma 90.000000
_cell_volume 6457.967261
_symmetry_space_group_name_H-M "I 4 2 2 "
_symmetry_group_IT_number 97
_symmetry_cell_setting 'tetragonal'
loop_
_space_group_symop_operation_xyz
x,y,z
-y,x,z
-x,-y,z
y,-x,z
x,-y,-z
-x,y,-z
y,x,-z
-y,-x,-z
1/2+x,1/2+y,1/2+z
1/2-y,1/2+x,1/2+z
1/2-x,1/2-y,1/2+z
1/2+y,1/2-x,1/2+z
1/2+x,1/2-y,1/2-z
1/2-x,1/2+y,1/2-z
1/2+y,1/2+x,1/2-z
1/2-y,1/2-x,1/2-z
loop_
_atom_site_type_symbol
_atom_site_label
_atom_site_fract_x
_atom_site_fract_y
_atom_site_fract_z
Si Si1 0.175954 0.500000 0.500000
Si Si2 0.646685 0.806436 0.392697
Si Si3 0.263769 0.802468 0.417211
Si Si4 0.150996 0.586416 0.666595
Si Si5 0.583665 0.761775 0.895622
Si Si6 0.988538 0.180022 0.680979
Si Si7 0.491940 0.424950 0.687951
Si Si8 0.057274 0.258972 0.758113
O O1 0.139538 0.540183 0.561334
O O2 0.207165 0.520831 0.353770
O O3 0.654848 0.845153 0.250000
O O4 0.697516 0.785594 0.448320
O O5 0.629957 0.833697 0.552359
O O6 0.610012 0.763918 0.340027
O O7 0.214832 0.785169 0.500000
O O8 0.277404 0.777404 0.250000
O O9 0.255848 0.859210 0.399555
O O10 0.101850 0.601850 0.750000
O O11 0.192690 0.571385 0.788136
O O12 0.558259 0.715091 0.814621
O O13 0.561264 0.772773 0.070606
O O14 0.979703 0.129666 0.766902
O O15 0.000000 0.166850 0.500000
O O16 0.034700 0.205523 0.766588
O O17 0.542215 0.447595 0.754013
O O18 0.500000 0.427383 0.500000
#
# Coordination Sequence:
#
# PCOD8306094 Si02
#       8
#     8  16  16  16  16  16  16  16
#     4  10  22  32  56  92 118 154 196 244 298 360
#     4  11  19  35  57  84 112 159 201 245 295 359
#     4  12  24  40  58  81 118 170 215 248 303 368
#     4  11  19  35  58  82 119 158 197 244 299 361
#     4  11  20  40  57  81 117 163 193 252 303 358
#     4  10  22  37  58  87 120 153 189 250 315 357
#     4   9  20  41  64  82 106 144 191 247 313 381
#     4  10  21  34  58  85 122 151 194 249 307 349
#
# _framework density 18.581697999999999
#
# number of rings (size 3 to 8) (size 9 to 14) (size 15 to 20)
#    0.000    1.467    5.333    0.800    0.933    0.533 
#    4.800    0.667    0.000    0.000    0.000    0.000 
#    0.000   64.000    0.000    0.000    0.000    0.000 
#
# Total GULP energy -743376.366964 kJ/mol
# GULP energy per Si atom -12389.606116 kJ/mol
# Density = 1.853941 g / cm^3
# Si number density = 18.581698 Si / 1000 Ang^3
#
#
#
# Elastic Constant Matrix: (Units=GPa)
#
#
# Indices 1 2 3 4 5 6 
#
# 1 104.6583 60.2162 36.9556 0.0000 0.0000 0.0000
# 2 60.2162 104.6550 36.9544 0.0000 0.0000 0.0000
# 3 36.9556 36.9544 82.7546 0.0000 0.0000 0.0000
# 4 0.0000 0.0000 0.0000 31.6454 0.0000 0.0000
# 5 0.0000 0.0000 0.0000 0.0000 31.6460 0.0000
# 6 0.0000 0.0000 0.0000 0.0000 0.0000 26.1737
#
#
#
# Elastic Compliance Matrix: (Units=1/GPa)
#
#
# Indices 1 2 3 4 5 6 
#
# 1 0.015043 -0.007459 -0.003387 0.000000 0.000000 0.000000
# 2 -0.007459 0.015043 -0.003386 0.000000 0.000000 0.000000
# 3 -0.003387 -0.003386 0.015108 0.000000 0.000000 0.000000
# 4 0.000000 0.000000 0.000000 0.031600 0.000000 0.000000
# 5 0.000000 0.000000 0.000000 0.000000 0.031600 0.000000
# 6 0.000000 0.000000 0.000000 0.000000 0.000000 0.038206
#
#
# Mechanical properties :
#
#
# Convention : Reuss Voigt Hill
#
# Bulk Modulus (GPa) = 59.77496 62.25779 61.01638
# Shear Modulus (GPa) = 27.67925 28.42247 28.05086
#
# Velocity S-wave (km/s) = 3.86372 3.91525 3.88957
# Velocity P-wave (km/s) = 7.22101 7.34959 7.28558
#
# Compressibility (1/GPa) = 0.01672941
#
# Stress axis : x y z
#
# Youngs Moduli (GPa) = 66.47829 66.47668 66.18827
#
# Poissons Ratio (x) = 0.49587 0.22415
# Poissons Ratio (y) = 0.49588 0.22414
# Poissons Ratio (z) = 0.22513 0.22511
#
# Static dielectric constant tensor:
#      x y z
#    x 3.458030 0.000000 0.000000 
#    y 0.000000 3.458030 0.000000 
#    z 0.000000 0.000000 3.699240 
# 
# 
# High freq. dielectric constant tensor:
#      x y z
#    x 1.707990 0.000000 0.000000 
#    y 0.000000 1.707990 0.000000 
#    z 0.000000 0.000000 1.740080 
# 
# From -- ./inp_files/2667.got.cif
#   From: 2010.03.12/outbox.cif.g09.slc.cpg/sg97_2_cif.got.tgz:2667.got - 2010.04.08 20:59:42.
