data_PCOD8306985
_publ_section_title
;
Structure prediction by ZEFSAII (Michael W. Deem and Ramdas Pophale) SiO2 
 PCOD8306985
Probable space group: P 4 C C
;
_chemical_formula_sum "Si O2"
_cell_formula_units_Z 48
_cell_length_a 19.072127
_cell_length_b 19.072127
_cell_length_c 9.254025
_cell_angle_alpha 90.000000
_cell_angle_beta 90.000000
_cell_angle_gamma 90.000000
_cell_volume 3366.114840
_symmetry_space_group_name_H-M "P 4 C C"
_symmetry_group_IT_number 103
_symmetry_cell_setting 'tetragonal'
loop_
_space_group_symop_operation_xyz
x,y,z
-y,x,z
-x,-y,z
y,-x,z
-x,y,1/2+z
x,-y,1/2+z
-y,-x,1/2+z
y,x,1/2+z
loop_
_atom_site_type_symbol
_atom_site_label
_atom_site_fract_x
_atom_site_fract_y
_atom_site_fract_z
Si Si1 0.718891 0.072036 0.543230
Si Si2 0.088157 0.071550 0.677631
Si Si3 0.073523 0.563676 0.039846
Si Si4 0.562794 0.925975 0.377536
Si Si5 0.850074 0.146372 0.428151
Si Si6 0.717877 0.926045 0.378011
O O1 0.641348 0.105915 0.519258
O O2 0.772890 0.130986 0.488942
O O3 0.731649 0.055881 0.711025
O O4 0.729829 0.998424 0.462806
O O5 0.104435 0.088444 0.511361
O O6 0.144355 0.117294 0.765881
O O7 0.009825 0.097531 0.711499
O O8 0.065271 0.545048 0.208557
O O9 0.117033 0.500777 0.958112
O O10 0.999699 0.566445 0.958832
O O11 0.640002 0.892713 0.399245
O O12 0.865907 0.229338 0.433489
#
# Coordination Sequence:
#
# PCOD8306985 Si02
#       6
#     8   8   8   8   8   8
#     4  10  21  33  46  61  81 107 135 172 213 255
#     4  11  22  34  46  56  72 102 142 186 222 253
#     4   9  16  28  44  64  82  99 125 158 203 252
#     4   9  16  28  44  64  82  99 125 158 203 252
#     4  12  22  33  44  60  80 104 140 177 220 254
#     4  10  21  33  46  61  81 107 135 172 213 255
#
# _framework density 14.259763
#
# number of rings (size 3 to 8) (size 9 to 14) (size 15 to 20)
#    0.000    1.833    1.667    5.000    2.333    2.667 
#    0.000    0.000    0.000    0.000    0.000    0.000 
#    0.000    0.000    0.000    0.000    0.000    0.833 
#
# Total GULP energy -594731.046996 kJ/mol
# GULP energy per Si atom -12390.230146 kJ/mol
# Density = 1.422731 g / cm^3
# Si number density = 14.259763 Si / 1000 Ang^3
#
#
#
# Elastic Constant Matrix: (Units=GPa)
#
#
# Indices 1 2 3 4 5 6 
#
# 1 78.6491 46.3640 38.4584 0.0000 0.0000 0.0000
# 2 46.3640 78.6491 38.4584 0.0000 0.0000 0.0000
# 3 38.4584 38.4584 80.7384 0.0000 0.0000 0.0000
# 4 0.0000 0.0000 0.0000 19.9023 0.0000 0.0000
# 5 0.0000 0.0000 0.0000 0.0000 19.9023 0.0000
# 6 0.0000 0.0000 0.0000 0.0000 0.0000 7.6008
#
#
#
# Elastic Compliance Matrix: (Units=1/GPa)
#
#
# Indices 1 2 3 4 5 6 
#
# 1 0.021145 -0.009829 -0.005390 0.000000 0.000000 0.000000
# 2 -0.009829 0.021145 -0.005390 0.000000 0.000000 0.000000
# 3 -0.005390 -0.005390 0.017520 0.000000 0.000000 0.000000
# 4 0.000000 0.000000 0.000000 0.050246 0.000000 0.000000
# 5 0.000000 0.000000 0.000000 0.000000 0.050246 0.000000
# 6 0.000000 0.000000 0.000000 0.000000 0.000000 0.131565
#
#
# Mechanical properties :
#
#
# Convention : Reuss Voigt Hill
#
# Bulk Modulus (GPa) = 53.78757 53.84424 53.81590
# Shear Modulus (GPa) = 14.73701 17.13144 15.93422
#
# Velocity S-wave (km/s) = 3.21825 3.46986 3.34642
# Velocity P-wave (km/s) = 7.18409 7.34130 7.26312
#
# Compressibility (1/GPa) = 0.01859166
#
# Stress axis : x y z
#
# Youngs Moduli (GPa) = 47.29307 47.29307 57.07605
#
# Poissons Ratio (x) = 0.46486 0.30764
# Poissons Ratio (y) = 0.46486 0.30764
# Poissons Ratio (z) = 0.25491 0.25491
#
# Static dielectric constant tensor:
#      x y z
#    x 3.133030 0.000000 0.000000 
#    y 0.000000 3.133030 0.000000 
#    z 0.000000 0.000000 3.027800 
# 
# 
# High freq. dielectric constant tensor:
#      x y z
#    x 1.511610 0.000000 0.000000 
#    y 0.000000 1.511610 0.000000 
#    z 0.000000 0.000000 1.570820 
# 
# From -- ./inp_files/339.got.cif
#   From: 2010.03.12/outbox.cif.g09.slc.cpg/sg103_cif.got.tgz:339.got - 2010.04.14 01:42:52.
