data_PCOD8306719
_publ_section_title
;
Structure prediction by ZEFSAII (Michael W. Deem and Ramdas Pophale) SiO2 
 PCOD8306719
Probable space group: P 42 C M
;
_chemical_formula_sum "Si O2"
_cell_formula_units_Z 64
_cell_length_a 13.700718
_cell_length_b 13.700718
_cell_length_c 18.898422
_cell_angle_alpha 90.000000
_cell_angle_beta 90.000000
_cell_angle_gamma 90.000000
_cell_volume 3547.416627
_symmetry_space_group_name_H-M "P 42 C M"
_symmetry_group_IT_number 101
_symmetry_cell_setting 'tetragonal'
loop_
_space_group_symop_operation_xyz
x,y,z
-y,x,1/2+z
-x,-y,z
y,-x,1/2+z
-x,y,1/2+z
x,-y,1/2+z
-y,-x,z
y,x,z
loop_
_atom_site_type_symbol
_atom_site_label
_atom_site_fract_x
_atom_site_fract_y
_atom_site_fract_z
Si Si1 0.110817 0.265284 0.485680
Si Si2 0.880642 0.518212 0.127711
Si Si3 0.391339 0.767287 0.500170
Si Si4 0.147244 0.696345 0.141107
Si Si5 0.252167 0.586822 0.920405
Si Si6 0.343175 0.052261 0.782715
Si Si7 0.858335 0.553601 0.283218
Si Si8 0.750852 0.097713 0.419630
O O1 0.177235 0.177235 0.456322
O O2 0.101679 0.258309 0.570428
O O3 0.157800 0.366827 0.459254
O O4 0.003549 0.254387 0.458258
O O5 0.824721 0.415050 0.123720
O O6 0.842133 0.570316 0.199371
O O7 0.000000 0.500000 0.127338
O O8 0.841370 0.584250 0.064204
O O9 0.323720 0.676281 0.525772
O O10 0.485764 0.725037 0.460037
O O11 0.335785 0.832482 0.443605
O O12 0.245033 0.754968 0.163473
O O13 0.066650 0.698882 0.203547
O O14 0.346949 0.653052 0.930161
O O15 0.231911 0.574297 0.835966
O O16 0.441387 0.113472 0.793780
O O17 0.259291 0.086958 0.835484
O O18 0.368507 0.941600 0.802915
O O19 0.855657 0.144344 0.436567
#
# Coordination Sequence:
#
# PCOD8306719 Si02
#       8
#     8   8   8   8   8   8   8   8
#     4  10  21  36  58  85 109 146 196 236 286 350
#     4  11  20  35  59  87 115 154 193 238 299 352
#     4  11  25  38  56  87 118 153 198 246 295 349
#     4  10  19  33  55  84 112 143 188 236 280 345
#     4  11  22  38  59  82 113 155 197 242 290 346
#     4  10  18  33  54  85 114 143 180 236 287 341
#     4  10  19  33  57  86 114 143 190 236 294 342
#     4  11  22  35  56  84 114 150 188 239 296 343
#
# _framework density 18.041298000000001
#
# number of rings (size 3 to 8) (size 9 to 14) (size 15 to 20)
#    0.000    1.500    6.250    1.125    0.000    1.000 
#    0.000    0.000    0.000    0.750    0.000    3.500 
#    0.000    0.000    0.000    0.000    0.000    0.000 
#
# Total GULP energy -793229.998637 kJ/mol
# GULP energy per Si atom -12394.218729 kJ/mol
# Density = 1.800024 g / cm^3
# Si number density = 18.041298 Si / 1000 Ang^3
#
#
#
# Elastic Constant Matrix: (Units=GPa)
#
#
# Indices 1 2 3 4 5 6 
#
# 1 80.6839 44.1379 34.5217 0.0000 0.0000 0.0006
# 2 44.1379 80.6839 34.5217 0.0000 0.0000 -0.0006
# 3 34.5217 34.5217 109.0260 0.0000 0.0000 0.0000
# 4 0.0000 0.0000 0.0000 25.0267 0.0000 0.0000
# 5 0.0000 0.0000 0.0000 0.0000 25.0267 0.0000
# 6 0.0006 -0.0006 0.0000 0.0000 0.0000 18.8381
#
#
#
# Elastic Compliance Matrix: (Units=1/GPa)
#
#
# Indices 1 2 3 4 5 6 
#
# 1 0.018538 -0.008825 -0.003075 0.000000 0.000000 -0.000001
# 2 -0.008825 0.018538 -0.003075 0.000000 0.000000 0.000001
# 3 -0.003075 -0.003075 0.011120 0.000000 0.000000 0.000000
# 4 0.000000 0.000000 0.000000 0.039957 0.000000 0.000000
# 5 0.000000 0.000000 0.000000 0.000000 0.039957 0.000000
# 6 -0.000001 0.000001 0.000000 0.000000 0.000000 0.053084
#
#
# Mechanical properties :
#
#
# Convention : Reuss Voigt Hill
#
# Bulk Modulus (GPa) = 54.81465 55.19517 55.00491
# Shear Modulus (GPa) = 23.01751 24.25916 23.63834
#
# Velocity S-wave (km/s) = 3.57574 3.67092 3.62364
# Velocity P-wave (km/s) = 6.89179 6.97336 6.93269
#
# Compressibility (1/GPa) = 0.01824330
#
# Stress axis : x y z
#
# Youngs Moduli (GPa) = 53.94431 53.94431 89.93084
#
# Poissons Ratio (x) = 0.47607 0.27657
# Poissons Ratio (y) = 0.47607 0.27657
# Poissons Ratio (z) = 0.16590 0.16590
#
# Static dielectric constant tensor:
#      x y z
#    x 3.265040 0.000000 0.000000 
#    y 0.000000 3.265040 0.000000 
#    z 0.000000 0.000000 3.549880 
# 
# 
# High freq. dielectric constant tensor:
#      x y z
#    x 1.681920 0.000000 0.000000 
#    y 0.000000 1.681920 0.000000 
#    z 0.000000 0.000000 1.715760 
# 
# From -- ./inp_files/2295.got.cif
#   From: 2010.03.12/outbox.cif.g09.slc.cpg/sg101_2_cif.got.tgz:2295.got - 2010.04.14 01:38:52.
