data_PCOD8306810
_publ_section_title
;
Structure prediction by ZEFSAII (Michael W. Deem and Ramdas Pophale) SiO2 
 PCOD8306810
Probable space group: P 42 C M
;
_chemical_formula_sum "Si O2"
_cell_formula_units_Z 40
_cell_length_a 10.396093
_cell_length_b 10.396093
_cell_length_c 16.022776
_cell_angle_alpha 90.000000
_cell_angle_beta 90.000000
_cell_angle_gamma 90.000000
_cell_volume 1731.721596
_symmetry_space_group_name_H-M "P 42 C M"
_symmetry_group_IT_number 101
_symmetry_cell_setting 'tetragonal'
loop_
_space_group_symop_operation_xyz
x,y,z
-y,x,1/2+z
-x,-y,z
y,-x,1/2+z
-x,y,1/2+z
x,-y,1/2+z
-y,-x,z
y,x,z
loop_
_atom_site_type_symbol
_atom_site_label
_atom_site_fract_x
_atom_site_fract_y
_atom_site_fract_z
Si Si1 0.788122 0.000001 0.104880
Si Si2 0.894234 0.677152 0.263530
Si Si3 0.294580 0.507650 0.509218
Si Si4 0.105765 0.322847 0.446229
Si Si5 0.492352 0.705419 0.200539
O O1 0.873287 0.873287 0.095577
O O2 0.700521 0.995139 0.188486
O O3 0.873281 0.126720 0.114184
O O4 0.700521 0.004861 0.021273
O O5 0.785396 0.785396 0.256669
O O6 0.961470 0.683753 0.354879
O O7 0.828716 0.535410 0.255031
O O8 0.348852 0.651149 0.486910
O O9 0.409652 0.409652 0.492882
O O10 0.171284 0.464589 0.454727
O O11 0.250414 0.500009 0.604879
O O12 0.214603 0.214603 0.453089
O O13 0.348851 0.651150 0.222839
O O14 0.590346 0.590346 0.216881
#
# Coordination Sequence:
#
# PCOD8306810 Si02
#       5
#     8   8   8   8   8
#     4   9  18  32  49  70 100 140 183 227 270 306
#     4   9  17  29  48  75 103 133 173 219 267 319
#     4   8  14  26  46  72 101 133 166 202 254 320
#     4   9  17  29  48  75 103 133 173 219 267 319
#     4   8  14  26  46  72 101 133 166 202 254 320
#
# _framework density 23.098402
#
# number of rings (size 3 to 8) (size 9 to 14) (size 15 to 20)
#    0.000    3.400    0.000    1.200    0.000    1.600 
#    0.000    9.000    0.000    4.800    0.000   11.200 
#    0.000    0.000    0.000    0.000    0.000    0.800 
#
# Total GULP energy -495528.451826 kJ/mol
# GULP energy per Si atom -12388.211296 kJ/mol
# Density = 2.304583 g / cm^3
# Si number density = 23.098402 Si / 1000 Ang^3
#
#
#
# Elastic Constant Matrix: (Units=GPa)
#
#
# Indices 1 2 3 4 5 6 
#
# 1 44.0281 23.4707 60.3362 0.0000 0.0000 -0.0002
# 2 23.4707 44.0281 60.3362 0.0000 0.0000 0.0002
# 3 60.3362 60.3362 209.6264 0.0000 0.0000 0.0000
# 4 0.0000 0.0000 0.0000 24.4386 0.0000 0.0000
# 5 0.0000 0.0000 0.0000 0.0000 24.4386 0.0000
# 6 -0.0002 0.0002 0.0000 0.0000 0.0000 12.1282
#
#
#
# Elastic Compliance Matrix: (Units=1/GPa)
#
#
# Indices 1 2 3 4 5 6 
#
# 1 0.039582 -0.009062 -0.008784 0.000000 0.000000 0.000001
# 2 -0.009062 0.039582 -0.008784 0.000000 0.000000 -0.000001
# 3 -0.008784 -0.008784 0.009827 0.000000 0.000000 0.000000
# 4 0.000000 0.000000 0.000000 0.040919 0.000000 0.000000
# 5 0.000000 0.000000 0.000000 0.000000 0.040919 0.000000
# 6 0.000001 -0.000001 0.000000 0.000000 0.000000 0.082452
#
#
# Mechanical properties :
#
#
# Convention : Reuss Voigt Hill
#
# Bulk Modulus (GPa) = 27.98871 65.10767 46.54819
# Shear Modulus (GPa) = 15.70091 22.43704 19.06897
#
# Velocity S-wave (km/s) = 2.61001 3.12006 2.87636
# Velocity P-wave (km/s) = 4.60721 6.42090 5.58813
#
# Compressibility (1/GPa) = 0.03572869
#
# Stress axis : x y z
#
# Youngs Moduli (GPa) = 25.26407 25.26407 101.75909
#
# Poissons Ratio (x) = 0.22895 0.89389
# Poissons Ratio (y) = 0.22895 0.89389
# Poissons Ratio (z) = 0.22193 0.22193
#
# Static dielectric constant tensor:
#      x y z
#    x 4.280630 0.000000 0.000000 
#    y 0.000000 4.280630 0.000000 
#    z 0.000000 0.000000 4.301820 
# 
# 
# High freq. dielectric constant tensor:
#      x y z
#    x 1.886650 0.000000 0.000000 
#    y 0.000000 1.886650 0.000000 
#    z 0.000000 0.000000 1.906290 
# 
# From -- ./inp_files/1714.got.cif
#   From: 2010.03.12/outbox.cif.g09.slc.cpg/sg101_1_cif.got.tgz:1714.got - 2010.04.14 01:38:52.
