data_PCOD8306791
_publ_section_title
;
Structure prediction by ZEFSAII (Michael W. Deem and Ramdas Pophale) SiO2 
 PCOD8306791
Probable space group: P 42 C M
;
_chemical_formula_sum "Si O2"
_cell_formula_units_Z 40
_cell_length_a 9.268716
_cell_length_b 9.268716
_cell_length_c 22.296924
_cell_angle_alpha 90.000000
_cell_angle_beta 90.000000
_cell_angle_gamma 90.000000
_cell_volume 1915.508591
_symmetry_space_group_name_H-M "P 42 C M"
_symmetry_group_IT_number 101
_symmetry_cell_setting 'tetragonal'
loop_
_space_group_symop_operation_xyz
x,y,z
-y,x,1/2+z
-x,-y,z
y,-x,1/2+z
-x,y,1/2+z
x,-y,1/2+z
-y,-x,z
y,x,z
loop_
_atom_site_type_symbol
_atom_site_label
_atom_site_fract_x
_atom_site_fract_y
_atom_site_fract_z
Si Si1 0.308343 0.072937 0.461000
Si Si2 0.577824 0.189280 0.773362
Si Si3 0.927064 0.308342 0.332176
Si Si4 0.507165 0.733727 0.646588
Si Si5 0.810723 0.422175 0.519814
O O1 0.159655 0.159655 0.466947
O O2 0.445088 0.178438 0.472803
O O3 0.321703 0.999998 0.396588
O O4 0.311796 0.943613 0.509609
O O5 0.658694 0.341307 0.783799
O O6 0.445086 0.178440 0.820373
O O7 0.516579 0.172026 0.706132
O O8 0.688203 0.056390 0.783568
O O9 0.840348 0.159653 0.326228
O O10 0.395125 0.604875 0.646587
O O11 0.669047 0.669047 0.646587
O O12 0.483421 0.827977 0.587045
O O13 0.658696 0.341305 0.509379
#
# Coordination Sequence:
#
# PCOD8306791 Si02
#       5
#     8   8   8   8   8
#     4  11  24  40  59  86 120 157 197 244 296 345
#     4  10  21  39  63  90 118 152 197 241 289 355
#     4  11  24  40  59  86 120 157 197 244 296 345
#     4   9  18  35  61  91 122 153 187 240 303 349
#     4  10  21  39  63  90 118 152 197 241 289 355
#
# _framework density 20.882183999999999
#
# number of rings (size 3 to 8) (size 9 to 14) (size 15 to 20)
#    0.000    1.800    0.000    4.800    0.000    8.400 
#    0.000    5.000    0.000   18.000    0.000    0.000 
#    0.000    0.000    0.000    0.000    0.000    0.000 
#
# Total GULP energy -495807.415202 kJ/mol
# GULP energy per Si atom -12395.185380 kJ/mol
# Density = 2.083465 g / cm^3
# Si number density = 20.882184 Si / 1000 Ang^3
#
#
#
# Elastic Constant Matrix: (Units=GPa)
#
#
# Indices 1 2 3 4 5 6 
#
# 1 92.8667 51.0942 73.7217 0.0000 0.0000 0.0000
# 2 51.0942 92.8667 73.7217 0.0000 0.0000 0.0000
# 3 73.7217 73.7217 162.2812 0.0000 0.0000 0.0000
# 4 0.0000 0.0000 0.0000 33.7567 0.0000 0.0000
# 5 0.0000 0.0000 0.0000 0.0000 33.7567 0.0000
# 6 0.0000 0.0000 0.0000 0.0000 0.0000 66.8112
#
#
#
# Elastic Compliance Matrix: (Units=1/GPa)
#
#
# Indices 1 2 3 4 5 6 
#
# 1 0.018465 -0.005474 -0.005901 0.000000 0.000000 0.000000
# 2 -0.005474 0.018465 -0.005901 0.000000 0.000000 0.000000
# 3 -0.005901 -0.005901 0.011524 0.000000 0.000000 0.000000
# 4 0.000000 0.000000 0.000000 0.029624 0.000000 0.000000
# 5 0.000000 0.000000 0.000000 0.000000 0.029624 0.000000
# 6 0.000000 0.000000 0.000000 0.000000 0.000000 0.014968
#
#
# Mechanical properties :
#
#
# Convention : Reuss Voigt Hill
#
# Bulk Modulus (GPa) = 71.94555 82.78776 77.36665
# Shear Modulus (GPa) = 30.89171 36.83006 33.86089
#
# Velocity S-wave (km/s) = 3.85038 4.20421 4.03118
# Velocity P-wave (km/s) = 7.36852 7.95603 7.66790
#
# Compressibility (1/GPa) = 0.01389940
#
# Stress axis : x y z
#
# Youngs Moduli (GPa) = 54.15711 54.15711 86.77623
#
# Poissons Ratio (x) = 0.29648 0.51209
# Poissons Ratio (y) = 0.29648 0.51209
# Poissons Ratio (z) = 0.31960 0.31960
#
# Static dielectric constant tensor:
#      x y z
#    x 3.829440 0.000000 0.000000 
#    y 0.000000 3.829440 0.000000 
#    z 0.000000 0.000000 4.005890 
# 
# 
# High freq. dielectric constant tensor:
#      x y z
#    x 1.811080 0.000000 0.000000 
#    y 0.000000 1.811080 0.000000 
#    z 0.000000 0.000000 1.822120 
# 
# From -- ./inp_files/2648.got.cif
#   From: 2010.03.12/outbox.cif.g09.slc.cpg/sg101_2_cif.got.tgz:2648.got - 2010.04.14 01:38:52.
