data_PCOD8306082
_publ_section_title
;
Structure prediction by ZEFSAII (Michael W. Deem and Ramdas Pophale) SiO2 
 PCOD8306082
Probable space group: I 4 2 2 
;
_chemical_formula_sum "Si O2"
_cell_formula_units_Z 88
_cell_length_a 12.237321
_cell_length_b 12.237321
_cell_length_c 32.598289
_cell_angle_alpha 90.000000
_cell_angle_beta 90.000000
_cell_angle_gamma 90.000000
_cell_volume 4881.659798
_symmetry_space_group_name_H-M "I 4 2 2 "
_symmetry_group_IT_number 97
_symmetry_cell_setting 'tetragonal'
loop_
_space_group_symop_operation_xyz
x,y,z
-y,x,z
-x,-y,z
y,-x,z
x,-y,-z
-x,y,-z
y,x,-z
-y,-x,-z
1/2+x,1/2+y,1/2+z
1/2-y,1/2+x,1/2+z
1/2-x,1/2-y,1/2+z
1/2+y,1/2-x,1/2+z
1/2+x,1/2-y,1/2-z
1/2-x,1/2+y,1/2-z
1/2+y,1/2+x,1/2-z
1/2-y,1/2-x,1/2-z
loop_
_atom_site_type_symbol
_atom_site_label
_atom_site_fract_x
_atom_site_fract_y
_atom_site_fract_z
Si Si1 0.627497 0.625778 0.952735
Si Si2 0.500000 0.000000 0.321679
Si Si3 0.279776 0.005708 0.869181
Si Si4 0.297944 0.719785 0.583902
Si Si5 0.451269 0.331884 0.287871
Si Si6 0.126747 0.873254 0.000000
Si Si7 0.111407 0.611407 0.250000
O O1 0.501100 0.652417 0.944365
O O2 0.698778 0.694221 0.919988
O O3 0.655551 0.655551 0.000000
O O4 0.533557 0.101092 0.350568
O O5 0.405211 0.035787 0.290146
O O6 0.232660 0.118907 0.886539
O O7 0.283585 0.908397 0.902602
O O8 0.199444 0.953730 0.835544
O O9 0.315049 0.674281 0.539141
O O10 0.573748 0.366337 0.277172
O O11 0.411029 0.235848 0.259403
O O12 0.000000 0.847717 0.000000
#
# Coordination Sequence:
#
# PCOD8306082 Si02
#       7
#    16   8  16  16  16   8   8
#     4   9  20  39  60  80 108 153 207 254 300 353
#     4   9  22  42  56  89 116 150 188 237 294 354
#     4  11  23  36  57  85 122 156 193 234 304 344
#     4  12  22  36  57  86 117 157 197 250 293 361
#     4  10  20  37  61  90 116 151 195 233 280 354
#     4  11  22  36  52  77 120 158 196 243 296 352
#     4   9  20  40  64  85 118 152 190 235 288 354
#
# _framework density 18.026655000000002
#
# number of rings (size 3 to 8) (size 9 to 14) (size 15 to 20)
#    0.000    1.727    4.545    0.545    2.545    3.273 
#    0.000    0.000    0.000    4.364    0.000    0.000 
#    0.000    0.000    0.000    0.000    0.000    0.000 
#
# Total GULP energy -545356.392806 kJ/mol
# GULP energy per Si atom -12394.463473 kJ/mol
# Density = 1.798563 g / cm^3
# Si number density = 18.026655 Si / 1000 Ang^3
#
#
#
# Elastic Constant Matrix: (Units=GPa)
#
#
# Indices 1 2 3 4 5 6 
#
# 1 139.2214 35.3514 42.7469 0.0000 0.0000 0.0000
# 2 35.3514 139.2217 42.7468 0.0000 0.0000 0.0000
# 3 42.7469 42.7468 78.5365 0.0000 0.0000 0.0000
# 4 0.0000 0.0000 0.0000 32.3134 0.0000 0.0000
# 5 0.0000 0.0000 0.0000 0.0000 32.3118 0.0000
# 6 0.0000 0.0000 0.0000 0.0000 0.0000 5.7153
#
#
#
# Elastic Compliance Matrix: (Units=1/GPa)
#
#
# Indices 1 2 3 4 5 6 
#
# 1 0.008719 -0.000909 -0.004251 0.000000 0.000000 0.000000
# 2 -0.000909 0.008719 -0.004251 0.000000 0.000000 0.000000
# 3 -0.004251 -0.004251 0.017360 0.000000 0.000000 0.000000
# 4 0.000000 0.000000 0.000000 0.030947 0.000000 0.000000
# 5 0.000000 0.000000 0.000000 0.000000 0.030948 0.000000
# 6 0.000000 0.000000 0.000000 0.000000 0.000000 0.174970
#
#
# Mechanical properties :
#
#
# Convention : Reuss Voigt Hill
#
# Bulk Modulus (GPa) = 62.59089 66.51887 64.55488
# Shear Modulus (GPa) = 16.90275 29.81039 23.35657
#
# Velocity S-wave (km/s) = 3.06543 4.07096 3.60344
# Velocity P-wave (km/s) = 6.87938 7.68618 7.29394
#
# Compressibility (1/GPa) = 0.01597677
#
# Stress axis : x y z
#
# Youngs Moduli (GPa) = 114.69517 114.69552 57.60204
#
# Poissons Ratio (x) = 0.10422 0.24487
# Poissons Ratio (y) = 0.10422 0.24486
# Poissons Ratio (z) = 0.48757 0.48757
#
# Static dielectric constant tensor:
#      x y z
#    x 3.348200 0.000000 0.000000 
#    y 0.000000 3.348180 0.000000 
#    z 0.000000 0.000000 3.278560 
# 
# 
# High freq. dielectric constant tensor:
#      x y z
#    x 1.701260 0.000000 0.000000 
#    y 0.000000 1.701260 0.000000 
#    z 0.000000 0.000000 1.695670 
# 
# From -- ./inp_files/8103.got.cif
#   From: 2010.03.12/outbox.cif.g09.slc.cpg/sg97_5_cif.got.tgz:8103.got - 2010.04.08 20:59:42.
