data_PCOD8306537
_publ_section_title
;
Structure prediction by ZEFSAII (Michael W. Deem and Ramdas Pophale) SiO2 
 PCOD8306537
Probable space group: P 4 M M
;
_chemical_formula_sum "Si O2"
_cell_formula_units_Z 64
_cell_length_a 13.722720
_cell_length_b 13.722720
_cell_length_c 20.429754
_cell_angle_alpha 90.000000
_cell_angle_beta 90.000000
_cell_angle_gamma 90.000000
_cell_volume 3847.189168
_symmetry_space_group_name_H-M "P 4 M M"
_symmetry_group_IT_number 99
_symmetry_cell_setting 'tetragonal'
loop_
_space_group_symop_operation_xyz
x,y,z
-y,x,z
-x,-y,z
y,-x,z
-x,y,z
x,-y,z
-y,-x,z
y,x,z
loop_
_atom_site_type_symbol
_atom_site_label
_atom_site_fract_x
_atom_site_fract_y
_atom_site_fract_z
Si Si1 0.271951 0.112477 0.672750
Si Si2 0.889060 0.264219 0.525794
Si Si3 0.388821 0.888568 0.904572
Si Si4 0.115878 0.392723 0.409643
Si Si5 0.384168 0.108088 0.266907
Si Si6 0.615289 0.227472 0.141943
Si Si7 0.227819 0.386493 0.775275
Si Si8 0.273513 0.885734 0.034842
O O1 0.172592 0.172592 0.685245
O O2 0.310266 0.124171 0.598093
O O3 0.357799 0.152157 0.718524
O O4 0.249512 0.000000 0.689133
O O5 0.841117 0.158884 0.523775
O O6 0.840215 0.331853 0.470199
O O7 0.000000 0.245850 0.508019
O O8 0.500000 0.869744 0.926964
O O9 0.359894 0.819923 0.844596
O O10 0.375426 0.000000 0.881979
O O11 0.317489 0.863210 0.963861
O O12 0.162130 0.500000 0.415659
O O13 0.142995 0.346106 0.338629
O O14 0.000000 0.399488 0.415440
O O15 0.500000 0.101447 0.270307
O O16 0.351489 0.184339 0.211907
O O17 0.342799 0.000000 0.250167
O O18 0.500000 0.245480 0.137363
O O19 0.669497 0.330504 0.131430
O O20 0.647168 0.149853 0.087376
O O21 0.251802 0.500000 0.769263
O O22 0.328698 0.328698 0.767701
O O23 0.171982 0.828019 0.043130
O O24 0.253037 0.000000 0.045075
#
# Coordination Sequence:
#
# PCOD8306537 Si02
#       8
#     8   8   8   8   8   8   8   8
#     4   9  18  31  46  66  91 118 151 190 231 276
#     4   9  17  28  42  62  88 117 147 178 215 262
#     4   9  17  30  50  74  96 120 152 188 225 264
#     4   8  14  25  41  62  87 113 143 182 224 261
#     4   8  14  26  44  64  86 112 144 184 226 267
#     4  10  20  32  47  68  92 119 153 191 232 277
#     4  10  20  33  49  69  94 123 155 191 228 268
#     4  10  20  33  50  72  97 125 156 189 225 266
#
# _framework density 16.635522999999999
#
# number of rings (size 3 to 8) (size 9 to 14) (size 15 to 20)
#    0.000    2.875    0.000    2.250    0.000    3.625 
#    0.000    2.500    0.000    0.000    0.000    3.500 
#    0.000    3.250    0.000    0.250    0.000    0.000 
#
# Total GULP energy -793342.117725 kJ/mol
# GULP energy per Si atom -12395.970589 kJ/mol
# Density = 1.659766 g / cm^3
# Si number density = 16.635523 Si / 1000 Ang^3
#
#
#
# Elastic Constant Matrix: (Units=GPa)
#
#
# Indices 1 2 3 4 5 6 
#
# 1 78.9721 39.0179 49.5284 0.0000 0.0000 -0.0002
# 2 39.0179 78.9721 49.5284 0.0000 0.0000 0.0002
# 3 49.5284 49.5284 112.4465 0.0000 0.0000 0.0000
# 4 0.0000 0.0000 0.0000 23.8014 0.0000 0.0000
# 5 0.0000 0.0000 0.0000 0.0000 23.8014 0.0000
# 6 -0.0002 0.0002 0.0000 0.0000 0.0000 15.3758
#
#
#
# Elastic Compliance Matrix: (Units=1/GPa)
#
#
# Indices 1 2 3 4 5 6 
#
# 1 0.019238 -0.005790 -0.005923 0.000000 0.000000 0.000000
# 2 -0.005790 0.019238 -0.005923 0.000000 0.000000 0.000000
# 3 -0.005923 -0.005923 0.014111 0.000000 0.000000 0.000000
# 4 0.000000 0.000000 0.000000 0.042014 0.000000 0.000000
# 5 0.000000 0.000000 0.000000 0.000000 0.042014 0.000000
# 6 0.000000 0.000000 0.000000 0.000000 0.000000 0.065037
#
#
# Mechanical properties :
#
#
# Convention : Reuss Voigt Hill
#
# Bulk Modulus (GPa) = 57.75693 60.72665 59.24179
# Shear Modulus (GPa) = 20.60158 21.41676 21.00917
#
# Velocity S-wave (km/s) = 3.52292 3.59194 3.55760
# Velocity P-wave (km/s) = 7.16536 7.33391 7.25012
#
# Compressibility (1/GPa) = 0.01731394
#
# Stress axis : x y z
#
# Youngs Moduli (GPa) = 51.97922 51.97922 70.86569
#
# Poissons Ratio (x) = 0.30097 0.41977
# Poissons Ratio (y) = 0.30097 0.41977
# Poissons Ratio (z) = 0.30789 0.30789
#
# Static dielectric constant tensor:
#      x y z
#    x 2.955690 0.000000 0.000000 
#    y 0.000000 2.955690 0.000000 
#    z 0.000000 0.000000 3.427760 
# 
# 
# High freq. dielectric constant tensor:
#      x y z
#    x 1.621860 0.000000 0.000000 
#    y 0.000000 1.621860 0.000000 
#    z 0.000000 0.000000 1.658130 
# 
# From -- ./inp_files/2340.got.cif
#   From: 2010.03.12/outbox.cif.g09.slc.cpg/sg99_cif.got.tgz:2340.got - 2010.04.08 21:11:30.
