data_PCOD8306726
_publ_section_title
;
Structure prediction by ZEFSAII (Michael W. Deem and Ramdas Pophale) SiO2 
 PCOD8306726
Probable space group: P 42 C M
;
_chemical_formula_sum "Si O2"
_cell_formula_units_Z 40
_cell_length_a 11.271816
_cell_length_b 11.271816
_cell_length_c 18.471804
_cell_angle_alpha 90.000000
_cell_angle_beta 90.000000
_cell_angle_gamma 90.000000
_cell_volume 2346.913555
_symmetry_space_group_name_H-M "P 42 C M"
_symmetry_group_IT_number 101
_symmetry_cell_setting 'tetragonal'
loop_
_space_group_symop_operation_xyz
x,y,z
-y,x,1/2+z
-x,-y,z
y,-x,1/2+z
-x,y,1/2+z
x,-y,1/2+z
-y,-x,z
y,x,z
loop_
_atom_site_type_symbol
_atom_site_label
_atom_site_fract_x
_atom_site_fract_y
_atom_site_fract_z
Si Si1 0.165653 0.648208 0.547290
Si Si2 0.099278 0.713210 0.046536
Si Si3 0.502494 0.310238 0.794172
Si Si4 0.463179 0.874342 0.171379
Si Si5 0.448422 0.739572 0.951570
O O1 0.238273 0.761727 0.571214
O O2 0.158872 0.565153 0.615923
O O3 0.236675 0.578681 0.484189
O O4 0.037817 0.700281 0.523885
O O5 0.151636 0.848365 0.047006
O O6 0.120817 0.659911 0.126936
O O7 0.164880 0.640262 0.984433
O O8 0.612385 0.387616 0.762803
O O9 0.395960 0.395960 0.817919
O O10 0.453616 0.221884 0.733844
O O11 0.543780 0.239463 0.865441
O O12 0.500000 0.000000 0.206744
O O13 0.393376 0.606625 0.967011
#
# Coordination Sequence:
#
# PCOD8306726 Si02
#       5
#     8   8   8   8   8
#     4  10  19  31  48  70  94 120 153 191 232 276
#     4   9  18  33  50  67  90 122 158 193 228 269
#     4  10  19  30  46  70  96 119 147 185 228 272
#     4   9  18  31  47  67  92 122 153 185 224 272
#     4   9  18  32  48  67  94 124 152 185 228 278
#
# _framework density 17.043662999999999
#
# number of rings (size 3 to 8) (size 9 to 14) (size 15 to 20)
#    0.000    2.600    0.000    3.600    0.000    4.000 
#    0.000    0.000    0.000    0.000    0.000    0.000 
#    0.000    9.600    0.000    0.000    0.000    0.000 
#
# Total GULP energy -495678.336141 kJ/mol
# GULP energy per Si atom -12391.958404 kJ/mol
# Density = 1.700487 g / cm^3
# Si number density = 17.043663 Si / 1000 Ang^3
#
#
#
# Elastic Constant Matrix: (Units=GPa)
#
#
# Indices 1 2 3 4 5 6 
#
# 1 61.7079 40.6640 8.0632 0.0000 0.0000 -0.0019
# 2 40.6640 61.7079 8.0632 0.0000 0.0000 0.0019
# 3 8.0632 8.0632 44.9784 0.0000 0.0000 0.0000
# 4 0.0000 0.0000 0.0000 11.8675 0.0000 0.0000
# 5 0.0000 0.0000 0.0000 0.0000 11.8675 0.0000
# 6 -0.0019 0.0019 0.0000 0.0000 0.0000 19.1951
#
#
#
# Elastic Compliance Matrix: (Units=1/GPa)
#
#
# Indices 1 2 3 4 5 6 
#
# 1 0.028786 -0.018734 -0.001802 0.000000 0.000000 0.000005
# 2 -0.018734 0.028786 -0.001802 0.000000 0.000000 -0.000005
# 3 -0.001802 -0.001802 0.022879 0.000000 0.000000 0.000000
# 4 0.000000 0.000000 0.000000 0.084264 0.000000 0.000000
# 5 0.000000 0.000000 0.000000 0.000000 0.084264 0.000000
# 6 0.000005 -0.000005 0.000000 0.000000 0.000000 0.052097
#
#
# Mechanical properties :
#
#
# Convention : Reuss Voigt Hill
#
# Bulk Modulus (GPa) = 27.95233 31.33056 29.64144
# Shear Modulus (GPa) = 13.97917 16.02629 15.00273
#
# Velocity S-wave (km/s) = 2.86702 3.06977 2.97012
# Velocity P-wave (km/s) = 5.23409 5.56660 5.40291
#
# Compressibility (1/GPa) = 0.03577520
#
# Stress axis : x y z
#
# Youngs Moduli (GPa) = 34.73930 34.73930 43.70823
#
# Poissons Ratio (x) = 0.65079 0.07876
# Poissons Ratio (y) = 0.65079 0.07876
# Poissons Ratio (z) = 0.06260 0.06260
#
# Static dielectric constant tensor:
#      x y z
#    x 3.286790 0.000000 0.000000 
#    y 0.000000 3.286790 0.000000 
#    z 0.000000 0.000000 2.989610 
# 
# 
# High freq. dielectric constant tensor:
#      x y z
#    x 1.654290 0.000000 0.000000 
#    y 0.000000 1.654290 0.000000 
#    z 0.000000 0.000000 1.643560 
# 
# From -- ./inp_files/1699.got.cif
#   From: 2010.03.12/outbox.cif.g09.slc.cpg/sg101_1_cif.got.tgz:1699.got - 2010.04.14 01:38:52.
