data_PCOD8306690
_publ_section_title
;
Structure prediction by ZEFSAII (Michael W. Deem and Ramdas Pophale) SiO2 
 PCOD8306690
Probable space group: P 4 B M
;
_chemical_formula_sum "Si O2"
_cell_formula_units_Z 48
_cell_length_a 20.242733
_cell_length_b 20.242733
_cell_length_c 7.612923
_cell_angle_alpha 90.000000
_cell_angle_beta 90.000000
_cell_angle_gamma 90.000000
_cell_volume 3119.534054
_symmetry_space_group_name_H-M "P 4 B M"
_symmetry_group_IT_number 100
_symmetry_cell_setting 'tetragonal'
loop_
_space_group_symop_operation_xyz
x,y,z
-y,x,z
-x,-y,z
y,-x,z
1/2-x,1/2+y,z
1/2+x,1/2-y,z
1/2-y,1/2-x,z
1/2+y,1/2+x,z
loop_
_atom_site_type_symbol
_atom_site_label
_atom_site_fract_x
_atom_site_fract_y
_atom_site_fract_z
Si Si1 0.075830 0.816717 0.063790
Si Si2 0.857115 0.746546 0.364135
Si Si3 0.316717 0.575831 0.664480
Si Si4 0.246541 0.642880 0.364135
Si Si5 0.683281 0.575834 0.664480
Si Si6 0.424166 0.683281 0.063789
O O1 0.098852 0.757236 0.189999
O O2 0.116965 0.883032 0.104236
O O3 0.999998 0.834399 0.100996
O O4 0.086835 0.792672 0.864135
O O5 0.827851 0.672150 0.364135
O O6 0.797304 0.797309 0.364135
O O7 0.901143 0.757240 0.538271
O O8 0.901143 0.757240 0.189999
O O9 0.257236 0.598852 0.538271
O O10 0.383032 0.616965 0.624033
O O11 0.334399 0.499998 0.627274
O O12 0.172144 0.672144 0.364135
O O13 0.707325 0.586839 0.864135
#
# Coordination Sequence:
#
# PCOD8306690 Si02
#       6
#     8   8   8   8   8   8
#     4   9  17  28  42  61  85 112 140 169 201 239
#     4   9  17  28  41  57  79 109 143 175 205 238
#     4   9  17  28  42  61  85 112 140 169 201 239
#     4   9  17  28  41  57  79 109 143 175 205 238
#     4   9  17  28  42  61  85 112 140 169 201 239
#     4   9  17  28  42  61  85 112 140 169 201 239
#
# _framework density 15.386913
#
# number of rings (size 3 to 8) (size 9 to 14) (size 15 to 20)
#    0.000    3.000    0.000    1.000    0.000    2.000 
#    0.000   10.000    0.000    6.000    0.000    0.000 
#    0.000   10.667    0.000   29.333    0.000    2.667 
#
# Total GULP energy -595072.265913 kJ/mol
# GULP energy per Si atom -12397.338873 kJ/mol
# Density = 1.535189 g / cm^3
# Si number density = 15.386913 Si / 1000 Ang^3
#
#
#
# Elastic Constant Matrix: (Units=GPa)
#
#
# Indices 1 2 3 4 5 6 
#
# 1 66.0684 59.3519 57.7478 0.0000 0.0000 -0.0003
# 2 59.3519 66.0684 57.7478 0.0000 0.0000 0.0003
# 3 57.7478 57.7478 119.8793 0.0000 0.0000 0.0000
# 4 0.0000 0.0000 0.0000 22.4809 0.0000 0.0000
# 5 0.0000 0.0000 0.0000 0.0000 22.4809 0.0000
# 6 -0.0003 0.0003 0.0000 0.0000 0.0000 19.9006
#
#
#
# Elastic Compliance Matrix: (Units=1/GPa)
#
#
# Indices 1 2 3 4 5 6 
#
# 1 0.081608 -0.067278 -0.006903 0.000000 0.000000 0.000002
# 2 -0.067278 0.081608 -0.006903 0.000000 0.000000 -0.000002
# 3 -0.006903 -0.006903 0.014992 0.000000 0.000000 0.000000
# 4 0.000000 0.000000 0.000000 0.044482 0.000000 0.000000
# 5 0.000000 0.000000 0.000000 0.000000 0.044482 0.000000
# 6 0.000002 -0.000002 0.000000 0.000000 0.000000 0.050250
#
#
# Mechanical properties :
#
#
# Convention : Reuss Voigt Hill
#
# Bulk Modulus (GPa) = 62.34312 66.85678 64.59995
# Shear Modulus (GPa) = 10.31064 18.11708 14.21386
#
# Velocity S-wave (km/s) = 2.59142 3.43510 3.04264
# Velocity P-wave (km/s) = 7.03981 7.69922 7.37688
#
# Compressibility (1/GPa) = 0.01604026
#
# Stress axis : x y z
#
# Youngs Moduli (GPa) = 12.25373 12.25373 66.70119
#
# Poissons Ratio (x) = 0.82441 0.46043
# Poissons Ratio (y) = 0.82441 0.46043
# Poissons Ratio (z) = 0.08459 0.08459
#
# Static dielectric constant tensor:
#      x y z
#    x 2.849830 0.000000 0.000000 
#    y 0.000000 2.849830 0.000000 
#    z 0.000000 0.000000 3.205730 
# 
# 
# High freq. dielectric constant tensor:
#      x y z
#    x 1.559760 0.000000 0.000000 
#    y 0.000000 1.559760 0.000000 
#    z 0.000000 0.000000 1.611170 
# 
# From -- ./inp_files/903.got.cif
#   From: 2010.03.12/outbox.cif.g09.slc.cpg/sg100_cif.got.tgz:903.got - 2010.04.14 01:37:57.
