data_PCOD8306838
_publ_section_title
;
Structure prediction by ZEFSAII (Michael W. Deem and Ramdas Pophale) SiO2 
 PCOD8306838
Probable space group: P 42 N M
;
_chemical_formula_sum "Si O2"
_cell_formula_units_Z 64
_cell_length_a 12.496346
_cell_length_b 12.496346
_cell_length_c 22.901040
_cell_angle_alpha 90.000000
_cell_angle_beta 90.000000
_cell_angle_gamma 90.000000
_cell_volume 3576.195796
_symmetry_space_group_name_H-M "P 42 N M"
_symmetry_group_IT_number 102
_symmetry_cell_setting 'tetragonal'
loop_
_space_group_symop_operation_xyz
x,y,z
1/2-y,1/2+x,1/2+z
-x,-y,z
1/2+y,1/2-x,1/2+z
1/2-x,1/2+y,1/2+z
1/2+x,1/2-y,1/2+z
-y,-x,z
y,x,z
loop_
_atom_site_type_symbol
_atom_site_label
_atom_site_fract_x
_atom_site_fract_y
_atom_site_fract_z
Si Si1 0.572843 0.255074 0.672650
Si Si2 0.718973 0.107104 0.741699
Si Si3 0.173577 0.998664 0.523707
Si Si4 0.614557 0.057462 0.094387
Si Si5 0.674342 0.501514 0.791719
Si Si6 0.889717 0.436133 0.974133
Si Si7 0.927793 0.604819 0.345175
Si Si8 0.731445 0.442452 0.149614
O O1 0.660847 0.339153 0.650709
O O2 0.625037 0.149238 0.700122
O O3 0.513392 0.214542 0.614737
O O4 0.496240 0.307389 0.721664
O O5 0.799626 0.200375 0.756455
O O6 0.671054 0.074187 0.803984
O O7 0.776754 0.010917 0.708656
O O8 0.109326 0.109326 0.510983
O O9 0.283697 0.992053 0.487092
O O10 0.197581 0.988890 0.592887
O O11 0.102414 0.897587 0.504620
O O12 0.604904 0.150768 0.141716
O O13 0.500000 0.000000 0.090654
O O14 0.645220 0.101620 0.029380
O O15 0.602820 0.397181 0.807748
O O16 0.610261 0.610261 0.809151
O O17 0.788217 0.492385 0.824819
O O18 0.873976 0.382252 0.910721
O O19 0.000000 0.500000 0.971537
O O20 0.000000 0.500000 0.344311
O O21 0.655212 0.344789 0.161174
#
# Coordination Sequence:
#
# PCOD8306838 Si02
#       8
#     8   8   8   8   8   8   8   8
#     4   9  18  31  51  80 107 135 172 210 259 321
#     4  10  20  33  52  77 102 137 176 210 256 312
#     4   9  18  33  55  83 111 135 164 216 283 333
#     4  10  18  33  54  75 106 141 177 214 259 312
#     4   9  19  35  56  82 108 134 170 223 281 326
#     4   9  20  36  50  74 107 145 182 221 256 307
#     4  10  21  36  53  72 106 144 185 221 257 306
#     4  10  20  32  51  81 110 134 166 214 270 324
#
# _framework density 17.896111999999999
#
# number of rings (size 3 to 8) (size 9 to 14) (size 15 to 20)
#    0.000    2.500    1.250    1.500    3.500    2.750 
#    0.000    1.250    0.000    2.250    0.000    0.000 
#    0.000    0.500    0.000    0.000    0.000    0.000 
#
# Total GULP energy -793091.312097 kJ/mol
# GULP energy per Si atom -12392.051752 kJ/mol
# Density = 1.785538 g / cm^3
# Si number density = 17.896112 Si / 1000 Ang^3
#
#
#
# Elastic Constant Matrix: (Units=GPa)
#
#
# Indices 1 2 3 4 5 6 
#
# 1 80.3628 25.0396 32.5502 0.0000 0.0000 0.0000
# 2 25.0396 80.3628 32.5502 0.0000 0.0000 0.0000
# 3 32.5502 32.5502 108.9923 0.0000 0.0000 0.0000
# 4 0.0000 0.0000 0.0000 8.2453 0.0000 0.0000
# 5 0.0000 0.0000 0.0000 0.0000 8.2453 0.0000
# 6 0.0000 0.0000 0.0000 0.0000 0.0000 23.8185
#
#
#
# Elastic Compliance Matrix: (Units=1/GPa)
#
#
# Indices 1 2 3 4 5 6 
#
# 1 0.014854 -0.003221 -0.003474 0.000000 0.000000 0.000000
# 2 -0.003221 0.014854 -0.003474 0.000000 0.000000 0.000000
# 3 -0.003474 -0.003474 0.011250 0.000000 0.000000 0.000000
# 4 0.000000 0.000000 0.000000 0.121281 0.000000 0.000000
# 5 0.000000 0.000000 0.000000 0.000000 0.121281 0.000000
# 6 0.000000 0.000000 0.000000 0.000000 0.000000 0.041984
#
#
# Mechanical properties :
#
#
# Convention : Reuss Voigt Hill
#
# Bulk Modulus (GPa) = 48.49735 49.99977 49.24856
# Shear Modulus (GPa) = 14.17563 20.03368 17.10466
#
# Velocity S-wave (km/s) = 2.81749 3.34944 3.09492
# Velocity P-wave (km/s) = 6.14350 6.55423 6.35218
#
# Compressibility (1/GPa) = 0.02061968
#
# Stress axis : x y z
#
# Youngs Moduli (GPa) = 67.31996 67.31996 88.88812
#
# Poissons Ratio (x) = 0.21685 0.30882
# Poissons Ratio (y) = 0.21685 0.30882
# Poissons Ratio (z) = 0.23389 0.23389
#
# Static dielectric constant tensor:
#      x y z
#    x 3.377280 0.000000 0.000000 
#    y 0.000000 3.377280 0.000000 
#    z 0.000000 0.000000 3.562360 
# 
# 
# High freq. dielectric constant tensor:
#      x y z
#    x 1.681070 0.000000 0.000000 
#    y 0.000000 1.681070 0.000000 
#    z 0.000000 0.000000 1.688110 
# 
# From -- ./inp_files/3410.got.cif
#   From: 2010.03.12/outbox.cif.g09.slc.cpg/sg102_2_cif.got.tgz:3410.got - 2010.04.14 01:40:42.
