data_PCOD8306109
_publ_section_title
;
Structure prediction by ZEFSAII (Michael W. Deem and Ramdas Pophale) SiO2 
 PCOD8306109
Probable space group: I 4 2 2 
;
_chemical_formula_sum "Si O2"
_cell_formula_units_Z 80
_cell_length_a 16.943092
_cell_length_b 16.943092
_cell_length_c 13.650185
_cell_angle_alpha 90.000000
_cell_angle_beta 90.000000
_cell_angle_gamma 90.000000
_cell_volume 3918.536311
_symmetry_space_group_name_H-M "I 4 2 2 "
_symmetry_group_IT_number 97
_symmetry_cell_setting 'tetragonal'
loop_
_space_group_symop_operation_xyz
x,y,z
-y,x,z
-x,-y,z
y,-x,z
x,-y,-z
-x,y,-z
y,x,-z
-y,-x,-z
1/2+x,1/2+y,1/2+z
1/2-y,1/2+x,1/2+z
1/2-x,1/2-y,1/2+z
1/2+y,1/2-x,1/2+z
1/2+x,1/2-y,1/2-z
1/2-x,1/2+y,1/2-z
1/2+y,1/2+x,1/2-z
1/2-y,1/2-x,1/2-z
loop_
_atom_site_type_symbol
_atom_site_label
_atom_site_fract_x
_atom_site_fract_y
_atom_site_fract_z
Si Si1 0.620293 0.450199 0.257410
Si Si2 0.691175 0.419954 0.051728
Si Si3 0.527019 0.081883 0.140495
Si Si4 0.620971 0.142238 0.960055
Si Si5 0.203936 0.916230 0.951111
O O1 0.601606 0.542109 0.263654
O O2 0.670206 0.434969 0.162215
O O3 0.678112 0.421390 0.340361
O O4 0.764526 0.360064 0.041806
O O5 0.718070 0.500000 0.000000
O O6 0.613925 0.386076 0.000000
O O7 0.565122 0.065122 0.250000
O O8 0.443710 0.130006 0.128693
O O9 0.500000 0.000000 0.093844
O O10 0.591511 0.119990 0.069547
O O11 0.702233 0.096023 0.946668
O O12 0.156014 0.843987 0.000000
O O13 0.182835 0.000000 0.000000
#
# Coordination Sequence:
#
# PCOD8306109 Si02
#       5
#    16  16  16  16  16
#     4  11  24  42  69  98 131 182 237 279 336 413
#     4  12  24  44  71  99 135 178 228 287 352 413
#     4  10  21  41  69  98 130 186 235 268 330 418
#     4  11  24  45  65 103 146 174 223 297 346 408
#     4  12  25  45  71 101 140 184 229 284 351 413
#
# _framework density 20.415785
#
# number of rings (size 3 to 8) (size 9 to 14) (size 15 to 20)
#    0.000    0.800    6.000    3.000    0.000    6.000 
#    3.600    0.000    0.000    0.000    0.000    0.000 
#    0.000    0.000    0.000    0.000    0.000    0.000 
#
# Total GULP energy -495657.860735 kJ/mol
# GULP energy per Si atom -12391.446518 kJ/mol
# Density = 2.036932 g / cm^3
# Si number density = 20.415785 Si / 1000 Ang^3
#
#
#
# Elastic Constant Matrix: (Units=GPa)
#
#
# Indices 1 2 3 4 5 6 
#
# 1 142.0758 11.9607 58.8161 0.0000 0.0000 0.0000
# 2 11.9607 142.0742 58.8187 0.0000 0.0000 0.0000
# 3 58.8161 58.8187 170.2967 0.0000 0.0000 0.0000
# 4 0.0000 0.0000 0.0000 23.2893 0.0000 0.0000
# 5 0.0000 0.0000 0.0000 0.0000 23.2915 0.0000
# 6 0.0000 0.0000 0.0000 0.0000 0.0000 43.5455
#
#
#
# Elastic Compliance Matrix: (Units=1/GPa)
#
#
# Indices 1 2 3 4 5 6 
#
# 1 0.008252 0.000566 -0.003045 0.000000 0.000000 0.000000
# 2 0.000566 0.008252 -0.003046 0.000000 0.000000 0.000000
# 3 -0.003045 -0.003046 0.007976 0.000000 0.000000 0.000000
# 4 0.000000 0.000000 0.000000 0.042938 0.000000 0.000000
# 5 0.000000 0.000000 0.000000 0.000000 0.042934 0.000000
# 6 0.000000 0.000000 0.000000 0.000000 0.000000 0.022964
#
#
# Mechanical properties :
#
#
# Convention : Reuss Voigt Hill
#
# Bulk Modulus (GPa) = 74.46342 79.29306 76.87824
# Shear Modulus (GPa) = 33.59263 39.68201 36.63732
#
# Velocity S-wave (km/s) = 4.06078 4.41352 4.24082
# Velocity P-wave (km/s) = 7.65109 8.05578 7.85604
#
# Compressibility (1/GPa) = 0.01342941
#
# Stress axis : x y z
#
# Youngs Moduli (GPa) = 121.18909 121.18572 125.37874
#
# Poissons Ratio (x) = -0.06861 0.38183
# Poissons Ratio (y) = -0.06861 0.38185
# Poissons Ratio (z) = 0.36907 0.36908
#
# Static dielectric constant tensor:
#      x y z
#    x 3.788820 0.000000 0.000000 
#    y 0.000000 3.788820 0.000000 
#    z 0.000000 0.000000 3.681920 
# 
# 
# High freq. dielectric constant tensor:
#      x y z
#    x 1.805010 0.000000 0.000000 
#    y 0.000000 1.805010 0.000000 
#    z 0.000000 0.000000 1.803040 
# 
# From -- ./inp_files/4708.got.cif
#   From: 2010.03.12/outbox.cif.g09.slc.cpg/sg97_3_cif.got.tgz:4708.got - 2010.04.08 20:59:42.
