data_PCOD8306670
_publ_section_title
;
Structure prediction by ZEFSAII (Michael W. Deem and Ramdas Pophale) SiO2 
 PCOD8306670
Probable space group: P 4 B M
;
_chemical_formula_sum "Si O2"
_cell_formula_units_Z 32
_cell_length_a 12.774127
_cell_length_b 12.774127
_cell_length_c 7.998949
_cell_angle_alpha 90.000000
_cell_angle_beta 90.000000
_cell_angle_gamma 90.000000
_cell_volume 1305.255064
_symmetry_space_group_name_H-M "P 4 B M"
_symmetry_group_IT_number 100
_symmetry_cell_setting 'tetragonal'
loop_
_space_group_symop_operation_xyz
x,y,z
-y,x,z
-x,-y,z
y,-x,z
1/2-x,1/2+y,z
1/2+x,1/2-y,z
1/2-y,1/2-x,z
1/2+y,1/2+x,z
loop_
_atom_site_type_symbol
_atom_site_label
_atom_site_fract_x
_atom_site_fract_y
_atom_site_fract_z
Si Si1 0.255313 0.924370 0.656130
Si Si2 0.882834 0.215027 0.459203
Si Si3 0.244687 0.575630 0.964978
Si Si4 0.784973 0.117166 0.161906
O O1 0.368500 0.868500 0.670868
O O2 0.164923 0.836757 0.630856
O O3 0.250224 0.997846 0.490077
O O4 0.234718 0.000000 0.810554
O O5 0.818381 0.318381 0.409601
O O6 0.870179 0.129821 0.310554
O O7 0.131500 0.631500 0.950242
O O8 0.249776 0.502154 0.131031
O O9 0.335077 0.663242 0.990253
O O10 0.681620 0.181620 0.211508
#
# Coordination Sequence:
#
# PCOD8306670 Si02
#       4
#     8   8   8   8
#     4  11  23  40  65  96 130 170 217 269 327 389
#     4  10  22  41  64  93 132 174 218 270 324 384
#     4  11  23  40  65  96 130 170 217 269 327 389
#     4  10  22  41  64  93 132 174 218 270 324 384
#
# _framework density 24.516282
#
# number of rings (size 3 to 8) (size 9 to 14) (size 15 to 20)
#    0.000    1.500    0.000    4.500    0.000    8.500 
#    0.000    7.500    0.000   18.000    0.000    0.000 
#    0.000    0.000    0.000    0.000    0.000    0.000 
#
# Total GULP energy -396645.582737 kJ/mol
# GULP energy per Si atom -12395.174461 kJ/mol
# Density = 2.446048 g / cm^3
# Si number density = 24.516282 Si / 1000 Ang^3
#
#
#
# Elastic Constant Matrix: (Units=GPa)
#
#
# Indices 1 2 3 4 5 6 
#
# 1 92.0233 37.4369 2.2665 0.0000 0.0000 0.0000
# 2 37.4369 92.0233 2.2665 0.0000 0.0000 0.0000
# 3 2.2665 2.2665 40.6421 0.0000 0.0000 0.0000
# 4 0.0000 0.0000 0.0000 33.9891 0.0000 0.0000
# 5 0.0000 0.0000 0.0000 0.0000 33.9891 0.0000
# 6 0.0000 0.0000 0.0000 0.0000 0.0000 34.6437
#
#
#
# Elastic Compliance Matrix: (Units=1/GPa)
#
#
# Indices 1 2 3 4 5 6 
#
# 1 0.013030 -0.005290 -0.000432 0.000000 0.000000 0.000000
# 2 -0.005290 0.013030 -0.000432 0.000000 0.000000 0.000000
# 3 -0.000432 -0.000432 0.024653 0.000000 0.000000 0.000000
# 4 0.000000 0.000000 0.000000 0.029421 0.000000 0.000000
# 5 0.000000 0.000000 0.000000 0.000000 0.029421 0.000000
# 6 0.000000 0.000000 0.000000 0.000000 0.000000 0.028865
#
#
# Mechanical properties :
#
#
# Convention : Reuss Voigt Hill
#
# Bulk Modulus (GPa) = 26.03782 34.29206 30.16494
# Shear Modulus (GPa) = 30.57574 32.70563 31.64069
#
# Velocity S-wave (km/s) = 3.53535 3.65641 3.59639
# Velocity P-wave (km/s) = 5.22576 5.64301 5.43839
#
# Compressibility (1/GPa) = 0.03840567
#
# Stress axis : x y z
#
# Youngs Moduli (GPa) = 76.74868 76.74868 40.56277
#
# Poissons Ratio (x) = 0.40600 0.01751
# Poissons Ratio (y) = 0.40600 0.01751
# Poissons Ratio (z) = 0.03313 0.03313
#
# Static dielectric constant tensor:
#      x y z
#    x 4.312700 0.000000 0.000000 
#    y 0.000000 4.312700 0.000000 
#    z 0.000000 0.000000 4.575970 
# 
# 
# High freq. dielectric constant tensor:
#      x y z
#    x 1.964240 0.000000 0.000000 
#    y 0.000000 1.964240 0.000000 
#    z 0.000000 0.000000 1.997350 
# 
# From -- ./inp_files/642.got.cif
#   From: 2010.03.12/outbox.cif.g09.slc.cpg/sg100_cif.got.tgz:642.got - 2010.04.14 01:37:57.
