data_PCOD8306580
_publ_section_title
;
Structure prediction by ZEFSAII (Michael W. Deem and Ramdas Pophale) SiO2 
 PCOD8306580
Probable space group: P 4 M M
;
_chemical_formula_sum "Si O2"
_cell_formula_units_Z 56
_cell_length_a 13.692908
_cell_length_b 13.692908
_cell_length_c 18.301893
_cell_angle_alpha 90.000000
_cell_angle_beta 90.000000
_cell_angle_gamma 90.000000
_cell_volume 3431.526779
_symmetry_space_group_name_H-M "P 4 M M"
_symmetry_group_IT_number 99
_symmetry_cell_setting 'tetragonal'
loop_
_space_group_symop_operation_xyz
x,y,z
-y,x,z
-x,-y,z
y,-x,z
-x,y,z
x,-y,z
-y,-x,z
y,x,z
loop_
_atom_site_type_symbol
_atom_site_label
_atom_site_fract_x
_atom_site_fract_y
_atom_site_fract_z
Si Si1 0.115550 0.725820 0.780570
Si Si2 0.613599 0.771950 0.497311
Si Si3 0.114412 0.609817 0.637742
Si Si4 0.774389 0.615657 0.902300
Si Si5 0.107994 0.384516 0.043928
Si Si6 0.226178 0.614015 0.181976
Si Si7 0.767331 0.610713 0.339958
O O1 0.171543 0.828458 0.791713
O O2 0.145958 0.681818 0.702361
O O3 0.148445 0.646807 0.840490
O O4 0.000000 0.744526 0.787215
O O5 0.500000 0.748094 0.506714
O O6 0.670297 0.670297 0.503946
O O7 0.649719 0.843180 0.561329
O O8 0.634516 0.822997 0.416981
O O9 0.151981 0.500000 0.655243
O O10 0.000000 0.609184 0.628163
O O11 0.754874 0.500000 0.897740
O O12 0.671449 0.671449 0.891898
O O13 0.820608 0.648847 0.979226
O O14 0.098963 0.500000 0.043113
O O15 0.150065 0.348086 0.121522
O O16 0.000000 0.338320 0.033461
O O17 0.250824 0.500000 0.169520
O O18 0.326981 0.673020 0.173861
O O19 0.176646 0.632330 0.262922
O O20 0.734549 0.500000 0.340807
O O21 0.666295 0.666295 0.338809
#
# Coordination Sequence:
#
# PCOD8306580 Si02
#       7
#     8   8   8   8   8   8   8
#     4  10  20  33  50  71  93 119 152 189 229 271
#     4   9  16  26  40  58  82 111 142 177 216 259
#     4   9  17  29  45  64  85 111 145 183 222 267
#     4  10  20  33  50  72  96 122 152 184 220 265
#     4   9  17  29  44  61  83 113 147 180 213 251
#     4   9  16  26  40  59  84 112 143 179 219 264
#     4   8  14  23  35  53  78 109 142 175 213 257
#
# _framework density 16.319267
#
# number of rings (size 3 to 8) (size 9 to 14) (size 15 to 20)
#    0.000    2.857    0.000    1.714    0.000    2.143 
#    0.000    3.571    0.000    6.857    0.000    2.000 
#    0.000    2.571    0.000    0.000    0.000   33.143 
#
# Total GULP energy -693754.749801 kJ/mol
# GULP energy per Si atom -12388.477675 kJ/mol
# Density = 1.628212 g / cm^3
# Si number density = 16.319267 Si / 1000 Ang^3
#
#
#
# Elastic Constant Matrix: (Units=GPa)
#
#
# Indices 1 2 3 4 5 6 
#
# 1 57.3013 27.8492 39.2492 0.0000 0.0000 -0.0002
# 2 27.8492 57.3013 39.2492 0.0000 0.0000 0.0002
# 3 39.2492 39.2492 144.9653 0.0000 0.0000 0.0000
# 4 0.0000 0.0000 0.0000 21.3766 0.0000 0.0000
# 5 0.0000 0.0000 0.0000 0.0000 21.3766 0.0000
# 6 -0.0002 0.0002 0.0000 0.0000 0.0000 13.5427
#
#
#
# Elastic Compliance Matrix: (Units=1/GPa)
#
#
# Indices 1 2 3 4 5 6 
#
# 1 0.024802 -0.009152 -0.004237 0.000000 0.000000 0.000000
# 2 -0.009152 0.024802 -0.004237 0.000000 0.000000 0.000000
# 3 -0.004237 -0.004237 0.009193 0.000000 0.000000 0.000000
# 4 0.000000 0.000000 0.000000 0.046780 0.000000 0.000000
# 5 0.000000 0.000000 0.000000 0.000000 0.046780 0.000000
# 6 0.000000 0.000000 0.000000 0.000000 0.000000 0.073841
#
#
# Mechanical properties :
#
#
# Convention : Reuss Voigt Hill
#
# Bulk Modulus (GPa) = 42.47378 52.47368 47.47373
# Shear Modulus (GPa) = 18.56684 21.47387 20.02035
#
# Velocity S-wave (km/s) = 3.37668 3.63141 3.50636
# Velocity P-wave (km/s) = 6.42541 7.05742 6.74881
#
# Compressibility (1/GPa) = 0.02354394
#
# Stress axis : x y z
#
# Youngs Moduli (GPa) = 40.31965 40.31965 108.78229
#
# Poissons Ratio (x) = 0.36899 0.46094
# Poissons Ratio (y) = 0.36899 0.46094
# Poissons Ratio (z) = 0.17085 0.17085
#
# Static dielectric constant tensor:
#      x y z
#    x 2.864150 0.000000 0.000000 
#    y 0.000000 2.864150 0.000000 
#    z 0.000000 0.000000 3.670990 
# 
# 
# High freq. dielectric constant tensor:
#      x y z
#    x 1.599950 0.000000 0.000000 
#    y 0.000000 1.599950 0.000000 
#    z 0.000000 0.000000 1.657540 
# 
# From -- ./inp_files/1804.got.cif
#   From: 2010.03.12/outbox.cif.g09.slc.cpg/sg99_cif.got.tgz:1804.got - 2010.04.08 21:11:30.
