data_PCOD8306024
_publ_section_title
;
Structure prediction by ZEFSAII (Michael W. Deem and Ramdas Pophale) SiO2 
 PCOD8306024
Probable space group: I 4 2 2 
;
_chemical_formula_sum "Si O2"
_cell_formula_units_Z 72
_cell_length_a 17.548382
_cell_length_b 17.548382
_cell_length_c 10.732226
_cell_angle_alpha 90.000000
_cell_angle_beta 90.000000
_cell_angle_gamma 90.000000
_cell_volume 3304.942964
_symmetry_space_group_name_H-M "I 4 2 2 "
_symmetry_group_IT_number 97
_symmetry_cell_setting 'tetragonal'
loop_
_space_group_symop_operation_xyz
x,y,z
-y,x,z
-x,-y,z
y,-x,z
x,-y,-z
-x,y,-z
y,x,-z
-y,-x,-z
1/2+x,1/2+y,1/2+z
1/2-y,1/2+x,1/2+z
1/2-x,1/2-y,1/2+z
1/2+y,1/2-x,1/2+z
1/2+x,1/2-y,1/2-z
1/2-x,1/2+y,1/2-z
1/2+y,1/2+x,1/2-z
1/2-y,1/2-x,1/2-z
loop_
_atom_site_type_symbol
_atom_site_label
_atom_site_fract_x
_atom_site_fract_y
_atom_site_fract_z
Si Si1 0.960745 0.663437 0.123632
Si Si2 0.235087 0.149175 0.714047
Si Si3 0.086592 0.914396 0.647120
Si Si4 0.608801 0.108801 0.750000
Si Si5 0.675204 0.912027 0.502979
O O1 0.915466 0.729095 0.196544
O O2 0.021510 0.621607 0.210954
O O3 0.902045 0.597345 0.082896
O O4 0.000000 0.699620 0.000000
O O5 0.266862 0.233139 0.750000
O O6 0.143129 0.143967 0.719995
O O7 0.256490 0.132344 0.570192
O O8 0.094278 0.905723 0.500000
O O9 0.000118 0.893363 0.687734
O O10 0.665586 0.125020 0.634395
O O11 0.697296 0.000000 0.500000
#
# Coordination Sequence:
#
# PCOD8306024 Si02
#       5
#    16  16  16   8  16
#     4   9  19  30  45  75 114 158 208 250 304 383
#     4  10  20  37  59  85 124 161 197 256 334 384
#     4   9  20  38  67  98 120 156 215 271 312 364
#     4  10  18  27  40  68 110 156 210 256 304 377
#     4  10  19  28  44  74 107 160 205 251 314 379
#
# _framework density 21.785551000000002
#
# number of rings (size 3 to 8) (size 9 to 14) (size 15 to 20)
#    0.000    2.444    2.222    0.667    3.111    4.889 
#    0.000    0.000   19.556    0.000    0.000    1.556 
#    0.000    0.000    0.000    0.000    0.000    0.000 
#
# Total GULP energy -446226.661337 kJ/mol
# GULP energy per Si atom -12395.185037 kJ/mol
# Density = 2.173597 g / cm^3
# Si number density = 21.785551 Si / 1000 Ang^3
#
#
#
# Elastic Constant Matrix: (Units=GPa)
#
#
# Indices 1 2 3 4 5 6 
#
# 1 97.6361 36.8299 22.8031 0.0000 0.0000 0.0000
# 2 36.8299 97.6349 22.8027 0.0000 0.0000 0.0000
# 3 22.8031 22.8027 89.4863 0.0000 0.0000 0.0000
# 4 0.0000 0.0000 0.0000 14.5289 0.0000 0.0000
# 5 0.0000 0.0000 0.0000 0.0000 14.5291 0.0000
# 6 0.0000 0.0000 0.0000 0.0000 0.0000 18.2882
#
#
#
# Elastic Compliance Matrix: (Units=1/GPa)
#
#
# Indices 1 2 3 4 5 6 
#
# 1 0.012293 -0.004153 -0.002074 0.000000 0.000000 0.000000
# 2 -0.004153 0.012293 -0.002074 0.000000 0.000000 0.000000
# 3 -0.002074 -0.002074 0.012232 0.000000 0.000000 0.000000
# 4 0.000000 0.000000 0.000000 0.068828 0.000000 0.000000
# 5 0.000000 0.000000 0.000000 0.000000 0.068827 0.000000
# 6 0.000000 0.000000 0.000000 0.000000 0.000000 0.054680
#
#
# Mechanical properties :
#
#
# Convention : Reuss Voigt Hill
#
# Bulk Modulus (GPa) = 49.46698 49.95875 49.71286
# Shear Modulus (GPa) = 19.80236 22.95737 21.37986
#
# Velocity S-wave (km/s) = 3.01818 3.24973 3.13609
# Velocity P-wave (km/s) = 5.90775 6.08793 5.99851
#
# Compressibility (1/GPa) = 0.02021551
#
# Stress axis : x y z
#
# Youngs Moduli (GPa) = 81.34679 81.34588 81.75243
#
# Poissons Ratio (x) = 0.33781 0.16958
# Poissons Ratio (y) = 0.33781 0.16958
# Poissons Ratio (z) = 0.16874 0.16874
#
# Static dielectric constant tensor:
#      x y z
#    x 3.723630 0.000000 0.000000 
#    y 0.000000 3.723650 0.000000 
#    z 0.000000 0.000000 4.221250 
# 
# 
# High freq. dielectric constant tensor:
#      x y z
#    x 1.839430 0.000000 0.000000 
#    y 0.000000 1.839430 0.000000 
#    z 0.000000 0.000000 1.850840 
# 
# From -- ./inp_files/3589.got.cif
#   From: 2010.03.12/outbox.cif.g09.slc.cpg/sg97_2_cif.got.tgz:3589.got - 2010.04.08 20:59:42.
