data_PCOD8306525
_publ_section_title
;
Structure prediction by ZEFSAII (Michael W. Deem and Ramdas Pophale) SiO2 
 PCOD8306525
Probable space group: P 4 M M
;
_chemical_formula_sum "Si O2"
_cell_formula_units_Z 40
_cell_length_a 13.913178
_cell_length_b 13.913178
_cell_length_c 12.787054
_cell_angle_alpha 90.000000
_cell_angle_beta 90.000000
_cell_angle_gamma 90.000000
_cell_volume 2475.273441
_symmetry_space_group_name_H-M "P 4 M M"
_symmetry_group_IT_number 99
_symmetry_cell_setting 'tetragonal'
loop_
_space_group_symop_operation_xyz
x,y,z
-y,x,z
-x,-y,z
y,-x,z
-x,y,z
x,-y,z
-y,-x,z
y,x,z
loop_
_atom_site_type_symbol
_atom_site_label
_atom_site_fract_x
_atom_site_fract_y
_atom_site_fract_z
Si Si1 0.890677 0.738852 0.191840
Si Si2 0.605850 0.885844 0.372505
Si Si3 0.385796 0.893325 0.601276
Si Si4 0.730949 0.111559 0.955249
Si Si5 0.386110 0.769942 0.797356
O O1 0.841759 0.841759 0.199231
O O2 0.842970 0.668123 0.277258
O O3 0.000000 0.757866 0.221030
O O4 0.878790 0.696115 0.075331
O O5 0.500000 0.840058 0.361490
O O6 0.651031 0.859547 0.486336
O O7 0.598663 0.000000 0.362693
O O8 0.500000 0.899875 0.596820
O O9 0.353029 0.816903 0.687723
O O10 0.345054 0.000000 0.628610
O O11 0.829923 0.170078 0.934741
O O12 0.644404 0.155870 0.887805
O O13 0.748719 0.000000 0.925609
O O14 0.500000 0.751628 0.803537
O O15 0.331810 0.668190 0.809983
#
# Coordination Sequence:
#
# PCOD8306525 Si02
#       5
#     8   8   8   8   8
#     4   9  17  28  42  62  88 116 144 172 204 246
#     4   8  14  25  41  62  87 112 140 176 214 249
#     4   8  14  26  44  64  85 109 139 177 218 256
#     4   9  18  31  46  66  90 115 146 182 219 261
#     4  10  20  32  46  65  88 114 146 182 220 264
#
# _framework density 16.159829999999999
#
# number of rings (size 3 to 8) (size 9 to 14) (size 15 to 20)
#    0.000    3.200    0.000    1.800    0.000    3.400 
#    0.000    4.000    0.000    0.000    0.000    0.000 
#    0.000    5.200    0.000    0.400    0.000    0.000 
#
# Total GULP energy -495709.406583 kJ/mol
# GULP energy per Si atom -12392.735165 kJ/mol
# Density = 1.612305 g / cm^3
# Si number density = 16.159830 Si / 1000 Ang^3
#
#
#
# Elastic Constant Matrix: (Units=GPa)
#
#
# Indices 1 2 3 4 5 6 
#
# 1 71.8577 34.7060 47.6760 0.0000 0.0000 0.0002
# 2 34.7060 71.8577 47.6760 0.0000 0.0000 -0.0002
# 3 47.6760 47.6760 115.8423 0.0000 0.0000 0.0000
# 4 0.0000 0.0000 0.0000 22.0494 0.0000 0.0000
# 5 0.0000 0.0000 0.0000 0.0000 22.0494 0.0000
# 6 0.0002 -0.0002 0.0000 0.0000 0.0000 13.2739
#
#
#
# Elastic Compliance Matrix: (Units=1/GPa)
#
#
# Indices 1 2 3 4 5 6 
#
# 1 0.020885 -0.006031 -0.006113 0.000000 0.000000 0.000000
# 2 -0.006031 0.020885 -0.006113 0.000000 0.000000 0.000000
# 3 -0.006113 -0.006113 0.013665 0.000000 0.000000 0.000000
# 4 0.000000 0.000000 0.000000 0.045353 0.000000 0.000000
# 5 0.000000 0.000000 0.000000 0.000000 0.045353 0.000000
# 6 0.000000 0.000000 0.000000 0.000000 0.000000 0.075336
#
#
# Mechanical properties :
#
#
# Convention : Reuss Voigt Hill
#
# Bulk Modulus (GPa) = 52.85583 57.74150 55.29867
# Shear Modulus (GPa) = 18.91795 20.10786 19.51290
#
# Velocity S-wave (km/s) = 3.42523 3.53131 3.47867
# Velocity P-wave (km/s) = 6.95860 7.24126 7.10134
#
# Compressibility (1/GPa) = 0.01891939
#
# Stress axis : x y z
#
# Youngs Moduli (GPa) = 47.88016 47.88016 73.18230
#
# Poissons Ratio (x) = 0.28877 0.44739
# Poissons Ratio (y) = 0.28877 0.44739
# Poissons Ratio (z) = 0.29271 0.29271
#
# Static dielectric constant tensor:
#      x y z
#    x 2.883760 0.000000 0.000000 
#    y 0.000000 2.883760 0.000000 
#    z 0.000000 0.000000 3.453670 
# 
# 
# High freq. dielectric constant tensor:
#      x y z
#    x 1.595250 0.000000 0.000000 
#    y 0.000000 1.595250 0.000000 
#    z 0.000000 0.000000 1.639170 
# 
# From -- ./inp_files/1283.got.cif
#   From: 2010.03.12/outbox.cif.g09.slc.cpg/sg99_cif.got.tgz:1283.got - 2010.04.08 21:11:30.
