data_PCOD8306675
_publ_section_title
;
Structure prediction by ZEFSAII (Michael W. Deem and Ramdas Pophale) SiO2 
 PCOD8306675
Probable space group: P 4 B M
;
_chemical_formula_sum "Si O2"
_cell_formula_units_Z 56
_cell_length_a 14.825363
_cell_length_b 14.825363
_cell_length_c 12.917161
_cell_angle_alpha 90.000000
_cell_angle_beta 90.000000
_cell_angle_gamma 90.000000
_cell_volume 2839.080746
_symmetry_space_group_name_H-M "P 4 B M"
_symmetry_group_IT_number 100
_symmetry_cell_setting 'tetragonal'
loop_
_space_group_symop_operation_xyz
x,y,z
-y,x,z
-x,-y,z
y,-x,z
1/2-x,1/2+y,z
1/2+x,1/2-y,z
1/2-y,1/2-x,z
1/2+y,1/2+x,z
loop_
_atom_site_type_symbol
_atom_site_label
_atom_site_fract_x
_atom_site_fract_y
_atom_site_fract_z
Si Si1 0.599951 0.609378 0.810770
Si Si2 0.370795 0.278126 0.002689
Si Si3 0.855309 0.504556 0.076255
Si Si4 0.599950 0.390621 0.579192
Si Si5 0.644692 0.995444 0.313702
Si Si6 0.895225 0.104776 0.194981
Si Si7 0.129206 0.221875 0.387271
O O1 0.494123 0.624326 0.828963
O O2 0.633515 0.633514 0.694981
O O3 0.647578 0.674668 0.892622
O O4 0.297486 0.202515 0.021124
O O5 0.470576 0.230278 0.008079
O O6 0.354082 0.352166 0.091450
O O7 0.937717 0.437717 0.059031
O O8 0.822493 0.500000 0.194979
O O9 0.894197 0.605804 0.048304
O O10 0.624326 0.494122 0.560999
O O11 0.647577 0.325331 0.497340
O O12 0.562284 0.062284 0.330928
O O13 0.730279 0.029425 0.381880
O O14 0.605803 0.894198 0.341653
O O15 0.852166 0.145920 0.298512
O O16 0.000000 0.125884 0.194982
O O17 0.202516 0.297485 0.368836
#
# Coordination Sequence:
#
# PCOD8306675 Si02
#       7
#     8   8   8   8   8   8   8
#     4   9  19  38  60  76  97 137 184 223 266 323
#     4  11  21  33  54  84 114 140 175 226 276 325
#     4   8  15  29  48  72 108 151 182 203 244 316
#     4   9  19  38  60  76  97 137 184 223 266 323
#     4   8  15  29  48  72 108 151 182 203 244 316
#     4  11  23  38  54  74 107 149 188 224 270 323
#     4  11  21  33  54  84 114 140 175 226 276 325
#
# _framework density 19.724694
#
# number of rings (size 3 to 8) (size 9 to 14) (size 15 to 20)
#    0.000    2.429    0.000    4.714    0.000    2.857 
#    0.000    8.571    0.000    1.714    0.000    0.000 
#    0.000    0.000    0.000    1.143    0.000    0.000 
#
# Total GULP energy -693935.069603 kJ/mol
# GULP energy per Si atom -12391.697671 kJ/mol
# Density = 1.967980 g / cm^3
# Si number density = 19.724694 Si / 1000 Ang^3
#
#
#
# Elastic Constant Matrix: (Units=GPa)
#
#
# Indices 1 2 3 4 5 6 
#
# 1 80.3779 32.6873 52.8487 0.0000 0.0000 0.0000
# 2 32.6873 80.3779 52.8487 0.0000 0.0000 0.0000
# 3 52.8487 52.8487 137.0002 0.0000 0.0000 0.0000
# 4 0.0000 0.0000 0.0000 14.4658 0.0000 0.0000
# 5 0.0000 0.0000 0.0000 0.0000 14.4658 0.0000
# 6 0.0000 0.0000 0.0000 0.0000 0.0000 7.3993
#
#
#
# Elastic Compliance Matrix: (Units=1/GPa)
#
#
# Indices 1 2 3 4 5 6 
#
# 1 0.017401 -0.003568 -0.005336 0.000000 0.000000 0.000000
# 2 -0.003568 0.017401 -0.005336 0.000000 0.000000 0.000000
# 3 -0.005336 -0.005336 0.011416 0.000000 0.000000 0.000000
# 4 0.000000 0.000000 0.000000 0.069128 0.000000 0.000000
# 5 0.000000 0.000000 0.000000 0.000000 0.069128 0.000000
# 6 0.000000 0.000000 0.000000 0.000000 0.000000 0.135149
#
#
# Mechanical properties :
#
#
# Convention : Reuss Voigt Hill
#
# Bulk Modulus (GPa) = 56.37810 63.83615 60.10713
# Shear Modulus (GPa) = 14.12367 17.89093 16.00730
#
# Velocity S-wave (km/s) = 2.67880 3.01496 2.85184
# Velocity P-wave (km/s) = 6.18162 6.67487 6.43297
#
# Compressibility (1/GPa) = 0.01773738
#
# Stress axis : x y z
#
# Youngs Moduli (GPa) = 57.46908 57.46908 87.59530
#
# Poissons Ratio (x) = 0.20504 0.46742
# Poissons Ratio (y) = 0.20504 0.46742
# Poissons Ratio (z) = 0.30666 0.30666
#
# Static dielectric constant tensor:
#      x y z
#    x 3.709120 0.000000 0.000000 
#    y 0.000000 3.709120 0.000000 
#    z 0.000000 0.000000 3.449150 
# 
# 
# High freq. dielectric constant tensor:
#      x y z
#    x 1.766030 0.000000 0.000000 
#    y 0.000000 1.766030 0.000000 
#    z 0.000000 0.000000 1.743400 
# 
# From -- ./inp_files/1306.got.cif
#   From: 2010.03.12/outbox.cif.g09.slc.cpg/sg100_cif.got.tgz:1306.got - 2010.04.14 01:37:57.
