data_PCOD8306092
_publ_section_title
;
Structure prediction by ZEFSAII (Michael W. Deem and Ramdas Pophale) SiO2 
 PCOD8306092
Probable space group: I 4 2 2 
;
_chemical_formula_sum "Si O2"
_cell_formula_units_Z 120
_cell_length_a 17.406123
_cell_length_b 17.406123
_cell_length_c 21.304700
_cell_angle_alpha 90.000000
_cell_angle_beta 90.000000
_cell_angle_gamma 90.000000
_cell_volume 6454.751385
_symmetry_space_group_name_H-M "I 4 2 2 "
_symmetry_group_IT_number 97
_symmetry_cell_setting 'tetragonal'
loop_
_space_group_symop_operation_xyz
x,y,z
-y,x,z
-x,-y,z
y,-x,z
x,-y,-z
-x,y,-z
y,x,-z
-y,-x,-z
1/2+x,1/2+y,1/2+z
1/2-y,1/2+x,1/2+z
1/2-x,1/2-y,1/2+z
1/2+y,1/2-x,1/2+z
1/2+x,1/2-y,1/2-z
1/2-x,1/2+y,1/2-z
1/2+y,1/2+x,1/2-z
1/2-y,1/2-x,1/2-z
loop_
_atom_site_type_symbol
_atom_site_label
_atom_site_fract_x
_atom_site_fract_y
_atom_site_fract_z
Si Si1 0.092340 0.592340 0.250000
Si Si2 0.248365 0.993844 0.569916
Si Si3 0.468541 0.377153 0.168385
Si Si4 0.117806 0.765564 0.258132
Si Si5 0.358638 0.856488 0.552798
Si Si6 0.495988 0.083769 0.377048
Si Si7 0.226564 0.255110 0.852181
Si Si8 0.342029 0.858754 0.407131
O O1 0.079152 0.682051 0.265676
O O2 0.070441 0.540063 0.308525
O O3 0.276700 0.075514 0.597011
O O4 0.214330 0.000000 0.500000
O O5 0.179674 0.957264 0.609895
O O6 0.321793 0.938596 0.569061
O O7 0.554551 0.407464 0.166558
O O8 0.448838 0.328931 0.231518
O O9 0.156894 0.777900 0.190414
O O10 0.181855 0.774023 0.312639
O O11 0.444610 0.858919 0.580889
O O12 0.309377 0.789490 0.584576
O O13 0.362089 0.840296 0.479137
O O14 0.581058 0.117862 0.370518
O O15 0.500000 0.000000 0.409994
O O16 0.283146 0.187365 0.872049
#
# Coordination Sequence:
#
# PCOD8306092 Si02
#       8
#     8  16  16  16  16  16  16  16
#     4  10  21  40  60  84 118 160 191 252 306 358
#     4  10  21  36  56  83 117 159 196 243 298 359
#     4  11  23  38  57  82 113 153 201 251 300 352
#     4  10  20  40  64  76 118 156 194 254 313 347
#     4  11  20  40  58  81 127 160 188 251 315 360
#     4  12  22  38  56  88 124 159 200 244 307 364
#     4  10  20  40  59  84 109 154 201 246 302 358
#     4  11  24  34  61  91 115 157 211 243 289 381
#
# _framework density 18.590955999999998
#
# number of rings (size 3 to 8) (size 9 to 14) (size 15 to 20)
#    0.000    1.467    5.333    1.800    0.000    2.133 
#    4.800    0.667    0.000    0.000    0.000    0.000 
#    0.000    0.000    0.000    5.467    0.000    0.000 
#
# Total GULP energy -744055.367113 kJ/mol
# GULP energy per Si atom -12400.922785 kJ/mol
# Density = 1.854864 g / cm^3
# Si number density = 18.590956 Si / 1000 Ang^3
#
#
#
# Elastic Constant Matrix: (Units=GPa)
#
#
# Indices 1 2 3 4 5 6 
#
# 1 83.3243 44.3164 37.2363 0.0000 0.0000 0.0000
# 2 44.3164 83.3243 37.2363 0.0000 0.0000 0.0000
# 3 37.2363 37.2363 99.0566 0.0000 0.0000 0.0000
# 4 0.0000 0.0000 0.0000 26.1547 0.0000 0.0000
# 5 0.0000 0.0000 0.0000 0.0000 26.1547 0.0000
# 6 0.0000 0.0000 0.0000 0.0000 0.0000 34.7918
#
#
#
# Elastic Compliance Matrix: (Units=1/GPa)
#
#
# Indices 1 2 3 4 5 6 
#
# 1 0.017836 -0.007800 -0.003772 0.000000 0.000000 0.000000
# 2 -0.007800 0.017836 -0.003772 0.000000 0.000000 0.000000
# 3 -0.003772 -0.003772 0.012931 0.000000 0.000000 0.000000
# 4 0.000000 0.000000 0.000000 0.038234 0.000000 0.000000
# 5 0.000000 0.000000 0.000000 0.000000 0.038234 0.000000
# 6 0.000000 0.000000 0.000000 0.000000 0.000000 0.028742
#
#
# Mechanical properties :
#
#
# Convention : Reuss Voigt Hill
#
# Bulk Modulus (GPa) = 55.82628 55.92037 55.87332
# Shear Modulus (GPa) = 26.25025 27.21465 26.73245
#
# Velocity S-wave (km/s) = 3.76172 3.83020 3.79612
# Velocity P-wave (km/s) = 6.99724 7.05019 7.02376
#
# Compressibility (1/GPa) = 0.01791271
#
# Stress axis : x y z
#
# Youngs Moduli (GPa) = 56.06733 56.06733 77.33086
#
# Poissons Ratio (x) = 0.43733 0.29173
# Poissons Ratio (y) = 0.43733 0.29173
# Poissons Ratio (z) = 0.21151 0.21151
#
# Static dielectric constant tensor:
#      x y z
#    x 3.351200 0.000000 0.000000 
#    y 0.000000 3.351200 0.000000 
#    z 0.000000 0.000000 3.499860 
# 
# 
# High freq. dielectric constant tensor:
#      x y z
#    x 1.713120 0.000000 0.000000 
#    y 0.000000 1.713120 0.000000 
#    z 0.000000 0.000000 1.720320 
# 
# From -- ./inp_files/6860.got.cif
#   From: 2010.03.12/outbox.cif.g09.slc.cpg/sg97_4_cif.got.tgz:6860.got - 2010.04.08 20:59:42.
