data_PCOD8306795
_publ_section_title
;
Structure prediction by ZEFSAII (Michael W. Deem and Ramdas Pophale) SiO2 
 PCOD8306795
Probable space group: P 42 C M
;
_chemical_formula_sum "Si O2"
_cell_formula_units_Z 38
_cell_length_a 14.151844
_cell_length_b 14.151844
_cell_length_c 9.071558
_cell_angle_alpha 90.000000
_cell_angle_beta 90.000000
_cell_angle_gamma 90.000000
_cell_volume 1816.803454
_symmetry_space_group_name_H-M "P 42 C M"
_symmetry_group_IT_number 101
_symmetry_cell_setting 'tetragonal'
loop_
_space_group_symop_operation_xyz
x,y,z
-y,x,1/2+z
-x,-y,z
y,-x,1/2+z
-x,y,1/2+z
x,-y,1/2+z
-y,-x,z
y,x,z
loop_
_atom_site_type_symbol
_atom_site_label
_atom_site_fract_x
_atom_site_fract_y
_atom_site_fract_z
Si Si1 0.431411 0.284453 0.152170
Si Si2 0.873293 0.281940 0.715918
Si Si3 0.391411 0.240015 0.829947
Si Si4 0.055249 0.297566 0.888641
Si Si5 0.894020 0.894020 0.776047
Si Si6 0.000000 0.000000 0.526484
O O1 0.385025 0.385025 0.200314
O O2 0.365705 0.201404 0.214222
O O3 0.538644 0.271886 0.201798
O O4 0.437300 0.280165 0.977355
O O5 0.818944 0.181057 0.743203
O O6 0.930067 0.275027 0.561313
O O7 0.944426 0.311429 0.849102
O O8 0.288241 0.288241 0.806300
O O9 0.382913 0.125600 0.841123
O O10 0.086272 0.215776 0.777901
O O11 0.934691 0.934691 0.626056
O O12 0.935911 0.935911 0.925367
#
# Coordination Sequence:
#
# PCOD8306795 Si02
#       6
#     8   8   8   8   4   2
#     4   9  21  41  64  85 117 149 187 237 291 345
#     4  10  22  41  57  84 116 156 197 239 283 338
#     4  10  21  41  62  87 117 150 187 235 289 351
#     4  11  21  38  59  80 119 157 192 236 288 333
#     4  11  20  36  50  82 111 158 186 246 271 338
#     4  10  24  30  52  78 116 150 208 230 284 318
#
# _framework density 20.915854
#
# number of rings (size 3 to 8) (size 9 to 14) (size 15 to 20)
#    0.000    1.895    2.105    2.526    2.947    3.789 
#    1.895    8.421    0.000    0.000    0.000    0.000 
#    0.000    0.000    0.000    0.000    0.000    0.000 
#
# Total GULP energy -470946.155806 kJ/mol
# GULP energy per Si atom -12393.319890 kJ/mol
# Density = 2.086825 g / cm^3
# Si number density = 20.915854 Si / 1000 Ang^3
#
#
#
# Elastic Constant Matrix: (Units=GPa)
#
#
# Indices 1 2 3 4 5 6 
#
# 1 70.5091 13.0935 32.3812 0.0000 0.0000 -0.0003
# 2 13.0935 70.5091 32.3812 0.0000 0.0000 0.0003
# 3 32.3812 32.3812 64.6302 0.0000 0.0000 0.0000
# 4 0.0000 0.0000 0.0000 34.6347 0.0000 0.0000
# 5 0.0000 0.0000 0.0000 0.0000 34.6347 0.0000
# 6 -0.0003 0.0003 0.0000 0.0000 0.0000 22.1409
#
#
#
# Elastic Compliance Matrix: (Units=1/GPa)
#
#
# Indices 1 2 3 4 5 6 
#
# 1 0.018483 0.001066 -0.009794 0.000000 0.000000 0.000000
# 2 0.001066 0.018483 -0.009794 0.000000 0.000000 0.000000
# 3 -0.009794 -0.009794 0.025287 0.000000 0.000000 0.000000
# 4 0.000000 0.000000 0.000000 0.028873 0.000000 0.000000
# 5 0.000000 0.000000 0.000000 0.000000 0.028873 0.000000
# 6 0.000000 0.000000 0.000000 0.000000 0.000000 0.045165
#
#
# Mechanical properties :
#
#
# Convention : Reuss Voigt Hill
#
# Bulk Modulus (GPa) = 39.67167 40.15110 39.91139
# Shear Modulus (GPa) = 23.74050 26.80155 25.27103
#
# Velocity S-wave (km/s) = 3.37270 3.58355 3.47972
# Velocity P-wave (km/s) = 5.84596 6.02997 5.93868
#
# Compressibility (1/GPa) = 0.02520690
#
# Stress axis : x y z
#
# Youngs Moduli (GPa) = 54.10487 54.10487 39.54624
#
# Poissons Ratio (x) = -0.05766 0.38732
# Poissons Ratio (y) = -0.05766 0.38732
# Poissons Ratio (z) = 0.52991 0.52991
#
# Static dielectric constant tensor:
#      x y z
#    x 3.818240 0.000000 0.000000 
#    y 0.000000 3.818240 0.000000 
#    z 0.000000 0.000000 3.620430 
# 
# 
# High freq. dielectric constant tensor:
#      x y z
#    x 1.814800 0.000000 0.000000 
#    y 0.000000 1.814800 0.000000 
#    z 0.000000 0.000000 1.810210 
# 
# From -- ./inp_files/539.got.cif
#   From: 2010.03.12/outbox.cif.g09.slc.cpg/sg101_1_cif.got.tgz:539.got - 2010.04.14 01:38:52.
