data_PCOD8306883
_publ_section_title
;
Structure prediction by ZEFSAII (Michael W. Deem and Ramdas Pophale) SiO2 
 PCOD8306883
Probable space group: P 42 N M
;
_chemical_formula_sum "Si O2"
_cell_formula_units_Z 64
_cell_length_a 17.547912
_cell_length_b 17.547912
_cell_length_c 11.411829
_cell_angle_alpha 90.000000
_cell_angle_beta 90.000000
_cell_angle_gamma 90.000000
_cell_volume 3514.035552
_symmetry_space_group_name_H-M "P 42 N M"
_symmetry_group_IT_number 102
_symmetry_cell_setting 'tetragonal'
loop_
_space_group_symop_operation_xyz
x,y,z
1/2-y,1/2+x,1/2+z
-x,-y,z
1/2+y,1/2-x,1/2+z
1/2-x,1/2+y,1/2+z
1/2+x,1/2-y,1/2+z
-y,-x,z
y,x,z
loop_
_atom_site_type_symbol
_atom_site_label
_atom_site_fract_x
_atom_site_fract_y
_atom_site_fract_z
Si Si1 0.610698 0.110697 0.145700
Si Si2 0.909893 0.784733 0.068142
Si Si3 0.091633 0.656379 0.902925
Si Si4 0.408361 0.843623 0.388476
Si Si5 0.551936 0.846144 0.064463
Si Si6 0.878016 0.000001 0.895706
Si Si7 0.784736 0.090105 0.723260
Si Si8 0.448061 0.846148 0.726938
O O1 0.616300 0.171518 0.252438
O O2 0.530549 0.118352 0.080819
O O3 0.618348 0.030546 0.210581
O O4 0.671520 0.116294 0.038963
O O5 0.840696 0.840696 0.103222
O O6 0.941077 0.742367 0.185057
O O7 0.881084 0.727274 0.966523
O O8 0.981119 0.829045 0.011050
O O9 0.118911 0.727275 0.824880
O O10 0.138431 0.581184 0.859146
O O11 0.999997 0.643582 0.895700
O O12 0.361564 0.918818 0.432255
O O13 0.558919 0.757629 0.106346
O O14 0.609729 0.890268 0.145700
O O15 0.928033 0.928033 0.857704
O O16 0.829054 0.018884 0.780353
O O17 0.928034 0.071967 0.933717
O O18 0.840694 0.159307 0.688179
#
# Coordination Sequence:
#
# PCOD8306883 Si02
#       8
#     8   8   8   8   8   8   8   8
#     4  12  19  32  49  72 112 132 169 222 265 306
#     4  10  19  36  54  73 107 140 178 217 258 320
#     4  11  21  32  48  76 106 136 174 212 261 313
#     4  11  21  32  48  76 106 136 174 212 261 313
#     4  10  20  30  48  75 100 139 175 212 256 310
#     4   9  16  28  52  82 105 132 176 234 279 302
#     4  10  19  36  54  73 107 140 178 217 258 320
#     4  10  20  30  48  75 100 139 175 212 256 310
#
# _framework density 18.212678
#
# number of rings (size 3 to 8) (size 9 to 14) (size 15 to 20)
#    0.000    1.625    6.250    1.125    0.000    5.500 
#    0.000    0.625    0.000    1.500    0.000    1.750 
#    0.000    0.000    0.000   21.250    0.000    0.000 
#
# Total GULP energy -792910.947457 kJ/mol
# GULP energy per Si atom -12389.233554 kJ/mol
# Density = 1.817123 g / cm^3
# Si number density = 18.212678 Si / 1000 Ang^3
#
#
#
# Elastic Constant Matrix: (Units=GPa)
#
#
# Indices 1 2 3 4 5 6 
#
# 1 72.3866 24.7782 13.7302 0.0000 0.0000 -0.0001
# 2 24.7782 72.3866 13.7302 0.0000 0.0000 0.0001
# 3 13.7302 13.7302 94.7230 0.0000 0.0000 0.0000
# 4 0.0000 0.0000 0.0000 21.6777 0.0000 0.0000
# 5 0.0000 0.0000 0.0000 0.0000 21.6777 0.0000
# 6 -0.0001 0.0001 0.0000 0.0000 0.0000 17.6273
#
#
#
# Elastic Compliance Matrix: (Units=1/GPa)
#
#
# Indices 1 2 3 4 5 6 
#
# 1 0.015868 -0.005137 -0.001556 0.000000 0.000000 0.000000
# 2 -0.005137 0.015868 -0.001556 0.000000 0.000000 0.000000
# 3 -0.001556 -0.001556 0.011008 0.000000 0.000000 0.000000
# 4 0.000000 0.000000 0.000000 0.046130 0.000000 0.000000
# 5 0.000000 0.000000 0.000000 0.000000 0.046130 0.000000
# 6 0.000000 0.000000 0.000000 0.000000 0.000000 0.056730
#
#
# Mechanical properties :
#
#
# Convention : Reuss Voigt Hill
#
# Bulk Modulus (GPa) = 38.09704 38.21926 38.15815
# Shear Modulus (GPa) = 23.04356 24.68036 23.86196
#
# Velocity S-wave (km/s) = 3.56089 3.68519 3.62357
# Velocity P-wave (km/s) = 6.15385 6.25604 6.20516
#
# Compressibility (1/GPa) = 0.02624876
#
# Stress axis : x y z
#
# Youngs Moduli (GPa) = 63.01967 63.01967 90.84268
#
# Poissons Ratio (x) = 0.32371 0.14131
# Poissons Ratio (y) = 0.32371 0.14131
# Poissons Ratio (z) = 0.09803 0.09803
#
# Static dielectric constant tensor:
#      x y z
#    x 3.488780 0.000000 0.000000 
#    y 0.000000 3.488780 0.000000 
#    z 0.000000 0.000000 3.937270 
# 
# 
# High freq. dielectric constant tensor:
#      x y z
#    x 1.689340 0.000000 0.000000 
#    y 0.000000 1.689340 0.000000 
#    z 0.000000 0.000000 1.701060 
# 
# From -- ./inp_files/1928.got.cif
#   From: 2010.03.12/outbox.cif.g09.slc.cpg/sg102_1_cif.got.tgz:1928.got - 2010.04.14 01:40:42.
