data_PCOD8306120
_publ_section_title
;
Structure prediction by ZEFSAII (Michael W. Deem and Ramdas Pophale) SiO2 
 PCOD8306120
Probable space group: I 4 2 2 
;
_chemical_formula_sum "Si O2"
_cell_formula_units_Z 88
_cell_length_a 11.565486
_cell_length_b 11.565486
_cell_length_c 30.989313
_cell_angle_alpha 90.000000
_cell_angle_beta 90.000000
_cell_angle_gamma 90.000000
_cell_volume 4145.144961
_symmetry_space_group_name_H-M "I 4 2 2 "
_symmetry_group_IT_number 97
_symmetry_cell_setting 'tetragonal'
loop_
_space_group_symop_operation_xyz
x,y,z
-y,x,z
-x,-y,z
y,-x,z
x,-y,-z
-x,y,-z
y,x,-z
-y,-x,-z
1/2+x,1/2+y,1/2+z
1/2-y,1/2+x,1/2+z
1/2-x,1/2-y,1/2+z
1/2+y,1/2-x,1/2+z
1/2+x,1/2-y,1/2-z
1/2-x,1/2+y,1/2-z
1/2+y,1/2+x,1/2-z
1/2-y,1/2-x,1/2-z
loop_
_atom_site_type_symbol
_atom_site_label
_atom_site_fract_x
_atom_site_fract_y
_atom_site_fract_z
Si Si1 0.134096 0.135480 0.378873
Si Si2 0.443973 0.315502 0.260097
Si Si3 0.511493 0.830912 0.548852
Si Si4 0.752015 0.238178 0.952059
Si Si5 0.000000 0.500000 0.378735
Si Si6 0.328773 0.858467 0.681174
O O1 0.165217 0.183515 0.425606
O O2 0.220325 0.197653 0.344851
O O3 0.000289 0.160879 0.371419
O O4 0.575933 0.357030 0.258509
O O5 0.413675 0.244786 0.303619
O O6 0.427773 0.226623 0.220957
O O7 0.500000 0.884087 0.500000
O O8 0.608281 0.731859 0.549669
O O9 0.387329 0.786678 0.563833
O O10 0.559841 0.914140 0.586598
O O11 0.721527 0.278474 0.000000
O O12 0.945218 0.401579 0.348839
#
# Coordination Sequence:
#
# PCOD8306120 Si02
#       6
#    16  16  16  16   8  16
#     4  11  23  41  63  93 133 175 222 277 336 401
#     4  10  24  46  67  95 133 170 213 270 338 400
#     4  10  22  41  64  91 133 177 224 280 336 393
#     4  10  22  40  63  93 126 177 229 278 339 394
#     4  12  23  41  62 100 132 170 222 275 333 392
#     4  11  24  41  70  98 127 174 217 274 330 407
#
# _framework density 21.229655999999999
#
# number of rings (size 3 to 8) (size 9 to 14) (size 15 to 20)
#    0.000    1.455    1.818    2.455    0.000    9.818 
#    0.000    2.727    0.000    0.000    0.000    0.000 
#    0.000    0.000    0.000    0.000    0.000    0.000 
#
# Total GULP energy -545203.455112 kJ/mol
# GULP energy per Si atom -12390.987616 kJ/mol
# Density = 2.118134 g / cm^3
# Si number density = 21.229656 Si / 1000 Ang^3
#
#
#
# Elastic Constant Matrix: (Units=GPa)
#
#
# Indices 1 2 3 4 5 6 
#
# 1 83.4759 39.8860 49.1344 0.0000 0.0000 0.0000
# 2 39.8860 83.4757 49.1344 0.0000 0.0000 0.0000
# 3 49.1344 49.1344 127.2084 0.0000 0.0000 0.0000
# 4 0.0000 0.0000 0.0000 36.9595 0.0000 0.0000
# 5 0.0000 0.0000 0.0000 0.0000 36.9596 0.0000
# 6 0.0000 0.0000 0.0000 0.0000 0.0000 22.4920
#
#
#
# Elastic Compliance Matrix: (Units=1/GPa)
#
#
# Indices 1 2 3 4 5 6 
#
# 1 0.017325 -0.005616 -0.004523 0.000000 0.000000 0.000000
# 2 -0.005616 0.017325 -0.004523 0.000000 0.000000 0.000000
# 3 -0.004523 -0.004523 0.011355 0.000000 0.000000 0.000000
# 4 0.000000 0.000000 0.000000 0.027057 0.000000 0.000000
# 5 0.000000 0.000000 0.000000 0.000000 0.027057 0.000000
# 6 0.000000 0.000000 0.000000 0.000000 0.000000 0.044460
#
#
# Mechanical properties :
#
#
# Convention : Reuss Voigt Hill
#
# Bulk Modulus (GPa) = 59.94382 63.38551 61.66466
# Shear Modulus (GPa) = 27.86112 29.68257 28.77185
#
# Velocity S-wave (km/s) = 3.62659 3.74326 3.68539
# Velocity P-wave (km/s) = 6.77004 6.97170 6.87161
#
# Compressibility (1/GPa) = 0.01668229
#
# Stress axis : x y z
#
# Youngs Moduli (GPa) = 57.72011 57.71997 88.06843
#
# Poissons Ratio (x) = 0.32416 0.39829
# Poissons Ratio (y) = 0.32416 0.39830
# Poissons Ratio (z) = 0.26104 0.26104
#
# Static dielectric constant tensor:
#      x y z
#    x 3.929500 0.000000 0.000000 
#    y 0.000000 3.929490 0.000000 
#    z 0.000000 0.000000 4.099940 
# 
# 
# High freq. dielectric constant tensor:
#      x y z
#    x 1.830250 0.000000 0.000000 
#    y 0.000000 1.830250 0.000000 
#    z 0.000000 0.000000 1.847720 
# 
# From -- ./inp_files/8091.got.cif
#   From: 2010.03.12/outbox.cif.g09.slc.cpg/sg97_5_cif.got.tgz:8091.got - 2010.04.08 20:59:42.
