data_PCOD8306377
_publ_section_title
;
Structure prediction by ZEFSAII (Michael W. Deem and Ramdas Pophale) SiO2 
 PCOD8306377
Probable space group: I 41 2 2
;
_chemical_formula_sum "Si O2"
_cell_formula_units_Z 108
_cell_length_a 15.738569
_cell_length_b 15.738569
_cell_length_c 21.191534
_cell_angle_alpha 90.000000
_cell_angle_beta 90.000000
_cell_angle_gamma 90.000000
_cell_volume 5249.197099
_symmetry_space_group_name_H-M "I 41 2 2"
_symmetry_group_IT_number 98
_symmetry_cell_setting 'tetragonal'
loop_
_space_group_symop_operation_xyz
x,y,z
-y,1/2+x,1/4+z
-x,-y,z
y,1/2-x,1/4+z
x,1/2-y,1/4-z
-x,1/2+y,1/4-z
y,x,-z
-y,-x,-z
1/2+x,1/2+y,1/2+z
1/2-y,x,3/4+z
1/2-x,1/2-y,1/2+z
1/2+y,-x,3/4+z
1/2+x,-y,3/4-z
1/2-x,y,3/4-z
1/2+y,1/2+x,1/2-z
1/2-y,1/2-x,1/2-z
loop_
_atom_site_type_symbol
_atom_site_label
_atom_site_fract_x
_atom_site_fract_y
_atom_site_fract_z
Si Si1 0.687704 0.761751 0.319123
Si Si2 0.954986 0.084089 0.110337
Si Si3 0.148216 0.969169 0.226441
Si Si4 0.650199 0.150199 0.750000
Si Si5 0.349773 0.077641 0.960428
Si Si6 0.678353 0.996759 0.180045
Si Si7 0.500000 0.500000 0.000000
Si Si8 0.929125 0.316334 0.953318
O O1 0.750000 0.793875 0.375000
O O2 0.697824 0.802177 0.250000
O O3 0.702102 0.661090 0.309260
O O4 0.595822 0.791171 0.343334
O O5 0.876893 0.059211 0.155782
O O6 0.022828 0.140667 0.147276
O O7 0.921021 0.139672 0.053212
O O8 0.000000 0.000000 0.083290
O O9 0.250962 0.972316 0.231041
O O10 0.111620 0.905979 0.278150
O O11 0.105229 0.059926 0.240299
O O12 0.743743 0.138358 0.721751
O O13 0.301663 0.020453 0.012605
O O14 0.584157 0.998562 0.207734
O O15 0.681603 0.059931 0.121232
#
# Coordination Sequence:
#
# PCOD8306377 Si02
#       8
#    16  16  16   8  16  16   4  16
#     4  11  23  43  67 101 139 170 218 288 342 393
#     4   9  18  37  55  87 129 173 209 254 314 387
#     4   9  20  42  65  90 129 167 220 279 325 396
#     4  12  23  33  58 100 133 175 212 280 318 400
#     4   9  21  38  66  92 128 177 221 264 326 416
#     4  11  24  48  65  98 131 168 226 284 332 419
#     4  12  28  46  76  92 130 172 228 284 358 400
#     4  11  23  40  67  95 132 179 224 265 345 398
#
# _framework density 20.574574999999999
#
# number of rings (size 3 to 8) (size 9 to 14) (size 15 to 20)
#    0.000    1.778    2.222    2.444    4.148    2.370 
#    0.000    2.222    0.000    0.000    0.000    0.000 
#    0.000    0.000    0.000    0.000    0.000    0.000 
#
# Total GULP energy -669567.342264 kJ/mol
# GULP energy per Si atom -12399.395227 kJ/mol
# Density = 2.052775 g / cm^3
# Si number density = 20.574575 Si / 1000 Ang^3
#
#
#
# Elastic Constant Matrix: (Units=GPa)
#
#
# Indices 1 2 3 4 5 6 
#
# 1 97.7923 20.7461 26.0587 0.0000 0.0000 0.0000
# 2 20.7461 97.7913 26.0585 0.0000 0.0000 0.0000
# 3 26.0587 26.0585 74.7343 0.0000 0.0000 0.0000
# 4 0.0000 0.0000 0.0000 24.4880 0.0000 0.0000
# 5 0.0000 0.0000 0.0000 0.0000 24.4881 0.0000
# 6 0.0000 0.0000 0.0000 0.0000 0.0000 30.2848
#
#
#
# Elastic Compliance Matrix: (Units=1/GPa)
#
#
# Indices 1 2 3 4 5 6 
#
# 1 0.011471 -0.001508 -0.003474 0.000000 0.000000 0.000000
# 2 -0.001508 0.011471 -0.003474 0.000000 0.000000 0.000000
# 3 -0.003474 -0.003474 0.015803 0.000000 0.000000 0.000000
# 4 0.000000 0.000000 0.000000 0.040836 0.000000 0.000000
# 5 0.000000 0.000000 0.000000 0.000000 0.040836 0.000000
# 6 0.000000 0.000000 0.000000 0.000000 0.000000 0.033020
#
#
# Mechanical properties :
#
#
# Convention : Reuss Voigt Hill
#
# Bulk Modulus (GPa) = 45.79987 46.22714 46.01351
# Shear Modulus (GPa) = 28.14855 29.01582 28.58218
#
# Velocity S-wave (km/s) = 3.70283 3.75944 3.73124
# Velocity P-wave (km/s) = 6.37103 6.43128 6.40122
#
# Compressibility (1/GPa) = 0.02183412
#
# Stress axis : x y z
#
# Youngs Moduli (GPa) = 87.17335 87.17260 63.27717
#
# Poissons Ratio (x) = 0.13144 0.21983
# Poissons Ratio (y) = 0.13145 0.21983
# Poissons Ratio (z) = 0.30285 0.30285
#
# Static dielectric constant tensor:
#      x y z
#    x 3.733320 0.000000 0.000000 
#    y 0.000000 3.733310 0.000000 
#    z 0.000000 0.000000 3.486150 
# 
# 
# High freq. dielectric constant tensor:
#      x y z
#    x 1.805010 0.000000 0.000000 
#    y 0.000000 1.805010 0.000000 
#    z 0.000000 0.000000 1.789960 
# 
# From -- ./inp_files/10135.got.cif
#   From: 2010.03.12/outbox.cif.g09.slc.cpg/sg98_6_cif.got.tgz:10135.got - 2010.04.08 21:04:41.
