data_PCOD8306464
_publ_section_title
;
Structure prediction by ZEFSAII (Michael W. Deem and Ramdas Pophale) SiO2 
 PCOD8306464
Probable space group: P 4 M M
;
_chemical_formula_sum "Si O2"
_cell_formula_units_Z 64
_cell_length_a 13.705548
_cell_length_b 13.705548
_cell_length_c 20.574397
_cell_angle_alpha 90.000000
_cell_angle_beta 90.000000
_cell_angle_gamma 90.000000
_cell_volume 3864.736827
_symmetry_space_group_name_H-M "P 4 M M"
_symmetry_group_IT_number 99
_symmetry_cell_setting 'tetragonal'
loop_
_space_group_symop_operation_xyz
x,y,z
-y,x,z
-x,-y,z
y,-x,z
-x,y,z
x,-y,z
-y,-x,z
y,x,z
loop_
_atom_site_type_symbol
_atom_site_label
_atom_site_fract_x
_atom_site_fract_y
_atom_site_fract_z
Si Si1 0.726158 0.885501 0.389490
Si Si2 0.610818 0.112280 0.260295
Si Si3 0.891124 0.384217 0.763119
Si Si4 0.770440 0.385593 0.132542
Si Si5 0.230321 0.615169 0.884693
Si Si6 0.384303 0.891306 0.009224
Si Si7 0.227319 0.384461 0.496093
Si Si8 0.108705 0.384414 0.619494
O O1 0.827695 0.827695 0.398315
O O2 0.682680 0.862238 0.318915
O O3 0.646209 0.850360 0.441489
O O4 0.746533 0.000000 0.399240
O O5 0.500000 0.136813 0.281506
O O6 0.642769 0.175039 0.198628
O O7 0.619488 0.000000 0.239710
O O8 0.894474 0.500000 0.767364
O O9 0.819025 0.345153 0.818495
O O10 0.854982 0.351031 0.691260
O O11 0.000000 0.343208 0.775743
O O12 0.750786 0.500000 0.126795
O O13 0.665842 0.334159 0.131276
O O14 0.834691 0.346212 0.072593
O O15 0.247246 0.500000 0.884526
O O16 0.335925 0.664076 0.891412
O O17 0.163128 0.649738 0.944209
O O18 0.500000 0.897821 0.011342
O O19 0.339233 0.000000 0.009050
O O20 0.245547 0.500000 0.492932
O O21 0.330575 0.330575 0.485017
O O22 0.184273 0.348381 0.565180
O O23 0.102296 0.500000 0.616641
O O24 0.000000 0.341937 0.606021
#
# Coordination Sequence:
#
# PCOD8306464 Si02
#       8
#     8   8   8   8   8   8   8   8
#     4  10  20  33  50  72  96 122 154 193 238 288
#     4   9  17  30  49  71  93 119 153 193 233 268
#     4   8  14  26  44  64  85 111 146 190 233 263
#     4  10  19  30  45  66  94 125 153 181 214 257
#     4  10  19  29  42  62  90 122 152 181 216 265
#     4   9  17  30  47  64  82 107 143 188 232 265
#     4  10  20  32  47  68  94 125 160 195 231 274
#     4   8  14  26  45  66  86 111 146 188 232 273
#
# _framework density 16.559989999999999
#
# number of rings (size 3 to 8) (size 9 to 14) (size 15 to 20)
#    0.000    2.750    0.000    3.000    0.000    5.250 
#    0.000    0.000    0.000    2.250    0.000    5.250 
#    0.000   19.750    0.000    9.250    0.000    0.750 
#
# Total GULP energy -793402.002338 kJ/mol
# GULP energy per Si atom -12396.906287 kJ/mol
# Density = 1.652230 g / cm^3
# Si number density = 16.559990 Si / 1000 Ang^3
#
#
#
# Elastic Constant Matrix: (Units=GPa)
#
#
# Indices 1 2 3 4 5 6 
#
# 1 74.0416 43.2184 48.5192 0.0000 0.0000 0.0000
# 2 43.2184 74.0416 48.5192 0.0000 0.0000 0.0000
# 3 48.5192 48.5192 125.3194 0.0000 0.0000 0.0000
# 4 0.0000 0.0000 0.0000 18.2317 0.0000 0.0000
# 5 0.0000 0.0000 0.0000 0.0000 18.2317 0.0000
# 6 0.0000 0.0000 0.0000 0.0000 0.0000 14.6693
#
#
#
# Elastic Compliance Matrix: (Units=1/GPa)
#
#
# Indices 1 2 3 4 5 6 
#
# 1 0.022496 -0.009947 -0.004858 0.000000 0.000000 0.000000
# 2 -0.009947 0.022496 -0.004858 0.000000 0.000000 0.000000
# 3 -0.004858 -0.004858 0.011742 0.000000 0.000000 0.000000
# 4 0.000000 0.000000 0.000000 0.054850 0.000000 0.000000
# 5 0.000000 0.000000 0.000000 0.000000 0.054850 0.000000
# 6 0.000000 0.000000 0.000000 0.000000 0.000000 0.068170
#
#
# Mechanical properties :
#
#
# Convention : Reuss Voigt Hill
#
# Bulk Modulus (GPa) = 57.45376 61.54624 59.50000
# Shear Modulus (GPa) = 17.87426 19.10291 18.48859
#
# Velocity S-wave (km/s) = 3.28893 3.40009 3.34497
# Velocity P-wave (km/s) = 7.01373 7.25675 7.13628
#
# Compressibility (1/GPa) = 0.01740530
#
# Stress axis : x y z
#
# Youngs Moduli (GPa) = 44.45261 44.45261 85.16736
#
# Poissons Ratio (x) = 0.44218 0.41377
# Poissons Ratio (y) = 0.44218 0.41377
# Poissons Ratio (z) = 0.21597 0.21597
#
# Static dielectric constant tensor:
#      x y z
#    x 2.889710 0.000000 0.000000 
#    y 0.000000 2.889710 0.000000 
#    z 0.000000 0.000000 3.432190 
# 
# 
# High freq. dielectric constant tensor:
#      x y z
#    x 1.613390 0.000000 0.000000 
#    y 0.000000 1.613390 0.000000 
#    z 0.000000 0.000000 1.658610 
# 
# From -- ./inp_files/2046.got.cif
#   From: 2010.03.12/outbox.cif.g09.slc.cpg/sg99_cif.got.tgz:2046.got - 2010.04.08 21:11:30.
