data_PCOD8306436
_publ_section_title
;
Structure prediction by ZEFSAII (Michael W. Deem and Ramdas Pophale) SiO2 
 PCOD8306436
Probable space group: P 4 M M
;
_chemical_formula_sum "Si O2"
_cell_formula_units_Z 48
_cell_length_a 14.406574
_cell_length_b 14.406574
_cell_length_c 15.272371
_cell_angle_alpha 90.000000
_cell_angle_beta 90.000000
_cell_angle_gamma 90.000000
_cell_volume 3169.771047
_symmetry_space_group_name_H-M "P 4 M M"
_symmetry_group_IT_number 99
_symmetry_cell_setting 'tetragonal'
loop_
_space_group_symop_operation_xyz
x,y,z
-y,x,z
-x,-y,z
y,-x,z
-x,y,z
x,-y,z
-y,-x,z
y,x,z
loop_
_atom_site_type_symbol
_atom_site_label
_atom_site_fract_x
_atom_site_fract_y
_atom_site_fract_z
Si Si1 0.256182 0.894201 0.485070
Si Si2 0.390230 0.762372 0.798260
Si Si3 0.890012 0.602481 0.145226
Si Si4 0.393168 0.105915 0.637469
Si Si5 0.255636 0.106975 0.287492
Si Si6 0.610295 0.896714 0.951562
O O1 0.166318 0.833683 0.506071
O O2 0.337986 0.865780 0.550526
O O3 0.293238 0.878578 0.386247
O O4 0.225176 0.000000 0.499022
O O5 0.500000 0.739581 0.802718
O O6 0.334188 0.665813 0.794060
O O7 0.365057 0.824854 0.714731
O O8 0.355132 0.820858 0.882099
O O9 0.846376 0.500000 0.158738
O O10 0.850008 0.669196 0.220610
O O11 0.000000 0.595257 0.153710
O O12 0.864555 0.641982 0.048757
O O13 0.500000 0.117367 0.612761
O O14 0.371812 0.000000 0.667109
O O15 0.158514 0.158514 0.274110
O O16 0.236045 0.000000 0.266344
O O17 0.500000 0.903172 0.948909
O O18 0.650147 0.000000 0.929609
#
# Coordination Sequence:
#
# PCOD8306436 Si02
#       6
#     8   8   8   8   8   8
#     4   9  17  28  41  58  81 107 134 163 193 229
#     4  10  19  29  42  60  82 108 134 159 190 231
#     4   8  14  25  41  60  81 103 128 163 204 238
#     4   9  17  29  45  63  80  99 126 163 205 241
#     4   9  17  27  39  57  81 109 137 162 190 227
#     4   8  14  26  43  61  80 101 128 165 204 236
#
# _framework density 15.143050000000001
#
# number of rings (size 3 to 8) (size 9 to 14) (size 15 to 20)
#    0.000    3.167    0.000    2.000    0.000    3.833 
#    0.000    5.000    0.000    0.000    0.000    0.000 
#    0.000    3.333    0.000    4.333    0.000    6.667 
#
# Total GULP energy -594957.861338 kJ/mol
# GULP energy per Si atom -12394.955445 kJ/mol
# Density = 1.510858 g / cm^3
# Si number density = 15.143050 Si / 1000 Ang^3
#
#
#
# Elastic Constant Matrix: (Units=GPa)
#
#
# Indices 1 2 3 4 5 6 
#
# 1 63.8701 41.8459 55.9397 0.0000 0.0000 -0.0001
# 2 41.8459 63.8701 55.9397 0.0000 0.0000 0.0001
# 3 55.9397 55.9397 121.0831 0.0000 0.0000 0.0000
# 4 0.0000 0.0000 0.0000 19.1998 0.0000 0.0000
# 5 0.0000 0.0000 0.0000 0.0000 19.1998 0.0000
# 6 -0.0001 0.0001 0.0000 0.0000 0.0000 20.3045
#
#
#
# Elastic Compliance Matrix: (Units=1/GPa)
#
#
# Indices 1 2 3 4 5 6 
#
# 1 0.031957 -0.013448 -0.008551 0.000000 0.000000 0.000000
# 2 -0.013448 0.031957 -0.008551 0.000000 0.000000 0.000000
# 3 -0.008551 -0.008551 0.016160 0.000000 0.000000 0.000000
# 4 0.000000 0.000000 0.000000 0.052084 0.000000 0.000000
# 5 0.000000 0.000000 0.000000 0.000000 0.052084 0.000000
# 6 0.000000 0.000000 0.000000 0.000000 0.000000 0.049250
#
#
# Mechanical properties :
#
#
# Convention : Reuss Voigt Hill
#
# Bulk Modulus (GPa) = 52.70497 61.80818 57.25658
# Shear Modulus (GPa) = 16.61599 18.08070 17.34835
#
# Velocity S-wave (km/s) = 3.31610 3.45917 3.38839
# Velocity P-wave (km/s) = 7.03863 7.54051 7.29389
#
# Compressibility (1/GPa) = 0.01897354
#
# Stress axis : x y z
#
# Youngs Moduli (GPa) = 31.29241 31.29241 61.88209
#
# Poissons Ratio (x) = 0.42082 0.52915
# Poissons Ratio (y) = 0.42082 0.52915
# Poissons Ratio (z) = 0.26758 0.26758
#
# Static dielectric constant tensor:
#      x y z
#    x 2.781040 0.000000 0.000000 
#    y 0.000000 2.781040 0.000000 
#    z 0.000000 0.000000 3.217270 
# 
# 
# High freq. dielectric constant tensor:
#      x y z
#    x 1.556600 0.000000 0.000000 
#    y 0.000000 1.556600 0.000000 
#    z 0.000000 0.000000 1.594290 
# 
# From -- ./inp_files/1391.got.cif
#   From: 2010.03.12/outbox.cif.g09.slc.cpg/sg99_cif.got.tgz:1391.got - 2010.04.08 21:11:30.
