data_PCOD8306804
_publ_section_title
;
Structure prediction by ZEFSAII (Michael W. Deem and Ramdas Pophale) SiO2 
 PCOD8306804
Probable space group: P 42 C M
;
_chemical_formula_sum "Si O2"
_cell_formula_units_Z 40
_cell_length_a 11.542785
_cell_length_b 11.542785
_cell_length_c 13.411792
_cell_angle_alpha 90.000000
_cell_angle_beta 90.000000
_cell_angle_gamma 90.000000
_cell_volume 1786.931984
_symmetry_space_group_name_H-M "P 42 C M"
_symmetry_group_IT_number 101
_symmetry_cell_setting 'tetragonal'
loop_
_space_group_symop_operation_xyz
x,y,z
-y,x,1/2+z
-x,-y,z
y,-x,1/2+z
-x,y,1/2+z
x,-y,1/2+z
-y,-x,z
y,x,z
loop_
_atom_site_type_symbol
_atom_site_label
_atom_site_fract_x
_atom_site_fract_y
_atom_site_fract_z
Si Si1 0.433048 0.750548 0.239260
Si Si2 0.096598 0.408426 0.562416
Si Si3 0.819506 0.993815 0.036748
Si Si4 0.253214 0.926931 0.322271
Si Si5 0.651528 0.836379 0.344870
O O1 0.379345 0.620656 0.249422
O O2 0.433522 0.785850 0.122682
O O3 0.357875 0.840011 0.303110
O O4 0.564039 0.760299 0.278332
O O5 0.120405 0.412371 0.444881
O O6 0.000000 0.500000 0.593020
O O7 0.049984 0.282477 0.603076
O O8 0.892920 0.892920 0.093966
O O9 0.758410 0.937837 0.941129
O O10 0.905987 0.094014 0.999763
O O11 0.131154 0.868847 0.279941
O O12 0.291959 0.054896 0.283271
O O13 0.754980 0.754980 0.380082
#
# Coordination Sequence:
#
# PCOD8306804 Si02
#       5
#     8   8   8   8   8
#     4  11  23  40  60  84 118 158 204 255 300 353
#     4  11  21  37  62  88 118 154 198 249 308 375
#     4   9  17  32  55  84 118 152 187 232 289 354
#     4   9  17  32  57  86 116 149 187 237 299 363
#     4  11  22  38  61  88 120 159 203 250 306 371
#
# _framework density 22.384737000000001
#
# number of rings (size 3 to 8) (size 9 to 14) (size 15 to 20)
#    0.000    1.800    0.000    7.800    0.000    1.600 
#    0.000    6.000    0.000    7.200    0.000    0.000 
#    0.000    0.000    0.000    0.000    0.000    0.000 
#
# Total GULP energy -495624.589730 kJ/mol
# GULP energy per Si atom -12390.614743 kJ/mol
# Density = 2.233379 g / cm^3
# Si number density = 22.384737 Si / 1000 Ang^3
#
#
#
# Elastic Constant Matrix: (Units=GPa)
#
#
# Indices 1 2 3 4 5 6 
#
# 1 100.1862 47.0093 14.8317 0.0000 0.0000 -0.0003
# 2 47.0093 100.1862 14.8317 0.0000 0.0000 0.0003
# 3 14.8317 14.8317 41.8625 0.0000 0.0000 0.0000
# 4 0.0000 0.0000 0.0000 20.4878 0.0000 0.0000
# 5 0.0000 0.0000 0.0000 0.0000 20.4878 0.0000
# 6 -0.0003 0.0003 0.0000 0.0000 0.0000 52.0541
#
#
#
# Elastic Compliance Matrix: (Units=1/GPa)
#
#
# Indices 1 2 3 4 5 6 
#
# 1 0.013061 -0.005745 -0.002592 0.000000 0.000000 0.000000
# 2 -0.005745 0.013061 -0.002592 0.000000 0.000000 0.000000
# 3 -0.002592 -0.002592 0.025724 0.000000 0.000000 0.000000
# 4 0.000000 0.000000 0.000000 0.048810 0.000000 0.000000
# 5 0.000000 0.000000 0.000000 0.000000 0.048810 0.000000
# 6 0.000000 0.000000 0.000000 0.000000 0.000000 0.019211
#
#
# Mechanical properties :
#
#
# Convention : Reuss Voigt Hill
#
# Bulk Modulus (GPa) = 33.34630 43.95336 38.64983
# Shear Modulus (GPa) = 24.93405 29.64341 27.28873
#
# Velocity S-wave (km/s) = 3.34111 3.64300 3.49532
# Velocity P-wave (km/s) = 5.46016 6.11337 5.79597
#
# Compressibility (1/GPa) = 0.02998833
#
# Stress axis : x y z
#
# Youngs Moduli (GPa) = 76.56615 76.56615 38.87356
#
# Poissons Ratio (x) = 0.43984 0.10076
# Poissons Ratio (y) = 0.43984 0.10076
# Poissons Ratio (z) = 0.19846 0.19846
#
# Static dielectric constant tensor:
#      x y z
#    x 4.240660 0.000000 0.000000 
#    y 0.000000 4.240660 0.000000 
#    z 0.000000 0.000000 3.581150 
# 
# 
# High freq. dielectric constant tensor:
#      x y z
#    x 1.880650 0.000000 0.000000 
#    y 0.000000 1.880650 0.000000 
#    z 0.000000 0.000000 1.862650 
# 
# From -- ./inp_files/1716.got.cif
#   From: 2010.03.12/outbox.cif.g09.slc.cpg/sg101_1_cif.got.tgz:1716.got - 2010.04.14 01:38:52.
