data_PCOD8306234
_publ_section_title
;
Structure prediction by ZEFSAII (Michael W. Deem and Ramdas Pophale) SiO2 
 PCOD8306234
Probable space group: I 41 2 2
;
_chemical_formula_sum "Si O2"
_cell_formula_units_Z 76
_cell_length_a 14.138318
_cell_length_b 14.138318
_cell_length_c 21.218956
_cell_angle_alpha 90.000000
_cell_angle_beta 90.000000
_cell_angle_gamma 90.000000
_cell_volume 4241.500314
_symmetry_space_group_name_H-M "I 41 2 2"
_symmetry_group_IT_number 98
_symmetry_cell_setting 'tetragonal'
loop_
_space_group_symop_operation_xyz
x,y,z
-y,1/2+x,1/4+z
-x,-y,z
y,1/2-x,1/4+z
x,1/2-y,1/4-z
-x,1/2+y,1/4-z
y,x,-z
-y,-x,-z
1/2+x,1/2+y,1/2+z
1/2-y,x,3/4+z
1/2-x,1/2-y,1/2+z
1/2+y,-x,3/4+z
1/2+x,-y,3/4-z
1/2-x,y,3/4-z
1/2+y,1/2+x,1/2-z
1/2-y,1/2-x,1/2-z
loop_
_atom_site_type_symbol
_atom_site_label
_atom_site_fract_x
_atom_site_fract_y
_atom_site_fract_z
Si Si1 0.997763 0.653709 0.864833
Si Si2 0.222374 0.277627 0.250000
Si Si3 0.144321 0.992780 0.351403
Si Si4 0.663294 0.936982 0.665182
Si Si5 0.500000 0.500000 0.500000
Si Si6 0.938370 0.692809 0.471856
O O1 0.914576 0.577754 0.868984
O O2 0.986137 0.733163 0.919394
O O3 0.986008 0.705345 0.796617
O O4 0.099839 0.605861 0.874823
O O5 0.170860 0.324989 0.310470
O O6 0.205329 0.166313 0.248909
O O7 0.250000 0.001882 0.375000
O O8 0.142165 0.998135 0.275084
O O9 0.629062 0.933926 0.591948
O O10 0.592390 0.000413 0.706147
#
# Coordination Sequence:
#
# PCOD8306234 Si02
#       6
#    16   8  16  16   4  16
#     4   9  22  37  53  92 114 150 196 239 289 353
#     4  11  16  33  60  89 113 144 188 246 303 340
#     4  11  21  37  60  81 124 156 189 243 293 350
#     4   9  21  35  56  85 115 147 191 242 288 353
#     4  10  20  40  60  80 114 148 194 252 294 332
#     4  10  19  34  58  82 118 145 191 236 291 347
#
# _framework density 17.918188000000001
#
# number of rings (size 3 to 8) (size 9 to 14) (size 15 to 20)
#    1.263    0.842    2.105    1.895    0.000    2.526 
#    0.000    4.211    0.000    0.000    0.000    0.000 
#    0.000    0.000    0.000    0.000    0.000    0.000 
#
# Total GULP energy -470798.748839 kJ/mol
# GULP energy per Si atom -12389.440759 kJ/mol
# Density = 1.787741 g / cm^3
# Si number density = 17.918188 Si / 1000 Ang^3
#
#
#
# Elastic Constant Matrix: (Units=GPa)
#
#
# Indices 1 2 3 4 5 6 
#
# 1 67.5532 27.4560 7.1861 0.0000 0.0000 0.0000
# 2 27.4560 67.5525 7.1862 0.0000 0.0000 0.0000
# 3 7.1861 7.1862 69.3059 0.0000 0.0000 0.0000
# 4 0.0000 0.0000 0.0000 26.0670 0.0000 0.0000
# 5 0.0000 0.0000 0.0000 0.0000 26.0669 0.0000
# 6 0.0000 0.0000 0.0000 0.0000 0.0000 31.7526
#
#
#
# Elastic Compliance Matrix: (Units=1/GPa)
#
#
# Indices 1 2 3 4 5 6 
#
# 1 0.017816 -0.007123 -0.001109 0.000000 0.000000 0.000000
# 2 -0.007123 0.017816 -0.001109 0.000000 0.000000 0.000000
# 3 -0.001109 -0.001109 0.014659 0.000000 0.000000 0.000000
# 4 0.000000 0.000000 0.000000 0.038363 0.000000 0.000000
# 5 0.000000 0.000000 0.000000 0.000000 0.038363 0.000000
# 6 0.000000 0.000000 0.000000 0.000000 0.000000 0.031493
#
#
# Mechanical properties :
#
#
# Convention : Reuss Voigt Hill
#
# Bulk Modulus (GPa) = 31.63568 32.00758 31.82163
# Shear Modulus (GPa) = 26.63422 27.61620 27.12521
#
# Velocity S-wave (km/s) = 3.85961 3.93012 3.89503
# Velocity P-wave (km/s) = 6.12830 6.20455 6.16654
#
# Compressibility (1/GPa) = 0.03160988
#
# Stress axis : x y z
#
# Youngs Moduli (GPa) = 56.12860 56.12802 68.21883
#
# Poissons Ratio (x) = 0.39981 0.07563
# Poissons Ratio (y) = 0.39982 0.07564
# Poissons Ratio (z) = 0.06223 0.06223
#
# Static dielectric constant tensor:
#      x y z
#    x 3.178950 0.000000 0.000000 
#    y 0.000000 3.178960 0.000000 
#    z 0.000000 0.000000 3.403590 
# 
# 
# High freq. dielectric constant tensor:
#      x y z
#    x 1.677970 0.000000 0.000000 
#    y 0.000000 1.677970 0.000000 
#    z 0.000000 0.000000 1.697370 
# 
# From -- ./inp_files/9966.got.cif
#   From: 2010.03.12/outbox.cif.g09.slc.cpg/sg98_5_cif.got.tgz:9966.got - 2010.04.08 21:04:41.
