data_PCOD8306124
_publ_section_title
;
Structure prediction by ZEFSAII (Michael W. Deem and Ramdas Pophale) SiO2 
 PCOD8306124
Probable space group: I 4 2 2 
;
_chemical_formula_sum "Si O2"
_cell_formula_units_Z 112
_cell_length_a 14.585071
_cell_length_b 14.585071
_cell_length_c 24.468370
_cell_angle_alpha 90.000000
_cell_angle_beta 90.000000
_cell_angle_gamma 90.000000
_cell_volume 5205.016784
_symmetry_space_group_name_H-M "I 4 2 2 "
_symmetry_group_IT_number 97
_symmetry_cell_setting 'tetragonal'
loop_
_space_group_symop_operation_xyz
x,y,z
-y,x,z
-x,-y,z
y,-x,z
x,-y,-z
-x,y,-z
y,x,-z
-y,-x,-z
1/2+x,1/2+y,1/2+z
1/2-y,1/2+x,1/2+z
1/2-x,1/2-y,1/2+z
1/2+y,1/2-x,1/2+z
1/2+x,1/2-y,1/2-z
1/2-x,1/2+y,1/2-z
1/2+y,1/2+x,1/2-z
1/2-y,1/2-x,1/2-z
loop_
_atom_site_type_symbol
_atom_site_label
_atom_site_fract_x
_atom_site_fract_y
_atom_site_fract_z
Si Si1 0.935382 0.139766 0.815531
Si Si2 0.179953 0.599283 0.642087
Si Si3 0.097149 0.227565 0.526493
Si Si4 0.237120 0.073733 0.350172
Si Si5 0.093503 0.394078 0.020166
Si Si6 0.113916 0.220210 0.299607
Si Si7 0.413636 0.935586 0.811623
O O1 0.899080 0.208015 0.864342
O O2 0.911331 0.203308 0.763199
O O3 0.044443 0.119740 0.817524
O O4 0.123749 0.607986 0.585203
O O5 0.142833 0.675760 0.685132
O O6 0.169964 0.497700 0.668398
O O7 0.138840 0.138840 0.500000
O O8 0.095263 0.205467 0.589473
O O9 0.153128 0.320511 0.511054
O O10 0.000000 0.244057 0.500000
O O11 0.198200 0.153892 0.312497
O O12 0.347086 0.073444 0.349182
O O13 0.193935 0.976471 0.333820
O O14 0.087711 0.500000 0.000000
O O15 0.000000 0.345113 0.000000
O O16 0.400491 0.900491 0.750000
O O17 0.500000 0.000000 0.819122
#
# Coordination Sequence:
#
# PCOD8306124 Si02
#       7
#    16  16  16  16  16  16  16
#     4  11  26  48  68  98 142 192 241 293 352 431
#     4  12  25  42  70 101 135 184 231 296 359 432
#     4  11  23  41  60  92 129 168 220 276 333 401
#     4  12  24  42  67  95 134 183 226 284 349 425
#     4  10  22  42  68  96 131 173 222 282 353 415
#     4  12  24  42  68 101 138 184 239 280 353 428
#     4  11  25  40  61  98 135 168 216 280 354 414
#
# _framework density 21.517703000000001
#
# number of rings (size 3 to 8) (size 9 to 14) (size 15 to 20)
#    0.000    0.714    2.857    5.571    6.000    0.429 
#    2.571    1.429    0.000    0.000    0.000    1.000 
#    0.000    0.000    0.000    0.000    0.000    0.000 
#
# Total GULP energy -693976.021922 kJ/mol
# GULP energy per Si atom -12392.428963 kJ/mol
# Density = 2.146873 g / cm^3
# Si number density = 21.517703 Si / 1000 Ang^3
#
#
#
# Elastic Constant Matrix: (Units=GPa)
#
#
# Indices 1 2 3 4 5 6 
#
# 1 91.2106 38.0184 31.7280 0.0000 0.0000 0.0000
# 2 38.0184 91.2106 31.7280 0.0000 0.0000 0.0000
# 3 31.7280 31.7280 89.1665 0.0000 0.0000 0.0000
# 4 0.0000 0.0000 0.0000 29.3209 0.0000 0.0000
# 5 0.0000 0.0000 0.0000 0.0000 29.3209 0.0000
# 6 0.0000 0.0000 0.0000 0.0000 0.0000 26.6971
#
#
#
# Elastic Compliance Matrix: (Units=1/GPa)
#
#
# Indices 1 2 3 4 5 6 
#
# 1 0.014088 -0.004712 -0.003336 0.000000 0.000000 0.000000
# 2 -0.004712 0.014088 -0.003336 0.000000 0.000000 0.000000
# 3 -0.003336 -0.003336 0.013589 0.000000 0.000000 0.000000
# 4 0.000000 0.000000 0.000000 0.034105 0.000000 0.000000
# 5 0.000000 0.000000 0.000000 0.000000 0.034105 0.000000
# 6 0.000000 0.000000 0.000000 0.000000 0.000000 0.037457
#
#
# Mechanical properties :
#
#
# Convention : Reuss Voigt Hill
#
# Bulk Modulus (GPa) = 52.64083 52.72628 52.68355
# Shear Modulus (GPa) = 28.32302 28.40866 28.36584
#
# Velocity S-wave (km/s) = 3.63197 3.63746 3.63472
# Velocity P-wave (km/s) = 6.48887 6.49603 6.49245
#
# Compressibility (1/GPa) = 0.01899666
#
# Stress axis : x y z
#
# Youngs Moduli (GPa) = 70.98181 70.98181 73.58696
#
# Poissons Ratio (x) = 0.33444 0.24552
# Poissons Ratio (y) = 0.33444 0.24552
# Poissons Ratio (z) = 0.23683 0.23683
#
# Static dielectric constant tensor:
#      x y z
#    x 4.253090 0.000000 0.000000 
#    y 0.000000 4.253090 0.000000 
#    z 0.000000 0.000000 4.071000 
# 
# 
# High freq. dielectric constant tensor:
#      x y z
#    x 1.849940 0.000000 0.000000 
#    y 0.000000 1.849940 0.000000 
#    z 0.000000 0.000000 1.833230 
# 
# From -- ./inp_files/7245.got.cif
#   From: 2010.03.12/outbox.cif.g09.slc.cpg/sg97_4_cif.got.tgz:7245.got - 2010.04.08 20:59:42.
