data_PCOD8306443
_publ_section_title
;
Structure prediction by ZEFSAII (Michael W. Deem and Ramdas Pophale) SiO2 
 PCOD8306443
Probable space group: P 4 M M
;
_chemical_formula_sum "Si O2"
_cell_formula_units_Z 48
_cell_length_a 14.202857
_cell_length_b 14.202857
_cell_length_c 15.419880
_cell_angle_alpha 90.000000
_cell_angle_beta 90.000000
_cell_angle_gamma 90.000000
_cell_volume 3110.515880
_symmetry_space_group_name_H-M "P 4 M M"
_symmetry_group_IT_number 99
_symmetry_cell_setting 'tetragonal'
loop_
_space_group_symop_operation_xyz
x,y,z
-y,x,z
-x,-y,z
y,-x,z
-x,y,z
x,-y,z
-y,-x,z
y,x,z
loop_
_atom_site_type_symbol
_atom_site_label
_atom_site_fract_x
_atom_site_fract_y
_atom_site_fract_z
Si Si1 0.891615 0.262229 0.939430
Si Si2 0.604396 0.888140 0.279422
Si Si3 0.888518 0.605218 0.471943
Si Si4 0.888869 0.394988 0.787167
Si Si5 0.265241 0.888000 0.627867
Si Si6 0.257676 0.107849 0.134833
O O1 0.831059 0.168942 0.921409
O O2 0.857186 0.346244 0.877034
O O3 0.000000 0.234884 0.920196
O O4 0.879272 0.299189 0.037943
O O5 0.500000 0.847801 0.263389
O O6 0.639015 0.857612 0.375553
O O7 0.671046 0.846328 0.204471
O O8 0.602332 0.000000 0.272178
O O9 0.848231 0.500000 0.491213
O O10 0.852760 0.680750 0.541621
O O11 0.000000 0.599037 0.477852
O O12 0.843882 0.500000 0.781522
O O13 0.855421 0.330628 0.707533
O O14 0.000000 0.405086 0.783618
O O15 0.165387 0.834614 0.633430
O O16 0.245234 0.000000 0.628360
O O17 0.157622 0.157622 0.143112
O O18 0.238153 0.000000 0.157013
#
# Coordination Sequence:
#
# PCOD8306443 Si02
#       6
#     8   8   8   8   8   8
#     4   9  17  28  41  59  84 113 143 171 199 236
#     4   8  14  25  41  59  78 103 137 176 216 251
#     4   8  14  26  43  60  78 103 137 176 214 247
#     4   9  17  29  44  60  78 102 134 173 213 247
#     4  10  19  29  42  61  86 115 143 168 195 233
#     4   9  17  27  39  57  83 115 146 172 198 233
#
# _framework density 15.431524
#
# number of rings (size 3 to 8) (size 9 to 14) (size 15 to 20)
#    0.000    3.167    0.000    2.000    0.000    3.833 
#    0.000    5.000    0.000    3.000    0.000    4.667 
#    0.000   16.000    0.000   14.667    0.000    6.667 
#
# Total GULP energy -594865.058369 kJ/mol
# GULP energy per Si atom -12393.022049 kJ/mol
# Density = 1.539640 g / cm^3
# Si number density = 15.431524 Si / 1000 Ang^3
#
#
#
# Elastic Constant Matrix: (Units=GPa)
#
#
# Indices 1 2 3 4 5 6 
#
# 1 62.8925 34.2337 49.5153 0.0000 0.0000 0.0000
# 2 34.2337 62.8925 49.5153 0.0000 0.0000 0.0000
# 3 49.5153 49.5153 127.1624 0.0000 0.0000 0.0000
# 4 0.0000 0.0000 0.0000 20.8943 0.0000 0.0000
# 5 0.0000 0.0000 0.0000 0.0000 20.8943 0.0000
# 6 0.0000 0.0000 0.0000 0.0000 0.0000 4.1077
#
#
#
# Elastic Compliance Matrix: (Units=1/GPa)
#
#
# Indices 1 2 3 4 5 6 
#
# 1 0.025984 -0.008909 -0.006649 0.000000 0.000000 0.000000
# 2 -0.008909 0.025984 -0.006649 0.000000 0.000000 0.000000
# 3 -0.006649 -0.006649 0.013042 0.000000 0.000000 0.000000
# 4 0.000000 0.000000 0.000000 0.047860 0.000000 0.000000
# 5 0.000000 0.000000 0.000000 0.000000 0.047860 0.000000
# 6 0.000000 0.000000 0.000000 0.000000 0.000000 0.243444
#
#
# Mechanical properties :
#
#
# Convention : Reuss Voigt Hill
#
# Bulk Modulus (GPa) = 48.55131 57.71955 53.13543
# Shear Modulus (GPa) = 10.97808 17.15812 14.06810
#
# Velocity S-wave (km/s) = 2.67011 3.33812 3.02262
# Velocity P-wave (km/s) = 6.40599 7.23479 6.83297
#
# Compressibility (1/GPa) = 0.02059677
#
# Stress axis : x y z
#
# Youngs Moduli (GPa) = 38.48499 38.48499 76.67630
#
# Poissons Ratio (x) = 0.34287 0.50980
# Poissons Ratio (y) = 0.34287 0.50980
# Poissons Ratio (z) = 0.25588 0.25588
#
# Static dielectric constant tensor:
#      x y z
#    x 2.770130 0.000000 0.000000 
#    y 0.000000 2.770130 0.000000 
#    z 0.000000 0.000000 3.340060 
# 
# 
# High freq. dielectric constant tensor:
#      x y z
#    x 1.557140 0.000000 0.000000 
#    y 0.000000 1.557140 0.000000 
#    z 0.000000 0.000000 1.613280 
# 
# From -- ./inp_files/1707.got.cif
#   From: 2010.03.12/outbox.cif.g09.slc.cpg/sg99_cif.got.tgz:1707.got - 2010.04.08 21:11:30.
