data_PCOD8306987
_publ_section_title
;
Structure prediction by ZEFSAII (Michael W. Deem and Ramdas Pophale) SiO2 
 PCOD8306987
Probable space group: P 4 C C
;
_chemical_formula_sum "Si O2"
_cell_formula_units_Z 40
_cell_length_a 18.970508
_cell_length_b 18.970508
_cell_length_c 5.356955
_cell_angle_alpha 90.000000
_cell_angle_beta 90.000000
_cell_angle_gamma 90.000000
_cell_volume 1927.861896
_symmetry_space_group_name_H-M "P 4 C C"
_symmetry_group_IT_number 103
_symmetry_cell_setting 'tetragonal'
loop_
_space_group_symop_operation_xyz
x,y,z
-y,x,z
-x,-y,z
y,-x,z
-x,y,1/2+z
x,-y,1/2+z
-y,-x,1/2+z
y,x,1/2+z
loop_
_atom_site_type_symbol
_atom_site_label
_atom_site_fract_x
_atom_site_fract_y
_atom_site_fract_z
Si Si1 0.590126 0.033834 0.403330
Si Si2 0.744529 0.975145 0.397858
Si Si3 0.543756 0.807226 0.883595
Si Si4 0.334843 0.302706 0.887225
Si Si5 0.183442 0.232669 0.890602
O O1 0.570258 0.114114 0.376765
O O2 0.557013 0.005801 0.662908
O O3 0.673651 0.022035 0.407862
O O4 0.726627 0.891538 0.393266
O O5 0.786554 0.998688 0.649641
O O6 0.499666 0.789120 0.634265
O O7 0.616269 0.764800 0.883702
O O8 0.348321 0.349391 0.638074
O O9 0.250398 0.285273 0.890324
O O10 0.184644 0.185549 0.639521
#
# Coordination Sequence:
#
# PCOD8306987 Si02
#       5
#     8   8   8   8   8
#     4  10  23  35  60  77 127 175 226 249 300 353
#     4  10  21  34  56  87 122 160 203 269 317 362
#     4  12  26  43  62  92 136 180 224 261 312 390
#     4  10  23  38  67  88 121 165 226 266 326 357
#     4  10  21  34  59  86 117 160 210 277 321 356
#
# _framework density 20.748374999999999
#
# number of rings (size 3 to 8) (size 9 to 14) (size 15 to 20)
#    0.000    1.600    0.000    3.600   22.400    2.400 
#    0.000    0.000    0.000    0.000    0.000    0.000 
#    0.000   56.000    0.000    0.000    0.000    0.000 
#
# Total GULP energy -495524.161008 kJ/mol
# GULP energy per Si atom -12388.104025 kJ/mol
# Density = 2.070115 g / cm^3
# Si number density = 20.748375 Si / 1000 Ang^3
#
#
#
# Elastic Constant Matrix: (Units=GPa)
#
#
# Indices 1 2 3 4 5 6 
#
# 1 58.3627 12.3387 22.4316 0.0000 0.0000 0.0000
# 2 12.3387 58.3627 22.4316 0.0000 0.0000 0.0000
# 3 22.4316 22.4316 225.3616 0.0000 0.0000 0.0000
# 4 0.0000 0.0000 0.0000 20.9175 0.0000 0.0000
# 5 0.0000 0.0000 0.0000 0.0000 20.9175 0.0000
# 6 0.0000 0.0000 0.0000 0.0000 0.0000 27.9569
#
#
#
# Elastic Compliance Matrix: (Units=1/GPa)
#
#
# Indices 1 2 3 4 5 6 
#
# 1 0.018413 -0.003315 -0.001503 0.000000 0.000000 0.000000
# 2 -0.003315 0.018413 -0.001503 0.000000 0.000000 0.000000
# 3 -0.001503 -0.001503 0.004736 0.000000 0.000000 0.000000
# 4 0.000000 0.000000 0.000000 0.047807 0.000000 0.000000
# 5 0.000000 0.000000 0.000000 0.000000 0.047807 0.000000
# 6 0.000000 0.000000 0.000000 0.000000 0.000000 0.035769
#
#
# Mechanical properties :
#
#
# Convention : Reuss Voigt Hill
#
# Bulk Modulus (GPa) = 34.57747 50.72118 42.64933
# Shear Modulus (GPa) = 25.61131 32.95073 29.28102
#
# Velocity S-wave (km/s) = 3.51718 3.98944 3.76073
# Velocity P-wave (km/s) = 5.76155 6.76164 6.28153
#
# Compressibility (1/GPa) = 0.02892057
#
# Stress axis : x y z
#
# Youngs Moduli (GPa) = 54.31043 54.31043 211.12778
#
# Poissons Ratio (x) = 0.18005 0.31727
# Poissons Ratio (y) = 0.18005 0.31727
# Poissons Ratio (z) = 0.08161 0.08161
#
# Static dielectric constant tensor:
#      x y z
#    x 3.408620 0.000000 0.000000 
#    y 0.000000 3.408620 0.000000 
#    z 0.000000 0.000000 6.051810 
# 
# 
# High freq. dielectric constant tensor:
#      x y z
#    x 1.767970 0.000000 0.000000 
#    y 0.000000 1.767970 0.000000 
#    z 0.000000 0.000000 1.869050 
# 
# From -- ./inp_files/23.got.cif
#   From: 2010.03.12/outbox.cif.g09.slc.cpg/sg103_cif.got.tgz:23.got - 2010.04.14 01:42:52.
