data_PCOD8306227
_publ_section_title
;
Structure prediction by ZEFSAII (Michael W. Deem and Ramdas Pophale) SiO2 
 PCOD8306227
Probable space group: I 41 2 2
;
_chemical_formula_sum "Si O2"
_cell_formula_units_Z 96
_cell_length_a 18.720761
_cell_length_b 18.720761
_cell_length_c 16.318264
_cell_angle_alpha 90.000000
_cell_angle_beta 90.000000
_cell_angle_gamma 90.000000
_cell_volume 5719.011274
_symmetry_space_group_name_H-M "I 41 2 2"
_symmetry_group_IT_number 98
_symmetry_cell_setting 'tetragonal'
loop_
_space_group_symop_operation_xyz
x,y,z
-y,1/2+x,1/4+z
-x,-y,z
y,1/2-x,1/4+z
x,1/2-y,1/4-z
-x,1/2+y,1/4-z
y,x,-z
-y,-x,-z
1/2+x,1/2+y,1/2+z
1/2-y,x,3/4+z
1/2-x,1/2-y,1/2+z
1/2+y,-x,3/4+z
1/2+x,-y,3/4-z
1/2-x,y,3/4-z
1/2+y,1/2+x,1/2-z
1/2-y,1/2-x,1/2-z
loop_
_atom_site_type_symbol
_atom_site_label
_atom_site_fract_x
_atom_site_fract_y
_atom_site_fract_z
Si Si1 0.423567 0.172706 0.102764
Si Si2 0.029890 0.326514 0.080755
Si Si3 0.995910 0.116136 0.502571
Si Si4 0.152961 0.059939 0.165276
Si Si5 0.561959 0.057832 0.657618
Si Si6 0.806390 0.944394 0.644238
O O1 0.393907 0.250000 0.125000
O O2 0.490967 0.156510 0.161714
O O3 0.355357 0.124080 0.118356
O O4 0.451278 0.165774 0.010982
O O5 0.036307 0.250000 0.125000
O O6 0.098778 0.374916 0.103124
O O7 0.959705 0.369951 0.109634
O O8 0.021650 0.315704 0.983776
O O9 0.916768 0.083233 0.500000
O O10 0.999427 0.170079 0.425528
O O11 0.053876 0.053876 0.500000
O O12 0.225226 0.080471 0.118319
O O13 0.128978 0.981955 0.133226
O O14 0.580604 0.080604 0.750000
O O15 0.500000 0.000000 0.655001
#
# Coordination Sequence:
#
# PCOD8306227 Si02
#       6
#    16  16  16  16  16  16
#     4  10  19  32  49  73 105 135 167 201 247 303
#     4  10  21  34  50  74 101 132 172 213 251 299
#     4   9  18  31  49  71  99 132 167 208 245 288
#     4  10  20  33  51  74 102 136 169 206 252 304
#     4   9  18  33  52  71  96 128 167 214 254 292
#     4  10  20  32  49  74 103 133 168 205 249 300
#
# _framework density 16.786117000000001
#
# number of rings (size 3 to 8) (size 9 to 14) (size 15 to 20)
#    0.000    2.333    1.667    1.000    2.333    2.667 
#    0.000    3.333    0.000    0.000    0.000    4.667 
#    0.000    0.000    0.000    0.000    0.000    0.000 
#
# Total GULP energy -595054.467172 kJ/mol
# GULP energy per Si atom -12396.968066 kJ/mol
# Density = 1.674791 g / cm^3
# Si number density = 16.786117 Si / 1000 Ang^3
#
#
#
# Elastic Constant Matrix: (Units=GPa)
#
#
# Indices 1 2 3 4 5 6 
#
# 1 73.2549 57.2167 53.4840 0.0000 0.0000 0.0000
# 2 57.2167 73.2550 53.4840 0.0000 0.0000 0.0000
# 3 53.4840 53.4840 135.4258 0.0000 0.0000 0.0000
# 4 0.0000 0.0000 0.0000 20.0723 0.0000 0.0000
# 5 0.0000 0.0000 0.0000 0.0000 20.0710 0.0000
# 6 0.0000 0.0000 0.0000 0.0000 0.0000 10.3523
#
#
#
# Elastic Compliance Matrix: (Units=1/GPa)
#
#
# Indices 1 2 3 4 5 6 
#
# 1 0.036843 -0.025508 -0.004476 0.000000 0.000000 0.000000
# 2 -0.025508 0.036843 -0.004476 0.000000 0.000000 0.000000
# 3 -0.004476 -0.004476 0.010920 0.000000 0.000000 0.000000
# 4 0.000000 0.000000 0.000000 0.049820 0.000000 0.000000
# 5 0.000000 0.000000 0.000000 0.000000 0.049823 0.000000
# 6 0.000000 0.000000 0.000000 0.000000 0.000000 0.096596
#
#
# Mechanical properties :
#
#
# Convention : Reuss Voigt Hill
#
# Bulk Modulus (GPa) = 63.76181 67.81167 65.78674
# Shear Modulus (GPa) = 14.08472 17.94920 16.01696
#
# Velocity S-wave (km/s) = 2.89981 3.27354 3.09233
# Velocity P-wave (km/s) = 7.01991 7.40090 7.21292
#
# Compressibility (1/GPa) = 0.01568337
#
# Stress axis : x y z
#
# Youngs Moduli (GPa) = 27.14235 27.14239 91.57663
#
# Poissons Ratio (x) = 0.69236 0.40993
# Poissons Ratio (y) = 0.69236 0.40993
# Poissons Ratio (z) = 0.12150 0.12150
#
# Static dielectric constant tensor:
#      x y z
#    x 3.114520 0.000000 0.000000 
#    y 0.000000 3.114520 0.000000 
#    z 0.000000 0.000000 3.415140 
# 
# 
# High freq. dielectric constant tensor:
#      x y z
#    x 1.625000 0.000000 0.000000 
#    y 0.000000 1.625000 0.000000 
#    z 0.000000 0.000000 1.668270 
# 
# From -- ./inp_files/7674.got.cif
#   From: 2010.03.12/outbox.cif.g09.slc.cpg/sg98_4_cif.got.tgz:7674.got - 2010.04.08 21:04:41.
