data_PCOD8306290
_publ_section_title
;
Structure prediction by ZEFSAII (Michael W. Deem and Ramdas Pophale) SiO2 
 PCOD8306290
Probable space group: I 41 2 2
;
_chemical_formula_sum "Si O2"
_cell_formula_units_Z 80
_cell_length_a 17.454714
_cell_length_b 17.454714
_cell_length_c 12.194784
_cell_angle_alpha 90.000000
_cell_angle_beta 90.000000
_cell_angle_gamma 90.000000
_cell_volume 3715.348755
_symmetry_space_group_name_H-M "I 41 2 2"
_symmetry_group_IT_number 98
_symmetry_cell_setting 'tetragonal'
loop_
_space_group_symop_operation_xyz
x,y,z
-y,1/2+x,1/4+z
-x,-y,z
y,1/2-x,1/4+z
x,1/2-y,1/4-z
-x,1/2+y,1/4-z
y,x,-z
-y,-x,-z
1/2+x,1/2+y,1/2+z
1/2-y,x,3/4+z
1/2-x,1/2-y,1/2+z
1/2+y,-x,3/4+z
1/2+x,-y,3/4-z
1/2-x,y,3/4-z
1/2+y,1/2+x,1/2-z
1/2-y,1/2-x,1/2-z
loop_
_atom_site_type_symbol
_atom_site_label
_atom_site_fract_x
_atom_site_fract_y
_atom_site_fract_z
Si Si1 0.252671 0.947149 0.628922
Si Si2 0.625011 0.168204 0.569091
Si Si3 0.485624 0.126440 0.705059
Si Si4 0.708293 0.903160 0.192521
Si Si5 0.646990 0.685621 0.702273
O O1 0.297419 0.880916 0.562682
O O2 0.185185 0.907785 0.699202
O O3 0.310046 0.999474 0.701875
O O4 0.210075 0.004322 0.543037
O O5 0.641807 0.250000 0.625000
O O6 0.565606 0.116454 0.639907
O O7 0.455470 0.044531 0.750000
O O8 0.421020 0.152775 0.620784
O O9 0.633504 0.866497 0.250000
O O10 0.786942 0.871572 0.243429
O O11 0.715453 0.889652 0.062990
O O12 0.687132 0.750000 0.625000
#
# Coordination Sequence:
#
# PCOD8306290 Si02
#       5
#    16  16  16  16  16
#     4  11  22  39  63  98 135 172 219 286 343 407
#     4  10  21  38  63  97 136 166 217 284 352 410
#     4  11  18  33  57  93 143 175 213 271 344 403
#     4  12  24  37  58  93 138 183 226 269 329 402
#     4  12  19  36  57  88 136 183 222 269 321 390
#
# _framework density 21.532299999999999
#
# number of rings (size 3 to 8) (size 9 to 14) (size 15 to 20)
#    0.000    0.800    6.000    5.400    0.000    1.600 
#    0.000    0.000    0.000    7.200    0.000    7.000 
#    0.000    0.000    0.000    0.000    0.000    0.000 
#
# Total GULP energy -495737.546973 kJ/mol
# GULP energy per Si atom -12393.438674 kJ/mol
# Density = 2.148329 g / cm^3
# Si number density = 21.532300 Si / 1000 Ang^3
#
#
#
# Elastic Constant Matrix: (Units=GPa)
#
#
# Indices 1 2 3 4 5 6 
#
# 1 97.0139 81.8916 33.9484 0.0000 0.0000 0.0000
# 2 81.8916 97.0128 33.9491 0.0000 0.0000 0.0000
# 3 33.9484 33.9491 36.3158 0.0000 0.0000 0.0000
# 4 0.0000 0.0000 0.0000 21.4605 0.0000 0.0000
# 5 0.0000 0.0000 0.0000 0.0000 21.4601 0.0000
# 6 0.0000 0.0000 0.0000 0.0000 0.0000 50.7878
#
#
#
# Elastic Compliance Matrix: (Units=1/GPa)
#
#
# Indices 1 2 3 4 5 6 
#
# 1 0.037396 -0.028734 -0.008097 0.000000 0.000000 0.000000
# 2 -0.028734 0.037397 -0.008100 0.000000 0.000000 0.000000
# 3 -0.008097 -0.008100 0.042677 0.000000 0.000000 0.000000
# 4 0.000000 0.000000 0.000000 0.046597 0.000000 0.000000
# 5 0.000000 0.000000 0.000000 0.000000 0.046598 0.000000
# 6 0.000000 0.000000 0.000000 0.000000 0.000000 0.019690
#
#
# Mechanical properties :
#
#
# Convention : Reuss Voigt Hill
#
# Bulk Modulus (GPa) = 36.21894 58.88006 47.54950
# Shear Modulus (GPa) = 15.17822 24.11191 19.64506
#
# Velocity S-wave (km/s) = 2.65788 3.34997 3.02380
# Velocity P-wave (km/s) = 5.12605 6.50903 5.85849
#
# Compressibility (1/GPa) = 0.02760987
#
# Stress axis : x y z
#
# Youngs Moduli (GPa) = 26.74089 26.73991 23.43165
#
# Poissons Ratio (x) = 0.76833 0.18973
# Poissons Ratio (y) = 0.76836 0.18979
# Poissons Ratio (z) = 0.21652 0.21658
#
# Static dielectric constant tensor:
#      x y z
#    x 3.986880 0.000000 0.000000 
#    y 0.000000 3.986890 0.000000 
#    z 0.000000 0.000000 3.711760 
# 
# 
# High freq. dielectric constant tensor:
#      x y z
#    x 1.842140 0.000000 0.000000 
#    y 0.000000 1.842140 0.000000 
#    z 0.000000 0.000000 1.812630 
# 
# From -- ./inp_files/6389.got.cif
#   From: 2010.03.12/outbox.cif.g09.slc.cpg/sg98_4_cif.got.tgz:6389.got - 2010.04.08 21:04:41.
