data_PCOD8306228
_publ_section_title
;
Structure prediction by ZEFSAII (Michael W. Deem and Ramdas Pophale) SiO2 
 PCOD8306228
Probable space group: I 41 2 2
;
_chemical_formula_sum "Si O2"
_cell_formula_units_Z 80
_cell_length_a 16.440079
_cell_length_b 16.440079
_cell_length_c 17.472800
_cell_angle_alpha 90.000000
_cell_angle_beta 90.000000
_cell_angle_gamma 90.000000
_cell_volume 4722.481944
_symmetry_space_group_name_H-M "I 41 2 2"
_symmetry_group_IT_number 98
_symmetry_cell_setting 'tetragonal'
loop_
_space_group_symop_operation_xyz
x,y,z
-y,1/2+x,1/4+z
-x,-y,z
y,1/2-x,1/4+z
x,1/2-y,1/4-z
-x,1/2+y,1/4-z
y,x,-z
-y,-x,-z
1/2+x,1/2+y,1/2+z
1/2-y,x,3/4+z
1/2-x,1/2-y,1/2+z
1/2+y,-x,3/4+z
1/2+x,-y,3/4-z
1/2-x,y,3/4-z
1/2+y,1/2+x,1/2-z
1/2-y,1/2-x,1/2-z
loop_
_atom_site_type_symbol
_atom_site_label
_atom_site_fract_x
_atom_site_fract_y
_atom_site_fract_z
Si Si1 0.685382 0.038256 0.580390
Si Si2 0.661105 0.218981 0.039424
Si Si3 0.051743 0.423746 0.049977
Si Si4 0.038531 0.717281 0.976101
Si Si5 0.374959 0.947079 0.822015
O O1 0.736124 0.081017 0.512269
O O2 0.742055 0.007360 0.648563
O O3 0.622113 0.107104 0.613309
O O4 0.644388 0.955339 0.548249
O O5 0.645988 0.250000 0.125000
O O6 0.674028 0.122937 0.042660
O O7 0.738432 0.261569 0.000000
O O8 0.000000 0.500000 0.019988
O O9 0.031710 0.400317 0.138519
O O10 0.032646 0.346191 0.997281
O O11 0.052006 0.780975 0.045774
O O12 0.433075 0.933075 0.750000
#
# Coordination Sequence:
#
# PCOD8306228 Si02
#       5
#    16  16  16  16  16
#     4  10  21  35  49  80 111 144 187 223 270 324
#     4  12  22  31  50  77 111 147 179 219 268 323
#     4  10  19  32  51  73 112 150 179 219 272 322
#     4  11  20  32  51  79 113 143 182 218 268 333
#     4   9  18  29  49  76 113 144 175 211 264 327
#
# _framework density 16.940245000000001
#
# number of rings (size 3 to 8) (size 9 to 14) (size 15 to 20)
#    0.000    1.600    6.000    2.400    0.000    9.200 
#    0.000    0.000    0.000    1.200    0.000    8.400 
#    0.000    0.000    0.000    0.000    0.000    0.000 
#
# Total GULP energy -495764.655368 kJ/mol
# GULP energy per Si atom -12394.116384 kJ/mol
# Density = 1.690169 g / cm^3
# Si number density = 16.940245 Si / 1000 Ang^3
#
#
#
# Elastic Constant Matrix: (Units=GPa)
#
#
# Indices 1 2 3 4 5 6 
#
# 1 68.0852 45.0979 38.4496 0.0000 0.0000 0.0000
# 2 45.0979 68.0849 38.4493 0.0000 0.0000 0.0000
# 3 38.4496 38.4493 101.8512 0.0000 0.0000 0.0000
# 4 0.0000 0.0000 0.0000 24.8443 0.0000 0.0000
# 5 0.0000 0.0000 0.0000 0.0000 24.8441 0.0000
# 6 0.0000 0.0000 0.0000 0.0000 0.0000 28.3711
#
#
#
# Elastic Compliance Matrix: (Units=1/GPa)
#
#
# Indices 1 2 3 4 5 6 
#
# 1 0.027693 -0.015810 -0.004486 0.000000 0.000000 0.000000
# 2 -0.015810 0.027693 -0.004486 0.000000 0.000000 0.000000
# 3 -0.004486 -0.004486 0.013205 0.000000 0.000000 0.000000
# 4 0.000000 0.000000 0.000000 0.040251 0.000000 0.000000
# 5 0.000000 0.000000 0.000000 0.000000 0.040251 0.000000
# 6 0.000000 0.000000 0.000000 0.000000 0.000000 0.035247
#
#
# Mechanical properties :
#
#
# Convention : Reuss Voigt Hill
#
# Bulk Modulus (GPa) = 52.55519 53.55720 53.05619
# Shear Modulus (GPa) = 20.81205 23.34686 22.07946
#
# Velocity S-wave (km/s) = 3.50888 3.71642 3.61414
# Velocity P-wave (km/s) = 6.89257 7.07812 6.98596
#
# Compressibility (1/GPa) = 0.01902762
#
# Stress axis : x y z
#
# Youngs Moduli (GPa) = 36.11045 36.11045 75.72783
#
# Poissons Ratio (x) = 0.57090 0.33972
# Poissons Ratio (y) = 0.57090 0.33971
# Poissons Ratio (z) = 0.16199 0.16199
#
# Static dielectric constant tensor:
#      x y z
#    x 3.084230 0.000000 0.000000 
#    y 0.000000 3.084230 0.000000 
#    z 0.000000 0.000000 3.363120 
# 
# 
# High freq. dielectric constant tensor:
#      x y z
#    x 1.624820 0.000000 0.000000 
#    y 0.000000 1.624810 0.000000 
#    z 0.000000 0.000000 1.655290 
# 
# From -- ./inp_files/8705.got.cif
#   From: 2010.03.12/outbox.cif.g09.slc.cpg/sg98_5_cif.got.tgz:8705.got - 2010.04.08 21:04:41.
