data_PCOD8306180
_publ_section_title
;
Structure prediction by ZEFSAII (Michael W. Deem and Ramdas Pophale) SiO2 
 PCOD8306180
Probable space group: I 4 2 2 
;
_chemical_formula_sum "Si O2"
_cell_formula_units_Z 40
_cell_length_a 11.606937
_cell_length_b 11.606937
_cell_length_c 10.257524
_cell_angle_alpha 90.000000
_cell_angle_beta 90.000000
_cell_angle_gamma 90.000000
_cell_volume 1381.903753
_symmetry_space_group_name_H-M "I 4 2 2 "
_symmetry_group_IT_number 97
_symmetry_cell_setting 'tetragonal'
loop_
_space_group_symop_operation_xyz
x,y,z
-y,x,z
-x,-y,z
y,-x,z
x,-y,-z
-x,y,-z
y,x,-z
-y,-x,-z
1/2+x,1/2+y,1/2+z
1/2-y,1/2+x,1/2+z
1/2-x,1/2-y,1/2+z
1/2+y,1/2-x,1/2+z
1/2+x,1/2-y,1/2-z
1/2-x,1/2+y,1/2-z
1/2+y,1/2+x,1/2-z
1/2-y,1/2-x,1/2-z
loop_
_atom_site_type_symbol
_atom_site_label
_atom_site_fract_x
_atom_site_fract_y
_atom_site_fract_z
Si Si1 0.742985 0.257016 0.500000
Si Si2 0.428074 0.322998 0.304429
Si Si3 0.041515 0.338461 0.366420
O O1 0.751547 0.380911 0.424876
O O2 0.743712 0.152363 0.395478
O O3 0.563476 0.350992 0.311350
O O4 0.430989 0.242176 0.174790
O O5 0.071723 0.428278 0.250000
O O6 0.000000 0.400611 0.500000
#
# Coordination Sequence:
#
# PCOD8306180 Si02
#       3
#     8  16  16
#     4  12  26  53  84 123 176 226 294 368 455 530
#     4  11  24  48  85 122 160 229 296 356 425 534
#     4  12  28  50  81 122 177 226 287 371 454 530
#
# _framework density 28.945578000000001
#
# number of rings (size 3 to 8) (size 9 to 14) (size 15 to 20)
#    0.000    0.400    4.000    3.600    0.000    1.600 
#    0.000   12.000    0.000    0.000    0.000    0.000 
#    0.000    0.000    0.000    0.000    0.000    0.000 
#
# Total GULP energy -247777.763492 kJ/mol
# GULP energy per Si atom -12388.888175 kJ/mol
# Density = 2.887970 g / cm^3
# Si number density = 28.945578 Si / 1000 Ang^3
#
#
#
# Elastic Constant Matrix: (Units=GPa)
#
#
# Indices 1 2 3 4 5 6 
#
# 1 101.2487 54.7914 63.1236 0.0000 0.0000 0.0000
# 2 54.7914 101.2470 63.1231 0.0000 0.0000 0.0000
# 3 63.1236 63.1231 226.6222 0.0000 0.0000 0.0000
# 4 0.0000 0.0000 0.0000 48.6594 0.0000 0.0000
# 5 0.0000 0.0000 0.0000 0.0000 48.6591 0.0000
# 6 0.0000 0.0000 0.0000 0.0000 0.0000 66.2479
#
#
#
# Elastic Compliance Matrix: (Units=1/GPa)
#
#
# Indices 1 2 3 4 5 6 
#
# 1 0.014899 -0.006626 -0.002304 0.000000 0.000000 0.000000
# 2 -0.006626 0.014899 -0.002304 0.000000 0.000000 0.000000
# 3 -0.002304 -0.002304 0.005696 0.000000 0.000000 0.000000
# 4 0.000000 0.000000 0.000000 0.020551 0.000000 0.000000
# 5 0.000000 0.000000 0.000000 0.000000 0.020551 0.000000
# 6 0.000000 0.000000 0.000000 0.000000 0.000000 0.015095
#
#
# Mechanical properties :
#
#
# Convention : Reuss Voigt Hill
#
# Bulk Modulus (GPa) = 76.77577 87.91045 82.34311
# Shear Modulus (GPa) = 42.19284 49.25193 45.72239
#
# Velocity S-wave (km/s) = 3.82207 4.12944 3.97873
# Velocity P-wave (km/s) = 6.78671 7.29200 7.04389
#
# Compressibility (1/GPa) = 0.01302494
#
# Stress axis : x y z
#
# Youngs Moduli (GPa) = 67.11790 67.11677 175.55100
#
# Poissons Ratio (x) = 0.44473 0.40453
# Poissons Ratio (y) = 0.44474 0.40454
# Poissons Ratio (z) = 0.15466 0.15466
#
# Static dielectric constant tensor:
#      x y z
#    x 5.073490 0.000000 0.000000 
#    y 0.000000 5.073480 0.000000 
#    z 0.000000 0.000000 5.475000 
# 
# 
# High freq. dielectric constant tensor:
#      x y z
#    x 2.184540 0.000000 0.000000 
#    y 0.000000 2.184540 0.000000 
#    z 0.000000 0.000000 2.184170 
# 
# From -- ./inp_files/1469.got.cif
#   From: 2010.03.12/outbox.cif.g09.slc.cpg/sg97_1_cif.got.tgz:1469.got - 2010.04.08 20:59:42.
