data_PCOD8306018
_publ_section_title
;
Structure prediction by ZEFSAII (Michael W. Deem and Ramdas Pophale) SiO2 
 PCOD8306018
Probable space group: I 4 2 2 
;
_chemical_formula_sum "Si O2"
_cell_formula_units_Z 88
_cell_length_a 18.711892
_cell_length_b 18.711892
_cell_length_c 15.137285
_cell_angle_alpha 90.000000
_cell_angle_beta 90.000000
_cell_angle_gamma 90.000000
_cell_volume 5300.091803
_symmetry_space_group_name_H-M "I 4 2 2 "
_symmetry_group_IT_number 97
_symmetry_cell_setting 'tetragonal'
loop_
_space_group_symop_operation_xyz
x,y,z
-y,x,z
-x,-y,z
y,-x,z
x,-y,-z
-x,y,-z
y,x,-z
-y,-x,-z
1/2+x,1/2+y,1/2+z
1/2-y,1/2+x,1/2+z
1/2-x,1/2-y,1/2+z
1/2+y,1/2-x,1/2+z
1/2+x,1/2-y,1/2-z
1/2-x,1/2+y,1/2-z
1/2+y,1/2+x,1/2-z
1/2-y,1/2-x,1/2-z
loop_
_atom_site_type_symbol
_atom_site_label
_atom_site_fract_x
_atom_site_fract_y
_atom_site_fract_z
Si Si1 0.083441 0.583441 0.750000
Si Si2 0.201019 0.201018 0.686206
Si Si3 0.162617 0.667848 0.100034
Si Si4 0.082431 0.082431 0.000000
Si Si5 0.332464 0.667537 0.364029
Si Si6 0.167848 0.337383 0.399966
Si Si7 0.583441 0.083441 0.750000
O O1 0.124428 0.609763 0.662920
O O2 0.099100 0.500000 0.762858
O O3 0.250001 0.250000 0.750000
O O4 0.152755 0.254148 0.626917
O O5 0.155550 0.155549 0.757572
O O6 0.254148 0.152755 0.626916
O O7 0.147437 0.752190 0.106708
O O8 0.109763 0.624428 0.162921
O O9 0.150254 0.641490 0.000000
O O10 0.114306 0.114306 0.089151
O O11 0.000000 0.100224 0.000000
O O12 0.352564 0.747810 0.393293
#
# Coordination Sequence:
#
# PCOD8306018 Si02
#       7
#     8  16  16   8  16  16   8
#     4  11  24  37  46  68 108 147 184 227 264 304
#     4   8  14  29  53  79  97 116 166 220 250 296
#     4  10  17  33  56  76  99 132 177 223 264 303
#     4  11  24  36  48  82 120 130 154 212 264 323
#     4  10  16  34  57  78  97 134 172 200 259 320
#     4  10  17  33  56  76  99 132 177 223 264 303
#     4  11  24  37  46  68 108 147 184 227 264 304
#
# _framework density 16.603486
#
# number of rings (size 3 to 8) (size 9 to 14) (size 15 to 20)
#    0.000    2.455    7.273    1.636    0.000    2.909 
#    0.000    1.818    0.000    0.000    0.000    0.000 
#    0.000    0.000    0.000    8.000    0.000    0.000 
#
# Total GULP energy -545251.513195 kJ/mol
# GULP energy per Si atom -12392.079845 kJ/mol
# Density = 1.656570 g / cm^3
# Si number density = 16.603486 Si / 1000 Ang^3
#
#
#
# Elastic Constant Matrix: (Units=GPa)
#
#
# Indices 1 2 3 4 5 6 
#
# 1 93.0718 50.4973 53.1018 0.0000 0.0000 0.0000
# 2 50.4973 93.0718 53.1018 0.0000 0.0000 0.0000
# 3 53.1018 53.1018 151.2233 0.0000 0.0000 0.0000
# 4 0.0000 0.0000 0.0000 18.0942 0.0000 0.0000
# 5 0.0000 0.0000 0.0000 0.0000 18.0942 0.0000
# 6 0.0000 0.0000 0.0000 0.0000 0.0000 27.0567
#
#
#
# Elastic Compliance Matrix: (Units=1/GPa)
#
#
# Indices 1 2 3 4 5 6 
#
# 1 0.016449 -0.007039 -0.003304 0.000000 0.000000 0.000000
# 2 -0.007039 0.016449 -0.003304 0.000000 0.000000 0.000000
# 3 -0.003304 -0.003304 0.008933 0.000000 0.000000 0.000000
# 4 0.000000 0.000000 0.000000 0.055266 0.000000 0.000000
# 5 0.000000 0.000000 0.000000 0.000000 0.055266 0.000000
# 6 0.000000 0.000000 0.000000 0.000000 0.000000 0.036959
#
#
# Mechanical properties :
#
#
# Convention : Reuss Voigt Hill
#
# Bulk Modulus (GPa) = 68.79626 72.30762 70.55194
# Shear Modulus (GPa) = 22.57708 24.69341 23.63524
#
# Velocity S-wave (km/s) = 3.69152 3.86066 3.77704
# Velocity P-wave (km/s) = 7.72622 7.96977 7.84894
#
# Compressibility (1/GPa) = 0.01453567
#
# Stress axis : x y z
#
# Youngs Moduli (GPa) = 60.79451 60.79451 111.94188
#
# Poissons Ratio (x) = 0.42796 0.36987
# Poissons Ratio (y) = 0.42796 0.36987
# Poissons Ratio (z) = 0.20087 0.20087
#
# Static dielectric constant tensor:
#      x y z
#    x 2.961180 0.000000 0.000000 
#    y 0.000000 2.961180 0.000000 
#    z 0.000000 0.000000 3.738810 
# 
# 
# High freq. dielectric constant tensor:
#      x y z
#    x 1.610650 0.000000 0.000000 
#    y 0.000000 1.610650 0.000000 
#    z 0.000000 0.000000 1.658090 
# 
# From -- ./inp_files/4891.got.cif
#   From: 2010.03.12/outbox.cif.g09.slc.cpg/sg97_3_cif.got.tgz:4891.got - 2010.04.08 20:59:42.
