data_PCOD8306643
_publ_section_title
;
Structure prediction by ZEFSAII (Michael W. Deem and Ramdas Pophale) SiO2 
 PCOD8306643
Probable space group: P 4 B M
;
_chemical_formula_sum "Si O2"
_cell_formula_units_Z 48
_cell_length_a 13.496238
_cell_length_b 13.496238
_cell_length_c 12.333139
_cell_angle_alpha 90.000000
_cell_angle_beta 90.000000
_cell_angle_gamma 90.000000
_cell_volume 2246.462031
_symmetry_space_group_name_H-M "P 4 B M"
_symmetry_group_IT_number 100
_symmetry_cell_setting 'tetragonal'
loop_
_space_group_symop_operation_xyz
x,y,z
-y,x,z
-x,-y,z
y,-x,z
1/2-x,1/2+y,z
1/2+x,1/2-y,z
1/2-y,1/2-x,z
1/2+y,1/2+x,z
loop_
_atom_site_type_symbol
_atom_site_label
_atom_site_fract_x
_atom_site_fract_y
_atom_site_fract_z
Si Si1 0.502158 0.164049 0.912900
Si Si2 0.782077 0.447628 0.141702
Si Si3 0.841410 0.977327 0.754826
Si Si4 0.429029 0.232720 0.548694
Si Si5 0.849847 0.940722 0.334709
Si Si6 0.916785 0.583216 0.265400
Si Si7 0.418968 0.918968 0.499736
O O1 0.423906 0.076095 0.914038
O O2 0.477004 0.234909 0.812433
O O3 0.612096 0.112096 0.908080
O O4 0.486368 0.233848 0.018876
O O5 0.854926 0.354926 0.141893
O O6 0.684670 0.418307 0.210378
O O7 0.821921 0.542954 0.204438
O O8 0.890118 0.082437 0.786317
O O9 0.824257 0.950064 0.628304
O O10 0.332647 0.167354 0.581240
O O11 0.412936 0.267130 0.424512
O O12 0.529813 0.169037 0.565338
O O13 0.873493 0.055324 0.353530
O O14 0.880711 0.619290 0.383323
O O15 0.000000 0.500000 0.264897
O O16 0.500000 0.000000 0.469464
#
# Coordination Sequence:
#
# PCOD8306643 Si02
#       7
#     8   8   8   8   8   4   4
#     4  10  22  41  68  99 128 160 209 276 334 381
#     4  10  19  38  63  92 123 156 202 255 312 366
#     4  11  26  47  65  86 127 175 214 261 324 392
#     4  11  22  41  65  93 122 157 208 263 318 376
#     4  11  24  41  57  84 132 176 207 249 310 380
#     4   9  14  30  59  87 123 155 180 234 310 362
#     4   9  18  32  59  93 125 153 185 245 311 371
#
# _framework density 21.366931999999998
#
# number of rings (size 3 to 8) (size 9 to 14) (size 15 to 20)
#    0.000    1.667    2.500    2.000    1.167    4.000 
#    9.000    3.333    0.000    0.000    0.000    0.000 
#    0.000    0.000    0.000    0.000    0.000    0.000 
#
# Total GULP energy -594813.986850 kJ/mol
# GULP energy per Si atom -12391.958059 kJ/mol
# Density = 2.131830 g / cm^3
# Si number density = 21.366932 Si / 1000 Ang^3
#
#
#
# Elastic Constant Matrix: (Units=GPa)
#
#
# Indices 1 2 3 4 5 6 
#
# 1 73.5209 19.3281 25.8180 0.0000 0.0000 -0.0001
# 2 19.3281 73.5209 25.8180 0.0000 0.0000 0.0001
# 3 25.8180 25.8180 100.5736 0.0000 0.0000 0.0000
# 4 0.0000 0.0000 0.0000 32.5380 0.0000 0.0000
# 5 0.0000 0.0000 0.0000 0.0000 32.5380 0.0000
# 6 -0.0001 0.0001 0.0000 0.0000 0.0000 14.6320
#
#
#
# Elastic Compliance Matrix: (Units=1/GPa)
#
#
# Indices 1 2 3 4 5 6 
#
# 1 0.015508 -0.002944 -0.003225 0.000000 0.000000 0.000000
# 2 -0.002944 0.015508 -0.003225 0.000000 0.000000 0.000000
# 3 -0.003225 -0.003225 0.011599 0.000000 0.000000 0.000000
# 4 0.000000 0.000000 0.000000 0.030733 0.000000 0.000000
# 5 0.000000 0.000000 0.000000 0.000000 0.030733 0.000000
# 6 0.000000 0.000000 0.000000 0.000000 0.000000 0.068343
#
#
# Mechanical properties :
#
#
# Convention : Reuss Voigt Hill
#
# Bulk Modulus (GPa) = 41.97173 43.28264 42.62718
# Shear Modulus (GPa) = 25.10585 27.71837 26.41211
#
# Velocity S-wave (km/s) = 3.43153 3.60565 3.51967
# Velocity P-wave (km/s) = 5.94865 6.13475 6.04241
#
# Compressibility (1/GPa) = 0.02382556
#
# Stress axis : x y z
#
# Youngs Moduli (GPa) = 64.48195 64.48195 86.21545
#
# Poissons Ratio (x) = 0.18986 0.27806
# Poissons Ratio (y) = 0.18986 0.27806
# Poissons Ratio (z) = 0.20797 0.20797
#
# Static dielectric constant tensor:
#      x y z
#    x 3.610240 0.000000 0.000000 
#    y 0.000000 3.610240 0.000000 
#    z 0.000000 0.000000 3.882860 
# 
# 
# High freq. dielectric constant tensor:
#      x y z
#    x 1.829170 0.000000 0.000000 
#    y 0.000000 1.829170 0.000000 
#    z 0.000000 0.000000 1.838880 
# 
# From -- ./inp_files/1277.got.cif
#   From: 2010.03.12/outbox.cif.g09.slc.cpg/sg100_cif.got.tgz:1277.got - 2010.04.14 01:37:57.
