data_PCOD8306447
_publ_section_title
;
Structure prediction by ZEFSAII (Michael W. Deem and Ramdas Pophale) SiO2 
 PCOD8306447
Probable space group: P 4 M M
;
_chemical_formula_sum "Si O2"
_cell_formula_units_Z 64
_cell_length_a 13.762509
_cell_length_b 13.762509
_cell_length_c 20.543480
_cell_angle_alpha 90.000000
_cell_angle_beta 90.000000
_cell_angle_gamma 90.000000
_cell_volume 3891.071808
_symmetry_space_group_name_H-M "P 4 M M"
_symmetry_group_IT_number 99
_symmetry_cell_setting 'tetragonal'
loop_
_space_group_symop_operation_xyz
x,y,z
-y,x,z
-x,-y,z
y,-x,z
-x,y,z
x,-y,z
-y,-x,z
y,x,z
loop_
_atom_site_type_symbol
_atom_site_label
_atom_site_fract_x
_atom_site_fract_y
_atom_site_fract_z
Si Si1 0.115272 0.392302 0.591620
Si Si2 0.884754 0.727621 0.715489
Si Si3 0.614279 0.768101 0.328395
Si Si4 0.112460 0.388134 0.202262
Si Si5 0.773311 0.385674 0.821896
Si Si6 0.268840 0.113781 0.077107
Si Si7 0.110430 0.612158 0.950923
Si Si8 0.615392 0.892178 0.448883
O O1 0.158311 0.500000 0.606952
O O2 0.148347 0.315975 0.646061
O O3 0.150171 0.355684 0.520204
O O4 0.000000 0.400612 0.590382
O O5 0.830538 0.830538 0.725523
O O6 0.852132 0.650204 0.769573
O O7 0.000000 0.745174 0.720335
O O8 0.500000 0.751689 0.331861
O O9 0.662844 0.662844 0.324538
O O10 0.645696 0.829641 0.265675
O O11 0.655102 0.822773 0.392278
O O12 0.132437 0.500000 0.185963
O O13 0.148654 0.327913 0.140243
O O14 0.000000 0.369381 0.217209
O O15 0.753516 0.500000 0.812061
O O16 0.671753 0.328248 0.813996
O O17 0.818028 0.362537 0.892162
O O18 0.164870 0.164870 0.076189
O O19 0.249515 0.000000 0.078671
O O20 0.328007 0.145058 0.013325
O O21 0.117086 0.500000 0.970353
O O22 0.000000 0.639173 0.930849
O O23 0.500000 0.899208 0.444233
O O24 0.659835 0.000000 0.438778
#
# Coordination Sequence:
#
# PCOD8306447 Si02
#       8
#     8   8   8   8   8   8   8   8
#     4   8  14  26  45  67  89 112 141 181 226 268
#     4  10  20  32  47  68  93 122 156 191 228 270
#     4  10  19  29  42  61  86 116 146 175 211 258
#     4   9  17  30  48  67  84 104 137 184 231 265
#     4  10  20  33  50  72  96 122 152 187 228 273
#     4  10  19  30  45  65  91 120 147 177 213 257
#     4   9  17  30  49  71  92 116 149 187 223 257
#     4   8  14  26  44  65  87 110 140 182 226 260
#
# _framework density 16.44791
#
# number of rings (size 3 to 8) (size 9 to 14) (size 15 to 20)
#    0.000    2.750    0.000    3.000    0.000    5.250 
#    0.000    0.000    0.000    0.000    0.000    1.750 
#    0.000   14.250    0.000    0.500    0.000    0.000 
#
# Total GULP energy -793451.202142 kJ/mol
# GULP energy per Si atom -12397.675033 kJ/mol
# Density = 1.641047 g / cm^3
# Si number density = 16.447910 Si / 1000 Ang^3
#
#
#
# Elastic Constant Matrix: (Units=GPa)
#
#
# Indices 1 2 3 4 5 6 
#
# 1 69.3009 44.3224 49.8981 0.0000 0.0000 -0.0001
# 2 44.3224 69.3009 49.8981 0.0000 0.0000 0.0001
# 3 49.8981 49.8981 130.2860 0.0000 0.0000 0.0000
# 4 0.0000 0.0000 0.0000 13.5263 0.0000 0.0000
# 5 0.0000 0.0000 0.0000 0.0000 13.5263 0.0000
# 6 -0.0001 0.0001 0.0000 0.0000 0.0000 22.9571
#
#
#
# Elastic Compliance Matrix: (Units=1/GPa)
#
#
# Indices 1 2 3 4 5 6 
#
# 1 0.026648 -0.013386 -0.005079 0.000000 0.000000 0.000000
# 2 -0.013386 0.026648 -0.005079 0.000000 0.000000 0.000000
# 3 -0.005079 -0.005079 0.011566 0.000000 0.000000 0.000000
# 4 0.000000 0.000000 0.000000 0.073930 0.000000 0.000000
# 5 0.000000 0.000000 0.000000 0.000000 0.073930 0.000000
# 6 0.000000 0.000000 0.000000 0.000000 0.000000 0.043559
#
#
# Mechanical properties :
#
#
# Convention : Reuss Voigt Hill
#
# Bulk Modulus (GPa) = 56.26420 61.90281 59.08351
# Shear Modulus (GPa) = 16.16575 18.31989 17.24282
#
# Velocity S-wave (km/s) = 3.13844 3.34100 3.24130
# Velocity P-wave (km/s) = 6.88584 7.25262 7.07161
#
# Compressibility (1/GPa) = 0.01777329
#
# Stress axis : x y z
#
# Youngs Moduli (GPa) = 37.52586 37.52586 86.46012
#
# Poissons Ratio (x) = 0.50233 0.43915
# Poissons Ratio (y) = 0.50233 0.43915
# Poissons Ratio (z) = 0.19060 0.19060
#
# Static dielectric constant tensor:
#      x y z
#    x 2.885860 0.000000 0.000000 
#    y 0.000000 2.885860 0.000000 
#    z 0.000000 0.000000 3.424380 
# 
# 
# High freq. dielectric constant tensor:
#      x y z
#    x 1.613060 0.000000 0.000000 
#    y 0.000000 1.613060 0.000000 
#    z 0.000000 0.000000 1.652470 
# 
# From -- ./inp_files/2092.got.cif
#   From: 2010.03.12/outbox.cif.g09.slc.cpg/sg99_cif.got.tgz:2092.got - 2010.04.08 21:11:30.
