data_PCOD8306612
_publ_section_title
;
Structure prediction by ZEFSAII (Michael W. Deem and Ramdas Pophale) SiO2 
 PCOD8306612
Probable space group: P 4 M M
;
_chemical_formula_sum "Si O2"
_cell_formula_units_Z 64
_cell_length_a 13.647058
_cell_length_b 13.647058
_cell_length_c 20.374484
_cell_angle_alpha 90.000000
_cell_angle_beta 90.000000
_cell_angle_gamma 90.000000
_cell_volume 3794.588562
_symmetry_space_group_name_H-M "P 4 M M"
_symmetry_group_IT_number 99
_symmetry_cell_setting 'tetragonal'
loop_
_space_group_symop_operation_xyz
x,y,z
-y,x,z
-x,-y,z
y,-x,z
-x,y,z
x,-y,z
-y,-x,z
y,x,z
loop_
_atom_site_type_symbol
_atom_site_label
_atom_site_fract_x
_atom_site_fract_y
_atom_site_fract_z
Si Si1 0.111850 0.729597 0.811050
Si Si2 0.233535 0.389592 0.567708
Si Si3 0.723770 0.885011 0.313578
Si Si4 0.222714 0.384411 0.424940
Si Si5 0.613307 0.771483 0.206460
Si Si6 0.769620 0.611042 0.056059
Si Si7 0.613387 0.224764 0.710057
Si Si8 0.729774 0.888354 0.960326
O O1 0.173110 0.826891 0.794922
O O2 0.143177 0.641694 0.763253
O O3 0.128913 0.694278 0.885707
O O4 0.000000 0.757215 0.797930
O O5 0.267251 0.500000 0.566357
O O6 0.335478 0.335478 0.568948
O O7 0.178179 0.365697 0.498892
O O8 0.177506 0.367261 0.636717
O O9 0.826446 0.826446 0.315841
O O10 0.656745 0.859183 0.376129
O O11 0.662291 0.857407 0.248786
O O12 0.747507 0.000000 0.313088
O O13 0.241501 0.500000 0.411680
O O14 0.325026 0.325026 0.414719
O O15 0.500000 0.756936 0.226155
O O16 0.668434 0.668434 0.220090
O O17 0.625002 0.803780 0.131014
O O18 0.740771 0.500000 0.041332
O O19 0.673632 0.673632 0.039479
O O20 0.858364 0.642182 0.008824
O O21 0.500000 0.252754 0.719599
O O22 0.677168 0.322833 0.721035
O O23 0.826635 0.826635 0.976637
O O24 0.758225 0.000000 0.973168
#
# Coordination Sequence:
#
# PCOD8306612 Si02
#       8
#     8   8   8   8   8   8   8   8
#     4   9  18  32  49  68  89 115 148 188 235 282
#     4   8  14  25  41  62  90 122 153 185 220 260
#     4  10  21  36  52  69  90 118 154 195 235 274
#     4   9  17  29  46  70  98 125 153 184 221 268
#     4   9  18  32  50  73  99 126 155 186 222 265
#     4   9  18  32  49  70  97 127 158 190 221 258
#     4   9  17  29  45  66  93 124 156 188 222 263
#     4   9  18  32  49  69  92 117 148 188 233 280
#
# _framework density 16.866125
#
# number of rings (size 3 to 8) (size 9 to 14) (size 15 to 20)
#    0.000    3.000    0.000    0.375    0.000    3.500 
#    0.000    8.125    0.000    4.500    0.000    7.000 
#    0.000    5.000    0.000    0.000    0.000    0.000 
#
# Total GULP energy -793108.766948 kJ/mol
# GULP energy per Si atom -12392.324484 kJ/mol
# Density = 1.682774 g / cm^3
# Si number density = 16.866125 Si / 1000 Ang^3
#
#
#
# Elastic Constant Matrix: (Units=GPa)
#
#
# Indices 1 2 3 4 5 6 
#
# 1 95.8369 37.6189 55.2828 0.0000 0.0000 -0.0001
# 2 37.6189 95.8369 55.2828 0.0000 0.0000 0.0001
# 3 55.2828 55.2828 110.6699 0.0000 0.0000 0.0000
# 4 0.0000 0.0000 0.0000 22.6935 0.0000 0.0000
# 5 0.0000 0.0000 0.0000 0.0000 22.6935 0.0000
# 6 -0.0001 0.0001 0.0000 0.0000 0.0000 11.3172
#
#
#
# Elastic Compliance Matrix: (Units=1/GPa)
#
#
# Indices 1 2 3 4 5 6 
#
# 1 0.014980 -0.002197 -0.006386 0.000000 0.000000 0.000000
# 2 -0.002197 0.014980 -0.006386 0.000000 0.000000 0.000000
# 3 -0.006386 -0.006386 0.015416 0.000000 0.000000 0.000000
# 4 0.000000 0.000000 0.000000 0.044066 0.000000 0.000000
# 5 0.000000 0.000000 0.000000 0.000000 0.044066 0.000000
# 6 0.000000 0.000000 0.000000 0.000000 0.000000 0.088361
#
#
# Mechanical properties :
#
#
# Convention : Reuss Voigt Hill
#
# Bulk Modulus (GPa) = 64.76791 66.52363 65.64577
# Shear Modulus (GPa) = 19.45892 21.61810 20.53851
#
# Velocity S-wave (km/s) = 3.40034 3.58403 3.49340
# Velocity P-wave (km/s) = 7.34173 7.52694 7.43491
#
# Compressibility (1/GPa) = 0.01543974
#
# Stress axis : x y z
#
# Youngs Moduli (GPa) = 66.75475 66.75475 64.86915
#
# Poissons Ratio (x) = 0.14663 0.41424
# Poissons Ratio (y) = 0.14663 0.41424
# Poissons Ratio (z) = 0.42628 0.42628
#
# Static dielectric constant tensor:
#      x y z
#    x 2.991370 0.000000 0.000000 
#    y 0.000000 2.991370 0.000000 
#    z 0.000000 0.000000 3.617540 
# 
# 
# High freq. dielectric constant tensor:
#      x y z
#    x 1.632390 0.000000 0.000000 
#    y 0.000000 1.632390 0.000000 
#    z 0.000000 0.000000 1.670910 
# 
# From -- ./inp_files/2256.got.cif
#   From: 2010.03.12/outbox.cif.g09.slc.cpg/sg99_cif.got.tgz:2256.got - 2010.04.08 21:11:30.
