data_PCOD8306591
_publ_section_title
;
Structure prediction by ZEFSAII (Michael W. Deem and Ramdas Pophale) SiO2 
 PCOD8306591
Probable space group: P 4 M M
;
_chemical_formula_sum "Si O2"
_cell_formula_units_Z 48
_cell_length_a 13.349393
_cell_length_b 13.349393
_cell_length_c 15.419333
_cell_angle_alpha 90.000000
_cell_angle_beta 90.000000
_cell_angle_gamma 90.000000
_cell_volume 2747.822182
_symmetry_space_group_name_H-M "P 4 M M"
_symmetry_group_IT_number 99
_symmetry_cell_setting 'tetragonal'
loop_
_space_group_symop_operation_xyz
x,y,z
-y,x,z
-x,-y,z
y,-x,z
-x,y,z
x,-y,z
-y,-x,z
y,x,z
loop_
_atom_site_type_symbol
_atom_site_label
_atom_site_fract_x
_atom_site_fract_y
_atom_site_fract_z
Si Si1 0.777995 0.381974 0.294400
Si Si2 0.116991 0.281804 0.448680
Si Si3 0.780842 0.383142 0.608243
Si Si4 0.885223 0.726299 0.954378
Si Si5 0.382261 0.112000 0.122822
Si Si6 0.720296 0.116702 0.760600
O O1 0.759228 0.500000 0.299553
O O2 0.672632 0.327369 0.313383
O O3 0.859990 0.349549 0.364907
O O4 0.817213 0.346074 0.200579
O O5 0.177475 0.177475 0.445536
O O6 0.146469 0.345922 0.532454
O O7 0.000000 0.255721 0.451664
O O8 0.757230 0.500000 0.597539
O O9 0.675348 0.324653 0.605112
O O10 0.838378 0.364716 0.698524
O O11 0.832273 0.832273 0.962852
O O12 0.866856 0.679606 0.858786
O O13 0.000000 0.750225 0.969161
O O14 0.844813 0.653008 0.029758
O O15 0.500000 0.108817 0.120725
O O16 0.339755 0.000000 0.138487
O O17 0.825315 0.174686 0.745131
O O18 0.739682 0.000000 0.740605
#
# Coordination Sequence:
#
# PCOD8306591 Si02
#       6
#     8   8   8   8   8   8
#     4  10  20  33  50  72  97 127 163 202 244 288
#     4  10  21  36  54  77 103 130 161 195 233 280
#     4  10  21  36  53  74  99 127 161 200 241 285
#     4   9  17  29  45  66  94 125 156 193 235 281
#     4   9  17  29  46  68  92 120 157 199 242 288
#     4   9  18  31  47  70  98 128 163 200 240 287
#
# _framework density 17.468378999999999
#
# number of rings (size 3 to 8) (size 9 to 14) (size 15 to 20)
#    0.000    2.500    0.000    2.000    0.000    4.500 
#    0.000    3.333    0.000    6.000    0.000    2.333 
#    0.000    4.000    0.000    0.000    0.000    0.000 
#
# Total GULP energy -595106.507127 kJ/mol
# GULP energy per Si atom -12398.052232 kJ/mol
# Density = 1.742862 g / cm^3
# Si number density = 17.468379 Si / 1000 Ang^3
#
#
#
# Elastic Constant Matrix: (Units=GPa)
#
#
# Indices 1 2 3 4 5 6 
#
# 1 90.4361 39.8524 45.0710 0.0000 0.0000 -0.0002
# 2 39.8524 90.4361 45.0710 0.0000 0.0000 0.0002
# 3 45.0710 45.0710 127.5198 0.0000 0.0000 0.0000
# 4 0.0000 0.0000 0.0000 24.6147 0.0000 0.0000
# 5 0.0000 0.0000 0.0000 0.0000 24.6147 0.0000
# 6 -0.0002 0.0002 0.0000 0.0000 0.0000 16.3693
#
#
#
# Elastic Compliance Matrix: (Units=1/GPa)
#
#
# Indices 1 2 3 4 5 6 
#
# 1 0.014964 -0.004805 -0.003591 0.000000 0.000000 0.000000
# 2 -0.004805 0.014964 -0.003591 0.000000 0.000000 0.000000
# 3 -0.003591 -0.003591 0.010380 0.000000 0.000000 0.000000
# 4 0.000000 0.000000 0.000000 0.040626 0.000000 0.000000
# 5 0.000000 0.000000 0.000000 0.000000 0.040626 0.000000
# 6 0.000000 0.000000 0.000000 0.000000 0.000000 0.061090
#
#
# Mechanical properties :
#
#
# Convention : Reuss Voigt Hill
#
# Bulk Modulus (GPa) = 61.21404 63.15343 62.18374
# Shear Modulus (GPa) = 23.57715 25.01292 24.29504
#
# Velocity S-wave (km/s) = 3.67782 3.78815 3.73339
# Velocity P-wave (km/s) = 7.29068 7.44076 7.36610
#
# Compressibility (1/GPa) = 0.01633612
#
# Stress axis : x y z
#
# Youngs Moduli (GPa) = 66.82508 66.82508 96.33678
#
# Poissons Ratio (x) = 0.32108 0.34593
# Poissons Ratio (y) = 0.32108 0.34593
# Poissons Ratio (z) = 0.23996 0.23996
#
# Static dielectric constant tensor:
#      x y z
#    x 3.108230 0.000000 0.000000 
#    y 0.000000 3.108230 0.000000 
#    z 0.000000 0.000000 3.647250 
# 
# 
# High freq. dielectric constant tensor:
#      x y z
#    x 1.662650 0.000000 0.000000 
#    y 0.000000 1.662650 0.000000 
#    z 0.000000 0.000000 1.697840 
# 
# From -- ./inp_files/1951.got.cif
#   From: 2010.03.12/outbox.cif.g09.slc.cpg/sg99_cif.got.tgz:1951.got - 2010.04.08 21:11:30.
