data_PCOD8306823
_publ_section_title
;
Structure prediction by ZEFSAII (Michael W. Deem and Ramdas Pophale) SiO2 
 PCOD8306823
Probable space group: P 42 N M
;
_chemical_formula_sum "Si O2"
_cell_formula_units_Z 48
_cell_length_a 12.101563
_cell_length_b 12.101563
_cell_length_c 23.096579
_cell_angle_alpha 90.000000
_cell_angle_beta 90.000000
_cell_angle_gamma 90.000000
_cell_volume 3382.443807
_symmetry_space_group_name_H-M "P 42 N M"
_symmetry_group_IT_number 102
_symmetry_cell_setting 'tetragonal'
loop_
_space_group_symop_operation_xyz
x,y,z
1/2-y,1/2+x,1/2+z
-x,-y,z
1/2+y,1/2-x,1/2+z
1/2-x,1/2+y,1/2+z
1/2+x,1/2-y,1/2+z
-y,-x,z
y,x,z
loop_
_atom_site_type_symbol
_atom_site_label
_atom_site_fract_x
_atom_site_fract_y
_atom_site_fract_z
Si Si1 0.500000 0.321206 0.518840
Si Si2 0.196595 0.620862 0.711361
Si Si3 0.320710 0.500000 0.383671
Si Si4 0.875593 0.500000 0.606390
Si Si5 0.869538 0.500002 0.293913
Si Si6 0.303409 0.879136 0.211360
O O1 0.608412 0.391589 0.535666
O O2 0.391598 0.391598 0.535672
O O3 0.499991 0.293507 0.451324
O O4 0.500001 0.206532 0.552548
O O5 0.298324 0.701677 0.709487
O O6 0.143327 0.608364 0.647011
O O7 0.106089 0.664271 0.756337
O O8 0.240126 0.499998 0.731706
O O9 0.391330 0.608671 0.367151
O O10 0.391339 0.391339 0.367145
O O11 0.203318 0.500000 0.351645
O O12 0.856674 0.608365 0.647009
O O13 0.000000 0.500000 0.581830
O O14 0.835728 0.393918 0.256335
O O15 0.000000 0.500000 0.309319
O O16 0.201685 0.798316 0.209488
#
# Coordination Sequence:
#
# PCOD8306823 Si02
#       6
#     8   8   8   8   8   8
#     4   9  18  31  47  69  91 112 147 189 223 259
#     4   9  17  28  42  63  87 116 148 180 216 258
#     4   9  18  31  47  67  89 116 151 187 221 257
#     4  10  17  30  42  64  91 116 143 171 222 269
#     4  10  17  30  44  64  91 122 147 179 220 259
#     4   9  17  28  42  63  87 116 148 180 216 258
#
# _framework density 14.190923
#
# number of rings (size 3 to 8) (size 9 to 14) (size 15 to 20)
#    1.000    1.667    1.667    3.000    0.000    1.000 
#    0.000    0.000    0.000    0.000    0.000    0.000 
#    0.000    0.000    0.000   18.000    0.000    0.000 
#
# Total GULP energy -594771.319463 kJ/mol
# GULP energy per Si atom -12391.069155 kJ/mol
# Density = 1.415862 g / cm^3
# Si number density = 14.190923 Si / 1000 Ang^3
#
#
#
# Elastic Constant Matrix: (Units=GPa)
#
#
# Indices 1 2 3 4 5 6 
#
# 1 91.8481 51.8231 43.8515 0.0000 0.0000 -0.0001
# 2 51.8231 91.8481 43.8515 0.0000 0.0000 0.0001
# 3 43.8515 43.8515 73.7612 0.0000 0.0000 0.0000
# 4 0.0000 0.0000 0.0000 24.4287 0.0000 0.0000
# 5 0.0000 0.0000 0.0000 0.0000 24.4287 0.0000
# 6 -0.0001 0.0001 0.0000 0.0000 0.0000 2.3952
#
#
#
# Elastic Compliance Matrix: (Units=1/GPa)
#
#
# Indices 1 2 3 4 5 6 
#
# 1 0.017955 -0.007030 -0.006495 0.000000 0.000000 0.000001
# 2 -0.007030 0.017955 -0.006495 0.000000 0.000000 -0.000001
# 3 -0.006495 -0.006495 0.021280 0.000000 0.000000 0.000000
# 4 0.000000 0.000000 0.000000 0.040936 0.000000 0.000000
# 5 0.000000 0.000000 0.000000 0.000000 0.040936 0.000000
# 6 0.000001 -0.000001 0.000000 0.000000 0.000000 0.417495
#
#
# Mechanical properties :
#
#
# Convention : Reuss Voigt Hill
#
# Bulk Modulus (GPa) = 58.30892 59.61216 58.96054
# Shear Modulus (GPa) = 8.30135 18.11260 13.20697
#
# Velocity S-wave (km/s) = 2.42125 3.57648 3.05399
# Velocity P-wave (km/s) = 6.99962 7.69112 7.35351
#
# Compressibility (1/GPa) = 0.01715003
#
# Stress axis : x y z
#
# Youngs Moduli (GPa) = 55.69537 55.69537 46.99240
#
# Poissons Ratio (x) = 0.39152 0.30522
# Poissons Ratio (y) = 0.39152 0.30522
# Poissons Ratio (z) = 0.36175 0.36175
#
# Static dielectric constant tensor:
#      x y z
#    x 2.635240 0.000000 0.000000 
#    y 0.000000 2.635240 0.000000 
#    z 0.000000 0.000000 2.623510 
# 
# 
# High freq. dielectric constant tensor:
#      x y z
#    x 1.534520 0.000000 0.000000 
#    y 0.000000 1.534520 0.000000 
#    z 0.000000 0.000000 1.532940 
# 
# From -- ./inp_files/3029.got.cif
#   From: 2010.03.12/outbox.cif.g09.slc.cpg/sg102_2_cif.got.tgz:3029.got - 2010.04.14 01:40:42.
