data_PCOD8306931
_publ_section_title
;
Structure prediction by ZEFSAII (Michael W. Deem and Ramdas Pophale) SiO2 
 PCOD8306931
Probable space group: P 42 N M
;
_chemical_formula_sum "Si O2"
_cell_formula_units_Z 40
_cell_length_a 14.549820
_cell_length_b 14.549820
_cell_length_c 9.299267
_cell_angle_alpha 90.000000
_cell_angle_beta 90.000000
_cell_angle_gamma 90.000000
_cell_volume 1968.629363
_symmetry_space_group_name_H-M "P 42 N M"
_symmetry_group_IT_number 102
_symmetry_cell_setting 'tetragonal'
loop_
_space_group_symop_operation_xyz
x,y,z
1/2-y,1/2+x,1/2+z
-x,-y,z
1/2+y,1/2-x,1/2+z
1/2-x,1/2+y,1/2+z
1/2+x,1/2-y,1/2+z
-y,-x,z
y,x,z
loop_
_atom_site_type_symbol
_atom_site_label
_atom_site_fract_x
_atom_site_fract_y
_atom_site_fract_z
Si Si1 0.948547 0.593739 0.488920
Si Si2 0.735192 0.997183 0.015087
Si Si3 0.232837 0.464749 0.200082
Si Si4 0.426584 0.426584 0.503443
Si Si5 0.285478 0.140431 0.260231
Si Si6 0.071790 0.928211 0.659851
O O1 0.849791 0.564387 0.550337
O O2 0.937156 0.672778 0.367142
O O3 0.000000 0.500000 0.434566
O O4 0.005661 0.642292 0.614186
O O5 0.739111 0.972424 0.844313
O O6 0.827114 0.048722 0.065732
O O7 0.728828 0.902928 0.103017
O O8 0.220823 0.360219 0.250775
O O9 0.327422 0.463311 0.107783
O O10 0.500000 0.500000 0.562195
O O11 0.426365 0.426365 0.331657
O O12 0.190272 0.190272 0.312254
O O13 0.000000 0.000000 0.594883
#
# Coordination Sequence:
#
# PCOD8306931 Si02
#       6
#     8   8   8   4   8   4
#     4  11  24  38  62  93 130 166 207 259 316 376
#     4  10  22  36  67  89 121 161 211 255 313 367
#     4  10  21  39  60  88 122 158 208 258 305 370
#     4   9  18  38  61  89 119 158 207 254 302 372
#     4  11  23  40  63  90 128 166 207 259 321 371
#     4   9  18  36  61  85 115 160 205 256 304 366
#
# _framework density 20.318705999999999
#
# number of rings (size 3 to 8) (size 9 to 14) (size 15 to 20)
#    0.000    1.800    3.000    0.600    9.800    1.600 
#    0.000    1.000    4.400    1.200    0.000    0.000 
#    0.000    0.000    0.000    0.000    0.000    0.000 
#
# Total GULP energy -495711.667879 kJ/mol
# GULP energy per Si atom -12392.791697 kJ/mol
# Density = 2.027246 g / cm^3
# Si number density = 20.318706 Si / 1000 Ang^3
#
#
#
# Elastic Constant Matrix: (Units=GPa)
#
#
# Indices 1 2 3 4 5 6 
#
# 1 112.8576 45.2830 32.0708 0.0000 0.0000 0.0002
# 2 45.2830 112.8576 32.0708 0.0000 0.0000 -0.0002
# 3 32.0708 32.0708 62.1587 0.0000 0.0000 0.0000
# 4 0.0000 0.0000 0.0000 21.0581 0.0000 0.0000
# 5 0.0000 0.0000 0.0000 0.0000 21.0581 0.0000
# 6 0.0002 -0.0002 0.0000 0.0000 0.0000 37.7689
#
#
#
# Elastic Compliance Matrix: (Units=1/GPa)
#
#
# Indices 1 2 3 4 5 6 
#
# 1 0.011398 -0.003401 -0.004126 0.000000 0.000000 0.000000
# 2 -0.003401 0.011398 -0.004126 0.000000 0.000000 0.000000
# 3 -0.004126 -0.004126 0.020346 0.000000 0.000000 0.000000
# 4 0.000000 0.000000 0.000000 0.047488 0.000000 0.000000
# 5 0.000000 0.000000 0.000000 0.000000 0.047488 0.000000
# 6 0.000000 0.000000 0.000000 0.000000 0.000000 0.026477
#
#
# Mechanical properties :
#
#
# Convention : Reuss Voigt Hill
#
# Bulk Modulus (GPa) = 50.41512 56.30257 53.35885
# Shear Modulus (GPa) = 25.70550 27.87361 26.78955
#
# Velocity S-wave (km/s) = 3.56070 3.70783 3.63501
# Velocity P-wave (km/s) = 6.46304 6.78974 6.62840
#
# Compressibility (1/GPa) = 0.01983532
#
# Stress axis : x y z
#
# Youngs Moduli (GPa) = 87.73668 87.73668 49.15079
#
# Poissons Ratio (x) = 0.29837 0.20280
# Poissons Ratio (y) = 0.29837 0.20280
# Poissons Ratio (z) = 0.36201 0.36201
#
# Static dielectric constant tensor:
#      x y z
#    x 3.812310 0.000000 0.000000 
#    y 0.000000 3.812310 0.000000 
#    z 0.000000 0.000000 3.345340 
# 
# 
# High freq. dielectric constant tensor:
#      x y z
#    x 1.800400 0.000000 0.000000 
#    y 0.000000 1.800400 0.000000 
#    z 0.000000 0.000000 1.751840 
# 
# From -- ./inp_files/943.got.cif
#   From: 2010.03.12/outbox.cif.g09.slc.cpg/sg102_1_cif.got.tgz:943.got - 2010.04.14 01:40:42.
