data_PCOD8306121
_publ_section_title
;
Structure prediction by ZEFSAII (Michael W. Deem and Ramdas Pophale) SiO2 
 PCOD8306121
Probable space group: I 4 2 2 
;
_chemical_formula_sum "Si O2"
_cell_formula_units_Z 72
_cell_length_a 10.647546
_cell_length_b 10.647546
_cell_length_c 31.415203
_cell_angle_alpha 90.000000
_cell_angle_beta 90.000000
_cell_angle_gamma 90.000000
_cell_volume 3561.548973
_symmetry_space_group_name_H-M "I 4 2 2 "
_symmetry_group_IT_number 97
_symmetry_cell_setting 'tetragonal'
loop_
_space_group_symop_operation_xyz
x,y,z
-y,x,z
-x,-y,z
y,-x,z
x,-y,-z
-x,y,-z
y,x,-z
-y,-x,-z
1/2+x,1/2+y,1/2+z
1/2-y,1/2+x,1/2+z
1/2-x,1/2-y,1/2+z
1/2+y,1/2-x,1/2+z
1/2+x,1/2-y,1/2-z
1/2-x,1/2+y,1/2-z
1/2+y,1/2+x,1/2-z
1/2-y,1/2-x,1/2-z
loop_
_atom_site_type_symbol
_atom_site_label
_atom_site_fract_x
_atom_site_fract_y
_atom_site_fract_z
Si Si1 0.417314 0.688841 0.876819
Si Si2 0.127853 0.549576 0.420768
Si Si3 0.500000 0.703051 0.500000
Si Si4 0.779295 0.275005 0.200072
Si Si5 0.029416 0.643810 0.828946
O O1 0.336216 0.563913 0.885895
O O2 0.372650 0.802266 0.907671
O O3 0.395392 0.727182 0.827018
O O4 0.225410 0.513047 0.456133
O O5 0.151830 0.461551 0.379779
O O6 0.000000 0.500000 0.441318
O O7 0.374990 0.625011 0.500000
O O8 0.792325 0.292325 0.250000
O O9 0.689350 0.159019 0.190604
O O10 0.923051 0.257477 0.185607
O O11 0.000000 0.500000 0.814200
#
# Coordination Sequence:
#
# PCOD8306121 Si02
#       5
#    16  16   8  16  16
#     4  10  22  41  68  98 131 177 225 279 333 399
#     4  10  22  43  70  95 126 172 219 268 339 401
#     4  11  27  42  66 100 131 169 210 270 326 405
#     4  11  24  37  63  94 132 177 225 278 334 398
#     4  10  24  42  65  92 130 179 222 278 337 398
#
# _framework density 20.215924999999999
#
# number of rings (size 3 to 8) (size 9 to 14) (size 15 to 20)
#    0.000    1.667    0.000    4.333   15.556    0.444 
#    0.000    0.000    0.000    0.000    0.000    0.000 
#    0.000    0.000    0.000    0.000    0.000    0.000 
#
# Total GULP energy -446054.528883 kJ/mol
# GULP energy per Si atom -12390.403580 kJ/mol
# Density = 2.016991 g / cm^3
# Si number density = 20.215925 Si / 1000 Ang^3
#
#
#
# Elastic Constant Matrix: (Units=GPa)
#
#
# Indices 1 2 3 4 5 6 
#
# 1 142.8366 13.2035 44.5459 0.0000 0.0000 0.0000
# 2 13.2035 142.8307 44.5429 0.0000 0.0000 0.0000
# 3 44.5459 44.5429 88.1738 0.0000 0.0000 0.0000
# 4 0.0000 0.0000 0.0000 26.6275 0.0000 0.0000
# 5 0.0000 0.0000 0.0000 0.0000 26.6282 0.0000
# 6 0.0000 0.0000 0.0000 0.0000 0.0000 35.3879
#
#
#
# Elastic Compliance Matrix: (Units=1/GPa)
#
#
# Indices 1 2 3 4 5 6 
#
# 1 0.008360 0.000646 -0.004550 0.000000 0.000000 0.000000
# 2 0.000646 0.008360 -0.004550 0.000000 0.000000 0.000000
# 3 -0.004550 -0.004550 0.015938 0.000000 0.000000 0.000000
# 4 0.000000 0.000000 0.000000 0.037555 0.000000 0.000000
# 5 0.000000 0.000000 0.000000 0.000000 0.037554 0.000000
# 6 0.000000 0.000000 0.000000 0.000000 0.000000 0.028258
#
#
# Mechanical properties :
#
#
# Convention : Reuss Voigt Hill
#
# Bulk Modulus (GPa) = 63.48591 64.26952 63.87772
# Shear Modulus (GPa) = 31.60855 35.83198 33.72027
#
# Velocity S-wave (km/s) = 3.95846 4.21463 4.08855
# Velocity P-wave (km/s) = 7.23634 7.45283 7.34538
#
# Compressibility (1/GPa) = 0.01575153
#
# Stress axis : x y z
#
# Youngs Moduli (GPa) = 119.61304 119.61019 62.74140
#
# Poissons Ratio (x) = -0.07728 0.28548
# Poissons Ratio (y) = -0.07729 0.28547
# Poissons Ratio (z) = 0.54425 0.54422
#
# Static dielectric constant tensor:
#      x y z
#    x 3.861730 0.000000 0.000000 
#    y 0.000000 3.861720 0.000000 
#    z 0.000000 0.000000 3.604710 
# 
# 
# High freq. dielectric constant tensor:
#      x y z
#    x 1.798210 0.000000 0.000000 
#    y 0.000000 1.798210 0.000000 
#    z 0.000000 0.000000 1.779680 
# 
# From -- ./inp_files/7584.got.cif
#   From: 2010.03.12/outbox.cif.g09.slc.cpg/sg97_4_cif.got.tgz:7584.got - 2010.04.08 20:59:42.
