data_PCOD8306174
_publ_section_title
;
Structure prediction by ZEFSAII (Michael W. Deem and Ramdas Pophale) SiO2 
 PCOD8306174
Probable space group: I 4 2 2 
;
_chemical_formula_sum "Si O2"
_cell_formula_units_Z 48
_cell_length_a 7.973608
_cell_length_b 7.973608
_cell_length_c 30.240477
_cell_angle_alpha 90.000000
_cell_angle_beta 90.000000
_cell_angle_gamma 90.000000
_cell_volume 1922.641885
_symmetry_space_group_name_H-M "I 4 2 2 "
_symmetry_group_IT_number 97
_symmetry_cell_setting 'tetragonal'
loop_
_space_group_symop_operation_xyz
x,y,z
-y,x,z
-x,-y,z
y,-x,z
x,-y,-z
-x,y,-z
y,x,-z
-y,-x,-z
1/2+x,1/2+y,1/2+z
1/2-y,1/2+x,1/2+z
1/2-x,1/2-y,1/2+z
1/2+y,1/2-x,1/2+z
1/2+x,1/2-y,1/2-z
1/2-x,1/2+y,1/2-z
1/2+y,1/2+x,1/2-z
1/2-y,1/2-x,1/2-z
loop_
_atom_site_type_symbol
_atom_site_label
_atom_site_fract_x
_atom_site_fract_y
_atom_site_fract_z
Si Si1 0.573509 0.232123 0.878917
Si Si2 0.238204 0.403858 0.706085
Si Si3 0.228543 0.470179 0.549769
O O1 0.703274 0.384998 0.881582
O O2 0.612368 0.133757 0.833959
O O3 0.579911 0.095083 0.918724
O O4 0.402161 0.287923 0.704117
O O5 0.133531 0.366470 0.750000
O O6 0.357989 0.320146 0.560263
O O7 0.162527 0.500000 0.500000
#
# Coordination Sequence:
#
# PCOD8306174 Si02
#       3
#    16  16  16
#     4  11  24  41  63  95 134 174 219 271 327 392
#     4  11  24  41  64  97 135 175 222 272 324 388
#     4   9  19  39  63  89 119 156 209 267 322 385
#
# _framework density 24.965647000000001
#
# number of rings (size 3 to 8) (size 9 to 14) (size 15 to 20)
#    0.000    1.667    0.000    5.000    0.000   14.000 
#    0.000   16.667    0.000    8.000    0.000    0.000 
#    0.000    0.000    0.000    0.000    0.000    0.000 
#
# Total GULP energy -297385.641691 kJ/mol
# GULP energy per Si atom -12391.068404 kJ/mol
# Density = 2.490882 g / cm^3
# Si number density = 24.965647 Si / 1000 Ang^3
#
#
#
# Elastic Constant Matrix: (Units=GPa)
#
#
# Indices 1 2 3 4 5 6 
#
# 1 82.1256 46.2367 44.6382 0.0001 -0.0005 0.0000
# 2 46.2367 82.1243 44.6378 -0.0002 0.0019 0.0000
# 3 44.6382 44.6378 202.1715 -0.0002 0.0006 0.0000
# 4 0.0001 -0.0002 -0.0002-1727.7026 -0.0156 -0.0001
# 5 -0.0005 0.0019 0.0006 -0.0156-1728.4664 -0.0001
# 6 0.0000 0.0000 0.0000 -0.0001 -0.0001 57.9081
#
#
#
# Elastic Compliance Matrix: (Units=1/GPa)
#
#
# Indices 1 2 3 4 5 6 
#
# 1 0.018534 -0.009330 -0.002032 0.000000 0.000000 0.000000
# 2 -0.009330 0.018534 -0.002032 0.000000 0.000000 0.000000
# 3 -0.002032 -0.002032 0.005844 0.000000 0.000000 0.000000
# 4 0.000000 0.000000 0.000000 -0.000579 0.000000 0.000000
# 5 0.000000 0.000000 0.000000 0.000000 -0.000579 0.000000
# 6 0.000000 0.000000 0.000000 0.000000 0.000000 0.017269
#
#
# Mechanical properties :
#
#
# Convention : Reuss Voigt Hill
#
# Bulk Modulus (GPa) = 62.02398 70.82740 66.42569
# Shear Modulus (GPa) = 54.83278 -664.25826 -304.71274
#
# Velocity S-wave (km/s) = 4.69159 -16.32931 -11.05974
# Velocity P-wave (km/s) = 7.36516 18.08583 11.68014
#
# Compressibility (1/GPa) = 0.01612280
#
# Stress axis : x y z
#
# Youngs Moduli (GPa) = 53.95517 53.95439 171.12566
#
# Poissons Ratio (x) = 0.50340 0.34775
# Poissons Ratio (y) = 0.50341 0.34775
# Poissons Ratio (z) = 0.10964 0.10964
#
# Static dielectric constant tensor:
#      x y z
#    x 6.584420 -0.000020 0.000000 
#    y -0.000020 6.585250 0.000000 
#    z 0.000000 0.000000 4.430790 
# 
# 
# High freq. dielectric constant tensor:
#      x y z
#    x 2.022010 0.000000 0.000000 
#    y 0.000000 2.022010 0.000000 
#    z 0.000000 0.000000 1.990240 
# 
# From -- ./inp_files/7771.got.cif
#   From: 2010.03.12/outbox.cif.g09.slc.cpg/sg97_4_cif.got.tgz:7771.got - 2010.04.08 20:59:42.
