data_PCOD8306245
_publ_section_title
;
Structure prediction by ZEFSAII (Michael W. Deem and Ramdas Pophale) SiO2 
 PCOD8306245
Probable space group: I 41 2 2
;
_chemical_formula_sum "Si O2"
_cell_formula_units_Z 80
_cell_length_a 27.257258
_cell_length_b 27.257258
_cell_length_c 6.084545
_cell_angle_alpha 90.000000
_cell_angle_beta 90.000000
_cell_angle_gamma 90.000000
_cell_volume 4520.562076
_symmetry_space_group_name_H-M "I 41 2 2"
_symmetry_group_IT_number 98
_symmetry_cell_setting 'tetragonal'
loop_
_space_group_symop_operation_xyz
x,y,z
-y,1/2+x,1/4+z
-x,-y,z
y,1/2-x,1/4+z
x,1/2-y,1/4-z
-x,1/2+y,1/4-z
y,x,-z
-y,-x,-z
1/2+x,1/2+y,1/2+z
1/2-y,x,3/4+z
1/2-x,1/2-y,1/2+z
1/2+y,-x,3/4+z
1/2+x,-y,3/4-z
1/2-x,y,3/4-z
1/2+y,1/2+x,1/2-z
1/2-y,1/2-x,1/2-z
loop_
_atom_site_type_symbol
_atom_site_label
_atom_site_fract_x
_atom_site_fract_y
_atom_site_fract_z
Si Si1 0.544513 0.544513 0.500000
Si Si2 0.416385 0.972868 0.430561
Si Si3 0.798197 0.009542 0.747915
Si Si4 0.121230 0.056349 0.616962
Si Si5 0.337320 0.910910 0.666804
Si Si6 0.067598 0.750000 0.625000
O O1 0.549730 0.491837 0.619418
O O2 0.587333 0.548774 0.324657
O O3 0.452562 0.952562 0.250000
O O4 0.378860 0.931308 0.506016
O O5 0.387124 0.017727 0.327385
O O6 0.750000 0.993805 0.875000
O O7 0.786114 0.033773 0.515379
O O8 0.824655 0.956884 0.705561
O O9 0.829476 0.049439 0.887758
O O10 0.109812 0.109812 0.500000
O O11 0.358136 0.858136 0.750000
O O12 0.285768 0.900849 0.536745
#
# Coordination Sequence:
#
# PCOD8306245 Si02
#       6
#     8  16  16  16  16   8
#     4  10  22  35  44  68 114 148 186 210 244 296
#     4  11  22  33  48  71 105 147 182 218 255 301
#     4  10  20  36  55  78 106 140 182 225 275 322
#     4  10  20  33  49  70 102 147 188 215 260 306
#     4  11  22  36  56  76 106 133 176 228 277 327
#     4  10  22  38  56  76 108 128 178 222 280 332
#
# _framework density 17.696914
#
# number of rings (size 3 to 8) (size 9 to 14) (size 15 to 20)
#    0.000    1.600    4.000    1.200    0.000    4.400 
#    0.000    0.000    0.000    0.000    0.000    0.000 
#  108.000    0.000    0.000    0.000   53.200    0.000 
#
# Total GULP energy -495576.830266 kJ/mol
# GULP energy per Si atom -12389.420757 kJ/mol
# Density = 1.765663 g / cm^3
# Si number density = 17.696914 Si / 1000 Ang^3
#
#
#
# Elastic Constant Matrix: (Units=GPa)
#
#
# Indices 1 2 3 4 5 6 
#
# 1 85.1424 51.8880 34.5986 0.0000 0.0000 0.0000
# 2 51.8880 85.1424 34.5986 0.0000 0.0000 0.0000
# 3 34.5986 34.5986 92.2094 0.0000 0.0000 0.0000
# 4 0.0000 0.0000 0.0000 27.1925 0.0000 0.0000
# 5 0.0000 0.0000 0.0000 0.0000 27.1925 0.0000
# 6 0.0000 0.0000 0.0000 0.0000 0.0000 26.7474
#
#
#
# Elastic Compliance Matrix: (Units=1/GPa)
#
#
# Indices 1 2 3 4 5 6 
#
# 1 0.019537 -0.010534 -0.003378 0.000000 0.000000 0.000000
# 2 -0.010534 0.019537 -0.003378 0.000000 0.000000 0.000000
# 3 -0.003378 -0.003378 0.013380 0.000000 0.000000 0.000000
# 4 0.000000 0.000000 0.000000 0.036775 0.000000 0.000000
# 5 0.000000 0.000000 0.000000 0.000000 0.036775 0.000000
# 6 0.000000 0.000000 0.000000 0.000000 0.000000 0.037387
#
#
# Mechanical properties :
#
#
# Convention : Reuss Voigt Hill
#
# Bulk Modulus (GPa) = 55.94699 56.07385 56.01042
# Shear Modulus (GPa) = 24.51819 25.65376 25.08598
#
# Velocity S-wave (km/s) = 3.72620 3.81152 3.76910
# Velocity P-wave (km/s) = 7.08487 7.15015 7.11759
#
# Compressibility (1/GPa) = 0.01787406
#
# Stress axis : x y z
#
# Youngs Moduli (GPa) = 51.18386 51.18386 74.73790
#
# Poissons Ratio (x) = 0.53916 0.25249
# Poissons Ratio (y) = 0.53916 0.25249
# Poissons Ratio (z) = 0.17292 0.17292
#
# Static dielectric constant tensor:
#      x y z
#    x 3.273910 0.000000 0.000000 
#    y 0.000000 3.273910 0.000000 
#    z 0.000000 0.000000 3.748440 
# 
# 
# High freq. dielectric constant tensor:
#      x y z
#    x 1.653100 0.000000 0.000000 
#    y 0.000000 1.653100 0.000000 
#    z 0.000000 0.000000 1.720050 
# 
# From -- ./inp_files/1773.got.cif
#   From: 2010.03.12/outbox.cif.g09.slc.cpg/sg98_1_cif.got.tgz:1773.got - 2010.04.08 21:04:41.
