data_PCOD8306166
_publ_section_title
;
Structure prediction by ZEFSAII (Michael W. Deem and Ramdas Pophale) SiO2 
 PCOD8306166
Probable space group: I 4 2 2 
;
_chemical_formula_sum "Si O2"
_cell_formula_units_Z 60
_cell_length_a 13.188599
_cell_length_b 13.188599
_cell_length_c 16.257855
_cell_angle_alpha 90.000000
_cell_angle_beta 90.000000
_cell_angle_gamma 90.000000
_cell_volume 2827.877375
_symmetry_space_group_name_H-M "I 4 2 2 "
_symmetry_group_IT_number 97
_symmetry_cell_setting 'tetragonal'
loop_
_space_group_symop_operation_xyz
x,y,z
-y,x,z
-x,-y,z
y,-x,z
x,-y,-z
-x,y,-z
y,x,-z
-y,-x,-z
1/2+x,1/2+y,1/2+z
1/2-y,1/2+x,1/2+z
1/2-x,1/2-y,1/2+z
1/2+y,1/2-x,1/2+z
1/2+x,1/2-y,1/2-z
1/2-x,1/2+y,1/2-z
1/2+y,1/2+x,1/2-z
1/2-y,1/2-x,1/2-z
loop_
_atom_site_type_symbol
_atom_site_label
_atom_site_fract_x
_atom_site_fract_y
_atom_site_fract_z
Si Si1 0.788303 0.788303 0.000000
Si Si2 0.067066 0.153550 0.129907
Si Si3 0.000000 0.500000 0.000000
Si Si4 0.120189 0.643264 0.383565
Si Si5 0.687595 0.981481 0.753376
O O1 0.894087 0.781399 0.051593
O O2 0.696979 0.782805 0.066719
O O3 0.085665 0.216666 0.214938
O O4 0.948164 0.132058 0.125805
O O5 0.070406 0.570487 0.052317
O O6 0.177459 0.572800 0.318255
O O7 0.032833 0.708144 0.335777
O O8 0.586177 0.913824 0.750000
#
# Coordination Sequence:
#
# PCOD8306166 Si02
#       5
#     8  16   4  16  16
#     4  12  24  41  68 106 134 171 222 292 336 396
#     4  11  24  41  64  95 133 169 216 271 339 396
#     4  12  20  42  64 100 138 184 220 284 348 390
#     4  11  23  39  65  98 135 172 227 271 339 401
#     4  11  22  44  65  94 133 181 217 274 328 410
#
# _framework density 21.217326
#
# number of rings (size 3 to 8) (size 9 to 14) (size 15 to 20)
#    0.000    0.800    5.333    3.200    0.000    3.200 
#    0.000    0.000    0.000    0.000    0.000    0.000 
#    0.000    0.000    0.000    0.000    0.000    0.000 
#
# Total GULP energy -371769.270632 kJ/mol
# GULP energy per Si atom -12392.309021 kJ/mol
# Density = 2.116903 g / cm^3
# Si number density = 21.217326 Si / 1000 Ang^3
#
#
#
# Elastic Constant Matrix: (Units=GPa)
#
#
# Indices 1 2 3 4 5 6 
#
# 1 74.7508 40.2309 62.3734 0.0000 0.0000 0.0000
# 2 40.2309 74.7500 62.3728 0.0000 0.0000 0.0000
# 3 62.3734 62.3728 154.7229 0.0000 0.0000 0.0000
# 4 0.0000 0.0000 0.0000 64.4343 0.0000 0.0000
# 5 0.0000 0.0000 0.0000 0.0000 64.4341 0.0000
# 6 0.0000 0.0000 0.0000 0.0000 0.0000 25.2349
#
#
#
# Elastic Compliance Matrix: (Units=1/GPa)
#
#
# Indices 1 2 3 4 5 6 
#
# 1 0.022213 -0.006756 -0.006231 0.000000 0.000000 0.000000
# 2 -0.006756 0.022214 -0.006231 0.000000 0.000000 0.000000
# 3 -0.006231 -0.006231 0.011487 0.000000 0.000000 0.000000
# 4 0.000000 0.000000 0.000000 0.015520 0.000000 0.000000
# 5 0.000000 0.000000 0.000000 0.000000 0.015520 0.000000
# 6 0.000000 0.000000 0.000000 0.000000 0.000000 0.039628
#
#
# Mechanical properties :
#
#
# Convention : Reuss Voigt Hill
#
# Bulk Modulus (GPa) = 57.21812 70.46421 63.84117
# Shear Modulus (GPa) = 29.26647 40.10378 34.68513
#
# Velocity S-wave (km/s) = 3.71801 4.35229 4.04760
# Velocity P-wave (km/s) = 6.74223 7.65111 7.21100
#
# Compressibility (1/GPa) = 0.01747698
#
# Stress axis : x y z
#
# Youngs Moduli (GPa) = 45.01796 45.01766 87.05275
#
# Poissons Ratio (x) = 0.30413 0.54247
# Poissons Ratio (y) = 0.30413 0.54246
# Poissons Ratio (z) = 0.28053 0.28052
#
# Static dielectric constant tensor:
#      x y z
#    x 3.790440 0.000000 0.000000 
#    y 0.000000 3.790440 0.000000 
#    z 0.000000 0.000000 4.380130 
# 
# 
# High freq. dielectric constant tensor:
#      x y z
#    x 1.818240 0.000000 0.000000 
#    y 0.000000 1.818240 0.000000 
#    z 0.000000 0.000000 1.840360 
# 
# From -- ./inp_files/4624.got.cif
#   From: 2010.03.12/outbox.cif.g09.slc.cpg/sg97_3_cif.got.tgz:4624.got - 2010.04.08 20:59:42.
