data_PCOD8306184
_publ_section_title
;
Structure prediction by ZEFSAII (Michael W. Deem and Ramdas Pophale) SiO2 
 PCOD8306184
Probable space group: I 4 2 2 
;
_chemical_formula_sum "Si O2"
_cell_formula_units_Z 56
_cell_length_a 11.159048
_cell_length_b 11.159048
_cell_length_c 20.357078
_cell_angle_alpha 90.000000
_cell_angle_beta 90.000000
_cell_angle_gamma 90.000000
_cell_volume 2534.951952
_symmetry_space_group_name_H-M "I 4 2 2 "
_symmetry_group_IT_number 97
_symmetry_cell_setting 'tetragonal'
loop_
_space_group_symop_operation_xyz
x,y,z
-y,x,z
-x,-y,z
y,-x,z
x,-y,-z
-x,y,-z
y,x,-z
-y,-x,-z
1/2+x,1/2+y,1/2+z
1/2-y,1/2+x,1/2+z
1/2-x,1/2-y,1/2+z
1/2+y,1/2-x,1/2+z
1/2+x,1/2-y,1/2-z
1/2-x,1/2+y,1/2-z
1/2+y,1/2+x,1/2-z
1/2-y,1/2-x,1/2-z
loop_
_atom_site_type_symbol
_atom_site_label
_atom_site_fract_x
_atom_site_fract_y
_atom_site_fract_z
Si Si1 0.500000 0.699735 0.000000
Si Si2 0.817150 0.942975 0.876290
Si Si3 0.126870 0.563430 0.886889
Si Si4 0.043046 0.187655 0.278187
O O1 0.381567 0.618434 0.000000
O O2 0.496051 0.784678 0.936504
O O3 0.697909 0.899118 0.912993
O O4 0.790925 0.945746 0.798917
O O5 0.922531 0.852590 0.897112
O O6 0.189006 0.567852 0.815640
O O7 0.000000 0.500000 0.880314
O O8 0.911446 0.141093 0.298654
#
# Coordination Sequence:
#
# PCOD8306184 Si02
#       4
#     8  16  16  16
#     4  11  27  50  72  90 117 167 226 282 336 383
#     4   9  21  40  63  95 135 176 209 254 327 404
#     4  12  25  39  64  99 128 167 217 279 326 384
#     4   9  19  38  63  94 133 175 216 260 322 386
#
# _framework density 22.091146999999999
#
# number of rings (size 3 to 8) (size 9 to 14) (size 15 to 20)
#    0.000    1.857    0.000    4.714    8.000    4.571 
#    0.000    0.000    0.000    0.000    0.000    0.000 
#    0.000    0.000    0.000    0.000    0.000    0.000 
#
# Total GULP energy -347223.045644 kJ/mol
# GULP energy per Si atom -12400.823059 kJ/mol
# Density = 2.204087 g / cm^3
# Si number density = 22.091147 Si / 1000 Ang^3
#
#
#
# Elastic Constant Matrix: (Units=GPa)
#
#
# Indices 1 2 3 4 5 6 
#
# 1 83.3673 117.0898 10.8617 0.0000 0.0000 0.0000
# 2 117.0898 83.3677 10.8613 0.0000 0.0000 0.0000
# 3 10.8617 10.8613 20.8184 0.0000 0.0000 0.0000
# 4 0.0000 0.0000 0.0000 31.1802 0.0000 0.0000
# 5 0.0000 0.0000 0.0000 0.0000 31.1803 0.0000
# 6 0.0000 0.0000 0.0000 0.0000 0.0000 28.6108
#
#
#
# Elastic Compliance Matrix: (Units=1/GPa)
#
#
# Indices 1 2 3 4 5 6 
#
# 1 -0.012183 0.017471 -0.002758 0.000000 0.000000 0.000000
# 2 0.017471 -0.012183 -0.002759 0.000000 0.000000 0.000000
# 3 -0.002758 -0.002759 0.050913 0.000000 0.000000 0.000000
# 4 0.000000 0.000000 0.000000 0.032072 0.000000 0.000000
# 5 0.000000 0.000000 0.000000 0.000000 0.032072 0.000000
# 6 0.000000 0.000000 0.000000 0.000000 0.000000 0.034952
#
#
# Mechanical properties :
#
#
# Convention : Reuss Voigt Hill
#
# Bulk Modulus (GPa) = 19.82024 51.68655 35.75339
# Shear Modulus (GPa) = 42.17541 21.44363 31.80952
#
# Velocity S-wave (km/s) = 4.37413 3.11897 3.79875
# Velocity P-wave (km/s) = 5.87385 6.03476 5.95485
#
# Compressibility (1/GPa) = 0.05045348
#
# Stress axis : x y z
#
# Youngs Moduli (GPa) = -82.07957 -82.08060 19.64135
#
# Poissons Ratio (x) = 1.43401 0.05418
# Poissons Ratio (y) = 1.43399 0.05419
# Poissons Ratio (z) = -0.22640 -0.22646
#
# Static dielectric constant tensor:
#      x y z
#    x 4.141380 0.000000 0.000000 
#    y 0.000000 4.141380 0.000000 
#    z 0.000000 0.000000 3.606960 
# 
# 
# High freq. dielectric constant tensor:
#      x y z
#    x 1.879590 0.000000 0.000000 
#    y 0.000000 1.879590 0.000000 
#    z 0.000000 0.000000 1.842950 
# 
# From -- ./inp_files/6228.got.cif
#   From: 2010.03.12/outbox.cif.g09.slc.cpg/sg97_4_cif.got.tgz:6228.got - 2010.04.08 20:59:42.
