data_PCOD8306176
_publ_section_title
;
Structure prediction by ZEFSAII (Michael W. Deem and Ramdas Pophale) SiO2 
 PCOD8306176
Probable space group: I 4 2 2 
;
_chemical_formula_sum "Si O2"
_cell_formula_units_Z 40
_cell_length_a 7.770954
_cell_length_b 7.770954
_cell_length_c 24.776724
_cell_angle_alpha 90.000000
_cell_angle_beta 90.000000
_cell_angle_gamma 90.000000
_cell_volume 1496.210022
_symmetry_space_group_name_H-M "I 4 2 2 "
_symmetry_group_IT_number 97
_symmetry_cell_setting 'tetragonal'
loop_
_space_group_symop_operation_xyz
x,y,z
-y,x,z
-x,-y,z
y,-x,z
x,-y,-z
-x,y,-z
y,x,-z
-y,-x,-z
1/2+x,1/2+y,1/2+z
1/2-y,1/2+x,1/2+z
1/2-x,1/2-y,1/2+z
1/2+y,1/2-x,1/2+z
1/2+x,1/2-y,1/2-z
1/2-x,1/2+y,1/2-z
1/2+y,1/2+x,1/2-z
1/2-y,1/2-x,1/2-z
loop_
_atom_site_type_symbol
_atom_site_label
_atom_site_fract_x
_atom_site_fract_y
_atom_site_fract_z
Si Si1 0.921929 0.728073 0.586339
Si Si2 0.719422 0.000000 0.000000
Si Si3 0.259279 0.882331 0.806823
O O1 0.895287 0.553477 0.551716
O O2 0.897112 0.678243 0.648804
O O3 0.115650 0.789855 0.572869
O O4 0.832970 0.167030 0.000000
O O5 0.348244 0.848244 0.750000
O O6 0.083979 0.776251 0.813563
#
# Coordination Sequence:
#
# PCOD8306176 Si02
#       3
#    16   8  16
#     4  11  26  48  74 108 151 201 256 316 386 462
#     4  11  26  45  70 102 140 192 250 310 376 450
#     4  11  24  43  71 109 150 194 249 313 383 459
#
# _framework density 26.734211999999999
#
# number of rings (size 3 to 8) (size 9 to 14) (size 15 to 20)
#    0.000    1.000    0.000    4.800    0.000   21.600 
#    0.000    2.000    0.000    0.000    0.000    0.000 
#    0.000    0.000    0.000    0.000    0.000    0.000 
#
# Total GULP energy -247797.968728 kJ/mol
# GULP energy per Si atom -12389.898436 kJ/mol
# Density = 2.667336 g / cm^3
# Si number density = 26.734212 Si / 1000 Ang^3
#
#
#
# Elastic Constant Matrix: (Units=GPa)
#
#
# Indices 1 2 3 4 5 6 
#
# 1 141.7141 82.6963 72.4982 0.0000 0.0000 0.0000
# 2 82.6963 141.7145 72.4987 0.0000 0.0000 0.0000
# 3 72.4982 72.4987 217.6383 0.0000 0.0000 0.0000
# 4 0.0000 0.0000 0.0000 85.9538 0.0000 0.0000
# 5 0.0000 0.0000 0.0000 0.0000 85.9754 0.0000
# 6 0.0000 0.0000 0.0000 0.0000 0.0000 56.0239
#
#
#
# Elastic Compliance Matrix: (Units=1/GPa)
#
#
# Indices 1 2 3 4 5 6 
#
# 1 0.011311 -0.005633 -0.001891 0.000000 0.000000 0.000000
# 2 -0.005633 0.011311 -0.001892 0.000000 0.000000 0.000000
# 3 -0.001891 -0.001892 0.005855 0.000000 0.000000 0.000000
# 4 0.000000 0.000000 0.000000 0.011634 0.000000 0.000000
# 5 0.000000 0.000000 0.000000 0.000000 0.011631 0.000000
# 6 0.000000 0.000000 0.000000 0.000000 0.000000 0.017850
#
#
# Mechanical properties :
#
#
# Convention : Reuss Voigt Hill
#
# Bulk Modulus (GPa) = 103.67592 106.27261 104.97426
# Shear Modulus (GPa) = 54.56190 63.81554 59.18872
#
# Velocity S-wave (km/s) = 4.52254 4.89103 4.71039
# Velocity P-wave (km/s) = 8.13238 8.46960 8.30270
#
# Compressibility (1/GPa) = 0.00964544
#
# Stress axis : x y z
#
# Youngs Moduli (GPa) = 88.40849 88.40856 170.79532
#
# Poissons Ratio (x) = 0.49799 0.32306
# Poissons Ratio (y) = 0.49799 0.32306
# Poissons Ratio (z) = 0.16722 0.16723
#
# Static dielectric constant tensor:
#      x y z
#    x 5.043300 0.000000 0.000000 
#    y 0.000000 5.043270 0.000000 
#    z 0.000000 0.000000 4.738590 
# 
# 
# High freq. dielectric constant tensor:
#      x y z
#    x 2.115130 0.000000 0.000000 
#    y 0.000000 2.115130 0.000000 
#    z 0.000000 0.000000 2.063700 
# 
# From -- ./inp_files/6914.got.cif
#   From: 2010.03.12/outbox.cif.g09.slc.cpg/sg97_4_cif.got.tgz:6914.got - 2010.04.08 20:59:42.
