data_PCOD8306233
_publ_section_title
;
Structure prediction by ZEFSAII (Michael W. Deem and Ramdas Pophale) SiO2 
 PCOD8306233
Probable space group: I 41 2 2
;
_chemical_formula_sum "Si O2"
_cell_formula_units_Z 64
_cell_length_a 22.920727
_cell_length_b 22.920727
_cell_length_c 5.745342
_cell_angle_alpha 90.000000
_cell_angle_beta 90.000000
_cell_angle_gamma 90.000000
_cell_volume 3018.371300
_symmetry_space_group_name_H-M "I 41 2 2"
_symmetry_group_IT_number 98
_symmetry_cell_setting 'tetragonal'
loop_
_space_group_symop_operation_xyz
x,y,z
-y,1/2+x,1/4+z
-x,-y,z
y,1/2-x,1/4+z
x,1/2-y,1/4-z
-x,1/2+y,1/4-z
y,x,-z
-y,-x,-z
1/2+x,1/2+y,1/2+z
1/2-y,x,3/4+z
1/2-x,1/2-y,1/2+z
1/2+y,-x,3/4+z
1/2+x,-y,3/4-z
1/2-x,y,3/4-z
1/2+y,1/2+x,1/2-z
1/2-y,1/2-x,1/2-z
loop_
_atom_site_type_symbol
_atom_site_label
_atom_site_fract_x
_atom_site_fract_y
_atom_site_fract_z
Si Si1 0.870607 0.750000 0.125000
Si Si2 0.333784 0.833784 0.250000
Si Si3 0.450078 0.193596 0.993903
Si Si4 0.661242 0.661242 0.000000
Si Si5 0.351441 0.570056 0.628331
Si Si6 0.627303 0.250000 0.625000
O O1 0.913372 0.707437 0.264234
O O2 0.829728 0.789861 0.295798
O O3 0.335397 0.893396 0.394314
O O4 0.332691 0.775520 0.413505
O O5 0.501498 0.148160 0.935501
O O6 0.477234 0.250000 0.125000
O O7 0.405038 0.165019 0.170660
O O8 0.412170 0.587831 0.500000
O O9 0.301645 0.584336 0.442603
#
# Coordination Sequence:
#
# PCOD8306233 Si02
#       6
#     8   8  16   8  16   8
#     4  10  21  40  68  92 122 164 209 246 306 372
#     4  10  20  34  56  79 118 154 208 254 322 360
#     4  10  20  37  64  91 120 164 211 251 307 375
#     4  10  22  38  66  93 130 158 212 248 306 377
#     4  10  21  36  61  88 118 156 212 263 310 361
#     4  10  19  34  56  80 112 160 205 262 302 376
#
# _framework density 21.203486000000002
#
# number of rings (size 3 to 8) (size 9 to 14) (size 15 to 20)
#    0.000    2.000    0.000    3.750    0.000    6.000 
#    0.000    0.000  198.000   11.250    0.000    0.000 
#    0.000    0.000    0.000    0.000    0.000    0.000 
#
# Total GULP energy -396618.147952 kJ/mol
# GULP energy per Si atom -12394.317124 kJ/mol
# Density = 2.115523 g / cm^3
# Si number density = 21.203486 Si / 1000 Ang^3
#
#
#
# Elastic Constant Matrix: (Units=GPa)
#
#
# Indices 1 2 3 4 5 6 
#
# 1 103.8410 58.0190 41.1619 0.0000 0.0000 0.0000
# 2 58.0190 103.8423 41.1618 0.0000 0.0000 0.0000
# 3 41.1619 41.1618 115.9861 0.0000 0.0000 0.0000
# 4 0.0000 0.0000 0.0000 23.8458 0.0000 0.0000
# 5 0.0000 0.0000 0.0000 0.0000 23.8455 0.0000
# 6 0.0000 0.0000 0.0000 0.0000 0.0000 30.6145
#
#
#
# Elastic Compliance Matrix: (Units=1/GPa)
#
#
# Indices 1 2 3 4 5 6 
#
# 1 0.014681 -0.007142 -0.002675 0.000000 0.000000 0.000000
# 2 -0.007142 0.014681 -0.002675 0.000000 0.000000 0.000000
# 3 -0.002675 -0.002675 0.010521 0.000000 0.000000 0.000000
# 4 0.000000 0.000000 0.000000 0.041936 0.000000 0.000000
# 5 0.000000 0.000000 0.000000 0.000000 0.041937 0.000000
# 6 0.000000 0.000000 0.000000 0.000000 0.000000 0.032664
#
#
# Mechanical properties :
#
#
# Convention : Reuss Voigt Hill
#
# Bulk Modulus (GPa) = 67.12898 67.15051 67.13974
# Shear Modulus (GPa) = 26.82815 27.88297 27.35556
#
# Velocity S-wave (km/s) = 3.56092 3.63025 3.59575
# Velocity P-wave (km/s) = 6.97388 7.02210 6.99804
#
# Compressibility (1/GPa) = 0.01489670
#
# Stress axis : x y z
#
# Youngs Moduli (GPa) = 68.11433 68.11539 95.05090
#
# Poissons Ratio (x) = 0.48649 0.25431
# Poissons Ratio (y) = 0.48648 0.25430
# Poissons Ratio (z) = 0.18224 0.18224
#
# Static dielectric constant tensor:
#      x y z
#    x 3.673190 0.000000 0.000000 
#    y 0.000000 3.673180 0.000000 
#    z 0.000000 0.000000 4.483400 
# 
# 
# High freq. dielectric constant tensor:
#      x y z
#    x 1.808260 0.000000 0.000000 
#    y 0.000000 1.808260 0.000000 
#    z 0.000000 0.000000 1.857500 
# 
# From -- ./inp_files/1476.got.cif
#   From: 2010.03.12/outbox.cif.g09.slc.cpg/sg98_1_cif.got.tgz:1476.got - 2010.04.08 21:04:41.
