data_PCOD8306682
_publ_section_title
;
Structure prediction by ZEFSAII (Michael W. Deem and Ramdas Pophale) SiO2 
 PCOD8306682
Probable space group: P 4 B M
;
_chemical_formula_sum "Si O2"
_cell_formula_units_Z 48
_cell_length_a 13.576889
_cell_length_b 13.576889
_cell_length_c 11.712005
_cell_angle_alpha 90.000000
_cell_angle_beta 90.000000
_cell_angle_gamma 90.000000
_cell_volume 2158.896309
_symmetry_space_group_name_H-M "P 4 B M"
_symmetry_group_IT_number 100
_symmetry_cell_setting 'tetragonal'
loop_
_space_group_symop_operation_xyz
x,y,z
-y,x,z
-x,-y,z
y,-x,z
1/2-x,1/2+y,z
1/2+x,1/2-y,z
1/2-y,1/2-x,z
1/2+y,1/2+x,z
loop_
_atom_site_type_symbol
_atom_site_label
_atom_site_fract_x
_atom_site_fract_y
_atom_site_fract_z
Si Si1 0.706266 0.048451 0.795670
Si Si2 0.137327 0.915872 0.380605
Si Si3 0.581884 0.918117 0.380048
Si Si4 0.001883 0.164856 0.008812
Si Si5 0.418117 0.081884 0.637576
Si Si6 0.206266 0.451550 0.221953
Si Si7 0.915872 0.862673 0.637017
O O1 0.613705 0.113705 0.838944
O O2 0.763190 0.999866 0.900714
O O3 0.780272 0.121144 0.725739
O O4 0.672763 0.962069 0.709128
O O5 0.131862 0.032875 0.356927
O O6 0.219729 0.878857 0.291883
O O7 0.172803 0.894303 0.508811
O O8 0.615673 0.884328 0.508812
O O9 0.537931 0.827237 0.308497
O O10 0.500000 0.000000 0.395536
O O11 0.903737 0.098693 0.008812
O O12 0.999865 0.236811 0.116909
O O13 0.500000 0.000000 0.622090
O O14 0.113704 0.386297 0.178679
O O15 0.032875 0.868138 0.660694
#
# Coordination Sequence:
#
# PCOD8306682 Si02
#       7
#     8   8   4   8   4   8   8
#     4  11  22  39  62  92 127 163 209 262 314 375
#     4   9  18  35  58  84 120 166 211 257 316 378
#     4   9  20  39  63  91 131 176 203 239 315 390
#     4  11  25  47  68  87 122 171 216 263 321 378
#     4   9  20  39  63  91 131 176 203 239 315 390
#     4  11  22  39  62  92 127 163 209 262 314 375
#     4   9  18  35  58  84 120 166 211 257 316 378
#
# _framework density 22.233581999999998
#
# number of rings (size 3 to 8) (size 9 to 14) (size 15 to 20)
#    0.000    2.000    0.000    4.500    0.000    5.333 
#   15.000    2.500    0.000    0.000    0.000    0.000 
#    0.000    0.000    0.000    0.000    0.000    0.000 
#
# Total GULP energy -594976.720649 kJ/mol
# GULP energy per Si atom -12395.348347 kJ/mol
# Density = 2.218298 g / cm^3
# Si number density = 22.233582 Si / 1000 Ang^3
#
#
#
# Elastic Constant Matrix: (Units=GPa)
#
#
# Indices 1 2 3 4 5 6 
#
# 1 86.1313 10.6129 47.2907 0.0000 0.0000 0.0003
# 2 10.6129 86.1313 47.2907 0.0000 0.0000 -0.0003
# 3 47.2907 47.2907 158.1880 0.0000 0.0000 0.0000
# 4 0.0000 0.0000 0.0000 30.7598 0.0000 0.0000
# 5 0.0000 0.0000 0.0000 0.0000 30.7598 0.0000
# 6 0.0003 -0.0003 0.0000 0.0000 0.0000 22.7812
#
#
#
# Elastic Compliance Matrix: (Units=1/GPa)
#
#
# Indices 1 2 3 4 5 6 
#
# 1 0.013923 0.000682 -0.004366 0.000000 0.000000 0.000000
# 2 0.000682 0.013923 -0.004366 0.000000 0.000000 0.000000
# 3 -0.004366 -0.004366 0.008932 0.000000 0.000000 0.000000
# 4 0.000000 0.000000 0.000000 0.032510 0.000000 0.000000
# 5 0.000000 0.000000 0.000000 0.000000 0.032510 0.000000
# 6 0.000000 0.000000 0.000000 0.000000 0.000000 0.043896
#
#
# Mechanical properties :
#
#
# Convention : Reuss Voigt Hill
#
# Bulk Modulus (GPa) = 48.36165 60.09323 54.22744
# Shear Modulus (GPa) = 29.64033 31.87726 30.75880
#
# Velocity S-wave (km/s) = 3.65517 3.79059 3.72350
# Velocity P-wave (km/s) = 6.29385 6.80036 6.55200
#
# Compressibility (1/GPa) = 0.02067754
#
# Stress axis : x y z
#
# Youngs Moduli (GPa) = 71.82109 71.82109 111.95463
#
# Poissons Ratio (x) = -0.04896 0.48882
# Poissons Ratio (y) = -0.04896 0.48882
# Poissons Ratio (z) = 0.31359 0.31359
#
# Static dielectric constant tensor:
#      x y z
#    x 3.897820 0.000000 0.000000 
#    y 0.000000 3.897820 0.000000 
#    z 0.000000 0.000000 4.174720 
# 
# 
# High freq. dielectric constant tensor:
#      x y z
#    x 1.865070 0.000000 0.000000 
#    y 0.000000 1.865070 0.000000 
#    z 0.000000 0.000000 1.883310 
# 
# From -- ./inp_files/1280.got.cif
#   From: 2010.03.12/outbox.cif.g09.slc.cpg/sg100_cif.got.tgz:1280.got - 2010.04.14 01:37:57.
