data_PCOD8306506
_publ_section_title
;
Structure prediction by ZEFSAII (Michael W. Deem and Ramdas Pophale) SiO2 
 PCOD8306506
Probable space group: P 4 M M
;
_chemical_formula_sum "Si O2"
_cell_formula_units_Z 64
_cell_length_a 13.365417
_cell_length_b 13.365417
_cell_length_c 20.678783
_cell_angle_alpha 90.000000
_cell_angle_beta 90.000000
_cell_angle_gamma 90.000000
_cell_volume 3693.941406
_symmetry_space_group_name_H-M "P 4 M M"
_symmetry_group_IT_number 99
_symmetry_cell_setting 'tetragonal'
loop_
_space_group_symop_operation_xyz
x,y,z
-y,x,z
-x,-y,z
y,-x,z
-x,y,z
x,-y,z
-y,-x,z
y,x,z
loop_
_atom_site_type_symbol
_atom_site_label
_atom_site_fract_x
_atom_site_fract_y
_atom_site_fract_z
Si Si1 0.381441 0.111312 0.329770
Si Si2 0.381441 0.888688 0.073103
Si Si3 0.279355 0.117283 0.831010
Si Si4 0.618015 0.776847 0.201436
Si Si5 0.611684 0.881511 0.701436
Si Si6 0.117283 0.279355 0.571863
Si Si7 0.382640 0.778772 0.944140
Si Si8 0.778772 0.382640 0.458733
O O1 0.500000 0.103736 0.329785
O O2 0.344556 0.162612 0.263960
O O3 0.345506 0.175405 0.390945
O O4 0.334920 0.000000 0.333803
O O5 0.500000 0.896264 0.073088
O O6 0.344556 0.837388 0.138913
O O7 0.334920 0.000000 0.069070
O O8 0.345506 0.824595 0.011928
O O9 0.175073 0.175073 0.841445
O O10 0.329351 0.154934 0.764626
O O11 0.356648 0.141527 0.888442
O O12 0.255313 0.000000 0.829972
O O13 0.500000 0.759047 0.201437
O O14 0.667894 0.667894 0.201436
O O15 0.500000 0.834746 0.701436
O O16 0.670649 0.845066 0.638247
O O17 0.603310 0.000000 0.701436
O O18 0.175073 0.175073 0.561428
O O19 0.141527 0.356648 0.514431
O O20 0.000000 0.255313 0.572901
O O21 0.500000 0.755660 0.943848
O O22 0.325370 0.674631 0.931986
O O23 0.755660 0.500000 0.459025
O O24 0.674631 0.325370 0.470887
#
# Coordination Sequence:
#
# PCOD8306506 Si02
#       8
#     8   8   8   8   8   8   8   8
#     4   9  17  30  48  68  91 121 157 198 242 284
#     4   9  17  30  48  68  91 121 157 198 242 284
#     4  10  20  33  50  73 100 131 168 208 251 297
#     4  10  19  30  45  67  96 128 161 197 240 291
#     4   9  17  30  49  71  95 125 161 201 244 289
#     4  10  20  33  50  73 100 131 168 208 251 297
#     4  10  20  33  50  73 100 130 164 201 243 294
#     4  10  20  33  50  73 100 130 164 201 243 294
#
# _framework density 17.325666999999999
#
# number of rings (size 3 to 8) (size 9 to 14) (size 15 to 20)
#    0.000    2.375    0.000    3.000    0.000    4.625 
#    0.000    0.000    0.000    6.750    0.000    0.000 
#    0.000   28.000    0.000    0.000    0.000    0.000 
#
# Total GULP energy -793669.932211 kJ/mol
# GULP energy per Si atom -12401.092691 kJ/mol
# Density = 1.728623 g / cm^3
# Si number density = 17.325667 Si / 1000 Ang^3
#
#
#
# Elastic Constant Matrix: (Units=GPa)
#
#
# Indices 1 2 3 4 5 6 
#
# 1 82.1178 38.8375 33.8205 0.0000 0.0000 0.0000
# 2 38.8375 82.1178 33.8205 0.0000 0.0000 0.0000
# 3 33.8205 33.8205 145.1742 0.0000 0.0000 0.0000
# 4 0.0000 0.0000 0.0000 24.3276 0.0000 0.0000
# 5 0.0000 0.0000 0.0000 0.0000 24.3276 0.0000
# 6 0.0000 0.0000 0.0000 0.0000 0.0000 16.0498
#
#
#
# Elastic Compliance Matrix: (Units=1/GPa)
#
#
# Indices 1 2 3 4 5 6 
#
# 1 0.016306 -0.006800 -0.002215 0.000000 0.000000 0.000000
# 2 -0.006800 0.016306 -0.002215 0.000000 0.000000 0.000000
# 3 -0.002215 -0.002215 0.007920 0.000000 0.000000 0.000000
# 4 0.000000 0.000000 0.000000 0.041106 0.000000 0.000000
# 5 0.000000 0.000000 0.000000 0.000000 0.041106 0.000000
# 6 0.000000 0.000000 0.000000 0.000000 0.000000 0.062306
#
#
# Mechanical properties :
#
#
# Convention : Reuss Voigt Hill
#
# Bulk Modulus (GPa) = 55.32873 58.04073 56.68473
# Shear Modulus (GPa) = 23.41585 26.46974 24.94280
#
# Velocity S-wave (km/s) = 3.68028 3.91292 3.79838
# Velocity P-wave (km/s) = 7.07553 7.34760 7.21285
#
# Compressibility (1/GPa) = 0.01807379
#
# Stress axis : x y z
#
# Youngs Moduli (GPa) = 61.32867 61.32867 126.26101
#
# Poissons Ratio (x) = 0.41701 0.27961
# Poissons Ratio (y) = 0.41701 0.27961
# Poissons Ratio (z) = 0.13582 0.13582
#
# Static dielectric constant tensor:
#      x y z
#    x 3.028860 0.000000 0.000000 
#    y 0.000000 3.028860 0.000000 
#    z 0.000000 0.000000 3.521640 
# 
# 
# High freq. dielectric constant tensor:
#      x y z
#    x 1.651780 0.000000 0.000000 
#    y 0.000000 1.651780 0.000000 
#    z 0.000000 0.000000 1.691370 
# 
# From -- ./inp_files/2310.got.cif
#   From: 2010.03.12/outbox.cif.g09.slc.cpg/sg99_cif.got.tgz:2310.got - 2010.04.08 21:11:30.
