data_PCOD8306090
_publ_section_title
;
Structure prediction by ZEFSAII (Michael W. Deem and Ramdas Pophale) SiO2 
 PCOD8306090
Probable space group: I 4 2 2 
;
_chemical_formula_sum "Si O2"
_cell_formula_units_Z 48
_cell_length_a 12.417101
_cell_length_b 12.417101
_cell_length_c 13.552726
_cell_angle_alpha 90.000000
_cell_angle_beta 90.000000
_cell_angle_gamma 90.000000
_cell_volume 2089.618889
_symmetry_space_group_name_H-M "I 4 2 2 "
_symmetry_group_IT_number 97
_symmetry_cell_setting 'tetragonal'
loop_
_space_group_symop_operation_xyz
x,y,z
-y,x,z
-x,-y,z
y,-x,z
x,-y,-z
-x,y,-z
y,x,-z
-y,-x,-z
1/2+x,1/2+y,1/2+z
1/2-y,1/2+x,1/2+z
1/2-x,1/2-y,1/2+z
1/2+y,1/2-x,1/2+z
1/2+x,1/2-y,1/2-z
1/2-x,1/2+y,1/2-z
1/2+y,1/2+x,1/2-z
1/2-y,1/2-x,1/2-z
loop_
_atom_site_type_symbol
_atom_site_label
_atom_site_fract_x
_atom_site_fract_y
_atom_site_fract_z
Si Si1 0.670132 0.283763 0.109374
Si Si2 0.799486 0.467056 0.190833
Si Si3 0.451744 0.125057 0.606403
O O1 0.760400 0.347201 0.170162
O O2 0.552204 0.294702 0.161624
O O3 0.699659 0.156509 0.111879
O O4 0.666772 0.333229 0.000000
O O5 0.833655 0.470461 0.305702
O O6 0.906555 0.500220 0.123535
O O7 0.500000 0.143534 0.500000
#
# Coordination Sequence:
#
# PCOD8306090 Si02
#       3
#    16  16  16
#     4  10  20  39  69  98 144 191 242 292 365 428
#     4   9  21  40  65 107 139 184 246 291 363 434
#     4   9  21  40  67 105 143 187 236 301 367 431
#
# _framework density 22.970697000000001
#
# number of rings (size 3 to 8) (size 9 to 14) (size 15 to 20)
#    2.000    0.667    0.000    1.000    0.000    6.000 
#    0.000    5.000    0.000    8.000    0.000    2.333 
#    0.000    0.000    0.000    0.000    0.000    0.000 
#
# Total GULP energy -297445.830864 kJ/mol
# GULP energy per Si atom -12393.576286 kJ/mol
# Density = 2.291841 g / cm^3
# Si number density = 22.970697 Si / 1000 Ang^3
#
#
#
# Elastic Constant Matrix: (Units=GPa)
#
#
# Indices 1 2 3 4 5 6 
#
# 1 120.4670 71.4269 67.9845 0.0000 0.0000 0.0000
# 2 71.4269 120.4673 67.9847 0.0000 0.0000 0.0000
# 3 67.9845 67.9847 196.6495 0.0000 0.0000 0.0000
# 4 0.0000 0.0000 0.0000 41.2738 0.0000 0.0000
# 5 0.0000 0.0000 0.0000 0.0000 41.2740 0.0000
# 6 0.0000 0.0000 0.0000 0.0000 0.0000 14.3880
#
#
#
# Elastic Compliance Matrix: (Units=1/GPa)
#
#
# Indices 1 2 3 4 5 6 
#
# 1 0.013647 -0.006745 -0.002386 0.000000 0.000000 0.000000
# 2 -0.006745 0.013647 -0.002386 0.000000 0.000000 0.000000
# 3 -0.002386 -0.002386 0.006735 0.000000 0.000000 0.000000
# 4 0.000000 0.000000 0.000000 0.024228 0.000000 0.000000
# 5 0.000000 0.000000 0.000000 0.000000 0.024228 0.000000
# 6 0.000000 0.000000 0.000000 0.000000 0.000000 0.069502
#
#
# Mechanical properties :
#
#
# Convention : Reuss Voigt Hill
#
# Bulk Modulus (GPa) = 90.95496 94.70846 92.83171
# Shear Modulus (GPa) = 27.98205 34.73300 31.35752
#
# Velocity S-wave (km/s) = 3.49401 3.89274 3.69875
# Velocity P-wave (km/s) = 7.48061 7.84373 7.66432
#
# Compressibility (1/GPa) = 0.01099445
#
# Stress axis : x y z
#
# Youngs Moduli (GPa) = 73.27791 73.27803 148.47806
#
# Poissons Ratio (x) = 0.49424 0.35428
# Poissons Ratio (y) = 0.49424 0.35428
# Poissons Ratio (z) = 0.17485 0.17485
#
# Static dielectric constant tensor:
#      x y z
#    x 4.215550 0.000000 0.000000 
#    y 0.000000 4.215550 0.000000 
#    z 0.000000 0.000000 4.098560 
# 
# 
# High freq. dielectric constant tensor:
#      x y z
#    x 1.902920 0.000000 0.000000 
#    y 0.000000 1.902920 0.000000 
#    z 0.000000 0.000000 1.922660 
# 
# From -- ./inp_files/3127.got.cif
#   From: 2010.03.12/outbox.cif.g09.slc.cpg/sg97_2_cif.got.tgz:3127.got - 2010.04.08 20:59:42.
