data_PCOD8306268
_publ_section_title
;
Structure prediction by ZEFSAII (Michael W. Deem and Ramdas Pophale) SiO2 
 PCOD8306268
Probable space group: I 41 2 2
;
_chemical_formula_sum "Si O2"
_cell_formula_units_Z 112
_cell_length_a 17.202440
_cell_length_b 17.202440
_cell_length_c 20.745307
_cell_angle_alpha 90.000000
_cell_angle_beta 90.000000
_cell_angle_gamma 90.000000
_cell_volume 6139.033024
_symmetry_space_group_name_H-M "I 41 2 2"
_symmetry_group_IT_number 98
_symmetry_cell_setting 'tetragonal'
loop_
_space_group_symop_operation_xyz
x,y,z
-y,1/2+x,1/4+z
-x,-y,z
y,1/2-x,1/4+z
x,1/2-y,1/4-z
-x,1/2+y,1/4-z
y,x,-z
-y,-x,-z
1/2+x,1/2+y,1/2+z
1/2-y,x,3/4+z
1/2-x,1/2-y,1/2+z
1/2+y,-x,3/4+z
1/2+x,-y,3/4-z
1/2-x,y,3/4-z
1/2+y,1/2+x,1/2-z
1/2-y,1/2-x,1/2-z
loop_
_atom_site_type_symbol
_atom_site_label
_atom_site_fract_x
_atom_site_fract_y
_atom_site_fract_z
Si Si1 0.600538 0.372541 0.268270
Si Si2 0.312688 0.999621 0.059976
Si Si3 0.533078 0.916840 0.069008
Si Si4 0.527761 0.846409 0.754440
Si Si5 0.056355 0.931962 0.102163
Si Si6 0.205368 0.927310 0.556727
Si Si7 0.324799 0.945006 0.331928
O O1 0.656879 0.415668 0.216927
O O2 0.511369 0.378078 0.242025
O O3 0.611569 0.416133 0.334881
O O4 0.621108 0.282972 0.285270
O O5 0.375700 0.069517 0.056372
O O6 0.282188 0.986126 0.133327
O O7 0.245249 0.035226 0.015208
O O8 0.516448 0.867534 0.133150
O O9 0.500000 0.000000 0.085690
O O10 0.611831 0.888170 0.750000
O O11 0.472816 0.875957 0.811876
O O12 0.485118 0.864408 0.687813
O O13 0.000000 0.000000 0.124481
O O14 0.136053 0.870804 0.577400
O O15 0.187608 0.975458 0.491071
O O16 0.250000 0.924586 0.375000
#
# Coordination Sequence:
#
# PCOD8306268 Si02
#       7
#    16  16  16  16  16  16  16
#     4  11  20  36  57  86 117 152 190 235 294 352
#     4  11  21  37  57  89 114 152 200 239 295 335
#     4  10  20  37  59  84 113 147 198 248 272 353
#     4   9  19  35  57  85 115 150 195 243 280 342
#     4   9  17  33  57  81 110 150 192 232 282 337
#     4  11  21  35  60  84 116 152 182 239 294 351
#     4  11  21  39  57  85 119 151 191 229 299 346
#
# _framework density 18.243915999999999
#
# number of rings (size 3 to 8) (size 9 to 14) (size 15 to 20)
#    0.000    1.714    5.714    2.143    0.000    1.143 
#    2.571    1.429    0.000    1.714    0.000    0.000 
#    0.000    0.000    0.000    0.000    0.000    0.000 
#
# Total GULP energy -693767.073180 kJ/mol
# GULP energy per Si atom -12388.697735 kJ/mol
# Density = 1.820239 g / cm^3
# Si number density = 18.243916 Si / 1000 Ang^3
#
#
#
# Elastic Constant Matrix: (Units=GPa)
#
#
# Indices 1 2 3 4 5 6 
#
# 1 97.1137 39.0453 32.7410 0.0000 0.0000 0.0000
# 2 39.0453 97.1141 32.7424 0.0000 0.0000 0.0000
# 3 32.7410 32.7424 110.3277 0.0000 0.0000 0.0000
# 4 0.0000 0.0000 0.0000 21.8147 0.0000 0.0000
# 5 0.0000 0.0000 0.0000 0.0000 21.8145 0.0000
# 6 0.0000 0.0000 0.0000 0.0000 0.0000 9.6733
#
#
#
# Elastic Compliance Matrix: (Units=1/GPa)
#
#
# Indices 1 2 3 4 5 6 
#
# 1 0.012894 -0.004327 -0.002542 0.000000 0.000000 0.000000
# 2 -0.004327 0.012894 -0.002543 0.000000 0.000000 0.000000
# 3 -0.002542 -0.002543 0.010573 0.000000 0.000000 0.000000
# 4 0.000000 0.000000 0.000000 0.045841 0.000000 0.000000
# 5 0.000000 0.000000 0.000000 0.000000 0.045841 0.000000
# 6 0.000000 0.000000 0.000000 0.000000 0.000000 0.103377
#
#
# Mechanical properties :
#
#
# Convention : Reuss Voigt Hill
#
# Bulk Modulus (GPa) = 57.02110 57.06809 57.04460
# Shear Modulus (GPa) = 19.52446 23.99563 21.76004
#
# Velocity S-wave (km/s) = 3.27492 3.63060 3.45734
# Velocity P-wave (km/s) = 6.75447 6.99453 6.87555
#
# Compressibility (1/GPa) = 0.01753737
#
# Stress axis : x y z
#
# Youngs Moduli (GPa) = 77.55541 77.55494 94.58119
#
# Poissons Ratio (x) = 0.33558 0.24045
# Poissons Ratio (y) = 0.33558 0.24048
# Poissons Ratio (z) = 0.19717 0.19719
#
# Static dielectric constant tensor:
#      x y z
#    x 3.468350 0.000000 0.000000 
#    y 0.000000 3.468350 0.000000 
#    z 0.000000 0.000000 3.703560 
# 
# 
# High freq. dielectric constant tensor:
#      x y z
#    x 1.682770 0.000000 0.000000 
#    y 0.000000 1.682770 0.000000 
#    z 0.000000 0.000000 1.730850 
# 
# From -- ./inp_files/9093.got.cif
#   From: 2010.03.12/outbox.cif.g09.slc.cpg/sg98_5_cif.got.tgz:9093.got - 2010.04.08 21:04:41.
