data_PCOD8306399
_publ_section_title
;
Structure prediction by ZEFSAII (Michael W. Deem and Ramdas Pophale) SiO2 
 PCOD8306399
Probable space group: I 41 2 2
;
_chemical_formula_sum "Si O2"
_cell_formula_units_Z 52
_cell_length_a 20.670606
_cell_length_b 20.670606
_cell_length_c 5.001906
_cell_angle_alpha 90.000000
_cell_angle_beta 90.000000
_cell_angle_gamma 90.000000
_cell_volume 2137.184146
_symmetry_space_group_name_H-M "I 41 2 2"
_symmetry_group_IT_number 98
_symmetry_cell_setting 'tetragonal'
loop_
_space_group_symop_operation_xyz
x,y,z
-y,1/2+x,1/4+z
-x,-y,z
y,1/2-x,1/4+z
x,1/2-y,1/4-z
-x,1/2+y,1/4-z
y,x,-z
-y,-x,-z
1/2+x,1/2+y,1/2+z
1/2-y,x,3/4+z
1/2-x,1/2-y,1/2+z
1/2+y,-x,3/4+z
1/2+x,-y,3/4-z
1/2-x,y,3/4-z
1/2+y,1/2+x,1/2-z
1/2-y,1/2-x,1/2-z
loop_
_atom_site_type_symbol
_atom_site_label
_atom_site_fract_x
_atom_site_fract_y
_atom_site_fract_z
Si Si1 0.073311 0.750000 0.125000
Si Si2 0.321214 0.178787 0.250000
Si Si3 0.151893 0.750000 0.625000
Si Si4 0.979112 0.116733 0.122032
Si Si5 0.116589 0.383412 0.250000
Si Si6 0.000000 0.000000 0.500000
O O1 0.111786 0.720972 0.378425
O O2 0.034613 0.811754 0.239793
O O3 0.250000 0.169060 0.375000
O O4 0.368783 0.163305 0.497287
O O5 0.192975 0.692975 0.750000
O O6 0.040381 0.126199 0.921450
O O7 0.914156 0.085845 0.000000
O O8 0.003464 0.066723 0.341758
#
# Coordination Sequence:
#
# PCOD8306399 Si02
#       6
#     8   8   8  16   8   4
#     4  12  31  44  84 116 156 203 286 334 394 498
#     4  12  28  50  81 115 168 219 267 342 423 495
#     4  12  25  50  72 110 160 213 252 330 410 486
#     4  12  27  51  78 119 161 217 267 348 410 494
#     4  12  26  48  80 116 158 211 285 328 414 502
#     4  12  24  52  84 108 172 218 270 322 452 484
#
# _framework density 24.331081999999999
#
# number of rings (size 3 to 8) (size 9 to 14) (size 15 to 20)
#    0.000    0.000    3.077    6.462   10.769    0.000 
#    0.000    0.000    0.000    0.000    0.000    0.000 
#    0.000    0.000    0.000    0.000    0.000    0.000 
#
# Total GULP energy -322136.660519 kJ/mol
# GULP energy per Si atom -12389.871558 kJ/mol
# Density = 2.427570 g / cm^3
# Si number density = 24.331082 Si / 1000 Ang^3
#
#
#
# Elastic Constant Matrix: (Units=GPa)
#
#
# Indices 1 2 3 4 5 6 
#
# 1 175.0705 73.5671 55.4034 0.0000 0.0000 0.0000
# 2 73.5671 175.0713 55.4034 0.0000 0.0000 0.0000
# 3 55.4034 55.4034 144.9208 0.0000 0.0000 0.0000
# 4 0.0000 0.0000 0.0000 80.7504 0.0000 0.0000
# 5 0.0000 0.0000 0.0000 0.0000 80.7440 0.0000
# 6 0.0000 0.0000 0.0000 0.0000 0.0000 23.0274
#
#
#
# Elastic Compliance Matrix: (Units=1/GPa)
#
#
# Indices 1 2 3 4 5 6 
#
# 1 0.007350 -0.002502 -0.001853 0.000000 0.000000 0.000000
# 2 -0.002502 0.007350 -0.001853 0.000000 0.000000 0.000000
# 3 -0.001853 -0.001853 0.008317 0.000000 0.000000 0.000000
# 4 0.000000 0.000000 0.000000 0.012384 0.000000 0.000000
# 5 0.000000 0.000000 0.000000 0.000000 0.012385 0.000000
# 6 0.000000 0.000000 0.000000 0.000000 0.000000 0.043427
#
#
# Mechanical properties :
#
#
# Convention : Reuss Voigt Hill
#
# Bulk Modulus (GPa) = 94.34192 95.97894 95.16043
# Shear Modulus (GPa) = 46.65794 57.61694 52.13744
#
# Velocity S-wave (km/s) = 4.38382 4.87153 4.63410
# Velocity P-wave (km/s) = 8.03009 8.43653 8.23582
#
# Compressibility (1/GPa) = 0.01059974
#
# Stress axis : x y z
#
# Youngs Moduli (GPa) = 136.05679 136.05738 120.23002
#
# Poissons Ratio (x) = 0.34041 0.22283
# Poissons Ratio (y) = 0.34041 0.22283
# Poissons Ratio (z) = 0.25216 0.25216
#
# Static dielectric constant tensor:
#      x y z
#    x 4.331880 0.000000 0.000000 
#    y 0.000000 4.331890 0.000000 
#    z 0.000000 0.000000 4.533060 
# 
# 
# High freq. dielectric constant tensor:
#      x y z
#    x 1.979230 0.000000 0.000000 
#    y 0.000000 1.979230 0.000000 
#    z 0.000000 0.000000 1.957530 
# 
# From -- ./inp_files/1069.got.cif
#   From: 2010.03.12/outbox.cif.g09.slc.cpg/sg98_1_cif.got.tgz:1069.got - 2010.04.08 21:04:41.
