data_PCOD8306907
_publ_section_title
;
Structure prediction by ZEFSAII (Michael W. Deem and Ramdas Pophale) SiO2 
 PCOD8306907
Probable space group: P 42 N M
;
_chemical_formula_sum "Si O2"
_cell_formula_units_Z 64
_cell_length_a 10.729852
_cell_length_b 10.729852
_cell_length_c 27.917106
_cell_angle_alpha 90.000000
_cell_angle_beta 90.000000
_cell_angle_gamma 90.000000
_cell_volume 3214.088707
_symmetry_space_group_name_H-M "P 42 N M"
_symmetry_group_IT_number 102
_symmetry_cell_setting 'tetragonal'
loop_
_space_group_symop_operation_xyz
x,y,z
1/2-y,1/2+x,1/2+z
-x,-y,z
1/2+y,1/2-x,1/2+z
1/2-x,1/2+y,1/2+z
1/2+x,1/2-y,1/2+z
-y,-x,z
y,x,z
loop_
_atom_site_type_symbol
_atom_site_label
_atom_site_fract_x
_atom_site_fract_y
_atom_site_fract_z
Si Si1 0.201007 0.002595 0.353140
Si Si2 0.448941 0.258161 0.092642
Si Si3 0.888906 0.303077 0.090931
Si Si4 0.593656 0.114072 0.773766
Si Si5 0.066918 0.369124 0.167104
Si Si6 0.390400 0.809997 0.518646
Si Si7 0.867522 0.660081 0.912230
Si Si8 0.001077 0.800697 0.833480
O O1 0.117654 0.882347 0.338894
O O2 0.300938 0.966612 0.394119
O O3 0.272711 0.049083 0.306454
O O4 0.113567 0.113567 0.373034
O O5 0.405644 0.405644 0.096364
O O6 0.594340 0.222709 0.096457
O O7 0.373725 0.190603 0.135282
O O8 0.403117 0.210528 0.041012
O O9 0.827299 0.172702 0.078825
O O10 0.965504 0.282426 0.140321
O O11 0.982141 0.329937 0.047549
O O12 0.601089 0.173767 0.720665
O O13 0.729194 0.060041 0.788135
O O14 0.500000 0.000000 0.776894
O O15 0.000000 0.500000 0.169114
O O16 0.331147 0.668854 0.519614
O O17 0.422910 0.857254 0.465104
O O18 0.768950 0.768950 0.915136
O O19 0.975581 0.699479 0.875035
O O20 0.101103 0.898898 0.853744
O O21 0.874502 0.874502 0.817966
#
# Coordination Sequence:
#
# PCOD8306907 Si02
#       8
#     8   8   8   8   8   8   8   8
#     4  10  21  37  56  81 116 153 194 243 287 340
#     4   9  18  36  57  78 108 150 190 226 276 334
#     4  10  20  36  56  87 122 145 181 240 291 347
#     4  11  20  35  59  84 113 156 197 237 295 350
#     4   8  18  35  56  79 107 147 192 232 277 338
#     4   9  18  35  61  82 105 147 189 233 288 347
#     4   9  18  36  59  83 112 150 194 240 296 345
#     4  10  21  37  56  81 115 150 193 249 295 339
#
# _framework density 19.912330000000001
#
# number of rings (size 3 to 8) (size 9 to 14) (size 15 to 20)
#    0.000    2.500    1.250    1.500    0.000    2.500 
#    4.500    6.875    0.000    2.250    0.000    0.000 
#    0.000    0.000    0.000    0.000    0.000    0.000 
#
# Total GULP energy -792966.606862 kJ/mol
# GULP energy per Si atom -12390.103232 kJ/mol
# Density = 1.986701 g / cm^3
# Si number density = 19.912330 Si / 1000 Ang^3
#
#
#
# Elastic Constant Matrix: (Units=GPa)
#
#
# Indices 1 2 3 4 5 6 
#
# 1 72.4782 42.8670 41.8547 0.0000 0.0000 0.0002
# 2 42.8670 72.4782 41.8547 0.0000 0.0000 -0.0002
# 3 41.8547 41.8547 143.1823 0.0000 0.0000 0.0000
# 4 0.0000 0.0000 0.0000 8.7052 0.0000 0.0000
# 5 0.0000 0.0000 0.0000 0.0000 8.7052 0.0000
# 6 0.0002 -0.0002 0.0000 0.0000 0.0000 37.0568
#
#
#
# Elastic Compliance Matrix: (Units=1/GPa)
#
#
# Indices 1 2 3 4 5 6 
#
# 1 0.022388 -0.011383 -0.003217 0.000000 0.000000 0.000000
# 2 -0.011383 0.022388 -0.003217 0.000000 0.000000 0.000000
# 3 -0.003217 -0.003217 0.008865 0.000000 0.000000 0.000000
# 4 0.000000 0.000000 0.000000 0.114874 0.000000 0.000000
# 5 0.000000 0.000000 0.000000 0.000000 0.114874 0.000000
# 6 0.000000 0.000000 0.000000 0.000000 0.000000 0.026986
#
#
# Mechanical properties :
#
#
# Convention : Reuss Voigt Hill
#
# Bulk Modulus (GPa) = 55.53676 60.14351 57.84014
# Shear Modulus (GPa) = 14.20418 21.66426 17.93422
#
# Velocity S-wave (km/s) = 2.67373 3.30204 3.00435
# Velocity P-wave (km/s) = 6.12233 6.69385 6.41446
#
# Compressibility (1/GPa) = 0.01800609
#
# Stress axis : x y z
#
# Youngs Moduli (GPa) = 44.66772 44.66772 112.80706
#
# Poissons Ratio (x) = 0.50847 0.36286
# Poissons Ratio (y) = 0.50847 0.36286
# Poissons Ratio (z) = 0.14368 0.14368
#
# Static dielectric constant tensor:
#      x y z
#    x 3.628930 0.000000 0.000000 
#    y 0.000000 3.628930 0.000000 
#    z 0.000000 0.000000 3.972550 
# 
# 
# High freq. dielectric constant tensor:
#      x y z
#    x 1.770730 0.000000 0.000000 
#    y 0.000000 1.770730 0.000000 
#    z 0.000000 0.000000 1.766930 
# 
# From -- ./inp_files/3543.got.cif
#   From: 2010.03.12/outbox.cif.g09.slc.cpg/sg102_2_cif.got.tgz:3543.got - 2010.04.14 01:40:42.
