data_PCOD8306639
_publ_section_title
;
Structure prediction by ZEFSAII (Michael W. Deem and Ramdas Pophale) SiO2 
 PCOD8306639
Probable space group: P 4 B M
;
_chemical_formula_sum "Si O2"
_cell_formula_units_Z 40
_cell_length_a 16.224124
_cell_length_b 16.224124
_cell_length_c 7.830003
_cell_angle_alpha 90.000000
_cell_angle_beta 90.000000
_cell_angle_gamma 90.000000
_cell_volume 2061.030612
_symmetry_space_group_name_H-M "P 4 B M"
_symmetry_group_IT_number 100
_symmetry_cell_setting 'tetragonal'
loop_
_space_group_symop_operation_xyz
x,y,z
-y,x,z
-x,-y,z
y,-x,z
1/2-x,1/2+y,z
1/2+x,1/2-y,z
1/2-y,1/2-x,z
1/2+y,1/2+x,z
loop_
_atom_site_type_symbol
_atom_site_label
_atom_site_fract_x
_atom_site_fract_y
_atom_site_fract_z
Si Si1 0.736986 0.099883 0.127920
Si Si2 0.309548 0.058587 0.293015
Si Si3 0.316646 0.678761 0.430524
Si Si4 0.384658 0.747059 0.753455
Si Si5 0.504821 0.870195 0.637475
O O1 0.654665 0.154665 0.136085
O O2 0.799159 0.118939 0.281607
O O3 0.712012 0.003359 0.138598
O O4 0.784808 0.117677 0.948819
O O5 0.366414 0.133587 0.221714
O O6 0.226298 0.092554 0.384042
O O7 0.357860 0.005280 0.433590
O O8 0.247024 0.747024 0.439747
O O9 0.364516 0.675412 0.614195
O O10 0.319426 0.819426 0.721317
O O11 0.476724 0.785200 0.726380
O O12 0.440329 0.940329 0.684502
O O13 0.596566 0.903435 0.694895
#
# Coordination Sequence:
#
# PCOD8306639 Si02
#       5
#     8   8   8   8   8
#     4  10  19  33  53  74 101 137 172 210 259 310
#     4  10  19  31  51  78 105 133 167 214 261 304
#     4   9  18  34  49  69 103 135 169 207 248 303
#     4   9  17  31  51  71  99 141 172 197 248 313
#     4   9  16  28  48  75 105 132 159 198 252 309
#
# _framework density 19.407767
#
# number of rings (size 3 to 8) (size 9 to 14) (size 15 to 20)
#    0.000    2.600    2.000    0.600    0.000    2.000 
#    3.600    2.000    0.000    0.600    0.000    0.000 
#    6.000    0.000    0.000    0.000    0.000    0.000 
#
# Total GULP energy -495554.210356 kJ/mol
# GULP energy per Si atom -12388.855259 kJ/mol
# Density = 1.936359 g / cm^3
# Si number density = 19.407767 Si / 1000 Ang^3
#
#
#
# Elastic Constant Matrix: (Units=GPa)
#
#
# Indices 1 2 3 4 5 6 
#
# 1 44.5595 23.6405 31.0207 0.0000 0.0000 0.0000
# 2 23.6405 44.5595 31.0207 0.0000 0.0000 0.0000
# 3 31.0207 31.0207 129.7522 0.0000 0.0000 0.0000
# 4 0.0000 0.0000 0.0000 14.6177 0.0000 0.0000
# 5 0.0000 0.0000 0.0000 0.0000 14.6177 0.0000
# 6 0.0000 0.0000 0.0000 0.0000 0.0000 14.1907
#
#
#
# Elastic Compliance Matrix: (Units=1/GPa)
#
#
# Indices 1 2 3 4 5 6 
#
# 1 0.033271 -0.014533 -0.004480 0.000000 0.000000 0.000000
# 2 -0.014533 0.033271 -0.004480 0.000000 0.000000 0.000000
# 3 -0.004480 -0.004480 0.009849 0.000000 0.000000 0.000000
# 4 0.000000 0.000000 0.000000 0.068410 0.000000 0.000000
# 5 0.000000 0.000000 0.000000 0.000000 0.068410 0.000000
# 6 0.000000 0.000000 0.000000 0.000000 0.000000 0.070469
#
#
# Mechanical properties :
#
#
# Convention : Reuss Voigt Hill
#
# Bulk Modulus (GPa) = 34.00688 43.35944 38.68316
# Shear Modulus (GPa) = 14.68577 17.56453 16.12515
#
# Velocity S-wave (km/s) = 2.75379 3.01163 2.88559
# Velocity P-wave (km/s) = 5.26037 5.87222 5.57470
#
# Compressibility (1/GPa) = 0.02940581
#
# Stress axis : x y z
#
# Youngs Moduli (GPa) = 30.05650 30.05650 101.53288
#
# Poissons Ratio (x) = 0.43680 0.45485
# Poissons Ratio (y) = 0.43680 0.45485
# Poissons Ratio (z) = 0.13465 0.13465
#
# Static dielectric constant tensor:
#      x y z
#    x 3.425760 0.000000 0.000000 
#    y 0.000000 3.425760 0.000000 
#    z 0.000000 0.000000 3.553000 
# 
# 
# High freq. dielectric constant tensor:
#      x y z
#    x 1.720670 0.000000 0.000000 
#    y 0.000000 1.720670 0.000000 
#    z 0.000000 0.000000 1.750340 
# 
# From -- ./inp_files/858.got.cif
#   From: 2010.03.12/outbox.cif.g09.slc.cpg/sg100_cif.got.tgz:858.got - 2010.04.14 01:37:57.
