data_PCOD8306136
_publ_section_title
;
Structure prediction by ZEFSAII (Michael W. Deem and Ramdas Pophale) SiO2 
 PCOD8306136
Probable space group: I 4 2 2 
;
_chemical_formula_sum "Si O2"
_cell_formula_units_Z 112
_cell_length_a 14.706010
_cell_length_b 14.706010
_cell_length_c 24.243788
_cell_angle_alpha 90.000000
_cell_angle_beta 90.000000
_cell_angle_gamma 90.000000
_cell_volume 5243.124756
_symmetry_space_group_name_H-M "I 4 2 2 "
_symmetry_group_IT_number 97
_symmetry_cell_setting 'tetragonal'
loop_
_space_group_symop_operation_xyz
x,y,z
-y,x,z
-x,-y,z
y,-x,z
x,-y,-z
-x,y,-z
y,x,-z
-y,-x,-z
1/2+x,1/2+y,1/2+z
1/2-y,1/2+x,1/2+z
1/2-x,1/2-y,1/2+z
1/2+y,1/2-x,1/2+z
1/2+x,1/2-y,1/2-z
1/2-x,1/2+y,1/2-z
1/2+y,1/2+x,1/2-z
1/2-y,1/2-x,1/2-z
loop_
_atom_site_type_symbol
_atom_site_label
_atom_site_fract_x
_atom_site_fract_y
_atom_site_fract_z
Si Si1 0.259658 0.092245 0.119552
Si Si2 0.928284 0.132168 0.646193
Si Si3 0.280872 0.409922 0.028518
Si Si4 0.325303 0.102056 0.998138
Si Si5 0.386615 0.262133 0.614930
Si Si6 0.806098 0.616927 0.192959
Si Si7 0.944165 0.411736 0.313354
O O1 0.176900 0.157132 0.138009
O O2 0.353027 0.108399 0.152611
O O3 0.222519 0.991370 0.131656
O O4 0.278879 0.119797 0.056681
O O5 0.907035 0.188778 0.591325
O O6 0.883496 0.195647 0.693872
O O7 0.036372 0.121243 0.650294
O O8 0.172446 0.405776 0.017395
O O9 0.321478 0.500000 0.000000
O O10 0.320802 0.320802 0.000000
O O11 0.247949 0.113826 0.951302
O O12 0.366954 0.000000 0.000000
O O13 0.350345 0.170750 0.642648
O O14 0.846194 0.653807 0.250000
O O15 0.827084 0.511410 0.181171
O O16 0.919686 0.419686 0.250000
O O17 0.000000 0.500000 0.334757
#
# Coordination Sequence:
#
# PCOD8306136 Si02
#       7
#    16  16  16  16  16  16  16
#     4  11  24  41  69  98 134 182 228 289 349 420
#     4  11  26  47  70 105 147 189 233 286 355 435
#     4  12  23  37  67 103 144 192 227 272 346 437
#     4  10  24  42  62  96 138 180 229 291 343 410
#     4  11  23  43  65  96 136 179 232 285 350 415
#     4  12  25  45  70  97 131 180 234 286 344 420
#     4  11  22  45  71  97 133 174 222 292 349 412
#
# _framework density 21.361308000000001
#
# number of rings (size 3 to 8) (size 9 to 14) (size 15 to 20)
#    0.000    0.857    5.714    1.286    4.000    1.286 
#    2.571    0.000    0.000    2.571    0.000    0.000 
#    0.000    0.000    0.000    0.000    0.000    0.000 
#
# Total GULP energy -694184.913709 kJ/mol
# GULP energy per Si atom -12396.159173 kJ/mol
# Density = 2.131269 g / cm^3
# Si number density = 21.361308 Si / 1000 Ang^3
#
#
#
# Elastic Constant Matrix: (Units=GPa)
#
#
# Indices 1 2 3 4 5 6 
#
# 1 138.4951 71.3079 57.7031 0.0000 0.0000 0.0000
# 2 71.3079 138.4952 57.7031 0.0000 0.0000 0.0000
# 3 57.7031 57.7031 82.2708 0.0000 0.0000 0.0000
# 4 0.0000 0.0000 0.0000 21.4106 0.0000 0.0000
# 5 0.0000 0.0000 0.0000 0.0000 21.4103 0.0000
# 6 0.0000 0.0000 0.0000 0.0000 0.0000 35.0641
#
#
#
# Elastic Compliance Matrix: (Units=1/GPa)
#
#
# Indices 1 2 3 4 5 6 
#
# 1 0.011322 -0.003562 -0.005443 0.000000 0.000000 0.000000
# 2 -0.003562 0.011322 -0.005443 0.000000 0.000000 0.000000
# 3 -0.005443 -0.005443 0.019790 0.000000 0.000000 0.000000
# 4 0.000000 0.000000 0.000000 0.046706 0.000000 0.000000
# 5 0.000000 0.000000 0.000000 0.000000 0.046706 0.000000
# 6 0.000000 0.000000 0.000000 0.000000 0.000000 0.028519
#
#
# Mechanical properties :
#
#
# Convention : Reuss Voigt Hill
#
# Bulk Modulus (GPa) = 73.86054 81.40991 77.63523
# Shear Modulus (GPa) = 25.28136 27.08013 26.18075
#
# Velocity S-wave (km/s) = 3.44395 3.56437 3.50468
# Velocity P-wave (km/s) = 7.10396 7.42518 7.26635
#
# Compressibility (1/GPa) = 0.01353903
#
# Stress axis : x y z
#
# Youngs Moduli (GPa) = 88.32290 88.32295 50.53019
#
# Poissons Ratio (x) = 0.31458 0.27503
# Poissons Ratio (y) = 0.31458 0.27503
# Poissons Ratio (z) = 0.48074 0.48074
#
# Static dielectric constant tensor:
#      x y z
#    x 3.936980 0.000000 0.000000 
#    y 0.000000 3.936980 0.000000 
#    z 0.000000 0.000000 3.867850 
# 
# 
# High freq. dielectric constant tensor:
#      x y z
#    x 1.841780 0.000000 0.000000 
#    y 0.000000 1.841780 0.000000 
#    z 0.000000 0.000000 1.833990 
# 
# From -- ./inp_files/7257.got.cif
#   From: 2010.03.12/outbox.cif.g09.slc.cpg/sg97_4_cif.got.tgz:7257.got - 2010.04.08 20:59:42.
