data_PCOD8306761
_publ_section_title
;
Structure prediction by ZEFSAII (Michael W. Deem and Ramdas Pophale) SiO2 
 PCOD8306761
Probable space group: P 42 C M
;
_chemical_formula_sum "Si O2"
_cell_formula_units_Z 64
_cell_length_a 11.629079
_cell_length_b 11.629079
_cell_length_c 24.273511
_cell_angle_alpha 90.000000
_cell_angle_beta 90.000000
_cell_angle_gamma 90.000000
_cell_volume 3282.639872
_symmetry_space_group_name_H-M "P 42 C M"
_symmetry_group_IT_number 101
_symmetry_cell_setting 'tetragonal'
loop_
_space_group_symop_operation_xyz
x,y,z
-y,x,1/2+z
-x,-y,z
y,-x,1/2+z
-x,y,1/2+z
x,-y,1/2+z
-y,-x,z
y,x,z
loop_
_atom_site_type_symbol
_atom_site_label
_atom_site_fract_x
_atom_site_fract_y
_atom_site_fract_z
Si Si1 0.798659 0.382748 0.009150
Si Si2 0.500001 0.687709 0.609680
Si Si3 0.373974 0.982120 0.447554
Si Si4 0.382748 0.201341 0.210209
Si Si5 0.255670 0.560427 0.424767
Si Si6 0.982119 0.373973 0.271805
Si Si7 0.439574 0.744331 0.294592
Si Si8 0.003633 0.812759 0.359680
O O1 0.741750 0.258251 0.019127
O O2 0.770382 0.468512 0.059052
O O3 0.742902 0.435116 0.952924
O O4 0.937445 0.370416 0.002555
O O5 0.392160 0.607841 0.592730
O O6 0.607842 0.607842 0.626630
O O7 0.468513 0.770383 0.660307
O O8 0.365397 0.844536 0.456111
O O9 0.265995 0.021045 0.412023
O O10 0.500000 0.000000 0.418876
O O11 0.258250 0.258250 0.200231
O O12 0.435115 0.257098 0.266435
O O13 0.370415 0.062555 0.216804
O O14 0.377156 0.622845 0.434632
O O15 0.228791 0.550848 0.359679
O O16 0.844536 0.365397 0.263247
O O17 0.021043 0.265995 0.307336
O O18 0.000000 0.500000 0.300483
O O19 0.377156 0.622845 0.284727
O O20 0.132841 0.867160 0.359680
O O21 0.914477 0.914477 0.359679
#
# Coordination Sequence:
#
# PCOD8306761 Si02
#       8
#     8   8   8   8   8   8   8   8
#     4  10  21  34  54  80 104 135 175 225 276 318
#     4   9  18  36  57  76 106 142 177 219 272 336
#     4  10  20  34  50  74 105 140 176 215 265 311
#     4  10  21  34  54  80 104 135 175 225 276 318
#     4  10  20  34  52  74 107 149 181 211 259 323
#     4  10  20  34  50  74 105 140 176 215 265 311
#     4  10  20  34  52  74 107 149 181 211 259 323
#     4  11  21  32  50  74 105 147 186 216 254 313
#
# _framework density 19.496503000000001
#
# number of rings (size 3 to 8) (size 9 to 14) (size 15 to 20)
#    0.000    2.000    1.250    2.625    5.250    2.000 
#    0.000    6.875    0.000    0.000    0.000    0.000 
#    0.000    0.000    0.000   59.250    0.000    0.000 
#
# Total GULP energy -792840.024972 kJ/mol
# GULP energy per Si atom -12388.125390 kJ/mol
# Density = 1.945213 g / cm^3
# Si number density = 19.496503 Si / 1000 Ang^3
#
#
#
# Elastic Constant Matrix: (Units=GPa)
#
#
# Indices 1 2 3 4 5 6 
#
# 1 71.4605 16.1841 30.8195 0.0000 0.0000 -0.0004
# 2 16.1841 71.4605 30.8195 0.0000 0.0000 0.0004
# 3 30.8195 30.8195 84.2139 0.0000 0.0000 0.0000
# 4 0.0000 0.0000 0.0000 24.7078 0.0000 0.0000
# 5 0.0000 0.0000 0.0000 0.0000 24.7078 0.0000
# 6 -0.0004 0.0004 0.0000 0.0000 0.0000 23.8829
#
#
#
# Elastic Compliance Matrix: (Units=1/GPa)
#
#
# Indices 1 2 3 4 5 6 
#
# 1 0.016728 -0.001363 -0.005623 0.000000 0.000000 0.000000
# 2 -0.001363 0.016728 -0.005623 0.000000 0.000000 0.000000
# 3 -0.005623 -0.005623 0.015990 0.000000 0.000000 0.000000
# 4 0.000000 0.000000 0.000000 0.040473 0.000000 0.000000
# 5 0.000000 0.000000 0.000000 0.000000 0.040473 0.000000
# 6 0.000000 0.000000 0.000000 0.000000 0.000000 0.041871
#
#
# Mechanical properties :
#
#
# Convention : Reuss Voigt Hill
#
# Bulk Modulus (GPa) = 41.27591 42.53123 41.90357
# Shear Modulus (GPa) = 24.32432 24.61383 24.46908
#
# Velocity S-wave (km/s) = 3.53601 3.55699 3.54651
# Velocity P-wave (km/s) = 6.15532 6.22348 6.18949
#
# Compressibility (1/GPa) = 0.02422721
#
# Stress axis : x y z
#
# Youngs Moduli (GPa) = 59.78177 59.78177 62.53910
#
# Poissons Ratio (x) = 0.08151 0.35164
# Poissons Ratio (y) = 0.08151 0.35164
# Poissons Ratio (z) = 0.33614 0.33614
#
# Static dielectric constant tensor:
#      x y z
#    x 3.632190 0.000000 0.000000 
#    y 0.000000 3.632190 0.000000 
#    z 0.000000 0.000000 3.336290 
# 
# 
# High freq. dielectric constant tensor:
#      x y z
#    x 1.760420 0.000000 0.000000 
#    y 0.000000 1.760420 0.000000 
#    z 0.000000 0.000000 1.721100 
# 
# From -- ./inp_files/2798.got.cif
#   From: 2010.03.12/outbox.cif.g09.slc.cpg/sg101_2_cif.got.tgz:2798.got - 2010.04.14 01:38:52.
