data_PCOD8306185
_publ_section_title
;
Structure prediction by ZEFSAII (Michael W. Deem and Ramdas Pophale) SiO2 
 PCOD8306185
Probable space group: I 4 2 2 
;
_chemical_formula_sum "Si O2"
_cell_formula_units_Z 96
_cell_length_a 14.943817
_cell_length_b 14.943817
_cell_length_c 19.161642
_cell_angle_alpha 90.000000
_cell_angle_beta 90.000000
_cell_angle_gamma 90.000000
_cell_volume 4279.133178
_symmetry_space_group_name_H-M "I 4 2 2 "
_symmetry_group_IT_number 97
_symmetry_cell_setting 'tetragonal'
loop_
_space_group_symop_operation_xyz
x,y,z
-y,x,z
-x,-y,z
y,-x,z
x,-y,-z
-x,y,-z
y,x,-z
-y,-x,-z
1/2+x,1/2+y,1/2+z
1/2-y,1/2+x,1/2+z
1/2-x,1/2-y,1/2+z
1/2+y,1/2-x,1/2+z
1/2+x,1/2-y,1/2-z
1/2-x,1/2+y,1/2-z
1/2+y,1/2+x,1/2-z
1/2-y,1/2-x,1/2-z
loop_
_atom_site_type_symbol
_atom_site_label
_atom_site_fract_x
_atom_site_fract_y
_atom_site_fract_z
Si Si1 0.855146 0.000000 0.000000
Si Si2 0.674136 0.703534 0.799525
Si Si3 0.316134 0.778633 0.056351
Si Si4 0.191939 0.500000 0.000000
Si Si5 0.948918 0.587083 0.633122
Si Si6 0.284793 0.024552 0.886953
Si Si7 0.253570 0.982364 0.730421
O O1 0.911216 0.088785 0.000000
O O2 0.800545 0.005940 0.929182
O O3 0.724226 0.775775 0.750000
O O4 0.709228 0.714222 0.878638
O O5 0.686963 0.602489 0.770955
O O6 0.567923 0.719097 0.812111
O O7 0.320431 0.880670 0.084157
O O8 0.236738 0.763263 0.000000
O O9 0.409028 0.751731 0.015256
O O10 0.131325 0.497028 0.931673
O O11 0.853438 0.556884 0.603768
O O12 0.944758 0.653533 0.699249
O O13 0.000000 0.500000 0.660924
O O14 0.262404 0.028094 0.805688
#
# Coordination Sequence:
#
# PCOD8306185 Si02
#       7
#     8  16  16   8  16  16  16
#     4  11  28  48  69 102 142 192 251 298 360 451
#     4  12  26  52  73 112 153 197 257 314 385 456
#     4  12  26  44  76 106 153 194 245 313 382 458
#     4  12  23  44  68 109 144 192 244 303 374 454
#     4  12  24  43  71 112 147 185 240 306 386 455
#     4  12  25  45  74 106 145 190 238 306 382 447
#     4  12  28  47  77 108 149 201 253 315 377 459
#
# _framework density 22.434449000000001
#
# number of rings (size 3 to 8) (size 9 to 14) (size 15 to 20)
#    0.000    0.083    5.000    4.250    2.333    3.667 
#    0.000    0.000    0.000    0.250    0.000    0.000 
#    0.000    0.000    0.000    0.000    0.000    0.000 
#
# Total GULP energy -595009.405420 kJ/mol
# GULP energy per Si atom -12396.029280 kJ/mol
# Density = 2.238339 g / cm^3
# Si number density = 22.434449 Si / 1000 Ang^3
#
#
#
# Elastic Constant Matrix: (Units=GPa)
#
#
# Indices 1 2 3 4 5 6 
#
# 1 125.0562 43.9937 45.0849 0.0000 0.0000 0.0000
# 2 43.9937 125.0531 45.0845 0.0000 0.0000 0.0000
# 3 45.0849 45.0845 145.7133 0.0000 0.0000 0.0000
# 4 0.0000 0.0000 0.0000 58.3449 0.0000 0.0000
# 5 0.0000 0.0000 0.0000 0.0000 58.3443 0.0000
# 6 0.0000 0.0000 0.0000 0.0000 0.0000 -158.5228
#
#
#
# Elastic Compliance Matrix: (Units=1/GPa)
#
#
# Indices 1 2 3 4 5 6 
#
# 1 0.009710 -0.002626 -0.002192 0.000000 0.000000 0.000000
# 2 -0.002626 0.009711 -0.002192 0.000000 0.000000 0.000000
# 3 -0.002192 -0.002192 0.008219 0.000000 0.000000 0.000000
# 4 0.000000 0.000000 0.000000 0.017139 0.000000 0.000000
# 5 0.000000 0.000000 0.000000 0.000000 0.017140 0.000000
# 6 0.000000 0.000000 0.000000 0.000000 0.000000 -0.006308
#
#
# Mechanical properties :
#
#
# Convention : Reuss Voigt Hill
#
# Bulk Modulus (GPa) = 73.41905 73.79430 73.60668
# Shear Modulus (GPa) = 67.41156 9.07725 38.24440
#
# Velocity S-wave (km/s) = 5.48757 2.01368 4.13330
# Velocity P-wave (km/s) = 8.54098 6.19445 7.46055
#
# Compressibility (1/GPa) = 0.01362044
#
# Stress axis : x y z
#
# Youngs Moduli (GPa) = 102.98216 102.97947 121.66541
#
# Poissons Ratio (x) = 0.27041 0.26669
# Poissons Ratio (y) = 0.27042 0.26670
# Poissons Ratio (z) = 0.22574 0.22574
#
# Static dielectric constant tensor:
#      x y z
#    x 3.491510 0.000000 0.000000 
#    y 0.000000 3.491960 0.000000 
#    z 0.000000 0.000000 3.252230 
# 
# 
# High freq. dielectric constant tensor:
#      x y z
#    x 1.881670 0.000000 0.000000 
#    y 0.000000 1.881670 0.000000 
#    z 0.000000 0.000000 1.903270 
# 
# From -- ./inp_files/6685.got.cif
#   From: 2010.03.12/outbox.cif.g09.slc.cpg/sg97_4_cif.got.tgz:6685.got - 2010.04.08 20:59:42.
