data_PCOD8306636
_publ_section_title
;
Structure prediction by ZEFSAII (Michael W. Deem and Ramdas Pophale) SiO2 
 PCOD8306636
Probable space group: P 4 B M
;
_chemical_formula_sum "Si O2"
_cell_formula_units_Z 56
_cell_length_a 21.698209
_cell_length_b 21.698209
_cell_length_c 7.475306
_cell_angle_alpha 90.000000
_cell_angle_beta 90.000000
_cell_angle_gamma 90.000000
_cell_volume 3519.465815
_symmetry_space_group_name_H-M "P 4 B M"
_symmetry_group_IT_number 100
_symmetry_cell_setting 'tetragonal'
loop_
_space_group_symop_operation_xyz
x,y,z
-y,x,z
-x,-y,z
y,-x,z
1/2-x,1/2+y,z
1/2+x,1/2-y,z
1/2-y,1/2-x,z
1/2+y,1/2+x,z
loop_
_atom_site_type_symbol
_atom_site_label
_atom_site_fract_x
_atom_site_fract_y
_atom_site_fract_z
Si Si1 0.784446 0.384995 0.340350
Si Si2 0.180798 0.783141 0.635462
Si Si3 0.814812 0.525302 0.344532
Si Si4 0.547777 0.047777 0.923900
Si Si5 0.452223 0.952223 0.347024
Si Si6 0.185188 0.474698 0.926392
Si Si7 0.884995 0.284446 0.930574
Si Si8 0.617337 0.222530 0.635462
O O1 0.847773 0.347773 0.382235
O O2 0.727915 0.360305 0.458930
O O3 0.793249 0.456378 0.386809
O O4 0.765162 0.375773 0.135462
O O5 0.236738 0.736738 0.635462
O O6 0.139695 0.772085 0.811995
O O7 0.210260 0.850821 0.635462
O O8 0.884651 0.529980 0.412547
O O9 0.807621 0.541809 0.135462
O O10 0.777045 0.575155 0.458126
O O11 0.543818 0.043818 0.135462
O O12 0.529980 0.115349 0.858378
O O13 0.500000 0.000000 0.836119
O O14 0.500000 0.000000 0.434805
O O15 0.206752 0.543622 0.884116
O O16 0.222955 0.424845 0.812798
O O17 0.847773 0.347773 0.888689
O O18 0.666072 0.166072 0.635462
#
# Coordination Sequence:
#
# PCOD8306636 Si02
#       8
#     8   8   8   4   4   8   8   8
#     4   9  17  31  50  69  88 119 160 200 237 268
#     4   9  19  32  46  63  88 121 161 203 230 269
#     4  10  19  31  47  67  95 125 157 195 231 273
#     4   9  16  27  43  65  94 129 159 186 221 261
#     4   9  16  27  43  65  94 129 159 186 221 261
#     4  10  19  31  47  67  95 125 157 195 231 273
#     4   9  17  31  50  69  88 119 160 200 237 268
#     4  11  21  32  44  64  95 130 162 189 230 279
#
# _framework density 15.911505
#
# number of rings (size 3 to 8) (size 9 to 14) (size 15 to 20)
#    0.000    2.429    1.429    1.714    0.000    4.571 
#    0.000    5.714    0.000    0.000    0.000    0.000 
#    0.000    9.143    0.000   25.143    0.000    0.000 
#
# Total GULP energy -694277.232818 kJ/mol
# GULP energy per Si atom -12397.807729 kJ/mol
# Density = 1.587529 g / cm^3
# Si number density = 15.911505 Si / 1000 Ang^3
#
#
#
# Elastic Constant Matrix: (Units=GPa)
#
#
# Indices 1 2 3 4 5 6 
#
# 1 63.1460 101.0898 56.2222 0.0000 0.0000 0.0000
# 2 101.0898 63.1460 56.2222 0.0000 0.0000 0.0000
# 3 56.2222 56.2222 95.2902 0.0000 0.0000 0.0000
# 4 0.0000 0.0000 0.0000 22.4632 0.0000 0.0000
# 5 0.0000 0.0000 0.0000 0.0000 22.4632 0.0000
# 6 0.0000 0.0000 0.0000 0.0000 0.0000 34.1282
#
#
#
# Elastic Compliance Matrix: (Units=1/GPa)
#
#
# Indices 1 2 3 4 5 6 
#
# 1 -0.008070 0.018285 -0.006027 0.000000 0.000000 0.000000
# 2 0.018285 -0.008070 -0.006027 0.000000 0.000000 0.000000
# 3 -0.006027 -0.006027 0.017606 0.000000 0.000000 0.000000
# 4 0.000000 0.000000 0.000000 0.044517 0.000000 0.000000
# 5 0.000000 0.000000 0.000000 0.000000 0.044517 0.000000
# 6 0.000000 0.000000 0.000000 0.000000 0.000000 0.029301
#
#
# Mechanical properties :
#
#
# Convention : Reuss Voigt Hill
#
# Bulk Modulus (GPa) = 71.79538 72.07227 71.93383
# Shear Modulus (GPa) = 44.64920 16.34745 30.49832
#
# Velocity S-wave (km/s) = 5.30301 3.20878 4.38282
# Velocity P-wave (km/s) = 9.09480 7.68911 8.42134
#
# Compressibility (1/GPa) = 0.01392847
#
# Stress axis : x y z
#
# Youngs Moduli (GPa) = -123.92002 -123.92002 56.79760
#
# Poissons Ratio (x) = 2.26588 0.34233
# Poissons Ratio (y) = 2.26588 0.34233
# Poissons Ratio (z) = -0.74688 -0.74688
#
# Static dielectric constant tensor:
#      x y z
#    x 2.959090 0.000000 0.000000 
#    y 0.000000 2.959090 0.000000 
#    z 0.000000 0.000000 3.086090 
# 
# 
# High freq. dielectric constant tensor:
#      x y z
#    x 1.586530 0.000000 0.000000 
#    y 0.000000 1.586530 0.000000 
#    z 0.000000 0.000000 1.625090 
# 
# From -- ./inp_files/1055.got.cif
#   From: 2010.03.12/outbox.cif.g09.slc.cpg/sg100_cif.got.tgz:1055.got - 2010.04.14 01:37:57.
