data_PCOD8306032
_publ_section_title
;
Structure prediction by ZEFSAII (Michael W. Deem and Ramdas Pophale) SiO2 
 PCOD8306032
Probable space group: I 4 2 2 
;
_chemical_formula_sum "Si O2"
_cell_formula_units_Z 112
_cell_length_a 15.933403
_cell_length_b 15.933403
_cell_length_c 25.007221
_cell_angle_alpha 90.000000
_cell_angle_beta 90.000000
_cell_angle_gamma 90.000000
_cell_volume 6348.666498
_symmetry_space_group_name_H-M "I 4 2 2 "
_symmetry_group_IT_number 97
_symmetry_cell_setting 'tetragonal'
loop_
_space_group_symop_operation_xyz
x,y,z
-y,x,z
-x,-y,z
y,-x,z
x,-y,-z
-x,y,-z
y,x,-z
-y,-x,-z
1/2+x,1/2+y,1/2+z
1/2-y,1/2+x,1/2+z
1/2-x,1/2-y,1/2+z
1/2+y,1/2-x,1/2+z
1/2+x,1/2-y,1/2-z
1/2-x,1/2+y,1/2-z
1/2+y,1/2+x,1/2-z
1/2-y,1/2-x,1/2-z
loop_
_atom_site_type_symbol
_atom_site_label
_atom_site_fract_x
_atom_site_fract_y
_atom_site_fract_z
Si Si1 0.088377 0.272834 0.485011
Si Si2 0.580218 0.042988 0.056585
Si Si3 0.682306 0.279445 0.916932
Si Si4 0.839959 0.828327 0.886165
Si Si5 0.491076 0.262172 0.563693
Si Si6 0.578110 0.613527 0.161430
Si Si7 0.911862 0.104474 0.216472
O O1 0.069227 0.358244 0.453203
O O2 0.136306 0.209776 0.446709
O O3 0.140604 0.285268 0.540417
O O4 0.000000 0.229964 0.500000
O O5 0.667841 0.025177 0.086498
O O6 0.500000 0.000000 0.087385
O O7 0.585952 0.000000 0.000000
O O8 0.762099 0.235011 0.890839
O O9 0.617543 0.310496 0.872214
O O10 0.818677 0.913541 0.917419
O O11 0.855462 0.839828 0.823000
O O12 0.923972 0.794983 0.912098
O O13 0.500000 0.264760 0.500000
O O14 0.478840 0.614767 0.149175
O O15 0.602263 0.632891 0.222725
O O16 0.009724 0.115773 0.204468
#
# Coordination Sequence:
#
# PCOD8306032 Si02
#       7
#    16  16  16  16  16  16  16
#     4  11  21  35  53  77 112 142 178 216 263 321
#     4  10  18  33  52  71 102 151 190 210 243 310
#     4  11  23  34  53  84 113 137 171 230 276 318
#     4  12  22  35  54  80 115 145 183 228 268 312
#     4  11  23  35  51  79 115 151 182 218 265 316
#     4   9  19  39  62  78 101 134 178 226 284 336
#     4   9  18  36  58  78 100 139 185 226 266 326
#
# _framework density 17.641500000000001
#
# number of rings (size 3 to 8) (size 9 to 14) (size 15 to 20)
#    0.000    1.571    4.286    3.857    2.000    0.857 
#    0.000    0.714    0.000    3.429    0.000    0.000 
#    0.000    2.286    0.000    0.000    0.000    0.000 
#
# Total GULP energy -694138.457237 kJ/mol
# GULP energy per Si atom -12395.329594 kJ/mol
# Density = 1.760135 g / cm^3
# Si number density = 17.641500 Si / 1000 Ang^3
#
#
#
# Elastic Constant Matrix: (Units=GPa)
#
#
# Indices 1 2 3 4 5 6 
#
# 1 96.5782 40.1379 35.6684 0.0000 0.0000 0.0000
# 2 40.1379 96.5782 35.6684 0.0000 0.0000 0.0000
# 3 35.6684 35.6684 78.0039 0.0000 0.0000 0.0000
# 4 0.0000 0.0000 0.0000 13.6811 0.0000 0.0000
# 5 0.0000 0.0000 0.0000 0.0000 13.6811 0.0000
# 6 0.0000 0.0000 0.0000 0.0000 0.0000 31.2233
#
#
#
# Elastic Compliance Matrix: (Units=1/GPa)
#
#
# Indices 1 2 3 4 5 6 
#
# 1 0.013662 -0.004056 -0.004393 0.000000 0.000000 0.000000
# 2 -0.004056 0.013662 -0.004393 0.000000 0.000000 0.000000
# 3 -0.004393 -0.004393 0.016837 0.000000 0.000000 0.000000
# 4 0.000000 0.000000 0.000000 0.073094 0.000000 0.000000
# 5 0.000000 0.000000 0.000000 0.000000 0.073094 0.000000
# 6 0.000000 0.000000 0.000000 0.000000 0.000000 0.032027
#
#
# Mechanical properties :
#
#
# Convention : Reuss Voigt Hill
#
# Bulk Modulus (GPa) = 54.11467 54.90110 54.50789
# Shear Modulus (GPa) = 19.66816 22.36280 21.01548
#
# Velocity S-wave (km/s) = 3.34260 3.56423 3.45520
# Velocity P-wave (km/s) = 6.75563 6.93731 6.84708
#
# Compressibility (1/GPa) = 0.01847928
#
# Stress axis : x y z
#
# Youngs Moduli (GPa) = 73.19478 73.19478 59.39252
#
# Poissons Ratio (x) = 0.29685 0.26089
# Poissons Ratio (y) = 0.29685 0.26089
# Poissons Ratio (z) = 0.32152 0.32152
#
# Static dielectric constant tensor:
#      x y z
#    x 3.666700 0.000000 0.000000 
#    y 0.000000 3.666700 0.000000 
#    z 0.000000 0.000000 3.013840 
# 
# 
# High freq. dielectric constant tensor:
#      x y z
#    x 1.687410 0.000000 0.000000 
#    y 0.000000 1.687410 0.000000 
#    z 0.000000 0.000000 1.655860 
# 
# From -- ./inp_files/7258.got.cif
#   From: 2010.03.12/outbox.cif.g09.slc.cpg/sg97_4_cif.got.tgz:7258.got - 2010.04.08 20:59:42.
