data_PCOD8306663
_publ_section_title
;
Structure prediction by ZEFSAII (Michael W. Deem and Ramdas Pophale) SiO2 
 PCOD8306663
Probable space group: P 4 B M
;
_chemical_formula_sum "Si O2"
_cell_formula_units_Z 56
_cell_length_a 14.319433
_cell_length_b 14.319433
_cell_length_c 13.936790
_cell_angle_alpha 90.000000
_cell_angle_beta 90.000000
_cell_angle_gamma 90.000000
_cell_volume 2857.685292
_symmetry_space_group_name_H-M "P 4 B M"
_symmetry_group_IT_number 100
_symmetry_cell_setting 'tetragonal'
loop_
_space_group_symop_operation_xyz
x,y,z
-y,x,z
-x,-y,z
y,-x,z
1/2-x,1/2+y,z
1/2+x,1/2-y,z
1/2-y,1/2-x,z
1/2+y,1/2+x,z
loop_
_atom_site_type_symbol
_atom_site_label
_atom_site_fract_x
_atom_site_fract_y
_atom_site_fract_z
Si Si1 0.259551 0.389090 0.112050
Si Si2 0.649056 0.000346 0.959710
Si Si3 0.396191 0.741491 0.493225
Si Si4 0.893909 0.108087 0.958438
Si Si5 0.245037 0.098881 0.584767
Si Si6 0.106354 0.759195 0.802670
Si Si7 0.857237 0.057317 0.304695
O O1 0.188842 0.311159 0.151102
O O2 0.314501 0.433763 0.199638
O O3 0.205818 0.470092 0.053915
O O4 0.333125 0.338775 0.039255
O O5 0.587416 0.912585 0.992193
O O6 0.713299 0.973696 0.869053
O O7 0.585663 0.085663 0.922537
O O8 0.335880 0.835880 0.505454
O O9 0.344962 0.654942 0.545834
O O10 0.500001 0.758602 0.533086
O O11 0.407067 0.718170 0.381238
O O12 0.866006 0.141766 0.851501
O O13 0.001146 0.129997 0.974792
O O14 0.338776 0.161225 0.571584
O O15 0.225693 0.071264 0.695114
O O16 0.199306 0.699306 0.799712
O O17 0.948919 0.119772 0.319037
#
# Coordination Sequence:
#
# PCOD8306663 Si02
#       7
#     8   8   8   8   8   8   8
#     4  11  22  38  60  88 122 159 205 253 313 373
#     4   9  19  37  60  85 120 163 204 247 297 365
#     4  11  23  44  70  95 130 166 211 272 329 386
#     4  11  22  36  52  82 123 161 202 248 300 360
#     4  10  24  42  65  99 130 168 219 268 323 388
#     4  10  21  39  60  88 122 159 209 254 302 362
#     4  11  23  42  66  92 122 159 207 259 316 386
#
# _framework density 19.59628
#
# number of rings (size 3 to 8) (size 9 to 14) (size 15 to 20)
#    0.000    1.571    2.857    1.714    2.000    2.286 
#    0.000    2.857    0.000    1.714    0.000    0.000 
#    0.000    0.000    0.000    0.000    0.000    0.000 
#
# Total GULP energy -694194.481606 kJ/mol
# GULP energy per Si atom -12396.330029 kJ/mol
# Density = 1.955168 g / cm^3
# Si number density = 19.596280 Si / 1000 Ang^3
#
#
#
# Elastic Constant Matrix: (Units=GPa)
#
#
# Indices 1 2 3 4 5 6 
#
# 1 104.9259 41.6481 44.6620 0.0000 0.0000 0.0002
# 2 41.6481 104.9259 44.6620 0.0000 0.0000 -0.0002
# 3 44.6620 44.6620 125.7433 0.0000 0.0000 0.0000
# 4 0.0000 0.0000 0.0000 27.2481 0.0000 0.0000
# 5 0.0000 0.0000 0.0000 0.0000 27.2481 0.0000
# 6 0.0002 -0.0002 0.0000 0.0000 0.0000 11.6365
#
#
#
# Elastic Compliance Matrix: (Units=1/GPa)
#
#
# Indices 1 2 3 4 5 6 
#
# 1 0.012255 -0.003548 -0.003093 0.000000 0.000000 0.000000
# 2 -0.003548 0.012255 -0.003093 0.000000 0.000000 0.000000
# 3 -0.003093 -0.003093 0.010150 0.000000 0.000000 0.000000
# 4 0.000000 0.000000 0.000000 0.036700 0.000000 0.000000
# 5 0.000000 0.000000 0.000000 0.000000 0.036700 0.000000
# 6 0.000000 0.000000 0.000000 0.000000 0.000000 0.085936
#
#
# Mechanical properties :
#
#
# Convention : Reuss Voigt Hill
#
# Bulk Modulus (GPa) = 65.81807 66.39327 66.10567
# Shear Modulus (GPa) = 22.88045 26.86809 24.87427
#
# Velocity S-wave (km/s) = 3.42071 3.70683 3.56664
# Velocity P-wave (km/s) = 7.01866 7.23014 7.12518
#
# Compressibility (1/GPa) = 0.01519340
#
# Stress axis : x y z
#
# Youngs Moduli (GPa) = 81.59759 81.59759 98.52569
#
# Poissons Ratio (x) = 0.28951 0.30471
# Poissons Ratio (y) = 0.28951 0.30471
# Poissons Ratio (z) = 0.25235 0.25235
#
# Static dielectric constant tensor:
#      x y z
#    x 3.687760 0.000000 0.000000 
#    y 0.000000 3.687760 0.000000 
#    z 0.000000 0.000000 3.656920 
# 
# 
# High freq. dielectric constant tensor:
#      x y z
#    x 1.770320 0.000000 0.000000 
#    y 0.000000 1.770320 0.000000 
#    z 0.000000 0.000000 1.762200 
# 
# From -- ./inp_files/1318.got.cif
#   From: 2010.03.12/outbox.cif.g09.slc.cpg/sg100_cif.got.tgz:1318.got - 2010.04.14 01:37:57.
