data_PCOD8306953
_publ_section_title
;
Structure prediction by ZEFSAII (Michael W. Deem and Ramdas Pophale) SiO2 
 PCOD8306953
Probable space group: P 42 N M
;
_chemical_formula_sum "Si O2"
_cell_formula_units_Z 56
_cell_length_a 13.596314
_cell_length_b 13.596314
_cell_length_c 17.468571
_cell_angle_alpha 90.000000
_cell_angle_beta 90.000000
_cell_angle_gamma 90.000000
_cell_volume 3229.235745
_symmetry_space_group_name_H-M "P 42 N M"
_symmetry_group_IT_number 102
_symmetry_cell_setting 'tetragonal'
loop_
_space_group_symop_operation_xyz
x,y,z
1/2-y,1/2+x,1/2+z
-x,-y,z
1/2+y,1/2-x,1/2+z
1/2-x,1/2+y,1/2+z
1/2+x,1/2-y,1/2+z
-y,-x,z
y,x,z
loop_
_atom_site_type_symbol
_atom_site_label
_atom_site_fract_x
_atom_site_fract_y
_atom_site_fract_z
Si Si1 0.389164 0.224803 0.260350
Si Si2 0.921509 0.756245 0.201207
Si Si3 0.338514 0.500396 0.139783
Si Si4 0.338514 0.500396 0.552388
Si Si5 0.078492 0.243756 0.490965
Si Si6 0.724804 0.110835 0.931821
Si Si7 0.005340 0.839298 0.346086
O O1 0.300582 0.300582 0.268047
O O2 0.349659 0.130271 0.212977
O O3 0.479617 0.273619 0.215033
O O4 0.424084 0.194947 0.346086
O O5 0.842547 0.842547 0.201259
O O6 0.981358 0.762577 0.121910
O O7 0.996530 0.771720 0.271186
O O8 0.404376 0.595625 0.157741
O O9 0.407550 0.407550 0.118473
O O10 0.262577 0.518642 0.070261
O O11 0.404376 0.595625 0.534430
O O12 0.407550 0.407550 0.573699
O O13 0.273619 0.479618 0.477138
O O14 0.157453 0.157453 0.490912
O O15 0.130272 0.349660 0.479194
O O16 0.003470 0.228280 0.420985
O O17 0.800583 0.199418 0.924124
O O18 0.112575 0.887426 0.346086
O O19 0.921605 0.921605 0.346086
#
# Coordination Sequence:
#
# PCOD8306953 Si02
#       7
#     8   8   8   8   8   8   8
#     4   9  16  27  43  64  91 122 155 187 223 273
#     4   9  15  25  40  62  90 120 152 184 225 278
#     4   9  17  27  41  66  96 120 148 191 234 268
#     4   9  17  27  41  66  96 120 148 191 234 268
#     4   9  15  25  40  62  90 120 152 184 225 278
#     4   9  16  27  43  64  91 122 155 187 223 273
#     4   9  14  20  36  62  91 118 143 183 237 282
#
# _framework density 17.341564000000002
#
# number of rings (size 3 to 8) (size 9 to 14) (size 15 to 20)
#    0.000    3.000    1.429    0.857    0.000    4.000 
#    0.000    2.857    0.000    0.857    3.714    2.000 
#    0.000    0.000    0.000    0.000    0.000    0.000 
#
# Total GULP energy -694109.058948 kJ/mol
# GULP energy per Si atom -12394.804624 kJ/mol
# Density = 1.730209 g / cm^3
# Si number density = 17.341564 Si / 1000 Ang^3
#
#
#
# Elastic Constant Matrix: (Units=GPa)
#
#
# Indices 1 2 3 4 5 6 
#
# 1 50.7192 38.8307 52.7757 0.0000 0.0000 -0.0001
# 2 38.8307 50.7192 52.7757 0.0000 0.0000 0.0001
# 3 52.7757 52.7757 147.7576 0.0000 0.0000 0.0000
# 4 0.0000 0.0000 0.0000 11.8322 0.0000 0.0000
# 5 0.0000 0.0000 0.0000 0.0000 11.8322 0.0000
# 6 -0.0001 0.0001 0.0000 0.0000 0.0000 23.9034
#
#
#
# Elastic Compliance Matrix: (Units=1/GPa)
#
#
# Indices 1 2 3 4 5 6 
#
# 1 0.051701 -0.032414 -0.006889 0.000000 0.000000 0.000000
# 2 -0.032414 0.051701 -0.006889 0.000000 0.000000 0.000000
# 3 -0.006889 -0.006889 0.011689 0.000000 0.000000 0.000000
# 4 0.000000 0.000000 0.000000 0.084515 0.000000 0.000000
# 5 0.000000 0.000000 0.000000 0.000000 0.084515 0.000000
# 6 0.000000 0.000000 0.000000 0.000000 0.000000 0.041835
#
#
# Mechanical properties :
#
#
# Convention : Reuss Voigt Hill
#
# Bulk Modulus (GPa) = 44.03900 59.77335 51.90617
# Shear Modulus (GPa) = 11.73959 16.50113 14.12036
#
# Velocity S-wave (km/s) = 2.60467 3.08805 2.85660
# Velocity P-wave (km/s) = 5.87333 6.87443 6.39350
#
# Compressibility (1/GPa) = 0.02270715
#
# Stress axis : x y z
#
# Youngs Moduli (GPa) = 19.34201 19.34201 85.55153
#
# Poissons Ratio (x) = 0.62696 0.58934
# Poissons Ratio (y) = 0.62696 0.58934
# Poissons Ratio (z) = 0.13324 0.13324
#
# Static dielectric constant tensor:
#      x y z
#    x 2.949880 0.000000 0.000000 
#    y 0.000000 2.949880 0.000000 
#    z 0.000000 0.000000 3.438750 
# 
# 
# High freq. dielectric constant tensor:
#      x y z
#    x 1.629920 0.000000 0.000000 
#    y 0.000000 1.629920 0.000000 
#    z 0.000000 0.000000 1.680770 
# 
# From -- ./inp_files/2384.got.cif
#   From: 2010.03.12/outbox.cif.g09.slc.cpg/sg102_2_cif.got.tgz:2384.got - 2010.04.14 01:40:42.
