data_PCOD8306769
_publ_section_title
;
Structure prediction by ZEFSAII (Michael W. Deem and Ramdas Pophale) SiO2 
 PCOD8306769
Probable space group: P 42 C M
;
_chemical_formula_sum "Si O2"
_cell_formula_units_Z 40
_cell_length_a 15.293811
_cell_length_b 15.293811
_cell_length_c 8.824816
_cell_angle_alpha 90.000000
_cell_angle_beta 90.000000
_cell_angle_gamma 90.000000
_cell_volume 2064.130242
_symmetry_space_group_name_H-M "P 42 C M"
_symmetry_group_IT_number 101
_symmetry_cell_setting 'tetragonal'
loop_
_space_group_symop_operation_xyz
x,y,z
-y,x,1/2+z
-x,-y,z
y,-x,1/2+z
-x,y,1/2+z
x,-y,1/2+z
-y,-x,z
y,x,z
loop_
_atom_site_type_symbol
_atom_site_label
_atom_site_fract_x
_atom_site_fract_y
_atom_site_fract_z
Si Si1 0.074098 0.716530 0.761490
Si Si2 0.242672 0.382474 0.286866
Si Si3 0.085296 0.608368 0.285027
Si Si4 0.499346 0.172953 0.529297
Si Si5 0.920944 0.781951 0.926583
O O1 0.168535 0.690052 0.824602
O O2 0.084510 0.765920 0.604202
O O3 0.017880 0.625247 0.748265
O O4 0.023448 0.783327 0.875602
O O5 0.336772 0.336772 0.278070
O O6 0.222233 0.426624 0.125217
O O7 0.244828 0.453974 0.420639
O O8 0.130456 0.574863 0.133377
O O9 0.097339 0.541145 0.423981
O O10 0.126434 0.702141 0.335867
O O11 0.872391 0.872391 0.885662
#
# Coordination Sequence:
#
# PCOD8306769 Si02
#       5
#     8   8   8   8   8
#     4  10  20  36  59  91 119 160 193 245 300 348
#     4  11  22  38  61  90 121 154 197 249 302 364
#     4   9  21  34  53  89 117 159 192 241 293 353
#     4  10  21  37  59  89 125 154 195 242 303 365
#     4  10  21  39  58  83 121 163 201 238 291 353
#
# _framework density 19.378620999999999
#
# number of rings (size 3 to 8) (size 9 to 14) (size 15 to 20)
#    1.200    0.800    2.000    1.800    0.000    5.600 
#    0.000    4.000    0.000    6.600    0.000    0.000 
#    0.000    0.000    0.000    0.000    0.000    0.000 
#
# Total GULP energy -495684.869135 kJ/mol
# GULP energy per Si atom -12392.121728 kJ/mol
# Density = 1.933451 g / cm^3
# Si number density = 19.378621 Si / 1000 Ang^3
#
#
#
# Elastic Constant Matrix: (Units=GPa)
#
#
# Indices 1 2 3 4 5 6 
#
# 1 60.1189 41.4675 22.0811 0.0000 0.0000 0.0000
# 2 41.4675 60.1189 22.0811 0.0000 0.0000 0.0000
# 3 22.0811 22.0811 82.4943 0.0000 0.0000 0.0000
# 4 0.0000 0.0000 0.0000 16.2731 0.0000 0.0000
# 5 0.0000 0.0000 0.0000 0.0000 16.2731 0.0000
# 6 0.0000 0.0000 0.0000 0.0000 0.0000 35.0808
#
#
#
# Elastic Compliance Matrix: (Units=1/GPa)
#
#
# Indices 1 2 3 4 5 6 
#
# 1 0.032378 -0.021238 -0.002982 0.000000 0.000000 0.000000
# 2 -0.021238 0.032378 -0.002982 0.000000 0.000000 0.000000
# 3 -0.002982 -0.002982 0.013718 0.000000 0.000000 0.000000
# 4 0.000000 0.000000 0.000000 0.061451 0.000000 0.000000
# 5 0.000000 0.000000 0.000000 0.000000 0.061451 0.000000
# 6 0.000000 0.000000 0.000000 0.000000 0.000000 0.028506
#
#
# Mechanical properties :
#
#
# Convention : Reuss Voigt Hill
#
# Bulk Modulus (GPa) = 41.54346 41.55460 41.54903
# Shear Modulus (GPa) = 17.10525 21.33222 19.21874
#
# Velocity S-wave (km/s) = 2.97423 3.32145 3.15262
# Velocity P-wave (km/s) = 5.76880 6.01660 5.89400
#
# Compressibility (1/GPa) = 0.02407118
#
# Stress axis : x y z
#
# Youngs Moduli (GPa) = 30.88547 30.88547 72.89515
#
# Poissons Ratio (x) = 0.65593 0.21736
# Poissons Ratio (y) = 0.65593 0.21736
# Poissons Ratio (z) = 0.09210 0.09210
#
# Static dielectric constant tensor:
#      x y z
#    x 3.321000 0.000000 0.000000 
#    y 0.000000 3.321000 0.000000 
#    z 0.000000 0.000000 3.598820 
# 
# 
# High freq. dielectric constant tensor:
#      x y z
#    x 1.725560 0.000000 0.000000 
#    y 0.000000 1.725560 0.000000 
#    z 0.000000 0.000000 1.767610 
# 
# From -- ./inp_files/573.got.cif
#   From: 2010.03.12/outbox.cif.g09.slc.cpg/sg101_1_cif.got.tgz:573.got - 2010.04.14 01:38:52.
