data_PCOD8306945
_publ_section_title
;
Structure prediction by ZEFSAII (Michael W. Deem and Ramdas Pophale) SiO2 
 PCOD8306945
Probable space group: P 42 N M
;
_chemical_formula_sum "Si O2"
_cell_formula_units_Z 40
_cell_length_a 14.349360
_cell_length_b 14.349360
_cell_length_c 9.100233
_cell_angle_alpha 90.000000
_cell_angle_beta 90.000000
_cell_angle_gamma 90.000000
_cell_volume 1873.775581
_symmetry_space_group_name_H-M "P 42 N M"
_symmetry_group_IT_number 102
_symmetry_cell_setting 'tetragonal'
loop_
_space_group_symop_operation_xyz
x,y,z
1/2-y,1/2+x,1/2+z
-x,-y,z
1/2+y,1/2-x,1/2+z
1/2-x,1/2+y,1/2+z
1/2+x,1/2-y,1/2+z
-y,-x,z
y,x,z
loop_
_atom_site_type_symbol
_atom_site_label
_atom_site_fract_x
_atom_site_fract_y
_atom_site_fract_z
Si Si1 0.922679 0.922679 0.095261
Si Si2 0.944687 0.405265 0.111355
Si Si3 0.502732 0.754849 0.088302
Si Si4 0.078210 0.078210 0.428632
Si Si5 0.533705 0.245387 0.411247
Si Si6 0.288603 0.855969 0.350941
O O1 0.895681 0.895681 0.261271
O O2 0.833454 0.968908 0.017594
O O3 0.000000 0.000000 0.094756
O O4 0.841537 0.433604 0.063152
O O5 0.936222 0.330312 0.244532
O O6 0.000000 0.500000 0.156962
O O7 0.994850 0.350779 0.979952
O O8 0.522794 0.734715 0.260594
O O9 0.455438 0.668447 0.011549
O O10 0.601569 0.773310 0.012262
O O11 0.000000 0.000000 0.435089
O O12 0.640076 0.228918 0.366358
O O13 0.190806 0.809195 0.293963
#
# Coordination Sequence:
#
# PCOD8306945 Si02
#       6
#     4   8   8   4   8   8
#     4  11  25  47  71  95 137 188 233 290 353 419
#     4  11  25  43  70 102 139 184 230 286 350 423
#     4  11  25  40  72 100 139 177 233 287 352 413
#     4  11  25  47  69  99 137 184 231 284 355 423
#     4  11  24  43  66 100 137 179 230 289 346 416
#     4  11  24  44  69  98 140 182 230 289 351 411
#
# _framework density 21.347273000000001
#
# number of rings (size 3 to 8) (size 9 to 14) (size 15 to 20)
#    0.000    1.000    3.000    2.400    9.800    6.400 
#    0.000    0.000    0.000    0.000    0.000    0.000 
#    0.000    0.000    0.000    0.000    0.000    0.000 
#
# Total GULP energy -495945.847236 kJ/mol
# GULP energy per Si atom -12398.646181 kJ/mol
# Density = 2.129869 g / cm^3
# Si number density = 21.347273 Si / 1000 Ang^3
#
#
#
# Elastic Constant Matrix: (Units=GPa)
#
#
# Indices 1 2 3 4 5 6 
#
# 1 110.6058 23.5824 61.9943 0.0000 0.0000 0.0000
# 2 23.5824 110.6058 61.9943 0.0000 0.0000 0.0000
# 3 61.9943 61.9943 155.6401 0.0000 0.0000 0.0000
# 4 0.0000 0.0000 0.0000 1.2869 0.0000 0.0000
# 5 0.0000 0.0000 0.0000 0.0000 1.2869 0.0000
# 6 0.0000 0.0000 0.0000 0.0000 0.0000 34.0661
#
#
#
# Elastic Compliance Matrix: (Units=1/GPa)
#
#
# Indices 1 2 3 4 5 6 
#
# 1 0.011642 0.000151 -0.004697 0.000000 0.000000 0.000000
# 2 0.000151 0.011642 -0.004697 0.000000 0.000000 0.000000
# 3 -0.004697 -0.004697 0.010167 0.000000 0.000000 0.000000
# 4 0.000000 0.000000 0.000000 0.777035 0.000000 0.000000
# 5 0.000000 0.000000 0.000000 0.000000 0.777035 0.000000
# 6 0.000000 0.000000 0.000000 0.000000 0.000000 0.029355
#
#
# Mechanical properties :
#
#
# Convention : Reuss Voigt Hill
#
# Bulk Modulus (GPa) = 66.83071 74.66597 70.74834
# Shear Modulus (GPa) = 3.04813 22.61338 12.83075
#
# Velocity S-wave (km/s) = 1.19623 3.25823 2.45429
# Velocity P-wave (km/s) = 5.76909 7.01481 6.42222
#
# Compressibility (1/GPa) = 0.01496318
#
# Stress axis : x y z
#
# Youngs Moduli (GPa) = 85.89795 85.89795 98.35792
#
# Poissons Ratio (x) = -0.01293 0.46200
# Poissons Ratio (y) = -0.01293 0.46200
# Poissons Ratio (z) = 0.40347 0.40347
#
# Static dielectric constant tensor:
#      x y z
#    x 3.902960 0.000000 0.000000 
#    y 0.000000 3.902960 0.000000 
#    z 0.000000 0.000000 4.158710 
# 
# 
# High freq. dielectric constant tensor:
#      x y z
#    x 1.842800 0.000000 0.000000 
#    y 0.000000 1.842800 0.000000 
#    z 0.000000 0.000000 1.841810 
# 
# From -- ./inp_files/962.got.cif
#   From: 2010.03.12/outbox.cif.g09.slc.cpg/sg102_1_cif.got.tgz:962.got - 2010.04.14 01:40:42.
