data_PCOD8306316
_publ_section_title
;
Structure prediction by ZEFSAII (Michael W. Deem and Ramdas Pophale) SiO2 
 PCOD8306316
Probable space group: I 41 2 2
;
_chemical_formula_sum "Si O2"
_cell_formula_units_Z 64
_cell_length_a 18.030172
_cell_length_b 18.030172
_cell_length_c 9.638995
_cell_angle_alpha 90.000000
_cell_angle_beta 90.000000
_cell_angle_gamma 90.000000
_cell_volume 3133.512954
_symmetry_space_group_name_H-M "I 41 2 2"
_symmetry_group_IT_number 98
_symmetry_cell_setting 'tetragonal'
loop_
_space_group_symop_operation_xyz
x,y,z
-y,1/2+x,1/4+z
-x,-y,z
y,1/2-x,1/4+z
x,1/2-y,1/4-z
-x,1/2+y,1/4-z
y,x,-z
-y,-x,-z
1/2+x,1/2+y,1/2+z
1/2-y,x,3/4+z
1/2-x,1/2-y,1/2+z
1/2+y,-x,3/4+z
1/2+x,-y,3/4-z
1/2-x,y,3/4-z
1/2+y,1/2+x,1/2-z
1/2-y,1/2-x,1/2-z
loop_
_atom_site_type_symbol
_atom_site_label
_atom_site_fract_x
_atom_site_fract_y
_atom_site_fract_z
Si Si1 0.020562 0.417258 0.436328
Si Si2 0.934455 0.164799 0.577679
Si Si3 0.346373 0.070981 0.140708
Si Si4 0.700610 0.584287 0.506589
O O1 0.104060 0.419202 0.501483
O O2 0.025960 0.365114 0.298565
O O3 0.000000 0.500000 0.391113
O O4 0.958288 0.385013 0.540170
O O5 0.931209 0.250000 0.625000
O O6 0.857369 0.142631 0.500000
O O7 0.990163 0.143626 0.454582
O O8 0.367797 0.132204 0.250000
O O9 0.259459 0.085655 0.129017
O O10 0.666768 0.666768 0.500000
O O11 0.750000 0.558327 0.375000
#
# Coordination Sequence:
#
# PCOD8306316 Si02
#       4
#    16  16  16  16
#     4  11  22  41  67  97 135 175 226 284 337 397
#     4  11  21  38  71 102 133 169 221 287 342 410
#     4  10  22  39  63  98 128 171 224 272 338 406
#     4  12  25  42  58  90 138 183 226 262 334 414
#
# _framework density 20.42436
#
# number of rings (size 3 to 8) (size 9 to 14) (size 15 to 20)
#    0.000    1.000    7.500    0.000    0.000    1.500 
#    0.000    0.000    0.000    4.500    0.000    0.000 
#    0.000    0.000    0.000    0.000    0.000    0.000 
#
# Total GULP energy -396493.068839 kJ/mol
# GULP energy per Si atom -12390.408401 kJ/mol
# Density = 2.037787 g / cm^3
# Si number density = 20.424360 Si / 1000 Ang^3
#
#
#
# Elastic Constant Matrix: (Units=GPa)
#
#
# Indices 1 2 3 4 5 6 
#
# 1 117.1064 46.8642 52.7378 0.0000 0.0000 0.0000
# 2 46.8642 117.1065 52.7390 0.0000 0.0000 0.0000
# 3 52.7378 52.7390 105.4474 0.0000 0.0000 0.0000
# 4 0.0000 0.0000 0.0000 -3.1321 0.0000 0.0000
# 5 0.0000 0.0000 0.0000 0.0000 -3.1381 0.0000
# 6 0.0000 0.0000 0.0000 0.0000 0.0000 29.0998
#
#
#
# Elastic Compliance Matrix: (Units=1/GPa)
#
#
# Indices 1 2 3 4 5 6 
#
# 1 0.011614 -0.002623 -0.004497 0.000000 0.000000 0.000000
# 2 -0.002623 0.011614 -0.004497 0.000000 0.000000 0.000000
# 3 -0.004497 -0.004497 0.013982 0.000000 0.000000 0.000000
# 4 0.000000 0.000000 0.000000 -0.319280 0.000000 0.000000
# 5 0.000000 0.000000 0.000000 0.000000 -0.318665 0.000000
# 6 0.000000 0.000000 0.000000 0.000000 0.000000 0.034364
#
#
# Mechanical properties :
#
#
# Convention : Reuss Voigt Hill
#
# Bulk Modulus (GPa) = 71.54822 71.59359 71.57090
# Shear Modulus (GPa) = -9.28542 17.05389 3.88424
#
# Velocity S-wave (km/s) = -2.13451 2.89273 1.38054
# Velocity P-wave (km/s) = 5.38814 6.80341 6.13671
#
# Compressibility (1/GPa) = 0.01397659
#
# Stress axis : x y z
#
# Youngs Moduli (GPa) = 86.10414 86.10311 71.52253
#
# Poissons Ratio (x) = 0.22581 0.32162
# Poissons Ratio (y) = 0.22581 0.32164
# Poissons Ratio (z) = 0.38720 0.38721
#
# Static dielectric constant tensor:
#      x y z
#    x 3.775820 0.000000 0.000000 
#    y 0.000000 3.775790 0.000000 
#    z 0.000000 0.000000 3.534090 
# 
# 
# High freq. dielectric constant tensor:
#      x y z
#    x 1.788990 0.000000 0.000000 
#    y 0.000000 1.788990 0.000000 
#    z 0.000000 0.000000 1.812460 
# 
# From -- ./inp_files/4859.got.cif
#   From: 2010.03.12/outbox.cif.g09.slc.cpg/sg98_3_cif.got.tgz:4859.got - 2010.04.08 21:04:41.
