data_PCOD8306941
_publ_section_title
;
Structure prediction by ZEFSAII (Michael W. Deem and Ramdas Pophale) SiO2 
 PCOD8306941
Probable space group: P 42 N M
;
_chemical_formula_sum "Si O2"
_cell_formula_units_Z 56
_cell_length_a 15.461809
_cell_length_b 15.461809
_cell_length_c 13.892819
_cell_angle_alpha 90.000000
_cell_angle_beta 90.000000
_cell_angle_gamma 90.000000
_cell_volume 3321.322028
_symmetry_space_group_name_H-M "P 42 N M"
_symmetry_group_IT_number 102
_symmetry_cell_setting 'tetragonal'
loop_
_space_group_symop_operation_xyz
x,y,z
1/2-y,1/2+x,1/2+z
-x,-y,z
1/2+y,1/2-x,1/2+z
1/2-x,1/2+y,1/2+z
1/2+x,1/2-y,1/2+z
-y,-x,z
y,x,z
loop_
_atom_site_type_symbol
_atom_site_label
_atom_site_fract_x
_atom_site_fract_y
_atom_site_fract_z
Si Si1 0.175830 0.690104 0.388400
Si Si2 0.125835 0.539936 0.676970
Si Si3 0.225284 0.088647 0.048611
Si Si4 0.991038 0.603556 0.388400
Si Si5 0.141156 0.995004 0.888400
Si Si6 0.225284 0.088648 0.728189
Si Si7 0.374165 0.039936 0.599830
O O1 0.207385 0.792615 0.388400
O O2 0.215151 0.648884 0.483727
O O3 0.215151 0.648885 0.293072
O O4 0.074638 0.666953 0.388400
O O5 0.222799 0.555883 0.641077
O O6 0.124650 0.561496 0.790926
O O7 0.100746 0.440106 0.658560
O O8 0.059894 0.600747 0.618240
O O9 0.141713 0.141713 0.085471
O O10 0.197636 0.005297 0.985108
O O11 0.938504 0.624650 0.485874
O O12 0.000000 0.500000 0.388399
O O13 0.099517 0.900484 0.888399
O O14 0.197637 0.005297 0.791691
O O15 0.071147 0.071147 0.888400
O O16 0.141713 0.141713 0.691329
O O17 0.277201 0.055883 0.635723
#
# Coordination Sequence:
#
# PCOD8306941 Si02
#       7
#     8   8   8   8   8   8   8
#     4   9  16  29  50  70  92 123 164 206 237 284
#     4  11  20  32  51  75  99 131 169 209 250 304
#     4   9  17  31  50  72 101 131 162 204 251 296
#     4  12  19  31  50  75  97 124 170 208 243 301
#     4   8  15  30  54  79  99 128 169 207 244 294
#     4   9  17  31  50  72 101 131 162 204 251 296
#     4  11  20  32  51  75  99 131 169 209 250 304
#
# _framework density 16.860755000000001
#
# number of rings (size 3 to 8) (size 9 to 14) (size 15 to 20)
#    0.000    2.143    5.714    1.714    0.000    1.143 
#    0.000    3.571    0.000    0.000    0.000    0.000 
#    0.000    5.714    0.000    0.000    0.000    0.000 
#
# Total GULP energy -693863.480452 kJ/mol
# GULP energy per Si atom -12390.419294 kJ/mol
# Density = 1.682238 g / cm^3
# Si number density = 16.860755 Si / 1000 Ang^3
#
#
#
# Elastic Constant Matrix: (Units=GPa)
#
#
# Indices 1 2 3 4 5 6 
#
# 1 58.7216 32.9511 32.3798 0.0000 0.0000 -0.0001
# 2 32.9511 58.7216 32.3798 0.0000 0.0000 0.0001
# 3 32.3798 32.3798 132.4273 0.0000 0.0000 0.0000
# 4 0.0000 0.0000 0.0000 2.9672 0.0000 0.0000
# 5 0.0000 0.0000 0.0000 0.0000 2.9672 0.0000
# 6 -0.0001 0.0001 0.0000 0.0000 0.0000 23.1500
#
#
#
# Elastic Compliance Matrix: (Units=1/GPa)
#
#
# Indices 1 2 3 4 5 6 
#
# 1 0.025995 -0.012809 -0.003224 0.000000 0.000000 0.000000
# 2 -0.012809 0.025995 -0.003224 0.000000 0.000000 0.000000
# 3 -0.003224 -0.003224 0.009128 0.000000 0.000000 0.000000
# 4 0.000000 0.000000 0.000000 0.337019 0.000000 0.000000
# 5 0.000000 0.000000 0.000000 0.000000 0.337019 0.000000
# 6 0.000000 0.000000 0.000000 0.000000 0.000000 0.043197
#
#
# Mechanical properties :
#
#
# Convention : Reuss Voigt Hill
#
# Bulk Modulus (GPa) = 44.24097 49.47685 46.85891
# Shear Modulus (GPa) = 6.06501 15.96088 11.01294
#
# Velocity S-wave (km/s) = 1.89866 3.08007 2.55849
# Velocity P-wave (km/s) = 5.57697 6.48515 6.04813
#
# Compressibility (1/GPa) = 0.02260348
#
# Stress axis : x y z
#
# Youngs Moduli (GPa) = 38.46895 38.46895 109.55359
#
# Poissons Ratio (x) = 0.49275 0.35321
# Poissons Ratio (y) = 0.49275 0.35321
# Poissons Ratio (z) = 0.12403 0.12403
#
# Static dielectric constant tensor:
#      x y z
#    x 3.099310 0.000000 0.000000 
#    y 0.000000 3.099310 0.000000 
#    z 0.000000 0.000000 3.188730 
# 
# 
# High freq. dielectric constant tensor:
#      x y z
#    x 1.623460 0.000000 0.000000 
#    y 0.000000 1.623460 0.000000 
#    z 0.000000 0.000000 1.647690 
# 
# From -- ./inp_files/2375.got.cif
#   From: 2010.03.12/outbox.cif.g09.slc.cpg/sg102_2_cif.got.tgz:2375.got - 2010.04.14 01:40:42.
