data_PCOD8306076
_publ_section_title
;
Structure prediction by ZEFSAII (Michael W. Deem and Ramdas Pophale) SiO2 
 PCOD8306076
Probable space group: I 4 2 2 
;
_chemical_formula_sum "Si O2"
_cell_formula_units_Z 72
_cell_length_a 20.472415
_cell_length_b 20.472415
_cell_length_c 8.869911
_cell_angle_alpha 90.000000
_cell_angle_beta 90.000000
_cell_angle_gamma 90.000000
_cell_volume 3717.555111
_symmetry_space_group_name_H-M "I 4 2 2 "
_symmetry_group_IT_number 97
_symmetry_cell_setting 'tetragonal'
loop_
_space_group_symop_operation_xyz
x,y,z
-y,x,z
-x,-y,z
y,-x,z
x,-y,-z
-x,y,-z
y,x,-z
-y,-x,-z
1/2+x,1/2+y,1/2+z
1/2-y,1/2+x,1/2+z
1/2-x,1/2-y,1/2+z
1/2+y,1/2-x,1/2+z
1/2+x,1/2-y,1/2-z
1/2-x,1/2+y,1/2-z
1/2+y,1/2+x,1/2-z
1/2-y,1/2-x,1/2-z
loop_
_atom_site_type_symbol
_atom_site_label
_atom_site_fract_x
_atom_site_fract_y
_atom_site_fract_z
Si Si1 0.176513 0.743142 0.882553
Si Si2 0.863189 0.694855 0.596073
Si Si3 0.500000 0.219216 0.000000
Si Si4 0.392265 0.500000 0.500000
Si Si5 0.943097 0.812236 0.261617
Si Si6 0.155428 0.155428 0.500000
O O1 0.229242 0.729242 0.750000
O O2 0.107840 0.770556 0.832901
O O3 0.206689 0.793312 0.000000
O O4 0.159689 0.675194 0.962022
O O5 0.836805 0.663196 0.750000
O O6 0.938398 0.676689 0.557682
O O7 0.851263 0.773614 0.581069
O O8 0.487080 0.263792 0.855894
O O9 0.434902 0.434902 0.500000
O O10 0.349967 0.506593 0.652265
O O11 0.900541 0.857454 0.375063
#
# Coordination Sequence:
#
# PCOD8306076 Si02
#       6
#    16  16   8   8  16   8
#     4  12  20  36  61  97 124 152 197 270 346 389
#     4  11  22  37  62  94 129 163 200 263 325 402
#     4  10  24  40  58  93 127 164 212 242 334 396
#     4  11  28  46  58  82 122 177 240 264 296 373
#     4  11  24  40  62  88 123 165 212 271 320 387
#     4  10  20  36  62  93 120 158 209 268 346 382
#
# _framework density 19.367569
#
# number of rings (size 3 to 8) (size 9 to 14) (size 15 to 20)
#    0.000    1.000    5.556    2.667    9.333    0.000 
#    0.000    0.000    0.000    0.000    0.000    9.333 
#    0.000    0.000    0.000    0.000    0.000    0.000 
#
# Total GULP energy -446116.668450 kJ/mol
# GULP energy per Si atom -12392.129679 kJ/mol
# Density = 1.932349 g / cm^3
# Si number density = 19.367569 Si / 1000 Ang^3
#
#
#
# Elastic Constant Matrix: (Units=GPa)
#
#
# Indices 1 2 3 4 5 6 
#
# 1 85.8754 56.0586 59.2308 0.0000 0.0000 0.0000
# 2 56.0586 85.8729 59.2317 0.0000 0.0000 0.0000
# 3 59.2308 59.2317 153.6674 0.0000 0.0000 0.0000
# 4 0.0000 0.0000 0.0000 32.3140 0.0000 0.0000
# 5 0.0000 0.0000 0.0000 0.0000 32.3138 0.0000
# 6 0.0000 0.0000 0.0000 0.0000 0.0000 18.2761
#
#
#
# Elastic Compliance Matrix: (Units=1/GPa)
#
#
# Indices 1 2 3 4 5 6 
#
# 1 0.021963 -0.011576 -0.004003 0.000000 0.000000 0.000000
# 2 -0.011576 0.021964 -0.004004 0.000000 0.000000 0.000000
# 3 -0.004003 -0.004004 0.009594 0.000000 0.000000 0.000000
# 4 0.000000 0.000000 0.000000 0.030946 0.000000 0.000000
# 5 0.000000 0.000000 0.000000 0.000000 0.030947 0.000000
# 6 0.000000 0.000000 0.000000 0.000000 0.000000 0.054716
#
#
# Mechanical properties :
#
#
# Convention : Reuss Voigt Hill
#
# Bulk Modulus (GPa) = 69.66931 74.93978 72.30454
# Shear Modulus (GPa) = 23.35551 26.64040 24.99796
#
# Velocity S-wave (km/s) = 3.47639 3.71282 3.59655
# Velocity P-wave (km/s) = 7.22246 7.56026 7.39329
#
# Compressibility (1/GPa) = 0.01435352
#
# Stress axis : x y z
#
# Youngs Moduli (GPa) = 45.53136 45.52905 104.23067
#
# Poissons Ratio (x) = 0.52705 0.41729
# Poissons Ratio (y) = 0.52708 0.41735
# Poissons Ratio (z) = 0.18228 0.18230
#
# Static dielectric constant tensor:
#      x y z
#    x 3.528920 0.000000 0.000000 
#    y 0.000000 3.528920 0.000000 
#    z 0.000000 0.000000 3.970390 
# 
# 
# High freq. dielectric constant tensor:
#      x y z
#    x 1.735400 0.000000 0.000000 
#    y 0.000000 1.735400 0.000000 
#    z 0.000000 0.000000 1.778390 
# 
# From -- ./inp_files/2281.got.cif
#   From: 2010.03.12/outbox.cif.g09.slc.cpg/sg97_2_cif.got.tgz:2281.got - 2010.04.08 20:59:42.
