data_PCOD8306832
_publ_section_title
;
Structure prediction by ZEFSAII (Michael W. Deem and Ramdas Pophale) SiO2 
 PCOD8306832
Probable space group: P 42 N M
;
_chemical_formula_sum "Si O2"
_cell_formula_units_Z 64
_cell_length_a 25.506443
_cell_length_b 25.506443
_cell_length_c 5.333757
_cell_angle_alpha 90.000000
_cell_angle_beta 90.000000
_cell_angle_gamma 90.000000
_cell_volume 3470.028346
_symmetry_space_group_name_H-M "P 42 N M"
_symmetry_group_IT_number 102
_symmetry_cell_setting 'tetragonal'
loop_
_space_group_symop_operation_xyz
x,y,z
1/2-y,1/2+x,1/2+z
-x,-y,z
1/2+y,1/2-x,1/2+z
1/2-x,1/2+y,1/2+z
1/2+x,1/2-y,1/2+z
-y,-x,z
y,x,z
loop_
_atom_site_type_symbol
_atom_site_label
_atom_site_fract_x
_atom_site_fract_y
_atom_site_fract_z
Si Si1 0.036848 0.876747 0.804290
Si Si2 0.729238 0.182755 0.304506
Si Si3 0.237020 0.936225 0.804453
Si Si4 0.586255 0.497801 0.804290
Si Si5 0.109913 0.461372 0.804429
Si Si6 0.408208 0.079369 0.304446
Si Si7 0.773396 0.562865 0.804451
Si Si8 0.316380 0.840324 0.804507
O O1 0.073071 0.926930 0.804278
O O2 0.072945 0.825080 0.804347
O O3 0.001232 0.877930 0.553854
O O4 0.001220 0.877942 0.054687
O O5 0.779398 0.220603 0.304486
O O6 0.749971 0.122356 0.304528
O O7 0.693033 0.193582 0.551550
O O8 0.693027 0.193579 0.057478
O O9 0.253381 0.967894 0.552311
O O10 0.270362 0.883313 0.804545
O O11 0.253348 0.967892 0.056649
O O12 0.558229 0.441772 0.804341
O O13 0.544354 0.544354 0.804284
O O14 0.120949 0.523490 0.804423
O O15 0.079961 0.444555 0.551909
O O16 0.164552 0.430696 0.804361
O O17 0.079975 0.444554 0.056983
O O18 0.365468 0.125706 0.304472
#
# Coordination Sequence:
#
# PCOD8306832 Si02
#       8
#     8   8   8   8   8   8   8   8
#     4  10  19  28  43  74  99 131 182 217 263 331
#     4  10  18  30  54  76 104 147 186 222 283 341
#     4  10  18  30  51  64 103 143 163 220 271 313
#     4   9  17  30  44  60  97 141 173 212 257 311
#     4  12  23  40  60  83 114 159 192 246 283 332
#     4  12  23  40  61  82 117 158 194 240 284 334
#     4  10  19  35  50  73 112 147 182 220 277 335
#     4  10  19  36  50  75 116 148 182 230 275 337
#
# _framework density 18.443653999999999
#
# number of rings (size 3 to 8) (size 9 to 14) (size 15 to 20)
#    0.000    1.625    5.000    2.250    0.000    7.000 
#    0.000    1.250    0.000    0.000    0.000    0.000 
#    0.000   20.000    0.000    0.000    0.000    0.000 
#
# Total GULP energy -792985.621791 kJ/mol
# GULP energy per Si atom -12390.400340 kJ/mol
# Density = 1.840168 g / cm^3
# Si number density = 18.443654 Si / 1000 Ang^3
#
#
#
# Elastic Constant Matrix: (Units=GPa)
#
#
# Indices 1 2 3 4 5 6 
#
# 1 65.4976 27.5719 29.9012 0.0000 0.0000 -0.0002
# 2 27.5719 65.4976 29.9012 0.0000 0.0000 0.0002
# 3 29.9012 29.9012 211.5096 0.0000 0.0000 0.0000
# 4 0.0000 0.0000 0.0000 16.9420 0.0000 0.0000
# 5 0.0000 0.0000 0.0000 0.0000 16.9420 0.0000
# 6 -0.0002 0.0002 0.0000 0.0000 0.0000 15.6997
#
#
#
# Elastic Compliance Matrix: (Units=1/GPa)
#
#
# Indices 1 2 3 4 5 6 
#
# 1 0.019093 -0.007275 -0.001671 0.000000 0.000000 0.000000
# 2 -0.007275 0.019093 -0.001671 0.000000 0.000000 0.000000
# 3 -0.001671 -0.001671 0.005200 0.000000 0.000000 0.000000
# 4 0.000000 0.000000 0.000000 0.059025 0.000000 0.000000
# 5 0.000000 0.000000 0.000000 0.000000 0.059025 0.000000
# 6 0.000000 0.000000 0.000000 0.000000 0.000000 0.063695
#
#
# Mechanical properties :
#
#
# Convention : Reuss Voigt Hill
#
# Bulk Modulus (GPa) = 45.13911 57.47260 51.30585
# Shear Modulus (GPa) = 19.70462 26.92546 23.31504
#
# Velocity S-wave (km/s) = 3.27214 3.82498 3.55931
# Velocity P-wave (km/s) = 6.22921 7.12293 6.69101
#
# Compressibility (1/GPa) = 0.02215374
#
# Stress axis : x y z
#
# Youngs Moduli (GPa) = 52.37582 52.37582 192.29641
#
# Poissons Ratio (x) = 0.38101 0.32128
# Poissons Ratio (y) = 0.38101 0.32128
# Poissons Ratio (z) = 0.08751 0.08751
#
# Static dielectric constant tensor:
#      x y z
#    x 2.984030 0.000000 0.000000 
#    y 0.000000 2.984030 0.000000 
#    z 0.000000 0.000000 5.296170 
# 
# 
# High freq. dielectric constant tensor:
#      x y z
#    x 1.668430 0.000000 0.000000 
#    y 0.000000 1.668430 0.000000 
#    z 0.000000 0.000000 1.764590 
# 
# From -- ./inp_files/457.got.cif
#   From: 2010.03.12/outbox.cif.g09.slc.cpg/sg102_1_cif.got.tgz:457.got - 2010.04.14 01:40:42.
