data_PCOD8306620
_publ_section_title
;
Structure prediction by ZEFSAII (Michael W. Deem and Ramdas Pophale) SiO2 
 PCOD8306620
Probable space group: P 4 M M
;
_chemical_formula_sum "Si O2"
_cell_formula_units_Z 64
_cell_length_a 18.973214
_cell_length_b 18.973214
_cell_length_c 11.852345
_cell_angle_alpha 90.000000
_cell_angle_beta 90.000000
_cell_angle_gamma 90.000000
_cell_volume 4266.640926
_symmetry_space_group_name_H-M "P 4 M M"
_symmetry_group_IT_number 99
_symmetry_cell_setting 'tetragonal'
loop_
_space_group_symop_operation_xyz
x,y,z
-y,x,z
-x,-y,z
y,-x,z
-x,y,z
x,-y,z
-y,-x,z
y,x,z
loop_
_atom_site_type_symbol
_atom_site_label
_atom_site_fract_x
_atom_site_fract_y
_atom_site_fract_z
Si Si1 0.187517 0.418210 0.570780
Si Si2 0.811741 0.695797 0.124636
Si Si3 0.188259 0.695797 0.384551
Si Si4 0.187518 0.581791 0.938406
Si Si5 0.921383 0.189098 0.120380
Si Si6 0.921151 0.416174 0.754594
Si Si7 0.810902 0.078618 0.388815
Si Si8 0.303410 0.580125 0.754592
O O1 0.179640 0.500000 0.538601
O O2 0.192871 0.375135 0.455844
O O3 0.120044 0.391348 0.642511
O O4 0.257429 0.405031 0.643633
O O5 0.741498 0.741498 0.106790
O O6 0.819805 0.673542 0.254594
O O7 0.879422 0.740823 0.083877
O O8 0.807128 0.624865 0.053342
O O9 0.258504 0.741497 0.402397
O O10 0.120580 0.740824 0.425314
O O11 0.179644 0.500000 0.970584
O O12 0.120045 0.608652 0.866675
O O13 0.257430 0.594971 0.865553
O O14 0.880079 0.119922 0.075180
O O15 0.924099 0.186056 0.254597
O O16 0.000000 0.190320 0.068367
O O17 0.922139 0.500000 0.754593
O O18 0.000000 0.384316 0.754595
O O19 0.880079 0.119922 0.434016
O O20 0.809679 0.000000 0.440827
O O21 0.330292 0.500000 0.754594
O O22 0.371208 0.628793 0.754590
#
# Coordination Sequence:
#
# PCOD8306620 Si02
#       8
#     8   8   8   8   8   8   8   8
#     4   9  17  28  43  62  81 106 140 172 203 242
#     4   9  17  28  41  58  83 113 139 166 205 248
#     4   9  17  28  41  58  83 113 139 166 205 248
#     4   9  17  28  43  62  81 106 140 172 203 242
#     4   8  14  24  37  54  76 102 132 164 198 235
#     4   8  15  28  43  59  80 104 131 166 208 247
#     4   8  14  24  37  54  76 102 132 164 198 235
#     4   9  17  29  45  64  84 104 130 168 211 253
#
# _framework density 15.000090999999999
#
# number of rings (size 3 to 8) (size 9 to 14) (size 15 to 20)
#    0.000    3.375    0.000    3.750    0.000    1.875 
#    0.000    1.250    0.000    0.000    0.000    7.000 
#    0.000    0.000    0.000   23.250    0.000   50.750 
#
# Total GULP energy -793271.244582 kJ/mol
# GULP energy per Si atom -12394.863197 kJ/mol
# Density = 1.496595 g / cm^3
# Si number density = 15.000091 Si / 1000 Ang^3
#
#
#
# Elastic Constant Matrix: (Units=GPa)
#
#
# Indices 1 2 3 4 5 6 
#
# 1 103.2166 52.4970 47.6567 0.0000 0.0000 0.0003
# 2 52.4970 103.2166 47.6567 0.0000 0.0000 -0.0003
# 3 47.6567 47.6567 71.0598 0.0000 0.0000 0.0000
# 4 0.0000 0.0000 0.0000 12.4727 0.0000 0.0000
# 5 0.0000 0.0000 0.0000 0.0000 12.4727 0.0000
# 6 0.0003 -0.0003 0.0000 0.0000 0.0000 14.8963
#
#
#
# Elastic Compliance Matrix: (Units=1/GPa)
#
#
# Indices 1 2 3 4 5 6 
#
# 1 0.015305 -0.004411 -0.007306 0.000000 0.000000 0.000000
# 2 -0.004411 0.015305 -0.007306 0.000000 0.000000 0.000000
# 3 -0.007306 -0.007306 0.023873 0.000000 0.000000 0.000000
# 4 0.000000 0.000000 0.000000 0.080175 0.000000 0.000000
# 5 0.000000 0.000000 0.000000 0.000000 0.080175 0.000000
# 6 0.000000 0.000000 0.000000 0.000000 0.000000 0.067131
#
#
# Mechanical properties :
#
#
# Convention : Reuss Voigt Hill
#
# Bulk Modulus (GPa) = 60.84205 63.67933 62.26069
# Shear Modulus (GPa) = 15.36146 16.61386 15.98766
#
# Velocity S-wave (km/s) = 3.20361 3.33165 3.26826
# Velocity P-wave (km/s) = 7.37112 7.57262 7.47255
#
# Compressibility (1/GPa) = 0.01643600
#
# Stress axis : x y z
#
# Youngs Moduli (GPa) = 65.33692 65.33692 41.88874
#
# Poissons Ratio (x) = 0.28820 0.30605
# Poissons Ratio (y) = 0.28820 0.30605
# Poissons Ratio (z) = 0.47737 0.47737
#
# Static dielectric constant tensor:
#      x y z
#    x 2.908300 0.000000 0.000000 
#    y 0.000000 2.908300 0.000000 
#    z 0.000000 0.000000 2.579000 
# 
# 
# High freq. dielectric constant tensor:
#      x y z
#    x 1.570570 0.000000 0.000000 
#    y 0.000000 1.570570 0.000000 
#    z 0.000000 0.000000 1.544610 
# 
# From -- ./inp_files/1590.got.cif
#   From: 2010.03.12/outbox.cif.g09.slc.cpg/sg99_cif.got.tgz:1590.got - 2010.04.08 21:11:30.
