data_PCOD8306371
_publ_section_title
;
Structure prediction by ZEFSAII (Michael W. Deem and Ramdas Pophale) SiO2 
 PCOD8306371
Probable space group: I 41 2 2
;
_chemical_formula_sum "Si O2"
_cell_formula_units_Z 128
_cell_length_a 22.842424
_cell_length_b 22.842424
_cell_length_c 11.877469
_cell_angle_alpha 90.000000
_cell_angle_beta 90.000000
_cell_angle_gamma 90.000000
_cell_volume 6197.382234
_symmetry_space_group_name_H-M "I 41 2 2"
_symmetry_group_IT_number 98
_symmetry_cell_setting 'tetragonal'
loop_
_space_group_symop_operation_xyz
x,y,z
-y,1/2+x,1/4+z
-x,-y,z
y,1/2-x,1/4+z
x,1/2-y,1/4-z
-x,1/2+y,1/4-z
y,x,-z
-y,-x,-z
1/2+x,1/2+y,1/2+z
1/2-y,x,3/4+z
1/2-x,1/2-y,1/2+z
1/2+y,-x,3/4+z
1/2+x,-y,3/4-z
1/2-x,y,3/4-z
1/2+y,1/2+x,1/2-z
1/2-y,1/2-x,1/2-z
loop_
_atom_site_type_symbol
_atom_site_label
_atom_site_fract_x
_atom_site_fract_y
_atom_site_fract_z
Si Si1 0.098782 0.527822 0.056176
Si Si2 0.650274 0.942009 0.731364
Si Si3 0.713497 0.396478 0.269545
Si Si4 0.324110 0.873378 0.636779
Si Si5 0.148433 0.316261 0.633119
Si Si6 0.993071 0.122319 0.204553
Si Si7 0.741425 0.855843 0.750262
Si Si8 0.437293 0.080708 0.123760
O O1 0.111497 0.473563 0.137317
O O2 0.155382 0.569205 0.069179
O O3 0.040398 0.563817 0.088631
O O4 0.088269 0.501727 0.931141
O O5 0.618611 0.881390 0.750000
O O6 0.713432 0.915056 0.690597
O O7 0.653959 0.979939 0.845332
O O8 0.750000 0.421303 0.375000
O O9 0.755676 0.381699 0.164548
O O10 0.682182 0.335348 0.305667
O O11 0.665938 0.445851 0.237365
O O12 0.363214 0.863214 0.750000
O O13 0.126868 0.250000 0.625000
O O14 0.181398 0.318603 0.750000
O O15 0.194567 0.338698 0.541974
O O16 0.090445 0.355149 0.629346
O O17 0.039694 0.105158 0.299287
O O18 0.750000 0.879026 0.875000
O O19 0.702532 0.797469 0.750000
O O20 0.444993 0.055008 0.250000
#
# Coordination Sequence:
#
# PCOD8306371 Si02
#       8
#    16  16  16  16  16  16  16  16
#     4  11  22  37  61  88 127 162 205 252 321 378
#     4  11  22  33  55  92 125 150 202 263 328 387
#     4   9  18  34  60  95 130 159 200 244 322 393
#     4   9  18  35  60  98 126 163 200 250 320 401
#     4  11  24  41  62  82 117 163 218 265 312 367
#     4  11  22  39  61  92 128 166 200 265 316 384
#     4  11  23  37  59  86 119 159 205 263 323 374
#     4  11  26  43  58  87 116 172 228 258 298 364
#
# _framework density 20.653883
#
# number of rings (size 3 to 8) (size 9 to 14) (size 15 to 20)
#    0.000    1.500    1.250    5.250    3.500    5.000 
#    2.250    0.000    0.000    0.000   48.750    0.000 
#    0.000    0.000    0.000    0.000    0.000    0.000 
#
# Total GULP energy -793137.174965 kJ/mol
# GULP energy per Si atom -12392.768359 kJ/mol
# Density = 2.060687 g / cm^3
# Si number density = 20.653883 Si / 1000 Ang^3
#
#
#
# Elastic Constant Matrix: (Units=GPa)
#
#
# Indices 1 2 3 4 5 6 
#
# 1 65.8450 60.9127 22.9393 0.0000 0.0000 0.0000
# 2 60.9127 65.8342 22.9339 0.0000 0.0000 0.0000
# 3 22.9393 22.9339 79.0040 0.0000 0.0000 0.0000
# 4 0.0000 0.0000 0.0000 21.0762 0.0000 0.0000
# 5 0.0000 0.0000 0.0000 0.0000 21.0991 0.0000
# 6 0.0000 0.0000 0.0000 0.0000 0.0000 30.0359
#
#
#
# Elastic Compliance Matrix: (Units=1/GPa)
#
#
# Indices 1 2 3 4 5 6 
#
# 1 0.105886 -0.097077 -0.002564 0.000000 0.000000 0.000000
# 2 -0.097077 0.105900 -0.002555 0.000000 0.000000 0.000000
# 3 -0.002564 -0.002555 0.014144 0.000000 0.000000 0.000000
# 4 0.000000 0.000000 0.000000 0.047447 0.000000 0.000000
# 5 0.000000 0.000000 0.000000 0.000000 0.047395 0.000000
# 6 0.000000 0.000000 0.000000 0.000000 0.000000 0.033294
#
#
# Mechanical properties :
#
#
# Convention : Reuss Voigt Hill
#
# Bulk Modulus (GPa) = 46.43067 47.13945 46.78506
# Shear Modulus (GPa) = 8.83962 21.36871 15.10416
#
# Velocity S-wave (km/s) = 2.07103 3.22002 2.70719
# Velocity P-wave (km/s) = 5.31489 6.05787 5.69850
#
# Compressibility (1/GPa) = 0.02153749
#
# Stress axis : x y z
#
# Youngs Moduli (GPa) = 9.44414 9.44291 70.70291
#
# Poissons Ratio (x) = 0.91669 0.18130
# Poissons Ratio (y) = 0.91681 0.18061
# Poissons Ratio (z) = 0.02422 0.02412
#
# Static dielectric constant tensor:
#      x y z
#    x 4.077210 0.000000 0.000000 
#    y 0.000000 4.076720 0.000000 
#    z 0.000000 0.000000 3.823390 
# 
# 
# High freq. dielectric constant tensor:
#      x y z
#    x 1.811730 0.000000 0.000000 
#    y 0.000000 1.811730 0.000000 
#    z 0.000000 0.000000 1.779010 
# 
# From -- ./inp_files/5507.got.cif
#   From: 2010.03.12/outbox.cif.g09.slc.cpg/sg98_3_cif.got.tgz:5507.got - 2010.04.08 21:04:41.
