data_PCOD8306894
_publ_section_title
;
Structure prediction by ZEFSAII (Michael W. Deem and Ramdas Pophale) SiO2 
 PCOD8306894
Probable space group: P 42 N M
;
_chemical_formula_sum "Si O2"
_cell_formula_units_Z 56
_cell_length_a 14.470488
_cell_length_b 14.470488
_cell_length_c 14.580441
_cell_angle_alpha 90.000000
_cell_angle_beta 90.000000
_cell_angle_gamma 90.000000
_cell_volume 3053.071778
_symmetry_space_group_name_H-M "P 42 N M"
_symmetry_group_IT_number 102
_symmetry_cell_setting 'tetragonal'
loop_
_space_group_symop_operation_xyz
x,y,z
1/2-y,1/2+x,1/2+z
-x,-y,z
1/2+y,1/2-x,1/2+z
1/2-x,1/2+y,1/2+z
1/2+x,1/2-y,1/2+z
-y,-x,z
y,x,z
loop_
_atom_site_type_symbol
_atom_site_label
_atom_site_fract_x
_atom_site_fract_y
_atom_site_fract_z
Si Si1 0.867436 0.632561 0.780600
Si Si2 0.893019 0.519757 0.430987
Si Si3 0.606981 0.980242 0.130213
Si Si4 0.721478 0.421719 0.143794
Si Si5 0.721475 0.578278 0.917407
Si Si6 0.621029 0.770642 0.117864
Si Si7 0.121030 0.270644 0.443337
O O1 0.955980 0.639257 0.847469
O O2 0.860739 0.544018 0.713730
O O3 0.869238 0.726713 0.724689
O O4 0.773284 0.630759 0.836512
O O5 0.844993 0.499999 0.530600
O O6 0.871855 0.626000 0.402960
O O7 0.000000 0.500000 0.443020
O O8 0.628145 0.873999 0.158238
O O9 0.500000 0.000000 0.118186
O O10 0.616578 0.383423 0.137979
O O11 0.718766 0.531542 0.160138
O O12 0.777662 0.394667 0.052260
O O13 0.616573 0.616573 0.923219
O O14 0.718765 0.468455 0.901064
O O15 0.777657 0.605333 0.008940
O O16 0.712640 0.712640 0.143873
O O17 0.212643 0.212643 0.417331
#
# Coordination Sequence:
#
# PCOD8306894 Si02
#       7
#     8   8   8   8   8   8   8
#     4  12  20  32  56  82 109 143 184 230 274 331
#     4  11  19  34  55  78 111 144 180 226 282 329
#     4  11  19  34  55  78 111 144 180 226 282 329
#     4  10  20  34  52  79 109 143 184 224 272 333
#     4  10  20  34  52  79 109 143 184 224 272 333
#     4  10  20  36  54  79 111 143 181 228 279 334
#     4  10  20  36  54  79 111 143 181 228 279 334
#
# _framework density 18.342184
#
# number of rings (size 3 to 8) (size 9 to 14) (size 15 to 20)
#    0.000    1.429    5.714    2.571    0.000    0.571 
#    0.000    5.714    0.000    0.000    0.000    0.000 
#    0.000    2.857    0.000    0.000    0.000    0.000 
#
# Total GULP energy -694090.738463 kJ/mol
# GULP energy per Si atom -12394.477473 kJ/mol
# Density = 1.830044 g / cm^3
# Si number density = 18.342184 Si / 1000 Ang^3
#
#
#
# Elastic Constant Matrix: (Units=GPa)
#
#
# Indices 1 2 3 4 5 6 
#
# 1 87.2217 42.5712 19.5768 0.0000 0.0000 0.0000
# 2 42.5712 87.2217 19.5768 0.0000 0.0000 0.0000
# 3 19.5768 19.5768 68.8137 0.0000 0.0000 0.0000
# 4 0.0000 0.0000 0.0000 15.9174 0.0000 0.0000
# 5 0.0000 0.0000 0.0000 0.0000 15.9174 0.0000
# 6 0.0000 0.0000 0.0000 0.0000 0.0000 28.3721
#
#
#
# Elastic Compliance Matrix: (Units=1/GPa)
#
#
# Indices 1 2 3 4 5 6 
#
# 1 0.015412 -0.006984 -0.002398 0.000000 0.000000 0.000000
# 2 -0.006984 0.015412 -0.002398 0.000000 0.000000 0.000000
# 3 -0.002398 -0.002398 0.015896 0.000000 0.000000 0.000000
# 4 0.000000 0.000000 0.000000 0.062825 0.000000 0.000000
# 5 0.000000 0.000000 0.000000 0.000000 0.062825 0.000000
# 6 0.000000 0.000000 0.000000 0.000000 0.000000 0.035246
#
#
# Mechanical properties :
#
#
# Convention : Reuss Voigt Hill
#
# Bulk Modulus (GPa) = 43.17537 45.18964 44.18251
# Shear Modulus (GPa) = 20.92974 22.81018 21.86996
#
# Velocity S-wave (km/s) = 3.38164 3.53028 3.45676
# Velocity P-wave (km/s) = 6.23195 6.42711 6.33028
#
# Compressibility (1/GPa) = 0.02316135
#
# Stress axis : x y z
#
# Youngs Moduli (GPa) = 64.88443 64.88443 62.90809
#
# Poissons Ratio (x) = 0.45316 0.15083
# Poissons Ratio (y) = 0.45316 0.15083
# Poissons Ratio (z) = 0.15557 0.15557
#
# Static dielectric constant tensor:
#      x y z
#    x 3.220850 0.000000 0.000000 
#    y 0.000000 3.220850 0.000000 
#    z 0.000000 0.000000 3.694410 
# 
# 
# High freq. dielectric constant tensor:
#      x y z
#    x 1.692660 0.000000 0.000000 
#    y 0.000000 1.692660 0.000000 
#    z 0.000000 0.000000 1.712620 
# 
# From -- ./inp_files/2362.got.cif
#   From: 2010.03.12/outbox.cif.g09.slc.cpg/sg102_2_cif.got.tgz:2362.got - 2010.04.14 01:40:42.
