data_PCOD8306677
_publ_section_title
;
Structure prediction by ZEFSAII (Michael W. Deem and Ramdas Pophale) SiO2 
 PCOD8306677
Probable space group: P 4 B M
;
_chemical_formula_sum "Si O2"
_cell_formula_units_Z 64
_cell_length_a 13.791214
_cell_length_b 13.791214
_cell_length_c 19.541856
_cell_angle_alpha 90.000000
_cell_angle_beta 90.000000
_cell_angle_gamma 90.000000
_cell_volume 3716.813790
_symmetry_space_group_name_H-M "P 4 B M"
_symmetry_group_IT_number 100
_symmetry_cell_setting 'tetragonal'
loop_
_space_group_symop_operation_xyz
x,y,z
-y,x,z
-x,-y,z
y,-x,z
1/2-x,1/2+y,z
1/2+x,1/2-y,z
1/2-y,1/2-x,z
1/2+y,1/2+x,z
loop_
_atom_site_type_symbol
_atom_site_label
_atom_site_fract_x
_atom_site_fract_y
_atom_site_fract_z
Si Si1 0.351395 0.437315 0.506080
Si Si2 0.756672 0.098064 0.072567
Si Si3 0.062685 0.148606 0.211012
Si Si4 0.651580 0.446679 0.858545
Si Si5 0.598064 0.256672 0.644525
Si Si6 0.062036 0.146994 0.358546
Si Si7 0.601990 0.736397 0.715301
Si Si8 0.898010 0.236397 0.001791
O O1 0.449342 0.375399 0.514030
O O2 0.275587 0.405111 0.563422
O O3 0.300500 0.415728 0.431386
O O4 0.663619 0.163619 0.057622
O O5 0.775587 0.094888 0.153670
O O6 0.851245 0.139702 0.034068
O O7 0.734098 0.992188 0.044341
O O8 0.084272 0.199500 0.285706
O O9 0.949342 0.124601 0.203062
O O10 0.622313 0.558627 0.858545
O O11 0.717621 0.425105 0.793476
O O12 0.717619 0.425106 0.923616
O O13 0.663619 0.163619 0.659470
O O14 0.492189 0.234098 0.672751
O O15 0.639702 0.351245 0.683024
O O16 0.949639 0.123924 0.358546
O O17 0.674592 0.825408 0.709774
O O18 0.825407 0.325407 0.007316
#
# Coordination Sequence:
#
# PCOD8306677 Si02
#       8
#     8   8   8   8   8   8   8   8
#     4   9  15  27  50  76 106 139 175 224 276 321
#     4  11  22  35  55  81 107 142 188 225 266 322
#     4   9  15  27  50  76 106 139 175 224 276 321
#     4  11  21  36  62  87 108 138 178 223 270 316
#     4  11  22  35  55  81 107 142 188 225 266 322
#     4   7  12  22  41  74 106 135 170 214 274 329
#     4  11  23  39  57  80 113 143 174 223 273 319
#     4  11  23  39  57  80 113 143 174 223 273 319
#
# _framework density 17.219048000000001
#
# number of rings (size 3 to 8) (size 9 to 14) (size 15 to 20)
#    0.000    2.000    5.000    1.875    0.000    1.000 
#    0.000    1.250    0.000    1.500    0.000    0.875 
#    0.000    2.000    0.000    0.000    0.000    0.000 
#
# Total GULP energy -793294.810494 kJ/mol
# GULP energy per Si atom -12395.231414 kJ/mol
# Density = 1.717986 g / cm^3
# Si number density = 17.219048 Si / 1000 Ang^3
#
#
#
# Elastic Constant Matrix: (Units=GPa)
#
#
# Indices 1 2 3 4 5 6 
#
# 1 62.0185 21.6846 20.4628 0.0000 0.0000 -0.0003
# 2 21.6846 62.0185 20.4628 0.0000 0.0000 0.0003
# 3 20.4628 20.4628 128.1388 0.0000 0.0000 0.0000
# 4 0.0000 0.0000 0.0000 13.0928 0.0000 0.0000
# 5 0.0000 0.0000 0.0000 0.0000 13.0928 0.0000
# 6 -0.0003 0.0003 0.0000 0.0000 0.0000 13.2881
#
#
#
# Elastic Compliance Matrix: (Units=1/GPa)
#
#
# Indices 1 2 3 4 5 6 
#
# 1 0.018876 -0.005917 -0.002069 0.000000 0.000000 0.000001
# 2 -0.005917 0.018876 -0.002069 0.000000 0.000000 -0.000001
# 3 -0.002069 -0.002069 0.008465 0.000000 0.000000 0.000000
# 4 0.000000 0.000000 0.000000 0.076378 0.000000 0.000000
# 5 0.000000 0.000000 0.000000 0.000000 0.076378 0.000000
# 6 0.000001 -0.000001 0.000000 0.000000 0.000000 0.075255
#
#
# Mechanical properties :
#
#
# Convention : Reuss Voigt Hill
#
# Bulk Modulus (GPa) = 38.30699 41.93292 40.11995
# Shear Modulus (GPa) = 16.49942 20.53246 18.51594
#
# Velocity S-wave (km/s) = 3.09885 3.45690 3.28276
# Velocity P-wave (km/s) = 5.92444 6.35130 6.14158
#
# Compressibility (1/GPa) = 0.02610490
#
# Stress axis : x y z
#
# Youngs Moduli (GPa) = 52.97756 52.97756 118.13368
#
# Poissons Ratio (x) = 0.31347 0.24447
# Poissons Ratio (y) = 0.31347 0.24447
# Poissons Ratio (z) = 0.10963 0.10963
#
# Static dielectric constant tensor:
#      x y z
#    x 2.918410 0.000000 0.000000 
#    y 0.000000 2.918410 0.000000 
#    z 0.000000 0.000000 3.651390 
# 
# 
# High freq. dielectric constant tensor:
#      x y z
#    x 1.637100 0.000000 0.000000 
#    y 0.000000 1.637100 0.000000 
#    z 0.000000 0.000000 1.693370 
# 
# From -- ./inp_files/1489.got.cif
#   From: 2010.03.12/outbox.cif.g09.slc.cpg/sg100_cif.got.tgz:1489.got - 2010.04.14 01:37:57.
