data_PCOD8306847
_publ_section_title
;
Structure prediction by ZEFSAII (Michael W. Deem and Ramdas Pophale) SiO2 
 PCOD8306847
Probable space group: P 42 N M
;
_chemical_formula_sum "Si O2"
_cell_formula_units_Z 64
_cell_length_a 19.774435
_cell_length_b 19.774435
_cell_length_c 10.143215
_cell_angle_alpha 90.000000
_cell_angle_beta 90.000000
_cell_angle_gamma 90.000000
_cell_volume 3966.283911
_symmetry_space_group_name_H-M "P 42 N M"
_symmetry_group_IT_number 102
_symmetry_cell_setting 'tetragonal'
loop_
_space_group_symop_operation_xyz
x,y,z
1/2-y,1/2+x,1/2+z
-x,-y,z
1/2+y,1/2-x,1/2+z
1/2-x,1/2+y,1/2+z
1/2+x,1/2-y,1/2+z
-y,-x,z
y,x,z
loop_
_atom_site_type_symbol
_atom_site_label
_atom_site_fract_x
_atom_site_fract_y
_atom_site_fract_z
Si Si1 0.988412 0.201439 0.460370
Si Si2 0.497103 0.607135 0.729915
Si Si3 0.293403 0.817395 0.681737
Si Si4 0.075219 0.811856 0.727378
Si Si5 0.182066 0.931349 0.020697
Si Si6 0.362535 0.751774 0.909672
Si Si7 0.782640 0.670485 0.612976
Si Si8 0.652721 0.764353 0.903281
O O1 0.984768 0.133390 0.375045
O O2 0.982655 0.183082 0.615500
O O3 0.926647 0.249915 0.419250
O O4 0.059364 0.235779 0.427719
O O5 0.419639 0.580362 0.724906
O O6 0.545858 0.545858 0.695152
O O7 0.506633 0.665343 0.619144
O O8 0.236334 0.763667 0.715428
O O9 0.262064 0.889666 0.723518
O O10 0.356297 0.794024 0.771966
O O11 0.310733 0.820272 0.524974
O O12 0.130059 0.869942 0.698457
O O13 0.041189 0.819805 0.870851
O O14 0.127478 0.872523 0.040319
O O15 0.255703 0.901680 0.059110
O O16 0.316036 0.683965 0.912527
O O17 0.345496 0.803257 0.028469
O O18 0.723023 0.723023 0.592537
O O19 0.803939 0.665085 0.766783
O O20 0.692504 0.692504 0.904162
#
# Coordination Sequence:
#
# PCOD8306847 Si02
#       8
#     8   8   8   8   8   8   8   8
#     4  11  19  28  43  69  99 124 152 188 243 289
#     4  10  19  30  43  62  92 131 168 194 221 271
#     4   8  14  26  44  65  86 113 151 197 238 270
#     4   9  16  28  48  69  88 119 167 211 232 258
#     4   9  15  27  47  67  83 114 164 208 234 256
#     4  10  19  30  43  64  99 131 149 180 247 305
#     4   9  15  27  48  68  84 114 158 201 237 271
#     4   9  16  28  50  72  87 112 161 210 231 256
#
# _framework density 16.136009999999999
#
# number of rings (size 3 to 8) (size 9 to 14) (size 15 to 20)
#    0.000    2.625    2.500    2.250    0.000    0.000 
#    0.000    2.500    0.000    4.500    0.000    0.000 
#    0.000   12.000    0.000    0.000    0.000    0.000 
#
# Total GULP energy -793012.489116 kJ/mol
# GULP energy per Si atom -12390.820142 kJ/mol
# Density = 1.609928 g / cm^3
# Si number density = 16.136010 Si / 1000 Ang^3
#
#
#
# Elastic Constant Matrix: (Units=GPa)
#
#
# Indices 1 2 3 4 5 6 
#
# 1 54.3856 24.5837 39.2321 0.0000 0.0000 -0.0001
# 2 24.5837 54.3856 39.2321 0.0000 0.0000 0.0001
# 3 39.2321 39.2321 143.8655 0.0000 0.0000 0.0000
# 4 0.0000 0.0000 0.0000 16.9780 0.0000 0.0000
# 5 0.0000 0.0000 0.0000 0.0000 16.9780 0.0000
# 6 -0.0001 0.0001 0.0000 0.0000 0.0000 20.1133
#
#
#
# Elastic Compliance Matrix: (Units=1/GPa)
#
#
# Indices 1 2 3 4 5 6 
#
# 1 0.025462 -0.008093 -0.004737 0.000000 0.000000 0.000000
# 2 -0.008093 0.025462 -0.004737 0.000000 0.000000 0.000000
# 3 -0.004737 -0.004737 0.009534 0.000000 0.000000 0.000000
# 4 0.000000 0.000000 0.000000 0.058900 0.000000 0.000000
# 5 0.000000 0.000000 0.000000 0.000000 0.058900 0.000000
# 6 0.000000 0.000000 0.000000 0.000000 0.000000 0.049718
#
#
# Mechanical properties :
#
#
# Convention : Reuss Voigt Hill
#
# Bulk Modulus (GPa) = 39.48403 50.97028 45.22715
# Shear Modulus (GPa) = 18.41273 20.78642 19.59957
#
# Velocity S-wave (km/s) = 3.38168 3.59305 3.48896
# Velocity P-wave (km/s) = 6.30637 6.99069 6.65733
#
# Compressibility (1/GPa) = 0.02532669
#
# Stress axis : x y z
#
# Youngs Moduli (GPa) = 39.27386 39.27386 104.88428
#
# Poissons Ratio (x) = 0.31783 0.49680
# Poissons Ratio (y) = 0.31783 0.49680
# Poissons Ratio (z) = 0.18603 0.18603
#
# Static dielectric constant tensor:
#      x y z
#    x 2.781980 0.000000 0.000000 
#    y 0.000000 2.781980 0.000000 
#    z 0.000000 0.000000 3.433530 
# 
# 
# High freq. dielectric constant tensor:
#      x y z
#    x 1.576690 0.000000 0.000000 
#    y 0.000000 1.576690 0.000000 
#    z 0.000000 0.000000 1.644840 
# 
# From -- ./inp_files/1943.got.cif
#   From: 2010.03.12/outbox.cif.g09.slc.cpg/sg102_1_cif.got.tgz:1943.got - 2010.04.14 01:40:42.
