data_PCOD8306799
_publ_section_title
;
Structure prediction by ZEFSAII (Michael W. Deem and Ramdas Pophale) SiO2 
 PCOD8306799
Probable space group: P 42 C M
;
_chemical_formula_sum "Si O2"
_cell_formula_units_Z 32
_cell_length_a 10.856694
_cell_length_b 10.856694
_cell_length_c 13.476472
_cell_angle_alpha 90.000000
_cell_angle_beta 90.000000
_cell_angle_gamma 90.000000
_cell_volume 1588.442169
_symmetry_space_group_name_H-M "P 42 C M"
_symmetry_group_IT_number 101
_symmetry_cell_setting 'tetragonal'
loop_
_space_group_symop_operation_xyz
x,y,z
-y,x,1/2+z
-x,-y,z
y,-x,1/2+z
-x,y,1/2+z
x,-y,1/2+z
-y,-x,z
y,x,z
loop_
_atom_site_type_symbol
_atom_site_label
_atom_site_fract_x
_atom_site_fract_y
_atom_site_fract_z
Si Si1 0.648519 0.351482 0.351930
Si Si2 0.401996 0.598005 0.572395
Si Si3 0.303280 0.000919 0.205493
Si Si4 0.098004 0.098004 0.072395
Si Si5 0.500918 0.803279 0.205493
Si Si6 0.851483 0.851483 0.851931
O O1 0.596768 0.403233 0.454016
O O2 0.535150 0.292567 0.291340
O O3 0.750001 0.250000 0.376792
O O4 0.500000 0.500000 0.612188
O O5 0.267931 0.557521 0.611551
O O6 0.380288 0.880288 0.170530
O O7 0.207432 0.964851 0.291340
O O8 0.232069 0.057521 0.111550
O O9 0.395744 0.104256 0.248415
O O10 0.096767 0.096767 0.954016
O O11 0.000000 0.000000 0.112189
#
# Coordination Sequence:
#
# PCOD8306799 Si02
#       6
#     4   4   8   4   8   4
#     4  10  22  40  60  91 124 157 204 252 300 359
#     4  12  24  38  64  92 127 160 200 251 303 363
#     4  10  22  42  65  89 122 162 204 250 300 356
#     4  12  24  38  64  92 127 160 200 251 303 363
#     4  10  22  42  65  89 122 162 204 250 300 356
#     4  10  22  40  60  91 124 157 204 252 300 359
#
# _framework density 20.145526
#
# number of rings (size 3 to 8) (size 9 to 14) (size 15 to 20)
#    0.000    1.500    2.500    2.250    3.500    2.000 
#    0.000    5.000    0.000    0.000    0.000    0.000 
#    0.000    0.000    0.000    0.000    0.000    0.000 
#
# Total GULP energy -396899.961337 kJ/mol
# GULP energy per Si atom -12403.123792 kJ/mol
# Density = 2.009967 g / cm^3
# Si number density = 20.145526 Si / 1000 Ang^3
#
#
#
# Elastic Constant Matrix: (Units=GPa)
#
#
# Indices 1 2 3 4 5 6 
#
# 1 110.8706 59.3137 56.1733 0.0000 0.0000 -0.0002
# 2 59.3137 110.8706 56.1733 0.0000 0.0000 0.0002
# 3 56.1733 56.1733 124.5842 0.0000 0.0000 0.0000
# 4 0.0000 0.0000 0.0000 22.8143 0.0000 0.0000
# 5 0.0000 0.0000 0.0000 0.0000 22.8143 0.0000
# 6 -0.0002 0.0002 0.0000 0.0000 0.0000 46.7149
#
#
#
# Elastic Compliance Matrix: (Units=1/GPa)
#
#
# Indices 1 2 3 4 5 6 
#
# 1 0.013881 -0.005515 -0.003772 0.000000 0.000000 0.000000
# 2 -0.005515 0.013881 -0.003772 0.000000 0.000000 0.000000
# 3 -0.003772 -0.003772 0.011428 0.000000 0.000000 0.000000
# 4 0.000000 0.000000 0.000000 0.043832 0.000000 0.000000
# 5 0.000000 0.000000 0.000000 0.000000 0.043832 0.000000
# 6 0.000000 0.000000 0.000000 0.000000 0.000000 0.021406
#
#
# Mechanical properties :
#
#
# Convention : Reuss Voigt Hill
#
# Bulk Modulus (GPa) = 76.49972 76.62734 76.56353
# Shear Modulus (GPa) = 27.97402 30.11305 29.04353
#
# Velocity S-wave (km/s) = 3.73043 3.87043 3.80107
# Velocity P-wave (km/s) = 7.52402 7.62188 7.57311
#
# Compressibility (1/GPa) = 0.01307194
#
# Stress axis : x y z
#
# Youngs Moduli (GPa) = 72.04032 72.04032 87.50153
#
# Poissons Ratio (x) = 0.39730 0.33007
# Poissons Ratio (y) = 0.39730 0.33007
# Poissons Ratio (z) = 0.27175 0.27175
#
# Static dielectric constant tensor:
#      x y z
#    x 3.814190 0.000000 0.000000 
#    y 0.000000 3.814190 0.000000 
#    z 0.000000 0.000000 3.281130 
# 
# 
# High freq. dielectric constant tensor:
#      x y z
#    x 1.802010 0.000000 0.000000 
#    y 0.000000 1.802010 0.000000 
#    z 0.000000 0.000000 1.758440 
# 
# From -- ./inp_files/1123.got.cif
#   From: 2010.03.12/outbox.cif.g09.slc.cpg/sg101_1_cif.got.tgz:1123.got - 2010.04.14 01:38:52.
