data_PCOD8306073
_publ_section_title
;
Structure prediction by ZEFSAII (Michael W. Deem and Ramdas Pophale) SiO2 
 PCOD8306073
Probable space group: I 4 2 2 
;
_chemical_formula_sum "Si O2"
_cell_formula_units_Z 64
_cell_length_a 12.206935
_cell_length_b 12.206935
_cell_length_c 21.632775
_cell_angle_alpha 90.000000
_cell_angle_beta 90.000000
_cell_angle_gamma 90.000000
_cell_volume 3223.483840
_symmetry_space_group_name_H-M "I 4 2 2 "
_symmetry_group_IT_number 97
_symmetry_cell_setting 'tetragonal'
loop_
_space_group_symop_operation_xyz
x,y,z
-y,x,z
-x,-y,z
y,-x,z
x,-y,-z
-x,y,-z
y,x,-z
-y,-x,-z
1/2+x,1/2+y,1/2+z
1/2-y,1/2+x,1/2+z
1/2-x,1/2-y,1/2+z
1/2+y,1/2-x,1/2+z
1/2+x,1/2-y,1/2-z
1/2-x,1/2+y,1/2-z
1/2+y,1/2+x,1/2-z
1/2-y,1/2-x,1/2-z
loop_
_atom_site_type_symbol
_atom_site_label
_atom_site_fract_x
_atom_site_fract_y
_atom_site_fract_z
Si Si1 0.626540 0.625425 0.259007
Si Si2 0.753077 0.284473 0.850068
Si Si3 0.065946 0.388054 0.075853
Si Si4 0.783656 0.639794 0.538091
O O1 0.500797 0.653274 0.269162
O O2 0.661211 0.653419 0.188874
O O3 0.688614 0.696227 0.309340
O O4 0.850588 0.368860 0.867879
O O5 0.695504 0.233359 0.910754
O O6 0.000000 0.500000 0.087070
O O7 0.979836 0.284324 0.071267
O O8 0.133692 0.385733 0.010792
O O9 0.671913 0.671913 0.500000
#
# Coordination Sequence:
#
# PCOD8306073 Si02
#       4
#    16  16  16  16
#     4  10  22  40  57  82 119 158 203 243 292 353
#     4  10  21  37  61  85 116 159 194 247 298 346
#     4  10  20  35  58  89 118 150 197 245 294 356
#     4   9  18  33  54  83 117 147 183 237 298 349
#
# _framework density 19.854295
#
# number of rings (size 3 to 8) (size 9 to 14) (size 15 to 20)
#    0.000    2.250    0.000    3.000    3.500    0.000 
#    0.000    1.250    0.000   60.000    0.000   12.250 
#    0.000    0.000    0.000    0.000    0.000    0.000 
#
# Total GULP energy -396426.348021 kJ/mol
# GULP energy per Si atom -12388.323376 kJ/mol
# Density = 1.980911 g / cm^3
# Si number density = 19.854295 Si / 1000 Ang^3
#
#
#
# Elastic Constant Matrix: (Units=GPa)
#
#
# Indices 1 2 3 4 5 6 
#
# 1 15.7319 77.7518 13.1906 0.0000 0.0000 0.0000
# 2 77.7518 15.7319 13.1906 0.0000 0.0000 0.0000
# 3 13.1906 13.1906 65.1723 0.0000 0.0000 0.0000
# 4 0.0000 0.0000 0.0000 30.1452 0.0000 0.0000
# 5 0.0000 0.0000 0.0000 0.0000 30.1452 0.0000
# 6 0.0000 0.0000 0.0000 0.0000 0.0000 32.8354
#
#
#
# Elastic Compliance Matrix: (Units=1/GPa)
#
#
# Indices 1 2 3 4 5 6 
#
# 1 -0.002389 0.013734 -0.002296 0.000000 0.000000 0.000000
# 2 0.013734 -0.002389 -0.002296 0.000000 0.000000 0.000000
# 3 -0.002296 -0.002296 0.016273 0.000000 0.000000 0.000000
# 4 0.000000 0.000000 0.000000 0.033173 0.000000 0.000000
# 5 0.000000 0.000000 0.000000 0.000000 0.033173 0.000000
# 6 0.000000 0.000000 0.000000 0.000000 0.000000 0.030455
#
#
# Mechanical properties :
#
#
# Convention : Reuss Voigt Hill
#
# Bulk Modulus (GPa) = 33.58100 33.87802 33.72951
# Shear Modulus (GPa) = 50.03140 18.12536 34.07838
#
# Velocity S-wave (km/s) = 5.02533 3.02473 4.14747
# Velocity P-wave (km/s) = 7.11494 5.41286 6.32145
#
# Compressibility (1/GPa) = 0.02977874
#
# Stress axis : x y z
#
# Youngs Moduli (GPa) = -418.51458 -418.51457 61.44995
#
# Poissons Ratio (x) = 5.74806 0.14110
# Poissons Ratio (y) = 5.74806 0.14110
# Poissons Ratio (z) = -0.96099 -0.96099
#
# Static dielectric constant tensor:
#      x y z
#    x 3.582800 0.000000 0.000000 
#    y 0.000000 3.582800 0.000000 
#    z 0.000000 0.000000 3.794760 
# 
# 
# High freq. dielectric constant tensor:
#      x y z
#    x 1.760150 0.000000 0.000000 
#    y 0.000000 1.760150 0.000000 
#    z 0.000000 0.000000 1.785390 
# 
# From -- ./inp_files/6322.got.cif
#   From: 2010.03.12/outbox.cif.g09.slc.cpg/sg97_4_cif.got.tgz:6322.got - 2010.04.08 20:59:42.
