data_PCOD8306151
_publ_section_title
;
Structure prediction by ZEFSAII (Michael W. Deem and Ramdas Pophale) SiO2 
 PCOD8306151
Probable space group: I 4 2 2 
;
_chemical_formula_sum "Si O2"
_cell_formula_units_Z 96
_cell_length_a 14.639121
_cell_length_b 14.639121
_cell_length_c 23.485795
_cell_angle_alpha 90.000000
_cell_angle_beta 90.000000
_cell_angle_gamma 90.000000
_cell_volume 5033.096609
_symmetry_space_group_name_H-M "I 4 2 2 "
_symmetry_group_IT_number 97
_symmetry_cell_setting 'tetragonal'
loop_
_space_group_symop_operation_xyz
x,y,z
-y,x,z
-x,-y,z
y,-x,z
x,-y,-z
-x,y,-z
y,x,-z
-y,-x,-z
1/2+x,1/2+y,1/2+z
1/2-y,1/2+x,1/2+z
1/2-x,1/2-y,1/2+z
1/2+y,1/2-x,1/2+z
1/2+x,1/2-y,1/2-z
1/2-x,1/2+y,1/2-z
1/2+y,1/2+x,1/2-z
1/2-y,1/2-x,1/2-z
loop_
_atom_site_type_symbol
_atom_site_label
_atom_site_fract_x
_atom_site_fract_y
_atom_site_fract_z
Si Si1 0.297943 0.977524 0.378863
Si Si2 0.170224 0.553173 0.620584
Si Si3 0.500000 0.857551 0.500000
Si Si4 0.645940 0.869222 0.187025
Si Si5 0.938977 0.863385 0.305412
Si Si6 0.344671 0.000000 0.500000
Si Si7 0.162920 0.771936 0.791457
O O1 0.395638 0.926952 0.377556
O O2 0.217403 0.915955 0.350597
O O3 0.304994 0.074097 0.346046
O O4 0.277016 0.988594 0.446083
O O5 0.201243 0.526510 0.556142
O O6 0.158842 0.463501 0.656497
O O7 0.245867 0.617622 0.648711
O O8 0.589494 0.915721 0.484341
O O9 0.608809 0.891192 0.250000
O O10 0.743401 0.820789 0.192320
O O11 0.911621 0.833589 0.241618
O O12 0.045867 0.881014 0.315670
O O13 0.185795 0.685795 0.750000
#
# Coordination Sequence:
#
# PCOD8306151 Si02
#       7
#    16  16   8  16  16   8  16
#     4  11  21  37  61  88 117 160 201 250 304 354
#     4  11  21  36  60  86 119 161 197 246 311 358
#     4   9  18  36  56  84 116 161 196 238 305 360
#     4  11  23  35  58  89 122 150 201 255 300 365
#     4  11  23  40  61  84 120 166 200 238 306 374
#     4   9  18  36  58  83 120 154 196 249 300 354
#     4  11  21  38  56  87 122 156 195 252 301 354
#
# _framework density 19.073744999999999
#
# number of rings (size 3 to 8) (size 9 to 14) (size 15 to 20)
#    0.000    1.333    3.333    4.500    0.000    0.667 
#    0.000    1.667    0.000    1.000    0.000    0.000 
#    0.000    1.333    0.000    0.000    0.000    0.000 
#
# Total GULP energy -594955.542271 kJ/mol
# GULP energy per Si atom -12394.907131 kJ/mol
# Density = 1.903033 g / cm^3
# Si number density = 19.073745 Si / 1000 Ang^3
#
#
#
# Elastic Constant Matrix: (Units=GPa)
#
#
# Indices 1 2 3 4 5 6 
#
# 1 76.1590 18.2146 48.8332 0.0000 0.0000 0.0000
# 2 18.2146 76.1588 48.8331 0.0000 0.0000 0.0000
# 3 48.8332 48.8331 168.2372 0.0000 0.0000 0.0000
# 4 0.0000 0.0000 0.0000 20.8637 0.0000 0.0000
# 5 0.0000 0.0000 0.0000 0.0000 20.8639 0.0000
# 6 0.0000 0.0000 0.0000 0.0000 0.0000 20.8821
#
#
#
# Elastic Compliance Matrix: (Units=1/GPa)
#
#
# Indices 1 2 3 4 5 6 
#
# 1 0.016202 -0.001056 -0.004396 0.000000 0.000000 0.000000
# 2 -0.001056 0.016202 -0.004396 0.000000 0.000000 0.000000
# 3 -0.004396 -0.004396 0.008496 0.000000 0.000000 0.000000
# 4 0.000000 0.000000 0.000000 0.047930 0.000000 0.000000
# 5 0.000000 0.000000 0.000000 0.000000 0.047930 0.000000
# 6 0.000000 0.000000 0.000000 0.000000 0.000000 0.047888
#
#
# Mechanical properties :
#
#
# Convention : Reuss Voigt Hill
#
# Bulk Modulus (GPa) = 47.16376 61.36855 54.26616
# Shear Modulus (GPa) = 23.65044 26.16688 24.90866
#
# Velocity S-wave (km/s) = 3.52511 3.70791 3.61766
# Velocity P-wave (km/s) = 6.43034 7.11166 6.77956
#
# Compressibility (1/GPa) = 0.02120272
#
# Stress axis : x y z
#
# Youngs Moduli (GPa) = 61.72121 61.72098 117.70026
#
# Poissons Ratio (x) = 0.06518 0.51744
# Poissons Ratio (y) = 0.06518 0.51745
# Poissons Ratio (z) = 0.27134 0.27134
#
# Static dielectric constant tensor:
#      x y z
#    x 3.490470 0.000000 0.000000 
#    y 0.000000 3.490480 0.000000 
#    z 0.000000 0.000000 6.500980 
# 
# 
# High freq. dielectric constant tensor:
#      x y z
#    x 1.730250 0.000000 0.000000 
#    y 0.000000 1.730250 0.000000 
#    z 0.000000 0.000000 1.746970 
# 
# From -- ./inp_files/7215.got.cif
#   From: 2010.03.12/outbox.cif.g09.slc.cpg/sg97_4_cif.got.tgz:7215.got - 2010.04.08 20:59:42.
