data_PCOD8306314
_publ_section_title
;
Structure prediction by ZEFSAII (Michael W. Deem and Ramdas Pophale) SiO2 
 PCOD8306314
Probable space group: I 41 2 2
;
_chemical_formula_sum "Si O2"
_cell_formula_units_Z 56
_cell_length_a 10.800658
_cell_length_b 10.800658
_cell_length_c 23.184919
_cell_angle_alpha 90.000000
_cell_angle_beta 90.000000
_cell_angle_gamma 90.000000
_cell_volume 2704.618485
_symmetry_space_group_name_H-M "I 41 2 2"
_symmetry_group_IT_number 98
_symmetry_cell_setting 'tetragonal'
loop_
_space_group_symop_operation_xyz
x,y,z
-y,1/2+x,1/4+z
-x,-y,z
y,1/2-x,1/4+z
x,1/2-y,1/4-z
-x,1/2+y,1/4-z
y,x,-z
-y,-x,-z
1/2+x,1/2+y,1/2+z
1/2-y,x,3/4+z
1/2-x,1/2-y,1/2+z
1/2+y,-x,3/4+z
1/2+x,-y,3/4-z
1/2-x,y,3/4-z
1/2+y,1/2+x,1/2-z
1/2-y,1/2-x,1/2-z
loop_
_atom_site_type_symbol
_atom_site_label
_atom_site_fract_x
_atom_site_fract_y
_atom_site_fract_z
Si Si1 0.166860 0.333141 0.250000
Si Si2 0.250000 0.909329 0.875000
Si Si3 0.740886 0.458927 0.578601
Si Si4 0.000000 0.500000 0.968105
Si Si5 0.388312 0.129624 0.930083
O O1 0.183698 0.472470 0.227222
O O2 0.194204 0.243250 0.195345
O O3 0.322441 0.820277 0.830234
O O4 0.357426 0.992866 0.904273
O O5 0.713762 0.532991 0.637540
O O6 0.888997 0.450625 0.572204
O O7 0.113768 0.457958 0.008890
#
# Coordination Sequence:
#
# PCOD8306314 Si02
#       5
#     8   8  16   8  16
#     4  10  22  37  70  89 120 170 218 265 328 374
#     4  12  22  38  64  94 132 158 206 290 326 368
#     4  11  23  42  63  96 130 171 211 272 330 391
#     4  10  24  42  64  90 132 172 214 260 334 396
#     4  11  21  42  63  96 125 162 220 276 314 391
#
# _framework density 20.705324000000001
#
# number of rings (size 3 to 8) (size 9 to 14) (size 15 to 20)
#    0.000    1.143    5.714    0.000    0.000    5.714 
#   10.286    0.000    0.000    0.000    0.000    0.000 
#    0.000    0.000    0.000    0.000    0.000    0.000 
#
# Total GULP energy -347160.283216 kJ/mol
# GULP energy per Si atom -12398.581543 kJ/mol
# Density = 2.065820 g / cm^3
# Si number density = 20.705324 Si / 1000 Ang^3
#
#
#
# Elastic Constant Matrix: (Units=GPa)
#
#
# Indices 1 2 3 4 5 6 
#
# 1 97.2296 58.0596 38.2998 0.0000 0.0000 0.0000
# 2 58.0596 97.2305 38.2992 0.0000 0.0000 0.0000
# 3 38.2998 38.2992 76.8929 0.0000 0.0000 0.0000
# 4 0.0000 0.0000 0.0000 43.4010 0.0000 0.0000
# 5 0.0000 0.0000 0.0000 0.0000 43.4008 0.0000
# 6 0.0000 0.0000 0.0000 0.0000 0.0000 26.1209
#
#
#
# Elastic Compliance Matrix: (Units=1/GPa)
#
#
# Indices 1 2 3 4 5 6 
#
# 1 0.017033 -0.008496 -0.004252 0.000000 0.000000 0.000000
# 2 -0.008496 0.017033 -0.004252 0.000000 0.000000 0.000000
# 3 -0.004252 -0.004252 0.017241 0.000000 0.000000 0.000000
# 4 0.000000 0.000000 0.000000 0.023041 0.000000 0.000000
# 5 0.000000 0.000000 0.000000 0.000000 0.023041 0.000000
# 6 0.000000 0.000000 0.000000 0.000000 0.000000 0.038283
#
#
# Mechanical properties :
#
#
# Convention : Reuss Voigt Hill
#
# Bulk Modulus (GPa) = 57.78239 60.07448 58.92843
# Shear Modulus (GPa) = 28.49929 31.69750 30.09840
#
# Velocity S-wave (km/s) = 3.71404 3.91690 3.81682
# Velocity P-wave (km/s) = 6.80880 7.03798 6.92434
#
# Compressibility (1/GPa) = 0.01730631
#
# Stress axis : x y z
#
# Youngs Moduli (GPa) = 58.70817 58.70931 58.00111
#
# Poissons Ratio (x) = 0.49881 0.24664
# Poissons Ratio (y) = 0.49880 0.24662
# Poissons Ratio (z) = 0.24965 0.24963
#
# Static dielectric constant tensor:
#      x y z
#    x 3.758970 0.000000 0.000000 
#    y 0.000000 3.758960 0.000000 
#    z 0.000000 0.000000 3.782310 
# 
# 
# High freq. dielectric constant tensor:
#      x y z
#    x 1.797140 0.000000 0.000000 
#    y 0.000000 1.797140 0.000000 
#    z 0.000000 0.000000 1.811980 
# 
# From -- ./inp_files/8484.got.cif
#   From: 2010.03.12/outbox.cif.g09.slc.cpg/sg98_5_cif.got.tgz:8484.got - 2010.04.08 21:04:41.
