data_PCOD8306053
_publ_section_title
;
Structure prediction by ZEFSAII (Michael W. Deem and Ramdas Pophale) SiO2 
 PCOD8306053
Probable space group: I 4 2 2 
;
_chemical_formula_sum "Si O2"
_cell_formula_units_Z 64
_cell_length_a 15.458140
_cell_length_b 15.458140
_cell_length_c 12.723480
_cell_angle_alpha 90.000000
_cell_angle_beta 90.000000
_cell_angle_gamma 90.000000
_cell_volume 3040.327614
_symmetry_space_group_name_H-M "I 4 2 2 "
_symmetry_group_IT_number 97
_symmetry_cell_setting 'tetragonal'
loop_
_space_group_symop_operation_xyz
x,y,z
-y,x,z
-x,-y,z
y,-x,z
x,-y,-z
-x,y,-z
y,x,-z
-y,-x,-z
1/2+x,1/2+y,1/2+z
1/2-y,1/2+x,1/2+z
1/2-x,1/2-y,1/2+z
1/2+y,1/2-x,1/2+z
1/2+x,1/2-y,1/2-z
1/2-x,1/2+y,1/2-z
1/2+y,1/2+x,1/2-z
1/2-y,1/2-x,1/2-z
loop_
_atom_site_type_symbol
_atom_site_label
_atom_site_fract_x
_atom_site_fract_y
_atom_site_fract_z
Si Si1 0.778904 0.920267 0.292771
Si Si2 0.589570 0.725590 0.455311
Si Si3 0.329479 0.587676 0.906857
Si Si4 0.152919 0.411448 0.966550
O O1 0.774973 0.918877 0.168954
O O2 0.831341 0.834759 0.327597
O O3 0.682821 0.916157 0.343868
O O4 0.835801 0.000884 0.337169
O O5 0.500000 0.688106 0.500000
O O6 0.668608 0.668608 0.500000
O O7 0.598550 0.825611 0.490996
O O8 0.402385 0.597616 0.000000
O O9 0.237476 0.590887 0.961731
O O10 0.101568 0.500000 0.000000
#
# Coordination Sequence:
#
# PCOD8306053 Si02
#       4
#    16  16  16  16
#     4  10  19  35  57  85 119 157 199 251 310 370
#     4  12  25  40  59  86 124 171 207 242 301 376
#     4   9  17  33  58  87 116 149 200 261 311 357
#     4   9  20  39  63  89 114 143 198 266 316 364
#
# _framework density 21.050362
#
# number of rings (size 3 to 8) (size 9 to 14) (size 15 to 20)
#    0.000    2.000    0.000    6.750    0.000    1.250 
#    0.000   18.750    0.000    6.000    0.000    0.000 
#    0.000    0.000    0.000    0.000    0.000    0.000 
#
# Total GULP energy -396433.561032 kJ/mol
# GULP energy per Si atom -12388.548782 kJ/mol
# Density = 2.100245 g / cm^3
# Si number density = 21.050362 Si / 1000 Ang^3
#
#
#
# Elastic Constant Matrix: (Units=GPa)
#
#
# Indices 1 2 3 4 5 6 
#
# 1 85.7365 36.0265 33.8855 0.0000 0.0000 0.0000
# 2 36.0265 85.7369 33.8851 0.0000 0.0000 0.0000
# 3 33.8855 33.8851 130.7629 0.0000 0.0000 0.0000
# 4 0.0000 0.0000 0.0000 15.8918 0.0000 0.0000
# 5 0.0000 0.0000 0.0000 0.0000 15.8918 0.0000
# 6 0.0000 0.0000 0.0000 0.0000 0.0000 15.2741
#
#
#
# Elastic Compliance Matrix: (Units=1/GPa)
#
#
# Indices 1 2 3 4 5 6 
#
# 1 0.014857 -0.005260 -0.002487 0.000000 0.000000 0.000000
# 2 -0.005260 0.014857 -0.002487 0.000000 0.000000 0.000000
# 3 -0.002487 -0.002487 0.008936 0.000000 0.000000 0.000000
# 4 0.000000 0.000000 0.000000 0.062925 0.000000 0.000000
# 5 0.000000 0.000000 0.000000 0.000000 0.062926 0.000000
# 6 0.000000 0.000000 0.000000 0.000000 0.000000 0.065470
#
#
# Mechanical properties :
#
#
# Convention : Reuss Voigt Hill
#
# Bulk Modulus (GPa) = 54.99822 56.64785 55.82304
# Shear Modulus (GPa) = 19.49325 22.64082 21.06704
#
# Velocity S-wave (km/s) = 3.04637 3.28312 3.16696
# Velocity P-wave (km/s) = 6.20947 6.42969 6.32054
#
# Compressibility (1/GPa) = 0.01818241
#
# Stress axis : x y z
#
# Youngs Moduli (GPa) = 67.30943 67.30997 111.90309
#
# Poissons Ratio (x) = 0.35404 0.27829
# Poissons Ratio (y) = 0.35404 0.27828
# Poissons Ratio (z) = 0.16739 0.16739
#
# Static dielectric constant tensor:
#      x y z
#    x 4.078310 0.000000 0.000000 
#    y 0.000000 4.078320 0.000000 
#    z 0.000000 0.000000 3.856610 
# 
# 
# High freq. dielectric constant tensor:
#      x y z
#    x 1.813190 0.000000 0.000000 
#    y 0.000000 1.813190 0.000000 
#    z 0.000000 0.000000 1.826860 
# 
# From -- ./inp_files/4562.got.cif
#   From: 2010.03.12/outbox.cif.g09.slc.cpg/sg97_3_cif.got.tgz:4562.got - 2010.04.08 20:59:42.
