data_PCOD8306724
_publ_section_title
;
Structure prediction by ZEFSAII (Michael W. Deem and Ramdas Pophale) SiO2 
 PCOD8306724
Probable space group: P 42 C M
;
_chemical_formula_sum "Si O2"
_cell_formula_units_Z 56
_cell_length_a 20.861993
_cell_length_b 20.861993
_cell_length_c 8.670519
_cell_angle_alpha 90.000000
_cell_angle_beta 90.000000
_cell_angle_gamma 90.000000
_cell_volume 3773.607140
_symmetry_space_group_name_H-M "P 42 C M"
_symmetry_group_IT_number 101
_symmetry_cell_setting 'tetragonal'
loop_
_space_group_symop_operation_xyz
x,y,z
-y,x,1/2+z
-x,-y,z
y,-x,1/2+z
-x,y,1/2+z
x,-y,1/2+z
-y,-x,z
y,x,z
loop_
_atom_site_type_symbol
_atom_site_label
_atom_site_fract_x
_atom_site_fract_y
_atom_site_fract_z
Si Si1 0.724843 0.527085 0.643350
Si Si2 0.575301 0.791693 0.931940
Si Si3 0.910545 0.621976 0.286697
Si Si4 0.012988 0.406388 0.550033
Si Si5 0.580112 0.321253 0.846203
Si Si6 0.671368 0.775806 0.189653
Si Si7 0.920717 0.528272 0.824524
O O1 0.773286 0.484899 0.540160
O O2 0.760842 0.573836 0.762120
O O3 0.681593 0.568456 0.529095
O O4 0.678456 0.483781 0.746170
O O5 0.571993 0.867214 0.905207
O O6 0.641696 0.773174 0.016706
O O7 0.960727 0.632927 0.147175
O O8 0.848889 0.666966 0.252540
O O9 0.895733 0.545289 0.306871
O O10 0.943559 0.643529 0.448766
O O11 0.983468 0.456336 0.426313
O O12 0.061215 0.449339 0.652513
O O13 0.611481 0.388520 0.805191
O O14 0.626640 0.262889 0.805660
O O15 0.743076 0.743076 0.186906
#
# Coordination Sequence:
#
# PCOD8306724 Si02
#       7
#     8   8   8   8   8   8   8
#     4   9  18  31  47  66  78 110 138 178 237 268
#     4  10  19  29  46  62  86 113 152 186 225 275
#     4  11  18  31  43  65  95 122 155 190 221 277
#     4  10  21  27  43  69  98 126 150 183 231 272
#     4   9  18  32  48  66  83 103 139 179 225 279
#     4  10  21  34  46  62  88 124 159 196 225 259
#     4  11  18  28  41  67  94 122 148 189 229 269
#
# _framework density 14.839912999999999
#
# number of rings (size 3 to 8) (size 9 to 14) (size 15 to 20)
#    0.000    2.000    1.429    6.000    4.000    0.571 
#    0.000    2.143    0.000    1.286    0.000    0.000 
#    0.000    0.000    0.000    0.000    0.000    2.143 
#
# Total GULP energy -693760.686564 kJ/mol
# GULP energy per Si atom -12388.583689 kJ/mol
# Density = 1.480614 g / cm^3
# Si number density = 14.839913 Si / 1000 Ang^3
#
#
#
# Elastic Constant Matrix: (Units=GPa)
#
#
# Indices 1 2 3 4 5 6 
#
# 1 57.2759 35.3716 26.8301 0.0000 0.0000 0.0001
# 2 35.3716 57.2759 26.8301 0.0000 0.0000 -0.0001
# 3 26.8301 26.8301 102.2097 0.0000 0.0000 0.0000
# 4 0.0000 0.0000 0.0000 14.5426 0.0000 0.0000
# 5 0.0000 0.0000 0.0000 0.0000 14.5426 0.0000
# 6 0.0001 -0.0001 0.0000 0.0000 0.0000 18.8475
#
#
#
# Elastic Compliance Matrix: (Units=1/GPa)
#
#
# Indices 1 2 3 4 5 6 
#
# 1 0.029191 -0.016462 -0.003341 0.000000 0.000000 0.000000
# 2 -0.016462 0.029191 -0.003341 0.000000 0.000000 0.000000
# 3 -0.003341 -0.003341 0.011538 0.000000 0.000000 0.000000
# 4 0.000000 0.000000 0.000000 0.068764 0.000000 0.000000
# 5 0.000000 0.000000 0.000000 0.000000 0.068764 0.000000
# 6 0.000000 0.000000 0.000000 0.000000 0.000000 0.053057
#
#
# Mechanical properties :
#
#
# Convention : Reuss Voigt Hill
#
# Bulk Modulus (GPa) = 42.31839 43.86946 43.09392
# Shear Modulus (GPa) = 15.88962 18.10185 16.99574
#
# Velocity S-wave (km/s) = 3.27576 3.49636 3.38786
# Velocity P-wave (km/s) = 6.54874 6.77683 6.66376
#
# Compressibility (1/GPa) = 0.02363039
#
# Stress axis : x y z
#
# Youngs Moduli (GPa) = 34.25722 34.25722 86.67009
#
# Poissons Ratio (x) = 0.56395 0.28959
# Poissons Ratio (y) = 0.56395 0.28959
# Poissons Ratio (z) = 0.11446 0.11446
#
# Static dielectric constant tensor:
#      x y z
#    x 2.706920 0.000000 0.000000 
#    y 0.000000 2.706920 0.000000 
#    z 0.000000 0.000000 3.276430 
# 
# 
# High freq. dielectric constant tensor:
#      x y z
#    x 1.527330 0.000000 0.000000 
#    y 0.000000 1.527330 0.000000 
#    z 0.000000 0.000000 1.596510 
# 
# From -- ./inp_files/782.got.cif
#   From: 2010.03.12/outbox.cif.g09.slc.cpg/sg101_1_cif.got.tgz:782.got - 2010.04.14 01:38:52.
