data_PCOD8306476
_publ_section_title
;
Structure prediction by ZEFSAII (Michael W. Deem and Ramdas Pophale) SiO2 
 PCOD8306476
Probable space group: P 4 M M
;
_chemical_formula_sum "Si O2"
_cell_formula_units_Z 64
_cell_length_a 13.610753
_cell_length_b 13.610753
_cell_length_c 20.815576
_cell_angle_alpha 90.000000
_cell_angle_beta 90.000000
_cell_angle_gamma 90.000000
_cell_volume 3856.139517
_symmetry_space_group_name_H-M "P 4 M M"
_symmetry_group_IT_number 99
_symmetry_cell_setting 'tetragonal'
loop_
_space_group_symop_operation_xyz
x,y,z
-y,x,z
-x,-y,z
y,-x,z
-x,y,z
x,-y,z
-y,-x,z
y,x,z
loop_
_atom_site_type_symbol
_atom_site_label
_atom_site_fract_x
_atom_site_fract_y
_atom_site_fract_z
Si Si1 0.114499 0.273394 0.765010
Si Si2 0.888932 0.268076 0.903263
Si Si3 0.222268 0.615696 0.153621
Si Si4 0.886288 0.388702 0.393062
Si Si5 0.615431 0.770031 0.518641
Si Si6 0.888637 0.615586 0.641016
Si Si7 0.274933 0.884300 0.264596
Si Si8 0.721739 0.884086 0.043163
O O1 0.170325 0.170325 0.759912
O O2 0.135236 0.324675 0.835700
O O3 0.152989 0.344289 0.708656
O O4 0.000000 0.251179 0.756133
O O5 0.833779 0.166222 0.903977
O O6 0.000000 0.234660 0.902346
O O7 0.867106 0.323657 0.970846
O O8 0.245456 0.500000 0.156275
O O9 0.325492 0.674509 0.153884
O O10 0.155715 0.646056 0.214016
O O11 0.159176 0.639673 0.090247
O O12 0.856094 0.500000 0.374422
O O13 0.828953 0.351889 0.455547
O O14 0.860494 0.317284 0.334652
O O15 0.000000 0.383993 0.410954
O O16 0.500000 0.755789 0.521855
O O17 0.662742 0.662742 0.516387
O O18 0.656049 0.826418 0.581260
O O19 0.880917 0.500000 0.644775
O O20 0.000000 0.650119 0.629821
O O21 0.170774 0.829227 0.255916
O O22 0.257937 0.000000 0.253787
O O23 0.824612 0.824612 0.052714
O O24 0.740458 0.000000 0.057007
#
# Coordination Sequence:
#
# PCOD8306476 Si02
#       8
#     8   8   8   8   8   8   8   8
#     4   9  16  26  41  61  86 115 144 176 215 259
#     4   8  14  24  38  58  86 118 149 180 213 252
#     4  10  21  36  53  72  93 118 151 191 234 278
#     4   9  17  30  49  71  92 116 149 187 224 261
#     4  10  19  30  45  64  87 114 143 178 220 266
#     4   9  17  29  44  61  81 107 142 183 223 261
#     4  10  20  33  50  73 100 129 159 189 221 260
#     4   9  17  29  45  67  95 125 156 188 222 264
#
# _framework density 16.596910000000001
#
# number of rings (size 3 to 8) (size 9 to 14) (size 15 to 20)
#    0.000    2.750    0.000    1.875    0.000    3.750 
#    0.000    3.125    0.000    4.500    0.000    1.750 
#    0.000    9.000    0.000    7.875    0.000    0.000 
#
# Total GULP energy -793002.227133 kJ/mol
# GULP energy per Si atom -12390.659799 kJ/mol
# Density = 1.655913 g / cm^3
# Si number density = 16.596910 Si / 1000 Ang^3
#
#
#
# Elastic Constant Matrix: (Units=GPa)
#
#
# Indices 1 2 3 4 5 6 
#
# 1 70.6213 38.4764 50.2275 0.0000 0.0000 0.0001
# 2 38.4764 70.6213 50.2275 0.0000 0.0000 -0.0001
# 3 50.2275 50.2275 145.9709 0.0000 0.0000 0.0000
# 4 0.0000 0.0000 0.0000 22.6874 0.0000 0.0000
# 5 0.0000 0.0000 0.0000 0.0000 22.6874 0.0000
# 6 0.0001 -0.0001 0.0000 0.0000 0.0000 19.2875
#
#
#
# Elastic Compliance Matrix: (Units=1/GPa)
#
#
# Indices 1 2 3 4 5 6 
#
# 1 0.022263 -0.008846 -0.004617 0.000000 0.000000 0.000000
# 2 -0.008846 0.022263 -0.004617 0.000000 0.000000 0.000000
# 3 -0.004617 -0.004617 0.010028 0.000000 0.000000 0.000000
# 4 0.000000 0.000000 0.000000 0.044077 0.000000 0.000000
# 5 0.000000 0.000000 0.000000 0.000000 0.044077 0.000000
# 6 0.000000 0.000000 0.000000 0.000000 0.000000 0.051847
#
#
# Mechanical properties :
#
#
# Convention : Reuss Voigt Hill
#
# Bulk Modulus (GPa) = 54.36220 62.78622 58.57421
# Shear Modulus (GPa) = 21.11073 22.81793 21.96433
#
# Velocity S-wave (km/s) = 3.57033 3.71189 3.64180
# Velocity P-wave (km/s) = 7.05846 7.50220 7.28371
#
# Compressibility (1/GPa) = 0.01839514
#
# Stress axis : x y z
#
# Youngs Moduli (GPa) = 44.91736 44.91736 99.72242
#
# Poissons Ratio (x) = 0.39734 0.46039
# Poissons Ratio (y) = 0.39734 0.46039
# Poissons Ratio (z) = 0.20737 0.20737
#
# Static dielectric constant tensor:
#      x y z
#    x 2.913900 0.000000 0.000000 
#    y 0.000000 2.913900 0.000000 
#    z 0.000000 0.000000 3.651120 
# 
# 
# High freq. dielectric constant tensor:
#      x y z
#    x 1.617900 0.000000 0.000000 
#    y 0.000000 1.617900 0.000000 
#    z 0.000000 0.000000 1.667530 
# 
# From -- ./inp_files/2348.got.cif
#   From: 2010.03.12/outbox.cif.g09.slc.cpg/sg99_cif.got.tgz:2348.got - 2010.04.08 21:11:30.
