data_PCOD8306877
_publ_section_title
;
Structure prediction by ZEFSAII (Michael W. Deem and Ramdas Pophale) SiO2 
 PCOD8306877
Probable space group: P 42 N M
;
_chemical_formula_sum "Si O2"
_cell_formula_units_Z 56
_cell_length_a 11.793591
_cell_length_b 11.793591
_cell_length_c 22.632004
_cell_angle_alpha 90.000000
_cell_angle_beta 90.000000
_cell_angle_gamma 90.000000
_cell_volume 3147.858022
_symmetry_space_group_name_H-M "P 42 N M"
_symmetry_group_IT_number 102
_symmetry_cell_setting 'tetragonal'
loop_
_space_group_symop_operation_xyz
x,y,z
1/2-y,1/2+x,1/2+z
-x,-y,z
1/2+y,1/2-x,1/2+z
1/2-x,1/2+y,1/2+z
1/2+x,1/2-y,1/2+z
-y,-x,z
y,x,z
loop_
_atom_site_type_symbol
_atom_site_label
_atom_site_fract_x
_atom_site_fract_y
_atom_site_fract_z
Si Si1 0.406215 0.086752 0.280100
Si Si2 0.811540 0.998918 0.998628
Si Si3 0.905479 0.905479 0.666813
Si Si4 0.001018 0.818721 0.226637
Si Si5 0.447193 0.260827 0.372711
Si Si6 0.333043 0.000255 0.657082
Si Si7 0.404055 0.595946 0.299015
Si Si8 0.818971 0.484401 0.616540
O O1 0.293944 0.015394 0.265161
O O2 0.380221 0.161878 0.338375
O O3 0.452930 0.160740 0.224610
O O4 0.500000 0.000000 0.301412
O O5 0.879848 0.879848 0.998707
O O6 0.719585 0.007558 0.050358
O O7 0.898368 0.101633 0.005994
O O8 0.735055 0.010708 0.939241
O O9 0.791259 0.956060 0.637718
O O10 0.870828 0.870828 0.732908
O O11 0.000000 0.000000 0.662105
O O12 0.909068 0.909068 0.248161
O O13 0.977195 0.791961 0.157621
O O14 0.127022 0.872979 0.234550
O O15 0.370225 0.370225 0.378417
O O16 0.554984 0.291531 0.332358
O O17 0.417959 0.104082 0.646256
O O18 0.368431 0.893107 0.616262
O O19 0.500000 0.500000 0.297411
#
# Coordination Sequence:
#
# PCOD8306877 Si02
#       8
#     8   8   4   8   8   8   4   8
#     4  11  20  36  52  80 110 145 180 222 273 325
#     4  10  20  34  55  82 107 136 178 224 276 329
#     4  11  22  32  54  86 111 147 181 222 284 339
#     4  10  20  33  53  80 110 144 183 222 265 320
#     4  10  19  34  54  79 110 138 169 219 275 333
#     4  10  21  35  52  77 113 144 182 224 271 327
#     4   9  16  28  50  78 108 131 159 206 271 327
#     4  10  20  36  52  76 107 148 181 224 271 319
#
# _framework density 17.789876
#
# number of rings (size 3 to 8) (size 9 to 14) (size 15 to 20)
#    0.000    1.857    5.000    1.286    2.000    4.000 
#    3.857    0.000    0.000    0.000    0.000    0.000 
#    0.000    0.000    0.000    0.000    0.000    0.000 
#
# Total GULP energy -694050.656105 kJ/mol
# GULP energy per Si atom -12393.761716 kJ/mol
# Density = 1.774939 g / cm^3
# Si number density = 17.789876 Si / 1000 Ang^3
#
#
#
# Elastic Constant Matrix: (Units=GPa)
#
#
# Indices 1 2 3 4 5 6 
#
# 1 90.3862 43.4307 35.7634 0.0000 0.0000 0.0000
# 2 43.4307 90.3862 35.7634 0.0000 0.0000 0.0000
# 3 35.7634 35.7634 107.2288 0.0000 0.0000 0.0000
# 4 0.0000 0.0000 0.0000 22.9517 0.0000 0.0000
# 5 0.0000 0.0000 0.0000 0.0000 22.9517 0.0000
# 6 0.0000 0.0000 0.0000 0.0000 0.0000 29.1180
#
#
#
# Elastic Compliance Matrix: (Units=1/GPa)
#
#
# Indices 1 2 3 4 5 6 
#
# 1 0.015195 -0.006101 -0.003033 0.000000 0.000000 0.000000
# 2 -0.006101 0.015195 -0.003033 0.000000 0.000000 0.000000
# 3 -0.003033 -0.003033 0.011349 0.000000 0.000000 0.000000
# 4 0.000000 0.000000 0.000000 0.043570 0.000000 0.000000
# 5 0.000000 0.000000 0.000000 0.000000 0.043570 0.000000
# 6 0.000000 0.000000 0.000000 0.000000 0.000000 0.034343
#
#
# Mechanical properties :
#
#
# Convention : Reuss Voigt Hill
#
# Bulk Modulus (GPa) = 57.45508 57.54624 57.50066
# Shear Modulus (GPa) = 25.85861 26.54054 26.19957
#
# Velocity S-wave (km/s) = 3.81669 3.86669 3.84177
# Velocity P-wave (km/s) = 7.19649 7.23554 7.21604
#
# Compressibility (1/GPa) = 0.01740490
#
# Stress axis : x y z
#
# Youngs Moduli (GPa) = 65.80925 65.80925 88.11289
#
# Poissons Ratio (x) = 0.40152 0.26726
# Poissons Ratio (y) = 0.40152 0.26726
# Poissons Ratio (z) = 0.19961 0.19961
#
# Static dielectric constant tensor:
#      x y z
#    x 3.293760 0.000000 0.000000 
#    y 0.000000 3.293760 0.000000 
#    z 0.000000 0.000000 3.181820 
# 
# 
# High freq. dielectric constant tensor:
#      x y z
#    x 1.682420 0.000000 0.000000 
#    y 0.000000 1.682420 0.000000 
#    z 0.000000 0.000000 1.664310 
# 
# From -- ./inp_files/3386.got.cif
#   From: 2010.03.12/outbox.cif.g09.slc.cpg/sg102_2_cif.got.tgz:3386.got - 2010.04.14 01:40:42.
