data_PCOD8306744
_publ_section_title
;
Structure prediction by ZEFSAII (Michael W. Deem and Ramdas Pophale) SiO2 
 PCOD8306744
Probable space group: P 42 C M
;
_chemical_formula_sum "Si O2"
_cell_formula_units_Z 64
_cell_length_a 11.640049
_cell_length_b 11.640049
_cell_length_c 23.748093
_cell_angle_alpha 90.000000
_cell_angle_beta 90.000000
_cell_angle_gamma 90.000000
_cell_volume 3217.646711
_symmetry_space_group_name_H-M "P 42 C M"
_symmetry_group_IT_number 101
_symmetry_cell_setting 'tetragonal'
loop_
_space_group_symop_operation_xyz
x,y,z
-y,x,1/2+z
-x,-y,z
y,-x,1/2+z
-x,y,1/2+z
x,-y,1/2+z
-y,-x,z
y,x,z
loop_
_atom_site_type_symbol
_atom_site_label
_atom_site_fract_x
_atom_site_fract_y
_atom_site_fract_z
Si Si1 0.650416 0.844582 0.882210
Si Si2 0.445574 0.261520 0.569190
Si Si3 0.683368 0.501912 0.447156
Si Si4 0.259002 0.073104 0.565817
Si Si5 0.354728 0.829613 0.255788
Si Si6 0.004004 0.812631 0.945596
Si Si7 0.558276 0.259442 0.686875
Si Si8 0.631260 0.974294 0.169612
O O1 0.746115 0.746115 0.886952
O O2 0.533874 0.800102 0.914026
O O3 0.609597 0.868103 0.818471
O O4 0.704029 0.964106 0.907048
O O5 0.365580 0.365580 0.588610
O O6 0.515697 0.292084 0.513236
O O7 0.371579 0.149261 0.555625
O O8 0.530146 0.243336 0.620996
O O9 0.584276 0.415725 0.428042
O O10 0.633137 0.633137 0.436051
O O11 0.151212 0.151212 0.583638
O O12 0.232349 0.003401 0.509430
O O13 0.284340 0.984608 0.616235
O O14 0.235270 0.764731 0.259320
O O15 0.449303 0.745924 0.227935
O O16 0.330792 0.939340 0.218069
O O17 0.911482 0.911482 0.939387
O O18 0.130172 0.869829 0.930299
O O19 0.621192 0.378809 0.699550
O O20 0.642274 0.151360 0.697720
O O21 0.500000 0.000000 0.151385
#
# Coordination Sequence:
#
# PCOD8306744 Si02
#       8
#     8   8   8   8   8   8   8   8
#     4   9  19  35  58  83 109 148 194 238 294 350
#     4  10  19  33  53  81 115 151 188 230 285 348
#     4   9  18  32  50  77 115 151 186 234 289 350
#     4  10  19  33  55  81 111 147 186 236 287 340
#     4  10  20  38  61  83 109 151 198 239 283 342
#     4   9  19  35  55  82 113 145 190 246 298 351
#     4  11  23  36  55  84 116 150 189 240 294 344
#     4  10  20  35  53  77 112 149 188 229 281 341
#
# _framework density 19.890312999999999
#
# number of rings (size 3 to 8) (size 9 to 14) (size 15 to 20)
#    0.000    2.250    2.500    1.125    1.750    2.500 
#    0.000    5.625    0.000    3.375    0.000    0.000 
#    0.000    0.000    0.000    0.000    0.000    0.000 
#
# Total GULP energy -793170.835382 kJ/mol
# GULP energy per Si atom -12393.294303 kJ/mol
# Density = 1.984504 g / cm^3
# Si number density = 19.890313 Si / 1000 Ang^3
#
#
#
# Elastic Constant Matrix: (Units=GPa)
#
#
# Indices 1 2 3 4 5 6 
#
# 1 51.8242 27.4490 35.2973 0.0000 0.0000 0.0002
# 2 27.4490 51.8242 35.2973 0.0000 0.0000 -0.0002
# 3 35.2973 35.2973 126.1283 0.0000 0.0000 0.0000
# 4 0.0000 0.0000 0.0000 24.9037 0.0000 0.0000
# 5 0.0000 0.0000 0.0000 0.0000 24.9037 0.0000
# 6 0.0002 -0.0002 0.0000 0.0000 0.0000 25.3963
#
#
#
# Elastic Compliance Matrix: (Units=1/GPa)
#
#
# Indices 1 2 3 4 5 6 
#
# 1 0.028914 -0.012112 -0.004702 0.000000 0.000000 0.000000
# 2 -0.012112 0.028914 -0.004702 0.000000 0.000000 0.000000
# 3 -0.004702 -0.004702 0.010560 0.000000 0.000000 0.000000
# 4 0.000000 0.000000 0.000000 0.040155 0.000000 0.000000
# 5 0.000000 0.000000 0.000000 0.000000 0.040155 0.000000
# 6 0.000000 0.000000 0.000000 0.000000 0.000000 0.039376
#
#
# Mechanical properties :
#
#
# Convention : Reuss Voigt Hill
#
# Bulk Modulus (GPa) = 39.43873 47.31818 43.37845
# Shear Modulus (GPa) = 20.87194 23.82293 22.34743
#
# Velocity S-wave (km/s) = 3.24288 3.46456 3.35555
# Velocity P-wave (km/s) = 5.82176 6.31232 6.07200
#
# Compressibility (1/GPa) = 0.02535579
#
# Stress axis : x y z
#
# Youngs Moduli (GPa) = 34.58585 34.58585 94.69524
#
# Poissons Ratio (x) = 0.41889 0.44526
# Poissons Ratio (y) = 0.41889 0.44526
# Poissons Ratio (z) = 0.16262 0.16262
#
# Static dielectric constant tensor:
#      x y z
#    x 3.704330 0.000000 0.000000 
#    y 0.000000 3.704330 0.000000 
#    z 0.000000 0.000000 3.583630 
# 
# 
# High freq. dielectric constant tensor:
#      x y z
#    x 1.764670 0.000000 0.000000 
#    y 0.000000 1.764670 0.000000 
#    z 0.000000 0.000000 1.766910 
# 
# From -- ./inp_files/2775.got.cif
#   From: 2010.03.12/outbox.cif.g09.slc.cpg/sg101_2_cif.got.tgz:2775.got - 2010.04.14 01:38:52.
