data_PCOD8306475
_publ_section_title
;
Structure prediction by ZEFSAII (Michael W. Deem and Ramdas Pophale) SiO2 
 PCOD8306475
Probable space group: P 4 M M
;
_chemical_formula_sum "Si O2"
_cell_formula_units_Z 56
_cell_length_a 14.101656
_cell_length_b 14.101656
_cell_length_c 17.846331
_cell_angle_alpha 90.000000
_cell_angle_beta 90.000000
_cell_angle_gamma 90.000000
_cell_volume 3548.862524
_symmetry_space_group_name_H-M "P 4 M M"
_symmetry_group_IT_number 99
_symmetry_cell_setting 'tetragonal'
loop_
_space_group_symop_operation_xyz
x,y,z
-y,x,z
-x,-y,z
y,-x,z
-x,y,z
x,-y,z
-y,-x,z
y,x,z
loop_
_atom_site_type_symbol
_atom_site_label
_atom_site_fract_x
_atom_site_fract_y
_atom_site_fract_z
Si Si1 0.234658 0.611060 0.673470
Si Si2 0.111280 0.733733 0.387817
Si Si3 0.263474 0.890636 0.117054
Si Si4 0.112158 0.394388 0.250572
Si Si5 0.891564 0.738950 0.948263
Si Si6 0.389738 0.891538 0.812715
Si Si7 0.391574 0.891446 0.531235
O O1 0.258137 0.500000 0.677428
O O2 0.333595 0.666406 0.671713
O O3 0.173944 0.645015 0.744816
O O4 0.174520 0.636704 0.600255
O O5 0.167318 0.832683 0.388534
O O6 0.148568 0.669894 0.319008
O O7 0.134390 0.676116 0.462774
O O8 0.000000 0.757426 0.380543
O O9 0.168652 0.831349 0.133164
O O10 0.347010 0.856654 0.172166
O O11 0.236687 0.000000 0.132048
O O12 0.300599 0.874690 0.032295
O O13 0.157112 0.500000 0.255150
O O14 0.000000 0.403052 0.255746
O O15 0.834397 0.834397 0.933682
O O16 0.858545 0.659733 0.889455
O O17 0.000000 0.767032 0.935848
O O18 0.500000 0.878625 0.827192
O O19 0.364872 0.000000 0.792170
O O20 0.500000 0.874079 0.505871
O O21 0.377839 0.000000 0.556827
#
# Coordination Sequence:
#
# PCOD8306475 Si02
#       7
#     8   8   8   8   8   8   8
#     4  10  19  30  45  64  87 114 142 175 215 259
#     4  10  19  30  45  65  90 118 145 173 206 248
#     4   9  17  28  42  62  88 116 144 173 207 251
#     4   9  17  29  44  61  82 109 141 177 214 246
#     4   9  17  28  42  61  86 115 144 174 208 249
#     4   9  17  29  45  64  84 108 141 180 221 260
#     4   9  17  30  48  68  88 111 142 179 216 251
#
# _framework density 15.779704000000001
#
# number of rings (size 3 to 8) (size 9 to 14) (size 15 to 20)
#    0.000    2.714    0.000    2.143    0.000    4.571 
#    0.000    4.286    0.000    2.571    0.000    0.000 
#    0.000   22.857    0.000   10.571    0.000    0.857 
#
# Total GULP energy -694353.230317 kJ/mol
# GULP energy per Si atom -12399.164827 kJ/mol
# Density = 1.574379 g / cm^3
# Si number density = 15.779704 Si / 1000 Ang^3
#
#
#
# Elastic Constant Matrix: (Units=GPa)
#
#
# Indices 1 2 3 4 5 6 
#
# 1 74.5680 49.2574 58.0229 0.0000 0.0000 0.0003
# 2 49.2574 74.5680 58.0229 0.0000 0.0000 -0.0003
# 3 58.0229 58.0229 124.7337 0.0000 0.0000 0.0000
# 4 0.0000 0.0000 0.0000 23.1459 0.0000 0.0000
# 5 0.0000 0.0000 0.0000 0.0000 23.1459 0.0000
# 6 0.0003 -0.0003 0.0000 0.0000 0.0000 23.3683
#
#
#
# Elastic Compliance Matrix: (Units=1/GPa)
#
#
# Indices 1 2 3 4 5 6 
#
# 1 0.026913 -0.012596 -0.006660 0.000000 0.000000 0.000000
# 2 -0.012596 0.026913 -0.006660 0.000000 0.000000 0.000000
# 3 -0.006660 -0.006660 0.014213 0.000000 0.000000 0.000000
# 4 0.000000 0.000000 0.000000 0.043204 0.000000 0.000000
# 5 0.000000 0.000000 0.000000 0.000000 0.043204 0.000000
# 6 0.000000 0.000000 0.000000 0.000000 0.000000 0.042793
#
#
# Mechanical properties :
#
#
# Convention : Reuss Voigt Hill
#
# Bulk Modulus (GPa) = 61.69838 67.16402 64.43120
# Shear Modulus (GPa) = 19.64820 21.16981 20.40900
#
# Velocity S-wave (km/s) = 3.53251 3.66674 3.60025
# Velocity P-wave (km/s) = 7.47147 7.78348 7.62907
#
# Compressibility (1/GPa) = 0.01620788
#
# Stress axis : x y z
#
# Youngs Moduli (GPa) = 37.15626 37.15626 70.35614
#
# Poissons Ratio (x) = 0.46801 0.46859
# Poissons Ratio (y) = 0.46801 0.46859
# Poissons Ratio (z) = 0.24747 0.24747
#
# Static dielectric constant tensor:
#      x y z
#    x 2.881060 0.000000 0.000000 
#    y 0.000000 2.881060 0.000000 
#    z 0.000000 0.000000 3.214970 
# 
# 
# High freq. dielectric constant tensor:
#      x y z
#    x 1.589450 0.000000 0.000000 
#    y 0.000000 1.589450 0.000000 
#    z 0.000000 0.000000 1.622550 
# 
# From -- ./inp_files/1809.got.cif
#   From: 2010.03.12/outbox.cif.g09.slc.cpg/sg99_cif.got.tgz:1809.got - 2010.04.08 21:11:30.
