data_PCOD8306684
_publ_section_title
;
Structure prediction by ZEFSAII (Michael W. Deem and Ramdas Pophale) SiO2 
 PCOD8306684
Probable space group: P 4 B M
;
_chemical_formula_sum "Si O2"
_cell_formula_units_Z 48
_cell_length_a 14.363801
_cell_length_b 14.363801
_cell_length_c 11.608815
_cell_angle_alpha 90.000000
_cell_angle_beta 90.000000
_cell_angle_gamma 90.000000
_cell_volume 2395.116538
_symmetry_space_group_name_H-M "P 4 B M"
_symmetry_group_IT_number 100
_symmetry_cell_setting 'tetragonal'
loop_
_space_group_symop_operation_xyz
x,y,z
-y,x,z
-x,-y,z
y,-x,z
1/2-x,1/2+y,z
1/2+x,1/2-y,z
1/2-y,1/2-x,z
1/2+y,1/2+x,z
loop_
_atom_site_type_symbol
_atom_site_label
_atom_site_fract_x
_atom_site_fract_y
_atom_site_fract_z
Si Si1 0.646286 0.520192 0.438550
Si Si2 0.923337 0.423337 0.293965
Si Si3 0.064533 0.282563 0.248400
Si Si4 0.571549 0.364670 0.055622
Si Si5 0.842972 0.810358 0.815119
Si Si6 0.078801 0.578801 0.555511
Si Si7 0.514110 0.732562 0.674212
O O1 0.577776 0.602916 0.400465
O O2 0.740744 0.541177 0.372676
O O3 0.660581 0.513524 0.574576
O O4 0.840032 0.469459 0.218069
O O5 0.893192 0.393192 0.424164
O O6 0.000000 0.500000 0.318555
O O7 0.149924 0.350077 0.268903
O O8 0.097639 0.208988 0.153850
O O9 0.624033 0.461472 0.071285
O O10 0.603257 0.326222 0.933882
O O11 0.751426 0.748575 0.834704
O O12 0.813147 0.907236 0.755838
O O13 0.917850 0.752591 0.741803
O O14 0.170255 0.545738 0.622029
O O15 0.000000 0.500000 0.563610
#
# Coordination Sequence:
#
# PCOD8306684 Si02
#       7
#     8   4   8   8   8   4   8
#     4  11  23  40  63  95 134 173 219 274 334 396
#     4   9  20  38  65  91 135 183 211 257 335 406
#     4  11  23  43  65  97 133 172 222 275 336 406
#     4  11  24  46  71  92 126 175 226 282 343 400
#     4  12  25  43  68 101 136 175 230 280 337 406
#     4  11  22  42  65 101 147 184 217 267 347 419
#     4  12  23  40  68 101 136 182 224 278 338 406
#
# _framework density 20.040780000000002
#
# number of rings (size 3 to 8) (size 9 to 14) (size 15 to 20)
#    0.000    0.833    5.833    2.000    0.000    2.333 
#    9.000    0.833    0.000    1.000    0.000    0.000 
#    0.000    0.000    0.000    0.000    0.000    0.000 
#
# Total GULP energy -594998.136002 kJ/mol
# GULP energy per Si atom -12395.794500 kJ/mol
# Density = 1.999517 g / cm^3
# Si number density = 20.040780 Si / 1000 Ang^3
#
#
#
# Elastic Constant Matrix: (Units=GPa)
#
#
# Indices 1 2 3 4 5 6 
#
# 1 117.0452 43.7679 45.7107 0.0000 0.0000 -0.0017
# 2 43.7679 117.0452 45.7107 0.0000 0.0000 0.0017
# 3 45.7107 45.7107 95.3760 0.0000 0.0000 0.0000
# 4 0.0000 0.0000 0.0000 24.3979 0.0000 0.0000
# 5 0.0000 0.0000 0.0000 0.0000 24.3979 0.0000
# 6 -0.0017 0.0017 0.0000 0.0000 0.0000 -17.2407
#
#
#
# Elastic Compliance Matrix: (Units=1/GPa)
#
#
# Indices 1 2 3 4 5 6 
#
# 1 0.011097 -0.002550 -0.004096 0.000000 0.000000 -0.000001
# 2 -0.002550 0.011097 -0.004096 0.000000 0.000000 0.000001
# 3 -0.004096 -0.004096 0.014411 0.000000 0.000000 0.000000
# 4 0.000000 0.000000 0.000000 0.040987 0.000000 0.000000
# 5 0.000000 0.000000 0.000000 0.000000 0.040987 0.000000
# 6 -0.000001 0.000001 0.000000 0.000000 0.000000 -0.058002
#
#
# Mechanical properties :
#
#
# Convention : Reuss Voigt Hill
#
# Bulk Modulus (GPa) = 66.13691 66.64944 66.39317
# Shear Modulus (GPa) = 57.40358 19.26282 38.33320
#
# Velocity S-wave (km/s) = 5.35776 3.10366 4.37826
# Velocity P-wave (km/s) = 8.44671 6.79505 7.66549
#
# Compressibility (1/GPa) = 0.01512015
#
# Stress axis : x y z
#
# Youngs Moduli (GPa) = 90.11461 90.11461 69.38972
#
# Poissons Ratio (x) = 0.22978 0.28425
# Poissons Ratio (y) = 0.22978 0.28425
# Poissons Ratio (z) = 0.36914 0.36914
#
# Static dielectric constant tensor:
#      x y z
#    x 3.850790 0.000000 0.000000 
#    y 0.000000 3.850790 0.000000 
#    z 0.000000 0.000000 3.581000 
# 
# 
# High freq. dielectric constant tensor:
#      x y z
#    x 1.791550 0.000000 0.000000 
#    y 0.000000 1.791550 0.000000 
#    z 0.000000 0.000000 1.780450 
# 
# From -- ./inp_files/1266.got.cif
#   From: 2010.03.12/outbox.cif.g09.slc.cpg/sg100_cif.got.tgz:1266.got - 2010.04.14 01:37:57.
