data_PCOD8306398
_publ_section_title
;
Structure prediction by ZEFSAII (Michael W. Deem and Ramdas Pophale) SiO2 
 PCOD8306398
Probable space group: I 41 2 2
;
_chemical_formula_sum "Si O2"
_cell_formula_units_Z 60
_cell_length_a 13.450663
_cell_length_b 13.450663
_cell_length_c 15.180133
_cell_angle_alpha 90.000000
_cell_angle_beta 90.000000
_cell_angle_gamma 90.000000
_cell_volume 2746.394750
_symmetry_space_group_name_H-M "I 41 2 2"
_symmetry_group_IT_number 98
_symmetry_cell_setting 'tetragonal'
loop_
_space_group_symop_operation_xyz
x,y,z
-y,1/2+x,1/4+z
-x,-y,z
y,1/2-x,1/4+z
x,1/2-y,1/4-z
-x,1/2+y,1/4-z
y,x,-z
-y,-x,-z
1/2+x,1/2+y,1/2+z
1/2-y,x,3/4+z
1/2-x,1/2-y,1/2+z
1/2+y,-x,3/4+z
1/2+x,-y,3/4-z
1/2-x,y,3/4-z
1/2+y,1/2+x,1/2-z
1/2-y,1/2-x,1/2-z
loop_
_atom_site_type_symbol
_atom_site_label
_atom_site_fract_x
_atom_site_fract_y
_atom_site_fract_z
Si Si1 0.735335 0.582890 0.534600
Si Si2 0.536528 0.389535 0.330442
Si Si3 0.063190 0.750000 0.125000
Si Si4 0.551261 0.858830 0.098914
Si Si5 0.500000 0.500000 0.000000
O O1 0.686651 0.686651 0.500000
O O2 0.680836 0.541227 0.620383
O O3 0.725524 0.503500 0.458319
O O4 0.850046 0.590423 0.560902
O O5 0.500000 0.500000 0.352406
O O6 0.651087 0.370520 0.359219
O O7 0.532073 0.365842 0.226527
O O8 0.583356 0.750000 0.125000
O O9 0.502844 0.905146 0.186360
#
# Coordination Sequence:
#
# PCOD8306398 Si02
#       5
#    16  16   8  16   4
#     4  12  24  40  73 113 145 183 247 316 375 434
#     4  12  24  45  68 106 146 192 242 303 380 439
#     4  12  24  42  72 100 148 200 232 300 376 448
#     4  12  27  45  77 105 144 195 249 309 375 446
#     4  12  24  48  68 100 154 188 230 312 382 448
#
# _framework density 21.846823000000001
#
# number of rings (size 3 to 8) (size 9 to 14) (size 15 to 20)
#    0.000    0.000    6.667    2.400    7.467    0.000 
#    0.000    0.000   46.933    0.000    0.000    0.000 
#    0.000    0.000    0.000    0.000    0.000    0.000 
#
# Total GULP energy -372070.551632 kJ/mol
# GULP energy per Si atom -12402.351721 kJ/mol
# Density = 2.179710 g / cm^3
# Si number density = 21.846823 Si / 1000 Ang^3
#
#
#
# Elastic Constant Matrix: (Units=GPa)
#
#
# Indices 1 2 3 4 5 6 
#
# 1 89.9965 30.1274 42.4435 0.0000 0.0000 0.0000
# 2 30.1274 89.9965 42.4435 0.0000 0.0000 0.0000
# 3 42.4435 42.4435 162.4273 0.0000 0.0000 0.0000
# 4 0.0000 0.0000 0.0000 35.1786 0.0000 0.0000
# 5 0.0000 0.0000 0.0000 0.0000 35.1786 0.0000
# 6 0.0000 0.0000 0.0000 0.0000 0.0000 11.9431
#
#
#
# Elastic Compliance Matrix: (Units=1/GPa)
#
#
# Indices 1 2 3 4 5 6 
#
# 1 0.013457 -0.003247 -0.002668 0.000000 0.000000 0.000000
# 2 -0.003247 0.013457 -0.002668 0.000000 0.000000 0.000000
# 3 -0.002668 -0.002668 0.007551 0.000000 0.000000 0.000000
# 4 0.000000 0.000000 0.000000 0.028426 0.000000 0.000000
# 5 0.000000 0.000000 0.000000 0.000000 0.028426 0.000000
# 6 0.000000 0.000000 0.000000 0.000000 0.000000 0.083730
#
#
# Mechanical properties :
#
#
# Convention : Reuss Voigt Hill
#
# Bulk Modulus (GPa) = 57.80611 63.60545 60.70578
# Shear Modulus (GPa) = 25.25530 31.62046 28.43788
#
# Velocity S-wave (km/s) = 3.40371 3.80856 3.61181
# Velocity P-wave (km/s) = 6.47798 6.96546 6.72614
#
# Compressibility (1/GPa) = 0.01729921
#
# Stress axis : x y z
#
# Youngs Moduli (GPa) = 74.31300 74.31301 132.43407
#
# Poissons Ratio (x) = 0.24126 0.35333
# Poissons Ratio (y) = 0.24126 0.35333
# Poissons Ratio (z) = 0.19827 0.19827
#
# Static dielectric constant tensor:
#      x y z
#    x 3.963850 0.000000 0.000000 
#    y 0.000000 3.963850 0.000000 
#    z 0.000000 0.000000 4.391990 
# 
# 
# High freq. dielectric constant tensor:
#      x y z
#    x 1.851700 0.000000 0.000000 
#    y 0.000000 1.851700 0.000000 
#    z 0.000000 0.000000 1.885850 
# 
# From -- ./inp_files/6303.got.cif
#   From: 2010.03.12/outbox.cif.g09.slc.cpg/sg98_4_cif.got.tgz:6303.got - 2010.04.08 21:04:41.
