data_PCOD8306814
_publ_section_title
;
Structure prediction by ZEFSAII (Michael W. Deem and Ramdas Pophale) SiO2 
 PCOD8306814
Probable space group: P 42 N M
;
_chemical_formula_sum "Si O2"
_cell_formula_units_Z 64
_cell_length_a 11.500040
_cell_length_b 11.500040
_cell_length_c 23.721873
_cell_angle_alpha 90.000000
_cell_angle_beta 90.000000
_cell_angle_gamma 90.000000
_cell_volume 3137.239528
_symmetry_space_group_name_H-M "P 42 N M"
_symmetry_group_IT_number 102
_symmetry_cell_setting 'tetragonal'
loop_
_space_group_symop_operation_xyz
x,y,z
1/2-y,1/2+x,1/2+z
-x,-y,z
1/2+y,1/2-x,1/2+z
1/2-x,1/2+y,1/2+z
1/2+x,1/2-y,1/2+z
-y,-x,z
y,x,z
loop_
_atom_site_type_symbol
_atom_site_label
_atom_site_fract_x
_atom_site_fract_y
_atom_site_fract_z
Si Si1 0.750074 0.933029 0.939710
Si Si2 0.973989 0.364069 0.046092
Si Si3 0.935063 0.243200 0.434567
Si Si4 0.635845 0.022105 0.170875
Si Si5 0.407041 0.097320 0.376300
Si Si6 0.552414 0.261253 0.177257
Si Si7 0.166683 0.352874 0.253638
Si Si8 0.765907 0.949964 0.549325
O O1 0.883265 0.883265 0.933446
O O2 0.665028 0.832859 0.917839
O O3 0.720869 0.049772 0.903248
O O4 0.724671 0.962274 0.004779
O O5 0.014314 0.325192 0.108309
O O6 0.834808 0.353426 0.040866
O O7 0.000000 0.500000 0.033031
O O8 0.886011 0.113989 0.417340
O O9 0.054346 0.281664 0.402040
O O10 0.949948 0.245824 0.502576
O O11 0.650654 0.159548 0.183447
O O12 0.500000 0.000000 0.179005
O O13 0.699324 0.938063 0.215431
O O14 0.405477 0.110148 0.309513
O O15 0.500000 0.000000 0.394351
O O16 0.616350 0.383651 0.189156
O O17 0.448105 0.244854 0.221164
O O18 0.499672 0.257513 0.113344
O O19 0.246920 0.246920 0.272207
O O20 0.889437 0.889437 0.540159
#
# Coordination Sequence:
#
# PCOD8306814 Si02
#       8
#     8   8   8   8   8   8   8   8
#     4  10  19  31  54  84 108 144 194 242 288 333
#     4  10  15  31  54  79 112 146 181 233 277 331
#     4  10  20  34  56  84 112 147 189 238 299 355
#     4   8  17  32  54  81 108 143 189 228 277 337
#     4  10  20  39  57  75 114 152 199 250 284 342
#     4   9  19  36  58  84 113 152 195 234 280 344
#     4  11  23  37  56  83 115 151 187 237 297 347
#     4  10  19  32  54  84 120 151 178 227 294 352
#
# _framework density 20.400102
#
# number of rings (size 3 to 8) (size 9 to 14) (size 15 to 20)
#    0.000    2.250    2.500    2.250    0.000    2.500 
#    0.000    4.375    0.000    2.250    0.000    3.500 
#    0.000    0.000    0.000    0.000    0.000    0.000 
#
# Total GULP energy -792883.587872 kJ/mol
# GULP energy per Si atom -12388.806060 kJ/mol
# Density = 2.035367 g / cm^3
# Si number density = 20.400102 Si / 1000 Ang^3
#
#
#
# Elastic Constant Matrix: (Units=GPa)
#
#
# Indices 1 2 3 4 5 6 
#
# 1 54.5063 35.9656 31.4115 0.0000 0.0000 0.0002
# 2 35.9656 54.5063 31.4115 0.0000 0.0000 -0.0002
# 3 31.4115 31.4115 121.3095 0.0000 0.0000 0.0000
# 4 0.0000 0.0000 0.0000 14.7155 0.0000 0.0000
# 5 0.0000 0.0000 0.0000 0.0000 14.7155 0.0000
# 6 0.0002 -0.0002 0.0000 0.0000 0.0000 31.0430
#
#
#
# Elastic Compliance Matrix: (Units=1/GPa)
#
#
# Indices 1 2 3 4 5 6 
#
# 1 0.033706 -0.020230 -0.003489 0.000000 0.000000 0.000000
# 2 -0.020230 0.033706 -0.003489 0.000000 0.000000 0.000000
# 3 -0.003489 -0.003489 0.010050 0.000000 0.000000 0.000000
# 4 0.000000 0.000000 0.000000 0.067956 0.000000 0.000000
# 5 0.000000 0.000000 0.000000 0.000000 0.067956 0.000000
# 6 0.000000 0.000000 0.000000 0.000000 0.000000 0.032213
#
#
# Mechanical properties :
#
#
# Convention : Reuss Voigt Hill
#
# Bulk Modulus (GPa) = 43.39338 47.54436 45.46887
# Shear Modulus (GPa) = 16.25037 20.86370 18.55703
#
# Velocity S-wave (km/s) = 2.82544 3.20148 3.01932
# Velocity P-wave (km/s) = 5.65345 6.08461 5.87299
#
# Compressibility (1/GPa) = 0.02304499
#
# Stress axis : x y z
#
# Youngs Moduli (GPa) = 29.66850 29.66850 99.49765
#
# Poissons Ratio (x) = 0.60018 0.34720
# Poissons Ratio (y) = 0.60018 0.34720
# Poissons Ratio (z) = 0.10353 0.10353
#
# Static dielectric constant tensor:
#      x y z
#    x 3.748340 0.000000 0.000000 
#    y 0.000000 3.748340 0.000000 
#    z 0.000000 0.000000 3.597620 
# 
# 
# High freq. dielectric constant tensor:
#      x y z
#    x 1.770240 0.000000 0.000000 
#    y 0.000000 1.770240 0.000000 
#    z 0.000000 0.000000 1.794070 
# 
# From -- ./inp_files/3433.got.cif
#   From: 2010.03.12/outbox.cif.g09.slc.cpg/sg102_2_cif.got.tgz:3433.got - 2010.04.14 01:40:42.
