data_PCOD8306501
_publ_section_title
;
Structure prediction by ZEFSAII (Michael W. Deem and Ramdas Pophale) SiO2 
 PCOD8306501
Probable space group: P 4 M M
;
_chemical_formula_sum "Si O2"
_cell_formula_units_Z 64
_cell_length_a 13.513113
_cell_length_b 13.513113
_cell_length_c 20.325744
_cell_angle_alpha 90.000000
_cell_angle_beta 90.000000
_cell_angle_gamma 90.000000
_cell_volume 3711.566689
_symmetry_space_group_name_H-M "P 4 M M"
_symmetry_group_IT_number 99
_symmetry_cell_setting 'tetragonal'
loop_
_space_group_symop_operation_xyz
x,y,z
-y,x,z
-x,-y,z
y,-x,z
-x,y,z
x,-y,z
-y,-x,z
y,x,z
loop_
_atom_site_type_symbol
_atom_site_label
_atom_site_fract_x
_atom_site_fract_y
_atom_site_fract_z
Si Si1 0.616136 0.224034 0.458300
Si Si2 0.115663 0.278109 0.344335
Si Si3 0.386081 0.773507 0.234469
Si Si4 0.884647 0.725060 0.977486
Si Si5 0.273285 0.116186 0.721342
Si Si6 0.610213 0.117487 0.848806
Si Si7 0.887468 0.385440 0.590438
Si Si8 0.613123 0.226485 0.083468
O O1 0.500000 0.243179 0.449828
O O2 0.672049 0.327952 0.447734
O O3 0.651650 0.144216 0.405087
O O4 0.643036 0.181969 0.529811
O O5 0.174679 0.174679 0.347892
O O6 0.140162 0.336831 0.277439
O O7 0.000000 0.253416 0.346585
O O8 0.500000 0.757864 0.254660
O O9 0.330454 0.669547 0.247782
O O10 0.375258 0.806820 0.158989
O O11 0.828854 0.828854 0.986089
O O12 0.845753 0.672510 0.911319
O O13 0.000000 0.749053 0.974649
O O14 0.863000 0.653287 0.039000
O O15 0.166349 0.166349 0.724838
O O16 0.339515 0.154925 0.781777
O O17 0.325920 0.148180 0.654033
O O18 0.255441 0.000000 0.725714
O O19 0.500000 0.162839 0.852774
O O20 0.604159 0.000000 0.849165
O O21 0.878766 0.500000 0.608554
O O22 0.000000 0.358002 0.571637
O O23 0.500000 0.249145 0.065761
O O24 0.673587 0.326414 0.068424
#
# Coordination Sequence:
#
# PCOD8306501 Si02
#       8
#     8   8   8   8   8   8   8   8
#     4  10  20  33  50  73 100 129 161 197 238 286
#     4  10  21  36  53  73  97 125 160 201 242 286
#     4   9  18  32  50  74 102 130 161 197 238 286
#     4  10  20  33  49  70  97 128 162 200 241 287
#     4  10  19  30  45  66  94 126 158 193 233 279
#     4   9  17  30  48  68  89 115 150 192 236 280
#     4   9  17  30  49  71  93 120 157 200 243 283
#     4   9  18  32  50  73 100 129 162 200 242 287
#
# _framework density 17.243393000000001
#
# number of rings (size 3 to 8) (size 9 to 14) (size 15 to 20)
#    0.000    2.500    0.000    2.250    0.000    5.000 
#    0.000    2.500    0.000    4.500    0.000    5.250 
#    0.000   10.250    0.000    0.000    0.000    0.000 
#
# Total GULP energy -793690.949598 kJ/mol
# GULP energy per Si atom -12401.421087 kJ/mol
# Density = 1.720415 g / cm^3
# Si number density = 17.243393 Si / 1000 Ang^3
#
#
#
# Elastic Constant Matrix: (Units=GPa)
#
#
# Indices 1 2 3 4 5 6 
#
# 1 97.3896 45.5748 51.4647 0.0000 0.0000 -0.0001
# 2 45.5748 97.3896 51.4647 0.0000 0.0000 0.0001
# 3 51.4647 51.4647 110.5193 0.0000 0.0000 0.0000
# 4 0.0000 0.0000 0.0000 25.5147 0.0000 0.0000
# 5 0.0000 0.0000 0.0000 0.0000 25.5147 0.0000
# 6 -0.0001 0.0001 0.0000 0.0000 0.0000 17.0592
#
#
#
# Elastic Compliance Matrix: (Units=1/GPa)
#
#
# Indices 1 2 3 4 5 6 
#
# 1 0.014911 -0.004388 -0.004900 0.000000 0.000000 0.000000
# 2 -0.004388 0.014911 -0.004900 0.000000 0.000000 0.000000
# 3 -0.004900 -0.004900 0.013612 0.000000 0.000000 0.000000
# 4 0.000000 0.000000 0.000000 0.039193 0.000000 0.000000
# 5 0.000000 0.000000 0.000000 0.000000 0.039193 0.000000
# 6 0.000000 0.000000 0.000000 0.000000 0.000000 0.058619
#
#
# Mechanical properties :
#
#
# Convention : Reuss Voigt Hill
#
# Bulk Modulus (GPa) = 66.41467 66.92298 66.66883
# Shear Modulus (GPa) = 23.38252 24.07069 23.72661
#
# Velocity S-wave (km/s) = 3.68642 3.74028 3.71345
# Velocity P-wave (km/s) = 7.53122 7.58604 7.55868
#
# Compressibility (1/GPa) = 0.01505692
#
# Stress axis : x y z
#
# Youngs Moduli (GPa) = 67.06449 67.06449 73.46648
#
# Poissons Ratio (x) = 0.29431 0.35998
# Poissons Ratio (y) = 0.29431 0.35998
# Poissons Ratio (z) = 0.32861 0.32861
#
# Static dielectric constant tensor:
#      x y z
#    x 3.067080 0.000000 0.000000 
#    y 0.000000 3.067080 0.000000 
#    z 0.000000 0.000000 3.429790 
# 
# 
# High freq. dielectric constant tensor:
#      x y z
#    x 1.654420 0.000000 0.000000 
#    y 0.000000 1.654420 0.000000 
#    z 0.000000 0.000000 1.683670 
# 
# From -- ./inp_files/2271.got.cif
#   From: 2010.03.12/outbox.cif.g09.slc.cpg/sg99_cif.got.tgz:2271.got - 2010.04.08 21:11:30.
