data_PCOD8306100
_publ_section_title
;
Structure prediction by ZEFSAII (Michael W. Deem and Ramdas Pophale) SiO2 
 PCOD8306100
Probable space group: I 4 2 2 
;
_chemical_formula_sum "Si O2"
_cell_formula_units_Z 112
_cell_length_a 15.229811
_cell_length_b 15.229811
_cell_length_c 24.212027
_cell_angle_alpha 90.000000
_cell_angle_beta 90.000000
_cell_angle_gamma 90.000000
_cell_volume 5615.910491
_symmetry_space_group_name_H-M "I 4 2 2 "
_symmetry_group_IT_number 97
_symmetry_cell_setting 'tetragonal'
loop_
_space_group_symop_operation_xyz
x,y,z
-y,x,z
-x,-y,z
y,-x,z
x,-y,-z
-x,y,-z
y,x,-z
-y,-x,-z
1/2+x,1/2+y,1/2+z
1/2-y,1/2+x,1/2+z
1/2-x,1/2-y,1/2+z
1/2+y,1/2-x,1/2+z
1/2+x,1/2-y,1/2-z
1/2-x,1/2+y,1/2-z
1/2+y,1/2+x,1/2-z
1/2-y,1/2-x,1/2-z
loop_
_atom_site_type_symbol
_atom_site_label
_atom_site_fract_x
_atom_site_fract_y
_atom_site_fract_z
Si Si1 0.797020 0.195580 0.129595
Si Si2 0.878301 0.920416 0.779791
Si Si3 0.161617 0.584041 0.420806
Si Si4 0.511648 0.360541 0.935591
Si Si5 0.364786 0.772425 0.202606
Si Si6 0.821086 0.509665 0.110167
Si Si7 0.385385 0.827965 0.451763
O O1 0.834218 0.112600 0.163451
O O2 0.874866 0.264311 0.118535
O O3 0.719126 0.242965 0.163299
O O4 0.758528 0.162664 0.071209
O O5 0.822673 0.888275 0.727132
O O6 0.974856 0.879495 0.777527
O O7 0.170024 0.479988 0.422638
O O8 0.175064 0.618828 0.482616
O O9 0.066633 0.606522 0.394773
O O10 0.593119 0.421220 0.918115
O O11 0.531933 0.273261 0.902097
O O12 0.500000 0.342123 0.000000
O O13 0.342029 0.842029 0.250000
O O14 0.446131 0.817812 0.170595
O O15 0.836784 0.582849 0.063894
#
# Coordination Sequence:
#
# PCOD8306100 Si02
#       7
#    16  16  16  16  16  16  16
#     4  10  21  39  61  85 116 156 200 244 297 361
#     4  10  21  38  63  86 114 152 195 253 311 352
#     4  11  22  36  62  89 118 161 200 238 306 365
#     4   9  19  33  49  79 124 164 196 234 282 347
#     4   9  22  40  57  83 120 151 196 257 300 353
#     4  11  22  35  60  84 120 160 203 245 299 366
#     4  10  22  39  56  88 127 155 194 250 292 367
#
# _framework density 19.943338000000001
#
# number of rings (size 3 to 8) (size 9 to 14) (size 15 to 20)
#    0.000    2.000    0.000    3.429    6.000    1.143 
#    0.000    1.429    0.000    6.857    0.000    6.000 
#    0.000    0.000    0.000    0.000    0.000    0.000 
#
# Total GULP energy -694411.211133 kJ/mol
# GULP energy per Si atom -12400.200199 kJ/mol
# Density = 1.989795 g / cm^3
# Si number density = 19.943338 Si / 1000 Ang^3
#
#
#
# Elastic Constant Matrix: (Units=GPa)
#
#
# Indices 1 2 3 4 5 6 
#
# 1 87.5295 33.2381 28.7962 0.0000 0.0000 0.0000
# 2 33.2381 87.5295 28.7962 0.0000 0.0000 0.0000
# 3 28.7962 28.7962 70.3533 0.0000 0.0000 0.0000
# 4 0.0000 0.0000 0.0000 24.7270 0.0000 0.0000
# 5 0.0000 0.0000 0.0000 0.0000 24.7270 0.0000
# 6 0.0000 0.0000 0.0000 0.0000 0.0000 30.5440
#
#
#
# Elastic Compliance Matrix: (Units=1/GPa)
#
#
# Indices 1 2 3 4 5 6 
#
# 1 0.014354 -0.004065 -0.004211 0.000000 0.000000 0.000000
# 2 -0.004065 0.014354 -0.004211 0.000000 0.000000 0.000000
# 3 -0.004211 -0.004211 0.017661 0.000000 0.000000 0.000000
# 4 0.000000 0.000000 0.000000 0.040442 0.000000 0.000000
# 5 0.000000 0.000000 0.000000 0.000000 0.040442 0.000000
# 6 0.000000 0.000000 0.000000 0.000000 0.000000 0.032740
#
#
# Mechanical properties :
#
#
# Convention : Reuss Voigt Hill
#
# Bulk Modulus (GPa) = 46.74264 47.45256 47.09760
# Shear Modulus (GPa) = 26.02829 26.30505 26.16667
#
# Velocity S-wave (km/s) = 3.61655 3.63573 3.62615
# Velocity P-wave (km/s) = 6.39749 6.43972 6.41864
#
# Compressibility (1/GPa) = 0.02139374
#
# Stress axis : x y z
#
# Youngs Moduli (GPa) = 69.66762 69.66762 56.62079
#
# Poissons Ratio (x) = 0.28321 0.23844
# Poissons Ratio (y) = 0.28321 0.23844
# Poissons Ratio (z) = 0.29339 0.29339
#
# Static dielectric constant tensor:
#      x y z
#    x 3.616830 0.000000 0.000000 
#    y 0.000000 3.616830 0.000000 
#    z 0.000000 0.000000 3.568150 
# 
# 
# High freq. dielectric constant tensor:
#      x y z
#    x 1.781370 0.000000 0.000000 
#    y 0.000000 1.781370 0.000000 
#    z 0.000000 0.000000 1.774210 
# 
# From -- ./inp_files/7267.got.cif
#   From: 2010.03.12/outbox.cif.g09.slc.cpg/sg97_4_cif.got.tgz:7267.got - 2010.04.08 20:59:42.
