data_PCOD8306487
_publ_section_title
;
Structure prediction by ZEFSAII (Michael W. Deem and Ramdas Pophale) SiO2 
 PCOD8306487
Probable space group: P 4 M M
;
_chemical_formula_sum "Si O2"
_cell_formula_units_Z 64
_cell_length_a 13.678603
_cell_length_b 13.678603
_cell_length_c 20.640139
_cell_angle_alpha 90.000000
_cell_angle_beta 90.000000
_cell_angle_gamma 90.000000
_cell_volume 3861.856283
_symmetry_space_group_name_H-M "P 4 M M"
_symmetry_group_IT_number 99
_symmetry_cell_setting 'tetragonal'
loop_
_space_group_symop_operation_xyz
x,y,z
-y,x,z
-x,-y,z
y,-x,z
-x,y,z
x,-y,z
-y,-x,z
y,x,z
loop_
_atom_site_type_symbol
_atom_site_label
_atom_site_fract_x
_atom_site_fract_y
_atom_site_fract_z
Si Si1 0.728163 0.115447 0.831490
Si Si2 0.612930 0.770995 0.223779
Si Si3 0.390946 0.884475 0.706871
Si Si4 0.884041 0.275492 0.579697
Si Si5 0.387795 0.768680 0.079712
Si Si6 0.892040 0.384434 0.344532
Si Si7 0.225140 0.384074 0.470378
Si Si8 0.389188 0.114602 0.956897
O O1 0.832926 0.167075 0.825382
O O2 0.658668 0.150910 0.773269
O O3 0.677559 0.150251 0.897846
O O4 0.746944 0.000000 0.829167
O O5 0.500000 0.745683 0.236465
O O6 0.670012 0.670012 0.233102
O O7 0.629545 0.814610 0.151391
O O8 0.651573 0.850028 0.275503
O O9 0.500000 0.838450 0.701594
O O10 0.324226 0.851016 0.647101
O O11 0.400440 0.000000 0.706934
O O12 0.827652 0.172349 0.571729
O O13 0.853197 0.351697 0.524202
O O14 0.000000 0.255423 0.576212
O O15 0.500000 0.743619 0.068797
O O16 0.333337 0.666664 0.072551
O O17 0.349698 0.842589 0.024735
O O18 0.901730 0.500000 0.345237
O O19 0.820064 0.351473 0.401722
O O20 0.000000 0.337753 0.353814
O O21 0.244104 0.500000 0.475147
O O22 0.328186 0.328186 0.479957
O O23 0.500000 0.148200 0.942569
O O24 0.383122 0.000000 0.964313
#
# Coordination Sequence:
#
# PCOD8306487 Si02
#       8
#     8   8   8   8   8   8   8   8
#     4  10  19  30  45  65  90 119 149 183 225 273
#     4   9  17  28  42  62  88 117 148 182 222 269
#     4   9  17  30  48  68  90 117 150 188 228 270
#     4  10  20  33  50  73 100 130 164 200 238 281
#     4   9  17  28  42  61  86 115 146 181 221 268
#     4   9  17  29  45  64  87 116 149 185 225 269
#     4  10  20  33  50  72  97 126 160 197 239 287
#     4   9  17  29  45  64  85 111 145 185 228 269
#
# _framework density 16.572340000000001
#
# number of rings (size 3 to 8) (size 9 to 14) (size 15 to 20)
#    0.000    2.625    0.000    2.250    0.000    3.875 
#    0.000    3.750    0.000    4.500    0.000    0.000 
#    0.000   12.500    0.000    9.250    0.000    1.000 
#
# Total GULP energy -793417.795939 kJ/mol
# GULP energy per Si atom -12397.153062 kJ/mol
# Density = 1.653462 g / cm^3
# Si number density = 16.572340 Si / 1000 Ang^3
#
#
#
# Elastic Constant Matrix: (Units=GPa)
#
#
# Indices 1 2 3 4 5 6 
#
# 1 71.1535 38.0603 41.7757 0.0000 0.0000 -0.0002
# 2 38.0603 71.1535 41.7757 0.0000 0.0000 0.0002
# 3 41.7757 41.7757 130.6598 0.0000 0.0000 0.0000
# 4 0.0000 0.0000 0.0000 24.5359 0.0000 0.0000
# 5 0.0000 0.0000 0.0000 0.0000 24.5359 0.0000
# 6 -0.0002 0.0002 0.0000 0.0000 0.0000 19.1088
#
#
#
# Elastic Compliance Matrix: (Units=1/GPa)
#
#
# Indices 1 2 3 4 5 6 
#
# 1 0.021169 -0.009048 -0.003876 0.000000 0.000000 0.000000
# 2 -0.009048 0.021169 -0.003876 0.000000 0.000000 0.000000
# 3 -0.003876 -0.003876 0.010132 0.000000 0.000000 0.000000
# 4 0.000000 0.000000 0.000000 0.040757 0.000000 0.000000
# 5 0.000000 0.000000 0.000000 0.000000 0.040757 0.000000
# 6 0.000000 0.000000 0.000000 0.000000 0.000000 0.052332
#
#
# Mechanical properties :
#
#
# Convention : Reuss Voigt Hill
#
# Bulk Modulus (GPa) = 52.98829 57.35449 55.17139
# Shear Modulus (GPa) = 22.10387 23.72646 22.91516
#
# Velocity S-wave (km/s) = 3.65606 3.78787 3.72255
# Velocity P-wave (km/s) = 7.06156 7.33583 7.20000
#
# Compressibility (1/GPa) = 0.01887210
#
# Stress axis : x y z
#
# Youngs Moduli (GPa) = 47.23794 47.23794 98.70029
#
# Poissons Ratio (x) = 0.42742 0.38251
# Poissons Ratio (y) = 0.42742 0.38251
# Poissons Ratio (z) = 0.18307 0.18307
#
# Static dielectric constant tensor:
#      x y z
#    x 2.972190 0.000000 0.000000 
#    y 0.000000 2.972190 0.000000 
#    z 0.000000 0.000000 3.466240 
# 
# 
# High freq. dielectric constant tensor:
#      x y z
#    x 1.619180 0.000000 0.000000 
#    y 0.000000 1.619180 0.000000 
#    z 0.000000 0.000000 1.659610 
# 
# From -- ./inp_files/2105.got.cif
#   From: 2010.03.12/outbox.cif.g09.slc.cpg/sg99_cif.got.tgz:2105.got - 2010.04.08 21:11:30.
