data_PCOD8306961
_publ_section_title
;
Structure prediction by ZEFSAII (Michael W. Deem and Ramdas Pophale) SiO2 
 PCOD8306961
Probable space group: P 4 C C
;
_chemical_formula_sum "Si O2"
_cell_formula_units_Z 64
_cell_length_a 26.581014
_cell_length_b 26.581014
_cell_length_c 5.309924
_cell_angle_alpha 90.000000
_cell_angle_beta 90.000000
_cell_angle_gamma 90.000000
_cell_volume 3751.728423
_symmetry_space_group_name_H-M "P 4 C C"
_symmetry_group_IT_number 103
_symmetry_cell_setting 'tetragonal'
loop_
_space_group_symop_operation_xyz
x,y,z
-y,x,z
-x,-y,z
y,-x,z
-x,y,1/2+z
x,-y,1/2+z
-y,-x,1/2+z
y,x,1/2+z
loop_
_atom_site_type_symbol
_atom_site_label
_atom_site_fract_x
_atom_site_fract_y
_atom_site_fract_z
Si Si1 0.522276 0.091720 0.583780
Si Si2 0.736585 0.221056 0.064600
Si Si3 0.632185 0.822189 0.552967
Si Si4 0.192201 0.019510 0.587154
Si Si5 0.137630 0.182503 0.080992
Si Si6 0.977285 0.304521 0.092255
Si Si7 0.116194 0.365878 0.553945
Si Si8 0.205310 0.480009 0.075458
O O1 0.501448 0.065028 0.330651
O O2 0.582344 0.086233 0.600112
O O3 0.504462 0.149716 0.577744
O O4 0.743627 0.244145 0.788308
O O5 0.677468 0.215535 0.109045
O O6 0.765025 0.167518 0.081626
O O7 0.639510 0.842223 0.269789
O O8 0.579944 0.793063 0.569138
O O9 0.632778 0.864159 0.769164
O O10 0.197884 0.079303 0.580616
O O11 0.162942 0.998949 0.339242
O O12 0.245289 0.989408 0.596050
O O13 0.150234 0.150512 0.331684
O O14 0.918129 0.316158 0.079862
O O15 0.997921 0.330210 0.346835
O O16 0.233727 0.498871 0.327556
#
# Coordination Sequence:
#
# PCOD8306961 Si02
#       8
#     8   8   8   8   8   8   8   8
#     4  10  16  30  46  70  99 115 162 223 256 292
#     4  10  23  38  49  74 104 134 175 213 245 310
#     4  12  21  31  56  76  95 138 171 209 270 304
#     4  10  21  35  55  80 108 130 156 198 234 279
#     4  10  21  38  58  77 104 140 168 199 245 292
#     4  10  23  37  47  71 102 125 160 206 236 288
#     4  12  21  31  54  77  91 133 168 205 254 319
#     4  10  16  30  45  76  99 116 166 227 262 299
#
# _framework density 17.058802
#
# number of rings (size 3 to 8) (size 9 to 14) (size 15 to 20)
#    0.000    1.500    5.000    2.250    7.000    0.000 
#    0.000    0.000    0.000    2.250    0.000    0.000 
#    0.000   17.500    0.000    0.000    0.000    0.000 
#
# Total GULP energy -793160.778672 kJ/mol
# GULP energy per Si atom -12393.137167 kJ/mol
# Density = 1.701998 g / cm^3
# Si number density = 17.058802 Si / 1000 Ang^3
#
#
#
# Elastic Constant Matrix: (Units=GPa)
#
#
# Indices 1 2 3 4 5 6 
#
# 1 58.1222 14.4409 15.5722 0.0000 0.0000 0.0000
# 2 14.4409 58.1222 15.5722 0.0000 0.0000 0.0000
# 3 15.5722 15.5722 154.2334 0.0000 0.0000 0.0000
# 4 0.0000 0.0000 0.0000 14.4314 0.0000 0.0000
# 5 0.0000 0.0000 0.0000 0.0000 14.4314 0.0000
# 6 0.0000 0.0000 0.0000 0.0000 0.0000 5.7942
#
#
#
# Elastic Compliance Matrix: (Units=1/GPa)
#
#
# Indices 1 2 3 4 5 6 
#
# 1 0.018649 -0.004244 -0.001454 0.000000 0.000000 0.000000
# 2 -0.004244 0.018649 -0.001454 0.000000 0.000000 0.000000
# 3 -0.001454 -0.001454 0.006777 0.000000 0.000000 0.000000
# 4 0.000000 0.000000 0.000000 0.069293 0.000000 0.000000
# 5 0.000000 0.000000 0.000000 0.000000 0.069293 0.000000
# 6 0.000000 0.000000 0.000000 0.000000 0.000000 0.172587
#
#
# Mechanical properties :
#
#
# Convention : Reuss Voigt Hill
#
# Bulk Modulus (GPa) = 33.59048 40.18317 36.88682
# Shear Modulus (GPa) = 13.17598 21.92422 17.55010
#
# Velocity S-wave (km/s) = 2.78220 3.58888 3.21097
# Velocity P-wave (km/s) = 5.48221 6.38594 5.95125
#
# Compressibility (1/GPa) = 0.02977034
#
# Stress axis : x y z
#
# Youngs Moduli (GPa) = 53.62147 53.62147 147.54974
#
# Poissons Ratio (x) = 0.22756 0.21460
# Poissons Ratio (y) = 0.22756 0.21460
# Poissons Ratio (z) = 0.07799 0.07799
#
# Static dielectric constant tensor:
#      x y z
#    x 2.859350 0.000000 0.000000 
#    y 0.000000 2.859350 0.000000 
#    z 0.000000 0.000000 5.034510 
# 
# 
# High freq. dielectric constant tensor:
#      x y z
#    x 1.610660 0.000000 0.000000 
#    y 0.000000 1.610660 0.000000 
#    z 0.000000 0.000000 1.706420 
# 
# From -- ./inp_files/45.got.cif
#   From: 2010.03.12/outbox.cif.g09.slc.cpg/sg103_cif.got.tgz:45.got - 2010.04.14 01:42:52.
