data_PCOD8306016
_publ_section_title
;
Structure prediction by ZEFSAII (Michael W. Deem and Ramdas Pophale) SiO2 
 PCOD8306016
Probable space group: I 4 2 2 
;
_chemical_formula_sum "Si O2"
_cell_formula_units_Z 128
_cell_length_a 17.204505
_cell_length_b 17.204505
_cell_length_c 24.840713
_cell_angle_alpha 90.000000
_cell_angle_beta 90.000000
_cell_angle_gamma 90.000000
_cell_volume 7352.726653
_symmetry_space_group_name_H-M "I 4 2 2 "
_symmetry_group_IT_number 97
_symmetry_cell_setting 'tetragonal'
loop_
_space_group_symop_operation_xyz
x,y,z
-y,x,z
-x,-y,z
y,-x,z
x,-y,-z
-x,y,-z
y,x,-z
-y,-x,-z
1/2+x,1/2+y,1/2+z
1/2-y,1/2+x,1/2+z
1/2-x,1/2-y,1/2+z
1/2+y,1/2-x,1/2+z
1/2+x,1/2-y,1/2-z
1/2-x,1/2+y,1/2-z
1/2+y,1/2+x,1/2-z
1/2-y,1/2-x,1/2-z
loop_
_atom_site_type_symbol
_atom_site_label
_atom_site_fract_x
_atom_site_fract_y
_atom_site_fract_z
Si Si1 0.175586 0.423661 0.605463
Si Si2 0.212001 0.662817 0.491932
Si Si3 0.661547 0.795356 0.190981
Si Si4 0.652545 0.091139 0.100933
Si Si5 0.388518 0.992520 0.563597
Si Si6 0.808990 0.865028 0.448724
Si Si7 0.154375 0.755158 0.642576
Si Si8 0.016240 0.241354 0.629289
O O1 0.228583 0.400306 0.554597
O O2 0.194183 0.363151 0.652852
O O3 0.194849 0.512760 0.623015
O O4 0.086910 0.420814 0.586413
O O5 0.290702 0.709299 0.500000
O O6 0.189513 0.617464 0.545050
O O7 0.141280 0.719933 0.470838
O O8 0.669658 0.830343 0.250000
O O9 0.710837 0.715599 0.185606
O O10 0.571613 0.776529 0.175994
O O11 0.563624 0.064814 0.090713
O O12 0.659388 0.161161 0.144400
O O13 0.397005 0.000000 0.500000
O O14 0.300535 0.007365 0.582410
O O15 0.868018 0.868018 0.500000
O O16 0.822917 0.783938 0.417281
O O17 0.822972 0.935320 0.406066
O O18 0.065743 0.786204 0.655461
#
# Coordination Sequence:
#
# PCOD8306016 Si02
#       8
#    16  16  16  16  16  16  16  16
#     4  11  20  31  46  75 106 141 176 207 260 307
#     4  11  17  29  43  67 106 146 174 200 248 295
#     4  10  21  42  58  69 102 141 175 233 277 306
#     4  11  19  27  47  76 112 138 165 212 244 321
#     4  10  17  26  42  73 114 147 170 195 235 307
#     4  10  16  29  48  72 113 151 172 201 250 308
#     4  10  19  34  54  78 106 136 179 223 258 314
#     4   9  19  31  53  79 104 141 188 208 259 322
#
# _framework density 17.408508000000001
#
# number of rings (size 3 to 8) (size 9 to 14) (size 15 to 20)
#    0.000    1.750    7.500    0.750    1.750    0.500 
#    2.250    0.000    0.000   12.750    0.000    3.500 
#    0.000   20.500    0.000    0.000    0.000    0.000 
#
# Total GULP energy -792841.669969 kJ/mol
# GULP energy per Si atom -12388.151093 kJ/mol
# Density = 1.736889 g / cm^3
# Si number density = 17.408508 Si / 1000 Ang^3
#
#
#
# Elastic Constant Matrix: (Units=GPa)
#
#
# Indices 1 2 3 4 5 6 
#
# 1 84.4265 30.0366 20.6792 0.0000 0.0000 0.0000
# 2 30.0366 84.4261 20.6787 0.0000 0.0000 0.0000
# 3 20.6792 20.6787 66.9636 0.0000 0.0000 0.0000
# 4 0.0000 0.0000 0.0000 12.2168 0.0000 0.0000
# 5 0.0000 0.0000 0.0000 0.0000 12.2170 0.0000
# 6 0.0000 0.0000 0.0000 0.0000 0.0000 11.0741
#
#
#
# Elastic Compliance Matrix: (Units=1/GPa)
#
#
# Indices 1 2 3 4 5 6 
#
# 1 0.014110 -0.004276 -0.003037 0.000000 0.000000 0.000000
# 2 -0.004276 0.014110 -0.003037 0.000000 0.000000 0.000000
# 3 -0.003037 -0.003037 0.016809 0.000000 0.000000 0.000000
# 4 0.000000 0.000000 0.000000 0.081854 0.000000 0.000000
# 5 0.000000 0.000000 0.000000 0.000000 0.081853 0.000000
# 6 0.000000 0.000000 0.000000 0.000000 0.000000 0.090300
#
#
# Mechanical properties :
#
#
# Convention : Reuss Voigt Hill
#
# Bulk Modulus (GPa) = 41.10239 42.06724 41.58482
# Shear Modulus (GPa) = 15.25109 18.06304 16.65706
#
# Velocity S-wave (km/s) = 2.96306 3.22467 3.09663
# Velocity P-wave (km/s) = 5.94711 6.17105 6.06011
#
# Compressibility (1/GPa) = 0.02432948
#
# Stress axis : x y z
#
# Youngs Moduli (GPa) = 70.87299 70.87286 59.49184
#
# Poissons Ratio (x) = 0.30306 0.18066
# Poissons Ratio (y) = 0.30306 0.18066
# Poissons Ratio (z) = 0.21523 0.21522
#
# Static dielectric constant tensor:
#      x y z
#    x 3.284590 0.000000 0.000000 
#    y 0.000000 3.284590 0.000000 
#    z 0.000000 0.000000 0.642970 
# 
# 
# High freq. dielectric constant tensor:
#      x y z
#    x 1.657970 0.000000 0.000000 
#    y 0.000000 1.657970 0.000000 
#    z 0.000000 0.000000 1.639160 
# 
# From -- ./inp_files/7421.got.cif
#   From: 2010.03.12/outbox.cif.g09.slc.cpg/sg97_4_cif.got.tgz:7421.got - 2010.04.08 20:59:42.
