data_PCOD8306198
_publ_section_title
;
Structure prediction by ZEFSAII (Michael W. Deem and Ramdas Pophale) SiO2 
 PCOD8306198
Probable space group: I 41 2 2
;
_chemical_formula_sum "Si O2"
_cell_formula_units_Z 80
_cell_length_a 12.584533
_cell_length_b 12.584533
_cell_length_c 28.033103
_cell_angle_alpha 90.000000
_cell_angle_beta 90.000000
_cell_angle_gamma 90.000000
_cell_volume 4439.615721
_symmetry_space_group_name_H-M "I 41 2 2"
_symmetry_group_IT_number 98
_symmetry_cell_setting 'tetragonal'
loop_
_space_group_symop_operation_xyz
x,y,z
-y,1/2+x,1/4+z
-x,-y,z
y,1/2-x,1/4+z
x,1/2-y,1/4-z
-x,1/2+y,1/4-z
y,x,-z
-y,-x,-z
1/2+x,1/2+y,1/2+z
1/2-y,x,3/4+z
1/2-x,1/2-y,1/2+z
1/2+y,-x,3/4+z
1/2+x,-y,3/4-z
1/2-x,y,3/4-z
1/2+y,1/2+x,1/2-z
1/2-y,1/2-x,1/2-z
loop_
_atom_site_type_symbol
_atom_site_label
_atom_site_fract_x
_atom_site_fract_y
_atom_site_fract_z
Si Si1 0.032925 0.389020 0.198840
Si Si2 0.954436 0.892286 0.284907
Si Si3 0.371101 0.717255 0.727657
Si Si4 0.861295 0.767631 0.890991
Si Si5 0.492736 0.379004 0.310849
O O1 0.081264 0.418737 0.250000
O O2 0.125421 0.333369 0.169476
O O3 0.000000 0.500000 0.173698
O O4 0.931666 0.310744 0.198655
O O5 0.898572 0.827943 0.326088
O O6 0.050501 0.817009 0.269530
O O7 0.881367 0.924298 0.238784
O O8 0.000000 0.000000 0.307990
O O9 0.263091 0.763091 0.750000
O O10 0.339874 0.614454 0.696273
O O11 0.750000 0.720952 0.875000
O O12 0.940502 0.796025 0.847511
O O13 0.500000 0.500000 0.330541
#
# Coordination Sequence:
#
# PCOD8306198 Si02
#       5
#    16  16  16  16  16
#     4  11  19  30  52  83 116 143 180 217 273 334
#     4   9  20  39  54  73 113 143 175 230 291 329
#     4  10  17  34  56  78 109 147 177 221 279 336
#     4  12  22  33  58  81 106 145 191 233 271 340
#     4   9  21  36  54  81 113 143 179 228 283 331
#
# _framework density 18.019577999999999
#
# number of rings (size 3 to 8) (size 9 to 14) (size 15 to 20)
#    0.000    2.200    4.000    3.000    0.000    0.000 
#    0.000   11.000    0.000    0.000    0.000    0.000 
#    0.000    0.000    0.000    0.000    0.000    0.000 
#
# Total GULP energy -495644.260438 kJ/mol
# GULP energy per Si atom -12391.106511 kJ/mol
# Density = 1.797856 g / cm^3
# Si number density = 18.019578 Si / 1000 Ang^3
#
#
#
# Elastic Constant Matrix: (Units=GPa)
#
#
# Indices 1 2 3 4 5 6 
#
# 1 103.9869 43.8770 43.5797 0.0000 0.0000 0.0000
# 2 43.8770 103.9869 43.5796 0.0000 0.0000 0.0000
# 3 43.5797 43.5796 85.3911 0.0000 0.0000 0.0000
# 4 0.0000 0.0000 0.0000 29.0619 0.0000 0.0000
# 5 0.0000 0.0000 0.0000 0.0000 29.0618 0.0000
# 6 0.0000 0.0000 0.0000 0.0000 0.0000 22.6416
#
#
#
# Elastic Compliance Matrix: (Units=1/GPa)
#
#
# Indices 1 2 3 4 5 6 
#
# 1 0.013155 -0.003482 -0.004937 0.000000 0.000000 0.000000
# 2 -0.003482 0.013155 -0.004937 0.000000 0.000000 0.000000
# 3 -0.004937 -0.004937 0.016750 0.000000 0.000000 0.000000
# 4 0.000000 0.000000 0.000000 0.034409 0.000000 0.000000
# 5 0.000000 0.000000 0.000000 0.000000 0.034409 0.000000
# 6 0.000000 0.000000 0.000000 0.000000 0.000000 0.044166
#
#
# Mechanical properties :
#
#
# Convention : Reuss Voigt Hill
#
# Bulk Modulus (GPa) = 61.16568 61.71528 61.44048
# Shear Modulus (GPa) = 26.56701 26.97496 26.77098
#
# Velocity S-wave (km/s) = 3.84388 3.87328 3.85861
# Velocity P-wave (km/s) = 7.32927 7.37065 7.34999
#
# Compressibility (1/GPa) = 0.01634904
#
# Stress axis : x y z
#
# Youngs Moduli (GPa) = 76.01936 76.01941 59.70276
#
# Poissons Ratio (x) = 0.26467 0.29473
# Poissons Ratio (y) = 0.26467 0.29473
# Poissons Ratio (z) = 0.37528 0.37528
#
# Static dielectric constant tensor:
#      x y z
#    x 3.406170 0.000000 0.000000 
#    y 0.000000 3.406180 0.000000 
#    z 0.000000 0.000000 3.232430 
# 
# 
# High freq. dielectric constant tensor:
#      x y z
#    x 1.690150 0.000000 0.000000 
#    y 0.000000 1.690150 0.000000 
#    z 0.000000 0.000000 1.686980 
# 
# From -- ./inp_files/11796.got.cif
#   From: 2010.03.12/outbox.cif.g09.slc.cpg/sg98_6_cif.got.tgz:11796.got - 2010.04.08 21:04:41.
