data_PCOD8306190
_publ_section_title
;
Structure prediction by ZEFSAII (Michael W. Deem and Ramdas Pophale) SiO2 
 PCOD8306190
Probable space group: I 41 2 2
;
_chemical_formula_sum "Si O2"
_cell_formula_units_Z 112
_cell_length_a 20.026856
_cell_length_b 20.026856
_cell_length_c 18.222834
_cell_angle_alpha 90.000000
_cell_angle_beta 90.000000
_cell_angle_gamma 90.000000
_cell_volume 7308.722440
_symmetry_space_group_name_H-M "I 41 2 2"
_symmetry_group_IT_number 98
_symmetry_cell_setting 'tetragonal'
loop_
_space_group_symop_operation_xyz
x,y,z
-y,1/2+x,1/4+z
-x,-y,z
y,1/2-x,1/4+z
x,1/2-y,1/4-z
-x,1/2+y,1/4-z
y,x,-z
-y,-x,-z
1/2+x,1/2+y,1/2+z
1/2-y,x,3/4+z
1/2-x,1/2-y,1/2+z
1/2+y,-x,3/4+z
1/2+x,-y,3/4-z
1/2-x,y,3/4-z
1/2+y,1/2+x,1/2-z
1/2-y,1/2-x,1/2-z
loop_
_atom_site_type_symbol
_atom_site_label
_atom_site_fract_x
_atom_site_fract_y
_atom_site_fract_z
Si Si1 0.963079 0.601562 0.186474
Si Si2 0.843076 0.156925 0.000000
Si Si3 0.250000 0.236279 0.375000
Si Si4 0.759870 0.541647 0.230015
Si Si5 0.844501 0.942834 0.155381
Si Si6 0.102577 0.585380 0.114770
Si Si7 0.821456 0.826834 0.755993
Si Si8 0.085863 0.719802 0.048598
O O1 0.954071 0.545930 0.250000
O O2 0.970364 0.673866 0.222171
O O3 0.897169 0.603191 0.137410
O O4 0.025097 0.581028 0.136296
O O5 0.898949 0.144830 0.937709
O O6 0.767009 0.147747 0.974562
O O7 0.206029 0.281775 0.428102
O O8 0.204134 0.189048 0.324457
O O9 0.777871 0.551717 0.144393
O O10 0.716349 0.602662 0.259863
O O11 0.717186 0.473958 0.239662
O O12 0.831702 0.901783 0.230654
O O13 0.873520 0.016534 0.172060
O O14 0.113802 0.644877 0.056544
O O15 0.057178 0.750000 0.125000
#
# Coordination Sequence:
#
# PCOD8306190 Si02
#       8
#    16   8   8  16  16  16  16  16
#     4  10  19  27  41  66 101 142 169 191 217 274
#     4  10  16  30  45  66  94 126 164 193 238 286
#     4  10  22  34  50  66  98 122 174 208 248 286
#     4  11  19  30  43  67 100 137 167 195 230 281
#     4  11  21  30  45  66  97 130 169 204 238 284
#     4  11  19  31  43  68  95 132 165 197 235 286
#     4  11  21  34  47  71  93 135 168 210 244 285
#     4  10  19  29  47  65  97 132 165 196 232 289
#
# _framework density 15.324156
#
# number of rings (size 3 to 8) (size 9 to 14) (size 15 to 20)
#    0.000    1.429    5.714    3.000    5.000    1.714 
#    0.000    0.000    0.000    0.000    5.571    0.000 
#    0.000    0.000    1.429    0.000    0.000    0.000 
#
# Total GULP energy -694245.729274 kJ/mol
# GULP energy per Si atom -12397.245166 kJ/mol
# Density = 1.528928 g / cm^3
# Si number density = 15.324156 Si / 1000 Ang^3
#
#
#
# Elastic Constant Matrix: (Units=GPa)
#
#
# Indices 1 2 3 4 5 6 
#
# 1 74.6502 54.8501 36.4110 0.0000 0.0000 0.0000
# 2 54.8501 74.6507 36.4113 0.0000 0.0000 0.0000
# 3 36.4110 36.4113 56.8687 0.0000 0.0000 0.0000
# 4 0.0000 0.0000 0.0000 18.9679 0.0000 0.0000
# 5 0.0000 0.0000 0.0000 0.0000 18.9675 0.0000
# 6 0.0000 0.0000 0.0000 0.0000 0.0000 20.5931
#
#
#
# Elastic Compliance Matrix: (Units=1/GPa)
#
#
# Indices 1 2 3 4 5 6 
#
# 1 0.031285 -0.019219 -0.007726 0.000000 0.000000 0.000000
# 2 -0.019219 0.031285 -0.007726 0.000000 0.000000 0.000000
# 3 -0.007726 -0.007726 0.027477 0.000000 0.000000 0.000000
# 4 0.000000 0.000000 0.000000 0.052721 0.000000 0.000000
# 5 0.000000 0.000000 0.000000 0.000000 0.052722 0.000000
# 6 0.000000 0.000000 0.000000 0.000000 0.000000 0.048560
#
#
# Mechanical properties :
#
#
# Convention : Reuss Voigt Hill
#
# Bulk Modulus (GPa) = 48.29205 51.27937 49.78571
# Shear Modulus (GPa) = 15.61069 16.93885 16.27477
#
# Velocity S-wave (km/s) = 3.19517 3.32832 3.26242
# Velocity P-wave (km/s) = 6.72266 6.95025 6.83740
#
# Compressibility (1/GPa) = 0.02070734
#
# Stress axis : x y z
#
# Youngs Moduli (GPa) = 31.96391 31.96397 36.39350
#
# Poissons Ratio (x) = 0.61431 0.28116
# Poissons Ratio (y) = 0.61431 0.28117
# Poissons Ratio (z) = 0.24694 0.24695
#
# Static dielectric constant tensor:
#      x y z
#    x 2.950090 0.000000 0.000000 
#    y 0.000000 2.950080 0.000000 
#    z 0.000000 0.000000 2.830330 
# 
# 
# High freq. dielectric constant tensor:
#      x y z
#    x 1.580510 0.000000 0.000000 
#    y 0.000000 1.580500 0.000000 
#    z 0.000000 0.000000 1.547240 
# 
# From -- ./inp_files/7908.got.cif
#   From: 2010.03.12/outbox.cif.g09.slc.cpg/sg98_4_cif.got.tgz:7908.got - 2010.04.08 21:04:41.
