data_PCOD8306433
_publ_section_title
;
Structure prediction by ZEFSAII (Michael W. Deem and Ramdas Pophale) SiO2 
 PCOD8306433
Probable space group: P 4 M M
;
_chemical_formula_sum "Si O2"
_cell_formula_units_Z 64
_cell_length_a 13.481971
_cell_length_b 13.481971
_cell_length_c 20.907816
_cell_angle_alpha 90.000000
_cell_angle_beta 90.000000
_cell_angle_gamma 90.000000
_cell_volume 3800.278693
_symmetry_space_group_name_H-M "P 4 M M"
_symmetry_group_IT_number 99
_symmetry_cell_setting 'tetragonal'
loop_
_space_group_symop_operation_xyz
x,y,z
-y,x,z
-x,-y,z
y,-x,z
-x,y,z
x,-y,z
-y,-x,z
y,x,z
loop_
_atom_site_type_symbol
_atom_site_label
_atom_site_fract_x
_atom_site_fract_y
_atom_site_fract_z
Si Si1 0.116400 0.719963 0.167590
Si Si2 0.887983 0.615261 0.408822
Si Si3 0.116571 0.728957 0.534665
Si Si4 0.616712 0.223444 0.280199
Si Si5 0.381699 0.889067 0.929878
Si Si6 0.389903 0.882336 0.793417
Si Si7 0.882141 0.612054 0.656059
Si Si8 0.776153 0.382721 0.055357
O O1 0.176463 0.823538 0.166082
O O2 0.142720 0.656657 0.230295
O O3 0.143152 0.652058 0.106890
O O4 0.000000 0.744662 0.167187
O O5 0.884836 0.500000 0.424509
O O6 0.849261 0.669470 0.472057
O O7 0.816861 0.642443 0.350333
O O8 0.000000 0.648469 0.391561
O O9 0.161516 0.838485 0.531243
O O10 0.161224 0.675079 0.597446
O O11 0.000000 0.740434 0.538517
O O12 0.500000 0.240078 0.269941
O O13 0.671397 0.328604 0.269838
O O14 0.500000 0.893106 0.925265
O O15 0.339034 0.848452 0.860821
O O16 0.341110 0.000000 0.944445
O O17 0.348786 0.815730 0.986032
O O18 0.500000 0.837079 0.790412
O O19 0.339140 0.850956 0.725514
O O20 0.396410 0.000000 0.797123
O O21 0.841209 0.500000 0.650672
O O22 0.000000 0.609898 0.650488
O O23 0.759282 0.500000 0.060747
O O24 0.671109 0.328892 0.067946
#
# Coordination Sequence:
#
# PCOD8306433 Si02
#       8
#     8   8   8   8   8   8   8   8
#     4  10  21  36  54  76  99 122 151 187 228 274
#     4   9  17  30  49  70  88 109 142 186 234 275
#     4  10  19  29  41  58  83 114 146 179 214 258
#     4  10  20  33  50  73 100 129 159 189 221 260
#     4   8  13  23  41  63  85 110 140 177 224 273
#     4   7  10  18  35  59  83 105 131 169 221 273
#     4   8  13  23  40  60  81 105 135 176 225 268
#     4  10  20  32  46  66  92 123 159 195 229 267
#
# _framework density 16.840871
#
# number of rings (size 3 to 8) (size 9 to 14) (size 15 to 20)
#    0.000    3.000    0.000    3.375    0.000    4.000 
#    0.000    0.625    0.000    2.250    0.000    1.750 
#    0.000    2.250    0.000    7.875    0.000    2.750 
#
# Total GULP energy -792929.513552 kJ/mol
# GULP energy per Si atom -12389.523649 kJ/mol
# Density = 1.680254 g / cm^3
# Si number density = 16.840871 Si / 1000 Ang^3
#
#
#
# Elastic Constant Matrix: (Units=GPa)
#
#
# Indices 1 2 3 4 5 6 
#
# 1 66.7421 36.4052 43.8661 0.0000 0.0000 0.0000
# 2 36.4052 66.7421 43.8661 0.0000 0.0000 0.0000
# 3 43.8661 43.8661 143.9826 0.0000 0.0000 0.0000
# 4 0.0000 0.0000 0.0000 8.5825 0.0000 0.0000
# 5 0.0000 0.0000 0.0000 0.0000 8.5825 0.0000
# 6 0.0000 0.0000 0.0000 0.0000 0.0000 16.0315
#
#
#
# Elastic Compliance Matrix: (Units=1/GPa)
#
#
# Indices 1 2 3 4 5 6 
#
# 1 0.023024 -0.009939 -0.003987 0.000000 0.000000 0.000000
# 2 -0.009939 0.023024 -0.003987 0.000000 0.000000 0.000000
# 3 -0.003987 -0.003987 0.009375 0.000000 0.000000 0.000000
# 4 0.000000 0.000000 0.000000 0.116516 0.000000 0.000000
# 5 0.000000 0.000000 0.000000 0.000000 0.116516 0.000000
# 6 0.000000 0.000000 0.000000 0.000000 0.000000 0.062377
#
#
# Mechanical properties :
#
#
# Convention : Reuss Voigt Hill
#
# Bulk Modulus (GPa) = 51.02270 58.41576 54.71923
# Shear Modulus (GPa) = 12.71648 16.86126 14.78887
#
# Velocity S-wave (km/s) = 2.75088 3.16762 2.96658
# Velocity P-wave (km/s) = 6.36023 6.93835 6.65557
#
# Compressibility (1/GPa) = 0.01959912
#
# Stress axis : x y z
#
# Youngs Moduli (GPa) = 43.43206 43.43206 106.67211
#
# Poissons Ratio (x) = 0.43166 0.42528
# Poissons Ratio (y) = 0.43166 0.42528
# Poissons Ratio (z) = 0.17315 0.17315
#
# Static dielectric constant tensor:
#      x y z
#    x 2.826540 0.000000 0.000000 
#    y 0.000000 2.826540 0.000000 
#    z 0.000000 0.000000 3.700350 
# 
# 
# High freq. dielectric constant tensor:
#      x y z
#    x 1.615430 0.000000 0.000000 
#    y 0.000000 1.615430 0.000000 
#    z 0.000000 0.000000 1.680300 
# 
# From -- ./inp_files/2287.got.cif
#   From: 2010.03.12/outbox.cif.g09.slc.cpg/sg99_cif.got.tgz:2287.got - 2010.04.08 21:11:30.
