data_PCOD8306625
_publ_section_title
;
Structure prediction by ZEFSAII (Michael W. Deem and Ramdas Pophale) SiO2 
 PCOD8306625
Probable space group: P 4 B M
;
_chemical_formula_sum "Si O2"
_cell_formula_units_Z 56
_cell_length_a 15.224196
_cell_length_b 15.224196
_cell_length_c 12.979852
_cell_angle_alpha 90.000000
_cell_angle_beta 90.000000
_cell_angle_gamma 90.000000
_cell_volume 3008.420044
_symmetry_space_group_name_H-M "P 4 B M"
_symmetry_group_IT_number 100
_symmetry_cell_setting 'tetragonal'
loop_
_space_group_symop_operation_xyz
x,y,z
-y,x,z
-x,-y,z
y,-x,z
1/2-x,1/2+y,z
1/2+x,1/2-y,z
1/2-y,1/2-x,z
1/2+y,1/2+x,z
loop_
_atom_site_type_symbol
_atom_site_label
_atom_site_fract_x
_atom_site_fract_y
_atom_site_fract_z
Si Si1 0.356622 0.995851 0.255020
Si Si2 0.772795 0.418959 0.439478
Si Si3 0.860908 0.499711 0.631422
Si Si4 0.379755 0.582402 0.568060
Si Si5 0.161204 0.810980 0.773584
Si Si6 0.495895 0.139448 0.031185
Si Si7 0.020507 0.255587 0.832717
O O1 0.398794 0.898794 0.274477
O O2 0.310541 0.004904 0.142034
O O3 0.433841 0.066160 0.265790
O O4 0.282353 0.019037 0.339546
O O5 0.832307 0.332307 0.430319
O O6 0.795567 0.478245 0.539094
O O7 0.670353 0.393053 0.460325
O O8 0.927318 0.572683 0.588098
O O9 0.815714 0.536885 0.733263
O O10 0.912013 0.412013 0.665805
O O11 0.379746 0.476856 0.576170
O O12 0.321087 0.626376 0.657405
O O13 0.242816 0.742816 0.777768
O O14 0.078746 0.778475 0.839982
O O15 0.181904 0.904873 0.824539
O O16 0.557334 0.057334 0.052791
O O17 0.398790 0.101211 0.002555
O O18 0.536959 0.195887 0.940100
#
# Coordination Sequence:
#
# PCOD8306625 Si02
#       7
#     8   8   8   8   8   8   8
#     4   8  15  29  53  83 113 147 183 228 293 354
#     4  10  18  32  54  81 110 138 177 230 284 338
#     4  10  18  28  46  75 109 138 170 223 286 338
#     4  11  22  38  56  77 109 154 195 228 270 335
#     4  12  23  37  57  82 114 152 189 234 287 341
#     4   9  17  32  55  82 113 148 188 240 300 353
#     4  12  23  35  53  80 113 150 192 234 279 342
#
# _framework density 18.614422000000001
#
# number of rings (size 3 to 8) (size 9 to 14) (size 15 to 20)
#    0.000    1.714    2.857    4.286    0.000    3.143 
#    0.000    2.143    3.143    0.000    0.000    0.000 
#    0.000    0.000    0.000    0.000    0.000    0.000 
#
# Total GULP energy -694001.282479 kJ/mol
# GULP energy per Si atom -12392.880044 kJ/mol
# Density = 1.857205 g / cm^3
# Si number density = 18.614422 Si / 1000 Ang^3
#
#
#
# Elastic Constant Matrix: (Units=GPa)
#
#
# Indices 1 2 3 4 5 6 
#
# 1 76.0778 25.2438 29.4579 0.0000 0.0000 -0.0002
# 2 25.2438 76.0778 29.4579 0.0000 0.0000 0.0002
# 3 29.4579 29.4579 115.2831 0.0000 0.0000 0.0000
# 4 0.0000 0.0000 0.0000 15.3342 0.0000 0.0000
# 5 0.0000 0.0000 0.0000 0.0000 15.3342 0.0000
# 6 -0.0002 0.0002 0.0000 0.0000 0.0000 21.8302
#
#
#
# Elastic Compliance Matrix: (Units=1/GPa)
#
#
# Indices 1 2 3 4 5 6 
#
# 1 0.015632 -0.004040 -0.002962 0.000000 0.000000 0.000000
# 2 -0.004040 0.015632 -0.002962 0.000000 0.000000 0.000000
# 3 -0.002962 -0.002962 0.010188 0.000000 0.000000 0.000000
# 4 0.000000 0.000000 0.000000 0.065214 0.000000 0.000000
# 5 0.000000 0.000000 0.000000 0.000000 0.065214 0.000000
# 6 0.000000 0.000000 0.000000 0.000000 0.000000 0.045808
#
#
# Mechanical properties :
#
#
# Convention : Reuss Voigt Hill
#
# Bulk Modulus (GPa) = 46.46039 48.41756 47.43898
# Shear Modulus (GPa) = 20.42566 22.71832 21.57199
#
# Velocity S-wave (km/s) = 3.31615 3.49731 3.40793
# Velocity P-wave (km/s) = 6.29889 6.50965 6.40513
#
# Compressibility (1/GPa) = 0.02152371
#
# Stress axis : x y z
#
# Youngs Moduli (GPa) = 63.97170 63.97170 98.15409
#
# Poissons Ratio (x) = 0.25845 0.29074
# Poissons Ratio (y) = 0.25845 0.29074
# Poissons Ratio (z) = 0.18949 0.18949
#
# Static dielectric constant tensor:
#      x y z
#    x 3.468550 0.000000 0.000000 
#    y 0.000000 3.468550 0.000000 
#    z 0.000000 0.000000 3.461260 
# 
# 
# High freq. dielectric constant tensor:
#      x y z
#    x 1.710280 0.000000 0.000000 
#    y 0.000000 1.710280 0.000000 
#    z 0.000000 0.000000 1.710050 
# 
# From -- ./inp_files/1315.got.cif
#   From: 2010.03.12/outbox.cif.g09.slc.cpg/sg100_cif.got.tgz:1315.got - 2010.04.14 01:37:57.
