data_PCOD8306334
_publ_section_title
;
Structure prediction by ZEFSAII (Michael W. Deem and Ramdas Pophale) SiO2 
 PCOD8306334
Probable space group: I 41 2 2
;
_chemical_formula_sum "Si O2"
_cell_formula_units_Z 96
_cell_length_a 15.206591
_cell_length_b 15.206591
_cell_length_c 17.883758
_cell_angle_alpha 90.000000
_cell_angle_beta 90.000000
_cell_angle_gamma 90.000000
_cell_volume 4135.447529
_symmetry_space_group_name_H-M "I 41 2 2"
_symmetry_group_IT_number 98
_symmetry_cell_setting 'tetragonal'
loop_
_space_group_symop_operation_xyz
x,y,z
-y,1/2+x,1/4+z
-x,-y,z
y,1/2-x,1/4+z
x,1/2-y,1/4-z
-x,1/2+y,1/4-z
y,x,-z
-y,-x,-z
1/2+x,1/2+y,1/2+z
1/2-y,x,3/4+z
1/2-x,1/2-y,1/2+z
1/2+y,-x,3/4+z
1/2+x,-y,3/4-z
1/2-x,y,3/4-z
1/2+y,1/2+x,1/2-z
1/2-y,1/2-x,1/2-z
loop_
_atom_site_type_symbol
_atom_site_label
_atom_site_fract_x
_atom_site_fract_y
_atom_site_fract_z
Si Si1 0.210559 0.498838 0.130526
Si Si2 0.702727 0.440152 0.986891
Si Si3 0.610070 0.660848 0.578729
Si Si4 0.516892 0.373119 0.160458
Si Si5 0.073124 0.650183 0.126174
Si Si6 0.372726 0.018539 0.030086
O O1 0.145127 0.417441 0.117851
O O2 0.155236 0.588005 0.144739
O O3 0.269174 0.474024 0.203280
O O4 0.280931 0.508298 0.063809
O O5 0.650606 0.501342 0.926761
O O6 0.798870 0.423842 0.951467
O O7 0.652322 0.347679 0.000000
O O8 0.625100 0.750000 0.625000
O O9 0.661397 0.661397 0.500000
O O10 0.505684 0.645166 0.562515
O O11 0.426061 0.389248 0.207495
O O12 0.580088 0.456865 0.159115
O O13 0.110035 0.750000 0.125000
O O14 0.023704 0.617390 0.051299
#
# Coordination Sequence:
#
# PCOD8306334 Si02
#       6
#    16  16  16  16  16  16
#     4  12  24  42  74 104 142 190 239 304 373 441
#     4  11  22  41  66 105 137 182 242 300 360 437
#     4  11  26  50  73 104 148 190 250 312 372 455
#     4  10  23  42  65  92 145 187 228 294 366 430
#     4  11  25  44  72 105 142 186 239 299 378 449
#     4  11  23  44  66  97 139 190 236 288 366 451
#
# _framework density 23.213932
#
# number of rings (size 3 to 8) (size 9 to 14) (size 15 to 20)
#    0.000    1.000    3.333    3.500    2.333    5.333 
#    6.000    0.000    0.000    0.000    0.000    0.000 
#    0.000    0.000    0.000    0.000    0.000    0.000 
#
# Total GULP energy -594811.234855 kJ/mol
# GULP energy per Si atom -12391.900726 kJ/mol
# Density = 2.316110 g / cm^3
# Si number density = 23.213932 Si / 1000 Ang^3
#
#
#
# Elastic Constant Matrix: (Units=GPa)
#
#
# Indices 1 2 3 4 5 6 
#
# 1 128.9889 65.2311 30.9224 0.0000 0.0000 0.0000
# 2 65.2311 128.9892 30.9225 0.0000 0.0000 0.0000
# 3 30.9224 30.9225 88.3884 0.0000 0.0000 0.0000
# 4 0.0000 0.0000 0.0000 33.3318 0.0000 0.0000
# 5 0.0000 0.0000 0.0000 0.0000 33.3313 0.0000
# 6 0.0000 0.0000 0.0000 0.0000 0.0000 41.2847
#
#
#
# Elastic Compliance Matrix: (Units=1/GPa)
#
#
# Indices 1 2 3 4 5 6 
#
# 1 0.010739 -0.004945 -0.002027 0.000000 0.000000 0.000000
# 2 -0.004945 0.010739 -0.002027 0.000000 0.000000 0.000000
# 3 -0.002027 -0.002027 0.012732 0.000000 0.000000 0.000000
# 4 0.000000 0.000000 0.000000 0.030001 0.000000 0.000000
# 5 0.000000 0.000000 0.000000 0.000000 0.030002 0.000000
# 6 0.000000 0.000000 0.000000 0.000000 0.000000 0.024222
#
#
# Mechanical properties :
#
#
# Convention : Reuss Voigt Hill
#
# Bulk Modulus (GPa) = 61.68206 66.72429 64.20317
# Shear Modulus (GPa) = 35.25136 36.20892 35.73014
#
# Velocity S-wave (km/s) = 3.90108 3.95371 3.92748
# Velocity P-wave (km/s) = 6.84982 7.04613 6.94867
#
# Compressibility (1/GPa) = 0.01621217
#
# Stress axis : x y z
#
# Youngs Moduli (GPa) = 93.11585 93.11604 78.54181
#
# Poissons Ratio (x) = 0.46046 0.15921
# Poissons Ratio (y) = 0.46046 0.15921
# Poissons Ratio (z) = 0.18876 0.18876
#
# Static dielectric constant tensor:
#      x y z
#    x 4.300690 0.000000 0.000000 
#    y 0.000000 4.300690 0.000000 
#    z 0.000000 0.000000 4.376390 
# 
# 
# High freq. dielectric constant tensor:
#      x y z
#    x 1.910760 0.000000 0.000000 
#    y 0.000000 1.910760 0.000000 
#    z 0.000000 0.000000 1.929970 
# 
# From -- ./inp_files/8954.got.cif
#   From: 2010.03.12/outbox.cif.g09.slc.cpg/sg98_5_cif.got.tgz:8954.got - 2010.04.08 21:04:41.
