data_PCOD8306400
_publ_section_title
;
Structure prediction by ZEFSAII (Michael W. Deem and Ramdas Pophale) SiO2 
 PCOD8306400
Probable space group: I 41 2 2
;
_chemical_formula_sum "Si O2"
_cell_formula_units_Z 40
_cell_length_a 10.292549
_cell_length_b 10.292549
_cell_length_c 16.668782
_cell_angle_alpha 90.000000
_cell_angle_beta 90.000000
_cell_angle_gamma 90.000000
_cell_volume 1765.833506
_symmetry_space_group_name_H-M "I 41 2 2"
_symmetry_group_IT_number 98
_symmetry_cell_setting 'tetragonal'
loop_
_space_group_symop_operation_xyz
x,y,z
-y,1/2+x,1/4+z
-x,-y,z
y,1/2-x,1/4+z
x,1/2-y,1/4-z
-x,1/2+y,1/4-z
y,x,-z
-y,-x,-z
1/2+x,1/2+y,1/2+z
1/2-y,x,3/4+z
1/2-x,1/2-y,1/2+z
1/2+y,-x,3/4+z
1/2+x,-y,3/4-z
1/2-x,y,3/4-z
1/2+y,1/2+x,1/2-z
1/2-y,1/2-x,1/2-z
loop_
_atom_site_type_symbol
_atom_site_label
_atom_site_fract_x
_atom_site_fract_y
_atom_site_fract_z
Si Si1 0.500000 0.500000 0.796379
Si Si2 0.144413 0.189663 0.807728
Si Si3 0.186158 0.622412 0.659685
O O1 0.560033 0.615768 0.742995
O O2 0.387687 0.559650 0.852377
O O3 0.250000 0.155159 0.875000
O O4 0.196186 0.303815 0.750000
O O5 0.008421 0.230351 0.848949
O O6 0.262194 0.750000 0.625000
O O7 0.141151 0.641151 0.750000
#
# Coordination Sequence:
#
# PCOD8306400 Si02
#       3
#     8  16  16
#     4  12  25  46  73 110 146 204 254 318 387 458
#     4  12  26  48  76 112 154 198 261 320 383 464
#     4  12  25  44  72 108 147 195 259 316 374 456
#
# _framework density 22.652193
#
# number of rings (size 3 to 8) (size 9 to 14) (size 15 to 20)
#    0.000    0.000    8.000    3.000    0.000    1.600 
#    0.000    1.000    0.000    0.000    0.000    0.000 
#    0.000    0.000    0.000    0.000    0.000    0.000 
#
# Total GULP energy -248002.343881 kJ/mol
# GULP energy per Si atom -12400.117194 kJ/mol
# Density = 2.260064 g / cm^3
# Si number density = 22.652193 Si / 1000 Ang^3
#
#
#
# Elastic Constant Matrix: (Units=GPa)
#
#
# Indices 1 2 3 4 5 6 
#
# 1 128.3982 50.4354 78.4076 0.0000 0.0000 0.0000
# 2 50.4354 128.3977 78.4078 0.0000 0.0000 0.0000
# 3 78.4076 78.4078 164.9082 0.0000 0.0000 0.0000
# 4 0.0000 0.0000 0.0000 22.7500 0.0000 0.0000
# 5 0.0000 0.0000 0.0000 0.0000 22.7499 0.0000
# 6 0.0000 0.0000 0.0000 0.0000 0.0000 33.2569
#
#
#
# Elastic Compliance Matrix: (Units=1/GPa)
#
#
# Indices 1 2 3 4 5 6 
#
# 1 0.011208 -0.001618 -0.004560 0.000000 0.000000 0.000000
# 2 -0.001618 0.011208 -0.004560 0.000000 0.000000 0.000000
# 3 -0.004560 -0.004560 0.010400 0.000000 0.000000 0.000000
# 4 0.000000 0.000000 0.000000 0.043956 0.000000 0.000000
# 5 0.000000 0.000000 0.000000 0.000000 0.043956 0.000000
# 6 0.000000 0.000000 0.000000 0.000000 0.000000 0.030069
#
#
# Mechanical properties :
#
#
# Convention : Reuss Voigt Hill
#
# Bulk Modulus (GPa) = 88.17374 92.91173 90.54273
# Shear Modulus (GPa) = 28.40037 30.04825 29.22431
#
# Velocity S-wave (km/s) = 3.54469 3.64607 3.59574
# Velocity P-wave (km/s) = 7.46744 7.67013 7.56946
#
# Compressibility (1/GPa) = 0.01134125
#
# Stress axis : x y z
#
# Youngs Moduli (GPa) = 89.21900 89.21829 96.15413
#
# Poissons Ratio (x) = 0.14438 0.43844
# Poissons Ratio (y) = 0.14438 0.43844
# Poissons Ratio (z) = 0.40681 0.40682
#
# Static dielectric constant tensor:
#      x y z
#    x 4.118960 0.000000 0.000000 
#    y 0.000000 4.118960 0.000000 
#    z 0.000000 0.000000 4.362960 
# 
# 
# High freq. dielectric constant tensor:
#      x y z
#    x 1.885470 0.000000 0.000000 
#    y 0.000000 1.885470 0.000000 
#    z 0.000000 0.000000 1.911480 
# 
# From -- ./inp_files/5901.got.cif
#   From: 2010.03.12/outbox.cif.g09.slc.cpg/sg98_3_cif.got.tgz:5901.got - 2010.04.08 21:04:41.
