data_PCOD8306274
_publ_section_title
;
Structure prediction by ZEFSAII (Michael W. Deem and Ramdas Pophale) SiO2 
 PCOD8306274
Probable space group: I 41 2 2
;
_chemical_formula_sum "Si O2"
_cell_formula_units_Z 40
_cell_length_a 9.100796
_cell_length_b 9.100796
_cell_length_c 18.977493
_cell_angle_alpha 90.000000
_cell_angle_beta 90.000000
_cell_angle_gamma 90.000000
_cell_volume 1571.801138
_symmetry_space_group_name_H-M "I 41 2 2"
_symmetry_group_IT_number 98
_symmetry_cell_setting 'tetragonal'
loop_
_space_group_symop_operation_xyz
x,y,z
-y,1/2+x,1/4+z
-x,-y,z
y,1/2-x,1/4+z
x,1/2-y,1/4-z
-x,1/2+y,1/4-z
y,x,-z
-y,-x,-z
1/2+x,1/2+y,1/2+z
1/2-y,x,3/4+z
1/2-x,1/2-y,1/2+z
1/2+y,-x,3/4+z
1/2+x,-y,3/4-z
1/2-x,y,3/4-z
1/2+y,1/2+x,1/2-z
1/2-y,1/2-x,1/2-z
loop_
_atom_site_type_symbol
_atom_site_label
_atom_site_fract_x
_atom_site_fract_y
_atom_site_fract_z
Si Si1 0.369188 0.250000 0.625000
Si Si2 0.646763 0.411368 0.273261
Si Si3 0.169404 0.967581 0.615661
O O1 0.481027 0.268856 0.558403
O O2 0.257893 0.383157 0.629169
O O3 0.500000 0.500000 0.286974
O O4 0.677653 0.385977 0.191082
O O5 0.636645 0.249959 0.308879
O O6 0.000000 0.000000 0.593406
#
# Coordination Sequence:
#
# PCOD8306274 Si02
#       3
#     8  16  16
#     4  10  20  38  66  96 138 186 238 302 362 442
#     4   9  20  38  64  99 138 184 238 297 366 439
#     4  10  21  40  66 100 142 188 240 300 371 452
#
# _framework density 25.448509000000001
#
# number of rings (size 3 to 8) (size 9 to 14) (size 15 to 20)
#    0.000    2.400    0.000    1.200    0.000    3.200 
#    0.000   14.000    0.000   28.800    0.000    0.000 
#    0.000    0.000    0.000    0.000    0.000    0.000 
#
# Total GULP energy -247790.010407 kJ/mol
# GULP energy per Si atom -12389.500520 kJ/mol
# Density = 2.539059 g / cm^3
# Si number density = 25.448509 Si / 1000 Ang^3
#
#
#
# Elastic Constant Matrix: (Units=GPa)
#
#
# Indices 1 2 3 4 5 6 
#
# 1 159.3492 77.6742 43.3260 0.0000 0.0000 0.0000
# 2 77.6742 159.3492 43.3260 0.0000 0.0000 0.0000
# 3 43.3260 43.3260 110.1400 0.0000 0.0000 0.0000
# 4 0.0000 0.0000 0.0000 31.0501 0.0000 0.0000
# 5 0.0000 0.0000 0.0000 0.0000 31.0501 0.0000
# 6 0.0000 0.0000 0.0000 0.0000 0.0000 -14.1920
#
#
#
# Elastic Compliance Matrix: (Units=1/GPa)
#
#
# Indices 1 2 3 4 5 6 
#
# 1 0.008586 -0.003658 -0.001938 0.000000 0.000000 0.000000
# 2 -0.003658 0.008586 -0.001938 0.000000 0.000000 0.000000
# 3 -0.001938 -0.001938 0.010604 0.000000 0.000000 0.000000
# 4 0.000000 0.000000 0.000000 0.032206 0.000000 0.000000
# 5 0.000000 0.000000 0.000000 0.000000 0.032206 0.000000
# 6 0.000000 0.000000 0.000000 0.000000 0.000000 -0.070462
#
#
# Mechanical properties :
#
#
# Convention : Reuss Voigt Hill
#
# Bulk Modulus (GPa) = 78.70253 84.16565 81.43409
# Shear Modulus (GPa) = 121.86133 27.21581 74.53857
#
# Velocity S-wave (km/s) = 6.92744 3.27379 5.41789
# Velocity P-wave (km/s) = 9.74573 6.88730 8.43843
#
# Compressibility (1/GPa) = 0.01270607
#
# Stress axis : x y z
#
# Youngs Moduli (GPa) = 116.47356 116.47356 94.30066
#
# Poissons Ratio (x) = 0.42606 0.18279
# Poissons Ratio (y) = 0.42606 0.18279
# Poissons Ratio (z) = 0.22577 0.22577
#
# Static dielectric constant tensor:
#      x y z
#    x 4.793240 0.000000 0.000000 
#    y 0.000000 4.793240 0.000000 
#    z 0.000000 0.000000 4.880860 
# 
# 
# High freq. dielectric constant tensor:
#      x y z
#    x 2.032760 0.000000 0.000000 
#    y 0.000000 2.032760 0.000000 
#    z 0.000000 0.000000 2.012240 
# 
# From -- ./inp_files/9517.got.cif
#   From: 2010.03.12/outbox.cif.g09.slc.cpg/sg98_5_cif.got.tgz:9517.got - 2010.04.08 21:04:41.
