data_PCOD8306098
_publ_section_title
;
Structure prediction by ZEFSAII (Michael W. Deem and Ramdas Pophale) SiO2 
 PCOD8306098
Probable space group: I 4 2 2 
;
_chemical_formula_sum "Si O2"
_cell_formula_units_Z 120
_cell_length_a 24.766385
_cell_length_b 24.766385
_cell_length_c 9.795847
_cell_angle_alpha 90.000000
_cell_angle_beta 90.000000
_cell_angle_gamma 90.000000
_cell_volume 6008.516153
_symmetry_space_group_name_H-M "I 4 2 2 "
_symmetry_group_IT_number 97
_symmetry_cell_setting 'tetragonal'
loop_
_space_group_symop_operation_xyz
x,y,z
-y,x,z
-x,-y,z
y,-x,z
x,-y,-z
-x,y,-z
y,x,-z
-y,-x,-z
1/2+x,1/2+y,1/2+z
1/2-y,1/2+x,1/2+z
1/2-x,1/2-y,1/2+z
1/2+y,1/2-x,1/2+z
1/2+x,1/2-y,1/2-z
1/2-x,1/2+y,1/2-z
1/2+y,1/2+x,1/2-z
1/2-y,1/2-x,1/2-z
loop_
_atom_site_type_symbol
_atom_site_label
_atom_site_fract_x
_atom_site_fract_y
_atom_site_fract_z
Si Si1 0.670264 0.123232 0.978728
Si Si2 0.500000 0.410509 0.000000
Si Si3 0.816814 0.107483 0.356084
Si Si4 0.265438 0.201050 0.599043
Si Si5 0.435778 0.228150 0.250369
Si Si6 0.841591 0.439945 0.989813
Si Si7 0.571857 0.656532 0.152996
Si Si8 0.220881 0.555589 0.716172
O O1 0.672217 0.185659 0.021167
O O2 0.605189 0.112340 0.976363
O O3 0.702267 0.087394 0.084781
O O4 0.697281 0.111741 0.831821
O O5 0.553735 0.446266 0.000000
O O6 0.513582 0.375180 0.861125
O O7 0.785876 0.162941 0.385352
O O8 0.823431 0.077014 0.497676
O O9 0.877016 0.120374 0.298345
O O10 0.783019 0.070898 0.249880
O O11 0.250790 0.250790 0.500000
O O12 0.280472 0.219529 0.750000
O O13 0.429284 0.292756 0.254717
O O14 0.492873 0.214851 0.320275
O O15 0.435960 0.208084 0.095122
O O16 0.817572 0.427835 0.840967
O O17 0.867741 0.500000 0.000000
#
# Coordination Sequence:
#
# PCOD8306098 Si02
#       8
#    16   8  16  16  16  16  16  16
#     4  12  23  39  59  91 125 163 208 260 310 397
#     4  11  22  36  60  94 128 164 208 271 312 348
#     4  11  20  36  58  85 121 164 197 245 315 373
#     4  12  24  37  58  86 126 167 206 251 314 391
#     4  11  24  36  62  89 125 159 211 261 312 373
#     4  10  21  37  60  86 117 164 207 258 309 373
#     4  11  21  37  58  90 125 162 201 258 306 369
#     4  11  21  40  60  85 122 169 207 248 315 375
#
# _framework density 19.971654000000001
#
# number of rings (size 3 to 8) (size 9 to 14) (size 15 to 20)
#    0.000    0.867    6.667    2.000    2.800    0.000 
#    0.000    0.000    0.000    1.600    0.000    7.467 
#    0.000    0.000    0.800    0.000    0.000    0.000 
#
# Total GULP energy -743540.302816 kJ/mol
# GULP energy per Si atom -12392.338380 kJ/mol
# Density = 1.992620 g / cm^3
# Si number density = 19.971654 Si / 1000 Ang^3
#
#
#
# Elastic Constant Matrix: (Units=GPa)
#
#
# Indices 1 2 3 4 5 6 
#
# 1 89.9420 30.1086 14.4832 0.0000 0.0000 0.0000
# 2 30.1086 89.9424 14.4829 0.0000 0.0000 0.0000
# 3 14.4832 14.4829 43.7003 0.0000 0.0000 0.0000
# 4 0.0000 0.0000 0.0000 18.6130 0.0000 0.0000
# 5 0.0000 0.0000 0.0000 0.0000 18.6122 0.0000
# 6 0.0000 0.0000 0.0000 0.0000 0.0000 26.9745
#
#
#
# Elastic Compliance Matrix: (Units=1/GPa)
#
#
# Indices 1 2 3 4 5 6 
#
# 1 0.012883 -0.003830 -0.003001 0.000000 0.000000 0.000000
# 2 -0.003830 0.012883 -0.003001 0.000000 0.000000 0.000000
# 3 -0.003001 -0.003001 0.024872 0.000000 0.000000 0.000000
# 4 0.000000 0.000000 0.000000 0.053726 0.000000 0.000000
# 5 0.000000 0.000000 0.000000 0.000000 0.053728 0.000000
# 6 0.000000 0.000000 0.000000 0.000000 0.000000 0.037072
#
#
# Mechanical properties :
#
#
# Convention : Reuss Voigt Hill
#
# Bulk Modulus (GPa) = 32.28173 37.97046 35.12609
# Shear Modulus (GPa) = 22.20720 23.80728 23.00724
#
# Velocity S-wave (km/s) = 3.33819 3.45636 3.39779
# Velocity P-wave (km/s) = 5.57287 5.91456 5.74625
#
# Compressibility (1/GPa) = 0.03097728
#
# Stress axis : x y z
#
# Youngs Moduli (GPa) = 77.61899 77.61946 40.20582
#
# Poissons Ratio (x) = 0.29725 0.12064
# Poissons Ratio (y) = 0.29725 0.12064
# Poissons Ratio (z) = 0.23291 0.23290
#
# Static dielectric constant tensor:
#      x y z
#    x 4.148320 0.000000 0.000000 
#    y 0.000000 4.148320 0.000000 
#    z 0.000000 0.000000 3.357990 
# 
# 
# High freq. dielectric constant tensor:
#      x y z
#    x 1.783840 0.000000 0.000000 
#    y 0.000000 1.783840 0.000000 
#    z 0.000000 0.000000 1.747950 
# 
# From -- ./inp_files/2654.got.cif
#   From: 2010.03.12/outbox.cif.g09.slc.cpg/sg97_2_cif.got.tgz:2654.got - 2010.04.08 20:59:42.
