data_PCOD8306208
_publ_section_title
;
Structure prediction by ZEFSAII (Michael W. Deem and Ramdas Pophale) SiO2 
 PCOD8306208
Probable space group: I 41 2 2
;
_chemical_formula_sum "Si O2"
_cell_formula_units_Z 96
_cell_length_a 21.241362
_cell_length_b 21.241362
_cell_length_c 13.451293
_cell_angle_alpha 90.000000
_cell_angle_beta 90.000000
_cell_angle_gamma 90.000000
_cell_volume 6069.162328
_symmetry_space_group_name_H-M "I 41 2 2"
_symmetry_group_IT_number 98
_symmetry_cell_setting 'tetragonal'
loop_
_space_group_symop_operation_xyz
x,y,z
-y,1/2+x,1/4+z
-x,-y,z
y,1/2-x,1/4+z
x,1/2-y,1/4-z
-x,1/2+y,1/4-z
y,x,-z
-y,-x,-z
1/2+x,1/2+y,1/2+z
1/2-y,x,3/4+z
1/2-x,1/2-y,1/2+z
1/2+y,-x,3/4+z
1/2+x,-y,3/4-z
1/2-x,y,3/4-z
1/2+y,1/2+x,1/2-z
1/2-y,1/2-x,1/2-z
loop_
_atom_site_type_symbol
_atom_site_label
_atom_site_fract_x
_atom_site_fract_y
_atom_site_fract_z
Si Si1 0.392847 0.491539 0.283685
Si Si2 0.970641 0.784971 0.713483
Si Si3 0.780438 0.557835 0.586437
Si Si4 0.181456 0.161039 0.385751
Si Si5 0.045032 0.354811 0.246838
Si Si6 0.990692 0.405369 0.440834
O O1 0.339028 0.485936 0.199154
O O2 0.358712 0.483720 0.388387
O O3 0.425623 0.559855 0.284633
O O4 0.448222 0.441162 0.266337
O O5 0.008281 0.750000 0.625000
O O6 0.955354 0.734197 0.798572
O O7 0.907341 0.813578 0.665027
O O8 0.015319 0.838947 0.754709
O O9 0.799785 0.630705 0.572637
O O10 0.718550 0.546972 0.521646
O O11 0.158295 0.158295 0.500000
O O12 0.250000 0.194257 0.375000
O O13 0.115178 0.384823 0.250000
O O14 0.000730 0.394249 0.322908
#
# Coordination Sequence:
#
# PCOD8306208 Si02
#       6
#    16  16  16  16  16  16
#     4  10  18  31  49  70  99 123 165 213 241 296
#     4  10  19  34  51  65  96 130 164 208 249 288
#     4  11  20  32  48  71  96 131 168 206 245 281
#     4  11  20  32  47  64  94 139 173 206 237 279
#     4   9  19  32  46  69 101 133 162 202 246 292
#     4   9  18  31  50  70  91 132 165 197 259 296
#
# _framework density 15.817669
#
# number of rings (size 3 to 8) (size 9 to 14) (size 15 to 20)
#    0.000    2.000    5.000    1.000    0.000    2.667 
#    0.000    0.833    0.000    3.000    0.000    0.000 
#    0.000   32.000    0.000    0.000    0.000    0.000 
#
# Total GULP energy -594866.926013 kJ/mol
# GULP energy per Si atom -12393.060959 kJ/mol
# Density = 1.578167 g / cm^3
# Si number density = 15.817669 Si / 1000 Ang^3
#
#
#
# Elastic Constant Matrix: (Units=GPa)
#
#
# Indices 1 2 3 4 5 6 
#
# 1 71.9093 42.0182 34.1612 0.0000 0.0000 0.0000
# 2 42.0182 71.9100 34.1612 0.0000 0.0000 0.0000
# 3 34.1612 34.1612 96.6507 0.0000 0.0000 0.0000
# 4 0.0000 0.0000 0.0000 18.2802 0.0000 0.0000
# 5 0.0000 0.0000 0.0000 0.0000 18.2798 0.0000
# 6 0.0000 0.0000 0.0000 0.0000 0.0000 22.4432
#
#
#
# Elastic Compliance Matrix: (Units=1/GPa)
#
#
# Indices 1 2 3 4 5 6 
#
# 1 0.022297 -0.011158 -0.003937 0.000000 0.000000 0.000000
# 2 -0.011158 0.022296 -0.003937 0.000000 0.000000 0.000000
# 3 -0.003937 -0.003937 0.013130 0.000000 0.000000 0.000000
# 4 0.000000 0.000000 0.000000 0.054704 0.000000 0.000000
# 5 0.000000 0.000000 0.000000 0.000000 0.054705 0.000000
# 6 0.000000 0.000000 0.000000 0.000000 0.000000 0.044557
#
#
# Mechanical properties :
#
#
# Convention : Reuss Voigt Hill
#
# Bulk Modulus (GPa) = 50.86767 51.23903 51.05335
# Shear Modulus (GPa) = 19.50801 20.47593 19.99197
#
# Velocity S-wave (km/s) = 3.51565 3.60182 3.55900
# Velocity P-wave (km/s) = 6.97914 7.05417 7.01675
#
# Compressibility (1/GPa) = 0.01965885
#
# Stress axis : x y z
#
# Youngs Moduli (GPa) = 44.85005 44.85052 76.16430
#
# Poissons Ratio (x) = 0.50044 0.29985
# Poissons Ratio (y) = 0.50044 0.29985
# Poissons Ratio (z) = 0.17657 0.17657
#
# Static dielectric constant tensor:
#      x y z
#    x 2.925420 0.000000 0.000000 
#    y 0.000000 2.925420 0.000000 
#    z 0.000000 0.000000 3.166430 
# 
# 
# High freq. dielectric constant tensor:
#      x y z
#    x 1.584540 0.000000 0.000000 
#    y 0.000000 1.584540 0.000000 
#    z 0.000000 0.000000 1.617450 
# 
# From -- ./inp_files/5293.got.cif
#   From: 2010.03.12/outbox.cif.g09.slc.cpg/sg98_3_cif.got.tgz:5293.got - 2010.04.08 21:04:41.
