data_PCOD8306078
_publ_section_title
;
Structure prediction by ZEFSAII (Michael W. Deem and Ramdas Pophale) SiO2 
 PCOD8306078
Probable space group: I 4 2 2 
;
_chemical_formula_sum "Si O2"
_cell_formula_units_Z 88
_cell_length_a 18.535376
_cell_length_b 18.535376
_cell_length_c 13.541421
_cell_angle_alpha 90.000000
_cell_angle_beta 90.000000
_cell_angle_gamma 90.000000
_cell_volume 4652.292812
_symmetry_space_group_name_H-M "I 4 2 2 "
_symmetry_group_IT_number 97
_symmetry_cell_setting 'tetragonal'
loop_
_space_group_symop_operation_xyz
x,y,z
-y,x,z
-x,-y,z
y,-x,z
x,-y,-z
-x,y,-z
y,x,-z
-y,-x,-z
1/2+x,1/2+y,1/2+z
1/2-y,1/2+x,1/2+z
1/2-x,1/2-y,1/2+z
1/2+y,1/2-x,1/2+z
1/2+x,1/2-y,1/2-z
1/2-x,1/2+y,1/2-z
1/2+y,1/2+x,1/2-z
1/2-y,1/2-x,1/2-z
loop_
_atom_site_type_symbol
_atom_site_label
_atom_site_fract_x
_atom_site_fract_y
_atom_site_fract_z
Si Si1 0.367975 0.247639 0.735499
Si Si2 0.791506 0.555570 0.081911
Si Si3 0.301309 0.582667 0.525910
Si Si4 0.337118 0.146382 0.058823
Si Si5 0.571103 0.035960 0.638652
Si Si6 0.213901 0.713901 0.250000
O O1 0.334931 0.165070 0.750000
O O2 0.424880 0.260804 0.825828
O O3 0.410688 0.267032 0.635600
O O4 0.299485 0.301529 0.736134
O O5 0.862878 0.519116 0.126912
O O6 0.757524 0.500000 0.000000
O O7 0.805662 0.634019 0.032146
O O8 0.316797 0.500000 0.500000
O O9 0.374544 0.625457 0.500000
O O10 0.241807 0.615451 0.454140
O O11 0.393769 0.081982 0.071988
O O12 0.335460 0.193828 0.157478
O O13 0.560563 0.060563 0.750000
O O14 0.500000 0.000000 0.595501
#
# Coordination Sequence:
#
# PCOD8306078 Si02
#       6
#    16  16  16  16  16   8
#     4  10  21  39  63  88 124 161 211 267 320 387
#     4  10  23  37  55  86 129 166 207 256 317 375
#     4  12  26  41  66  94 121 165 223 275 337 387
#     4  11  21  38  59  92 121 173 212 258 310 396
#     4  10  23  33  52  83 130 171 208 238 302 381
#     4  10  20  36  67  86 129 158 226 264 318 380
#
# _framework density 18.915405
#
# number of rings (size 3 to 8) (size 9 to 14) (size 15 to 20)
#    0.545    0.909    4.545    0.000    7.636    2.727 
#    0.000    0.000    0.000    0.000    0.000    0.000 
#    0.000    0.000    0.000    0.000    0.000    0.000 
#
# Total GULP energy -545145.269176 kJ/mol
# GULP energy per Si atom -12389.665209 kJ/mol
# Density = 1.887235 g / cm^3
# Si number density = 18.915405 Si / 1000 Ang^3
#
#
#
# Elastic Constant Matrix: (Units=GPa)
#
#
# Indices 1 2 3 4 5 6 
#
# 1 82.3018 34.1064 40.2236 0.0000 0.0000 0.0000
# 2 34.1064 82.3052 40.2240 0.0000 0.0000 0.0000
# 3 40.2236 40.2240 136.6830 0.0000 0.0000 0.0000
# 4 0.0000 0.0000 0.0000 22.4115 0.0000 0.0000
# 5 0.0000 0.0000 0.0000 0.0000 22.4106 0.0000
# 6 0.0000 0.0000 0.0000 0.0000 0.0000 23.5850
#
#
#
# Elastic Compliance Matrix: (Units=1/GPa)
#
#
# Indices 1 2 3 4 5 6 
#
# 1 0.015766 -0.004982 -0.003173 0.000000 0.000000 0.000000
# 2 -0.004982 0.015765 -0.003173 0.000000 0.000000 0.000000
# 3 -0.003173 -0.003173 0.009184 0.000000 0.000000 0.000000
# 4 0.000000 0.000000 0.000000 0.044620 0.000000 0.000000
# 5 0.000000 0.000000 0.000000 0.000000 0.044622 0.000000
# 6 0.000000 0.000000 0.000000 0.000000 0.000000 0.042400
#
#
# Mechanical properties :
#
#
# Convention : Reuss Voigt Hill
#
# Bulk Modulus (GPa) = 55.37970 58.93310 57.15640
# Shear Modulus (GPa) = 24.87135 26.13047 25.50091
#
# Velocity S-wave (km/s) = 3.63005 3.72080 3.67571
# Velocity P-wave (km/s) = 6.84915 7.04861 6.94960
#
# Compressibility (1/GPa) = 0.01805716
#
# Stress axis : x y z
#
# Youngs Moduli (GPa) = 63.42716 63.43004 108.88544
#
# Poissons Ratio (x) = 0.31603 0.34554
# Poissons Ratio (y) = 0.31602 0.34553
# Poissons Ratio (z) = 0.20128 0.20128
#
# Static dielectric constant tensor:
#      x y z
#    x 3.340300 0.000000 0.000000 
#    y 0.000000 3.340290 0.000000 
#    z 0.000000 0.000000 4.158450 
# 
# 
# High freq. dielectric constant tensor:
#      x y z
#    x 1.708800 0.000000 0.000000 
#    y 0.000000 1.708800 0.000000 
#    z 0.000000 0.000000 1.761420 
# 
# From -- ./inp_files/4880.got.cif
#   From: 2010.03.12/outbox.cif.g09.slc.cpg/sg97_3_cif.got.tgz:4880.got - 2010.04.08 20:59:42.
