data_PCOD8306251
_publ_section_title
;
Structure prediction by ZEFSAII (Michael W. Deem and Ramdas Pophale) SiO2 
 PCOD8306251
Probable space group: I 41 2 2
;
_chemical_formula_sum "Si O2"
_cell_formula_units_Z 40
_cell_length_a 18.256232
_cell_length_b 18.256232
_cell_length_c 4.980467
_cell_angle_alpha 90.000000
_cell_angle_beta 90.000000
_cell_angle_gamma 90.000000
_cell_volume 1659.939880
_symmetry_space_group_name_H-M "I 41 2 2"
_symmetry_group_IT_number 98
_symmetry_cell_setting 'tetragonal'
loop_
_space_group_symop_operation_xyz
x,y,z
-y,1/2+x,1/4+z
-x,-y,z
y,1/2-x,1/4+z
x,1/2-y,1/4-z
-x,1/2+y,1/4-z
y,x,-z
-y,-x,-z
1/2+x,1/2+y,1/2+z
1/2-y,x,3/4+z
1/2-x,1/2-y,1/2+z
1/2+y,-x,3/4+z
1/2+x,-y,3/4-z
1/2-x,y,3/4-z
1/2+y,1/2+x,1/2-z
1/2-y,1/2-x,1/2-z
loop_
_atom_site_type_symbol
_atom_site_label
_atom_site_fract_x
_atom_site_fract_y
_atom_site_fract_z
Si Si1 0.860827 0.750000 0.125000
Si Si2 0.120959 0.049522 0.737533
Si Si3 0.408287 0.701611 0.880163
O O1 0.809774 0.690227 0.250000
O O2 0.912480 0.700870 0.934114
O O3 0.065806 0.065806 0.500000
O O4 0.139176 0.963591 0.733618
O O5 0.078616 0.078616 0.000000
O O6 0.384916 0.750000 0.625000
O O7 0.442902 0.750000 0.125000
O O8 0.336422 0.663579 0.000000
#
# Coordination Sequence:
#
# PCOD8306251 Si02
#       3
#     8  16  16
#     4  10  20  34  62 102 146 192 244 282 356 430
#     4  11  24  42  71 106 150 197 244 299 368 452
#     4  12  27  50  78 111 148 195 253 319 386 446
#
# _framework density 24.097256999999999
#
# number of rings (size 3 to 8) (size 9 to 14) (size 15 to 20)
#    0.000    0.800    2.000    4.800    5.600    2.400 
#    0.000    2.000    0.000    0.000    0.000    0.000 
#    0.000    0.000    0.000    0.000    0.000    0.000 
#
# Total GULP energy -247804.018381 kJ/mol
# GULP energy per Si atom -12390.200919 kJ/mol
# Density = 2.404241 g / cm^3
# Si number density = 24.097257 Si / 1000 Ang^3
#
#
#
# Elastic Constant Matrix: (Units=GPa)
#
#
# Indices 1 2 3 4 5 6 
#
# 1 114.3736 53.4571 63.4230 0.0000 0.0000 0.0000
# 2 53.4571 114.3686 63.4208 0.0000 0.0000 0.0000
# 3 63.4230 63.4208 181.0744 0.0000 0.0000 0.0000
# 4 0.0000 0.0000 0.0000 74.7487 0.0000 0.0000
# 5 0.0000 0.0000 0.0000 0.0000 74.7628 0.0000
# 6 0.0000 0.0000 0.0000 0.0000 0.0000 24.8082
#
#
#
# Elastic Compliance Matrix: (Units=1/GPa)
#
#
# Indices 1 2 3 4 5 6 
#
# 1 0.012260 -0.004156 -0.002838 0.000000 0.000000 0.000000
# 2 -0.004156 0.012260 -0.002838 0.000000 0.000000 0.000000
# 3 -0.002838 -0.002838 0.007511 0.000000 0.000000 0.000000
# 4 0.000000 0.000000 0.000000 0.013378 0.000000 0.000000
# 5 0.000000 0.000000 0.000000 0.000000 0.013376 0.000000
# 6 0.000000 0.000000 0.000000 0.000000 0.000000 0.040309
#
#
# Mechanical properties :
#
#
# Convention : Reuss Voigt Hill
#
# Bulk Modulus (GPa) = 80.87430 85.60203 83.23816
# Shear Modulus (GPa) = 40.68941 50.16499 45.42720
#
# Velocity S-wave (km/s) = 4.11365 4.56759 4.34655
# Velocity P-wave (km/s) = 7.49649 7.96354 7.73354
#
# Compressibility (1/GPa) = 0.01236487
#
# Stress axis : x y z
#
# Youngs Moduli (GPa) = 81.56673 81.56364 133.14047
#
# Poissons Ratio (x) = 0.33902 0.37790
# Poissons Ratio (y) = 0.33903 0.37790
# Poissons Ratio (z) = 0.23152 0.23150
#
# Static dielectric constant tensor:
#      x y z
#    x 3.455150 0.000000 0.000000 
#    y 0.000000 3.454050 0.000000 
#    z 0.000000 0.000000 11.113330 
# 
# 
# High freq. dielectric constant tensor:
#      x y z
#    x 1.964140 0.000000 0.000000 
#    y 0.000000 1.964140 0.000000 
#    z 0.000000 0.000000 1.948490 
# 
# From -- ./inp_files/475.got.cif
#   From: 2010.03.12/outbox.cif.g09.slc.cpg/sg98_1_cif.got.tgz:475.got - 2010.04.08 21:04:41.
