data_PCOD8306597
_publ_section_title
;
Structure prediction by ZEFSAII (Michael W. Deem and Ramdas Pophale) SiO2 
 PCOD8306597
Probable space group: P 4 M M
;
_chemical_formula_sum "Si O2"
_cell_formula_units_Z 64
_cell_length_a 13.425708
_cell_length_b 13.425708
_cell_length_c 20.388532
_cell_angle_alpha 90.000000
_cell_angle_beta 90.000000
_cell_angle_gamma 90.000000
_cell_volume 3675.025457
_symmetry_space_group_name_H-M "P 4 M M"
_symmetry_group_IT_number 99
_symmetry_cell_setting 'tetragonal'
loop_
_space_group_symop_operation_xyz
x,y,z
-y,x,z
-x,-y,z
y,-x,z
-x,y,z
x,-y,z
-y,-x,z
y,x,z
loop_
_atom_site_type_symbol
_atom_site_label
_atom_site_fract_x
_atom_site_fract_y
_atom_site_fract_z
Si Si1 0.724542 0.886954 0.989780
Si Si2 0.117548 0.722492 0.389789
Si Si3 0.387566 0.773526 0.887296
Si Si4 0.117957 0.390517 0.260377
Si Si5 0.883109 0.279733 0.625708
Si Si6 0.384591 0.223795 0.738026
Si Si7 0.781023 0.383020 0.506067
Si Si8 0.114423 0.273630 0.136311
O O1 0.821779 0.821779 0.975496
O O2 0.638945 0.862129 0.937292
O O3 0.758416 0.000000 0.980740
O O4 0.681648 0.868911 0.063322
O O5 0.172337 0.827664 0.402439
O O6 0.150833 0.681948 0.318869
O O7 0.152063 0.641437 0.442815
O O8 0.000000 0.740914 0.395452
O O9 0.500000 0.740012 0.898426
O O10 0.322743 0.677258 0.904137
O O11 0.370696 0.811116 0.813080
O O12 0.165049 0.500000 0.271006
O O13 0.157097 0.349896 0.190402
O O14 0.000000 0.399359 0.259518
O O15 0.825923 0.174078 0.621824
O O16 0.862353 0.334995 0.694434
O O17 0.845303 0.353148 0.569165
O O18 0.000000 0.258362 0.618286
O O19 0.500000 0.239189 0.719608
O O20 0.329097 0.329097 0.725179
O O21 0.756724 0.500000 0.507959
O O22 0.676657 0.323344 0.504381
O O23 0.168394 0.168394 0.143087
O O24 0.000000 0.250429 0.150818
#
# Coordination Sequence:
#
# PCOD8306597 Si02
#       8
#     8   8   8   8   8   8   8   8
#     4   9  18  31  46  66  93 124 159 199 240 284
#     4  10  20  33  50  73 100 130 165 204 245 290
#     4   9  18  32  49  70  96 124 156 196 240 287
#     4   9  17  29  45  65  90 121 156 193 233 278
#     4  10  21  36  53  74 100 130 165 203 241 284
#     4   9  18  32  50  73  99 126 157 194 238 288
#     4  10  21  36  54  77 103 131 165 203 243 288
#     4   9  17  29  45  66  92 121 153 190 234 285
#
# _framework density 17.414845
#
# number of rings (size 3 to 8) (size 9 to 14) (size 15 to 20)
#    0.000    2.625    0.000    1.500    0.000    4.375 
#    0.000    5.000    0.000    6.750    0.000    3.500 
#    0.000    2.250    0.000    0.500    0.000    0.125 
#
# Total GULP energy -793525.856127 kJ/mol
# GULP energy per Si atom -12398.841502 kJ/mol
# Density = 1.737521 g / cm^3
# Si number density = 17.414845 Si / 1000 Ang^3
#
#
#
# Elastic Constant Matrix: (Units=GPa)
#
#
# Indices 1 2 3 4 5 6 
#
# 1 101.1144 42.6680 48.8859 0.0000 0.0000 -0.0002
# 2 42.6680 101.1144 48.8859 0.0000 0.0000 0.0002
# 3 48.8859 48.8859 113.1027 0.0000 0.0000 0.0000
# 4 0.0000 0.0000 0.0000 25.0853 0.0000 0.0000
# 5 0.0000 0.0000 0.0000 0.0000 25.0853 0.0000
# 6 -0.0002 0.0002 0.0000 0.0000 0.0000 12.7065
#
#
#
# Elastic Compliance Matrix: (Units=1/GPa)
#
#
# Indices 1 2 3 4 5 6 
#
# 1 0.013480 -0.003630 -0.004257 0.000000 0.000000 0.000000
# 2 -0.003630 0.013480 -0.004257 0.000000 0.000000 0.000000
# 3 -0.004257 -0.004257 0.012522 0.000000 0.000000 0.000000
# 4 0.000000 0.000000 0.000000 0.039864 0.000000 0.000000
# 5 0.000000 0.000000 0.000000 0.000000 0.039864 0.000000
# 6 0.000000 0.000000 0.000000 0.000000 0.000000 0.078700
#
#
# Mechanical properties :
#
#
# Convention : Reuss Voigt Hill
#
# Bulk Modulus (GPa) = 65.82345 66.24570 66.03457
# Shear Modulus (GPa) = 22.00094 24.23485 23.11790
#
# Velocity S-wave (km/s) = 3.55821 3.73449 3.64742
# Velocity P-wave (km/s) = 7.40004 7.53111 7.46586
#
# Compressibility (1/GPa) = 0.01519215
#
# Stress axis : x y z
#
# Youngs Moduli (GPa) = 74.18485 74.18485 79.86033
#
# Poissons Ratio (x) = 0.26928 0.34000
# Poissons Ratio (y) = 0.26928 0.34000
# Poissons Ratio (z) = 0.31584 0.31584
#
# Static dielectric constant tensor:
#      x y z
#    x 3.119100 0.000000 0.000000 
#    y 0.000000 3.119100 0.000000 
#    z 0.000000 0.000000 3.565510 
# 
# 
# High freq. dielectric constant tensor:
#      x y z
#    x 1.658810 0.000000 0.000000 
#    y 0.000000 1.658810 0.000000 
#    z 0.000000 0.000000 1.692220 
# 
# From -- ./inp_files/2278.got.cif
#   From: 2010.03.12/outbox.cif.g09.slc.cpg/sg99_cif.got.tgz:2278.got - 2010.04.08 21:11:30.
