data_PCOD8306971
_publ_section_title
;
Structure prediction by ZEFSAII (Michael W. Deem and Ramdas Pophale) SiO2 
 PCOD8306971
Probable space group: P 4 C C
;
_chemical_formula_sum "Si O2"
_cell_formula_units_Z 48
_cell_length_a 11.030491
_cell_length_b 11.030491
_cell_length_c 19.473310
_cell_angle_alpha 90.000000
_cell_angle_beta 90.000000
_cell_angle_gamma 90.000000
_cell_volume 2369.351350
_symmetry_space_group_name_H-M "P 4 C C"
_symmetry_group_IT_number 103
_symmetry_cell_setting 'tetragonal'
loop_
_space_group_symop_operation_xyz
x,y,z
-y,x,z
-x,-y,z
y,-x,z
-x,y,1/2+z
x,-y,1/2+z
-y,-x,1/2+z
y,x,1/2+z
loop_
_atom_site_type_symbol
_atom_site_label
_atom_site_fract_x
_atom_site_fract_y
_atom_site_fract_z
Si Si1 0.491471 0.855431 0.444860
Si Si2 0.877030 0.433887 0.302612
Si Si3 0.843674 0.325771 0.061084
Si Si4 0.694740 0.555893 0.678318
Si Si5 0.716235 0.898144 0.520642
Si Si6 0.946818 0.813133 0.873975
O O1 0.495604 0.810070 0.366198
O O2 0.369921 0.811681 0.482989
O O3 0.604288 0.816632 0.492827
O O4 0.500000 0.000000 0.438815
O O5 0.775481 0.423125 0.245173
O O6 0.913336 0.301628 0.328642
O O7 0.000000 0.500000 0.276321
O O8 0.782711 0.417548 0.114409
O O9 0.795974 0.188965 0.069162
O O10 0.989902 0.326852 0.068938
O O11 0.582186 0.648659 0.676348
O O12 0.790441 0.947916 0.455654
O O13 0.082506 0.852049 0.854332
#
# Coordination Sequence:
#
# PCOD8306971 Si02
#       6
#     8   8   8   8   8   8
#     4   8  18  35  57  92 119 156 206 256 310 391
#     4  10  23  39  67  96 128 171 225 266 332 399
#     4  11  21  38  62  92 128 166 217 266 335 394
#     4  11  27  47  64  87 127 178 228 277 327 382
#     4  10  19  33  62  94 127 164 208 267 329 389
#     4  10  20  37  64  99 140 171 206 271 343 397
#
# _framework density 20.258709
#
# number of rings (size 3 to 8) (size 9 to 14) (size 15 to 20)
#    0.000    2.000    1.667    2.000    2.333    5.000 
#    0.000    0.000    0.000    2.000    0.000    0.000 
#    0.000    0.000    0.000    0.000    0.000    0.000 
#
# Total GULP energy -594941.728819 kJ/mol
# GULP energy per Si atom -12394.619350 kJ/mol
# Density = 2.021260 g / cm^3
# Si number density = 20.258709 Si / 1000 Ang^3
#
#
#
# Elastic Constant Matrix: (Units=GPa)
#
#
# Indices 1 2 3 4 5 6 
#
# 1 101.7020 47.2229 54.6190 0.0000 0.0000 0.0000
# 2 47.2229 101.7020 54.6190 0.0000 0.0000 0.0000
# 3 54.6190 54.6190 114.1277 0.0000 0.0000 0.0000
# 4 0.0000 0.0000 0.0000 29.6737 0.0000 0.0000
# 5 0.0000 0.0000 0.0000 0.0000 29.6737 0.0000
# 6 0.0000 0.0000 0.0000 0.0000 0.0000 24.2520
#
#
#
# Elastic Compliance Matrix: (Units=1/GPa)
#
#
# Indices 1 2 3 4 5 6 
#
# 1 0.014351 -0.004004 -0.004952 0.000000 0.000000 0.000000
# 2 -0.004004 0.014351 -0.004952 0.000000 0.000000 0.000000
# 3 -0.004952 -0.004952 0.013502 0.000000 0.000000 0.000000
# 4 0.000000 0.000000 0.000000 0.033700 0.000000 0.000000
# 5 0.000000 0.000000 0.000000 0.000000 0.033700 0.000000
# 6 0.000000 0.000000 0.000000 0.000000 0.000000 0.041234
#
#
# Mechanical properties :
#
#
# Convention : Reuss Voigt Hill
#
# Bulk Modulus (GPa) = 69.50021 70.05036 69.77528
# Shear Modulus (GPa) = 27.25537 27.45796 27.35666
#
# Velocity S-wave (km/s) = 3.67190 3.68552 3.67872
# Velocity P-wave (km/s) = 7.23588 7.26387 7.24989
#
# Compressibility (1/GPa) = 0.01438845
#
# Stress axis : x y z
#
# Youngs Moduli (GPa) = 69.67987 69.67987 74.06417
#
# Poissons Ratio (x) = 0.27902 0.36676
# Poissons Ratio (y) = 0.27902 0.36676
# Poissons Ratio (z) = 0.34504 0.34504
#
# Static dielectric constant tensor:
#      x y z
#    x 3.777510 0.000000 0.000000 
#    y 0.000000 3.777510 0.000000 
#    z 0.000000 0.000000 3.581740 
# 
# 
# High freq. dielectric constant tensor:
#      x y z
#    x 1.792730 0.000000 0.000000 
#    y 0.000000 1.792730 0.000000 
#    z 0.000000 0.000000 1.767680 
# 
# From -- ./inp_files/1031.got.cif
#   From: 2010.03.12/outbox.cif.g09.slc.cpg/sg103_cif.got.tgz:1031.got - 2010.04.14 01:42:52.
