data_PCOD8306046
_publ_section_title
;
Structure prediction by ZEFSAII (Michael W. Deem and Ramdas Pophale) SiO2 
 PCOD8306046
Probable space group: I 4 2 2 
;
_chemical_formula_sum "Si O2"
_cell_formula_units_Z 128
_cell_length_a 25.007390
_cell_length_b 25.007390
_cell_length_c 12.065408
_cell_angle_alpha 90.000000
_cell_angle_beta 90.000000
_cell_angle_gamma 90.000000
_cell_volume 7545.338827
_symmetry_space_group_name_H-M "I 4 2 2 "
_symmetry_group_IT_number 97
_symmetry_cell_setting 'tetragonal'
loop_
_space_group_symop_operation_xyz
x,y,z
-y,x,z
-x,-y,z
y,-x,z
x,-y,-z
-x,y,-z
y,x,-z
-y,-x,-z
1/2+x,1/2+y,1/2+z
1/2-y,1/2+x,1/2+z
1/2-x,1/2-y,1/2+z
1/2+y,1/2-x,1/2+z
1/2+x,1/2-y,1/2-z
1/2-x,1/2+y,1/2-z
1/2+y,1/2+x,1/2-z
1/2-y,1/2-x,1/2-z
loop_
_atom_site_type_symbol
_atom_site_label
_atom_site_fract_x
_atom_site_fract_y
_atom_site_fract_z
Si Si1 0.941561 0.186353 0.495064
Si Si2 0.442301 0.189897 0.006628
Si Si3 0.311198 0.104175 0.267261
Si Si4 0.312975 0.100038 0.733491
Si Si5 0.186088 0.498003 0.625536
Si Si6 0.311046 0.398910 0.237599
Si Si7 0.500983 0.312902 0.625165
Si Si8 0.896830 0.184750 0.265345
O O1 0.951538 0.248056 0.467812
O O2 0.909605 0.178563 0.608175
O O3 0.908731 0.164045 0.390244
O O4 0.000000 0.158261 0.500000
O O5 0.410694 0.179549 0.895423
O O6 0.500000 0.161484 0.000000
O O7 0.410768 0.167310 0.111079
O O8 0.339038 0.160963 0.250000
O O9 0.331237 0.057533 0.183574
O O10 0.247903 0.114044 0.257510
O O11 0.346617 0.153384 0.750000
O O12 0.251267 0.111980 0.762628
O O13 0.334717 0.049744 0.805646
O O14 0.163153 0.500000 0.500000
O O15 0.249432 0.500203 0.624863
O O16 0.333029 0.449092 0.308030
O O17 0.343821 0.346436 0.274584
O O18 0.500000 0.335690 0.500000
O O19 0.554278 0.332849 0.686564
#
# Coordination Sequence:
#
# PCOD8306046 Si02
#       8
#    16  16  16  16  16  16  16  16
#     4   9  15  29  53  76  97 126 169 213 248 285
#     4   9  16  31  51  72  98 130 173 211 239 285
#     4  10  20  32  51  77 104 134 165 203 251 301
#     4  10  20  32  51  77 104 134 165 203 251 301
#     4   9  18  33  51  72  97 129 174 215 242 281
#     4  10  19  32  52  77 104 132 164 205 252 301
#     4   9  18  33  51  70  95 133 178 211 236 281
#     4  10  19  32  52  77 104 132 164 205 252 301
#
# _framework density 16.964116000000001
#
# number of rings (size 3 to 8) (size 9 to 14) (size 15 to 20)
#    0.000    2.500    2.500    0.375    1.750    1.000 
#    0.000    0.000    0.000    0.750    0.000    3.500 
#    0.000    0.000    0.000    0.000    0.000    0.000 
#
# Total GULP energy -793226.616996 kJ/mol
# GULP energy per Si atom -12394.165891 kJ/mol
# Density = 1.692551 g / cm^3
# Si number density = 16.964116 Si / 1000 Ang^3
#
#
#
# Elastic Constant Matrix: (Units=GPa)
#
#
# Indices 1 2 3 4 5 6 
#
# 1 80.1987 55.3428 32.0874 0.0000 0.0000 0.0000
# 2 55.3428 80.1942 32.0890 0.0000 0.0000 0.0000
# 3 32.0874 32.0890 110.9412 0.0000 0.0000 0.0000
# 4 0.0000 0.0000 0.0000 11.1935 0.0000 0.0000
# 5 0.0000 0.0000 0.0000 0.0000 11.1955 0.0000
# 6 0.0000 0.0000 0.0000 0.0000 0.0000 8.6276
#
#
#
# Elastic Compliance Matrix: (Units=1/GPa)
#
#
# Indices 1 2 3 4 5 6 
#
# 1 0.024391 -0.015843 -0.002472 0.000000 0.000000 0.000000
# 2 -0.015843 0.024393 -0.002473 0.000000 0.000000 0.000000
# 3 -0.002472 -0.002473 0.010444 0.000000 0.000000 0.000000
# 4 0.000000 0.000000 0.000000 0.089338 0.000000 0.000000
# 5 0.000000 0.000000 0.000000 0.000000 0.089321 0.000000
# 6 0.000000 0.000000 0.000000 0.000000 0.000000 0.115907
#
#
# Mechanical properties :
#
#
# Convention : Reuss Voigt Hill
#
# Bulk Modulus (GPa) = 56.65363 56.70806 56.68084
# Shear Modulus (GPa) = 12.46090 16.32433 14.39262
#
# Velocity S-wave (km/s) = 2.71319 3.10544 2.91592
# Velocity P-wave (km/s) = 6.57905 6.80875 6.69489
#
# Compressibility (1/GPa) = 0.01765112
#
# Stress axis : x y z
#
# Youngs Moduli (GPa) = 40.99848 40.99532 95.74786
#
# Poissons Ratio (x) = 0.64951 0.23669
# Poissons Ratio (y) = 0.64956 0.23680
# Poissons Ratio (z) = 0.10135 0.10139
#
# Static dielectric constant tensor:
#      x y z
#    x 2.914660 0.000000 0.000000 
#    y 0.000000 2.914660 0.000000 
#    z 0.000000 0.000000 3.514830 
# 
# 
# High freq. dielectric constant tensor:
#      x y z
#    x 1.627610 0.000000 0.000000 
#    y 0.000000 1.627620 0.000000 
#    z 0.000000 0.000000 1.670550 
# 
# From -- ./inp_files/4072.got.cif
#   From: 2010.03.12/outbox.cif.g09.slc.cpg/sg97_3_cif.got.tgz:4072.got - 2010.04.08 20:59:42.
