data_PCOD8306870
_publ_section_title
;
Structure prediction by ZEFSAII (Michael W. Deem and Ramdas Pophale) SiO2 
 PCOD8306870
Probable space group: P 42 N M
;
_chemical_formula_sum "Si O2"
_cell_formula_units_Z 56
_cell_length_a 13.325675
_cell_length_b 13.325675
_cell_length_c 17.068036
_cell_angle_alpha 90.000000
_cell_angle_beta 90.000000
_cell_angle_gamma 90.000000
_cell_volume 3030.832840
_symmetry_space_group_name_H-M "P 42 N M"
_symmetry_group_IT_number 102
_symmetry_cell_setting 'tetragonal'
loop_
_space_group_symop_operation_xyz
x,y,z
1/2-y,1/2+x,1/2+z
-x,-y,z
1/2+y,1/2-x,1/2+z
1/2-x,1/2+y,1/2+z
1/2+x,1/2-y,1/2+z
-y,-x,z
y,x,z
loop_
_atom_site_type_symbol
_atom_site_label
_atom_site_fract_x
_atom_site_fract_y
_atom_site_fract_z
Si Si1 0.407328 0.752858 0.724770
Si Si2 0.839110 0.006916 0.085559
Si Si3 0.530033 0.890909 0.162986
Si Si4 0.549120 0.716628 0.858536
Si Si5 0.396950 0.061861 0.817774
Si Si6 0.401753 0.242542 0.025566
Si Si7 0.409488 0.751721 0.444702
O O1 0.302427 0.697574 0.706088
O O2 0.490491 0.734648 0.658086
O O3 0.391819 0.871638 0.719541
O O4 0.446620 0.710032 0.808499
O O5 0.880528 0.119473 0.090890
O O6 0.927481 0.927481 0.093311
O O7 0.785665 0.996243 0.002291
O O8 0.446822 0.862406 0.227520
O O9 0.533337 0.806677 0.095478
O O10 0.500000 0.000000 0.126768
O O11 0.623553 0.623553 0.839933
O O12 0.599006 0.819918 0.832649
O O13 0.528054 0.721506 0.952645
O O14 0.307662 0.028362 0.876143
O O15 0.500000 0.000000 0.835147
O O16 0.337925 0.337925 0.057300
O O17 0.326004 0.158397 0.995813
O O18 0.339965 0.660036 0.413000
#
# Coordination Sequence:
#
# PCOD8306870 Si02
#       7
#     8   8   8   8   8   8   8
#     4  11  20  35  55  81 113 143 179 224 279 330
#     4   9  17  30  50  75 104 137 175 219 269 325
#     4  11  20  34  52  79 110 145 180 225 272 323
#     4  10  20  36  56  81 107 141 186 223 268 333
#     4  10  19  33  51  76 109 138 177 223 271 314
#     4   9  18  33  54  75  99 138 183 222 261 318
#     4   9  17  32  53  74  99 137 180 219 264 322
#
# _framework density 18.476769999999998
#
# number of rings (size 3 to 8) (size 9 to 14) (size 15 to 20)
#    0.000    2.143    4.286    2.143    0.000    3.143 
#    0.000    1.429    0.000    1.714    0.000    0.000 
#    0.000    0.000    0.000    0.000    0.000    0.000 
#
# Total GULP energy -693790.538746 kJ/mol
# GULP energy per Si atom -12389.116763 kJ/mol
# Density = 1.843472 g / cm^3
# Si number density = 18.476770 Si / 1000 Ang^3
#
#
#
# Elastic Constant Matrix: (Units=GPa)
#
#
# Indices 1 2 3 4 5 6 
#
# 1 43.6007 11.6357 27.5902 0.0000 0.0000 0.0001
# 2 11.6357 43.6007 27.5902 0.0000 0.0000 -0.0001
# 3 27.5902 27.5902 114.8889 0.0000 0.0000 0.0000
# 4 0.0000 0.0000 0.0000 26.8924 0.0000 0.0000
# 5 0.0000 0.0000 0.0000 0.0000 26.8924 0.0000
# 6 0.0001 -0.0001 0.0000 0.0000 0.0000 20.1267
#
#
#
# Elastic Compliance Matrix: (Units=1/GPa)
#
#
# Indices 1 2 3 4 5 6 
#
# 1 0.027551 -0.003733 -0.005720 0.000000 0.000000 0.000000
# 2 -0.003733 0.027551 -0.005720 0.000000 0.000000 0.000000
# 3 -0.005720 -0.005720 0.011451 0.000000 0.000000 0.000000
# 4 0.000000 0.000000 0.000000 0.037185 0.000000 0.000000
# 5 0.000000 0.000000 0.000000 0.000000 0.037185 0.000000
# 6 0.000000 0.000000 0.000000 0.000000 0.000000 0.049685
#
#
# Mechanical properties :
#
#
# Convention : Reuss Voigt Hill
#
# Bulk Modulus (GPa) = 27.61817 37.30249 32.46033
# Shear Modulus (GPa) = 21.45700 23.80057 22.62878
#
# Velocity S-wave (km/s) = 3.41148 3.59295 3.50339
# Velocity P-wave (km/s) = 5.52246 6.11924 5.82849
#
# Compressibility (1/GPa) = 0.03620805
#
# Stress axis : x y z
#
# Youngs Moduli (GPa) = 36.29612 36.29612 87.32667
#
# Poissons Ratio (x) = 0.13550 0.49949
# Poissons Ratio (y) = 0.13550 0.49949
# Poissons Ratio (z) = 0.20761 0.20761
#
# Static dielectric constant tensor:
#      x y z
#    x 3.363300 0.000000 0.000000 
#    y 0.000000 3.363300 0.000000 
#    z 0.000000 0.000000 3.854100 
# 
# 
# High freq. dielectric constant tensor:
#      x y z
#    x 1.693640 0.000000 0.000000 
#    y 0.000000 1.693640 0.000000 
#    z 0.000000 0.000000 1.720490 
# 
# From -- ./inp_files/2373.got.cif
#   From: 2010.03.12/outbox.cif.g09.slc.cpg/sg102_2_cif.got.tgz:2373.got - 2010.04.14 01:40:42.
