data_PCOD8306754
_publ_section_title
;
Structure prediction by ZEFSAII (Michael W. Deem and Ramdas Pophale) SiO2 
 PCOD8306754
Probable space group: P 42 C M
;
_chemical_formula_sum "Si O2"
_cell_formula_units_Z 56
_cell_length_a 18.407356
_cell_length_b 18.407356
_cell_length_c 10.426728
_cell_angle_alpha 90.000000
_cell_angle_beta 90.000000
_cell_angle_gamma 90.000000
_cell_volume 3532.896119
_symmetry_space_group_name_H-M "P 42 C M"
_symmetry_group_IT_number 101
_symmetry_cell_setting 'tetragonal'
loop_
_space_group_symop_operation_xyz
x,y,z
-y,x,1/2+z
-x,-y,z
y,-x,1/2+z
-x,y,1/2+z
x,-y,1/2+z
-y,-x,z
y,x,z
loop_
_atom_site_type_symbol
_atom_site_label
_atom_site_fract_x
_atom_site_fract_y
_atom_site_fract_z
Si Si1 0.842892 0.727932 0.193470
Si Si2 0.710103 0.821986 0.910258
Si Si3 0.036724 0.203741 0.887254
Si Si4 0.574507 0.899527 0.813962
Si Si5 0.651540 0.048284 0.866553
Si Si6 0.078606 0.471345 0.545179
Si Si7 0.962301 0.849924 0.151824
O O1 0.772142 0.772142 0.251176
O O2 0.879203 0.664828 0.280565
O O3 0.905363 0.785289 0.166082
O O4 0.819929 0.689120 0.060868
O O5 0.743725 0.743725 0.868551
O O6 0.774340 0.879825 0.890962
O O7 0.640646 0.842764 0.825709
O O8 0.984926 0.272562 0.908340
O O9 0.027131 0.163392 0.751384
O O10 0.013207 0.150034 0.003073
O O11 0.522928 0.885786 0.936848
O O12 0.531543 0.879646 0.682443
O O13 0.602368 0.983776 0.802689
O O14 0.610954 0.076010 0.993239
O O15 0.000000 0.500000 0.579093
O O16 0.927189 0.927189 0.185574
#
# Coordination Sequence:
#
# PCOD8306754 Si02
#       7
#     8   8   8   8   8   8   8
#     4   8  15  28  45  65  87 117 153 191 231 278
#     4   9  18  31  49  67  86 117 157 192 230 279
#     4   9  17  28  49  65  84 112 144 191 238 284
#     4  10  21  30  47  66  96 126 156 192 234 273
#     4   9  18  26  46  65  97 117 155 191 236 270
#     4  10  20  31  42  69  95 126 153 190 230 283
#     4   9  17  30  45  62  81 106 144 189 243 290
#
# _framework density 15.851018
#
# number of rings (size 3 to 8) (size 9 to 14) (size 15 to 20)
#    0.000    2.857    0.000    2.571   14.000    0.000 
#    0.000    2.143    0.000    3.429    0.000    0.000 
#    0.000    0.000    0.000    0.000    0.000    5.714 
#
# Total GULP energy -693767.384219 kJ/mol
# GULP energy per Si atom -12388.703290 kJ/mol
# Density = 1.581494 g / cm^3
# Si number density = 15.851018 Si / 1000 Ang^3
#
#
#
# Elastic Constant Matrix: (Units=GPa)
#
#
# Indices 1 2 3 4 5 6 
#
# 1 46.0969 28.5887 35.0069 0.0000 0.0000 0.0000
# 2 28.5887 46.0969 35.0069 0.0000 0.0000 0.0000
# 3 35.0069 35.0069 109.1100 0.0000 0.0000 0.0000
# 4 0.0000 0.0000 0.0000 17.4964 0.0000 0.0000
# 5 0.0000 0.0000 0.0000 0.0000 17.4964 0.0000
# 6 0.0000 0.0000 0.0000 0.0000 0.0000 15.2076
#
#
#
# Elastic Compliance Matrix: (Units=1/GPa)
#
#
# Indices 1 2 3 4 5 6 
#
# 1 0.038133 -0.018984 -0.006144 0.000000 0.000000 0.000000
# 2 -0.018984 0.038133 -0.006144 0.000000 0.000000 0.000000
# 3 -0.006144 -0.006144 0.013107 0.000000 0.000000 0.000000
# 4 0.000000 0.000000 0.000000 0.057154 0.000000 0.000000
# 5 0.000000 0.000000 0.000000 0.000000 0.057154 0.000000
# 6 0.000000 0.000000 0.000000 0.000000 0.000000 0.065757
#
#
# Mechanical properties :
#
#
# Convention : Reuss Voigt Hill
#
# Bulk Modulus (GPa) = 37.27141 44.27875 40.77508
# Shear Modulus (GPa) = 14.66604 16.88685 15.77644
#
# Velocity S-wave (km/s) = 3.04508 3.26751 3.15825
# Velocity P-wave (km/s) = 5.99399 6.49850 6.25134
#
# Compressibility (1/GPa) = 0.02683022
#
# Stress axis : x y z
#
# Youngs Moduli (GPa) = 26.22434 26.22434 76.29290
#
# Poissons Ratio (x) = 0.49783 0.46872
# Poissons Ratio (y) = 0.49783 0.46872
# Poissons Ratio (z) = 0.16112 0.16112
#
# Static dielectric constant tensor:
#      x y z
#    x 2.831350 0.000000 0.000000 
#    y 0.000000 2.831350 0.000000 
#    z 0.000000 0.000000 3.192180 
# 
# 
# High freq. dielectric constant tensor:
#      x y z
#    x 1.570950 0.000000 0.000000 
#    y 0.000000 1.570950 0.000000 
#    z 0.000000 0.000000 1.615970 
# 
# From -- ./inp_files/779.got.cif
#   From: 2010.03.12/outbox.cif.g09.slc.cpg/sg101_1_cif.got.tgz:779.got - 2010.04.14 01:38:52.
