data_PCOD8306424
_publ_section_title
;
Structure prediction by ZEFSAII (Michael W. Deem and Ramdas Pophale) SiO2 
 PCOD8306424
Probable space group: P 4 M M
;
_chemical_formula_sum "Si O2"
_cell_formula_units_Z 64
_cell_length_a 19.693929
_cell_length_b 19.693929
_cell_length_c 9.930685
_cell_angle_alpha 90.000000
_cell_angle_beta 90.000000
_cell_angle_gamma 90.000000
_cell_volume 3851.624514
_symmetry_space_group_name_H-M "P 4 M M"
_symmetry_group_IT_number 99
_symmetry_cell_setting 'tetragonal'
loop_
_space_group_symop_operation_xyz
x,y,z
-y,x,z
-x,-y,z
y,-x,z
-x,y,z
x,-y,z
-y,-x,z
y,x,z
loop_
_atom_site_type_symbol
_atom_site_label
_atom_site_fract_x
_atom_site_fract_y
_atom_site_fract_z
Si Si1 0.235765 0.346390 0.703810
Si Si2 0.262389 0.629071 0.199831
Si Si3 0.184529 0.578481 0.447109
Si Si4 0.739703 0.150879 0.138740
Si Si5 0.747874 0.858736 0.842769
Si Si6 0.811410 0.077598 0.600030
Si Si7 0.921257 0.305746 0.395251
Si Si8 0.423578 0.684958 0.932689
O O1 0.284614 0.284614 0.655552
O O2 0.222341 0.396256 0.580236
O O3 0.163522 0.319145 0.760426
O O4 0.268787 0.388548 0.822398
O O5 0.329145 0.670856 0.244396
O O6 0.237391 0.584554 0.324746
O O7 0.205937 0.680910 0.148310
O O8 0.278247 0.578914 0.076994
O O9 0.162270 0.500000 0.463497
O O10 0.118629 0.624241 0.417419
O O11 0.813117 0.186884 0.158561
O O12 0.728932 0.093901 0.251740
O O13 0.733391 0.113307 0.993024
O O14 0.789707 0.789707 0.864215
O O15 0.789358 0.913998 0.756089
O O16 0.875887 0.124114 0.565158
O O17 0.748525 0.101016 0.508022
O O18 0.832143 0.000000 0.572836
O O19 0.000000 0.323743 0.405717
O O20 0.500000 0.671787 0.888772
O O21 0.387569 0.612432 0.941352
#
# Coordination Sequence:
#
# PCOD8306424 Si02
#       8
#     8   8   8   8   8   8   8   8
#     4  10  18  31  50  73  98 123 157 204 254 300
#     4   9  17  30  48  72  96 122 159 206 253 294
#     4  11  21  32  49  72  97 130 167 205 253 300
#     4   9  16  29  51  75  97 121 156 202 249 290
#     4   9  16  29  50  76 101 125 156 199 249 294
#     4  10  20  34  53  77 105 135 167 203 244 293
#     4  10  21  34  49  71  98 132 168 203 243 290
#     4  10  19  31  47  68  97 129 162 203 247 296
#
# _framework density 16.616367
#
# number of rings (size 3 to 8) (size 9 to 14) (size 15 to 20)
#    0.000    2.250    2.500    1.500    0.000    2.000 
#    0.000    0.000    0.000    0.000    0.000    0.000 
#    0.000   12.000    0.000    0.000    0.000    0.000 
#
# Total GULP energy -793525.911239 kJ/mol
# GULP energy per Si atom -12398.842363 kJ/mol
# Density = 1.657855 g / cm^3
# Si number density = 16.616367 Si / 1000 Ang^3
#
#
#
# Elastic Constant Matrix: (Units=GPa)
#
#
# Indices 1 2 3 4 5 6 
#
# 1 74.1091 35.6241 37.3842 0.0000 0.0000 0.0002
# 2 35.6241 74.1091 37.3842 0.0000 0.0000 -0.0002
# 3 37.3842 37.3842 97.4797 0.0000 0.0000 0.0000
# 4 0.0000 0.0000 0.0000 18.7606 0.0000 0.0000
# 5 0.0000 0.0000 0.0000 0.0000 18.7606 0.0000
# 6 0.0002 -0.0002 0.0000 0.0000 0.0000 13.6732
#
#
#
# Elastic Compliance Matrix: (Units=1/GPa)
#
#
# Indices 1 2 3 4 5 6 
#
# 1 0.019160 -0.006824 -0.004731 0.000000 0.000000 0.000000
# 2 -0.006824 0.019160 -0.004731 0.000000 0.000000 0.000000
# 3 -0.004731 -0.004731 0.013887 0.000000 0.000000 0.000000
# 4 0.000000 0.000000 0.000000 0.053303 0.000000 0.000000
# 5 0.000000 0.000000 0.000000 0.000000 0.053303 0.000000
# 6 0.000000 0.000000 0.000000 0.000000 0.000000 0.073136
#
#
# Mechanical properties :
#
#
# Convention : Reuss Voigt Hill
#
# Bulk Modulus (GPa) = 50.92691 51.83145 51.37918
# Shear Modulus (GPa) = 18.44556 19.25926 18.85241
#
# Velocity S-wave (km/s) = 3.33541 3.40818 3.37199
# Velocity P-wave (km/s) = 6.74896 6.83727 6.79326
#
# Compressibility (1/GPa) = 0.01963598
#
# Stress axis : x y z
#
# Youngs Moduli (GPa) = 52.19096 52.19096 72.00744
#
# Poissons Ratio (x) = 0.35614 0.34068
# Poissons Ratio (y) = 0.35614 0.34068
# Poissons Ratio (z) = 0.24693 0.24693
#
# Static dielectric constant tensor:
#      x y z
#    x 2.919540 0.000000 0.000000 
#    y 0.000000 2.919540 0.000000 
#    z 0.000000 0.000000 3.292560 
# 
# 
# High freq. dielectric constant tensor:
#      x y z
#    x 1.621530 0.000000 0.000000 
#    y 0.000000 1.621530 0.000000 
#    z 0.000000 0.000000 1.656500 
# 
# From -- ./inp_files/1180.got.cif
#   From: 2010.03.12/outbox.cif.g09.slc.cpg/sg99_cif.got.tgz:1180.got - 2010.04.08 21:11:30.
