data_PCOD8306583
_publ_section_title
;
Structure prediction by ZEFSAII (Michael W. Deem and Ramdas Pophale) SiO2 
 PCOD8306583
Probable space group: P 4 M M
;
_chemical_formula_sum "Si O2"
_cell_formula_units_Z 64
_cell_length_a 13.593194
_cell_length_b 13.593194
_cell_length_c 20.646648
_cell_angle_alpha 90.000000
_cell_angle_beta 90.000000
_cell_angle_gamma 90.000000
_cell_volume 3814.982797
_symmetry_space_group_name_H-M "P 4 M M"
_symmetry_group_IT_number 99
_symmetry_cell_setting 'tetragonal'
loop_
_space_group_symop_operation_xyz
x,y,z
-y,x,z
-x,-y,z
y,-x,z
-x,y,z
x,-y,z
-y,-x,z
y,x,z
loop_
_atom_site_type_symbol
_atom_site_label
_atom_site_fract_x
_atom_site_fract_y
_atom_site_fract_z
Si Si1 0.884101 0.722239 0.509470
Si Si2 0.726344 0.114637 0.874002
Si Si3 0.268930 0.111628 0.013327
Si Si4 0.613895 0.227307 0.402063
Si Si5 0.616482 0.775203 0.621472
Si Si6 0.770586 0.388541 0.253773
Si Si7 0.110367 0.384548 0.748553
Si Si8 0.723884 0.113660 0.153714
O O1 0.825748 0.825748 0.513277
O O2 0.858688 0.664347 0.443543
O O3 0.853698 0.651203 0.568287
O O4 0.000000 0.744588 0.512011
O O5 0.829479 0.170522 0.868290
O O6 0.655551 0.151648 0.816773
O O7 0.748900 0.000000 0.865825
O O8 0.675093 0.136852 0.945116
O O9 0.166392 0.166392 0.014802
O O10 0.324547 0.133814 0.081667
O O11 0.236989 0.000000 0.011491
O O12 0.500000 0.241299 0.421682
O O13 0.668793 0.331208 0.415286
O O14 0.625612 0.194651 0.327649
O O15 0.500000 0.757973 0.615542
O O16 0.670927 0.670927 0.610952
O O17 0.648320 0.818103 0.690958
O O18 0.741196 0.500000 0.239660
O O19 0.674141 0.325860 0.237587
O O20 0.859592 0.357309 0.207113
O O21 0.108643 0.500000 0.754870
O O22 0.000000 0.345133 0.734284
O O23 0.822073 0.177928 0.164538
O O24 0.753050 0.000000 0.162178
#
# Coordination Sequence:
#
# PCOD8306583 Si02
#       8
#     8   8   8   8   8   8   8   8
#     4  10  21  36  53  73  97 125 158 193 226 263
#     4   9  16  26  41  61  86 114 143 178 220 266
#     4   8  14  24  38  57  82 113 146 180 220 264
#     4   9  18  32  50  73  98 123 152 186 226 272
#     4  10  20  33  50  72  96 122 153 189 230 275
#     4   9  18  32  49  69  93 120 151 188 229 273
#     4   9  17  29  45  64  86 115 151 187 222 262
#     4   9  17  29  44  63  89 119 152 190 229 272
#
# _framework density 16.775960999999999
#
# number of rings (size 3 to 8) (size 9 to 14) (size 15 to 20)
#    0.000    2.875    0.000    1.125    0.000    3.125 
#    0.000    5.625    0.000    4.500    0.000    5.250 
#    0.000    0.000    0.000    7.875    0.000    0.125 
#
# Total GULP energy -793002.289326 kJ/mol
# GULP energy per Si atom -12390.660771 kJ/mol
# Density = 1.673778 g / cm^3
# Si number density = 16.775961 Si / 1000 Ang^3
#
#
#
# Elastic Constant Matrix: (Units=GPa)
#
#
# Indices 1 2 3 4 5 6 
#
# 1 76.2425 33.2013 48.8305 0.0000 0.0000 -0.0001
# 2 33.2013 76.2425 48.8305 0.0000 0.0000 0.0001
# 3 48.8305 48.8305 126.1981 0.0000 0.0000 0.0000
# 4 0.0000 0.0000 0.0000 24.1728 0.0000 0.0000
# 5 0.0000 0.0000 0.0000 0.0000 24.1728 0.0000
# 6 -0.0001 0.0001 0.0000 0.0000 0.0000 14.3430
#
#
#
# Elastic Compliance Matrix: (Units=1/GPa)
#
#
# Indices 1 2 3 4 5 6 
#
# 1 0.018595 -0.004639 -0.005400 0.000000 0.000000 0.000000
# 2 -0.004639 0.018595 -0.005400 0.000000 0.000000 0.000000
# 3 -0.005400 -0.005400 0.012103 0.000000 0.000000 0.000000
# 4 0.000000 0.000000 0.000000 0.041369 0.000000 0.000000
# 5 0.000000 0.000000 0.000000 0.000000 0.041369 0.000000
# 6 0.000000 0.000000 0.000000 0.000000 0.000000 0.069721
#
#
# Mechanical properties :
#
#
# Convention : Reuss Voigt Hill
#
# Bulk Modulus (GPa) = 54.30502 60.04531 57.17517
# Shear Modulus (GPa) = 20.94098 22.39243 21.66671
#
# Velocity S-wave (km/s) = 3.53692 3.65745 3.59769
# Velocity P-wave (km/s) = 7.00862 7.32844 7.17031
#
# Compressibility (1/GPa) = 0.01841450
#
# Stress axis : x y z
#
# Youngs Moduli (GPa) = 53.77897 53.77897 82.62466
#
# Poissons Ratio (x) = 0.24948 0.44617
# Poissons Ratio (y) = 0.24948 0.44617
# Poissons Ratio (z) = 0.29040 0.29040
#
# Static dielectric constant tensor:
#      x y z
#    x 2.976690 0.000000 0.000000 
#    y 0.000000 2.976690 0.000000 
#    z 0.000000 0.000000 3.685320 
# 
# 
# High freq. dielectric constant tensor:
#      x y z
#    x 1.626840 0.000000 0.000000 
#    y 0.000000 1.626840 0.000000 
#    z 0.000000 0.000000 1.672140 
# 
# From -- ./inp_files/2298.got.cif
#   From: 2010.03.12/outbox.cif.g09.slc.cpg/sg99_cif.got.tgz:2298.got - 2010.04.08 21:11:30.
