data_PCOD8306659
_publ_section_title
;
Structure prediction by ZEFSAII (Michael W. Deem and Ramdas Pophale) SiO2 
 PCOD8306659
Probable space group: P 4 B M
;
_chemical_formula_sum "Si O2"
_cell_formula_units_Z 64
_cell_length_a 13.698874
_cell_length_b 13.698874
_cell_length_c 18.660827
_cell_angle_alpha 90.000000
_cell_angle_beta 90.000000
_cell_angle_gamma 90.000000
_cell_volume 3501.874912
_symmetry_space_group_name_H-M "P 4 B M"
_symmetry_group_IT_number 100
_symmetry_cell_setting 'tetragonal'
loop_
_space_group_symop_operation_xyz
x,y,z
-y,x,z
-x,-y,z
y,-x,z
1/2-x,1/2+y,z
1/2+x,1/2-y,z
1/2-y,1/2-x,z
1/2+y,1/2+x,z
loop_
_atom_site_type_symbol
_atom_site_label
_atom_site_fract_x
_atom_site_fract_y
_atom_site_fract_z
Si Si1 0.841304 0.504572 0.189740
Si Si2 0.630407 0.594259 0.531621
Si Si3 0.730547 0.615651 0.389024
Si Si4 0.084711 0.745628 0.897723
Si Si5 0.341304 0.995429 0.031344
Si Si6 0.915289 0.254372 0.323361
Si Si7 0.869594 0.094259 0.689462
Si Si8 0.769454 0.115651 0.832059
O O1 0.924671 0.424671 0.186232
O O2 0.793344 0.515321 0.110542
O O3 0.759078 0.469136 0.245891
O O4 0.891854 0.608147 0.212422
O O5 0.521618 0.633334 0.522885
O O6 0.695472 0.641669 0.469314
O O7 0.670987 0.623543 0.610542
O O8 0.834606 0.665395 0.376259
O O9 0.652946 0.658898 0.330908
O O10 0.744786 0.500386 0.381743
O O11 0.148026 0.648026 0.882799
O O12 0.152946 0.841102 0.890176
O O13 0.999614 0.755214 0.839341
O O14 0.030865 0.740922 0.975193
O O15 0.424672 0.075329 0.034853
O O16 0.391854 0.891854 0.008662
O O17 0.851974 0.351974 0.338284
O O18 0.804528 0.141668 0.751769
O O19 0.978382 0.133334 0.698198
O O20 0.665395 0.165395 0.844824
#
# Coordination Sequence:
#
# PCOD8306659 Si02
#       8
#     8   8   8   8   8   8   8   8
#     4   8  14  28  51  74 100 138 175 209 254 304
#     4   9  17  32  54  76 100 134 176 218 261 312
#     4  11  21  33  54  79 104 141 175 211 276 322
#     4  10  21  35  51  78 109 135 177 226 261 318
#     4   8  14  28  51  74 100 138 175 209 254 304
#     4  10  21  35  51  78 109 135 177 226 261 318
#     4   9  17  32  54  76 100 134 176 218 261 312
#     4  11  21  33  54  79 104 141 175 211 276 322
#
# _framework density 18.275924
#
# number of rings (size 3 to 8) (size 9 to 14) (size 15 to 20)
#    0.000    2.500    2.500    2.250    0.000    2.500 
#    0.000    1.250    0.000    5.250    0.000    3.500 
#    0.000    0.000    0.000    0.000    0.000    0.000 
#
# Total GULP energy -793076.962134 kJ/mol
# GULP energy per Si atom -12391.827533 kJ/mol
# Density = 1.823433 g / cm^3
# Si number density = 18.275924 Si / 1000 Ang^3
#
#
#
# Elastic Constant Matrix: (Units=GPa)
#
#
# Indices 1 2 3 4 5 6 
#
# 1 65.8948 27.0991 23.8364 0.0000 0.0000 0.0000
# 2 27.0991 65.8948 23.8364 0.0000 0.0000 0.0000
# 3 23.8364 23.8364 111.0554 0.0000 0.0000 0.0000
# 4 0.0000 0.0000 0.0000 26.3394 0.0000 0.0000
# 5 0.0000 0.0000 0.0000 0.0000 26.3394 0.0000
# 6 0.0000 0.0000 0.0000 0.0000 0.0000 16.2615
#
#
#
# Elastic Compliance Matrix: (Units=1/GPa)
#
#
# Indices 1 2 3 4 5 6 
#
# 1 0.018929 -0.006847 -0.002593 0.000000 0.000000 0.000000
# 2 -0.006847 0.018929 -0.002593 0.000000 0.000000 0.000000
# 3 -0.002593 -0.002593 0.010118 0.000000 0.000000 0.000000
# 4 0.000000 0.000000 0.000000 0.037966 0.000000 0.000000
# 5 0.000000 0.000000 0.000000 0.000000 0.037966 0.000000
# 6 0.000000 0.000000 0.000000 0.000000 0.000000 0.061495
#
#
# Mechanical properties :
#
#
# Convention : Reuss Voigt Hill
#
# Bulk Modulus (GPa) = 41.82366 43.59877 42.71121
# Shear Modulus (GPa) = 22.99481 24.99293 23.99387
#
# Velocity S-wave (km/s) = 3.55096 3.70203 3.62728
# Velocity P-wave (km/s) = 6.30450 6.49469 6.40030
#
# Compressibility (1/GPa) = 0.02390991
#
# Stress axis : x y z
#
# Youngs Moduli (GPa) = 52.82765 52.82765 98.83579
#
# Poissons Ratio (x) = 0.36169 0.25632
# Poissons Ratio (y) = 0.36169 0.25632
# Poissons Ratio (z) = 0.13700 0.13700
#
# Static dielectric constant tensor:
#      x y z
#    x 3.141650 0.000000 0.000000 
#    y 0.000000 3.141650 0.000000 
#    z 0.000000 0.000000 3.678980 
# 
# 
# High freq. dielectric constant tensor:
#      x y z
#    x 1.685770 0.000000 0.000000 
#    y 0.000000 1.685770 0.000000 
#    z 0.000000 0.000000 1.715630 
# 
# From -- ./inp_files/1493.got.cif
#   From: 2010.03.12/outbox.cif.g09.slc.cpg/sg100_cif.got.tgz:1493.got - 2010.04.14 01:37:57.
