data_PCOD8306685
_publ_section_title
;
Structure prediction by ZEFSAII (Michael W. Deem and Ramdas Pophale) SiO2 
 PCOD8306685
Probable space group: P 4 B M
;
_chemical_formula_sum "Si O2"
_cell_formula_units_Z 40
_cell_length_a 13.838459
_cell_length_b 13.838459
_cell_length_c 10.103841
_cell_angle_alpha 90.000000
_cell_angle_beta 90.000000
_cell_angle_gamma 90.000000
_cell_volume 1934.915333
_symmetry_space_group_name_H-M "P 4 B M"
_symmetry_group_IT_number 100
_symmetry_cell_setting 'tetragonal'
loop_
_space_group_symop_operation_xyz
x,y,z
-y,x,z
-x,-y,z
y,-x,z
1/2-x,1/2+y,z
1/2+x,1/2-y,z
1/2-y,1/2-x,z
1/2+y,1/2+x,z
loop_
_atom_site_type_symbol
_atom_site_label
_atom_site_fract_x
_atom_site_fract_y
_atom_site_fract_z
Si Si1 0.724756 0.063945 0.901380
Si Si2 0.542294 0.347202 0.649336
Si Si3 0.066628 0.274707 0.393614
Si Si4 0.419049 0.080952 0.007205
Si Si5 0.646759 0.560044 0.147506
Si Si6 0.580579 0.919422 0.302687
O O1 0.651068 0.151068 0.921593
O O2 0.762294 0.064328 0.752002
O O3 0.673472 0.961033 0.930056
O O4 0.814059 0.078884 0.000374
O O5 0.617121 0.433602 0.670886
O O6 0.556357 0.307861 0.502086
O O7 0.151859 0.348142 0.432145
O O8 0.092479 0.226919 0.253135
O O9 0.963728 0.329886 0.383595
O O10 0.500000 0.000000 0.015239
O O11 0.386966 0.113035 0.155141
O O12 0.552410 0.624149 0.168438
O O13 0.500000 0.000000 0.283424
#
# Coordination Sequence:
#
# PCOD8306685 Si02
#       6
#     8   8   8   4   8   4
#     4  11  22  42  66  96 127 160 213 265 309 368
#     4  11  25  47  64  85 130 175 204 251 321 378
#     4  11  22  42  66  96 127 160 213 265 309 368
#     4   9  18  37  65  93 131 163 189 254 327 360
#     4  11  23  41  62  91 132 175 208 249 317 376
#     4   9  18  37  65  93 131 163 189 254 327 360
#
# _framework density 20.672740000000001
#
# number of rings (size 3 to 8) (size 9 to 14) (size 15 to 20)
#    0.000    1.400    2.000    3.600    0.000    4.000 
#   21.600    3.000    0.000    0.000    0.000    0.000 
#    0.000    0.000    0.000    0.000    0.000    0.000 
#
# Total GULP energy -496220.868534 kJ/mol
# GULP energy per Si atom -12405.521713 kJ/mol
# Density = 2.062569 g / cm^3
# Si number density = 20.672740 Si / 1000 Ang^3
#
#
#
# Elastic Constant Matrix: (Units=GPa)
#
#
# Indices 1 2 3 4 5 6 
#
# 1 80.7086 31.5725 19.4621 0.0000 0.0000 0.0001
# 2 31.5725 80.7086 19.4621 0.0000 0.0000 -0.0001
# 3 19.4621 19.4621 86.8353 0.0000 0.0000 0.0000
# 4 0.0000 0.0000 0.0000 34.8591 0.0000 0.0000
# 5 0.0000 0.0000 0.0000 0.0000 34.8591 0.0000
# 6 0.0001 -0.0001 0.0000 0.0000 0.0000 9.5900
#
#
#
# Elastic Compliance Matrix: (Units=1/GPa)
#
#
# Indices 1 2 3 4 5 6 
#
# 1 0.015004 -0.005348 -0.002164 0.000000 0.000000 0.000000
# 2 -0.005348 0.015004 -0.002164 0.000000 0.000000 0.000000
# 3 -0.002164 -0.002164 0.012486 0.000000 0.000000 0.000000
# 4 0.000000 0.000000 0.000000 0.028687 0.000000 0.000000
# 5 0.000000 0.000000 0.000000 0.000000 0.028687 0.000000
# 6 0.000000 0.000000 0.000000 0.000000 0.000000 0.104275
#
#
# Mechanical properties :
#
#
# Convention : Reuss Voigt Hill
#
# Bulk Modulus (GPa) = 43.21130 43.24953 43.23041
# Shear Modulus (GPa) = 21.62544 27.71205 24.66875
#
# Velocity S-wave (km/s) = 3.23783 3.66527 3.45816
# Velocity P-wave (km/s) = 5.90982 6.23528 6.07473
#
# Compressibility (1/GPa) = 0.02314210
#
# Stress axis : x y z
#
# Youngs Moduli (GPa) = 66.64865 66.64865 80.08846
#
# Poissons Ratio (x) = 0.35641 0.17333
# Poissons Ratio (y) = 0.35641 0.17333
# Poissons Ratio (z) = 0.14425 0.14425
#
# Static dielectric constant tensor:
#      x y z
#    x 3.760800 0.000000 0.000000 
#    y 0.000000 3.760800 0.000000 
#    z 0.000000 0.000000 3.591420 
# 
# 
# High freq. dielectric constant tensor:
#      x y z
#    x 1.811060 0.000000 0.000000 
#    y 0.000000 1.811060 0.000000 
#    z 0.000000 0.000000 1.810190 
# 
# From -- ./inp_files/798.got.cif
#   From: 2010.03.12/outbox.cif.g09.slc.cpg/sg100_cif.got.tgz:798.got - 2010.04.14 01:37:57.
