data_PCOD8306336
_publ_section_title
;
Structure prediction by ZEFSAII (Michael W. Deem and Ramdas Pophale) SiO2 
 PCOD8306336
Probable space group: I 41 2 2
;
_chemical_formula_sum "Si O2"
_cell_formula_units_Z 72
_cell_length_a 13.714419
_cell_length_b 13.714419
_cell_length_c 17.336822
_cell_angle_alpha 90.000000
_cell_angle_beta 90.000000
_cell_angle_gamma 90.000000
_cell_volume 3260.801168
_symmetry_space_group_name_H-M "I 41 2 2"
_symmetry_group_IT_number 98
_symmetry_cell_setting 'tetragonal'
loop_
_space_group_symop_operation_xyz
x,y,z
-y,1/2+x,1/4+z
-x,-y,z
y,1/2-x,1/4+z
x,1/2-y,1/4-z
-x,1/2+y,1/4-z
y,x,-z
-y,-x,-z
1/2+x,1/2+y,1/2+z
1/2-y,x,3/4+z
1/2-x,1/2-y,1/2+z
1/2+y,-x,3/4+z
1/2+x,-y,3/4-z
1/2-x,y,3/4-z
1/2+y,1/2+x,1/2-z
1/2-y,1/2-x,1/2-z
loop_
_atom_site_type_symbol
_atom_site_label
_atom_site_fract_x
_atom_site_fract_y
_atom_site_fract_z
Si Si1 0.142986 0.458473 0.459155
Si Si2 0.750000 0.049521 0.375000
Si Si3 0.601630 0.464362 0.128668
Si Si4 0.741192 0.916485 0.227745
Si Si5 0.991698 0.364483 0.208423
O O1 0.090373 0.506154 0.532048
O O2 0.123340 0.343870 0.447307
O O3 0.255974 0.475664 0.472168
O O4 0.108402 0.514972 0.382337
O O5 0.652411 0.115423 0.368075
O O6 0.762275 0.981578 0.301542
O O7 0.500000 0.500000 0.088750
O O8 0.691708 0.518914 0.089036
O O9 0.674875 0.825126 0.250000
O O10 0.071074 0.428927 0.250000
O O11 0.887465 0.387465 0.250000
#
# Coordination Sequence:
#
# PCOD8306336 Si02
#       5
#    16   8  16  16  16
#     4  11  24  43  70 103 140 189 249 295 376 439
#     4  12  26  42  66 100 142 202 240 298 378 446
#     4  12  25  44  69 102 147 195 237 309 375 448
#     4  12  23  41  71 105 146 188 249 312 373 445
#     4  10  23  42  69 101 140 186 237 306 362 439
#
# _framework density 22.080463999999999
#
# number of rings (size 3 to 8) (size 9 to 14) (size 15 to 20)
#    0.000    0.667    4.444    2.667    3.111    5.333 
#    0.000    4.444    0.000    2.667    0.000    0.000 
#    0.000    0.000    0.000    0.000    0.000    0.000 
#
# Total GULP energy -446420.657395 kJ/mol
# GULP energy per Si atom -12400.573817 kJ/mol
# Density = 2.203021 g / cm^3
# Si number density = 22.080464 Si / 1000 Ang^3
#
#
#
# Elastic Constant Matrix: (Units=GPa)
#
#
# Indices 1 2 3 4 5 6 
#
# 1 149.6519 61.3183 44.1551 0.0000 0.0000 0.0000
# 2 61.3183 149.6505 44.1622 0.0000 0.0000 0.0000
# 3 44.1551 44.1622 132.5590 0.0000 0.0000 0.0000
# 4 0.0000 0.0000 0.0000 37.7951 0.0000 0.0000
# 5 0.0000 0.0000 0.0000 0.0000 37.7945 0.0000
# 6 0.0000 0.0000 0.0000 0.0000 0.0000 40.0887
#
#
#
# Elastic Compliance Matrix: (Units=1/GPa)
#
#
# Indices 1 2 3 4 5 6 
#
# 1 0.008414 -0.002906 -0.001835 0.000000 0.000000 0.000000
# 2 -0.002906 0.008415 -0.001835 0.000000 0.000000 0.000000
# 3 -0.001835 -0.001835 0.008766 0.000000 0.000000 0.000000
# 4 0.000000 0.000000 0.000000 0.026458 0.000000 0.000000
# 5 0.000000 0.000000 0.000000 0.000000 0.026459 0.000000
# 6 0.000000 0.000000 0.000000 0.000000 0.000000 0.024945
#
#
# Mechanical properties :
#
#
# Convention : Reuss Voigt Hill
#
# Bulk Modulus (GPa) = 80.36635 81.23697 80.80166
# Shear Modulus (GPa) = 41.40538 41.95071 41.67804
#
# Velocity S-wave (km/s) = 4.33506 4.36351 4.34931
# Velocity P-wave (km/s) = 7.84430 7.89039 7.86738
#
# Compressibility (1/GPa) = 0.01244302
#
# Stress axis : x y z
#
# Youngs Moduli (GPa) = 118.84534 118.83999 114.07306
#
# Poissons Ratio (x) = 0.34539 0.20927
# Poissons Ratio (y) = 0.34540 0.20935
# Poissons Ratio (z) = 0.21803 0.21810
#
# Static dielectric constant tensor:
#      x y z
#    x 3.888230 0.000000 0.000000 
#    y 0.000000 3.888380 0.000000 
#    z 0.000000 0.000000 4.677000 
# 
# 
# High freq. dielectric constant tensor:
#      x y z
#    x 1.870010 0.000000 0.000000 
#    y 0.000000 1.870010 0.000000 
#    z 0.000000 0.000000 1.886980 
# 
# From -- ./inp_files/7495.got.cif
#   From: 2010.03.12/outbox.cif.g09.slc.cpg/sg98_4_cif.got.tgz:7495.got - 2010.04.08 21:04:41.
