data_PCOD8306570
_publ_section_title
;
Structure prediction by ZEFSAII (Michael W. Deem and Ramdas Pophale) SiO2 
 PCOD8306570
Probable space group: P 4 M M
;
_chemical_formula_sum "Si O2"
_cell_formula_units_Z 64
_cell_length_a 20.216965
_cell_length_b 20.216965
_cell_length_c 9.057108
_cell_angle_alpha 90.000000
_cell_angle_beta 90.000000
_cell_angle_gamma 90.000000
_cell_volume 3701.872570
_symmetry_space_group_name_H-M "P 4 M M"
_symmetry_group_IT_number 99
_symmetry_cell_setting 'tetragonal'
loop_
_space_group_symop_operation_xyz
x,y,z
-y,x,z
-x,-y,z
y,-x,z
-x,y,z
x,-y,z
-y,-x,z
y,x,z
loop_
_atom_site_type_symbol
_atom_site_label
_atom_site_fract_x
_atom_site_fract_y
_atom_site_fract_z
Si Si1 0.424512 0.319480 0.951040
Si Si2 0.141388 0.755031 0.183334
Si Si3 0.075509 0.316899 0.767358
Si Si4 0.574095 0.175226 0.287632
Si Si5 0.367471 0.820744 0.988754
Si Si6 0.925610 0.180658 0.920169
Si Si7 0.321421 0.425788 0.298793
Si Si8 0.076938 0.330925 0.426137
O O1 0.500000 0.319389 0.884531
O O2 0.379966 0.379966 0.884067
O O3 0.385903 0.250323 0.917034
O O4 0.430072 0.330231 0.124340
O O5 0.197505 0.802496 0.247694
O O6 0.178599 0.700769 0.081954
O O7 0.102027 0.728407 0.323762
O O8 0.089165 0.795680 0.086085
O O9 0.086052 0.241156 0.810214
O O10 0.092785 0.318100 0.595862
O O11 0.000000 0.339782 0.799470
O O12 0.124472 0.364891 0.859046
O O13 0.500000 0.177559 0.339186
O O14 0.577571 0.160752 0.111430
O O15 0.603902 0.247849 0.328825
O O16 0.604387 0.116582 0.381531
O O17 0.878086 0.121915 0.868564
O O18 0.000000 0.153856 0.912890
O O19 0.330956 0.500000 0.365121
O O20 0.376073 0.376073 0.368208
O O21 0.000000 0.343002 0.396920
#
# Coordination Sequence:
#
# PCOD8306570 Si02
#       8
#     8   8   8   8   8   8   8   8
#     4   9  16  26  42  65  93 123 154 190 231 275
#     4   9  17  29  48  72  95 122 157 195 235 279
#     4   9  19  34  49  69  96 123 155 198 245 287
#     4   9  18  31  47  68  94 125 159 195 237 286
#     4   9  16  29  50  70  92 124 161 198 235 280
#     4   9  17  30  48  70  97 127 158 193 232 278
#     4   8  14  25  42  66  95 124 154 189 229 273
#     4  10  20  33  49  69  95 125 156 195 241 288
#
# _framework density 17.288547999999999
#
# number of rings (size 3 to 8) (size 9 to 14) (size 15 to 20)
#    0.000    3.000    0.000    1.875    0.000    7.625 
#    0.000    2.500    0.000    2.625    0.000    0.000 
#    0.000    3.000    0.000    2.750    0.000    9.000 
#
# Total GULP energy -793059.894692 kJ/mol
# GULP energy per Si atom -12391.560855 kJ/mol
# Density = 1.724920 g / cm^3
# Si number density = 17.288548 Si / 1000 Ang^3
#
#
#
# Elastic Constant Matrix: (Units=GPa)
#
#
# Indices 1 2 3 4 5 6 
#
# 1 109.8183 72.4564 42.6553 0.0000 0.0000 0.0005
# 2 72.4564 109.8183 42.6553 0.0000 0.0000 -0.0005
# 3 42.6553 42.6553 70.4837 0.0000 0.0000 0.0000
# 4 0.0000 0.0000 0.0000 7.6547 0.0000 0.0000
# 5 0.0000 0.0000 0.0000 0.0000 7.6547 0.0000
# 6 0.0005 -0.0005 0.0000 0.0000 0.0000 24.6129
#
#
#
# Elastic Compliance Matrix: (Units=1/GPa)
#
#
# Indices 1 2 3 4 5 6 
#
# 1 0.017210 -0.009556 -0.004632 0.000000 0.000000 -0.000001
# 2 -0.009556 0.017210 -0.004632 0.000000 0.000000 0.000001
# 3 -0.004632 -0.004632 0.019794 0.000000 0.000000 0.000000
# 4 0.000000 0.000000 0.000000 0.130638 0.000000 0.000000
# 5 0.000000 0.000000 0.000000 0.000000 0.130638 0.000000
# 6 -0.000001 0.000001 0.000000 0.000000 0.000000 0.040629
#
#
# Mechanical properties :
#
#
# Convention : Reuss Voigt Hill
#
# Bulk Modulus (GPa) = 60.33540 67.29492 63.81516
# Shear Modulus (GPa) = 12.52242 16.80802 14.66522
#
# Velocity S-wave (km/s) = 2.69424 3.12140 2.91565
# Velocity P-wave (km/s) = 6.68232 7.21110 6.95174
#
# Compressibility (1/GPa) = 0.01657402
#
# Stress axis : x y z
#
# Youngs Moduli (GPa) = 58.10658 58.10658 50.51957
#
# Poissons Ratio (x) = 0.55524 0.23402
# Poissons Ratio (y) = 0.55524 0.23402
# Poissons Ratio (z) = 0.26916 0.26916
#
# Static dielectric constant tensor:
#      x y z
#    x 3.380950 0.000000 0.000000 
#    y 0.000000 3.380950 0.000000 
#    z 0.000000 0.000000 2.907170 
# 
# 
# High freq. dielectric constant tensor:
#      x y z
#    x 1.669700 0.000000 0.000000 
#    y 0.000000 1.669700 0.000000 
#    z 0.000000 0.000000 1.628520 
# 
# From -- ./inp_files/1194.got.cif
#   From: 2010.03.12/outbox.cif.g09.slc.cpg/sg99_cif.got.tgz:1194.got - 2010.04.08 21:11:30.
