data_PCOD8306215
_publ_section_title
;
Structure prediction by ZEFSAII (Michael W. Deem and Ramdas Pophale) SiO2 
 PCOD8306215
Probable space group: I 41 2 2
;
_chemical_formula_sum "Si O2"
_cell_formula_units_Z 76
_cell_length_a 13.462753
_cell_length_b 13.462753
_cell_length_c 20.541316
_cell_angle_alpha 90.000000
_cell_angle_beta 90.000000
_cell_angle_gamma 90.000000
_cell_volume 3723.025574
_symmetry_space_group_name_H-M "I 41 2 2"
_symmetry_group_IT_number 98
_symmetry_cell_setting 'tetragonal'
loop_
_space_group_symop_operation_xyz
x,y,z
-y,1/2+x,1/4+z
-x,-y,z
y,1/2-x,1/4+z
x,1/2-y,1/4-z
-x,1/2+y,1/4-z
y,x,-z
-y,-x,-z
1/2+x,1/2+y,1/2+z
1/2-y,x,3/4+z
1/2-x,1/2-y,1/2+z
1/2+y,-x,3/4+z
1/2+x,-y,3/4-z
1/2-x,y,3/4-z
1/2+y,1/2+x,1/2-z
1/2-y,1/2-x,1/2-z
loop_
_atom_site_type_symbol
_atom_site_label
_atom_site_fract_x
_atom_site_fract_y
_atom_site_fract_z
Si Si1 0.333568 0.990874 0.000161
Si Si2 0.260712 0.416820 0.620642
Si Si3 0.500000 0.000000 0.250000
Si Si4 0.654904 0.500239 0.748809
Si Si5 0.673672 0.590287 0.939251
Si Si6 0.750000 0.921949 0.875000
O O1 0.424356 0.065500 0.996100
O O2 0.269847 0.004067 0.934776
O O3 0.385911 0.882117 0.004885
O O4 0.258658 0.010097 0.059944
O O5 0.278122 0.486792 0.683609
O O6 0.159856 0.349939 0.627077
O O7 0.353409 0.344614 0.606968
O O8 0.497452 0.093372 0.200921
O O9 0.720994 0.532003 0.812240
O O10 0.668886 0.668886 0.000000
#
# Coordination Sequence:
#
# PCOD8306215 Si02
#       6
#    16  16   4  16  16   8
#     4  10  20  34  56  83 111 150 191 240 295 334
#     4  10  18  33  58  83 112 148 188 237 295 350
#     4   8  16  28  52  84 116 152 182 210 286 372
#     4   9  19  35  53  82 117 143 183 240 284 351
#     4   8  16  31  53  81 115 146 179 227 282 356
#     4  10  20  34  56  82 112 142 198 256 286 330
#
# _framework density 20.413504
#
# number of rings (size 3 to 8) (size 9 to 14) (size 15 to 20)
#    0.632    2.105    0.000    1.895    0.000    5.053 
#    0.000    1.053    4.632    5.053    0.000    0.000 
#    0.000    0.000    0.000    0.000    0.000    0.000 
#
# Total GULP energy -470763.592923 kJ/mol
# GULP energy per Si atom -12388.515603 kJ/mol
# Density = 2.036704 g / cm^3
# Si number density = 20.413504 Si / 1000 Ang^3
#
#
#
# Elastic Constant Matrix: (Units=GPa)
#
#
# Indices 1 2 3 4 5 6 
#
# 1 73.6760 47.4646 28.6857 0.0000 0.0000 0.0000
# 2 47.4646 73.6760 28.6857 0.0000 0.0000 0.0000
# 3 28.6857 28.6857 72.8768 0.0000 0.0000 0.0000
# 4 0.0000 0.0000 0.0000 21.5677 0.0000 0.0000
# 5 0.0000 0.0000 0.0000 0.0000 21.5677 0.0000
# 6 0.0000 0.0000 0.0000 0.0000 0.0000 43.2135
#
#
#
# Elastic Compliance Matrix: (Units=1/GPa)
#
#
# Indices 1 2 3 4 5 6 
#
# 1 0.024149 -0.014003 -0.003994 0.000000 0.000000 0.000000
# 2 -0.014003 0.024149 -0.003994 0.000000 0.000000 0.000000
# 3 -0.003994 -0.003994 0.016866 0.000000 0.000000 0.000000
# 4 0.000000 0.000000 0.000000 0.046366 0.000000 0.000000
# 5 0.000000 0.000000 0.000000 0.000000 0.046366 0.000000
# 6 0.000000 0.000000 0.000000 0.000000 0.000000 0.023141
#
#
# Mechanical properties :
#
#
# Convention : Reuss Voigt Hill
#
# Bulk Modulus (GPa) = 47.20695 47.76677 47.48686
# Shear Modulus (GPa) = 21.54456 24.96261 23.25359
#
# Velocity S-wave (km/s) = 3.25223 3.50072 3.37876
# Velocity P-wave (km/s) = 6.10559 6.30797 6.20760
#
# Compressibility (1/GPa) = 0.02118332
#
# Stress axis : x y z
#
# Youngs Moduli (GPa) = 41.40986 41.40986 59.29143
#
# Poissons Ratio (x) = 0.57984 0.23680
# Poissons Ratio (y) = 0.57984 0.23680
# Poissons Ratio (z) = 0.16538 0.16538
#
# Static dielectric constant tensor:
#      x y z
#    x 3.650640 0.000000 0.000000 
#    y 0.000000 3.650640 0.000000 
#    z 0.000000 0.000000 3.904840 
# 
# 
# High freq. dielectric constant tensor:
#      x y z
#    x 1.771110 0.000000 0.000000 
#    y 0.000000 1.771110 0.000000 
#    z 0.000000 0.000000 1.805390 
# 
# From -- ./inp_files/8734.got.cif
#   From: 2010.03.12/outbox.cif.g09.slc.cpg/sg98_5_cif.got.tgz:8734.got - 2010.04.08 21:04:41.
