data_PCOD8306296
_publ_section_title
;
Structure prediction by ZEFSAII (Michael W. Deem and Ramdas Pophale) SiO2 
 PCOD8306296
Probable space group: I 41 2 2
;
_chemical_formula_sum "Si O2"
_cell_formula_units_Z 72
_cell_length_a 13.404578
_cell_length_b 13.404578
_cell_length_c 18.367697
_cell_angle_alpha 90.000000
_cell_angle_beta 90.000000
_cell_angle_gamma 90.000000
_cell_volume 3300.357598
_symmetry_space_group_name_H-M "I 41 2 2"
_symmetry_group_IT_number 98
_symmetry_cell_setting 'tetragonal'
loop_
_space_group_symop_operation_xyz
x,y,z
-y,1/2+x,1/4+z
-x,-y,z
y,1/2-x,1/4+z
x,1/2-y,1/4-z
-x,1/2+y,1/4-z
y,x,-z
-y,-x,-z
1/2+x,1/2+y,1/2+z
1/2-y,x,3/4+z
1/2-x,1/2-y,1/2+z
1/2+y,-x,3/4+z
1/2+x,-y,3/4-z
1/2-x,y,3/4-z
1/2+y,1/2+x,1/2-z
1/2-y,1/2-x,1/2-z
loop_
_atom_site_type_symbol
_atom_site_label
_atom_site_fract_x
_atom_site_fract_y
_atom_site_fract_z
Si Si1 0.779824 0.351352 0.095946
Si Si2 0.627328 0.105759 0.443534
Si Si3 0.398222 0.466247 0.605064
Si Si4 0.407611 0.395415 0.763921
Si Si5 0.811258 0.688743 0.250000
O O1 0.832665 0.250000 0.125000
O O2 0.661527 0.343281 0.118153
O O3 0.820648 0.442909 0.144284
O O4 0.798271 0.361074 0.009509
O O5 0.514298 0.142564 0.458978
O O6 0.633725 0.985191 0.433954
O O7 0.500000 0.500000 0.564501
O O8 0.428093 0.443353 0.686799
O O9 0.357673 0.364188 0.570493
O O10 0.327583 0.307127 0.755239
#
# Coordination Sequence:
#
# PCOD8306296 Si02
#       5
#    16  16  16  16   8
#     4  11  22  37  62  92 125 171 216 262 325 392
#     4  10  21  41  62  89 131 173 216 271 332 394
#     4  11  22  36  56  91 129 165 205 265 333 403
#     4  10  21  40  60  86 131 170 213 273 331 397
#     4  12  23  34  62  90 125 164 220 266 340 381
#
# _framework density 21.815816999999999
#
# number of rings (size 3 to 8) (size 9 to 14) (size 15 to 20)
#    0.000    1.333    6.667    1.667    3.111    1.778 
#    0.000    2.222    0.000    0.000    0.000    0.000 
#    0.000    0.000    0.000    0.000    0.000    0.000 
#
# Total GULP energy -446052.229323 kJ/mol
# GULP energy per Si atom -12390.339703 kJ/mol
# Density = 2.176616 g / cm^3
# Si number density = 21.815817 Si / 1000 Ang^3
#
#
#
# Elastic Constant Matrix: (Units=GPa)
#
#
# Indices 1 2 3 4 5 6 
#
# 1 132.5857 34.4623 18.6620 0.0000 0.0000 0.0000
# 2 34.4623 132.5872 18.6620 0.0000 0.0000 0.0000
# 3 18.6620 18.6620 58.8907 0.0000 0.0000 0.0000
# 4 0.0000 0.0000 0.0000 21.5257 0.0000 0.0000
# 5 0.0000 0.0000 0.0000 0.0000 21.5258 0.0000
# 6 0.0000 0.0000 0.0000 0.0000 0.0000 35.6735
#
#
#
# Elastic Compliance Matrix: (Units=1/GPa)
#
#
# Indices 1 2 3 4 5 6 
#
# 1 0.008317 -0.001874 -0.002042 0.000000 0.000000 0.000000
# 2 -0.001874 0.008317 -0.002042 0.000000 0.000000 0.000000
# 3 -0.002042 -0.002042 0.018274 0.000000 0.000000 0.000000
# 4 0.000000 0.000000 0.000000 0.046456 0.000000 0.000000
# 5 0.000000 0.000000 0.000000 0.000000 0.046456 0.000000
# 6 0.000000 0.000000 0.000000 0.000000 0.000000 0.028032
#
#
# Mechanical properties :
#
#
# Convention : Reuss Voigt Hill
#
# Bulk Modulus (GPa) = 43.49121 51.95956 47.72539
# Shear Modulus (GPa) = 28.50115 32.56348 30.53232
#
# Velocity S-wave (km/s) = 3.61840 3.86768 3.74511
# Velocity P-wave (km/s) = 6.11850 6.61924 6.37379
#
# Compressibility (1/GPa) = 0.02299315
#
# Stress axis : x y z
#
# Youngs Moduli (GPa) = 120.23788 120.23933 54.72107
#
# Poissons Ratio (x) = 0.22537 0.11172
# Poissons Ratio (y) = 0.22537 0.11171
# Poissons Ratio (z) = 0.24547 0.24547
#
# Static dielectric constant tensor:
#      x y z
#    x 4.378030 0.000000 0.000000 
#    y 0.000000 4.378000 0.000000 
#    z 0.000000 0.000000 3.549170 
# 
# 
# High freq. dielectric constant tensor:
#      x y z
#    x 1.862460 0.000000 0.000000 
#    y 0.000000 1.862460 0.000000 
#    z 0.000000 0.000000 1.831770 
# 
# From -- ./inp_files/7482.got.cif
#   From: 2010.03.12/outbox.cif.g09.slc.cpg/sg98_4_cif.got.tgz:7482.got - 2010.04.08 21:04:41.
