data_PCOD8306036
_publ_section_title
;
Structure prediction by ZEFSAII (Michael W. Deem and Ramdas Pophale) SiO2 
 PCOD8306036
Probable space group: I 4 2 2 
;
_chemical_formula_sum "Si O2"
_cell_formula_units_Z 88
_cell_length_a 17.349763
_cell_length_b 17.349763
_cell_length_c 14.084428
_cell_angle_alpha 90.000000
_cell_angle_beta 90.000000
_cell_angle_gamma 90.000000
_cell_volume 4239.613899
_symmetry_space_group_name_H-M "I 4 2 2 "
_symmetry_group_IT_number 97
_symmetry_cell_setting 'tetragonal'
loop_
_space_group_symop_operation_xyz
x,y,z
-y,x,z
-x,-y,z
y,-x,z
x,-y,-z
-x,y,-z
y,x,-z
-y,-x,-z
1/2+x,1/2+y,1/2+z
1/2-y,1/2+x,1/2+z
1/2-x,1/2-y,1/2+z
1/2+y,1/2-x,1/2+z
1/2+x,1/2-y,1/2-z
1/2-x,1/2+y,1/2-z
1/2+y,1/2+x,1/2-z
1/2-y,1/2-x,1/2-z
loop_
_atom_site_type_symbol
_atom_site_label
_atom_site_fract_x
_atom_site_fract_y
_atom_site_fract_z
Si Si1 0.885741 0.109309 0.898785
Si Si2 0.060088 0.894468 0.695689
Si Si3 0.178019 0.781000 0.606505
Si Si4 0.721754 0.051544 0.873727
Si Si5 0.786535 0.614408 0.423636
Si Si6 0.313964 0.813964 0.750000
O O1 0.944352 0.105995 0.810845
O O2 0.814150 0.054395 0.874776
O O3 0.858640 0.197775 0.914963
O O4 0.920603 0.079398 0.000000
O O5 0.103318 0.820281 0.653842
O O6 0.971810 0.895796 0.659952
O O7 0.188879 0.811122 0.500000
O O8 0.163406 0.688429 0.608566
O O9 0.253620 0.801009 0.666101
O O10 0.691729 0.098417 0.784153
O O11 0.697274 0.962018 0.860391
O O12 0.690259 0.090275 0.969889
#
# Coordination Sequence:
#
# PCOD8306036 Si02
#       6
#    16  16  16  16  16   8
#     4  10  18  33  56  90 131 169 208 257 323 386
#     4  11  25  41  59  90 133 174 216 267 322 384
#     4  12  22  40  65  89 125 169 224 261 312 395
#     4  10  19  32  58  94 134 165 201 270 327 382
#     4  10  19  34  58  94 129 164 213 265 328 376
#     4  12  20  36  60  98 133 169 214 258 322 398
#
# _framework density 20.756606000000001
#
# number of rings (size 3 to 8) (size 9 to 14) (size 15 to 20)
#    0.000    1.273    5.455    1.636    0.000    2.909 
#    0.000    1.818    0.000    0.000    0.000    5.091 
#    0.000    2.909    0.000    0.000    0.000    0.000 
#
# Total GULP energy -545341.720056 kJ/mol
# GULP energy per Si atom -12394.130001 kJ/mol
# Density = 2.070936 g / cm^3
# Si number density = 20.756606 Si / 1000 Ang^3
#
#
#
# Elastic Constant Matrix: (Units=GPa)
#
#
# Indices 1 2 3 4 5 6 
#
# 1 534.7005 -358.3717 39.7188 0.0000 0.0000 0.0000
# 2 -358.3717 534.6833 39.7207 0.0000 0.0000 0.0000
# 3 39.7188 39.7207 99.2249 0.0000 0.0000 0.0000
# 4 0.0000 0.0000 0.0000 16.6405 0.0000 0.0000
# 5 0.0000 0.0000 0.0000 0.0000 16.6405 0.0000
# 6 0.0000 0.0000 0.0000 0.0000 0.0000 28.6727
#
#
#
# Elastic Compliance Matrix: (Units=1/GPa)
#
#
# Indices 1 2 3 4 5 6 
#
# 1 0.004020 0.002900 -0.002770 0.000000 0.000000 0.000000
# 2 0.002900 0.004020 -0.002770 0.000000 0.000000 0.000000
# 3 -0.002770 -0.002770 0.012296 0.000000 0.000000 0.000000
# 4 0.000000 0.000000 0.000000 0.060094 0.000000 0.000000
# 5 0.000000 0.000000 0.000000 0.000000 0.060095 0.000000
# 6 0.000000 0.000000 0.000000 0.000000 0.000000 0.034876
#
#
# Mechanical properties :
#
#
# Convention : Reuss Voigt Hill
#
# Bulk Modulus (GPa) = 66.42256 67.86047 67.14151
# Shear Modulus (GPa) = 26.92544 108.89347 67.90946
#
# Velocity S-wave (km/s) = 3.60557 7.25093 5.72609
# Velocity P-wave (km/s) = 7.02878 10.14227 8.72552
#
# Compressibility (1/GPa) = 0.01505513
#
# Stress axis : x y z
#
# Youngs Moduli (GPa) = 248.78638 248.77740 81.32950
#
# Poissons Ratio (x) = -0.72142 0.22527
# Poissons Ratio (y) = -0.72144 0.22527
# Poissons Ratio (z) = 0.68909 0.68909
#
# Static dielectric constant tensor:
#      x y z
#    x 3.596980 0.000000 0.000000 
#    y 0.000000 3.596980 0.000000 
#    z 0.000000 0.000000 3.876830 
# 
# 
# High freq. dielectric constant tensor:
#      x y z
#    x 1.791790 0.000000 0.000000 
#    y 0.000000 1.791790 0.000000 
#    z 0.000000 0.000000 1.810950 
# 
# From -- ./inp_files/4837.got.cif
#   From: 2010.03.12/outbox.cif.g09.slc.cpg/sg97_3_cif.got.tgz:4837.got - 2010.04.08 20:59:42.
