data_PCOD8306902
_publ_section_title
;
Structure prediction by ZEFSAII (Michael W. Deem and Ramdas Pophale) SiO2 
 PCOD8306902
Probable space group: P 42 N M
;
_chemical_formula_sum "Si O2"
_cell_formula_units_Z 56
_cell_length_a 11.355956
_cell_length_b 11.355956
_cell_length_c 23.185972
_cell_angle_alpha 90.000000
_cell_angle_beta 90.000000
_cell_angle_gamma 90.000000
_cell_volume 2990.010472
_symmetry_space_group_name_H-M "P 42 N M"
_symmetry_group_IT_number 102
_symmetry_cell_setting 'tetragonal'
loop_
_space_group_symop_operation_xyz
x,y,z
1/2-y,1/2+x,1/2+z
-x,-y,z
1/2+y,1/2-x,1/2+z
1/2-x,1/2+y,1/2+z
1/2+x,1/2-y,1/2+z
-y,-x,z
y,x,z
loop_
_atom_site_type_symbol
_atom_site_label
_atom_site_fract_x
_atom_site_fract_y
_atom_site_fract_z
Si Si1 0.262005 0.921070 0.445770
Si Si2 0.505023 0.691602 0.626049
Si Si3 0.327067 0.857239 0.931056
Si Si4 0.642762 0.827067 0.821039
Si Si5 0.264488 0.075821 0.006891
Si Si6 0.737998 0.078928 0.806326
Si Si7 0.924178 0.735511 0.245207
O O1 0.124501 0.875500 0.442464
O O2 0.331913 0.873127 0.389746
O O3 0.320418 0.860768 0.502117
O O4 0.280417 0.060101 0.450846
O O5 0.411952 0.588049 0.626049
O O6 0.636547 0.636547 0.626049
O O7 0.485033 0.770964 0.569476
O O8 0.485033 0.770964 0.682622
O O9 0.215583 0.784418 0.951920
O O10 0.331910 0.873131 0.862350
O O11 0.308080 0.982768 0.959958
O O12 0.715580 0.715580 0.800176
O O13 0.517231 0.808082 0.792139
O O14 0.719586 0.939897 0.801249
O O15 0.133891 0.133891 0.994938
O O16 0.875504 0.124497 0.809632
O O17 0.679584 0.139231 0.749980
O O18 0.866108 0.866108 0.257160
#
# Coordination Sequence:
#
# PCOD8306902 Si02
#       7
#     8   8   8   8   8   8   8
#     4  10  21  35  52  77 110 148 189 231 277 334
#     4   9  18  34  55  82 116 146 181 237 288 330
#     4  11  21  34  54  78 110 150 186 232 282 332
#     4  11  21  34  54  78 110 150 186 232 282 332
#     4  10  20  35  57  84 111 144 185 229 285 339
#     4  10  21  35  52  77 110 148 189 231 277 334
#     4  10  20  35  57  84 111 144 185 229 285 339
#
# _framework density 18.729030000000002
#
# number of rings (size 3 to 8) (size 9 to 14) (size 15 to 20)
#    0.000    1.857    2.857    1.714    0.000    2.286 
#    0.000    5.714    0.000    0.000    0.000    0.000 
#    0.000    9.143    0.000    0.000    0.000    0.000 
#
# Total GULP energy -693757.091733 kJ/mol
# GULP energy per Si atom -12388.519495 kJ/mol
# Density = 1.868640 g / cm^3
# Si number density = 18.729030 Si / 1000 Ang^3
#
#
#
# Elastic Constant Matrix: (Units=GPa)
#
#
# Indices 1 2 3 4 5 6 
#
# 1 55.8478 9.1421 10.6669 0.0000 0.0000 0.0002
# 2 9.1421 55.8478 10.6669 0.0000 0.0000 -0.0002
# 3 10.6669 10.6669 74.1041 0.0000 0.0000 0.0000
# 4 0.0000 0.0000 0.0000 22.5806 0.0000 0.0000
# 5 0.0000 0.0000 0.0000 0.0000 22.5806 0.0000
# 6 0.0002 -0.0002 0.0000 0.0000 0.0000 33.2684
#
#
#
# Elastic Compliance Matrix: (Units=1/GPa)
#
#
# Indices 1 2 3 4 5 6 
#
# 1 0.018780 -0.002630 -0.002325 0.000000 0.000000 0.000000
# 2 -0.002630 0.018780 -0.002325 0.000000 0.000000 0.000000
# 3 -0.002325 -0.002325 0.014164 0.000000 0.000000 0.000000
# 4 0.000000 0.000000 0.000000 0.044286 0.000000 0.000000
# 5 0.000000 0.000000 0.000000 0.000000 0.044286 0.000000
# 6 0.000000 0.000000 0.000000 0.000000 0.000000 0.030059
#
#
# Mechanical properties :
#
#
# Convention : Reuss Voigt Hill
#
# Bulk Modulus (GPa) = 26.90690 27.41680 27.16185
# Shear Modulus (GPa) = 25.34180 26.04084 25.69132
#
# Velocity S-wave (km/s) = 3.68241 3.73285 3.70772
# Velocity P-wave (km/s) = 5.69893 5.76623 5.73268
#
# Compressibility (1/GPa) = 0.03716519
#
# Stress axis : x y z
#
# Youngs Moduli (GPa) = 53.24698 53.24698 70.60258
#
# Poissons Ratio (x) = 0.14005 0.16413
# Poissons Ratio (y) = 0.14005 0.16413
# Poissons Ratio (z) = 0.12378 0.12378
#
# Static dielectric constant tensor:
#      x y z
#    x 3.388290 0.000000 0.000000 
#    y 0.000000 3.388290 0.000000 
#    z 0.000000 0.000000 3.437170 
# 
# 
# High freq. dielectric constant tensor:
#      x y z
#    x 1.719220 0.000000 0.000000 
#    y 0.000000 1.719220 0.000000 
#    z 0.000000 0.000000 1.704660 
# 
# From -- ./inp_files/3126.got.cif
#   From: 2010.03.12/outbox.cif.g09.slc.cpg/sg102_2_cif.got.tgz:3126.got - 2010.04.14 01:40:42.
