data_PCOD8306329
_publ_section_title
;
Structure prediction by ZEFSAII (Michael W. Deem and Ramdas Pophale) SiO2 
 PCOD8306329
Probable space group: I 41 2 2
;
_chemical_formula_sum "Si O2"
_cell_formula_units_Z 60
_cell_length_a 15.079638
_cell_length_b 15.079638
_cell_length_c 12.778583
_cell_angle_alpha 90.000000
_cell_angle_beta 90.000000
_cell_angle_gamma 90.000000
_cell_volume 2905.792043
_symmetry_space_group_name_H-M "I 41 2 2"
_symmetry_group_IT_number 98
_symmetry_cell_setting 'tetragonal'
loop_
_space_group_symop_operation_xyz
x,y,z
-y,1/2+x,1/4+z
-x,-y,z
y,1/2-x,1/4+z
x,1/2-y,1/4-z
-x,1/2+y,1/4-z
y,x,-z
-y,-x,-z
1/2+x,1/2+y,1/2+z
1/2-y,x,3/4+z
1/2-x,1/2-y,1/2+z
1/2+y,-x,3/4+z
1/2+x,-y,3/4-z
1/2-x,y,3/4-z
1/2+y,1/2+x,1/2-z
1/2-y,1/2-x,1/2-z
loop_
_atom_site_type_symbol
_atom_site_label
_atom_site_fract_x
_atom_site_fract_y
_atom_site_fract_z
Si Si1 0.294308 0.935782 0.763411
Si Si2 0.036375 0.173597 0.379174
Si Si3 0.196059 0.161434 0.217231
Si Si4 0.383878 0.383878 0.500000
Si Si5 0.500000 0.000000 0.250000
O O1 0.250000 0.941972 0.875000
O O2 0.340377 0.840377 0.750000
O O3 0.217983 0.951953 0.677671
O O4 0.368045 0.011619 0.745467
O O5 0.115818 0.151108 0.298458
O O6 0.074861 0.239496 0.468959
O O7 0.997744 0.085360 0.427462
O O8 0.253970 0.246031 0.250000
O O9 0.155306 0.168575 0.100179
#
# Coordination Sequence:
#
# PCOD8306329 Si02
#       5
#    16  16  16   8   4
#     4  11  24  45  68 103 135 184 231 284 351 410
#     4  11  26  42  70 101 142 185 233 296 346 428
#     4  11  23  37  69 108 137 173 228 290 363 409
#     4  10  23  39  70 105 140 171 230 304 356 397
#     4  12  28  50  64 104 144 192 234 282 364 414
#
# _framework density 20.648413999999999
#
# number of rings (size 3 to 8) (size 9 to 14) (size 15 to 20)
#    0.000    1.067    4.000    1.200   14.933    4.267 
#    2.400    0.000    0.000    0.000    0.000    0.000 
#    0.000    0.000    0.000    0.000    0.000    0.000 
#
# Total GULP energy -371878.909877 kJ/mol
# GULP energy per Si atom -12395.963663 kJ/mol
# Density = 2.060142 g / cm^3
# Si number density = 20.648414 Si / 1000 Ang^3
#
#
#
# Elastic Constant Matrix: (Units=GPa)
#
#
# Indices 1 2 3 4 5 6 
#
# 1 108.6605 84.5542 64.7691 0.0000 0.0000 0.0000
# 2 84.5542 108.6599 64.7693 0.0000 0.0000 0.0000
# 3 64.7691 64.7693 108.8723 0.0000 0.0000 0.0000
# 4 0.0000 0.0000 0.0000 23.4012 0.0000 0.0000
# 5 0.0000 0.0000 0.0000 0.0000 23.4020 0.0000
# 6 0.0000 0.0000 0.0000 0.0000 0.0000 39.0529
#
#
#
# Elastic Compliance Matrix: (Units=1/GPa)
#
#
# Indices 1 2 3 4 5 6 
#
# 1 0.025046 -0.016437 -0.005122 0.000000 0.000000 0.000000
# 2 -0.016437 0.025047 -0.005122 0.000000 0.000000 0.000000
# 3 -0.005122 -0.005122 0.015279 0.000000 0.000000 0.000000
# 4 0.000000 0.000000 0.000000 0.042733 0.000000 0.000000
# 5 0.000000 0.000000 0.000000 0.000000 0.042731 0.000000
# 6 0.000000 0.000000 0.000000 0.000000 0.000000 0.025606
#
#
# Mechanical properties :
#
#
# Convention : Reuss Voigt Hill
#
# Bulk Modulus (GPa) = 83.25925 83.81976 83.53951
# Shear Modulus (GPa) = 21.38509 24.64455 23.01482
#
# Velocity S-wave (km/s) = 3.22169 3.45850 3.34219
# Velocity P-wave (km/s) = 7.36538 7.52531 7.44578
#
# Compressibility (1/GPa) = 0.01201068
#
# Stress axis : x y z
#
# Youngs Moduli (GPa) = 39.92605 39.92553 65.44853
#
# Poissons Ratio (x) = 0.65625 0.33521
# Poissons Ratio (y) = 0.65626 0.33523
# Poissons Ratio (z) = 0.20449 0.20450
#
# Static dielectric constant tensor:
#      x y z
#    x 3.827600 0.000000 0.000000 
#    y 0.000000 3.827610 0.000000 
#    z 0.000000 0.000000 5.346190 
# 
# 
# High freq. dielectric constant tensor:
#      x y z
#    x 1.798490 0.000000 0.000000 
#    y 0.000000 1.798490 0.000000 
#    z 0.000000 0.000000 1.817420 
# 
# From -- ./inp_files/6287.got.cif
#   From: 2010.03.12/outbox.cif.g09.slc.cpg/sg98_4_cif.got.tgz:6287.got - 2010.04.08 21:04:41.
