data_PCOD8306693
_publ_section_title
;
Structure prediction by ZEFSAII (Michael W. Deem and Ramdas Pophale) SiO2 
 PCOD8306693
Probable space group: P 42 C M
;
_chemical_formula_sum "Si O2"
_cell_formula_units_Z 56
_cell_length_a 25.594243
_cell_length_b 25.594243
_cell_length_c 5.236960
_cell_angle_alpha 90.000000
_cell_angle_beta 90.000000
_cell_angle_gamma 90.000000
_cell_volume 3430.550641
_symmetry_space_group_name_H-M "P 42 C M"
_symmetry_group_IT_number 101
_symmetry_cell_setting 'tetragonal'
loop_
_space_group_symop_operation_xyz
x,y,z
-y,x,1/2+z
-x,-y,z
y,-x,1/2+z
-x,y,1/2+z
x,-y,1/2+z
-y,-x,z
y,x,z
loop_
_atom_site_type_symbol
_atom_site_label
_atom_site_fract_x
_atom_site_fract_y
_atom_site_fract_z
Si Si1 0.481937 0.305246 0.343450
Si Si2 0.278013 0.363255 0.361650
Si Si3 0.787657 0.356329 0.368475
Si Si4 0.839822 0.248121 0.314915
Si Si5 0.879394 0.966551 0.341061
Si Si6 0.809431 0.526654 0.874667
Si Si7 0.116567 0.796409 0.818067
O O1 0.493886 0.337270 0.603818
O O2 0.422057 0.293220 0.301036
O O3 0.516173 0.252552 0.383754
O O4 0.330147 0.330147 0.346070
O O5 0.254415 0.357697 0.642272
O O6 0.238311 0.344608 0.142691
O O7 0.826788 0.309171 0.315233
O O8 0.819242 0.411067 0.373744
O O9 0.787068 0.212933 0.310991
O O10 0.875107 0.236425 0.561236
O O11 0.875480 0.239512 0.066191
O O12 0.924423 0.924423 0.298121
O O13 0.821937 0.940831 0.317051
O O14 0.885446 0.990007 0.623382
O O15 0.835268 0.499810 0.625324
O O16 0.157412 0.842589 0.834307
#
# Coordination Sequence:
#
# PCOD8306693 Si02
#       7
#     8   8   8   8   8   8   8
#     4  10  16  30  43  52  74 112 135 171 219 296
#     4  12  21  28  40  62  86 106 140 192 234 271
#     4  12  20  30  44  63  87 118 153 194 235 266
#     4  10  19  31  45  64  91 125 163 199 231 272
#     4  11  22  36  56  81 107 138 176 217 259 294
#     4  10  16  29  44  56  77 115 146 178 221 297
#     4   9  19  35  50  65  95 135 167 194 234 290
#
# _framework density 16.323909
#
# number of rings (size 3 to 8) (size 9 to 14) (size 15 to 20)
#    0.000    1.429    5.714    3.429    0.000    4.286 
#    0.000    0.000    0.000    0.000    0.000    0.000 
#    0.000    1.714    0.000    0.000    0.000   50.000 
#
# Total GULP energy -694236.123743 kJ/mol
# GULP energy per Si atom -12397.073638 kJ/mol
# Density = 1.628676 g / cm^3
# Si number density = 16.323909 Si / 1000 Ang^3
#
#
#
# Elastic Constant Matrix: (Units=GPa)
#
#
# Indices 1 2 3 4 5 6 
#
# 1 52.4052 37.9046 14.5927 0.0000 0.0000 -0.0004
# 2 37.9046 52.4052 14.5927 0.0000 0.0000 0.0004
# 3 14.5927 14.5927 116.6939 0.0000 0.0000 0.0000
# 4 0.0000 0.0000 0.0000 18.3959 0.0000 0.0000
# 5 0.0000 0.0000 0.0000 0.0000 18.3959 0.0000
# 6 -0.0004 0.0004 0.0000 0.0000 0.0000 5.7211
#
#
#
# Elastic Compliance Matrix: (Units=1/GPa)
#
#
# Indices 1 2 3 4 5 6 
#
# 1 0.040251 -0.028712 -0.001443 0.000000 0.000000 0.000005
# 2 -0.028712 0.040251 -0.001443 0.000000 0.000000 -0.000005
# 3 -0.001443 -0.001443 0.008930 0.000000 0.000000 0.000000
# 4 0.000000 0.000000 0.000000 0.054360 0.000000 0.000000
# 5 0.000000 0.000000 0.000000 0.000000 0.054360 0.000000
# 6 0.000005 -0.000005 0.000000 0.000000 0.000000 0.174793
#
#
# Mechanical properties :
#
#
# Convention : Reuss Voigt Hill
#
# Bulk Modulus (GPa) = 38.11418 39.52049 38.81733
# Shear Modulus (GPa) = 11.23883 18.79687 15.01785
#
# Velocity S-wave (km/s) = 2.62675 3.39705 3.03643
# Velocity P-wave (km/s) = 5.70957 6.29677 6.01034
#
# Compressibility (1/GPa) = 0.02623696
#
# Stress axis : x y z
#
# Youngs Moduli (GPa) = 24.84406 24.84406 111.97800
#
# Poissons Ratio (x) = 0.71332 0.16158
# Poissons Ratio (y) = 0.71332 0.16158
# Poissons Ratio (z) = 0.03585 0.03585
#
# Static dielectric constant tensor:
#      x y z
#    x 2.868250 0.000000 0.000000 
#    y 0.000000 2.868250 0.000000 
#    z 0.000000 0.000000 4.212770 
# 
# 
# High freq. dielectric constant tensor:
#      x y z
#    x 1.590110 0.000000 0.000000 
#    y 0.000000 1.590110 0.000000 
#    z 0.000000 0.000000 1.666330 
# 
# From -- ./inp_files/199.got.cif
#   From: 2010.03.12/outbox.cif.g09.slc.cpg/sg101_1_cif.got.tgz:199.got - 2010.04.14 01:38:52.
