data_PCOD8306723
_publ_section_title
;
Structure prediction by ZEFSAII (Michael W. Deem and Ramdas Pophale) SiO2 
 PCOD8306723
Probable space group: P 42 C M
;
_chemical_formula_sum "Si O2"
_cell_formula_units_Z 48
_cell_length_a 13.405727
_cell_length_b 13.405727
_cell_length_c 13.667604
_cell_angle_alpha 90.000000
_cell_angle_beta 90.000000
_cell_angle_gamma 90.000000
_cell_volume 2456.253176
_symmetry_space_group_name_H-M "P 42 C M"
_symmetry_group_IT_number 101
_symmetry_cell_setting 'tetragonal'
loop_
_space_group_symop_operation_xyz
x,y,z
-y,x,1/2+z
-x,-y,z
y,-x,1/2+z
-x,y,1/2+z
x,-y,1/2+z
-y,-x,z
y,x,z
loop_
_atom_site_type_symbol
_atom_site_label
_atom_site_fract_x
_atom_site_fract_y
_atom_site_fract_z
Si Si1 0.096501 0.441286 0.710690
Si Si2 0.749261 0.003334 0.285270
Si Si3 0.738159 0.573535 0.551707
Si Si4 0.420943 0.420943 0.073412
Si Si5 0.699565 0.300436 0.721556
Si Si6 0.146313 0.853688 0.645715
Si Si7 0.596187 0.849112 0.356949
Si Si8 0.914646 0.914646 0.926372
O O1 0.195826 0.455632 0.645946
O O2 0.112046 0.489963 0.817957
O O3 0.000000 0.500000 0.663417
O O4 0.079370 0.323248 0.727069
O O5 0.815438 0.951505 0.201745
O O6 0.682452 0.929895 0.348760
O O7 0.818375 0.050973 0.367145
O O8 0.672361 0.672361 0.572455
O O9 0.666172 0.481734 0.516205
O O10 0.818949 0.591739 0.468848
O O11 0.500000 0.500000 0.114809
O O12 0.371829 0.371829 0.164751
O O13 0.768238 0.231763 0.650704
O O14 0.758644 0.374466 0.789365
O O15 0.118272 0.881729 0.535045
O O16 0.000000 0.000000 0.931653
#
# Coordination Sequence:
#
# PCOD8306723 Si02
#       8
#     8   8   8   4   4   4   8   4
#     4  10  23  42  66  93 126 164 209 267 314 368
#     4  10  24  44  62  96 128 161 221 261 309 385
#     4  11  23  39  65  96 128 170 209 254 316 384
#     4  10  22  40  60  96 129 159 209 253 307 379
#     4  10  18  42  63  81 125 169 207 254 314 365
#     4  10  24  42  66  87 123 176 213 261 316 371
#     4  10  21  42  65  88 124 170 206 258 319 371
#     4  12  26  42  65  94 133 176 209 264 323 369
#
# _framework density 19.541958999999999
#
# number of rings (size 3 to 8) (size 9 to 14) (size 15 to 20)
#    0.000    1.667    3.333    0.000    4.667    3.333 
#    3.000    0.000    0.000    0.000    0.000    0.000 
#    0.000    0.000    0.000    0.000    0.000    0.000 
#
# Total GULP energy -594859.539295 kJ/mol
# GULP energy per Si atom -12392.907069 kJ/mol
# Density = 1.949748 g / cm^3
# Si number density = 19.541959 Si / 1000 Ang^3
#
#
#
# Elastic Constant Matrix: (Units=GPa)
#
#
# Indices 1 2 3 4 5 6 
#
# 1 94.1516 36.8665 49.7583 0.0000 0.0000 0.0001
# 2 36.8665 94.1516 49.7583 0.0000 0.0000 -0.0001
# 3 49.7583 49.7583 106.8841 0.0000 0.0000 0.0000
# 4 0.0000 0.0000 0.0000 41.5460 0.0000 0.0000
# 5 0.0000 0.0000 0.0000 0.0000 41.5460 0.0000
# 6 0.0001 -0.0001 0.0000 0.0000 0.0000 29.7675
#
#
#
# Elastic Compliance Matrix: (Units=1/GPa)
#
#
# Indices 1 2 3 4 5 6 
#
# 1 0.014632 -0.002824 -0.005497 0.000000 0.000000 0.000000
# 2 -0.002824 0.014632 -0.005497 0.000000 0.000000 0.000000
# 3 -0.005497 -0.005497 0.014474 0.000000 0.000000 0.000000
# 4 0.000000 0.000000 0.000000 0.024070 0.000000 0.000000
# 5 0.000000 0.000000 0.000000 0.000000 0.024070 0.000000
# 6 0.000000 0.000000 0.000000 0.000000 0.000000 0.033594
#
#
# Mechanical properties :
#
#
# Convention : Reuss Voigt Hill
#
# Bulk Modulus (GPa) = 62.10486 63.10596 62.60541
# Shear Modulus (GPa) = 31.55065 33.15884 32.35475
#
# Velocity S-wave (km/s) = 4.02245 4.12369 4.07339
# Velocity P-wave (km/s) = 7.30909 7.41861 7.36405
#
# Compressibility (1/GPa) = 0.01610180
#
# Stress axis : x y z
#
# Youngs Moduli (GPa) = 68.34241 68.34241 69.08941
#
# Poissons Ratio (x) = 0.19302 0.37978
# Poissons Ratio (y) = 0.19302 0.37978
# Poissons Ratio (z) = 0.37568 0.37568
#
# Static dielectric constant tensor:
#      x y z
#    x 3.580610 0.000000 0.000000 
#    y 0.000000 3.580610 0.000000 
#    z 0.000000 0.000000 3.289220 
# 
# 
# High freq. dielectric constant tensor:
#      x y z
#    x 1.776190 0.000000 0.000000 
#    y 0.000000 1.776190 0.000000 
#    z 0.000000 0.000000 1.740400 
# 
# From -- ./inp_files/1332.got.cif
#   From: 2010.03.12/outbox.cif.g09.slc.cpg/sg101_1_cif.got.tgz:1332.got - 2010.04.14 01:38:52.
