data_PCOD8306403
_publ_section_title
;
Structure prediction by ZEFSAII (Michael W. Deem and Ramdas Pophale) SiO2 
 PCOD8306403
Probable space group: I 41 2 2
;
_chemical_formula_sum "Si O2"
_cell_formula_units_Z 44
_cell_length_a 12.988251
_cell_length_b 12.988251
_cell_length_c 10.979645
_cell_angle_alpha 90.000000
_cell_angle_beta 90.000000
_cell_angle_gamma 90.000000
_cell_volume 1852.207525
_symmetry_space_group_name_H-M "I 41 2 2"
_symmetry_group_IT_number 98
_symmetry_cell_setting 'tetragonal'
loop_
_space_group_symop_operation_xyz
x,y,z
-y,1/2+x,1/4+z
-x,-y,z
y,1/2-x,1/4+z
x,1/2-y,1/4-z
-x,1/2+y,1/4-z
y,x,-z
-y,-x,-z
1/2+x,1/2+y,1/2+z
1/2-y,x,3/4+z
1/2-x,1/2-y,1/2+z
1/2+y,-x,3/4+z
1/2+x,-y,3/4-z
1/2-x,y,3/4-z
1/2+y,1/2+x,1/2-z
1/2-y,1/2-x,1/2-z
loop_
_atom_site_type_symbol
_atom_site_label
_atom_site_fract_x
_atom_site_fract_y
_atom_site_fract_z
Si Si1 0.300184 0.038421 0.693838
Si Si2 0.194382 0.805619 0.000000
Si Si3 0.413378 0.352648 0.183164
Si Si4 0.500000 0.500000 0.000000
O O1 0.386306 0.113695 0.750000
O O2 0.328545 0.022012 0.553166
O O3 0.185588 0.080109 0.713530
O O4 0.291853 0.927906 0.753636
O O5 0.237231 0.750000 0.125000
O O6 0.367031 0.250000 0.125000
O O7 0.495576 0.401315 0.088555
#
# Coordination Sequence:
#
# PCOD8306403 Si02
#       4
#    16   8  16   4
#     4  12  26  46  80 110 152 196 264 332 401 479
#     4  12  31  51  72 112 162 216 264 328 418 500
#     4  12  25  48  77 110 150 199 260 327 394 481
#     4  12  28  42  74 116 154 206 256 320 416 478
#
# _framework density 23.755436
#
# number of rings (size 3 to 8) (size 9 to 14) (size 15 to 20)
#    0.000    0.000    3.636    6.000   10.182    2.909 
#    0.000    0.000    0.000    0.000    0.000    0.000 
#    0.000    0.000    0.000    0.000    0.000    0.000 
#
# Total GULP energy -272720.232785 kJ/mol
# GULP energy per Si atom -12396.374217 kJ/mol
# Density = 2.370137 g / cm^3
# Si number density = 23.755436 Si / 1000 Ang^3
#
#
#
# Elastic Constant Matrix: (Units=GPa)
#
#
# Indices 1 2 3 4 5 6 
#
# 1 80.6630 62.5908 17.1767 0.0000 0.0000 0.0000
# 2 62.5908 80.6649 17.1795 0.0000 0.0000 0.0000
# 3 17.1767 17.1795 143.5893 0.0000 0.0000 0.0000
# 4 0.0000 0.0000 0.0000 6.5851 0.0000 0.0000
# 5 0.0000 0.0000 0.0000 0.0000 6.5847 0.0000
# 6 0.0000 0.0000 0.0000 0.0000 0.0000 34.8230
#
#
#
# Elastic Compliance Matrix: (Units=1/GPa)
#
#
# Indices 1 2 3 4 5 6 
#
# 1 0.031259 -0.024072 -0.000859 0.000000 0.000000 0.000000
# 2 -0.024072 0.031258 -0.000860 0.000000 0.000000 0.000000
# 3 -0.000859 -0.000860 0.007170 0.000000 0.000000 0.000000
# 4 0.000000 0.000000 0.000000 0.151859 0.000000 0.000000
# 5 0.000000 0.000000 0.000000 0.000000 0.151867 0.000000
# 6 0.000000 0.000000 0.000000 0.000000 0.000000 0.028717
#
#
# Mechanical properties :
#
#
# Convention : Reuss Voigt Hill
#
# Bulk Modulus (GPa) = 55.23506 55.42347 55.32926
# Shear Modulus (GPa) = 10.87552 23.46323 17.16938
#
# Velocity S-wave (km/s) = 2.14198 3.14618 2.69133
# Velocity P-wave (km/s) = 5.42397 6.04809 5.74451
#
# Compressibility (1/GPa) = 0.01810444
#
# Stress axis : x y z
#
# Youngs Moduli (GPa) = 31.99079 31.99132 139.46958
#
# Poissons Ratio (x) = 0.77009 0.11984
# Poissons Ratio (y) = 0.77008 0.11999
# Poissons Ratio (z) = 0.02749 0.02752
#
# Static dielectric constant tensor:
#      x y z
#    x 4.257820 0.000000 0.000000 
#    y 0.000000 4.257770 0.000000 
#    z 0.000000 0.000000 4.748380 
# 
# 
# High freq. dielectric constant tensor:
#      x y z
#    x 1.938040 0.000000 0.000000 
#    y 0.000000 1.938040 0.000000 
#    z 0.000000 0.000000 1.971530 
# 
# From -- ./inp_files/4500.got.cif
#   From: 2010.03.12/outbox.cif.g09.slc.cpg/sg98_3_cif.got.tgz:4500.got - 2010.04.08 21:04:41.
