data_PCOD8306263
_publ_section_title
;
Structure prediction by ZEFSAII (Michael W. Deem and Ramdas Pophale) SiO2 
 PCOD8306263
Probable space group: I 41 2 2
;
_chemical_formula_sum "Si O2"
_cell_formula_units_Z 56
_cell_length_a 16.070463
_cell_length_b 16.070463
_cell_length_c 10.254229
_cell_angle_alpha 90.000000
_cell_angle_beta 90.000000
_cell_angle_gamma 90.000000
_cell_volume 2648.254936
_symmetry_space_group_name_H-M "I 41 2 2"
_symmetry_group_IT_number 98
_symmetry_cell_setting 'tetragonal'
loop_
_space_group_symop_operation_xyz
x,y,z
-y,1/2+x,1/4+z
-x,-y,z
y,1/2-x,1/4+z
x,1/2-y,1/4-z
-x,1/2+y,1/4-z
y,x,-z
-y,-x,-z
1/2+x,1/2+y,1/2+z
1/2-y,x,3/4+z
1/2-x,1/2-y,1/2+z
1/2+y,-x,3/4+z
1/2+x,-y,3/4-z
1/2-x,y,3/4-z
1/2+y,1/2+x,1/2-z
1/2-y,1/2-x,1/2-z
loop_
_atom_site_type_symbol
_atom_site_label
_atom_site_fract_x
_atom_site_fract_y
_atom_site_fract_z
Si Si1 0.750000 0.310289 0.375000
Si Si2 0.815764 0.930869 0.758187
Si Si3 0.797258 0.948682 0.241437
Si Si4 0.418906 0.587606 0.645096
O O1 0.749034 0.250967 0.500000
O O2 0.670635 0.367111 0.367245
O O3 0.750000 0.934818 0.875000
O O4 0.857810 0.840035 0.753012
O O5 0.769241 0.951400 0.624525
O O6 0.890743 0.996764 0.777704
O O7 0.750000 0.967470 0.375000
O O8 0.867152 0.018737 0.222257
O O9 0.443401 0.556600 0.500000
#
# Coordination Sequence:
#
# PCOD8306263 Si02
#       4
#     8  16  16  16
#     4  10  20  36  62  94 132 168 216 274 338 404
#     4  12  24  46  72 101 135 187 239 281 339 410
#     4  12  28  44  69 103 144 183 227 288 350 407
#     4  11  22  45  69 101 134 175 237 285 339 413
#
# _framework density 21.145999
#
# number of rings (size 3 to 8) (size 9 to 14) (size 15 to 20)
#    0.000    0.571    4.286    4.286    2.000    5.714 
#    0.000    2.857    0.000    0.000    0.000    0.000 
#    0.000    0.000    0.000    0.000    0.000    0.000 
#
# Total GULP energy -347283.970966 kJ/mol
# GULP energy per Si atom -12402.998963 kJ/mol
# Density = 2.109787 g / cm^3
# Si number density = 21.145999 Si / 1000 Ang^3
#
#
#
# Elastic Constant Matrix: (Units=GPa)
#
#
# Indices 1 2 3 4 5 6 
#
# 1 74.3185 90.7699 59.9069 0.0000 0.0000 0.0000
# 2 90.7699 74.3206 59.9057 0.0000 0.0000 0.0000
# 3 59.9069 59.9057 181.9449 0.0000 0.0000 0.0000
# 4 0.0000 0.0000 0.0000 -3.3798 0.0000 0.0000
# 5 0.0000 0.0000 0.0000 0.0000 -3.3784 0.0000
# 6 0.0000 0.0000 0.0000 0.0000 0.0000 80.8131
#
#
#
# Elastic Compliance Matrix: (Units=1/GPa)
#
#
# Indices 1 2 3 4 5 6 
#
# 1 -0.026416 0.034374 -0.002620 0.000000 0.000000 0.000000
# 2 0.034374 -0.026414 -0.002621 0.000000 0.000000 0.000000
# 3 -0.002620 -0.002621 0.007222 0.000000 0.000000 0.000000
# 4 0.000000 0.000000 0.000000 -0.295876 0.000000 0.000000
# 5 0.000000 0.000000 0.000000 0.000000 -0.295997 0.000000
# 6 0.000000 0.000000 0.000000 0.000000 0.000000 0.012374
#
#
# Mechanical properties :
#
#
# Convention : Reuss Voigt Hill
#
# Bulk Modulus (GPa) = 79.00236 83.52765 81.26501
# Shear Modulus (GPa) = -7.36211 22.81109 7.72449
#
# Velocity S-wave (km/s) = -1.86792 3.28798 1.91334
# Velocity P-wave (km/s) = 5.72620 7.34851 6.58749
#
# Compressibility (1/GPa) = 0.01265785
#
# Stress axis : x y z
#
# Youngs Moduli (GPa) = -37.85640 -37.85843 138.46830
#
# Poissons Ratio (x) = 1.30135 0.36281
# Poissons Ratio (y) = 1.30128 0.36293
# Poissons Ratio (z) = -0.09919 -0.09923
#
# Static dielectric constant tensor:
#      x y z
#    x 3.971030 0.000000 0.000000 
#    y 0.000000 3.971020 0.000000 
#    z 0.000000 0.000000 4.484210 
# 
# 
# High freq. dielectric constant tensor:
#      x y z
#    x 1.842670 0.000000 0.000000 
#    y 0.000000 1.842670 0.000000 
#    z 0.000000 0.000000 1.830330 
# 
# From -- ./inp_files/2898.got.cif
#   From: 2010.03.12/outbox.cif.g09.slc.cpg/sg98_2_cif.got.tgz:2898.got - 2010.04.08 21:04:41.
