data_PCOD8306159
_publ_section_title
;
Structure prediction by ZEFSAII (Michael W. Deem and Ramdas Pophale) SiO2 
 PCOD8306159
Probable space group: I 4 2 2 
;
_chemical_formula_sum "Si O2"
_cell_formula_units_Z 112
_cell_length_a 15.000013
_cell_length_b 15.000013
_cell_length_c 24.716739
_cell_angle_alpha 90.000000
_cell_angle_beta 90.000000
_cell_angle_gamma 90.000000
_cell_volume 5561.275915
_symmetry_space_group_name_H-M "I 4 2 2 "
_symmetry_group_IT_number 97
_symmetry_cell_setting 'tetragonal'
loop_
_space_group_symop_operation_xyz
x,y,z
-y,x,z
-x,-y,z
y,-x,z
x,-y,-z
-x,y,-z
y,x,-z
-y,-x,-z
1/2+x,1/2+y,1/2+z
1/2-y,1/2+x,1/2+z
1/2-x,1/2-y,1/2+z
1/2+y,1/2-x,1/2+z
1/2+x,1/2-y,1/2-z
1/2-x,1/2+y,1/2-z
1/2+y,1/2+x,1/2-z
1/2-y,1/2-x,1/2-z
loop_
_atom_site_type_symbol
_atom_site_label
_atom_site_fract_x
_atom_site_fract_y
_atom_site_fract_z
Si Si1 0.644561 0.686365 0.670627
Si Si2 0.287843 0.008972 0.349526
Si Si3 0.665697 0.885935 0.192108
Si Si4 0.359459 0.528742 0.765637
Si Si5 0.607313 0.600139 0.440169
Si Si6 0.913668 0.625868 0.189061
Si Si7 0.000859 0.144099 0.437406
O O1 0.730000 0.637960 0.697037
O O2 0.552350 0.657535 0.701953
O O3 0.646091 0.663885 0.606974
O O4 0.653578 0.791686 0.679009
O O5 0.314359 0.113264 0.345125
O O6 0.232168 0.966522 0.298870
O O7 0.379524 0.952832 0.350449
O O8 0.235265 0.996790 0.404828
O O9 0.619483 0.880518 0.250000
O O10 0.653289 0.986724 0.171071
O O11 0.397127 0.432095 0.781439
O O12 0.504314 0.623607 0.433632
O O13 0.635786 0.635786 0.500000
O O14 0.909764 0.590237 0.250000
O O15 0.913295 0.087747 0.422179
O O16 0.000000 0.169204 0.500000
#
# Coordination Sequence:
#
# PCOD8306159 Si02
#       7
#    16  16  16  16  16  16  16
#     4  12  23  38  60  91 121 160 215 269 316 380
#     4  12  24  38  63  90 126 169 216 262 311 396
#     4  12  25  40  62  87 128 173 215 254 317 393
#     4  11  22  35  56  90 126 156 192 260 333 375
#     4   9  18  35  60  87 118 156 195 243 312 382
#     4  12  24  42  60  87 127 171 212 254 323 396
#     4   9  20  41  69  99 133 172 214 271 341 396
#
# _framework density 20.139264000000001
#
# number of rings (size 3 to 8) (size 9 to 14) (size 15 to 20)
#    0.000    1.000    2.857    6.000    4.000    2.286 
#    0.000    1.429    0.000    3.429    0.000    0.000 
#    0.000    0.000    0.000    0.000    0.000    0.000 
#
# Total GULP energy -694204.954130 kJ/mol
# GULP energy per Si atom -12396.517038 kJ/mol
# Density = 2.009343 g / cm^3
# Si number density = 20.139264 Si / 1000 Ang^3
#
#
#
# Elastic Constant Matrix: (Units=GPa)
#
#
# Indices 1 2 3 4 5 6 
#
# 1 106.1536 27.2288 31.3189 0.0000 0.0000 0.0000
# 2 27.2288 106.1538 31.3190 0.0000 0.0000 0.0000
# 3 31.3189 31.3190 94.2541 0.0000 0.0000 0.0000
# 4 0.0000 0.0000 0.0000 25.3848 0.0000 0.0000
# 5 0.0000 0.0000 0.0000 0.0000 25.3848 0.0000
# 6 0.0000 0.0000 0.0000 0.0000 0.0000 34.0511
#
#
#
# Elastic Compliance Matrix: (Units=1/GPa)
#
#
# Indices 1 2 3 4 5 6 
#
# 1 0.010777 -0.001893 -0.002952 0.000000 0.000000 0.000000
# 2 -0.001893 0.010777 -0.002952 0.000000 0.000000 0.000000
# 3 -0.002952 -0.002952 0.012571 0.000000 0.000000 0.000000
# 4 0.000000 0.000000 0.000000 0.039394 0.000000 0.000000
# 5 0.000000 0.000000 0.000000 0.000000 0.039394 0.000000
# 6 0.000000 0.000000 0.000000 0.000000 0.000000 0.029368
#
#
# Mechanical properties :
#
#
# Convention : Reuss Voigt Hill
#
# Bulk Modulus (GPa) = 53.96385 54.03278 53.99832
# Shear Modulus (GPa) = 30.47833 31.41046 30.94440
#
# Velocity S-wave (km/s) = 3.89444 3.95354 3.92410
# Velocity P-wave (km/s) = 6.86117 6.90858 6.88492
#
# Compressibility (1/GPa) = 0.01853092
#
# Stress axis : x y z
#
# Youngs Moduli (GPa) = 92.79139 92.79145 79.54639
#
# Poissons Ratio (x) = 0.17569 0.23480
# Poissons Ratio (y) = 0.17569 0.23481
# Poissons Ratio (z) = 0.27390 0.27390
#
# Static dielectric constant tensor:
#      x y z
#    x 3.766870 0.000000 0.000000 
#    y 0.000000 3.766870 0.000000 
#    z 0.000000 0.000000 3.433550 
# 
# 
# High freq. dielectric constant tensor:
#      x y z
#    x 1.788490 0.000000 0.000000 
#    y 0.000000 1.788490 0.000000 
#    z 0.000000 0.000000 1.757010 
# 
# From -- ./inp_files/7269.got.cif
#   From: 2010.03.12/outbox.cif.g09.slc.cpg/sg97_4_cif.got.tgz:7269.got - 2010.04.08 20:59:42.
