data_PCOD8306875
_publ_section_title
;
Structure prediction by ZEFSAII (Michael W. Deem and Ramdas Pophale) SiO2 
 PCOD8306875
Probable space group: P 42 N M
;
_chemical_formula_sum "Si O2"
_cell_formula_units_Z 64
_cell_length_a 11.620911
_cell_length_b 11.620911
_cell_length_c 23.745810
_cell_angle_alpha 90.000000
_cell_angle_beta 90.000000
_cell_angle_gamma 90.000000
_cell_volume 3206.766505
_symmetry_space_group_name_H-M "P 42 N M"
_symmetry_group_IT_number 102
_symmetry_cell_setting 'tetragonal'
loop_
_space_group_symop_operation_xyz
x,y,z
1/2-y,1/2+x,1/2+z
-x,-y,z
1/2+y,1/2-x,1/2+z
1/2-x,1/2+y,1/2+z
1/2+x,1/2-y,1/2+z
-y,-x,z
y,x,z
loop_
_atom_site_type_symbol
_atom_site_label
_atom_site_fract_x
_atom_site_fract_y
_atom_site_fract_z
Si Si1 0.354126 0.829127 0.379460
Si Si2 0.851682 0.657615 0.752539
Si Si3 0.502093 0.314652 0.693341
Si Si4 0.369857 0.028917 0.462505
Si Si5 0.928061 0.257425 0.565103
Si Si6 0.185731 0.995910 0.684317
Si Si7 0.055271 0.241438 0.070496
Si Si8 0.553633 0.736060 0.451532
O O1 0.231618 0.768383 0.376634
O O2 0.394953 0.858483 0.316403
O O3 0.442109 0.744398 0.411951
O O4 0.333747 0.946739 0.411861
O O5 0.754395 0.754395 0.746188
O O6 0.798969 0.535513 0.729382
O O7 0.967127 0.700872 0.719700
O O8 0.632958 0.367043 0.704385
O O9 0.415189 0.415189 0.709155
O O10 0.486415 0.281746 0.627870
O O11 0.361374 0.157683 0.437824
O O12 0.500000 0.000000 0.481869
O O13 0.283373 0.015513 0.514626
O O14 0.843899 0.156102 0.544827
O O15 0.000903 0.220479 0.619060
O O16 0.856241 0.371317 0.579836
O O17 0.132155 0.867846 0.698969
O O18 0.086796 0.086796 0.696373
O O19 0.134635 0.134635 0.054640
O O20 0.970705 0.252557 0.017847
O O21 0.615227 0.615227 0.438815
#
# Coordination Sequence:
#
# PCOD8306875 Si02
#       8
#     8   8   8   8   8   8   8   8
#     4  10  20  38  61  83 109 151 198 238 283 343
#     4   9  19  35  58  83 109 148 194 238 293 349
#     4   9  18  33  53  80 114 147 185 237 293 351
#     4  10  20  35  53  76 111 147 187 229 281 340
#     4  10  19  33  54  78 109 150 189 231 281 340
#     4   9  19  34  52  79 114 149 191 243 293 348
#     4  10  19  33  54  84 117 148 184 233 292 351
#     4  11  23  36  55  85 117 148 187 239 297 348
#
# _framework density 19.957799999999999
#
# number of rings (size 3 to 8) (size 9 to 14) (size 15 to 20)
#    0.000    2.250    2.500    1.125    1.750    2.500 
#    0.000    5.625    0.000    3.375    0.000    0.000 
#    0.000    0.000    0.000    0.000    0.000    0.000 
#
# Total GULP energy -793174.457485 kJ/mol
# GULP energy per Si atom -12393.350898 kJ/mol
# Density = 1.991238 g / cm^3
# Si number density = 19.957800 Si / 1000 Ang^3
#
#
#
# Elastic Constant Matrix: (Units=GPa)
#
#
# Indices 1 2 3 4 5 6 
#
# 1 52.6717 28.4460 33.0591 0.0000 0.0000 0.0001
# 2 28.4460 52.6717 33.0591 0.0000 0.0000 -0.0001
# 3 33.0591 33.0591 121.9757 0.0000 0.0000 0.0000
# 4 0.0000 0.0000 0.0000 25.3951 0.0000 0.0000
# 5 0.0000 0.0000 0.0000 0.0000 25.3951 0.0000
# 6 0.0001 -0.0001 0.0000 0.0000 0.0000 25.7979
#
#
#
# Elastic Compliance Matrix: (Units=1/GPa)
#
#
# Indices 1 2 3 4 5 6 
#
# 1 0.028551 -0.012728 -0.004289 0.000000 0.000000 0.000000
# 2 -0.012728 0.028551 -0.004289 0.000000 0.000000 0.000000
# 3 -0.004289 -0.004289 0.010523 0.000000 0.000000 0.000000
# 4 0.000000 0.000000 0.000000 0.039378 0.000000 0.000000
# 5 0.000000 0.000000 0.000000 0.000000 0.039378 0.000000
# 6 0.000000 0.000000 0.000000 0.000000 0.000000 0.038763
#
#
# Mechanical properties :
#
#
# Convention : Reuss Voigt Hill
#
# Bulk Modulus (GPa) = 39.97549 46.27196 43.12372
# Shear Modulus (GPa) = 21.17826 24.16796 22.67311
#
# Velocity S-wave (km/s) = 3.26107 3.48365 3.37419
# Velocity P-wave (km/s) = 5.85260 6.27824 6.06915
#
# Compressibility (1/GPa) = 0.02501533
#
# Stress axis : x y z
#
# Youngs Moduli (GPa) = 35.02506 35.02506 95.02955
#
# Poissons Ratio (x) = 0.44579 0.40755
# Poissons Ratio (y) = 0.44579 0.40755
# Poissons Ratio (z) = 0.15021 0.15021
#
# Static dielectric constant tensor:
#      x y z
#    x 3.701530 0.000000 0.000000 
#    y 0.000000 3.701530 0.000000 
#    z 0.000000 0.000000 3.566560 
# 
# 
# High freq. dielectric constant tensor:
#      x y z
#    x 1.767100 0.000000 0.000000 
#    y 0.000000 1.767100 0.000000 
#    z 0.000000 0.000000 1.768790 
# 
# From -- ./inp_files/3408.got.cif
#   From: 2010.03.12/outbox.cif.g09.slc.cpg/sg102_2_cif.got.tgz:3408.got - 2010.04.14 01:40:42.
