data_PCOD8306844
_publ_section_title
;
Structure prediction by ZEFSAII (Michael W. Deem and Ramdas Pophale) SiO2 
 PCOD8306844
Probable space group: P 42 N M
;
_chemical_formula_sum "Si O2"
_cell_formula_units_Z 56
_cell_length_a 12.958234
_cell_length_b 12.958234
_cell_length_c 21.187911
_cell_angle_alpha 90.000000
_cell_angle_beta 90.000000
_cell_angle_gamma 90.000000
_cell_volume 3557.785628
_symmetry_space_group_name_H-M "P 42 N M"
_symmetry_group_IT_number 102
_symmetry_cell_setting 'tetragonal'
loop_
_space_group_symop_operation_xyz
x,y,z
1/2-y,1/2+x,1/2+z
-x,-y,z
1/2+y,1/2-x,1/2+z
1/2-x,1/2+y,1/2+z
1/2+x,1/2-y,1/2+z
-y,-x,z
y,x,z
loop_
_atom_site_type_symbol
_atom_site_label
_atom_site_fract_x
_atom_site_fract_y
_atom_site_fract_z
Si Si1 0.331371 0.500000 0.083750
Si Si2 0.919482 0.248019 0.335234
Si Si3 0.782723 0.621999 0.396678
Si Si4 0.260323 0.433227 0.213762
Si Si5 0.433226 0.739678 0.953739
Si Si6 0.419482 0.748018 0.332267
Si Si7 0.782725 0.378000 0.770824
O O1 0.400605 0.599396 0.097598
O O2 0.400606 0.400606 0.069901
O O3 0.260156 0.483324 0.144703
O O4 0.260154 0.516675 0.022798
O O5 0.856206 0.143795 0.321835
O O6 0.846272 0.346273 0.333751
O O7 0.976169 0.237489 0.402231
O O8 0.999964 0.266444 0.277992
O O9 0.671368 0.671368 0.411691
O O10 0.865601 0.654670 0.450302
O O11 0.766442 0.499963 0.389510
O O12 0.828947 0.671052 0.333751
O O13 0.360292 0.360292 0.225367
O O14 0.262512 0.523832 0.265270
O O15 0.154671 0.365603 0.217200
O O16 0.360292 0.639709 0.942135
O O17 0.356206 0.643795 0.345667
O O18 0.671371 0.328630 0.755811
#
# Coordination Sequence:
#
# PCOD8306844 Si02
#       7
#     8   8   8   8   8   8   8
#     4   9  16  26  44  69  94 120 144 171 218 275
#     4  10  19  28  41  63  89 118 151 187 225 259
#     4   8  15  27  42  60  84 116 147 175 214 261
#     4   9  17  29  45  67  93 117 143 176 219 274
#     4   9  17  29  45  67  93 117 143 176 219 274
#     4  10  19  28  41  63  89 118 151 187 225 259
#     4   8  15  27  42  60  84 116 147 175 214 261
#
# _framework density 15.740128
#
# number of rings (size 3 to 8) (size 9 to 14) (size 15 to 20)
#    0.000    3.000    0.000    3.429    0.000    8.571 
#    0.000    0.000    0.000    3.429    0.000    0.000 
#    0.000    2.286    0.000   29.714    0.000    0.000 
#
# Total GULP energy -694032.541496 kJ/mol
# GULP energy per Si atom -12393.438241 kJ/mol
# Density = 1.570430 g / cm^3
# Si number density = 15.740128 Si / 1000 Ang^3
#
#
#
# Elastic Constant Matrix: (Units=GPa)
#
#
# Indices 1 2 3 4 5 6 
#
# 1 110.1435 55.7493 45.5249 0.0000 0.0000 0.0000
# 2 55.7493 110.1435 45.5249 0.0000 0.0000 0.0000
# 3 45.5249 45.5249 94.4252 0.0000 0.0000 0.0000
# 4 0.0000 0.0000 0.0000 23.9547 0.0000 0.0000
# 5 0.0000 0.0000 0.0000 0.0000 23.9547 0.0000
# 6 0.0000 0.0000 0.0000 0.0000 0.0000 17.7098
#
#
#
# Elastic Compliance Matrix: (Units=1/GPa)
#
#
# Indices 1 2 3 4 5 6 
#
# 1 0.013291 -0.005094 -0.003952 0.000000 0.000000 0.000000
# 2 -0.005094 0.013291 -0.003952 0.000000 0.000000 0.000000
# 3 -0.003952 -0.003952 0.014401 0.000000 0.000000 0.000000
# 4 0.000000 0.000000 0.000000 0.041746 0.000000 0.000000
# 5 0.000000 0.000000 0.000000 0.000000 0.041746 0.000000
# 6 0.000000 0.000000 0.000000 0.000000 0.000000 0.056466
#
#
# Mechanical properties :
#
#
# Convention : Reuss Voigt Hill
#
# Bulk Modulus (GPa) = 66.72374 67.59004 67.15689
# Shear Modulus (GPa) = 23.59265 24.31804 23.95534
#
# Velocity S-wave (km/s) = 3.87574 3.93488 3.90542
# Velocity P-wave (km/s) = 7.90642 7.97990 7.94324
#
# Compressibility (1/GPa) = 0.01498717
#
# Stress axis : x y z
#
# Youngs Moduli (GPa) = 75.24074 75.24074 69.43898
#
# Poissons Ratio (x) = 0.38325 0.27442
# Poissons Ratio (y) = 0.38325 0.27442
# Poissons Ratio (z) = 0.29735 0.29735
#
# Static dielectric constant tensor:
#      x y z
#    x 3.123050 0.000000 0.000000 
#    y 0.000000 3.123050 0.000000 
#    z 0.000000 0.000000 2.983050 
# 
# 
# High freq. dielectric constant tensor:
#      x y z
#    x 1.602090 0.000000 0.000000 
#    y 0.000000 1.602090 0.000000 
#    z 0.000000 0.000000 1.572070 
# 
# From -- ./inp_files/3330.got.cif
#   From: 2010.03.12/outbox.cif.g09.slc.cpg/sg102_2_cif.got.tgz:3330.got - 2010.04.14 01:40:42.
