data_PCOD8306575
_publ_section_title
;
Structure prediction by ZEFSAII (Michael W. Deem and Ramdas Pophale) SiO2 
 PCOD8306575
Probable space group: P 4 M M
;
_chemical_formula_sum "Si O2"
_cell_formula_units_Z 64
_cell_length_a 13.709135
_cell_length_b 13.709135
_cell_length_c 20.431447
_cell_angle_alpha 90.000000
_cell_angle_beta 90.000000
_cell_angle_gamma 90.000000
_cell_volume 3839.893963
_symmetry_space_group_name_H-M "P 4 M M"
_symmetry_group_IT_number 99
_symmetry_cell_setting 'tetragonal'
loop_
_space_group_symop_operation_xyz
x,y,z
-y,x,z
-x,-y,z
y,-x,z
-x,y,z
x,-y,z
-y,-x,z
y,x,z
loop_
_atom_site_type_symbol
_atom_site_label
_atom_site_fract_x
_atom_site_fract_y
_atom_site_fract_z
Si Si1 0.390593 0.115351 0.949730
Si Si2 0.613041 0.772385 0.182824
Si Si3 0.613041 0.772385 0.716637
Si Si4 0.107101 0.383794 0.449731
Si Si5 0.274284 0.115026 0.077675
Si Si6 0.274284 0.884974 0.821785
Si Si7 0.388901 0.233629 0.568720
Si Si8 0.388901 0.766372 0.330741
O O1 0.500000 0.160734 0.949730
O O2 0.331985 0.150399 0.886080
O O3 0.399165 0.000000 0.949730
O O4 0.331985 0.150398 0.013380
O O5 0.500000 0.753902 0.164901
O O6 0.671431 0.671431 0.170619
O O7 0.657587 0.858785 0.139212
O O8 0.624140 0.809016 0.257661
O O9 0.500000 0.753902 0.734559
O O10 0.671431 0.671431 0.728841
O O11 0.657587 0.858786 0.760248
O O12 0.624140 0.809015 0.641800
O O13 0.101838 0.500000 0.449731
O O14 0.158840 0.345302 0.515650
O O15 0.158838 0.345303 0.383810
O O16 0.000000 0.337544 0.449731
O O17 0.171202 0.171202 0.081220
O O18 0.252130 0.000000 0.077349
O O19 0.171203 0.828798 0.818239
O O20 0.252130 0.000000 0.822111
O O21 0.500000 0.256353 0.552250
O O22 0.336351 0.336351 0.561757
O O23 0.500000 0.743647 0.347210
O O24 0.336349 0.663652 0.337705
#
# Coordination Sequence:
#
# PCOD8306575 Si02
#       8
#     8   8   8   8   8   8   8   8
#     4   9  17  30  49  71  93 119 151 187 230 279
#     4   9  18  31  47  69  95 123 156 193 235 285
#     4   9  18  31  47  69  95 123 156 193 235 285
#     4   9  17  28  41  59  85 117 151 185 221 262
#     4  10  20  33  49  70  96 126 162 202 241 282
#     4  10  20  33  49  70  96 126 162 202 241 282
#     4   9  17  29  45  66  92 119 148 184 226 276
#     4   9  17  29  45  66  92 119 148 184 226 276
#
# _framework density 16.667126
#
# number of rings (size 3 to 8) (size 9 to 14) (size 15 to 20)
#    0.000    2.750    0.000    1.500    0.000    3.250 
#    0.000    5.000    0.000    4.500    0.000    0.000 
#    0.000   13.000    0.000    0.000    0.000    0.750 
#
# Total GULP energy -793456.422018 kJ/mol
# GULP energy per Si atom -12397.756594 kJ/mol
# Density = 1.662919 g / cm^3
# Si number density = 16.667126 Si / 1000 Ang^3
#
#
#
# Elastic Constant Matrix: (Units=GPa)
#
#
# Indices 1 2 3 4 5 6 
#
# 1 89.5587 40.3891 53.5923 0.0000 0.0000 -0.0002
# 2 40.3891 89.5587 53.5923 0.0000 0.0000 0.0002
# 3 53.5923 53.5923 124.4859 0.0000 0.0000 0.0000
# 4 0.0000 0.0000 0.0000 25.8695 0.0000 0.0000
# 5 0.0000 0.0000 0.0000 0.0000 25.8695 0.0000
# 6 -0.0002 0.0002 0.0000 0.0000 0.0000 13.4579
#
#
#
# Elastic Compliance Matrix: (Units=1/GPa)
#
#
# Indices 1 2 3 4 5 6 
#
# 1 0.016135 -0.004203 -0.005137 0.000000 0.000000 0.000000
# 2 -0.004203 0.016135 -0.005137 0.000000 0.000000 0.000000
# 3 -0.005137 -0.005137 0.012456 0.000000 0.000000 0.000000
# 4 0.000000 0.000000 0.000000 0.038656 0.000000 0.000000
# 5 0.000000 0.000000 0.000000 0.000000 0.038656 0.000000
# 6 0.000000 0.000000 0.000000 0.000000 0.000000 0.074306
#
#
# Mechanical properties :
#
#
# Convention : Reuss Voigt Hill
#
# Bulk Modulus (GPa) = 63.39943 66.52787 64.96365
# Shear Modulus (GPa) = 21.68684 23.44135 22.56409
#
# Velocity S-wave (km/s) = 3.61109 3.75432 3.68341
# Velocity P-wave (km/s) = 7.45036 7.66783 7.55987
#
# Compressibility (1/GPa) = 0.01577301
#
# Stress axis : x y z
#
# Youngs Moduli (GPa) = 61.97637 61.97637 80.28143
#
# Poissons Ratio (x) = 0.26046 0.41241
# Poissons Ratio (y) = 0.26046 0.41241
# Poissons Ratio (z) = 0.31838 0.31838
#
# Static dielectric constant tensor:
#      x y z
#    x 3.004020 0.000000 0.000000 
#    y 0.000000 3.004020 0.000000 
#    z 0.000000 0.000000 3.420610 
# 
# 
# High freq. dielectric constant tensor:
#      x y z
#    x 1.624730 0.000000 0.000000 
#    y 0.000000 1.624730 0.000000 
#    z 0.000000 0.000000 1.660540 
# 
# From -- ./inp_files/2317.got.cif
#   From: 2010.03.12/outbox.cif.g09.slc.cpg/sg99_cif.got.tgz:2317.got - 2010.04.08 21:11:30.
