data_PCOD8306861
_publ_section_title
;
Structure prediction by ZEFSAII (Michael W. Deem and Ramdas Pophale) SiO2 
 PCOD8306861
Probable space group: P 42 N M
;
_chemical_formula_sum "Si O2"
_cell_formula_units_Z 64
_cell_length_a 12.072407
_cell_length_b 12.072407
_cell_length_c 23.517802
_cell_angle_alpha 90.000000
_cell_angle_beta 90.000000
_cell_angle_gamma 90.000000
_cell_volume 3427.555270
_symmetry_space_group_name_H-M "P 42 N M"
_symmetry_group_IT_number 102
_symmetry_cell_setting 'tetragonal'
loop_
_space_group_symop_operation_xyz
x,y,z
1/2-y,1/2+x,1/2+z
-x,-y,z
1/2+y,1/2-x,1/2+z
1/2-x,1/2+y,1/2+z
1/2+x,1/2-y,1/2+z
-y,-x,z
y,x,z
loop_
_atom_site_type_symbol
_atom_site_label
_atom_site_fract_x
_atom_site_fract_y
_atom_site_fract_z
Si Si1 0.421393 0.248725 0.418740
Si Si2 0.937135 0.760028 0.407998
Si Si3 0.679870 0.858219 0.591405
Si Si4 0.058166 0.763160 0.523890
Si Si5 0.974502 0.623360 0.012144
Si Si6 0.874165 0.483075 0.802673
Si Si7 0.433414 0.253677 0.288782
Si Si8 0.362412 0.816554 0.221466
O O1 0.366834 0.366834 0.435055
O O2 0.328538 0.154781 0.426160
O O3 0.517828 0.215511 0.462396
O O4 0.469178 0.255574 0.355093
O O5 0.877180 0.877180 0.394565
O O6 0.002371 0.714633 0.352780
O O7 0.025952 0.775163 0.457794
O O8 0.739352 0.739352 0.586502
O O9 0.559655 0.849202 0.562717
O O10 0.662006 0.894568 0.656331
O O11 0.760021 0.948072 0.561954
O O12 0.132582 0.867419 0.542436
O O13 0.128041 0.650782 0.534843
O O14 0.000000 0.500000 0.987819
O O15 0.863231 0.358517 0.778051
O O16 0.847980 0.565944 0.751712
O O17 0.000000 0.500000 0.825777
O O18 0.358017 0.358017 0.272635
O O19 0.542217 0.257729 0.250339
O O20 0.247250 0.752751 0.226683
#
# Coordination Sequence:
#
# PCOD8306861 Si02
#       8
#     8   8   8   8   8   8   8   8
#     4   9  16  30  53  79 104 139 184 224 262 315
#     4  10  19  32  52  80 114 148 180 218 270 333
#     4  10  21  39  60  79 102 145 192 227 268 326
#     4  11  24  35  50  83 118 143 175 225 284 334
#     4  10  19  31  56  80 106 136 181 227 274 318
#     4   9  19  32  55  80 108 143 187 231 274 315
#     4   9  19  33  53  80 108 144 187 224 266 323
#     4  10  22  37  55  81 112 143 181 228 278 326
#
# _framework density 18.672201999999999
#
# number of rings (size 3 to 8) (size 9 to 14) (size 15 to 20)
#    0.000    2.250    2.500    1.875    5.250    6.750 
#    0.000    1.250    0.000    4.125    0.000    3.500 
#    0.000    0.000    0.000    0.000    0.000    0.000 
#
# Total GULP energy -793532.180942 kJ/mol
# GULP energy per Si atom -12398.940327 kJ/mol
# Density = 1.862970 g / cm^3
# Si number density = 18.672202 Si / 1000 Ang^3
#
#
#
# Elastic Constant Matrix: (Units=GPa)
#
#
# Indices 1 2 3 4 5 6 
#
# 1 57.3356 29.3089 42.6598 0.0000 0.0000 0.0002
# 2 29.3089 57.3356 42.6598 0.0000 0.0000 -0.0002
# 3 42.6598 42.6598 117.2160 0.0000 0.0000 0.0000
# 4 0.0000 0.0000 0.0000 20.2397 0.0000 0.0000
# 5 0.0000 0.0000 0.0000 0.0000 20.2397 0.0000
# 6 0.0002 -0.0002 0.0000 0.0000 0.0000 26.6193
#
#
#
# Elastic Compliance Matrix: (Units=1/GPa)
#
#
# Indices 1 2 3 4 5 6 
#
# 1 0.026834 -0.008846 -0.006547 0.000000 0.000000 0.000000
# 2 -0.008846 0.026834 -0.006547 0.000000 0.000000 0.000000
# 3 -0.006547 -0.006547 0.013296 0.000000 0.000000 0.000000
# 4 0.000000 0.000000 0.000000 0.049408 0.000000 0.000000
# 5 0.000000 0.000000 0.000000 0.000000 0.049408 0.000000
# 6 0.000000 0.000000 0.000000 0.000000 0.000000 0.037567
#
#
# Mechanical properties :
#
#
# Convention : Reuss Voigt Hill
#
# Bulk Modulus (GPa) = 43.31641 51.23823 47.27732
# Shear Modulus (GPa) = 19.61396 21.23699 20.42547
#
# Velocity S-wave (km/s) = 3.24456 3.37613 3.31100
# Velocity P-wave (km/s) = 6.10614 6.53439 6.32389
#
# Compressibility (1/GPa) = 0.02308594
#
# Stress axis : x y z
#
# Youngs Moduli (GPa) = 37.26615 37.26615 75.20854
#
# Poissons Ratio (x) = 0.32966 0.49235
# Poissons Ratio (y) = 0.32966 0.49235
# Poissons Ratio (z) = 0.24396 0.24396
#
# Static dielectric constant tensor:
#      x y z
#    x 3.379270 0.000000 0.000000 
#    y 0.000000 3.379270 0.000000 
#    z 0.000000 0.000000 3.393640 
# 
# 
# High freq. dielectric constant tensor:
#      x y z
#    x 1.711240 0.000000 0.000000 
#    y 0.000000 1.711240 0.000000 
#    z 0.000000 0.000000 1.716810 
# 
# From -- ./inp_files/3392.got.cif
#   From: 2010.03.12/outbox.cif.g09.slc.cpg/sg102_2_cif.got.tgz:3392.got - 2010.04.14 01:40:42.
