data_PCOD8306477
_publ_section_title
;
Structure prediction by ZEFSAII (Michael W. Deem and Ramdas Pophale) SiO2 
 PCOD8306477
Probable space group: P 4 M M
;
_chemical_formula_sum "Si O2"
_cell_formula_units_Z 64
_cell_length_a 13.937278
_cell_length_b 13.937278
_cell_length_c 20.304568
_cell_angle_alpha 90.000000
_cell_angle_beta 90.000000
_cell_angle_gamma 90.000000
_cell_volume 3944.116000
_symmetry_space_group_name_H-M "P 4 M M"
_symmetry_group_IT_number 99
_symmetry_cell_setting 'tetragonal'
loop_
_space_group_symop_operation_xyz
x,y,z
-y,x,z
-x,-y,z
y,-x,z
-x,y,z
x,-y,z
-y,-x,z
y,x,z
loop_
_atom_site_type_symbol
_atom_site_label
_atom_site_fract_x
_atom_site_fract_y
_atom_site_fract_z
Si Si1 0.729799 0.887249 0.444070
Si Si2 0.609404 0.110404 0.315477
Si Si3 0.888222 0.390251 0.813205
Si Si4 0.767094 0.387968 0.189132
Si Si5 0.112786 0.732872 0.936995
Si Si6 0.389308 0.110445 0.063434
Si Si7 0.231918 0.388206 0.543346
Si Si8 0.237400 0.390790 0.692738
O O1 0.830248 0.830248 0.448506
O O2 0.679923 0.863964 0.374838
O O3 0.656452 0.853548 0.500497
O O4 0.750888 0.000000 0.452853
O O5 0.500000 0.133250 0.336863
O O6 0.641018 0.173016 0.253385
O O7 0.619202 0.000000 0.294551
O O8 0.861878 0.500000 0.829762
O O9 0.851386 0.325807 0.873391
O O10 0.841607 0.355339 0.744843
O O11 0.000000 0.376969 0.802945
O O12 0.743730 0.500000 0.187909
O O13 0.666446 0.333555 0.189618
O O14 0.827612 0.356325 0.125644
O O15 0.165084 0.834917 0.938875
O O16 0.000000 0.752884 0.934579
O O17 0.142237 0.672251 0.000844
O O18 0.500000 0.128321 0.045567
O O19 0.371265 0.000000 0.081719
O O20 0.247989 0.500000 0.525495
O O21 0.331898 0.331898 0.529918
O O22 0.198122 0.375224 0.618850
O O23 0.264853 0.500000 0.705190
O O24 0.334774 0.334774 0.705064
#
# Coordination Sequence:
#
# PCOD8306477 Si02
#       8
#     8   8   8   8   8   8   8   8
#     4  10  20  33  49  69  93 121 153 190 230 272
#     4   9  17  30  49  71  91 113 145 185 227 266
#     4   9  17  29  45  65  87 112 145 184 222 256
#     4  10  19  30  45  65  91 121 149 178 212 254
#     4  10  19  30  45  64  87 115 144 176 216 262
#     4   9  17  30  48  68  87 108 140 183 225 260
#     4   9  18  31  47  69  95 122 153 187 225 270
#     4   9  17  29  45  66  92 119 146 178 216 261
#
# _framework density 16.226704000000002
#
# number of rings (size 3 to 8) (size 9 to 14) (size 15 to 20)
#    0.000    2.625    0.000    2.250    0.000    4.875 
#    0.000    2.500    0.000    0.000    0.000    1.750 
#    0.000   21.000    0.000    0.000    0.000    0.000 
#
# Total GULP energy -793607.522896 kJ/mol
# GULP energy per Si atom -12400.117545 kJ/mol
# Density = 1.618977 g / cm^3
# Si number density = 16.226704 Si / 1000 Ang^3
#
#
#
# Elastic Constant Matrix: (Units=GPa)
#
#
# Indices 1 2 3 4 5 6 
#
# 1 80.9306 53.2861 60.9667 0.0000 0.0000 0.0003
# 2 53.2861 80.9306 60.9667 0.0000 0.0000 -0.0003
# 3 60.9667 60.9667 123.7188 0.0000 0.0000 0.0000
# 4 0.0000 0.0000 0.0000 24.2271 0.0000 0.0000
# 5 0.0000 0.0000 0.0000 0.0000 24.2271 0.0000
# 6 0.0003 -0.0003 0.0000 0.0000 0.0000 27.0171
#
#
#
# Elastic Compliance Matrix: (Units=1/GPa)
#
#
# Indices 1 2 3 4 5 6 
#
# 1 0.024832 -0.011342 -0.006648 0.000000 0.000000 0.000000
# 2 -0.011342 0.024832 -0.006648 0.000000 0.000000 0.000000
# 3 -0.006648 -0.006648 0.014634 0.000000 0.000000 0.000000
# 4 0.000000 0.000000 0.000000 0.041276 0.000000 0.000000
# 5 0.000000 0.000000 0.000000 0.000000 0.041276 0.000000
# 6 0.000000 0.000000 0.000000 0.000000 0.000000 0.037014
#
#
# Mechanical properties :
#
#
# Convention : Reuss Voigt Hill
#
# Bulk Modulus (GPa) = 66.56084 70.66877 68.61480
# Shear Modulus (GPa) = 20.99557 22.45164 21.72360
#
# Velocity S-wave (km/s) = 3.60097 3.72374 3.66287
# Velocity P-wave (km/s) = 7.64184 7.88250 7.76310
#
# Compressibility (1/GPa) = 0.01502385
#
# Stress axis : x y z
#
# Youngs Moduli (GPa) = 40.27117 40.27117 68.33181
#
# Poissons Ratio (x) = 0.45675 0.45424
# Poissons Ratio (y) = 0.45675 0.45424
# Poissons Ratio (z) = 0.26771 0.26771
#
# Static dielectric constant tensor:
#      x y z
#    x 2.958600 0.000000 0.000000 
#    y 0.000000 2.958600 0.000000 
#    z 0.000000 0.000000 3.258310 
# 
# 
# High freq. dielectric constant tensor:
#      x y z
#    x 1.615460 0.000000 0.000000 
#    y 0.000000 1.615460 0.000000 
#    z 0.000000 0.000000 1.637780 
# 
# From -- ./inp_files/2099.got.cif
#   From: 2010.03.12/outbox.cif.g09.slc.cpg/sg99_cif.got.tgz:2099.got - 2010.04.08 21:11:30.
