data_PCOD8306497
_publ_section_title
;
Structure prediction by ZEFSAII (Michael W. Deem and Ramdas Pophale) SiO2 
 PCOD8306497
Probable space group: P 4 M M
;
_chemical_formula_sum "Si O2"
_cell_formula_units_Z 64
_cell_length_a 13.692504
_cell_length_b 13.692504
_cell_length_c 20.628863
_cell_angle_alpha 90.000000
_cell_angle_beta 90.000000
_cell_angle_gamma 90.000000
_cell_volume 3867.595485
_symmetry_space_group_name_H-M "P 4 M M"
_symmetry_group_IT_number 99
_symmetry_cell_setting 'tetragonal'
loop_
_space_group_symop_operation_xyz
x,y,z
-y,x,z
-x,-y,z
y,-x,z
-x,y,z
x,-y,z
-y,-x,z
y,x,z
loop_
_atom_site_type_symbol
_atom_site_label
_atom_site_fract_x
_atom_site_fract_y
_atom_site_fract_z
Si Si1 0.727843 0.884626 0.107340
Si Si2 0.884631 0.609025 0.232612
Si Si3 0.270384 0.887261 0.862182
Si Si4 0.225726 0.384333 0.468340
Si Si5 0.392028 0.115760 0.982973
Si Si6 0.385750 0.109896 0.595185
Si Si7 0.731496 0.887987 0.718076
Si Si8 0.115841 0.724842 0.359541
O O1 0.832339 0.832339 0.112767
O O2 0.659362 0.850220 0.166327
O O3 0.747779 0.000000 0.108691
O O4 0.675484 0.848787 0.041813
O O5 0.838606 0.500000 0.237222
O O6 0.850509 0.675047 0.292605
O O7 0.000000 0.599501 0.233447
O O8 0.169279 0.830722 0.871404
O O9 0.348627 0.848621 0.914306
O O10 0.314157 0.870301 0.789855
O O11 0.245334 0.000000 0.874811
O O12 0.243748 0.500000 0.461765
O O13 0.328561 0.328561 0.458442
O O14 0.182345 0.354577 0.538015
O O15 0.146302 0.350128 0.415842
O O16 0.500000 0.161579 0.990419
O O17 0.399599 0.000000 0.984886
O O18 0.500000 0.109790 0.604401
O O19 0.342841 0.148806 0.663122
O O20 0.348854 0.000000 0.579114
O O21 0.832908 0.832908 0.710222
O O22 0.757633 0.000000 0.707821
O O23 0.171918 0.828083 0.367042
O O24 0.000000 0.744909 0.362587
#
# Coordination Sequence:
#
# PCOD8306497 Si02
#       8
#     8   8   8   8   8   8   8   8
#     4  10  19  30  45  66  93 123 153 185 223 270
#     4   9  17  30  48  68  91 121 156 192 227 262
#     4   9  17  28  42  62  88 117 147 178 214 260
#     4  10  20  33  50  71  94 122 156 195 240 286
#     4   9  17  29  44  61  83 112 145 183 225 263
#     4   9  17  29  46  67  89 115 149 188 231 277
#     4   9  17  28  42  61  87 118 149 181 216 257
#     4  10  20  33  50  73 100 129 160 193 230 275
#
# _framework density 16.547747999999999
#
# number of rings (size 3 to 8) (size 9 to 14) (size 15 to 20)
#    0.000    2.625    0.000    2.250    0.000    3.875 
#    0.000    3.750    0.000    4.500    0.000    1.750 
#    0.000   19.750    0.000    9.250    0.000    0.750 
#
# Total GULP energy -793424.475503 kJ/mol
# GULP energy per Si atom -12397.257430 kJ/mol
# Density = 1.651008 g / cm^3
# Si number density = 16.547748 Si / 1000 Ang^3
#
#
#
# Elastic Constant Matrix: (Units=GPa)
#
#
# Indices 1 2 3 4 5 6 
#
# 1 71.3868 38.7781 43.3164 0.0000 0.0000 0.0002
# 2 38.7781 71.3868 43.3164 0.0000 0.0000 -0.0002
# 3 43.3164 43.3164 130.9531 0.0000 0.0000 0.0000
# 4 0.0000 0.0000 0.0000 23.5756 0.0000 0.0000
# 5 0.0000 0.0000 0.0000 0.0000 23.5756 0.0000
# 6 0.0002 -0.0002 0.0000 0.0000 0.0000 13.7474
#
#
#
# Elastic Compliance Matrix: (Units=1/GPa)
#
#
# Indices 1 2 3 4 5 6 
#
# 1 0.021468 -0.009199 -0.004058 0.000000 0.000000 0.000000
# 2 -0.009199 0.021468 -0.004058 0.000000 0.000000 0.000000
# 3 -0.004058 -0.004058 0.010321 0.000000 0.000000 0.000000
# 4 0.000000 0.000000 0.000000 0.042417 0.000000 0.000000
# 5 0.000000 0.000000 0.000000 0.000000 0.042417 0.000000
# 6 0.000000 0.000000 0.000000 0.000000 0.000000 0.072741
#
#
# Mechanical properties :
#
#
# Convention : Reuss Voigt Hill
#
# Bulk Modulus (GPa) = 53.68973 58.28316 55.98645
# Shear Modulus (GPa) = 19.86729 22.06744 20.96737
#
# Velocity S-wave (km/s) = 3.46873 3.65576 3.56347
# Velocity P-wave (km/s) = 6.96840 7.28815 7.13007
#
# Compressibility (1/GPa) = 0.01862554
#
# Stress axis : x y z
#
# Youngs Moduli (GPa) = 46.58177 46.58177 96.88946
#
# Poissons Ratio (x) = 0.42851 0.39320
# Poissons Ratio (y) = 0.42851 0.39320
# Poissons Ratio (z) = 0.18904 0.18904
#
# Static dielectric constant tensor:
#      x y z
#    x 2.963850 0.000000 0.000000 
#    y 0.000000 2.963850 0.000000 
#    z 0.000000 0.000000 3.449150 
# 
# 
# High freq. dielectric constant tensor:
#      x y z
#    x 1.616760 0.000000 0.000000 
#    y 0.000000 1.616760 0.000000 
#    z 0.000000 0.000000 1.658870 
# 
# From -- ./inp_files/2043.got.cif
#   From: 2010.03.12/outbox.cif.g09.slc.cpg/sg99_cif.got.tgz:2043.got - 2010.04.08 21:11:30.
