data_PCOD8306903
_publ_section_title
;
Structure prediction by ZEFSAII (Michael W. Deem and Ramdas Pophale) SiO2 
 PCOD8306903
Probable space group: P 42 N M
;
_chemical_formula_sum "Si O2"
_cell_formula_units_Z 48
_cell_length_a 12.215744
_cell_length_b 12.215744
_cell_length_c 17.853596
_cell_angle_alpha 90.000000
_cell_angle_beta 90.000000
_cell_angle_gamma 90.000000
_cell_volume 2664.192177
_symmetry_space_group_name_H-M "P 42 N M"
_symmetry_group_IT_number 102
_symmetry_cell_setting 'tetragonal'
loop_
_space_group_symop_operation_xyz
x,y,z
1/2-y,1/2+x,1/2+z
-x,-y,z
1/2+y,1/2-x,1/2+z
1/2-x,1/2+y,1/2+z
1/2+x,1/2-y,1/2+z
-y,-x,z
y,x,z
loop_
_atom_site_type_symbol
_atom_site_label
_atom_site_fract_x
_atom_site_fract_y
_atom_site_fract_z
Si Si1 0.539437 0.839010 0.130080
Si Si2 0.004232 0.826060 0.512437
Si Si3 0.349592 0.831097 0.936664
Si Si4 0.666593 0.040973 0.084340
Si Si5 0.077489 0.396221 0.280481
Si Si6 0.321614 0.497210 0.713040
O O1 0.548302 0.721213 0.091165
O O2 0.412534 0.876972 0.130656
O O3 0.589388 0.833395 0.213823
O O4 0.609441 0.922913 0.079023
O O5 0.101452 0.898549 0.475090
O O6 0.964580 0.728320 0.457963
O O7 0.900714 0.900714 0.532080
O O8 0.257084 0.742917 0.921662
O O9 0.364859 0.898931 0.860729
O O10 0.311324 0.914388 0.001119
O O11 0.780355 0.031373 0.129243
O O12 0.000000 0.500000 0.273669
O O13 0.012915 0.281635 0.268719
O O14 0.391089 0.608912 0.710795
O O15 0.397352 0.397352 0.742400
#
# Coordination Sequence:
#
# PCOD8306903 Si02
#       6
#     8   8   8   8   8   8
#     4   9  17  33  53  80  99 139 184 228 262 307
#     4   9  19  34  53  79 109 142 179 223 274 323
#     4  10  21  33  54  79 108 145 177 220 270 326
#     4   9  17  34  54  79 102 137 182 223 268 315
#     4  11  21  36  54  80 112 147 181 223 268 327
#     4  10  20  35  58  84 110 141 180 231 281 323
#
# _framework density 18.016717
#
# number of rings (size 3 to 8) (size 9 to 14) (size 15 to 20)
#    0.000    2.333    3.333    1.000    4.667    4.667 
#    0.000    1.667    0.000    1.000    0.000    2.333 
#    0.000    0.000    0.000    0.000    0.000    0.000 
#
# Total GULP energy -594990.085730 kJ/mol
# GULP energy per Si atom -12395.626786 kJ/mol
# Density = 1.797571 g / cm^3
# Si number density = 18.016717 Si / 1000 Ang^3
#
#
#
# Elastic Constant Matrix: (Units=GPa)
#
#
# Indices 1 2 3 4 5 6 
#
# 1 67.8350 16.9827 18.7970 0.0000 0.0000 0.0000
# 2 16.9827 67.8350 18.7970 0.0000 0.0000 0.0000
# 3 18.7970 18.7970 108.3226 0.0000 0.0000 0.0000
# 4 0.0000 0.0000 0.0000 16.8380 0.0000 0.0000
# 5 0.0000 0.0000 0.0000 0.0000 16.8380 0.0000
# 6 0.0000 0.0000 0.0000 0.0000 0.0000 17.5570
#
#
#
# Elastic Compliance Matrix: (Units=1/GPa)
#
#
# Indices 1 2 3 4 5 6 
#
# 1 0.016219 -0.003446 -0.002216 0.000000 0.000000 0.000000
# 2 -0.003446 0.016219 -0.002216 0.000000 0.000000 0.000000
# 3 -0.002216 -0.002216 0.010001 0.000000 0.000000 0.000000
# 4 0.000000 0.000000 0.000000 0.059389 0.000000 0.000000
# 5 0.000000 0.000000 0.000000 0.000000 0.059389 0.000000
# 6 0.000000 0.000000 0.000000 0.000000 0.000000 0.056957
#
#
# Mechanical properties :
#
#
# Convention : Reuss Voigt Hill
#
# Bulk Modulus (GPa) = 37.48102 39.23843 38.35972
# Shear Modulus (GPa) = 20.59093 22.87434 21.73264
#
# Velocity S-wave (km/s) = 3.38432 3.56704 3.47688
# Velocity P-wave (km/s) = 6.01000 6.22826 6.12010
#
# Compressibility (1/GPa) = 0.02668017
#
# Stress axis : x y z
#
# Youngs Moduli (GPa) = 61.65772 61.65772 99.99115
#
# Poissons Ratio (x) = 0.21249 0.22162
# Poissons Ratio (y) = 0.21249 0.22162
# Poissons Ratio (z) = 0.13666 0.13666
#
# Static dielectric constant tensor:
#      x y z
#    x 3.331060 0.000000 0.000000 
#    y 0.000000 3.331060 0.000000 
#    z 0.000000 0.000000 3.368090 
# 
# 
# High freq. dielectric constant tensor:
#      x y z
#    x 1.690750 0.000000 0.000000 
#    y 0.000000 1.690750 0.000000 
#    z 0.000000 0.000000 1.684260 
# 
# From -- ./inp_files/2723.got.cif
#   From: 2010.03.12/outbox.cif.g09.slc.cpg/sg102_2_cif.got.tgz:2723.got - 2010.04.14 01:40:42.
