data_PCOD8306626
_publ_section_title
;
Structure prediction by ZEFSAII (Michael W. Deem and Ramdas Pophale) SiO2 
 PCOD8306626
Probable space group: P 4 B M
;
_chemical_formula_sum "Si O2"
_cell_formula_units_Z 64
_cell_length_a 16.361578
_cell_length_b 16.361578
_cell_length_c 13.395276
_cell_angle_alpha 90.000000
_cell_angle_beta 90.000000
_cell_angle_gamma 90.000000
_cell_volume 3585.931924
_symmetry_space_group_name_H-M "P 4 B M"
_symmetry_group_IT_number 100
_symmetry_cell_setting 'tetragonal'
loop_
_space_group_symop_operation_xyz
x,y,z
-y,x,z
-x,-y,z
y,-x,z
1/2-x,1/2+y,z
1/2+x,1/2-y,z
1/2-y,1/2-x,z
1/2+y,1/2+x,z
loop_
_atom_site_type_symbol
_atom_site_label
_atom_site_fract_x
_atom_site_fract_y
_atom_site_fract_z
Si Si1 0.400706 0.772075 0.764560
Si Si2 0.127074 0.039644 0.112423
Si Si3 0.201950 0.567006 0.211380
Si Si4 0.286918 0.526335 0.907386
Si Si5 0.036071 0.670554 0.618164
Si Si6 0.852119 0.222875 0.731621
Si Si7 0.503342 0.127652 0.023635
Si Si8 0.003892 0.367004 0.401641
O O1 0.337484 0.837484 0.811784
O O2 0.438824 0.715545 0.851755
O O3 0.465079 0.824183 0.700422
O O4 0.351018 0.706775 0.696250
O O5 0.203526 0.073034 0.177053
O O6 0.053323 0.101398 0.138519
O O7 0.146098 0.036934 0.993892
O O8 0.156516 0.656516 0.211989
O O9 0.154752 0.505700 0.138196
O O10 0.199039 0.522250 0.318626
O O11 0.305021 0.594698 0.825699
O O12 0.196821 0.531362 0.952383
O O13 0.085154 0.585154 0.631751
O O14 0.094538 0.749015 0.636144
O O15 0.997378 0.677692 0.508661
O O16 0.799530 0.299530 0.770088
O O17 0.449077 0.050924 0.998844
O O18 0.597902 0.097902 0.006916
O O19 0.093898 0.406103 0.383205
O O20 0.938875 0.438875 0.399632
#
# Coordination Sequence:
#
# PCOD8306626 Si02
#       8
#     8   8   8   8   8   8   8   8
#     4  10  19  30  46  70 100 131 165 206 250 295
#     4  10  21  37  54  72  98 135 175 210 246 293
#     4   9  18  33  52  74 101 130 161 204 255 303
#     4  10  18  30  47  68  91 126 171 212 244 285
#     4   9  18  32  50  72 100 132 164 202 249 300
#     4   9  18  31  45  65  97 134 165 198 246 298
#     4   9  16  26  42  67  98 127 154 192 250 313
#     4   9  16  29  52  79 104 129 157 194 246 303
#
# _framework density 17.847522999999999
#
# number of rings (size 3 to 8) (size 9 to 14) (size 15 to 20)
#    0.000    2.625    0.000    2.250    0.000    3.250 
#    0.000    5.000    0.000    4.875    0.000    0.000 
#    0.000    0.000    0.000    0.000    0.000    0.000 
#
# Total GULP energy -792837.740417 kJ/mol
# GULP energy per Si atom -12388.089694 kJ/mol
# Density = 1.780690 g / cm^3
# Si number density = 17.847523 Si / 1000 Ang^3
#
#
#
# Elastic Constant Matrix: (Units=GPa)
#
#
# Indices 1 2 3 4 5 6 
#
# 1 78.8361 42.9893 29.3847 0.0000 0.0000 -0.0002
# 2 42.9893 78.8361 29.3847 0.0000 0.0000 0.0002
# 3 29.3847 29.3847 81.6737 0.0000 0.0000 0.0000
# 4 0.0000 0.0000 0.0000 18.0019 0.0000 0.0000
# 5 0.0000 0.0000 0.0000 0.0000 18.0019 0.0000
# 6 -0.0002 0.0002 0.0000 0.0000 0.0000 24.3933
#
#
#
# Elastic Compliance Matrix: (Units=1/GPa)
#
#
# Indices 1 2 3 4 5 6 
#
# 1 0.018914 -0.008982 -0.003573 0.000000 0.000000 0.000000
# 2 -0.008982 0.018914 -0.003573 0.000000 0.000000 0.000000
# 3 -0.003573 -0.003573 0.014815 0.000000 0.000000 0.000000
# 4 0.000000 0.000000 0.000000 0.055550 0.000000 0.000000
# 5 0.000000 0.000000 0.000000 0.000000 0.055550 0.000000
# 6 0.000000 0.000000 0.000000 0.000000 0.000000 0.040995
#
#
# Mechanical properties :
#
#
# Convention : Reuss Voigt Hill
#
# Bulk Modulus (GPa) = 49.05337 49.20705 49.13021
# Shear Modulus (GPa) = 20.50933 21.25191 20.88062
#
# Velocity S-wave (km/s) = 3.39358 3.45447 3.42416
# Velocity P-wave (km/s) = 6.54977 6.59862 6.57424
#
# Compressibility (1/GPa) = 0.02038596
#
# Stress axis : x y z
#
# Youngs Moduli (GPa) = 52.86969 52.86969 67.49833
#
# Poissons Ratio (x) = 0.47488 0.24120
# Poissons Ratio (y) = 0.47488 0.24120
# Poissons Ratio (z) = 0.18893 0.18893
#
# Static dielectric constant tensor:
#      x y z
#    x 3.241030 0.000000 0.000000 
#    y 0.000000 3.241030 0.000000 
#    z 0.000000 0.000000 3.337140 
# 
# 
# High freq. dielectric constant tensor:
#      x y z
#    x 1.682930 0.000000 0.000000 
#    y 0.000000 1.682930 0.000000 
#    z 0.000000 0.000000 1.674090 
# 
# From -- ./inp_files/1381.got.cif
#   From: 2010.03.12/outbox.cif.g09.slc.cpg/sg100_cif.got.tgz:1381.got - 2010.04.14 01:37:57.
