data_PCOD8306344
_publ_section_title
;
Structure prediction by ZEFSAII (Michael W. Deem and Ramdas Pophale) SiO2 
 PCOD8306344
Probable space group: I 41 2 2
;
_chemical_formula_sum "Si O2"
_cell_formula_units_Z 60
_cell_length_a 15.270474
_cell_length_b 15.270474
_cell_length_c 12.661777
_cell_angle_alpha 90.000000
_cell_angle_beta 90.000000
_cell_angle_gamma 90.000000
_cell_volume 2952.566556
_symmetry_space_group_name_H-M "I 41 2 2"
_symmetry_group_IT_number 98
_symmetry_cell_setting 'tetragonal'
loop_
_space_group_symop_operation_xyz
x,y,z
-y,1/2+x,1/4+z
-x,-y,z
y,1/2-x,1/4+z
x,1/2-y,1/4-z
-x,1/2+y,1/4-z
y,x,-z
-y,-x,-z
1/2+x,1/2+y,1/2+z
1/2-y,x,3/4+z
1/2-x,1/2-y,1/2+z
1/2+y,-x,3/4+z
1/2+x,-y,3/4-z
1/2-x,y,3/4-z
1/2+y,1/2+x,1/2-z
1/2-y,1/2-x,1/2-z
loop_
_atom_site_type_symbol
_atom_site_label
_atom_site_fract_x
_atom_site_fract_y
_atom_site_fract_z
Si Si1 0.182577 0.682577 0.750000
Si Si2 0.390372 0.857514 0.030488
Si Si3 0.500000 0.500000 0.500000
Si Si4 0.963548 0.803125 0.226100
Si Si5 0.654983 0.549776 0.644885
O O1 0.155438 0.618972 0.844682
O O2 0.285533 0.670999 0.721669
O O3 0.489149 0.832824 0.997359
O O4 0.367826 0.957253 0.003502
O O5 0.586613 0.499124 0.570447
O O6 0.996547 0.750000 0.125000
O O7 0.937428 0.743657 0.326831
O O8 0.878402 0.857105 0.187791
#
# Coordination Sequence:
#
# PCOD8306344 Si02
#       5
#     8  16   4  16  16
#     4  10  24  39  67  98 135 163 216 276 348 424
#     4  11  22  41  66  99 134 170 213 280 352 407
#     4  12  20  38  64 102 128 166 220 270 346 398
#     4  12  23  39  67  96 137 174 229 279 338 410
#     4  12  23  41  67  98 134 182 223 285 343 411
#
# _framework density 20.321301999999999
#
# number of rings (size 3 to 8) (size 9 to 14) (size 15 to 20)
#    0.000    0.533    8.000    0.000    3.733    1.067 
#    0.000    2.667   17.600    0.000    0.000    0.000 
#    0.000    0.000    0.000    0.000    0.000    0.000 
#
# Total GULP energy -371915.605430 kJ/mol
# GULP energy per Si atom -12397.186848 kJ/mol
# Density = 2.027505 g / cm^3
# Si number density = 20.321302 Si / 1000 Ang^3
#
#
#
# Elastic Constant Matrix: (Units=GPa)
#
#
# Indices 1 2 3 4 5 6 
#
# 1 94.8294 40.1504 47.3580 0.0000 0.0000 0.0000
# 2 40.1504 94.8294 47.3580 0.0000 0.0000 0.0000
# 3 47.3580 47.3580 132.7253 0.0000 0.0000 0.0000
# 4 0.0000 0.0000 0.0000 41.0734 0.0000 0.0000
# 5 0.0000 0.0000 0.0000 0.0000 41.0734 0.0000
# 6 0.0000 0.0000 0.0000 0.0000 0.0000 30.5816
#
#
#
# Elastic Compliance Matrix: (Units=1/GPa)
#
#
# Indices 1 2 3 4 5 6 
#
# 1 0.014086 -0.004203 -0.003526 0.000000 0.000000 0.000000
# 2 -0.004203 0.014086 -0.003526 0.000000 0.000000 0.000000
# 3 -0.003526 -0.003526 0.010051 0.000000 0.000000 0.000000
# 4 0.000000 0.000000 0.000000 0.024347 0.000000 0.000000
# 5 0.000000 0.000000 0.000000 0.000000 0.024347 0.000000
# 6 0.000000 0.000000 0.000000 0.000000 0.000000 0.032699
#
#
# Mechanical properties :
#
#
# Convention : Reuss Voigt Hill
#
# Bulk Modulus (GPa) = 63.64823 65.79078 64.71951
# Shear Modulus (GPa) = 33.92974 35.04685 34.48830
#
# Velocity S-wave (km/s) = 4.09058 4.15738 4.12412
# Velocity P-wave (km/s) = 7.32799 7.44920 7.38885
#
# Compressibility (1/GPa) = 0.01571136
#
# Stress axis : x y z
#
# Youngs Moduli (GPa) = 70.99355 70.99355 99.49390
#
# Poissons Ratio (x) = 0.29837 0.35085
# Poissons Ratio (y) = 0.29837 0.35085
# Poissons Ratio (z) = 0.25035 0.25035
#
# Static dielectric constant tensor:
#      x y z
#    x 3.735910 0.000000 0.000000 
#    y 0.000000 3.735910 0.000000 
#    z 0.000000 0.000000 3.850160 
# 
# 
# High freq. dielectric constant tensor:
#      x y z
#    x 1.787530 0.000000 0.000000 
#    y 0.000000 1.787530 0.000000 
#    z 0.000000 0.000000 1.799110 
# 
# From -- ./inp_files/6274.got.cif
#   From: 2010.03.12/outbox.cif.g09.slc.cpg/sg98_4_cif.got.tgz:6274.got - 2010.04.08 21:04:41.
