data_PCOD8306425
_publ_section_title
;
Structure prediction by ZEFSAII (Michael W. Deem and Ramdas Pophale) SiO2 
 PCOD8306425
Probable space group: P 4 M M
;
_chemical_formula_sum "Si O2"
_cell_formula_units_Z 64
_cell_length_a 19.374630
_cell_length_b 19.374630
_cell_length_c 10.035861
_cell_angle_alpha 90.000000
_cell_angle_beta 90.000000
_cell_angle_gamma 90.000000
_cell_volume 3767.224245
_symmetry_space_group_name_H-M "P 4 M M"
_symmetry_group_IT_number 99
_symmetry_cell_setting 'tetragonal'
loop_
_space_group_symop_operation_xyz
x,y,z
-y,x,z
-x,-y,z
y,-x,z
-x,y,z
x,-y,z
-y,-x,z
y,x,z
loop_
_atom_site_type_symbol
_atom_site_label
_atom_site_fract_x
_atom_site_fract_y
_atom_site_fract_z
Si Si1 0.418281 0.306405 0.047780
Si Si2 0.699085 0.077803 0.925791
Si Si3 0.925020 0.188225 0.717032
Si Si4 0.132264 0.239886 0.457815
Si Si5 0.244092 0.648654 0.525913
Si Si6 0.659674 0.225541 0.826254
Si Si7 0.797585 0.578357 0.276853
Si Si8 0.322212 0.076956 0.228506
O O1 0.500000 0.320123 0.043436
O O2 0.379920 0.379920 0.059529
O O3 0.395067 0.259637 0.172689
O O4 0.394570 0.267030 0.915020
O O5 0.773369 0.079152 0.857606
O O6 0.658611 0.144881 0.869690
O O7 0.665543 0.000000 0.898706
O O8 0.709349 0.089134 0.082565
O O9 0.873499 0.126502 0.719019
O O10 0.909426 0.241327 0.596618
O O11 0.000000 0.156132 0.694596
O O12 0.163745 0.163745 0.431562
O O13 0.193789 0.293435 0.469473
O O14 0.084111 0.259887 0.333882
O O15 0.322395 0.677606 0.519029
O O16 0.226325 0.629024 0.677300
O O17 0.234191 0.584407 0.426007
O O18 0.735989 0.264012 0.830778
O O19 0.815767 0.500000 0.246622
O O20 0.869210 0.617743 0.258410
O O21 0.353553 0.000000 0.240904
#
# Coordination Sequence:
#
# PCOD8306425 Si02
#       8
#     8   8   8   8   8   8   8   8
#     4  10  21  36  56  80 105 134 166 204 250 299
#     4  10  19  31  48  72 101 133 170 212 256 300
#     4  10  19  31  47  68  96 129 167 211 259 308
#     4   9  17  29  47  72  96 125 166 212 256 297
#     4   9  17  30  50  75 100 129 164 205 253 294
#     4  10  18  32  53  76 104 134 171 214 255 300
#     4  10  20  34  51  74 102 134 169 205 244 295
#     4  10  20  33  49  72 101 133 168 208 255 303
#
# _framework density 16.988634999999999
#
# number of rings (size 3 to 8) (size 9 to 14) (size 15 to 20)
#    0.000    2.250    2.500    1.125    0.000    2.500 
#    0.000    0.000    0.000    0.375    0.000    0.000 
#    0.000    6.000    0.000    0.000    0.000    0.000 
#
# Total GULP energy -793120.378568 kJ/mol
# GULP energy per Si atom -12392.505915 kJ/mol
# Density = 1.694997 g / cm^3
# Si number density = 16.988635 Si / 1000 Ang^3
#
#
#
# Elastic Constant Matrix: (Units=GPa)
#
#
# Indices 1 2 3 4 5 6 
#
# 1 76.6839 38.2080 36.1595 0.0000 0.0000 0.0012
# 2 38.2080 76.6839 36.1595 0.0000 0.0000 -0.0012
# 3 36.1595 36.1595 120.3399 0.0000 0.0000 0.0000
# 4 0.0000 0.0000 0.0000 21.6932 0.0000 0.0000
# 5 0.0000 0.0000 0.0000 0.0000 21.6932 0.0000
# 6 0.0012 -0.0012 0.0000 0.0000 0.0000 13.7403
#
#
#
# Elastic Compliance Matrix: (Units=1/GPa)
#
#
# Indices 1 2 3 4 5 6 
#
# 1 0.018362 -0.007628 -0.003225 0.000000 0.000000 -0.000002
# 2 -0.007628 0.018362 -0.003225 0.000000 0.000000 0.000002
# 3 -0.003225 -0.003225 0.010248 0.000000 0.000000 0.000000
# 4 0.000000 0.000000 0.000000 0.046097 0.000000 0.000000
# 5 0.000000 0.000000 0.000000 0.000000 0.046097 0.000000
# 6 -0.000002 0.000002 0.000000 0.000000 0.000000 0.072779
#
#
# Mechanical properties :
#
#
# Convention : Reuss Voigt Hill
#
# Bulk Modulus (GPa) = 53.14971 54.97353 54.06162
# Shear Modulus (GPa) = 20.29427 22.30407 21.29917
#
# Velocity S-wave (km/s) = 3.46002 3.62730 3.54465
# Velocity P-wave (km/s) = 6.87864 7.06911 6.97453
#
# Compressibility (1/GPa) = 0.01881478
#
# Stress axis : x y z
#
# Youngs Moduli (GPa) = 54.45982 54.45982 97.57924
#
# Poissons Ratio (x) = 0.41543 0.31473
# Poissons Ratio (y) = 0.41543 0.31473
# Poissons Ratio (z) = 0.17565 0.17565
#
# Static dielectric constant tensor:
#      x y z
#    x 3.122940 0.000000 0.000000 
#    y 0.000000 3.122940 0.000000 
#    z 0.000000 0.000000 3.485920 
# 
# 
# High freq. dielectric constant tensor:
#      x y z
#    x 1.638650 0.000000 0.000000 
#    y 0.000000 1.638650 0.000000 
#    z 0.000000 0.000000 1.672820 
# 
# From -- ./inp_files/1203.got.cif
#   From: 2010.03.12/outbox.cif.g09.slc.cpg/sg99_cif.got.tgz:1203.got - 2010.04.08 21:11:30.
