data_PCOD8306617
_publ_section_title
;
Structure prediction by ZEFSAII (Michael W. Deem and Ramdas Pophale) SiO2 
 PCOD8306617
Probable space group: P 4 M M
;
_chemical_formula_sum "Si O2"
_cell_formula_units_Z 64
_cell_length_a 13.409518
_cell_length_b 13.409518
_cell_length_c 20.524951
_cell_angle_alpha 90.000000
_cell_angle_beta 90.000000
_cell_angle_gamma 90.000000
_cell_volume 3690.697615
_symmetry_space_group_name_H-M "P 4 M M"
_symmetry_group_IT_number 99
_symmetry_cell_setting 'tetragonal'
loop_
_space_group_symop_operation_xyz
x,y,z
-y,x,z
-x,-y,z
y,-x,z
-x,y,z
x,-y,z
-y,-x,z
y,x,z
loop_
_atom_site_type_symbol
_atom_site_label
_atom_site_fract_x
_atom_site_fract_y
_atom_site_fract_z
Si Si1 0.113373 0.270661 0.438690
Si Si2 0.278305 0.115646 0.828645
Si Si3 0.616821 0.219704 0.941642
Si Si4 0.117501 0.281119 0.060677
Si Si5 0.729341 0.113373 0.682664
Si Si6 0.115647 0.278305 0.292708
Si Si7 0.219704 0.616821 0.179710
Si Si8 0.390731 0.119090 0.560677
O O1 0.163497 0.163497 0.440853
O O2 0.126974 0.318474 0.366868
O O3 0.160202 0.340009 0.494744
O O4 0.000000 0.249626 0.455478
O O5 0.173803 0.173803 0.839447
O O6 0.363468 0.163560 0.873569
O O7 0.318473 0.126973 0.754486
O O8 0.259549 0.000000 0.846311
O O9 0.500000 0.242294 0.949206
O O10 0.675035 0.324966 0.945282
O O11 0.654061 0.146069 0.997948
O O12 0.175625 0.175625 0.060678
O O13 0.146067 0.345940 0.123405
O O14 0.000000 0.258415 0.060676
O O15 0.836506 0.163495 0.680502
O O16 0.659994 0.160204 0.626610
O O17 0.750374 0.000000 0.665874
O O18 0.173802 0.173802 0.281907
O O19 0.163560 0.363468 0.247784
O O20 0.000000 0.259549 0.275043
O O21 0.242294 0.500000 0.172148
O O22 0.324965 0.675036 0.176069
O O23 0.500000 0.165480 0.560678
O O24 0.394201 0.000000 0.560678
#
# Coordination Sequence:
#
# PCOD8306617 Si02
#       8
#     8   8   8   8   8   8   8   8
#     4   9  17  29  45  66  93 122 152 188 229 277
#     4   9  18  31  47  70  98 127 160 196 236 286
#     4  10  21  36  53  74  99 127 163 206 248 290
#     4  10  21  36  54  78 106 134 165 198 234 282
#     4   9  17  29  45  66  93 122 152 188 229 277
#     4   9  18  31  47  70  98 127 160 196 236 286
#     4  10  21  36  53  74  99 127 163 206 248 290
#     4   9  17  28  41  59  85 117 153 191 229 270
#
# _framework density 17.340893999999999
#
# number of rings (size 3 to 8) (size 9 to 14) (size 15 to 20)
#    0.000    2.625    0.000    1.500    0.000    4.375 
#    0.000    5.000    0.000    9.000    0.000    0.000 
#    0.000    4.000    0.000    0.000    0.000    0.750 
#
# Total GULP energy -793385.628464 kJ/mol
# GULP energy per Si atom -12396.650445 kJ/mol
# Density = 1.730143 g / cm^3
# Si number density = 17.340894 Si / 1000 Ang^3
#
#
#
# Elastic Constant Matrix: (Units=GPa)
#
#
# Indices 1 2 3 4 5 6 
#
# 1 106.2453 46.5872 51.9233 0.0000 0.0000 -0.0002
# 2 46.5872 106.2453 51.9233 0.0000 0.0000 0.0002
# 3 51.9233 51.9233 124.7394 0.0000 0.0000 0.0000
# 4 0.0000 0.0000 0.0000 20.8162 0.0000 0.0000
# 5 0.0000 0.0000 0.0000 0.0000 20.8162 0.0000
# 6 -0.0002 0.0002 0.0000 0.0000 0.0000 10.7755
#
#
#
# Elastic Compliance Matrix: (Units=1/GPa)
#
#
# Indices 1 2 3 4 5 6 
#
# 1 0.012943 -0.003819 -0.003798 0.000000 0.000000 0.000000
# 2 -0.003819 0.012943 -0.003798 0.000000 0.000000 0.000000
# 3 -0.003798 -0.003798 0.011178 0.000000 0.000000 0.000000
# 4 0.000000 0.000000 0.000000 0.048039 0.000000 0.000000
# 5 0.000000 0.000000 0.000000 0.000000 0.048039 0.000000
# 6 0.000000 0.000000 0.000000 0.000000 0.000000 0.092803
#
#
# Mechanical properties :
#
#
# Convention : Reuss Voigt Hill
#
# Bulk Modulus (GPa) = 70.25130 70.89973 70.57551
# Shear Modulus (GPa) = 19.72225 22.93466 21.32846
#
# Velocity S-wave (km/s) = 3.37609 3.64067 3.51087
# Velocity P-wave (km/s) = 7.46975 7.65815 7.56454
#
# Compressibility (1/GPa) = 0.01423461
#
# Stress axis : x y z
#
# Youngs Moduli (GPa) = 77.26251 77.26251 89.45852
#
# Poissons Ratio (x) = 0.29509 0.33974
# Poissons Ratio (y) = 0.29509 0.33974
# Poissons Ratio (z) = 0.29342 0.29342
#
# Static dielectric constant tensor:
#      x y z
#    x 3.064500 0.000000 0.000000 
#    y 0.000000 3.064500 0.000000 
#    z 0.000000 0.000000 3.621590 
# 
# 
# High freq. dielectric constant tensor:
#      x y z
#    x 1.650470 0.000000 0.000000 
#    y 0.000000 1.650470 0.000000 
#    z 0.000000 0.000000 1.694220 
# 
# From -- ./inp_files/2280.got.cif
#   From: 2010.03.12/outbox.cif.g09.slc.cpg/sg99_cif.got.tgz:2280.got - 2010.04.08 21:11:30.
