data_PCOD8306187
_publ_section_title
;
Structure prediction by ZEFSAII (Michael W. Deem and Ramdas Pophale) SiO2 
 PCOD8306187
Probable space group: I 4 2 2 
;
_chemical_formula_sum "Si O2"
_cell_formula_units_Z 88
_cell_length_a 13.648656
_cell_length_b 13.648656
_cell_length_c 29.769358
_cell_angle_alpha 90.000000
_cell_angle_beta 90.000000
_cell_angle_gamma 90.000000
_cell_volume 5545.608986
_symmetry_space_group_name_H-M "I 4 2 2 "
_symmetry_group_IT_number 97
_symmetry_cell_setting 'tetragonal'
loop_
_space_group_symop_operation_xyz
x,y,z
-y,x,z
-x,-y,z
y,-x,z
x,-y,-z
-x,y,-z
y,x,-z
-y,-x,-z
1/2+x,1/2+y,1/2+z
1/2-y,1/2+x,1/2+z
1/2-x,1/2-y,1/2+z
1/2+y,1/2-x,1/2+z
1/2+x,1/2-y,1/2-z
1/2-x,1/2+y,1/2-z
1/2+y,1/2+x,1/2-z
1/2-y,1/2-x,1/2-z
loop_
_atom_site_type_symbol
_atom_site_label
_atom_site_fract_x
_atom_site_fract_y
_atom_site_fract_z
Si Si1 0.709011 0.009145 0.275499
Si Si2 0.789554 0.190695 0.707065
Si Si3 0.712050 0.013874 0.170305
Si Si4 0.116452 0.112176 0.050776
Si Si5 0.000000 0.500000 0.677686
Si Si6 0.320616 0.702273 0.637714
O O1 0.788306 0.925853 0.287626
O O2 0.691499 0.014015 0.222859
O O3 0.760078 0.105118 0.295139
O O4 0.600956 0.991139 0.294593
O O5 0.730628 0.230628 0.750000
O O6 0.738993 0.206214 0.657822
O O7 0.786791 0.931282 0.154378
O O8 0.601779 0.006452 0.148336
O O9 0.768500 0.111945 0.160619
O O10 0.185975 0.176417 0.083714
O O11 0.002565 0.135985 0.059548
O O12 0.142816 0.142816 0.000000
#
# Coordination Sequence:
#
# PCOD8306187 Si02
#       6
#    16  16  16  16   8  16
#     4  12  21  35  48  70 104 141 180 215 249 294
#     4  12  22  34  49  73 102 136 180 213 251 302
#     4  12  21  31  49  72 101 138 175 211 253 297
#     4   9  18  32  50  73 101 131 164 206 259 319
#     4  12  21  32  52  66  97 150 185 212 238 296
#     4  12  21  32  50  78 102 134 171 208 253 310
#
# _framework density 15.868409
#
# number of rings (size 3 to 8) (size 9 to 14) (size 15 to 20)
#    0.000    0.545    9.091    2.182    0.000    0.727 
#    0.000    1.818    0.000    0.000    0.000    6.364 
#    0.000    0.000    0.000    1.636    0.000    0.000 
#
# Total GULP energy -545105.546173 kJ/mol
# GULP energy per Si atom -12388.762413 kJ/mol
# Density = 1.583229 g / cm^3
# Si number density = 15.868409 Si / 1000 Ang^3
#
#
#
# Elastic Constant Matrix: (Units=GPa)
#
#
# Indices 1 2 3 4 5 6 
#
# 1 73.1450 14.5828 21.5022 0.0000 0.0000 0.0000
# 2 14.5828 73.1450 21.5022 0.0000 0.0000 0.0000
# 3 21.5022 21.5022 77.0919 0.0000 0.0000 0.0000
# 4 0.0000 0.0000 0.0000 18.9611 0.0000 0.0000
# 5 0.0000 0.0000 0.0000 0.0000 18.9611 0.0000
# 6 0.0000 0.0000 0.0000 0.0000 0.0000 30.2983
#
#
#
# Elastic Compliance Matrix: (Units=1/GPa)
#
#
# Indices 1 2 3 4 5 6 
#
# 1 0.015140 -0.001936 -0.003683 0.000000 0.000000 0.000000
# 2 -0.001936 0.015140 -0.003683 0.000000 0.000000 0.000000
# 3 -0.003683 -0.003683 0.015026 0.000000 0.000000 0.000000
# 4 0.000000 0.000000 0.000000 0.052740 0.000000 0.000000
# 5 0.000000 0.000000 0.000000 0.000000 0.052740 0.000000
# 6 0.000000 0.000000 0.000000 0.000000 0.000000 0.033005
#
#
# Mechanical properties :
#
#
# Convention : Reuss Voigt Hill
#
# Bulk Modulus (GPa) = 37.44904 37.61735 37.53320
# Shear Modulus (GPa) = 23.66366 24.69708 24.18037
#
# Velocity S-wave (km/s) = 3.86585 3.94936 3.90783
# Velocity P-wave (km/s) = 6.60132 6.67487 6.63820
#
# Compressibility (1/GPa) = 0.02670295
#
# Stress axis : x y z
#
# Youngs Moduli (GPa) = 66.04994 66.04994 66.55145
#
# Poissons Ratio (x) = 0.12786 0.24510
# Poissons Ratio (y) = 0.12786 0.24510
# Poissons Ratio (z) = 0.24325 0.24325
#
# Static dielectric constant tensor:
#      x y z
#    x 3.074710 0.000000 0.000000 
#    y 0.000000 3.074710 0.000000 
#    z 0.000000 0.000000 2.261090 
# 
# 
# High freq. dielectric constant tensor:
#      x y z
#    x 1.613610 0.000000 0.000000 
#    y 0.000000 1.613610 0.000000 
#    z 0.000000 0.000000 1.567340 
# 
# From -- ./inp_files/7630.got.cif
#   From: 2010.03.12/outbox.cif.g09.slc.cpg/sg97_4_cif.got.tgz:7630.got - 2010.04.08 20:59:42.
