data_PCOD8306786
_publ_section_title
;
Structure prediction by ZEFSAII (Michael W. Deem and Ramdas Pophale) SiO2 
 PCOD8306786
Probable space group: P 42 C M
;
_chemical_formula_sum "Si O2"
_cell_formula_units_Z 56
_cell_length_a 14.345254
_cell_length_b 14.345254
_cell_length_c 13.267343
_cell_angle_alpha 90.000000
_cell_angle_beta 90.000000
_cell_angle_gamma 90.000000
_cell_volume 2730.237590
_symmetry_space_group_name_H-M "P 42 C M"
_symmetry_group_IT_number 101
_symmetry_cell_setting 'tetragonal'
loop_
_space_group_symop_operation_xyz
x,y,z
-y,x,1/2+z
-x,-y,z
y,-x,1/2+z
-x,y,1/2+z
x,-y,1/2+z
-y,-x,z
y,x,z
loop_
_atom_site_type_symbol
_atom_site_label
_atom_site_fract_x
_atom_site_fract_y
_atom_site_fract_z
Si Si1 0.003720 0.850772 0.329060
Si Si2 0.918076 0.564645 0.812189
Si Si3 0.997675 0.290078 0.671115
Si Si4 0.823048 0.587469 0.175331
Si Si5 0.252780 0.395195 0.381571
Si Si6 0.248529 0.406814 0.956090
Si Si7 0.110038 0.267764 0.473368
O O1 0.109247 0.890754 0.346001
O O2 0.989465 0.815043 0.213901
O O3 0.976822 0.768742 0.407111
O O4 0.934800 0.934800 0.347445
O O5 0.868709 0.506205 0.721829
O O6 0.850357 0.605039 0.899092
O O7 0.000000 0.500000 0.860154
O O8 0.959423 0.656083 0.764827
O O9 0.897883 0.333549 0.643882
O O10 0.069558 0.294371 0.580580
O O11 0.753054 0.623378 0.261583
O O12 0.764652 0.570776 0.074056
O O13 0.330528 0.330528 0.430172
O O14 0.287694 0.498713 0.406780
O O15 0.152015 0.364250 0.427190
O O16 0.319677 0.319677 0.938565
O O17 0.190595 0.190595 0.481111
#
# Coordination Sequence:
#
# PCOD8306786 Si02
#       7
#     8   8   8   8   8   8   8
#     4  10  22  38  54  81 121 158 202 260 314 370
#     4   9  22  40  60  89 126 165 199 250 311 375
#     4  11  21  36  61  87 116 161 207 250 307 368
#     4  10  21  38  62  90 122 157 203 251 308 375
#     4  10  21  42  65  84 120 167 208 251 311 392
#     4  11  24  39  62  97 127 154 203 267 318 364
#     4  10  21  37  59  86 117 163 214 256 312 383
#
# _framework density 20.511036000000001
#
# number of rings (size 3 to 8) (size 9 to 14) (size 15 to 20)
#    0.000    1.857    1.429    1.714    2.000    4.286 
#    0.000    5.714    0.000    3.429    0.000    0.000 
#    0.000    0.000    0.000    0.000    0.000    0.000 
#
# Total GULP energy -693854.715432 kJ/mol
# GULP energy per Si atom -12390.262776 kJ/mol
# Density = 2.046435 g / cm^3
# Si number density = 20.511036 Si / 1000 Ang^3
#
#
#
# Elastic Constant Matrix: (Units=GPa)
#
#
# Indices 1 2 3 4 5 6 
#
# 1 82.7494 36.3289 35.1233 0.0000 0.0000 0.0000
# 2 36.3289 82.7494 35.1233 0.0000 0.0000 0.0000
# 3 35.1233 35.1233 115.6094 0.0000 0.0000 0.0000
# 4 0.0000 0.0000 0.0000 20.9611 0.0000 0.0000
# 5 0.0000 0.0000 0.0000 0.0000 20.9611 0.0000
# 6 0.0000 0.0000 0.0000 0.0000 0.0000 37.2544
#
#
#
# Elastic Compliance Matrix: (Units=1/GPa)
#
#
# Indices 1 2 3 4 5 6 
#
# 1 0.015887 -0.005655 -0.003108 0.000000 0.000000 0.000000
# 2 -0.005655 0.015887 -0.003108 0.000000 0.000000 0.000000
# 3 -0.003108 -0.003108 0.010539 0.000000 0.000000 0.000000
# 4 0.000000 0.000000 0.000000 0.047707 0.000000 0.000000
# 5 0.000000 0.000000 0.000000 0.000000 0.047707 0.000000
# 6 0.000000 0.000000 0.000000 0.000000 0.000000 0.026842
#
#
# Mechanical properties :
#
#
# Convention : Reuss Voigt Hill
#
# Bulk Modulus (GPa) = 53.85637 54.91768 54.38702
# Shear Modulus (GPa) = 25.70646 27.47081 26.58864
#
# Velocity S-wave (km/s) = 3.54404 3.66364 3.60433
# Velocity P-wave (km/s) = 6.56210 6.68799 6.62534
#
# Compressibility (1/GPa) = 0.01856791
#
# Stress axis : x y z
#
# Youngs Moduli (GPa) = 62.94490 62.94490 94.88947
#
# Poissons Ratio (x) = 0.35597 0.29496
# Poissons Ratio (y) = 0.35597 0.29496
# Poissons Ratio (z) = 0.19566 0.19566
#
# Static dielectric constant tensor:
#      x y z
#    x 3.827980 0.000000 0.000000 
#    y 0.000000 3.827980 0.000000 
#    z 0.000000 0.000000 3.604530 
# 
# 
# High freq. dielectric constant tensor:
#      x y z
#    x 1.799950 0.000000 0.000000 
#    y 0.000000 1.799950 0.000000 
#    z 0.000000 0.000000 1.798910 
# 
# From -- ./inp_files/1344.got.cif
#   From: 2010.03.12/outbox.cif.g09.slc.cpg/sg101_1_cif.got.tgz:1344.got - 2010.04.14 01:38:52.
