data_PCOD8306972
_publ_section_title
;
Structure prediction by ZEFSAII (Michael W. Deem and Ramdas Pophale) SiO2 
 PCOD8306972
Probable space group: P 4 C C
;
_chemical_formula_sum "Si O2"
_cell_formula_units_Z 56
_cell_length_a 14.330150
_cell_length_b 14.330150
_cell_length_c 14.348667
_cell_angle_alpha 90.000000
_cell_angle_beta 90.000000
_cell_angle_gamma 90.000000
_cell_volume 2946.544670
_symmetry_space_group_name_H-M "P 4 C C"
_symmetry_group_IT_number 103
_symmetry_cell_setting 'tetragonal'
loop_
_space_group_symop_operation_xyz
x,y,z
-y,x,z
-x,-y,z
y,-x,z
-x,y,1/2+z
x,-y,1/2+z
-y,-x,1/2+z
y,x,1/2+z
loop_
_atom_site_type_symbol
_atom_site_label
_atom_site_fract_x
_atom_site_fract_y
_atom_site_fract_z
Si Si1 0.902405 0.453246 0.117110
Si Si2 0.768168 0.497398 0.957379
Si Si3 0.895205 0.543461 0.297847
Si Si4 0.305283 0.309613 0.479339
Si Si5 0.834999 0.256155 0.134207
Si Si6 0.830651 0.247530 0.823735
Si Si7 0.075114 0.866674 0.977147
O O1 0.857994 0.520061 0.195019
O O2 0.902476 0.345766 0.155578
O O3 0.000000 0.500000 0.090048
O O4 0.844776 0.452107 0.023723
O O5 0.822017 0.512187 0.861148
O O6 0.687374 0.419274 0.953401
O O7 0.727094 0.591763 0.995396
O O8 0.886900 0.654995 0.310581
O O9 0.000000 0.500000 0.310257
O O10 0.255469 0.290290 0.577520
O O11 0.257922 0.258898 0.391517
O O12 0.800338 0.203650 0.227815
O O13 0.894242 0.187891 0.069402
O O14 0.902159 0.181301 0.878336
O O15 0.964763 0.873569 0.980898
#
# Coordination Sequence:
#
# PCOD8306972 Si02
#       7
#     8   8   8   8   8   8   8
#     4  10  21  34  54  84 110 136 179 229 281 337
#     4  10  19  35  52  74 110 144 177 228 274 327
#     4  10  21  34  54  84 110 136 179 229 281 337
#     4   9  20  34  54  80 108 144 183 224 279 340
#     4  10  21  38  59  83 111 148 186 228 290 343
#     4  10  21  38  59  83 111 148 186 228 290 343
#     4  10  24  41  55  79 112 147 193 235 270 333
#
# _framework density 19.005312
#
# number of rings (size 3 to 8) (size 9 to 14) (size 15 to 20)
#    0.000    2.143    0.000    3.000    0.000   10.571 
#    0.000    1.429    0.000    0.000    0.000    4.000 
#    0.000    0.000    0.000    0.000    0.000    0.000 
#
# Total GULP energy -693962.619068 kJ/mol
# GULP energy per Si atom -12392.189626 kJ/mol
# Density = 1.896206 g / cm^3
# Si number density = 19.005312 Si / 1000 Ang^3
#
#
#
# Elastic Constant Matrix: (Units=GPa)
#
#
# Indices 1 2 3 4 5 6 
#
# 1 83.7813 69.7474 22.7844 0.0000 0.0000 0.0000
# 2 69.7474 83.7813 22.7844 0.0000 0.0000 0.0000
# 3 22.7844 22.7844 90.0812 0.0000 0.0000 0.0000
# 4 0.0000 0.0000 0.0000 27.6542 0.0000 0.0000
# 5 0.0000 0.0000 0.0000 0.0000 27.6542 0.0000
# 6 0.0000 0.0000 0.0000 0.0000 0.0000 27.7177
#
#
#
# Elastic Compliance Matrix: (Units=1/GPa)
#
#
# Indices 1 2 3 4 5 6 
#
# 1 0.039149 -0.032107 -0.001781 0.000000 0.000000 0.000000
# 2 -0.032107 0.039149 -0.001781 0.000000 0.000000 0.000000
# 3 -0.001781 -0.001781 0.012002 0.000000 0.000000 0.000000
# 4 0.000000 0.000000 0.000000 0.036161 0.000000 0.000000
# 5 0.000000 0.000000 0.000000 0.000000 0.036161 0.000000
# 6 0.000000 0.000000 0.000000 0.000000 0.000000 0.036078
#
#
# Mechanical properties :
#
#
# Convention : Reuss Voigt Hill
#
# Bulk Modulus (GPa) = 52.73804 54.25293 53.49548
# Shear Modulus (GPa) = 18.09244 26.09375 22.09309
#
# Velocity S-wave (km/s) = 3.08874 3.70938 3.41320
# Velocity P-wave (km/s) = 6.36630 6.85231 6.61377
#
# Compressibility (1/GPa) = 0.01896165
#
# Stress axis : x y z
#
# Youngs Moduli (GPa) = 25.54348 25.54348 83.31855
#
# Poissons Ratio (x) = 0.82012 0.14841
# Poissons Ratio (y) = 0.82012 0.14841
# Poissons Ratio (z) = 0.04550 0.04550
#
# Static dielectric constant tensor:
#      x y z
#    x 3.481260 0.000000 0.000000 
#    y 0.000000 3.481260 0.000000 
#    z 0.000000 0.000000 3.599500 
# 
# 
# High freq. dielectric constant tensor:
#      x y z
#    x 1.737390 0.000000 0.000000 
#    y 0.000000 1.737390 0.000000 
#    z 0.000000 0.000000 1.751180 
# 
# From -- ./inp_files/905.got.cif
#   From: 2010.03.12/outbox.cif.g09.slc.cpg/sg103_cif.got.tgz:905.got - 2010.04.14 01:42:52.
