data_PCOD8307686
_publ_section_title
;
Structure prediction by ZEFSAII (Michael W. Deem and Ramdas Pophale) SiO2 
 PCOD8307686
Probable space group: I 4 M M
;
_chemical_formula_sum "Si O2"
_cell_formula_units_Z 112
_cell_length_a 14.842438
_cell_length_b 14.842438
_cell_length_c 34.748769
_cell_angle_alpha 90.000000
_cell_angle_beta 90.000000
_cell_angle_gamma 90.000000
_cell_volume 7655.083124
_symmetry_space_group_name_H-M "I 4 M M"
_symmetry_group_IT_number 107
_symmetry_cell_setting 'tetragonal'
loop_
_space_group_symop_operation_xyz
x,y,z
-y,x,z
-x,-y,z
y,-x,z
-x,y,z
x,-y,z
-y,-x,z
y,x,z
1/2+x,1/2+y,1/2+z
1/2-y,1/2+x,1/2+z
1/2-x,1/2-y,1/2+z
1/2+y,1/2-x,1/2+z
1/2-x,1/2+y,1/2+z
1/2+x,1/2-y,1/2+z
1/2-y,1/2-x,1/2+z
1/2+y,1/2+x,1/2+z
loop_
_atom_site_type_symbol
_atom_site_label
_atom_site_fract_x
_atom_site_fract_y
_atom_site_fract_z
Si Si1 0.400062 0.106955 0.960920
Si Si2 0.751210 0.103904 0.104171
Si Si3 0.103057 0.396943 0.753977
Si Si4 0.396096 0.748792 0.403783
Si Si5 0.602818 0.749270 0.315608
Si Si6 0.106955 0.599938 0.047036
Si Si7 0.397182 0.250731 0.692346
O O1 0.500000 0.144375 0.951001
O O2 0.328436 0.144608 0.930212
O O3 0.402151 0.000000 0.958493
O O4 0.372105 0.137627 0.003978
O O5 0.842730 0.157271 0.095327
O O6 0.671565 0.144609 0.077743
O O7 0.721085 0.116746 0.148258
O O8 0.771132 0.000000 0.094370
O O9 0.118905 0.500000 0.766759
O O10 0.129489 0.335274 0.790127
O O11 0.164725 0.370512 0.717826
O O12 0.000000 0.381094 0.741194
O O13 0.500000 0.728869 0.413584
O O14 0.342727 0.657274 0.412626
O O15 0.383255 0.778919 0.359696
O O16 0.500000 0.719070 0.308206
O O17 0.664947 0.664947 0.304273
O O18 0.144375 0.500000 0.056954
O O19 0.000000 0.597849 0.049462
O O20 0.500000 0.280931 0.699748
O O21 0.335053 0.335053 0.703683
#
# Coordination Sequence:
#
# PCOD8307686 Si02
#       7
#    16  16  16  16  16  16  16
#     4   8  14  25  40  56  74  98 128 161 195 226
#     4   9  17  27  39  57  80 106 134 160 188 226
#     4   9  17  28  42  60  79  99 126 162 204 243
#     4   9  17  27  39  57  80 106 134 160 188 226
#     4   9  17  28  41  57  78 104 132 161 192 228
#     4   8  14  25  40  56  74  98 128 161 195 226
#     4   9  17  28  41  57  78 104 132 161 192 228
#
# _framework density 14.630801
#
# number of rings (size 3 to 8) (size 9 to 14) (size 15 to 20)
#    0.000    3.286    0.000    1.286    0.000    2.286 
#    0.000    8.571    0.000    0.000    0.000    4.000 
#    0.000    0.571    0.000    9.429    0.000    7.714 
#
# Total GULP energy -694181.978047 kJ/mol
# GULP energy per Si atom -12396.106751 kJ/mol
# Density = 1.459750 g / cm^3
# Si number density = 14.630801 Si / 1000 Ang^3
#
#
#
# Elastic Constant Matrix: (Units=GPa)
#
#
# Indices 1 2 3 4 5 6 
#
# 1 77.4318 48.6794 59.1228 0.0000 0.0000 -0.0005
# 2 48.6794 77.4318 59.1228 0.0000 0.0000 0.0005
# 3 59.1228 59.1228 91.5960 0.0000 0.0000 0.0000
# 4 0.0000 0.0000 0.0000 23.6468 0.0000 0.0000
# 5 0.0000 0.0000 0.0000 0.0000 23.6468 0.0000
# 6 -0.0005 0.0005 0.0000 0.0000 0.0000 14.5322
#
#
#
# Elastic Compliance Matrix: (Units=1/GPa)
#
#
# Indices 1 2 3 4 5 6 
#
# 1 0.027433 -0.007347 -0.012965 0.000000 0.000000 0.000001
# 2 -0.007347 0.027433 -0.012965 0.000000 0.000000 -0.000001
# 3 -0.012965 -0.012965 0.027654 0.000000 0.000000 0.000000
# 4 0.000000 0.000000 0.000000 0.042289 0.000000 0.000000
# 5 0.000000 0.000000 0.000000 0.000000 0.042289 0.000000
# 6 0.000001 -0.000001 0.000000 0.000000 0.000000 0.068812
#
#
# Mechanical properties :
#
#
# Convention : Reuss Voigt Hill
#
# Bulk Modulus (GPa) = 62.63076 64.47885 63.55480
# Shear Modulus (GPa) = 16.24510 17.66750 16.95630
#
# Velocity S-wave (km/s) = 3.33579 3.47876 3.40802
# Velocity P-wave (km/s) = 7.59849 7.76544 7.68242
#
# Compressibility (1/GPa) = 0.01596660
#
# Stress axis : x y z
#
# Youngs Moduli (GPa) = 36.45293 36.45293 36.16079
#
# Poissons Ratio (x) = 0.26782 0.46881
# Poissons Ratio (y) = 0.26782 0.46881
# Poissons Ratio (z) = 0.47260 0.47260
#
# Static dielectric constant tensor:
#      x y z
#    x 2.807380 0.000000 0.000000 
#    y 0.000000 2.807380 0.000000 
#    z 0.000000 0.000000 2.978330 
# 
# 
# High freq. dielectric constant tensor:
#      x y z
#    x 1.541690 0.000000 0.000000 
#    y 0.000000 1.541690 0.000000 
#    z 0.000000 0.000000 1.563910 
# 
# From -- ./inp_files/6167.got.cif
#   From: 2010.03.12/outbox.cif.g09.slc.cpg/sg107_4_cif.got.tgz:6167.got - 2010.04.14 01:49:11.
