data_PCOD8307414
_publ_section_title
;
Structure prediction by ZEFSAII (Michael W. Deem and Ramdas Pophale) SiO2 
 PCOD8307414
Probable space group: P 42 B C
;
_chemical_formula_sum "Si O2"
_cell_formula_units_Z 56
_cell_length_a 14.770202
_cell_length_b 14.770202
_cell_length_c 11.672735
_cell_angle_alpha 90.000000
_cell_angle_beta 90.000000
_cell_angle_gamma 90.000000
_cell_volume 2546.510644
_symmetry_space_group_name_H-M "P 42 B C"
_symmetry_group_IT_number 106
_symmetry_cell_setting 'tetragonal'
loop_
_space_group_symop_operation_xyz
x,y,z
-y,x,1/2+z
-x,-y,z
y,-x,1/2+z
1/2-x,1/2+y,z
1/2+x,1/2-y,z
1/2-y,1/2-x,1/2+z
1/2+y,1/2+x,1/2+z
loop_
_atom_site_type_symbol
_atom_site_label
_atom_site_fract_x
_atom_site_fract_y
_atom_site_fract_z
Si Si1 0.000000 0.500000 0.032100
Si Si2 0.270387 0.835754 0.039728
Si Si3 0.680536 0.989537 0.153371
Si Si4 0.604633 0.120487 0.855577
Si Si5 0.656406 0.419041 0.259304
Si Si6 0.000000 0.000000 0.132621
Si Si7 0.425458 0.760286 0.186791
Si Si8 0.679400 0.438358 0.519874
O O1 0.080192 0.542180 0.112456
O O2 0.041925 0.422537 0.953377
O O3 0.327787 0.782693 0.133756
O O4 0.166716 0.806026 0.050626
O O5 0.278022 0.944161 0.057348
O O6 0.317219 0.817236 0.915371
O O7 0.754258 0.909869 0.176254
O O8 0.679594 0.040991 0.275143
O O9 0.657951 0.047622 0.773836
O O10 0.590125 0.496276 0.210323
O O11 0.592744 0.330275 0.259791
O O12 0.690862 0.447221 0.384360
O O13 0.015392 0.915240 0.050346
O O14 0.503695 0.754088 0.090460
#
# Coordination Sequence:
#
# PCOD8307414 Si02
#       8
#     4   8   8   8   8   4   8   8
#     4  10  22  40  66  96 126 178 232 284 356 410
#     4  10  20  41  64  89 128 179 210 274 340 401
#     4  10  21  39  66  92 131 168 224 284 332 413
#     4  10  20  42  66  89 130 175 224 277 348 400
#     4  11  21  40  62  98 132 170 220 277 337 405
#     4  10  22  38  66 100 128 172 226 270 334 412
#     4  10  23  39  64  96 134 170 227 279 338 414
#     4  11  21  40  68  94 133 178 221 280 340 411
#
# _framework density 21.990876
#
# number of rings (size 3 to 8) (size 9 to 14) (size 15 to 20)
#    0.000    1.714    2.857    1.714    0.000    0.000 
#   12.857    0.000    0.000    0.000    0.000    0.000 
#    0.000    0.000    0.000    0.000    0.000    0.000 
#
# Total GULP energy -693853.044698 kJ/mol
# GULP energy per Si atom -12390.232941 kJ/mol
# Density = 2.194082 g / cm^3
# Si number density = 21.990876 Si / 1000 Ang^3
#
#
#
# Elastic Constant Matrix: (Units=GPa)
#
#
# Indices 1 2 3 4 5 6 
#
# 1 103.2874 24.8205 34.6577 0.0000 0.0000 0.0000
# 2 24.8205 103.2874 34.6577 0.0000 0.0000 0.0000
# 3 34.6577 34.6577 110.3062 0.0000 0.0000 0.0000
# 4 0.0000 0.0000 0.0000 34.0428 0.0000 0.0000
# 5 0.0000 0.0000 0.0000 0.0000 34.0428 0.0000
# 6 0.0000 0.0000 0.0000 0.0000 0.0000 25.2702
#
#
#
# Elastic Compliance Matrix: (Units=1/GPa)
#
#
# Indices 1 2 3 4 5 6 
#
# 1 0.011074 -0.001670 -0.002955 0.000000 0.000000 0.000000
# 2 -0.001670 0.011074 -0.002955 0.000000 0.000000 0.000000
# 3 -0.002955 -0.002955 0.010923 0.000000 0.000000 0.000000
# 4 0.000000 0.000000 0.000000 0.029375 0.000000 0.000000
# 5 0.000000 0.000000 0.000000 0.000000 0.029375 0.000000
# 6 0.000000 0.000000 0.000000 0.000000 0.000000 0.039572
#
#
# Mechanical properties :
#
#
# Convention : Reuss Voigt Hill
#
# Bulk Modulus (GPa) = 55.82756 56.12809 55.97783
# Shear Modulus (GPa) = 32.78187 33.52084 33.15136
#
# Velocity S-wave (km/s) = 3.86515 3.90847 3.88687
# Velocity P-wave (km/s) = 6.73506 6.77842 6.75677
#
# Compressibility (1/GPa) = 0.01791230
#
# Stress axis : x y z
#
# Youngs Moduli (GPa) = 90.29769 90.29769 91.55394
#
# Poissons Ratio (x) = 0.15077 0.27054
# Poissons Ratio (y) = 0.15077 0.27054
# Poissons Ratio (z) = 0.26682 0.26682
#
# Static dielectric constant tensor:
#      x y z
#    x 3.875720 0.000000 0.000000 
#    y 0.000000 3.875720 0.000000 
#    z 0.000000 0.000000 4.176860 
# 
# 
# High freq. dielectric constant tensor:
#      x y z
#    x 1.852640 0.000000 0.000000 
#    y 0.000000 1.852640 0.000000 
#    z 0.000000 0.000000 1.876220 
# 
# From -- ./inp_files/1022.got.cif
#   From: 2010.03.12/outbox.cif.g09.slc.cpg/sg106_cif.got.tgz:1022.got - 2010.04.14 01:48:02.
