data_PCOD8307964
_publ_section_title
;
Structure prediction by ZEFSAII (Michael W. Deem and Ramdas Pophale) SiO2 
 PCOD8307964
Probable space group: I 41 M D
;
_chemical_formula_sum "Si O2"
_cell_formula_units_Z 116
_cell_length_a 18.570427
_cell_length_b 18.570427
_cell_length_c 16.951871
_cell_angle_alpha 90.000000
_cell_angle_beta 90.000000
_cell_angle_gamma 90.000000
_cell_volume 5846.035099
_symmetry_space_group_name_H-M "I 41 M D"
_symmetry_group_IT_number 109
_symmetry_cell_setting 'tetragonal'
loop_
_space_group_symop_operation_xyz
x,y,z
-y,1/2+x,1/4+z
-x,-y,z
y,1/2-x,1/4+z
-x,y,z
x,-y,z
-y,1/2-x,1/4+z
y,1/2+x,1/4+z
1/2+x,1/2+y,1/2+z
1/2-y,x,3/4+z
1/2-x,1/2-y,1/2+z
1/2+y,-x,3/4+z
1/2-x,1/2+y,1/2+z
1/2+x,1/2-y,1/2+z
1/2-y,-x,3/4+z
1/2+y,x,3/4+z
loop_
_atom_site_type_symbol
_atom_site_label
_atom_site_fract_x
_atom_site_fract_y
_atom_site_fract_z
Si Si1 0.418129 0.914993 0.581140
Si Si2 0.829290 0.816725 0.937191
Si Si3 0.680607 0.643723 0.901456
Si Si4 0.422933 0.861034 0.993403
Si Si5 0.823642 0.694484 0.368060
Si Si6 0.843354 0.348263 0.931201
Si Si7 0.000000 0.000000 0.284418
Si Si8 0.415940 0.417055 0.032911
O O1 0.500000 0.887697 0.590359
O O2 0.372002 0.888427 0.655340
O O3 0.386838 0.886636 0.499465
O O4 0.414555 0.000000 0.578957
O O5 0.759869 0.823706 0.881418
O O6 0.860965 0.736347 0.931937
O O7 0.810294 0.839608 0.025672
O O8 0.684771 0.615037 0.812639
O O9 0.657005 0.726646 0.900732
O O10 0.758534 0.637037 0.942848
O O11 0.622474 0.596878 0.949390
O O12 0.500000 0.822970 0.974371
O O13 0.435121 0.942964 0.019888
O O14 0.373671 0.860996 0.915197
O O15 0.866541 0.381480 0.848136
O O16 0.500000 0.400412 0.020693
O O17 0.404796 0.500000 0.056609
#
# Coordination Sequence:
#
# PCOD8307964 Si02
#       8
#    16  16  16  16  16  16   4  16
#     4  11  25  45  65  93 133 171 212 268 328 380
#     4  11  23  44  68  96 129 163 217 270 323 381
#     4  11  23  37  67  96 130 167 216 265 325 385
#     4  10  22  42  61  89 129 174 211 261 324 381
#     4  11  22  43  66  97 128 165 216 272 320 379
#     4  11  23  41  67  96 128 170 212 271 321 391
#     4   8  24  44  60  84 136 176 210 276 324 372
#     4  11  25  40  61  95 135 173 212 260 317 392
#
# _framework density 19.842509
#
# number of rings (size 3 to 8) (size 9 to 14) (size 15 to 20)
#    0.414    0.828    2.759    2.897    4.828    7.724 
#    2.483    0.000    0.000    0.000    0.000    0.000 
#    0.000    0.000    0.000    0.000    0.000    0.000 
#
# Total GULP energy -718583.376068 kJ/mol
# GULP energy per Si atom -12389.368553 kJ/mol
# Density = 1.979735 g / cm^3
# Si number density = 19.842509 Si / 1000 Ang^3
#
#
#
# Elastic Constant Matrix: (Units=GPa)
#
#
# Indices 1 2 3 4 5 6 
#
# 1 84.6700 44.8038 23.9284 0.0000 0.0000 0.0000
# 2 44.8038 84.6700 23.9284 0.0000 0.0000 0.0000
# 3 23.9284 23.9284 97.2162 0.0000 0.0000 0.0000
# 4 0.0000 0.0000 0.0000 16.5836 0.0000 0.0000
# 5 0.0000 0.0000 0.0000 0.0000 16.5836 0.0000
# 6 0.0000 0.0000 0.0000 0.0000 0.0000 -20.6580
#
#
#
# Elastic Compliance Matrix: (Units=1/GPa)
#
#
# Indices 1 2 3 4 5 6 
#
# 1 0.016790 -0.008294 -0.002091 0.000000 0.000000 0.000000
# 2 -0.008294 0.016790 -0.002091 0.000000 0.000000 0.000000
# 3 -0.002091 -0.002091 0.011316 0.000000 0.000000 0.000000
# 4 0.000000 0.000000 0.000000 0.060300 0.000000 0.000000
# 5 0.000000 0.000000 0.000000 0.000000 0.060300 0.000000
# 6 0.000000 0.000000 0.000000 0.000000 0.000000 -0.048407
#
#
# Mechanical properties :
#
#
# Convention : Reuss Voigt Hill
#
# Bulk Modulus (GPa) = 50.14104 50.20860 50.17482
# Shear Modulus (GPa) = 33.62695 14.09489 23.86092
#
# Velocity S-wave (km/s) = 4.12113 2.66811 3.47149
# Velocity P-wave (km/s) = 6.92599 5.90341 6.43504
#
# Compressibility (1/GPa) = 0.01994374
#
# Stress axis : x y z
#
# Youngs Moduli (GPa) = 59.55831 59.55831 88.37160
#
# Poissons Ratio (x) = 0.49396 0.18481
# Poissons Ratio (y) = 0.49396 0.18481
# Poissons Ratio (z) = 0.12456 0.12456
#
# Static dielectric constant tensor:
#      x y z
#    x 3.844240 0.000000 0.000000 
#    y 0.000000 3.844240 0.000000 
#    z 0.000000 0.000000 3.507490 
# 
# 
# High freq. dielectric constant tensor:
#      x y z
#    x 1.782100 0.000000 0.000000 
#    y 0.000000 1.782100 0.000000 
#    z 0.000000 0.000000 1.771440 
# 
# From -- ./inp_files/3224.got.cif
#   From: 2010.03.12/outbox.cif.g09.slc.cpg/sg109_2_cif.got.tgz:3224.got - 2010.04.14 01:55:16.
