data_PCOD8307091
_publ_section_title
;
Structure prediction by ZEFSAII (Michael W. Deem and Ramdas Pophale) SiO2 
 PCOD8307091
Probable space group: P 4 N C 
;
_chemical_formula_sum "Si O2"
_cell_formula_units_Z 50
_cell_length_a 8.423708
_cell_length_b 8.423708
_cell_length_c 30.621337
_cell_angle_alpha 90.000000
_cell_angle_beta 90.000000
_cell_angle_gamma 90.000000
_cell_volume 2172.855057
_symmetry_space_group_name_H-M "P 4 N C "
_symmetry_group_IT_number 104
_symmetry_cell_setting 'tetragonal'
loop_
_space_group_symop_operation_xyz
x,y,z
-y,x,z
-x,-y,z
y,-x,z
1/2-x,1/2+y,1/2+z
1/2+x,1/2-y,1/2+z
1/2-y,1/2-x,1/2+z
1/2+y,1/2+x,1/2+z
loop_
_atom_site_type_symbol
_atom_site_label
_atom_site_fract_x
_atom_site_fract_y
_atom_site_fract_z
Si Si1 0.377782 0.729513 0.802100
Si Si2 0.865344 0.780781 0.882860
Si Si3 0.389867 0.736599 0.221544
Si Si4 0.759615 0.103730 0.141141
Si Si5 0.000000 0.000000 0.445936
Si Si6 0.260687 0.391400 0.060382
Si Si7 0.665280 0.088156 0.465752
O O1 0.289252 0.563805 0.794079
O O2 0.351963 0.783442 0.852073
O O3 0.308932 0.860392 0.769427
O O4 0.832428 0.736856 0.932652
O O5 0.051402 0.785362 0.872072
O O6 0.292130 0.575348 0.215858
O O7 0.335319 0.861449 0.185422
O O8 0.652174 0.145046 0.099816
O O9 0.918479 0.206374 0.140170
O O10 0.812090 0.966588 0.455778
O O11 0.422141 0.293114 0.063532
O O12 0.171974 0.348421 0.015420
O O13 0.500000 0.000000 0.457308
#
# Coordination Sequence:
#
# PCOD8307091 Si02
#       7
#     8   8   8   8   2   8   8
#     4  11  26  43  70 103 139 182 235 294 360 436
#     4  11  27  46  66 101 140 183 241 299 359 438
#     4  11  24  45  70 100 138 182 234 295 355 430
#     4  11  26  43  66 101 143 185 238 296 357 430
#     4  12  24  48  68 104 144 184 248 300 356 460
#     4  11  24  44  68 101 136 180 239 295 356 436
#     4  12  26  44  74 104 140 194 238 306 370 437
#
# _framework density 23.011199000000001
#
# number of rings (size 3 to 8) (size 9 to 14) (size 15 to 20)
#    0.000    0.800    1.600    3.840    6.720    8.960 
#    0.000    1.600    0.000    0.000    0.000    0.000 
#    0.000    0.000    0.000    0.000    0.000    0.000 
#
# Total GULP energy -619604.545911 kJ/mol
# GULP energy per Si atom -12392.090918 kJ/mol
# Density = 2.295882 g / cm^3
# Si number density = 23.011199 Si / 1000 Ang^3
#
#
#
# Elastic Constant Matrix: (Units=GPa)
#
#
# Indices 1 2 3 4 5 6 
#
# 1 64.5700 27.7989 12.6748 0.0000 0.0000 0.0000
# 2 27.7989 64.5700 12.6748 0.0000 0.0000 0.0000
# 3 12.6748 12.6748 111.8635 0.0000 0.0000 0.0000
# 4 0.0000 0.0000 0.0000 33.8011 0.0000 0.0000
# 5 0.0000 0.0000 0.0000 0.0000 33.8011 0.0000
# 6 0.0000 0.0000 0.0000 0.0000 0.0000 20.7615
#
#
#
# Elastic Compliance Matrix: (Units=1/GPa)
#
#
# Indices 1 2 3 4 5 6 
#
# 1 0.019184 -0.008011 -0.001266 0.000000 0.000000 0.000000
# 2 -0.008011 0.019184 -0.001266 0.000000 0.000000 0.000000
# 3 -0.001266 -0.001266 0.009226 0.000000 0.000000 0.000000
# 4 0.000000 0.000000 0.000000 0.029585 0.000000 0.000000
# 5 0.000000 0.000000 0.000000 0.000000 0.029585 0.000000
# 6 0.000000 0.000000 0.000000 0.000000 0.000000 0.048166
#
#
# Mechanical properties :
#
#
# Convention : Reuss Voigt Hill
#
# Bulk Modulus (GPa) = 37.72243 38.58895 38.15569
# Shear Modulus (GPa) = 27.04848 30.19640 28.62244
#
# Velocity S-wave (km/s) = 3.43220 3.62643 3.53065
# Velocity P-wave (km/s) = 5.66880 5.86009 5.76524
#
# Compressibility (1/GPa) = 0.02650943
#
# Stress axis : x y z
#
# Youngs Moduli (GPa) = 52.12563 52.12563 108.38503
#
# Poissons Ratio (x) = 0.41757 0.13722
# Poissons Ratio (y) = 0.41757 0.13722
# Poissons Ratio (z) = 0.06599 0.06599
#
# Static dielectric constant tensor:
#      x y z
#    x 4.726340 0.000000 0.000000 
#    y 0.000000 4.726340 0.000000 
#    z 0.000000 0.000000 4.065760 
# 
# 
# High freq. dielectric constant tensor:
#      x y z
#    x 1.924250 0.000000 0.000000 
#    y 0.000000 1.924250 0.000000 
#    z 0.000000 0.000000 1.905470 
# 
# From -- ./inp_files/1959.got.cif
#   From: 2010.03.12/outbox.cif.g09.slc.cpg/sg104_cif.got.tgz:1959.got - 2010.04.14 01:44:05.
