data_PCOD8307268
_publ_section_title
;
Structure prediction by ZEFSAII (Michael W. Deem and Ramdas Pophale) SiO2 
 PCOD8307268
Probable space group: P 42 M C
;
_chemical_formula_sum "Si O2"
_cell_formula_units_Z 48
_cell_length_a 8.141046
_cell_length_b 8.141046
_cell_length_c 33.604791
_cell_angle_alpha 90.000000
_cell_angle_beta 90.000000
_cell_angle_gamma 90.000000
_cell_volume 2227.212298
_symmetry_space_group_name_H-M "P 42 M C"
_symmetry_group_IT_number 105
_symmetry_cell_setting 'tetragonal'
loop_
_space_group_symop_operation_xyz
x,y,z
-y,x,1/2+z
-x,-y,z
y,-x,1/2+z
-x,y,z
x,-y,z
-y,-x,1/2+z
y,x,1/2+z
loop_
_atom_site_type_symbol
_atom_site_label
_atom_site_fract_x
_atom_site_fract_y
_atom_site_fract_z
Si Si1 0.186689 0.814367 0.696030
Si Si2 0.813275 0.308497 0.034741
Si Si3 0.806086 0.685713 0.279043
Si Si4 0.316681 0.687778 0.617083
Si Si5 0.320561 0.809306 0.955770
Si Si6 0.810315 0.000000 0.413561
Si Si7 0.000000 0.312362 0.827032
O O1 0.298116 0.752860 0.732782
O O2 0.210078 0.706781 0.656748
O O3 0.000000 0.799436 0.710712
O O4 0.233096 0.000000 0.684574
O O5 0.767060 0.500000 0.034211
O O6 0.783544 0.239310 0.079357
O O7 0.000000 0.275746 0.022466
O O8 0.701097 0.215622 0.002943
O O9 0.756639 0.500000 0.293316
O O10 0.719807 0.830513 0.303540
O O11 0.000000 0.712753 0.283220
O O12 0.500000 0.754014 0.626201
O O13 0.319761 0.500000 0.604377
O O14 0.500000 0.734273 0.943361
O O15 0.167165 0.727310 0.931642
O O16 0.324991 0.000000 0.945605
O O17 0.797890 0.000000 0.366242
O O18 0.000000 0.000000 0.426301
O O19 0.000000 0.500000 0.840332
#
# Coordination Sequence:
#
# PCOD8307268 Si02
#       7
#     8   8   8   8   8   4   4
#     4  10  20  36  59  85 114 151 201 255 304 360
#     4  10  20  35  57  83 114 155 203 251 305 366
#     4  10  21  41  69  94 121 164 213 259 310 375
#     4  10  21  35  51  77 115 157 200 247 300 361
#     4  10  21  38  62  90 118 153 198 248 304 364
#     4  10  22  42  64  88 122 160 204 254 302 366
#     4  12  26  42  64  96 134 164 200 258 318 386
#
# _framework density 21.551607000000001
#
# number of rings (size 3 to 8) (size 9 to 14) (size 15 to 20)
#    0.000    1.833    1.667    2.250    0.000    6.000 
#    0.000    1.667    0.000    0.000    0.000    0.000 
#    0.000    0.000    0.000    0.000    0.000    0.000 
#
# Total GULP energy -595048.736453 kJ/mol
# GULP energy per Si atom -12396.848676 kJ/mol
# Density = 2.150255 g / cm^3
# Si number density = 21.551607 Si / 1000 Ang^3
#
#
#
# Elastic Constant Matrix: (Units=GPa)
#
#
# Indices 1 2 3 4 5 6 
#
# 1 91.5172 24.3378 32.1836 0.0000 0.0000 0.0000
# 2 24.3378 91.5172 32.1836 0.0000 0.0000 0.0000
# 3 32.1836 32.1836 111.0151 0.0000 0.0000 0.0000
# 4 0.0000 0.0000 0.0000 22.8925 0.0000 0.0000
# 5 0.0000 0.0000 0.0000 0.0000 22.8925 0.0000
# 6 0.0000 0.0000 0.0000 0.0000 0.0000 20.9671
#
#
#
# Elastic Compliance Matrix: (Units=1/GPa)
#
#
# Indices 1 2 3 4 5 6 
#
# 1 0.012587 -0.002298 -0.002983 0.000000 0.000000 0.000000
# 2 -0.002298 0.012587 -0.002983 0.000000 0.000000 0.000000
# 3 -0.002983 -0.002983 0.010737 0.000000 0.000000 0.000000
# 4 0.000000 0.000000 0.000000 0.043682 0.000000 0.000000
# 5 0.000000 0.000000 0.000000 0.000000 0.043682 0.000000
# 6 0.000000 0.000000 0.000000 0.000000 0.000000 0.047694
#
#
# Mechanical properties :
#
#
# Convention : Reuss Voigt Hill
#
# Bulk Modulus (GPa) = 51.59001 52.38442 51.98721
# Shear Modulus (GPa) = 25.77866 27.04005 26.40935
#
# Velocity S-wave (km/s) = 3.46227 3.54597 3.50437
# Velocity P-wave (km/s) = 6.32242 6.41283 6.36779
#
# Compressibility (1/GPa) = 0.01938360
#
# Stress axis : x y z
#
# Youngs Moduli (GPa) = 79.44664 79.44664 93.13437
#
# Poissons Ratio (x) = 0.18260 0.27779
# Poissons Ratio (y) = 0.18260 0.27779
# Poissons Ratio (z) = 0.23697 0.23697
#
# Static dielectric constant tensor:
#      x y z
#    x 3.921720 0.000000 0.000000 
#    y 0.000000 3.921720 0.000000 
#    z 0.000000 0.000000 3.690070 
# 
# 
# High freq. dielectric constant tensor:
#      x y z
#    x 1.837440 0.000000 0.000000 
#    y 0.000000 1.837440 0.000000 
#    z 0.000000 0.000000 1.840970 
# 
# From -- ./inp_files/4751.got.cif
#   From: 2010.03.12/outbox.cif.g09.slc.cpg/sg105_3_cif.got.tgz:4751.got - 2010.04.14 01:45:32.
