data_PCOD8307851
_publ_section_title
;
Structure prediction by ZEFSAII (Michael W. Deem and Ramdas Pophale) SiO2 
 PCOD8307851
Probable space group: I 41 M D
;
_chemical_formula_sum "Si O2"
_cell_formula_units_Z 96
_cell_length_a 14.888422
_cell_length_b 14.888422
_cell_length_c 25.626276
_cell_angle_alpha 90.000000
_cell_angle_beta 90.000000
_cell_angle_gamma 90.000000
_cell_volume 5680.451279
_symmetry_space_group_name_H-M "I 41 M D"
_symmetry_group_IT_number 109
_symmetry_cell_setting 'tetragonal'
loop_
_space_group_symop_operation_xyz
x,y,z
-y,1/2+x,1/4+z
-x,-y,z
y,1/2-x,1/4+z
-x,y,z
x,-y,z
-y,1/2-x,1/4+z
y,1/2+x,1/4+z
1/2+x,1/2+y,1/2+z
1/2-y,x,3/4+z
1/2-x,1/2-y,1/2+z
1/2+y,-x,3/4+z
1/2-x,1/2+y,1/2+z
1/2+x,1/2-y,1/2+z
1/2-y,-x,3/4+z
1/2+y,x,3/4+z
loop_
_atom_site_type_symbol
_atom_site_label
_atom_site_fract_x
_atom_site_fract_y
_atom_site_fract_z
Si Si1 0.216989 0.601033 0.317540
Si Si2 0.898376 0.355000 0.222313
Si Si3 0.283011 0.398967 0.645476
Si Si4 0.894216 0.902261 0.357318
Si Si5 0.597739 0.394216 0.355699
Si Si6 0.855000 0.601624 0.490704
O O1 0.217350 0.500000 0.340433
O O2 0.173510 0.599207 0.260512
O O3 0.159993 0.659993 0.356508
O O4 0.320831 0.637058 0.317408
O O5 0.864748 0.378041 0.164520
O O6 0.895538 0.250000 0.231509
O O7 0.000000 0.391417 0.232238
O O8 0.282651 0.500000 0.622583
O O9 0.179169 0.362943 0.645609
O O10 0.326491 0.400793 0.702504
O O11 0.864745 0.878042 0.298496
O O12 0.000000 0.911486 0.359862
O O13 0.852078 0.000000 0.373236
O O14 0.500000 0.352077 0.339781
O O15 0.588513 0.500000 0.353152
O O16 0.891417 0.500000 0.480780
#
# Coordination Sequence:
#
# PCOD8307851 Si02
#       6
#    16  16  16  16  16  16
#     4  11  20  29  45  70  96 124 157 191 227 274
#     4  10  18  30  46  68  99 130 155 184 231 287
#     4  11  20  29  45  70  96 124 157 191 227 274
#     4   9  18  32  47  64  92 129 161 188 227 280
#     4   9  18  32  47  64  92 129 161 188 227 280
#     4  10  18  30  46  68  99 130 155 184 231 287
#
# _framework density 16.900065000000001
#
# number of rings (size 3 to 8) (size 9 to 14) (size 15 to 20)
#    0.000    2.000    3.333    2.000    0.000    3.667 
#    0.000    0.000    0.000    1.000    0.000    0.000 
#    0.000    0.667    0.000    0.000    0.000    0.000 
#
# Total GULP energy -594769.353639 kJ/mol
# GULP energy per Si atom -12391.028201 kJ/mol
# Density = 1.686160 g / cm^3
# Si number density = 16.900065 Si / 1000 Ang^3
#
#
#
# Elastic Constant Matrix: (Units=GPa)
#
#
# Indices 1 2 3 4 5 6 
#
# 1 102.3145 23.6473 25.8724 0.0000 0.0000 0.0000
# 2 23.6473 102.3145 25.8724 0.0000 0.0000 0.0000
# 3 25.8724 25.8724 52.3389 0.0000 0.0000 0.0000
# 4 0.0000 0.0000 0.0000 19.7570 0.0000 0.0000
# 5 0.0000 0.0000 0.0000 0.0000 19.7570 0.0000
# 6 0.0000 0.0000 0.0000 0.0000 0.0000 8.1389
#
#
#
# Elastic Compliance Matrix: (Units=1/GPa)
#
#
# Indices 1 2 3 4 5 6 
#
# 1 0.011337 -0.001375 -0.004924 0.000000 0.000000 0.000000
# 2 -0.001375 0.011337 -0.004924 0.000000 0.000000 0.000000
# 3 -0.004924 -0.004924 0.023975 0.000000 0.000000 0.000000
# 4 0.000000 0.000000 0.000000 0.050615 0.000000 0.000000
# 5 0.000000 0.000000 0.000000 0.000000 0.050615 0.000000
# 6 0.000000 0.000000 0.000000 0.000000 0.000000 0.122867
#
#
# Mechanical properties :
#
#
# Convention : Reuss Voigt Hill
#
# Bulk Modulus (GPa) = 41.32080 45.30579 43.31330
# Shear Modulus (GPa) = 16.59697 21.63564 19.11630
#
# Velocity S-wave (km/s) = 3.13719 3.58188 3.36689
# Velocity P-wave (km/s) = 6.13399 6.63120 6.38743
#
# Compressibility (1/GPa) = 0.02420088
#
# Stress axis : x y z
#
# Youngs Moduli (GPa) = 88.20830 88.20830 41.71062
#
# Poissons Ratio (x) = 0.12128 0.20540
# Poissons Ratio (y) = 0.12128 0.20540
# Poissons Ratio (z) = 0.43437 0.43437
#
# Static dielectric constant tensor:
#      x y z
#    x 3.459390 0.000000 0.000000 
#    y 0.000000 3.459390 0.000000 
#    z 0.000000 0.000000 3.168260 
# 
# 
# High freq. dielectric constant tensor:
#      x y z
#    x 1.637270 0.000000 0.000000 
#    y 0.000000 1.637270 0.000000 
#    z 0.000000 0.000000 1.627060 
# 
# From -- ./inp_files/5682.got.cif
#   From: 2010.03.12/outbox.cif.g09.slc.cpg/sg109_3_cif.got.tgz:5682.got - 2010.04.14 01:55:16.
