data_PCOD8307098
_publ_section_title
;
Structure prediction by ZEFSAII (Michael W. Deem and Ramdas Pophale) SiO2 
 PCOD8307098
Probable space group: P 42 M C
;
_chemical_formula_sum "Si O2"
_cell_formula_units_Z 40
_cell_length_a 22.790611
_cell_length_b 22.790611
_cell_length_c 5.263232
_cell_angle_alpha 90.000000
_cell_angle_beta 90.000000
_cell_angle_gamma 90.000000
_cell_volume 2733.785595
_symmetry_space_group_name_H-M "P 42 M C"
_symmetry_group_IT_number 105
_symmetry_cell_setting 'tetragonal'
loop_
_space_group_symop_operation_xyz
x,y,z
-y,x,1/2+z
-x,-y,z
y,-x,1/2+z
-x,y,z
x,-y,z
-y,-x,1/2+z
y,x,1/2+z
loop_
_atom_site_type_symbol
_atom_site_label
_atom_site_fract_x
_atom_site_fract_y
_atom_site_fract_z
Si Si1 0.732882 0.646596 0.337740
Si Si2 0.432572 0.381597 0.832368
Si Si3 0.122783 0.931228 0.341428
Si Si4 0.213304 0.161907 0.288968
Si Si5 0.675468 0.773812 0.337832
O O1 0.676517 0.605994 0.329910
O O2 0.714973 0.714893 0.339980
O O3 0.771448 0.633567 0.589686
O O4 0.773528 0.635061 0.090224
O O5 0.500000 0.362639 0.830365
O O6 0.419220 0.419937 0.583713
O O7 0.093633 0.916940 0.612672
O O8 0.188561 0.903954 0.326335
O O9 0.129378 0.000000 0.310172
O O10 0.181399 0.201987 0.499606
O O11 0.283224 0.168259 0.333312
#
# Coordination Sequence:
#
# PCOD8307098 Si02
#       5
#     8   8   8   8   8
#     4  10  16  27  44  61  77  93 121 167 207 244
#     4  12  23  35  45  57  77 108 144 178 204 230
#     4  10  21  32  43  58  82 112 152 184 203 227
#     4  10  16  25  41  64  77  95 126 173 208 244
#     4  10  14  25  46  60  77  91 119 165 209 251
#
# _framework density 14.631724999999999
#
# number of rings (size 3 to 8) (size 9 to 14) (size 15 to 20)
#    0.000    1.600    8.000    1.200    0.000    2.400 
#    0.000    0.000    0.000    0.000    0.000    0.000 
#    0.000    0.000    0.000    0.000    0.000    6.000 
#
# Total GULP energy -495625.960824 kJ/mol
# GULP energy per Si atom -12390.649021 kJ/mol
# Density = 1.459842 g / cm^3
# Si number density = 14.631725 Si / 1000 Ang^3
#
#
#
# Elastic Constant Matrix: (Units=GPa)
#
#
# Indices 1 2 3 4 5 6 
#
# 1 45.0042 45.2210 17.8211 0.0000 0.0000 0.0000
# 2 45.2210 45.0042 17.8211 0.0000 0.0000 0.0000
# 3 17.8211 17.8211 125.6920 0.0000 0.0000 0.0000
# 4 0.0000 0.0000 0.0000 12.0174 0.0000 0.0000
# 5 0.0000 0.0000 0.0000 0.0000 12.0174 0.0000
# 6 0.0000 0.0000 0.0000 0.0000 0.0000 8.3295
#
#
#
# Elastic Compliance Matrix: (Units=1/GPa)
#
#
# Indices 1 2 3 4 5 6 
#
# 1 -2.299669 2.311410 -0.001665 0.000000 0.000000 0.000000
# 2 2.311410 -2.299669 -0.001665 0.000000 0.000000 0.000000
# 3 -0.001665 -0.001665 0.008428 0.000000 0.000000 0.000000
# 4 0.000000 0.000000 0.000000 0.083213 0.000000 0.000000
# 5 0.000000 0.000000 0.000000 0.000000 0.083213 0.000000
# 6 0.000000 0.000000 0.000000 0.000000 0.000000 0.120055
#
#
# Mechanical properties :
#
#
# Convention : Reuss Voigt Hill
#
# Bulk Modulus (GPa) = 39.60202 41.93633 40.76917
# Shear Modulus (GPa) = -0.56103 15.46200 7.45049
#
# Velocity S-wave (km/s) = -0.61989 3.25429 2.25900
# Velocity P-wave (km/s) = 5.15871 6.54553 5.89306
#
# Compressibility (1/GPa) = 0.02525124
#
# Stress axis : x y z
#
# Youngs Moduli (GPa) = -0.43485 -0.43485 118.65205
#
# Poissons Ratio (x) = 1.00511 0.19752
# Poissons Ratio (y) = 1.00511 0.19752
# Poissons Ratio (z) = -0.00072 -0.00072
#
# Static dielectric constant tensor:
#      x y z
#    x 2.613870 0.000000 0.000000 
#    y 0.000000 2.613870 0.000000 
#    z 0.000000 0.000000 4.848750 
# 
# 
# High freq. dielectric constant tensor:
#      x y z
#    x 1.515090 0.000000 0.000000 
#    y 0.000000 1.515090 0.000000 
#    z 0.000000 0.000000 1.602500 
# 
# From -- ./inp_files/216.got.cif
#   From: 2010.03.12/outbox.cif.g09.slc.cpg/sg105_1_cif.got.tgz:216.got - 2010.04.14 01:45:32.
