data_PCOD8307278
_publ_section_title
;
Structure prediction by ZEFSAII (Michael W. Deem and Ramdas Pophale) SiO2 
 PCOD8307278
Probable space group: P 42 M C
;
_chemical_formula_sum "Si O2"
_cell_formula_units_Z 48
_cell_length_a 8.122169
_cell_length_b 8.122169
_cell_length_c 34.214395
_cell_angle_alpha 90.000000
_cell_angle_beta 90.000000
_cell_angle_gamma 90.000000
_cell_volume 2257.110954
_symmetry_space_group_name_H-M "P 42 M C"
_symmetry_group_IT_number 105
_symmetry_cell_setting 'tetragonal'
loop_
_space_group_symop_operation_xyz
x,y,z
-y,x,1/2+z
-x,-y,z
y,-x,1/2+z
-x,y,z
x,-y,z
-y,-x,1/2+z
y,x,1/2+z
loop_
_atom_site_type_symbol
_atom_site_label
_atom_site_fract_x
_atom_site_fract_y
_atom_site_fract_z
Si Si1 0.310619 0.811157 0.572590
Si Si2 0.681812 0.304589 0.328465
Si Si3 0.303959 0.180625 0.748052
Si Si4 0.187051 0.500000 0.619779
Si Si5 0.500000 0.689225 0.204523
Si Si6 0.184357 0.808199 0.489262
Si Si7 0.816691 0.692871 0.408590
O O1 0.500000 0.803394 0.584720
O O2 0.216747 0.669765 0.596369
O O3 0.293065 0.764944 0.526996
O O4 0.243664 0.000000 0.580421
O O5 0.500000 0.242414 0.317950
O O6 0.686705 0.500000 0.331713
O O7 0.799143 0.246387 0.293161
O O8 0.731187 0.226821 0.370494
O O9 0.500000 0.183951 0.745180
O O10 0.230307 0.331270 0.722012
O O11 0.239782 0.000000 0.733626
O O12 0.299348 0.500000 0.657990
O O13 0.000000 0.500000 0.633630
O O14 0.500000 0.500000 0.217414
O O15 0.270232 0.734369 0.450097
O O16 0.000000 0.734739 0.495591
O O17 0.174540 0.000000 0.482932
O O18 0.819298 0.500000 0.402508
O O19 0.000000 0.766869 0.410862
#
# Coordination Sequence:
#
# PCOD8307278 Si02
#       7
#     8   8   8   4   4   8   8
#     4  10  22  41  64  90 119 153 196 248 303 361
#     4   9  15  25  42  69 105 140 179 230 284 335
#     4   9  16  28  50  78 109 145 180 224 287 350
#     4  12  26  42  64  90 120 158 196 242 300 368
#     4  10  20  36  56  84 114 140 184 238 290 348
#     4   9  18  33  52  75 108 150 193 235 284 346
#     4   9  17  27  42  69 104 141 184 231 277 331
#
# _framework density 21.266124999999999
#
# number of rings (size 3 to 8) (size 9 to 14) (size 15 to 20)
#    0.000    2.500    0.833    1.750    1.167    4.333 
#    0.000    1.667    0.000    1.000    0.000    0.000 
#    0.000    0.000    0.000    0.000    0.000    0.000 
#
# Total GULP energy -594715.877522 kJ/mol
# GULP energy per Si atom -12389.914115 kJ/mol
# Density = 2.121772 g / cm^3
# Si number density = 21.266125 Si / 1000 Ang^3
#
#
#
# Elastic Constant Matrix: (Units=GPa)
#
#
# Indices 1 2 3 4 5 6 
#
# 1 75.5784 22.6717 34.8160 0.0000 0.0000 0.0000
# 2 22.6717 75.5784 34.8160 0.0000 0.0000 0.0000
# 3 34.8160 34.8160 129.1136 0.0000 0.0000 0.0000
# 4 0.0000 0.0000 0.0000 5.8464 0.0000 0.0000
# 5 0.0000 0.0000 0.0000 0.0000 5.8464 0.0000
# 6 0.0000 0.0000 0.0000 0.0000 0.0000 12.5901
#
#
#
# Elastic Compliance Matrix: (Units=1/GPa)
#
#
# Indices 1 2 3 4 5 6 
#
# 1 0.015742 -0.003159 -0.003393 0.000000 0.000000 0.000000
# 2 -0.003159 0.015742 -0.003393 0.000000 0.000000 0.000000
# 3 -0.003393 -0.003393 0.009575 0.000000 0.000000 0.000000
# 4 0.000000 0.000000 0.000000 0.171045 0.000000 0.000000
# 5 0.000000 0.000000 0.000000 0.000000 0.171045 0.000000
# 6 0.000000 0.000000 0.000000 0.000000 0.000000 0.079427
#
#
# Mechanical properties :
#
#
# Convention : Reuss Voigt Hill
#
# Bulk Modulus (GPa) = 47.23980 51.65307 49.44643
# Shear Modulus (GPa) = 10.21402 17.38769 13.80085
#
# Velocity S-wave (km/s) = 2.19394 2.86251 2.55023
# Velocity P-wave (km/s) = 5.35534 5.93860 5.65450
#
# Compressibility (1/GPa) = 0.02116859
#
# Stress axis : x y z
#
# Youngs Moduli (GPa) = 63.52428 63.52428 104.43869
#
# Poissons Ratio (x) = 0.20069 0.35436
# Poissons Ratio (y) = 0.20069 0.35436
# Poissons Ratio (z) = 0.21554 0.21554
#
# Static dielectric constant tensor:
#      x y z
#    x 3.729070 0.000000 0.000000 
#    y 0.000000 3.729070 0.000000 
#    z 0.000000 0.000000 3.912830 
# 
# 
# High freq. dielectric constant tensor:
#      x y z
#    x 1.808480 0.000000 0.000000 
#    y 0.000000 1.808480 0.000000 
#    z 0.000000 0.000000 1.838770 
# 
# From -- ./inp_files/4761.got.cif
#   From: 2010.03.12/outbox.cif.g09.slc.cpg/sg105_3_cif.got.tgz:4761.got - 2010.04.14 01:45:32.
