data_PCOD8307215
_publ_section_title
;
Structure prediction by ZEFSAII (Michael W. Deem and Ramdas Pophale) SiO2 
 PCOD8307215
Probable space group: P 42 M C
;
_chemical_formula_sum "Si O2"
_cell_formula_units_Z 48
_cell_length_a 9.307461
_cell_length_b 9.307461
_cell_length_c 31.033958
_cell_angle_alpha 90.000000
_cell_angle_beta 90.000000
_cell_angle_gamma 90.000000
_cell_volume 2688.435480
_symmetry_space_group_name_H-M "P 42 M C"
_symmetry_group_IT_number 105
_symmetry_cell_setting 'tetragonal'
loop_
_space_group_symop_operation_xyz
x,y,z
-y,x,1/2+z
-x,-y,z
y,-x,1/2+z
-x,y,z
x,-y,z
-y,-x,1/2+z
y,x,1/2+z
loop_
_atom_site_type_symbol
_atom_site_label
_atom_site_fract_x
_atom_site_fract_y
_atom_site_fract_z
Si Si1 0.832410 0.332289 0.538100
Si Si2 0.840366 0.171015 0.788098
Si Si3 0.334973 0.332777 0.623246
Si Si4 0.829671 0.334923 0.963999
Si Si5 0.170973 0.839680 0.882156
Si Si6 0.333126 0.833244 0.707013
O O1 0.806256 0.500000 0.529147
O O2 0.763207 0.285948 0.583351
O O3 0.755458 0.242249 0.501462
O O4 0.000000 0.293482 0.538991
O O5 0.776342 0.215837 0.835025
O O6 0.742997 0.231299 0.749441
O O7 0.000000 0.234598 0.781760
O O8 0.845080 0.000000 0.786779
O O9 0.500000 0.291445 0.612756
O O10 0.319563 0.500000 0.633333
O O11 0.276631 0.248413 0.664807
O O12 0.780090 0.500000 0.966644
O O13 0.775169 0.270365 0.918543
O O14 0.000000 0.320148 0.968613
O O15 0.000000 0.846881 0.880823
O O16 0.231354 0.000000 0.892219
O O17 0.500000 0.804754 0.713711
O O18 0.296959 0.000000 0.700674
#
# Coordination Sequence:
#
# PCOD8307215 Si02
#       6
#     8   8   8   8   8   8
#     4  10  21  36  53  73  97 126 162 203 246 293
#     4   8  14  26  45  67  91 122 157 190 229 277
#     4   9  18  33  50  66  90 126 159 188 233 291
#     4  10  20  33  51  75 101 129 162 200 243 292
#     4   8  14  27  47  68  92 124 159 194 234 281
#     4   9  17  29  46  69  95 121 153 195 237 277
#
# _framework density 17.85425
#
# number of rings (size 3 to 8) (size 9 to 14) (size 15 to 20)
#    0.000    3.000    0.000    2.000    0.000    3.333 
#    0.000    3.333    0.000    4.000    0.000    0.000 
#    0.000    0.000    0.000    0.000    0.000    0.000 
#
# Total GULP energy -595068.701496 kJ/mol
# GULP energy per Si atom -12397.264615 kJ/mol
# Density = 1.781361 g / cm^3
# Si number density = 17.854250 Si / 1000 Ang^3
#
#
#
# Elastic Constant Matrix: (Units=GPa)
#
#
# Indices 1 2 3 4 5 6 
#
# 1 64.0532 33.2307 68.8823 0.0000 0.0000 0.0000
# 2 33.2307 64.0532 68.8823 0.0000 0.0000 0.0000
# 3 68.8823 68.8823 191.1373 0.0000 0.0000 0.0000
# 4 0.0000 0.0000 0.0000 0.9607 0.0000 0.0000
# 5 0.0000 0.0000 0.0000 0.0000 0.9607 0.0000
# 6 0.0000 0.0000 0.0000 0.0000 0.0000 19.0609
#
#
#
# Elastic Compliance Matrix: (Units=1/GPa)
#
#
# Indices 1 2 3 4 5 6 
#
# 1 0.026718 -0.005726 -0.007565 0.000000 0.000000 0.000000
# 2 -0.005726 0.026718 -0.007565 0.000000 0.000000 0.000000
# 3 -0.007565 -0.007565 0.010685 0.000000 0.000000 0.000000
# 4 0.000000 0.000000 0.000000 1.040937 0.000000 0.000000
# 5 0.000000 0.000000 0.000000 0.000000 1.040937 0.000000
# 6 0.000000 0.000000 0.000000 0.000000 0.000000 0.052464
#
#
# Mechanical properties :
#
#
# Convention : Reuss Voigt Hill
#
# Bulk Modulus (GPa) = 44.62620 73.47049 59.04835
# Shear Modulus (GPa) = 2.22456 14.07967 8.15211
#
# Velocity S-wave (km/s) = 1.11743 2.81123 2.13912
# Velocity P-wave (km/s) = 5.16855 7.19561 6.26461
#
# Compressibility (1/GPa) = 0.02240836
#
# Stress axis : x y z
#
# Youngs Moduli (GPa) = 37.42777 37.42777 93.59259
#
# Poissons Ratio (x) = 0.21430 0.70805
# Poissons Ratio (y) = 0.21430 0.70805
# Poissons Ratio (z) = 0.28315 0.28315
#
# Static dielectric constant tensor:
#      x y z
#    x 3.190400 0.000000 0.000000 
#    y 0.000000 3.190400 0.000000 
#    z 0.000000 0.000000 3.712680 
# 
# 
# High freq. dielectric constant tensor:
#      x y z
#    x 1.668860 0.000000 0.000000 
#    y 0.000000 1.668860 0.000000 
#    z 0.000000 0.000000 1.708040 
# 
# From -- ./inp_files/4702.got.cif
#   From: 2010.03.12/outbox.cif.g09.slc.cpg/sg105_3_cif.got.tgz:4702.got - 2010.04.14 01:45:32.
