data_PCOD8307877
_publ_section_title
;
Structure prediction by ZEFSAII (Michael W. Deem and Ramdas Pophale) SiO2 
 PCOD8307877
Probable space group: I 41 M D
;
_chemical_formula_sum "Si O2"
_cell_formula_units_Z 128
_cell_length_a 19.534097
_cell_length_b 19.534097
_cell_length_c 18.271804
_cell_angle_alpha 90.000000
_cell_angle_beta 90.000000
_cell_angle_gamma 90.000000
_cell_volume 6972.172248
_symmetry_space_group_name_H-M "I 41 M D"
_symmetry_group_IT_number 109
_symmetry_cell_setting 'tetragonal'
loop_
_space_group_symop_operation_xyz
x,y,z
-y,1/2+x,1/4+z
-x,-y,z
y,1/2-x,1/4+z
-x,y,z
x,-y,z
-y,1/2-x,1/4+z
y,1/2+x,1/4+z
1/2+x,1/2+y,1/2+z
1/2-y,x,3/4+z
1/2-x,1/2-y,1/2+z
1/2+y,-x,3/4+z
1/2-x,1/2+y,1/2+z
1/2+x,1/2-y,1/2+z
1/2-y,-x,3/4+z
1/2+y,x,3/4+z
loop_
_atom_site_type_symbol
_atom_site_label
_atom_site_fract_x
_atom_site_fract_y
_atom_site_fract_z
Si Si1 0.576756 0.819793 0.854950
Si Si2 0.146559 0.328375 0.502492
Si Si3 0.423914 0.425192 0.123281
Si Si4 0.327366 0.153883 0.276201
Si Si5 0.305287 0.310748 0.498945
Si Si6 0.801750 0.676335 0.083132
Si Si7 0.921897 0.841483 0.380937
Si Si8 0.076259 0.576477 0.045766
O O1 0.500000 0.846938 0.841981
O O2 0.606795 0.851391 0.929574
O O3 0.621458 0.841204 0.783513
O O4 0.578685 0.738818 0.866450
O O5 0.130434 0.251612 0.530647
O O6 0.226720 0.329761 0.487196
O O7 0.122619 0.383246 0.563249
O O8 0.500000 0.414333 0.091650
O O9 0.396343 0.500000 0.098047
O O10 0.376418 0.364800 0.096048
O O11 0.425193 0.421781 0.209454
O O12 0.340633 0.235610 0.282600
O O13 0.360147 0.123036 0.202375
O O14 0.331483 0.285846 0.419713
O O15 0.321231 0.253209 0.559814
O O16 0.865798 0.627359 0.072567
O O17 0.000000 0.868689 0.388635
O O18 0.091276 0.500000 0.076110
O O19 0.000000 0.600169 0.071888
#
# Coordination Sequence:
#
# PCOD8307877 Si02
#       8
#    16  16  16  16  16  16  16  16
#     4   9  17  32  53  76 106 147 190 229 273 332
#     4   9  18  32  51  76 109 142 184 234 273 322
#     4   9  18  34  53  72 104 147 180 212 263 328
#     4  10  20  29  53  82 113 140 182 229 278 329
#     4  10  19  33  51  83 113 141 176 230 290 326
#     4  11  21  32  56  82 111 140 177 231 288 331
#     4   9  18  32  51  77 111 151 188 226 278 332
#     4   9  20  38  56  74 102 142 181 219 272 339
#
# _framework density 18.358699000000001
#
# number of rings (size 3 to 8) (size 9 to 14) (size 15 to 20)
#    0.000    2.500    1.250    1.875    7.000    1.500 
#    0.000    1.250    0.000    1.875    0.000    0.000 
#    0.000    0.000    0.000    0.000    0.000    0.000 
#
# Total GULP energy -793068.550811 kJ/mol
# GULP energy per Si atom -12391.696106 kJ/mol
# Density = 1.831691 g / cm^3
# Si number density = 18.358699 Si / 1000 Ang^3
#
#
#
# Elastic Constant Matrix: (Units=GPa)
#
#
# Indices 1 2 3 4 5 6 
#
# 1 80.4421 35.9408 40.8890 0.0000 0.0000 0.0000
# 2 35.9408 80.4421 40.8890 0.0000 0.0000 0.0000
# 3 40.8890 40.8890 100.1785 0.0000 0.0000 0.0000
# 4 0.0000 0.0000 0.0000 21.4777 0.0000 0.0000
# 5 0.0000 0.0000 0.0000 0.0000 21.4777 0.0000
# 6 0.0000 0.0000 0.0000 0.0000 0.0000 18.8519
#
#
#
# Elastic Compliance Matrix: (Units=1/GPa)
#
#
# Indices 1 2 3 4 5 6 
#
# 1 0.017259 -0.005212 -0.004917 0.000000 0.000000 0.000000
# 2 -0.005212 0.017259 -0.004917 0.000000 0.000000 0.000000
# 3 -0.004917 -0.004917 0.013996 0.000000 0.000000 0.000000
# 4 0.000000 0.000000 0.000000 0.046560 0.000000 0.000000
# 5 0.000000 0.000000 0.000000 0.000000 0.046560 0.000000
# 6 0.000000 0.000000 0.000000 0.000000 0.000000 0.053045
#
#
# Mechanical properties :
#
#
# Convention : Reuss Voigt Hill
#
# Bulk Modulus (GPa) = 54.28278 55.16673 54.72475
# Shear Modulus (GPa) = 21.65309 21.91771 21.78540
#
# Velocity S-wave (km/s) = 3.43803 3.45898 3.44852
# Velocity P-wave (km/s) = 6.73737 6.78729 6.76238
#
# Compressibility (1/GPa) = 0.01842205
#
# Stress axis : x y z
#
# Youngs Moduli (GPa) = 57.93938 57.93938 71.44725
#
# Poissons Ratio (x) = 0.30197 0.35133
# Poissons Ratio (y) = 0.30197 0.35133
# Poissons Ratio (z) = 0.28491 0.28491
#
# Static dielectric constant tensor:
#      x y z
#    x 3.447850 0.000000 0.000000 
#    y 0.000000 3.447850 0.000000 
#    z 0.000000 0.000000 3.432760 
# 
# 
# High freq. dielectric constant tensor:
#      x y z
#    x 1.692380 0.000000 0.000000 
#    y 0.000000 1.692380 0.000000 
#    z 0.000000 0.000000 1.712130 
# 
# From -- ./inp_files/3323.got.cif
#   From: 2010.03.12/outbox.cif.g09.slc.cpg/sg109_2_cif.got.tgz:3323.got - 2010.04.14 01:55:16.
