data_PCOD8307492
_publ_section_title
;
Structure prediction by ZEFSAII (Michael W. Deem and Ramdas Pophale) SiO2 
 PCOD8307492
Probable space group: I 4 M M
;
_chemical_formula_sum "Si O2"
_cell_formula_units_Z 112
_cell_length_a 19.787160
_cell_length_b 19.787160
_cell_length_c 17.570809
_cell_angle_alpha 90.000000
_cell_angle_beta 90.000000
_cell_angle_gamma 90.000000
_cell_volume 6879.528733
_symmetry_space_group_name_H-M "I 4 M M"
_symmetry_group_IT_number 107
_symmetry_cell_setting 'tetragonal'
loop_
_space_group_symop_operation_xyz
x,y,z
-y,x,z
-x,-y,z
y,-x,z
-x,y,z
x,-y,z
-y,-x,z
y,x,z
1/2+x,1/2+y,1/2+z
1/2-y,1/2+x,1/2+z
1/2-x,1/2-y,1/2+z
1/2+y,1/2-x,1/2+z
1/2-x,1/2+y,1/2+z
1/2+x,1/2-y,1/2+z
1/2-y,1/2-x,1/2+z
1/2+y,1/2+x,1/2+z
loop_
_atom_site_type_symbol
_atom_site_label
_atom_site_fract_x
_atom_site_fract_y
_atom_site_fract_z
Si Si1 0.235940 0.348902 0.989270
Si Si2 0.809374 0.922106 0.786193
Si Si3 0.135942 0.249070 0.931760
Si Si4 0.690627 0.422106 0.863050
Si Si5 0.687246 0.575242 0.574621
Si Si6 0.264060 0.151098 0.659973
Si Si7 0.135944 0.750929 0.217485
O O1 0.286176 0.286176 0.994970
O O2 0.168371 0.323288 0.945384
O O3 0.270841 0.409222 0.942487
O O4 0.218392 0.374539 0.074621
O O5 0.877036 0.877036 0.793537
O O6 0.755828 0.904958 0.852951
O O7 0.770842 0.909223 0.706755
O O8 0.831703 0.000000 0.790305
O O9 0.195525 0.195525 0.929150
O O10 0.085955 0.233532 0.001017
O O11 0.668297 0.500000 0.858939
O O12 0.622966 0.377035 0.855704
O O13 0.744174 0.404961 0.796291
O O14 0.658360 0.500000 0.574626
O O15 0.622974 0.622974 0.574618
O O16 0.733530 0.585961 0.648225
O O17 0.213824 0.213824 0.654274
O O18 0.331629 0.176710 0.703860
O O19 0.195529 0.804472 0.220104
#
# Coordination Sequence:
#
# PCOD8307492 Si02
#       7
#    16  16  16  16  16  16  16
#     4   9  16  29  49  69  88 115 154 203 253 284
#     4  10  20  31  45  67  97 132 164 192 225 273
#     4   9  16  29  46  65  89 119 156 199 243 274
#     4  10  20  31  45  67  97 132 164 192 225 273
#     4  10  18  27  42  64  95 131 160 186 218 266
#     4   9  16  29  49  69  88 115 154 203 253 284
#     4   9  16  29  46  65  89 119 156 199 243 274
#
# _framework density 16.280184999999999
#
# number of rings (size 3 to 8) (size 9 to 14) (size 15 to 20)
#    0.000    2.571    1.429    1.714    0.000    4.429 
#    0.000    0.000    0.000    5.143    0.000    4.000 
#    0.000   20.571    0.000    0.000    0.000    0.000 
#
# Total GULP energy -694128.666989 kJ/mol
# GULP energy per Si atom -12395.154768 kJ/mol
# Density = 1.624313 g / cm^3
# Si number density = 16.280185 Si / 1000 Ang^3
#
#
#
# Elastic Constant Matrix: (Units=GPa)
#
#
# Indices 1 2 3 4 5 6 
#
# 1 51.3714 41.1967 39.2681 0.0000 0.0000 0.0000
# 2 41.1967 51.3714 39.2681 0.0000 0.0000 0.0000
# 3 39.2681 39.2681 122.1583 0.0000 0.0000 0.0000
# 4 0.0000 0.0000 0.0000 12.0261 0.0000 0.0000
# 5 0.0000 0.0000 0.0000 0.0000 12.0261 0.0000
# 6 0.0000 0.0000 0.0000 0.0000 0.0000 11.6915
#
#
#
# Elastic Compliance Matrix: (Units=1/GPa)
#
#
# Indices 1 2 3 4 5 6 
#
# 1 0.056569 -0.041715 -0.004775 0.000000 0.000000 0.000000
# 2 -0.041715 0.056569 -0.004775 0.000000 0.000000 0.000000
# 3 -0.004775 -0.004775 0.011256 0.000000 0.000000 0.000000
# 4 0.000000 0.000000 0.000000 0.083152 0.000000 0.000000
# 5 0.000000 0.000000 0.000000 0.000000 0.083152 0.000000
# 6 0.000000 0.000000 0.000000 0.000000 0.000000 0.085532
#
#
# Mechanical properties :
#
#
# Convention : Reuss Voigt Hill
#
# Bulk Modulus (GPa) = 45.73655 51.59633 48.66644
# Shear Modulus (GPa) = 10.28708 14.15997 12.22352
#
# Velocity S-wave (km/s) = 2.51644 2.95238 2.74309
# Velocity P-wave (km/s) = 6.04960 6.58662 6.32382
#
# Compressibility (1/GPa) = 0.02186435
#
# Stress axis : x y z
#
# Youngs Moduli (GPa) = 17.67764 17.67764 88.84266
#
# Poissons Ratio (x) = 0.73742 0.42421
# Poissons Ratio (y) = 0.73742 0.42421
# Poissons Ratio (z) = 0.08441 0.08441
#
# Static dielectric constant tensor:
#      x y z
#    x 2.799580 0.000000 0.000000 
#    y 0.000000 2.799580 0.000000 
#    z 0.000000 0.000000 3.471920 
# 
# 
# High freq. dielectric constant tensor:
#      x y z
#    x 1.589600 0.000000 0.000000 
#    y 0.000000 1.589600 0.000000 
#    z 0.000000 0.000000 1.648740 
# 
# From -- ./inp_files/4276.got.cif
#   From: 2010.03.12/outbox.cif.g09.slc.cpg/sg107_3_cif.got.tgz:4276.got - 2010.04.14 01:49:11.
