data_PCOD8307617
_publ_section_title
;
Structure prediction by ZEFSAII (Michael W. Deem and Ramdas Pophale) SiO2 
 PCOD8307617
Probable space group: I 4 M M
;
_chemical_formula_sum "Si O2"
_cell_formula_units_Z 96
_cell_length_a 13.613968
_cell_length_b 13.613968
_cell_length_c 31.052620
_cell_angle_alpha 90.000000
_cell_angle_beta 90.000000
_cell_angle_gamma 90.000000
_cell_volume 5755.296463
_symmetry_space_group_name_H-M "I 4 M M"
_symmetry_group_IT_number 107
_symmetry_cell_setting 'tetragonal'
loop_
_space_group_symop_operation_xyz
x,y,z
-y,x,z
-x,-y,z
y,-x,z
-x,y,z
x,-y,z
-y,-x,z
y,x,z
1/2+x,1/2+y,1/2+z
1/2-y,1/2+x,1/2+z
1/2-x,1/2-y,1/2+z
1/2+y,1/2-x,1/2+z
1/2-x,1/2+y,1/2+z
1/2+x,1/2-y,1/2+z
1/2-y,1/2-x,1/2+z
1/2+y,1/2+x,1/2+z
loop_
_atom_site_type_symbol
_atom_site_label
_atom_site_fract_x
_atom_site_fract_y
_atom_site_fract_z
Si Si1 0.722791 0.114876 0.989870
Si Si2 0.612997 0.887003 0.333455
Si Si3 0.732972 0.110653 0.083455
Si Si4 0.726332 0.885639 0.747862
Si Si5 0.114361 0.273668 0.419049
Si Si6 0.277210 0.114876 0.177040
O O1 0.823189 0.176812 0.982791
O O2 0.639934 0.149824 0.956779
O O3 0.746248 0.000000 0.982300
O O4 0.677141 0.133876 0.038261
O O5 0.500000 0.868864 0.345838
O O6 0.644907 0.821671 0.293077
O O7 0.678329 0.855093 0.373834
O O8 0.631136 0.000000 0.321073
O O9 0.835235 0.164766 0.083456
O O10 0.677139 0.133875 0.128649
O O11 0.766818 0.000000 0.083455
O O12 0.827769 0.827769 0.741644
O O13 0.649824 0.860067 0.710132
O O14 0.751128 0.000000 0.745879
O O15 0.172231 0.172231 0.425267
O O16 0.000000 0.248872 0.421032
O O17 0.176813 0.176813 0.184119
O O18 0.253753 0.000000 0.184610
#
# Coordination Sequence:
#
# PCOD8307617 Si02
#       6
#    16  16  16  16  16  16
#     4   9  17  29  46  69  96 124 153 185 224 272
#     4   9  17  30  50  74  95 115 142 178 223 277
#     4   8  14  25  41  63  92 122 150 182 221 268
#     4  10  20  33  49  68  91 121 156 193 230 267
#     4  10  20  33  49  68  91 121 156 193 230 267
#     4   9  17  29  46  69  96 124 153 185 224 272
#
# _framework density 16.680288000000001
#
# number of rings (size 3 to 8) (size 9 to 14) (size 15 to 20)
#    0.000    2.833    0.000    1.500    0.000    2.833 
#    0.000    4.167    0.000    3.000    0.000    4.667 
#    0.000    6.667    0.000    0.000    0.000    0.000 
#
# Total GULP energy -594774.558996 kJ/mol
# GULP energy per Si atom -12391.136646 kJ/mol
# Density = 1.664232 g / cm^3
# Si number density = 16.680288 Si / 1000 Ang^3
#
#
#
# Elastic Constant Matrix: (Units=GPa)
#
#
# Indices 1 2 3 4 5 6 
#
# 1 71.7780 32.0253 51.4740 0.0000 0.0000 0.0004
# 2 32.0253 71.7780 51.4740 0.0000 0.0000 -0.0004
# 3 51.4740 51.4740 138.5553 0.0000 0.0000 0.0000
# 4 0.0000 0.0000 0.0000 25.0604 0.0000 0.0000
# 5 0.0000 0.0000 0.0000 0.0000 25.0604 0.0000
# 6 0.0004 -0.0004 0.0000 0.0000 0.0000 14.3391
#
#
#
# Elastic Compliance Matrix: (Units=1/GPa)
#
#
# Indices 1 2 3 4 5 6 
#
# 1 0.020205 -0.004951 -0.005667 0.000000 0.000000 -0.000001
# 2 -0.004951 0.020205 -0.005667 0.000000 0.000000 0.000001
# 3 -0.005667 -0.005667 0.011428 0.000000 0.000000 0.000000
# 4 0.000000 0.000000 0.000000 0.039904 0.000000 0.000000
# 5 0.000000 0.000000 0.000000 0.000000 0.039904 0.000000
# 6 -0.000001 0.000001 0.000000 0.000000 0.000000 0.069739
#
#
# Mechanical properties :
#
#
# Convention : Reuss Voigt Hill
#
# Bulk Modulus (GPa) = 51.89955 61.33976 56.61965
# Shear Modulus (GPa) = 20.80079 22.70119 21.75099
#
# Velocity S-wave (km/s) = 3.53516 3.69312 3.61500
# Velocity P-wave (km/s) = 6.91701 7.41884 7.17231
#
# Compressibility (1/GPa) = 0.01926799
#
# Stress axis : x y z
#
# Youngs Moduli (GPa) = 49.49360 49.49361 87.50541
#
# Poissons Ratio (x) = 0.24504 0.49588
# Poissons Ratio (y) = 0.24504 0.49588
# Poissons Ratio (z) = 0.28047 0.28047
#
# Static dielectric constant tensor:
#      x y z
#    x 2.911850 0.000000 0.000000 
#    y 0.000000 2.911850 0.000000 
#    z 0.000000 0.000000 3.610660 
# 
# 
# High freq. dielectric constant tensor:
#      x y z
#    x 1.624620 0.000000 0.000000 
#    y 0.000000 1.624620 0.000000 
#    z 0.000000 0.000000 1.666680 
# 
# From -- ./inp_files/6083.got.cif
#   From: 2010.03.12/outbox.cif.g09.slc.cpg/sg107_4_cif.got.tgz:6083.got - 2010.04.14 01:49:11.
