data_PCOD8307995
_publ_section_title
;
Structure prediction by ZEFSAII (Michael W. Deem and Ramdas Pophale) SiO2 
 PCOD8307995
Probable space group: I 41 M D
;
_chemical_formula_sum "Si O2"
_cell_formula_units_Z 96
_cell_length_a 21.671200
_cell_length_b 21.671200
_cell_length_c 14.649627
_cell_angle_alpha 90.000000
_cell_angle_beta 90.000000
_cell_angle_gamma 90.000000
_cell_volume 6880.064147
_symmetry_space_group_name_H-M "I 41 M D"
_symmetry_group_IT_number 109
_symmetry_cell_setting 'tetragonal'
loop_
_space_group_symop_operation_xyz
x,y,z
-y,1/2+x,1/4+z
-x,-y,z
y,1/2-x,1/4+z
-x,y,z
x,-y,z
-y,1/2-x,1/4+z
y,1/2+x,1/4+z
1/2+x,1/2+y,1/2+z
1/2-y,x,3/4+z
1/2-x,1/2-y,1/2+z
1/2+y,-x,3/4+z
1/2-x,1/2+y,1/2+z
1/2+x,1/2-y,1/2+z
1/2-y,-x,3/4+z
1/2+y,x,3/4+z
loop_
_atom_site_type_symbol
_atom_site_label
_atom_site_fract_x
_atom_site_fract_y
_atom_site_fract_z
Si Si1 0.707793 0.340276 0.232070
Si Si2 0.297820 0.702180 0.039521
Si Si3 0.340276 0.707793 0.846972
Si Si4 0.430493 0.179770 0.632427
Si Si5 0.930493 0.179770 0.196614
Si Si6 0.846434 0.846434 0.039521
O O1 0.685065 0.340351 0.126566
O O2 0.690784 0.274283 0.273322
O O3 0.671709 0.393415 0.287465
O O4 0.780838 0.351938 0.239100
O O5 0.309216 0.774283 0.055720
O O6 0.340351 0.685065 0.952476
O O7 0.393415 0.671709 0.791577
O O8 0.351938 0.780838 0.839942
O O9 0.500000 0.155888 0.617473
O O10 0.428597 0.250000 0.664521
O O11 0.398213 0.141234 0.712955
O O12 0.898213 0.141234 0.116086
O O13 0.000000 0.155888 0.211569
#
# Coordination Sequence:
#
# PCOD8307995 Si02
#       6
#    16  16  16  16  16  16
#     4   9  14  22  34  56  77 104 126 160 194 235
#     4   9  14  20  36  56  80 101 126 160 203 230
#     4   9  14  22  34  56  77 104 126 160 194 235
#     4   9  16  24  36  54  78 107 130 152 193 241
#     4   9  16  24  36  54  78 107 130 152 193 241
#     4   9  14  24  34  51  80 101 128 162 189 232
#
# _framework density 13.953358
#
# number of rings (size 3 to 8) (size 9 to 14) (size 15 to 20)
#    0.000    3.000    3.333    0.000    0.000    0.000 
#    0.000    0.000    0.000    0.500    0.000    7.000 
#    0.000    0.000    0.000    0.000    0.000    0.000 
#
# Total GULP energy -594816.350680 kJ/mol
# GULP energy per Si atom -12392.007306 kJ/mol
# Density = 1.392160 g / cm^3
# Si number density = 13.953358 Si / 1000 Ang^3
#
#
#
# Elastic Constant Matrix: (Units=GPa)
#
#
# Indices 1 2 3 4 5 6 
#
# 1 57.2564 17.9813 48.6023 0.0000 0.0000 0.0000
# 2 17.9813 57.2564 48.6023 0.0000 0.0000 0.0000
# 3 48.6023 48.6023 147.5714 0.0000 0.0000 0.0000
# 4 0.0000 0.0000 0.0000 17.1835 0.0000 0.0000
# 5 0.0000 0.0000 0.0000 0.0000 17.1835 0.0000
# 6 0.0000 0.0000 0.0000 0.0000 0.0000 6.2566
#
#
#
# Elastic Compliance Matrix: (Units=1/GPa)
#
#
# Indices 1 2 3 4 5 6 
#
# 1 0.024298 -0.001163 -0.007620 0.000000 0.000000 0.000000
# 2 -0.001163 0.024298 -0.007620 0.000000 0.000000 0.000000
# 3 -0.007620 -0.007620 0.011795 0.000000 0.000000 0.000000
# 4 0.000000 0.000000 0.000000 0.058195 0.000000 0.000000
# 5 0.000000 0.000000 0.000000 0.000000 0.058195 0.000000
# 6 0.000000 0.000000 0.000000 0.000000 0.000000 0.159831
#
#
# Mechanical properties :
#
#
# Convention : Reuss Voigt Hill
#
# Bulk Modulus (GPa) = 36.24780 54.71738 45.48259
# Shear Modulus (GPa) = 13.20604 17.91795 15.56200
#
# Velocity S-wave (km/s) = 3.07977 3.58737 3.34321
# Velocity P-wave (km/s) = 6.21939 7.51389 6.89708
#
# Compressibility (1/GPa) = 0.02758788
#
# Stress axis : x y z
#
# Youngs Moduli (GPa) = 41.15487 41.15487 84.77883
#
# Poissons Ratio (x) = 0.04786 0.64598
# Poissons Ratio (y) = 0.04786 0.64598
# Poissons Ratio (z) = 0.31358 0.31358
#
# Static dielectric constant tensor:
#      x y z
#    x 2.481820 0.000000 0.000000 
#    y 0.000000 2.481820 0.000000 
#    z 0.000000 0.000000 2.983270 
# 
# 
# High freq. dielectric constant tensor:
#      x y z
#    x 1.487120 0.000000 0.000000 
#    y 0.000000 1.487120 0.000000 
#    z 0.000000 0.000000 1.545060 
# 
# From -- ./inp_files/2609.got.cif
#   From: 2010.03.12/outbox.cif.g09.slc.cpg/sg109_2_cif.got.tgz:2609.got - 2010.04.14 01:55:16.
