data_PCOD8307309
_publ_section_title
;
Structure prediction by ZEFSAII (Michael W. Deem and Ramdas Pophale) SiO2 
 PCOD8307309
Probable space group: P 42 M C
;
_chemical_formula_sum "Si O2"
_cell_formula_units_Z 48
_cell_length_a 8.149900
_cell_length_b 8.149900
_cell_length_c 34.326471
_cell_angle_alpha 90.000000
_cell_angle_beta 90.000000
_cell_angle_gamma 90.000000
_cell_volume 2279.994068
_symmetry_space_group_name_H-M "P 42 M C"
_symmetry_group_IT_number 105
_symmetry_cell_setting 'tetragonal'
loop_
_space_group_symop_operation_xyz
x,y,z
-y,x,1/2+z
-x,-y,z
y,-x,1/2+z
-x,y,z
x,-y,z
-y,-x,1/2+z
y,x,1/2+z
loop_
_atom_site_type_symbol
_atom_site_label
_atom_site_fract_x
_atom_site_fract_y
_atom_site_fract_z
Si Si1 0.177558 0.811365 0.489640
Si Si2 0.320567 0.307682 0.912296
Si Si3 0.694531 0.500000 0.617282
Si Si4 0.191320 0.180173 0.749484
Si Si5 0.195279 0.500000 0.705456
Si Si6 0.309335 0.814230 0.570891
Si Si7 0.304954 0.685873 0.827621
O O1 0.267865 0.793586 0.448569
O O2 0.281951 0.749630 0.526603
O O3 0.000000 0.722037 0.488735
O O4 0.149151 0.000000 0.496605
O O5 0.500000 0.230545 0.920546
O O6 0.338259 0.500000 0.907554
O O7 0.251018 0.245377 0.870488
O O8 0.500000 0.500000 0.612275
O O9 0.746819 0.500000 0.661577
O O10 0.766182 0.330528 0.598186
O O11 0.269026 0.334633 0.725847
O O12 0.223610 0.199591 0.795362
O O13 0.000000 0.179060 0.741266
O O14 0.262884 0.000000 0.736615
O O15 0.000000 0.500000 0.708578
O O16 0.500000 0.827714 0.578933
O O17 0.234222 0.000000 0.578579
O O18 0.500000 0.693133 0.824255
O O19 0.241562 0.500000 0.821139
#
# Coordination Sequence:
#
# PCOD8307309 Si02
#       7
#     8   8   4   8   4   8   8
#     4  10  21  35  51  76 110 145 184 230 277 328
#     4   9  19  34  52  76 107 145 187 230 275 326
#     4  10  22  38  60  88 110 140 186 232 284 344
#     4  10  21  37  58  83 111 148 190 230 279 340
#     4  10  22  40  58  82 116 146 180 230 284 346
#     4   9  19  37  58  80 110 145 183 231 283 339
#     4   9  18  34  55  79 109 145 188 236 283 334
#
# _framework density 21.052688
#
# number of rings (size 3 to 8) (size 9 to 14) (size 15 to 20)
#    0.000    2.500    0.833    1.500    1.167    5.000 
#    0.000    5.000    0.000    0.000    0.000    0.000 
#    0.000    0.000    0.000    0.000    0.000    0.000 
#
# Total GULP energy -594640.269098 kJ/mol
# GULP energy per Si atom -12388.338940 kJ/mol
# Density = 2.100477 g / cm^3
# Si number density = 21.052688 Si / 1000 Ang^3
#
#
#
# Elastic Constant Matrix: (Units=GPa)
#
#
# Indices 1 2 3 4 5 6 
#
# 1 71.0590 24.7780 43.9652 0.0000 0.0000 0.0000
# 2 24.7780 71.0590 43.9652 0.0000 0.0000 0.0000
# 3 43.9652 43.9652 162.7991 0.0000 0.0000 0.0000
# 4 0.0000 0.0000 0.0000 19.3743 0.0000 0.0000
# 5 0.0000 0.0000 0.0000 0.0000 19.3743 0.0000
# 6 0.0000 0.0000 0.0000 0.0000 0.0000 10.2167
#
#
#
# Elastic Compliance Matrix: (Units=1/GPa)
#
#
# Indices 1 2 3 4 5 6 
#
# 1 0.017739 -0.003868 -0.003746 0.000000 0.000000 0.000000
# 2 -0.003868 0.017739 -0.003746 0.000000 0.000000 0.000000
# 3 -0.003746 -0.003746 0.008166 0.000000 0.000000 0.000000
# 4 0.000000 0.000000 0.000000 0.051615 0.000000 0.000000
# 5 0.000000 0.000000 0.000000 0.000000 0.051615 0.000000
# 6 0.000000 0.000000 0.000000 0.000000 0.000000 0.097879
#
#
# Mechanical properties :
#
#
# Convention : Reuss Voigt Hill
#
# Bulk Modulus (GPa) = 47.79122 58.92599 53.35860
# Shear Modulus (GPa) = 18.21841 22.60698 20.41270
#
# Velocity S-wave (km/s) = 2.94491 3.28049 3.11722
# Velocity P-wave (km/s) = 5.85776 6.51148 6.19325
#
# Compressibility (1/GPa) = 0.02092435
#
# Stress axis : x y z
#
# Youngs Moduli (GPa) = 56.37215 56.37215 122.46108
#
# Poissons Ratio (x) = 0.21804 0.45875
# Poissons Ratio (y) = 0.21804 0.45875
# Poissons Ratio (z) = 0.21117 0.21117
#
# Static dielectric constant tensor:
#      x y z
#    x 3.992810 0.000000 0.000000 
#    y 0.000000 3.992810 0.000000 
#    z 0.000000 0.000000 3.899570 
# 
# 
# High freq. dielectric constant tensor:
#      x y z
#    x 1.809480 0.000000 0.000000 
#    y 0.000000 1.809480 0.000000 
#    z 0.000000 0.000000 1.825460 
# 
# From -- ./inp_files/4740.got.cif
#   From: 2010.03.12/outbox.cif.g09.slc.cpg/sg105_3_cif.got.tgz:4740.got - 2010.04.14 01:45:32.
