data_PCOD8307545
_publ_section_title
;
Structure prediction by ZEFSAII (Michael W. Deem and Ramdas Pophale) SiO2 
 PCOD8307545
Probable space group: I 4 M M
;
_chemical_formula_sum "Si O2"
_cell_formula_units_Z 112
_cell_length_a 13.973295
_cell_length_b 13.973295
_cell_length_c 35.406630
_cell_angle_alpha 90.000000
_cell_angle_beta 90.000000
_cell_angle_gamma 90.000000
_cell_volume 6913.249777
_symmetry_space_group_name_H-M "I 4 M M"
_symmetry_group_IT_number 107
_symmetry_cell_setting 'tetragonal'
loop_
_space_group_symop_operation_xyz
x,y,z
-y,x,z
-x,-y,z
y,-x,z
-x,y,z
x,-y,z
-y,-x,z
y,x,z
1/2+x,1/2+y,1/2+z
1/2-y,1/2+x,1/2+z
1/2-x,1/2-y,1/2+z
1/2+y,1/2-x,1/2+z
1/2-x,1/2+y,1/2+z
1/2+x,1/2-y,1/2+z
1/2-y,1/2-x,1/2+z
1/2+y,1/2+x,1/2+z
loop_
_atom_site_type_symbol
_atom_site_label
_atom_site_fract_x
_atom_site_fract_y
_atom_site_fract_z
Si Si1 0.613171 0.893850 0.023620
Si Si2 0.234160 0.610122 0.318532
Si Si3 0.389878 0.234159 0.870111
Si Si4 0.386829 0.893850 0.165023
Si Si5 0.890522 0.736119 0.456270
Si Si6 0.113445 0.268301 0.594322
Si Si7 0.609478 0.236120 0.232373
O O1 0.500000 0.903042 0.025388
O O2 0.648103 0.828136 0.058010
O O3 0.658904 0.000000 0.026793
O O4 0.645832 0.847904 0.983842
O O5 0.255260 0.500000 0.328292
O O6 0.331329 0.668672 0.326734
O O7 0.147922 0.647921 0.344322
O O8 0.200634 0.622912 0.275266
O O9 0.500000 0.255259 0.860351
O O10 0.331327 0.331327 0.861909
O O11 0.377089 0.200632 0.913377
O O12 0.500000 0.903042 0.163255
O O13 0.351897 0.828136 0.130633
O O14 0.354168 0.847903 0.204801
O O15 0.341096 0.000000 0.161850
O O16 0.832092 0.832092 0.464359
O O17 0.000000 0.762752 0.465041
O O18 0.166106 0.166106 0.594322
O O19 0.000000 0.248675 0.594322
O O20 0.500000 0.262752 0.223603
O O21 0.667908 0.332093 0.224284
#
# Coordination Sequence:
#
# PCOD8307545 Si02
#       7
#    16  16  16  16  16  16  16
#     4   9  17  29  44  62  86 116 148 180 213 251
#     4   9  18  31  46  66  92 121 154 191 230 274
#     4   9  18  31  46  66  92 121 154 191 230 274
#     4   9  17  29  44  62  86 116 148 180 213 251
#     4   9  17  29  45  66  92 119 146 178 217 264
#     4  10  19  30  45  65  90 118 147 181 220 265
#     4   9  17  29  45  66  92 119 146 178 217 264
#
# _framework density 16.200773999999999
#
# number of rings (size 3 to 8) (size 9 to 14) (size 15 to 20)
#    0.000    2.857    0.000    1.286    0.000    3.857 
#    0.000    5.714    0.000    5.143    0.000    0.000 
#    0.000   23.429    0.000    0.000    0.000    0.000 
#
# Total GULP energy -694317.778916 kJ/mol
# GULP energy per Si atom -12398.531766 kJ/mol
# Density = 1.616390 g / cm^3
# Si number density = 16.200774 Si / 1000 Ang^3
#
#
#
# Elastic Constant Matrix: (Units=GPa)
#
#
# Indices 1 2 3 4 5 6 
#
# 1 89.4308 45.2619 53.9313 0.0000 0.0000 0.0003
# 2 45.2619 89.4308 53.9313 0.0000 0.0000 -0.0003
# 3 53.9313 53.9313 104.0001 0.0000 0.0000 0.0000
# 4 0.0000 0.0000 0.0000 24.5737 0.0000 0.0000
# 5 0.0000 0.0000 0.0000 0.0000 24.5737 0.0000
# 6 0.0003 -0.0003 0.0000 0.0000 0.0000 14.4802
#
#
#
# Elastic Compliance Matrix: (Units=1/GPa)
#
#
# Indices 1 2 3 4 5 6 
#
# 1 0.017669 -0.004972 -0.006584 0.000000 0.000000 0.000000
# 2 -0.004972 0.017669 -0.006584 0.000000 0.000000 0.000000
# 3 -0.006584 -0.006584 0.016444 0.000000 0.000000 0.000000
# 4 0.000000 0.000000 0.000000 0.040694 0.000000 0.000000
# 5 0.000000 0.000000 0.000000 0.000000 0.040694 0.000000
# 6 0.000000 0.000000 0.000000 0.000000 0.000000 0.069060
#
#
# Mechanical properties :
#
#
# Convention : Reuss Voigt Hill
#
# Bulk Modulus (GPa) = 64.51155 65.45674 64.98415
# Shear Modulus (GPa) = 20.51898 21.37467 20.94682
#
# Velocity S-wave (km/s) = 3.56271 3.63624 3.59966
# Velocity P-wave (km/s) = 7.53859 7.62370 7.58127
#
# Compressibility (1/GPa) = 0.01550110
#
# Stress axis : x y z
#
# Youngs Moduli (GPa) = 56.59728 56.59728 60.81169
#
# Poissons Ratio (x) = 0.28138 0.40040
# Poissons Ratio (y) = 0.28138 0.40040
# Poissons Ratio (z) = 0.37265 0.37265
#
# Static dielectric constant tensor:
#      x y z
#    x 2.967420 0.000000 0.000000 
#    y 0.000000 2.967420 0.000000 
#    z 0.000000 0.000000 3.296380 
# 
# 
# High freq. dielectric constant tensor:
#      x y z
#    x 1.602850 0.000000 0.000000 
#    y 0.000000 1.602850 0.000000 
#    z 0.000000 0.000000 1.638510 
# 
# From -- ./inp_files/6173.got.cif
#   From: 2010.03.12/outbox.cif.g09.slc.cpg/sg107_4_cif.got.tgz:6173.got - 2010.04.14 01:49:11.
