data_PCOD8307965
_publ_section_title
;
Structure prediction by ZEFSAII (Michael W. Deem and Ramdas Pophale) SiO2 
 PCOD8307965
Probable space group: I 41 M D
;
_chemical_formula_sum "Si O2"
_cell_formula_units_Z 80
_cell_length_a 23.276087
_cell_length_b 23.276087
_cell_length_c 6.768889
_cell_angle_alpha 90.000000
_cell_angle_beta 90.000000
_cell_angle_gamma 90.000000
_cell_volume 3667.223137
_symmetry_space_group_name_H-M "I 41 M D"
_symmetry_group_IT_number 109
_symmetry_cell_setting 'tetragonal'
loop_
_space_group_symop_operation_xyz
x,y,z
-y,1/2+x,1/4+z
-x,-y,z
y,1/2-x,1/4+z
-x,y,z
x,-y,z
-y,1/2-x,1/4+z
y,1/2+x,1/4+z
1/2+x,1/2+y,1/2+z
1/2-y,x,3/4+z
1/2-x,1/2-y,1/2+z
1/2+y,-x,3/4+z
1/2-x,1/2+y,1/2+z
1/2+x,1/2-y,1/2+z
1/2-y,-x,3/4+z
1/2+y,x,3/4+z
loop_
_atom_site_type_symbol
_atom_site_label
_atom_site_fract_x
_atom_site_fract_y
_atom_site_fract_z
Si Si1 0.062039 0.367836 0.174180
Si Si2 0.119637 0.337752 0.568245
Si Si3 0.223517 0.324258 0.332514
Si Si4 0.435950 0.763876 0.381810
Si Si5 0.434950 0.432853 0.069119
O O1 0.104457 0.346298 0.339020
O O2 0.000000 0.378467 0.275462
O O3 0.056683 0.321643 0.002326
O O4 0.081668 0.424656 0.052306
O O5 0.187189 0.324719 0.538898
O O6 0.087477 0.283209 0.665079
O O7 0.108380 0.396631 0.683111
O O8 0.285605 0.301815 0.403527
O O9 0.224322 0.388882 0.240305
O O10 0.500000 0.734743 0.361758
O O11 0.500000 0.418098 0.015035
O O12 0.420837 0.500000 0.027944
#
# Coordination Sequence:
#
# PCOD8307965 Si02
#       5
#    16  16  16  16  16
#     4   9  17  35  60  87 122 168 217 265 324 396
#     4  11  21  38  66  92 126 175 221 270 332 413
#     4  12  25  44  68  98 136 177 227 281 348 413
#     4  10  22  42  66  94 127 168 222 276 327 397
#     4   9  19  35  59  95 134 171 220 282 339 396
#
# _framework density 21.814872000000001
#
# number of rings (size 3 to 8) (size 9 to 14) (size 15 to 20)
#    0.000    1.800    2.000    4.200    0.000    1.600 
#    0.000    2.000    0.000    0.000    0.000    0.000 
#    0.000    0.000    0.000    0.000    0.000    0.000 
#
# Total GULP energy -495651.305292 kJ/mol
# GULP energy per Si atom -12391.282632 kJ/mol
# Density = 2.176522 g / cm^3
# Si number density = 21.814872 Si / 1000 Ang^3
#
#
#
# Elastic Constant Matrix: (Units=GPa)
#
#
# Indices 1 2 3 4 5 6 
#
# 1 98.4020 35.8027 34.6024 0.0000 0.0000 0.0000
# 2 35.8027 98.4020 34.6024 0.0000 0.0000 0.0000
# 3 34.6024 34.6024 96.5322 0.0000 0.0000 0.0000
# 4 0.0000 0.0000 0.0000 38.0923 0.0000 0.0000
# 5 0.0000 0.0000 0.0000 0.0000 38.0923 0.0000
# 6 0.0000 0.0000 0.0000 0.0000 0.0000 25.7742
#
#
#
# Elastic Compliance Matrix: (Units=1/GPa)
#
#
# Indices 1 2 3 4 5 6 
#
# 1 0.012558 -0.003417 -0.003277 0.000000 0.000000 0.000000
# 2 -0.003417 0.012558 -0.003277 0.000000 0.000000 0.000000
# 3 -0.003277 -0.003277 0.012708 0.000000 0.000000 0.000000
# 4 0.000000 0.000000 0.000000 0.026252 0.000000 0.000000
# 5 0.000000 0.000000 0.000000 0.000000 0.026252 0.000000
# 6 0.000000 0.000000 0.000000 0.000000 0.000000 0.038798
#
#
# Mechanical properties :
#
#
# Convention : Reuss Voigt Hill
#
# Bulk Modulus (GPa) = 55.91681 55.92790 55.92235
# Shear Modulus (GPa) = 32.25230 32.94701 32.59966
#
# Velocity S-wave (km/s) = 3.84924 3.89047 3.86991
# Velocity P-wave (km/s) = 6.74119 6.77305 6.75714
#
# Compressibility (1/GPa) = 0.01788371
#
# Stress axis : x y z
#
# Youngs Moduli (GPa) = 79.63193 79.63193 78.68891
#
# Poissons Ratio (x) = 0.27209 0.25783
# Poissons Ratio (y) = 0.27209 0.25783
# Poissons Ratio (z) = 0.26092 0.26092
#
# Static dielectric constant tensor:
#      x y z
#    x 4.043390 0.000000 0.000000 
#    y 0.000000 4.043390 0.000000 
#    z 0.000000 0.000000 3.800560 
# 
# 
# High freq. dielectric constant tensor:
#      x y z
#    x 1.850160 0.000000 0.000000 
#    y 0.000000 1.850160 0.000000 
#    z 0.000000 0.000000 1.853960 
# 
# From -- ./inp_files/603.got.cif
#   From: 2010.03.12/outbox.cif.g09.slc.cpg/sg109_1_cif.got.tgz:603.got - 2010.04.14 01:55:16.
