data_PCOD8307485
_publ_section_title
;
Structure prediction by ZEFSAII (Michael W. Deem and Ramdas Pophale) SiO2 
 PCOD8307485
Probable space group: I 4 M M
;
_chemical_formula_sum "Si O2"
_cell_formula_units_Z 112
_cell_length_a 17.726253
_cell_length_b 17.726253
_cell_length_c 21.337892
_cell_angle_alpha 90.000000
_cell_angle_beta 90.000000
_cell_angle_gamma 90.000000
_cell_volume 6704.793393
_symmetry_space_group_name_H-M "I 4 M M"
_symmetry_group_IT_number 107
_symmetry_cell_setting 'tetragonal'
loop_
_space_group_symop_operation_xyz
x,y,z
-y,x,z
-x,-y,z
y,-x,z
-x,y,z
x,-y,z
-y,-x,z
y,x,z
1/2+x,1/2+y,1/2+z
1/2-y,1/2+x,1/2+z
1/2-x,1/2-y,1/2+z
1/2+y,1/2-x,1/2+z
1/2-x,1/2+y,1/2+z
1/2+x,1/2-y,1/2+z
1/2-y,1/2-x,1/2+z
1/2+y,1/2+x,1/2+z
loop_
_atom_site_type_symbol
_atom_site_label
_atom_site_fract_x
_atom_site_fract_y
_atom_site_fract_z
Si Si1 0.348996 0.232034 0.351860
Si Si2 0.414456 0.087865 0.901961
Si Si3 0.272323 0.086538 0.721476
Si Si4 0.644695 0.861066 0.030559
Si Si5 0.913737 0.416896 0.654802
Si Si6 0.292407 0.412231 0.086444
Si Si7 0.794350 0.913090 0.972345
O O1 0.263909 0.263909 0.365775
O O2 0.357976 0.141892 0.362186
O O3 0.366888 0.256458 0.280837
O O4 0.406982 0.273590 0.398849
O O5 0.500000 0.104259 0.880168
O O6 0.393657 0.000000 0.890549
O O7 0.407456 0.106511 0.975312
O O8 0.357445 0.114756 0.706174
O O9 0.221319 0.100274 0.660453
O O10 0.272299 0.000000 0.741809
O O11 0.633613 0.912938 0.091251
O O12 0.622394 0.775202 0.045565
O O13 0.732050 0.866998 0.011690
O O14 0.906621 0.500000 0.684245
O O15 0.000000 0.395806 0.637040
O O16 0.302122 0.500000 0.070113
O O17 0.369049 0.369049 0.068069
O O18 0.875332 0.875332 0.986121
O O19 0.797525 0.000000 0.992776
#
# Coordination Sequence:
#
# PCOD8307485 Si02
#       7
#    16  16  16  16  16  16  16
#     4  10  19  31  46  64  89 120 153 185 219 261
#     4  10  19  30  47  70  94 119 146 180 222 266
#     4   9  17  29  44  62  86 117 152 186 220 259
#     4  10  17  30  47  67  92 116 148 182 218 266
#     4   9  16  25  41  66  94 122 147 177 220 267
#     4  10  20  32  47  66  88 117 151 188 227 265
#     4  10  20  32  48  68  90 119 150 183 221 259
#
# _framework density 16.704466
#
# number of rings (size 3 to 8) (size 9 to 14) (size 15 to 20)
#    0.000    2.286    0.000    6.429    0.000    2.571 
#    0.000    1.429    0.000    0.000    0.000    2.000 
#    0.000    0.286    0.000    0.000    0.000    0.000 
#
# Total GULP energy -694156.419791 kJ/mol
# GULP energy per Si atom -12395.650353 kJ/mol
# Density = 1.666645 g / cm^3
# Si number density = 16.704466 Si / 1000 Ang^3
#
#
#
# Elastic Constant Matrix: (Units=GPa)
#
#
# Indices 1 2 3 4 5 6 
#
# 1 97.3401 68.5235 26.2345 0.0000 0.0000 0.0000
# 2 68.5235 97.3401 26.2345 0.0000 0.0000 0.0000
# 3 26.2345 26.2345 59.1576 0.0000 0.0000 0.0000
# 4 0.0000 0.0000 0.0000 15.0927 0.0000 0.0000
# 5 0.0000 0.0000 0.0000 0.0000 15.0927 0.0000
# 6 0.0000 0.0000 0.0000 0.0000 0.0000 29.6348
#
#
#
# Elastic Compliance Matrix: (Units=1/GPa)
#
#
# Indices 1 2 3 4 5 6 
#
# 1 0.020858 -0.013845 -0.003110 0.000000 0.000000 0.000000
# 2 -0.013845 0.020858 -0.003110 0.000000 0.000000 0.000000
# 3 -0.003110 -0.003110 0.019662 0.000000 0.000000 0.000000
# 4 0.000000 0.000000 0.000000 0.066257 0.000000 0.000000
# 5 0.000000 0.000000 0.000000 0.000000 0.066257 0.000000
# 6 0.000000 0.000000 0.000000 0.000000 0.000000 0.033744
#
#
# Mechanical properties :
#
#
# Convention : Reuss Voigt Hill
#
# Bulk Modulus (GPa) = 47.06294 55.09144 51.07719
# Shear Modulus (GPa) = 18.19185 20.82036 19.50610
#
# Velocity S-wave (km/s) = 3.30364 3.53426 3.42090
# Velocity P-wave (km/s) = 6.54118 7.05027 6.80049
#
# Compressibility (1/GPa) = 0.02124814
#
# Stress axis : x y z
#
# Youngs Moduli (GPa) = 47.94421 47.94421 50.85864
#
# Poissons Ratio (x) = 0.66377 0.15817
# Poissons Ratio (y) = 0.66377 0.15817
# Poissons Ratio (z) = 0.14911 0.14911
#
# Static dielectric constant tensor:
#      x y z
#    x 3.064020 0.000000 0.000000 
#    y 0.000000 3.064020 0.000000 
#    z 0.000000 0.000000 3.037620 
# 
# 
# High freq. dielectric constant tensor:
#      x y z
#    x 1.631780 0.000000 0.000000 
#    y 0.000000 1.631780 0.000000 
#    z 0.000000 0.000000 1.635450 
# 
# From -- ./inp_files/4909.got.cif
#   From: 2010.03.12/outbox.cif.g09.slc.cpg/sg107_3_cif.got.tgz:4909.got - 2010.04.14 01:49:11.
