data_PCOD8307258
_publ_section_title
;
Structure prediction by ZEFSAII (Michael W. Deem and Ramdas Pophale) SiO2 
 PCOD8307258
Probable space group: P 42 M C
;
_chemical_formula_sum "Si O2"
_cell_formula_units_Z 40
_cell_length_a 8.049175
_cell_length_b 8.049175
_cell_length_c 28.581347
_cell_angle_alpha 90.000000
_cell_angle_beta 90.000000
_cell_angle_gamma 90.000000
_cell_volume 1851.763127
_symmetry_space_group_name_H-M "P 42 M C"
_symmetry_group_IT_number 105
_symmetry_cell_setting 'tetragonal'
loop_
_space_group_symop_operation_xyz
x,y,z
-y,x,1/2+z
-x,-y,z
y,-x,1/2+z
-x,y,z
x,-y,z
-y,-x,1/2+z
y,x,1/2+z
loop_
_atom_site_type_symbol
_atom_site_label
_atom_site_fract_x
_atom_site_fract_y
_atom_site_fract_z
Si Si1 0.808943 0.184481 0.483020
Si Si2 0.190086 0.814262 0.274247
Si Si3 0.311970 0.192904 0.583001
Si Si4 0.690418 0.690347 0.681005
Si Si5 0.313848 0.500000 0.329344
Si Si6 0.190452 0.500000 0.430211
O O1 0.793542 0.238291 0.537175
O O2 0.726321 0.330130 0.451028
O O3 0.000000 0.167726 0.469390
O O4 0.725293 0.000000 0.474945
O O5 0.204934 0.795683 0.218274
O O6 0.290187 0.666832 0.299156
O O7 0.000000 0.795940 0.289368
O O8 0.254126 0.000000 0.288452
O O9 0.500000 0.251547 0.573261
O O10 0.237826 0.285629 0.628578
O O11 0.302481 0.000000 0.594497
O O12 0.500000 0.753195 0.681904
O O13 0.704017 0.500000 0.696034
O O14 0.500000 0.500000 0.348440
O O15 0.196306 0.500000 0.374306
O O16 0.000000 0.500000 0.446758
#
# Coordination Sequence:
#
# PCOD8307258 Si02
#       6
#     8   8   8   8   4   4
#     4   9  19  36  57  82 115 153 198 253 303 360
#     4  11  24  42  66  92 121 163 209 255 310 377
#     4   9  18  32  52  80 116 158 198 241 296 360
#     4  10  20  34  55  86 123 163 203 251 307 364
#     4  12  26  44  66  94 126 160 200 264 324 375
#     4  10  22  40  62  86 114 156 204 250 312 373
#
# _framework density 21.601035
#
# number of rings (size 3 to 8) (size 9 to 14) (size 15 to 20)
#    0.000    2.000    1.000    2.100    1.400    4.800 
#    0.000    4.000    0.000    0.000    0.000    0.000 
#    0.000    0.000    0.000    0.000    0.000    0.000 
#
# Total GULP energy -495850.111050 kJ/mol
# GULP energy per Si atom -12396.252776 kJ/mol
# Density = 2.155187 g / cm^3
# Si number density = 21.601035 Si / 1000 Ang^3
#
#
#
# Elastic Constant Matrix: (Units=GPa)
#
#
# Indices 1 2 3 4 5 6 
#
# 1 83.5949 30.4498 34.6698 0.0000 0.0000 0.0000
# 2 30.4498 83.5949 34.6698 0.0000 0.0000 0.0000
# 3 34.6698 34.6698 116.8753 0.0000 0.0000 0.0000
# 4 0.0000 0.0000 0.0000 28.8614 0.0000 0.0000
# 5 0.0000 0.0000 0.0000 0.0000 28.8614 0.0000
# 6 0.0000 0.0000 0.0000 0.0000 0.0000 13.6438
#
#
#
# Elastic Compliance Matrix: (Units=1/GPa)
#
#
# Indices 1 2 3 4 5 6 
#
# 1 0.014757 -0.004059 -0.003173 0.000000 0.000000 0.000000
# 2 -0.004059 0.014757 -0.003173 0.000000 0.000000 0.000000
# 3 -0.003173 -0.003173 0.010439 0.000000 0.000000 0.000000
# 4 0.000000 0.000000 0.000000 0.034648 0.000000 0.000000
# 5 0.000000 0.000000 0.000000 0.000000 0.034648 0.000000
# 6 0.000000 0.000000 0.000000 0.000000 0.000000 0.073293
#
#
# Mechanical properties :
#
#
# Convention : Reuss Voigt Hill
#
# Bulk Modulus (GPa) = 52.24381 53.73822 52.99101
# Shear Modulus (GPa) = 23.83954 26.55839 25.19897
#
# Velocity S-wave (km/s) = 3.32570 3.51022 3.41920
# Velocity P-wave (km/s) = 6.24382 6.43121 6.33821
#
# Compressibility (1/GPa) = 0.01914103
#
# Stress axis : x y z
#
# Youngs Moduli (GPa) = 67.76364 67.76364 95.79600
#
# Poissons Ratio (x) = 0.27507 0.30400
# Poissons Ratio (y) = 0.27507 0.30400
# Poissons Ratio (z) = 0.21504 0.21504
#
# Static dielectric constant tensor:
#      x y z
#    x 3.883230 0.000000 0.000000 
#    y 0.000000 3.883230 0.000000 
#    z 0.000000 0.000000 3.715400 
# 
# 
# High freq. dielectric constant tensor:
#      x y z
#    x 1.837460 0.000000 0.000000 
#    y 0.000000 1.837460 0.000000 
#    z 0.000000 0.000000 1.841500 
# 
# From -- ./inp_files/4305.got.cif
#   From: 2010.03.12/outbox.cif.g09.slc.cpg/sg105_3_cif.got.tgz:4305.got - 2010.04.14 01:45:32.
