data_PCOD8307443
_publ_section_title
;
Structure prediction by ZEFSAII (Michael W. Deem and Ramdas Pophale) SiO2 
 PCOD8307443
Probable space group: P 42 B C
;
_chemical_formula_sum "Si O2"
_cell_formula_units_Z 40
_cell_length_a 9.223630
_cell_length_b 9.223630
_cell_length_c 19.981383
_cell_angle_alpha 90.000000
_cell_angle_beta 90.000000
_cell_angle_gamma 90.000000
_cell_volume 1699.923160
_symmetry_space_group_name_H-M "P 42 B C"
_symmetry_group_IT_number 106
_symmetry_cell_setting 'tetragonal'
loop_
_space_group_symop_operation_xyz
x,y,z
-y,x,1/2+z
-x,-y,z
y,-x,1/2+z
1/2-x,1/2+y,z
1/2+x,1/2-y,z
1/2-y,1/2-x,1/2+z
1/2+y,1/2+x,1/2+z
loop_
_atom_site_type_symbol
_atom_site_label
_atom_site_fract_x
_atom_site_fract_y
_atom_site_fract_z
Si Si1 0.795425 0.563631 0.489370
Si Si2 0.216653 0.570687 0.940044
Si Si3 0.489166 0.345320 0.120186
Si Si4 0.241905 0.754516 0.709696
Si Si5 0.155483 0.498583 0.799847
O O1 0.646032 0.640659 0.469054
O O2 0.820311 0.421437 0.443858
O O3 0.783402 0.511947 0.566801
O O4 0.927698 0.677709 0.483287
O O5 0.259561 0.528790 0.863229
O O6 0.500000 0.500000 0.083265
O O7 0.329642 0.336841 0.154180
O O8 0.618174 0.350649 0.175292
O O9 0.152083 0.624322 0.743744
O O10 0.327548 0.838589 0.768159
O O11 0.000000 0.500000 0.835084
#
# Coordination Sequence:
#
# PCOD8307443 Si02
#       5
#     8   8   8   8   8
#     4  11  25  44  69 101 143 183 237 290 354 425
#     4  11  25  45  69 107 138 189 233 291 358 419
#     4  11  24  44  66 100 137 179 236 288 353 421
#     4  10  24  42  68 100 130 185 228 292 348 415
#     4  11  21  43  68  96 141 176 233 289 344 421
#
# _framework density 23.530474999999999
#
# number of rings (size 3 to 8) (size 9 to 14) (size 15 to 20)
#    0.000    1.200    2.000    3.600    5.600    0.000 
#   14.400    0.000    0.000    0.000    0.000    0.000 
#    0.000    0.000    0.000    0.000    0.000    0.000 
#
# Total GULP energy -495679.411851 kJ/mol
# GULP energy per Si atom -12391.985296 kJ/mol
# Density = 2.347692 g / cm^3
# Si number density = 23.530475 Si / 1000 Ang^3
#
#
#
# Elastic Constant Matrix: (Units=GPa)
#
#
# Indices 1 2 3 4 5 6 
#
# 1 102.0812 26.0153 38.6763 0.0000 0.0000 0.0000
# 2 26.0153 102.0812 38.6763 0.0000 0.0000 0.0000
# 3 38.6763 38.6763 129.0420 0.0000 0.0000 0.0000
# 4 0.0000 0.0000 0.0000 33.4520 0.0000 0.0000
# 5 0.0000 0.0000 0.0000 0.0000 33.4520 0.0000
# 6 0.0000 0.0000 0.0000 0.0000 0.0000 30.6946
#
#
#
# Elastic Compliance Matrix: (Units=1/GPa)
#
#
# Indices 1 2 3 4 5 6 
#
# 1 0.011339 -0.001807 -0.002857 0.000000 0.000000 0.000000
# 2 -0.001807 0.011339 -0.002857 0.000000 0.000000 0.000000
# 3 -0.002857 -0.002857 0.009462 0.000000 0.000000 0.000000
# 4 0.000000 0.000000 0.000000 0.029894 0.000000 0.000000
# 5 0.000000 0.000000 0.000000 0.000000 0.029894 0.000000
# 6 0.000000 0.000000 0.000000 0.000000 0.000000 0.032579
#
#
# Mechanical properties :
#
#
# Convention : Reuss Voigt Hill
#
# Bulk Modulus (GPa) = 58.48621 59.99333 59.23977
# Shear Modulus (GPa) = 34.42392 34.84215 34.63303
#
# Velocity S-wave (km/s) = 3.82900 3.85219 3.84062
# Velocity P-wave (km/s) = 6.66767 6.73329 6.70056
#
# Compressibility (1/GPa) = 0.01709805
#
# Stress axis : x y z
#
# Youngs Moduli (GPa) = 88.19026 88.19026 105.68685
#
# Poissons Ratio (x) = 0.15939 0.30193
# Poissons Ratio (y) = 0.15939 0.30193
# Poissons Ratio (z) = 0.25195 0.25195
#
# Static dielectric constant tensor:
#      x y z
#    x 4.172470 0.000000 0.000000 
#    y 0.000000 4.172470 0.000000 
#    z 0.000000 0.000000 4.094920 
# 
# 
# High freq. dielectric constant tensor:
#      x y z
#    x 1.926740 0.000000 0.000000 
#    y 0.000000 1.926740 0.000000 
#    z 0.000000 0.000000 1.936740 
# 
# From -- ./inp_files/1699.got.cif
#   From: 2010.03.12/outbox.cif.g09.slc.cpg/sg106_cif.got.tgz:1699.got - 2010.04.14 01:48:02.
