data_PCOD8307334
_publ_section_title
;
Structure prediction by ZEFSAII (Michael W. Deem and Ramdas Pophale) SiO2 
 PCOD8307334
Probable space group: P 42 M C
;
_chemical_formula_sum "Si O2"
_cell_formula_units_Z 48
_cell_length_a 8.930772
_cell_length_b 8.930772
_cell_length_c 30.592422
_cell_angle_alpha 90.000000
_cell_angle_beta 90.000000
_cell_angle_gamma 90.000000
_cell_volume 2440.011457
_symmetry_space_group_name_H-M "P 42 M C"
_symmetry_group_IT_number 105
_symmetry_cell_setting 'tetragonal'
loop_
_space_group_symop_operation_xyz
x,y,z
-y,x,1/2+z
-x,-y,z
y,-x,1/2+z
-x,y,z
x,-y,z
-y,-x,1/2+z
y,x,1/2+z
loop_
_atom_site_type_symbol
_atom_site_label
_atom_site_fract_x
_atom_site_fract_y
_atom_site_fract_z
Si Si1 0.672050 0.824923 0.425410
Si Si2 0.175911 0.671501 0.345201
Si Si3 0.170974 0.323184 0.506479
Si Si4 0.174587 0.326276 0.086765
Si Si5 0.329266 0.675628 0.755644
Si Si6 0.172175 0.826788 0.176617
O O1 0.500000 0.781493 0.417577
O O2 0.766752 0.774800 0.383925
O O3 0.728077 0.744433 0.468671
O O4 0.693483 0.000000 0.432541
O O5 0.221303 0.500000 0.355061
O O6 0.248138 0.727337 0.300122
O O7 0.000000 0.690673 0.341119
O O8 0.182715 0.500000 0.503934
O O9 0.231161 0.270011 0.552949
O O10 0.000000 0.269464 0.500623
O O11 0.216810 0.500000 0.082604
O O12 0.219051 0.270409 0.134816
O O13 0.000000 0.298454 0.077418
O O14 0.500000 0.724221 0.745341
O O15 0.315006 0.500000 0.762009
O O16 0.222342 0.726110 0.716798
O O17 0.000000 0.797108 0.189086
O O18 0.201580 0.000000 0.165906
#
# Coordination Sequence:
#
# PCOD8307334 Si02
#       6
#     8   8   8   8   8   8
#     4  11  24  40  59  85 116 150 189 232 280 335
#     4  10  21  38  61  87 114 147 189 235 283 336
#     4  11  24  40  59  85 116 150 189 232 280 335
#     4  10  21  38  61  87 114 147 189 235 283 336
#     4  10  21  37  58  84 114 150 190 232 281 335
#     4  10  21  37  58  84 114 150 190 232 281 335
#
# _framework density 19.672038000000001
#
# number of rings (size 3 to 8) (size 9 to 14) (size 15 to 20)
#    0.000    1.667    0.000    4.000    0.000   12.000 
#    0.000    0.000    0.000    0.000    0.000    0.000 
#    0.000    0.000    0.000    0.000    0.000    0.000 
#
# Total GULP energy -595524.149837 kJ/mol
# GULP energy per Si atom -12406.753122 kJ/mol
# Density = 1.962726 g / cm^3
# Si number density = 19.672038 Si / 1000 Ang^3
#
#
#
# Elastic Constant Matrix: (Units=GPa)
#
#
# Indices 1 2 3 4 5 6 
#
# 1 64.4463 35.8763 33.4025 0.0000 0.0000 0.0000
# 2 35.8763 64.4463 33.4025 0.0000 0.0000 0.0000
# 3 33.4025 33.4025 108.3474 0.0000 0.0000 0.0000
# 4 0.0000 0.0000 0.0000 39.3356 0.0000 0.0000
# 5 0.0000 0.0000 0.0000 0.0000 39.3356 0.0000
# 6 0.0000 0.0000 0.0000 0.0000 0.0000 30.0250
#
#
#
# Elastic Compliance Matrix: (Units=1/GPa)
#
#
# Indices 1 2 3 4 5 6 
#
# 1 0.023772 -0.011230 -0.003867 0.000000 0.000000 0.000000
# 2 -0.011230 0.023772 -0.003867 0.000000 0.000000 0.000000
# 3 -0.003867 -0.003867 0.011614 0.000000 0.000000 0.000000
# 4 0.000000 0.000000 0.000000 0.025422 0.000000 0.000000
# 5 0.000000 0.000000 0.000000 0.000000 0.025422 0.000000
# 6 0.000000 0.000000 0.000000 0.000000 0.000000 0.033306
#
#
# Mechanical properties :
#
#
# Convention : Reuss Voigt Hill
#
# Bulk Modulus (GPa) = 47.09865 49.17807 48.13836
# Shear Modulus (GPa) = 26.55168 30.70983 28.63076
#
# Velocity S-wave (km/s) = 3.67784 3.95535 3.81911
# Velocity P-wave (km/s) = 6.48299 6.77591 6.63107
#
# Compressibility (1/GPa) = 0.02123203
#
# Stress axis : x y z
#
# Youngs Moduli (GPa) = 42.06583 42.06583 86.10466
#
# Poissons Ratio (x) = 0.47238 0.33295
# Poissons Ratio (y) = 0.47238 0.33295
# Poissons Ratio (z) = 0.16266 0.16266
#
# Static dielectric constant tensor:
#      x y z
#    x 3.652050 0.000000 0.000000 
#    y 0.000000 3.652050 0.000000 
#    z 0.000000 0.000000 3.713770 
# 
# 
# High freq. dielectric constant tensor:
#      x y z
#    x 1.772410 0.000000 0.000000 
#    y 0.000000 1.772410 0.000000 
#    z 0.000000 0.000000 1.780150 
# 
# From -- ./inp_files/4691.got.cif
#   From: 2010.03.12/outbox.cif.g09.slc.cpg/sg105_3_cif.got.tgz:4691.got - 2010.04.14 01:45:32.
