data_PCOD8307996
_publ_section_title
;
Structure prediction by ZEFSAII (Michael W. Deem and Ramdas Pophale) SiO2 
 PCOD8307996
Probable space group: I 41 M D
;
_chemical_formula_sum "Si O2"
_cell_formula_units_Z 96
_cell_length_a 17.130534
_cell_length_b 17.130534
_cell_length_c 24.226253
_cell_angle_alpha 90.000000
_cell_angle_beta 90.000000
_cell_angle_gamma 90.000000
_cell_volume 7109.319801
_symmetry_space_group_name_H-M "I 41 M D"
_symmetry_group_IT_number 109
_symmetry_cell_setting 'tetragonal'
loop_
_space_group_symop_operation_xyz
x,y,z
-y,1/2+x,1/4+z
-x,-y,z
y,1/2-x,1/4+z
-x,y,z
x,-y,z
-y,1/2-x,1/4+z
y,1/2+x,1/4+z
1/2+x,1/2+y,1/2+z
1/2-y,x,3/4+z
1/2-x,1/2-y,1/2+z
1/2+y,-x,3/4+z
1/2-x,1/2+y,1/2+z
1/2+x,1/2-y,1/2+z
1/2-y,-x,3/4+z
1/2+y,x,3/4+z
loop_
_atom_site_type_symbol
_atom_site_label
_atom_site_fract_x
_atom_site_fract_y
_atom_site_fract_z
Si Si1 0.089806 0.411611 0.286530
Si Si2 0.678319 0.320265 0.626460
Si Si3 0.589930 0.731875 0.966265
Si Si4 0.410194 0.588389 0.894584
Si Si5 0.179735 0.178319 0.304654
Si Si6 0.268124 0.589930 0.464849
O O1 0.109452 0.500000 0.269106
O O2 0.142838 0.388290 0.338283
O O3 0.106912 0.356912 0.233646
O O4 0.000000 0.402090 0.304778
O O5 0.709734 0.388176 0.666602
O O6 0.750000 0.286177 0.590557
O O7 0.641725 0.248823 0.660831
O O8 0.500000 0.745452 0.981121
O O9 0.606912 0.643088 0.947469
O O10 0.641725 0.748823 0.020283
O O11 0.500000 0.597911 0.876336
O O12 0.390549 0.500000 0.912008
O O13 0.357162 0.611710 0.842831
O O14 0.111824 0.209734 0.264512
O O15 0.254547 0.500000 0.449993
#
# Coordination Sequence:
#
# PCOD8307996 Si02
#       6
#    16  16  16  16  16  16
#     4   9  16  25  37  53  73  96 120 145 173 206
#     4   9  16  25  37  53  73  96 120 145 173 206
#     4   9  16  25  37  53  73  96 120 145 173 206
#     4   9  16  25  37  53  73  96 120 145 173 206
#     4   9  16  25  37  53  73  96 120 145 173 206
#     4   9  16  25  37  53  73  96 120 145 173 206
#
# _framework density 13.503401
#
# number of rings (size 3 to 8) (size 9 to 14) (size 15 to 20)
#    0.000    3.000    0.000    2.000    0.000    4.000 
#    0.000    0.000    0.000    9.000    0.000    0.000 
#    0.000    0.000    0.000    0.000    0.000    0.000 
#
# Total GULP energy -595112.587539 kJ/mol
# GULP energy per Si atom -12398.178907 kJ/mol
# Density = 1.347267 g / cm^3
# Si number density = 13.503401 Si / 1000 Ang^3
#
#
#
# Elastic Constant Matrix: (Units=GPa)
#
#
# Indices 1 2 3 4 5 6 
#
# 1 88.7090 47.0913 51.5704 0.0000 0.0000 0.0000
# 2 47.0913 88.7090 51.5704 0.0000 0.0000 0.0000
# 3 51.5704 51.5704 84.2306 0.0000 0.0000 0.0000
# 4 0.0000 0.0000 0.0000 20.8090 0.0000 0.0000
# 5 0.0000 0.0000 0.0000 0.0000 20.8090 0.0000
# 6 0.0000 0.0000 0.0000 0.0000 0.0000 16.3300
#
#
#
# Elastic Compliance Matrix: (Units=1/GPa)
#
#
# Indices 1 2 3 4 5 6 
#
# 1 0.018896 -0.005132 -0.008427 0.000000 0.000000 0.000000
# 2 -0.005132 0.018896 -0.008427 0.000000 0.000000 0.000000
# 3 -0.008427 -0.008427 0.022191 0.000000 0.000000 0.000000
# 4 0.000000 0.000000 0.000000 0.048056 0.000000 0.000000
# 5 0.000000 0.000000 0.000000 0.000000 0.048056 0.000000
# 6 0.000000 0.000000 0.000000 0.000000 0.000000 0.061237
#
#
# Mechanical properties :
#
#
# Convention : Reuss Voigt Hill
#
# Bulk Modulus (GPa) = 62.45696 62.45696 62.45696
# Shear Modulus (GPa) = 18.75167 19.01736 18.88451
#
# Velocity S-wave (km/s) = 3.73052 3.75685 3.74371
# Velocity P-wave (km/s) = 8.05660 8.07290 8.06476
#
# Compressibility (1/GPa) = 0.01601102
#
# Stress axis : x y z
#
# Youngs Moduli (GPa) = 52.92066 52.92066 45.06275
#
# Poissons Ratio (x) = 0.27159 0.37975
# Poissons Ratio (y) = 0.27159 0.37975
# Poissons Ratio (z) = 0.44597 0.44597
#
# Static dielectric constant tensor:
#      x y z
#    x 2.645350 0.000000 0.000000 
#    y 0.000000 2.645350 0.000000 
#    z 0.000000 0.000000 2.645350 
# 
# 
# High freq. dielectric constant tensor:
#      x y z
#    x 1.503070 0.000000 0.000000 
#    y 0.000000 1.503070 0.000000 
#    z 0.000000 0.000000 1.503070 
# 
# From -- ./inp_files/3874.got.cif
#   From: 2010.03.12/outbox.cif.g09.slc.cpg/sg109_2_cif.got.tgz:3874.got - 2010.04.14 01:55:16.
