data_PCOD8307239
_publ_section_title
;
Structure prediction by ZEFSAII (Michael W. Deem and Ramdas Pophale) SiO2 
 PCOD8307239
Probable space group: P 42 M C
;
_chemical_formula_sum "Si O2"
_cell_formula_units_Z 48
_cell_length_a 8.964894
_cell_length_b 8.964894
_cell_length_c 31.115514
_cell_angle_alpha 90.000000
_cell_angle_beta 90.000000
_cell_angle_gamma 90.000000
_cell_volume 2500.732840
_symmetry_space_group_name_H-M "P 42 M C"
_symmetry_group_IT_number 105
_symmetry_cell_setting 'tetragonal'
loop_
_space_group_symop_operation_xyz
x,y,z
-y,x,1/2+z
-x,-y,z
y,-x,1/2+z
-x,y,z
x,-y,z
-y,-x,1/2+z
y,x,1/2+z
loop_
_atom_site_type_symbol
_atom_site_label
_atom_site_fract_x
_atom_site_fract_y
_atom_site_fract_z
Si Si1 0.826681 0.173317 0.875000
Si Si2 0.832291 0.322646 0.709391
Si Si3 0.675770 0.671774 0.795982
Si Si4 0.668287 0.321895 0.625000
Si Si5 0.328226 0.324229 0.954018
Si Si6 0.322645 0.167709 0.040608
O O1 0.735592 0.226166 0.833871
O O2 0.773834 0.264413 0.916128
O O3 0.000000 0.205595 0.866945
O O4 0.794395 0.000000 0.883056
O O5 0.832555 0.500000 0.707414
O O6 0.746069 0.268404 0.751732
O O7 0.750698 0.258572 0.667207
O O8 0.000000 0.259424 0.710677
O O9 0.500000 0.689513 0.792504
O O10 0.720769 0.500000 0.804838
O O11 0.500000 0.261420 0.625000
O O12 0.670388 0.500000 0.625000
O O13 0.750697 0.258572 0.582793
O O14 0.500000 0.279228 0.945161
O O15 0.310491 0.500000 0.957497
O O16 0.268403 0.253929 0.998267
O O17 0.500000 0.167446 0.042585
O O18 0.259424 0.000000 0.039323
#
# Coordination Sequence:
#
# PCOD8307239 Si02
#       6
#     8   8   8   8   8   8
#     4  11  24  39  54  74 100 131 168 209 254 306
#     4   9  16  26  42  66  98 135 172 211 258 310
#     4  10  20  34  53  77 103 132 168 210 257 309
#     4   9  15  23  37  61  96 135 174 217 262 307
#     4  10  20  34  53  77 103 132 168 210 257 309
#     4   9  16  26  42  66  98 135 172 211 258 310
#
# _framework density 19.194372000000001
#
# number of rings (size 3 to 8) (size 9 to 14) (size 15 to 20)
#    0.000    2.333    0.000    3.500    0.000   11.333 
#    0.000    0.000    0.000    0.000    0.000    1.167 
#    0.000    9.333    0.000    0.000    0.000    0.000 
#
# Total GULP energy -595292.280015 kJ/mol
# GULP energy per Si atom -12401.922500 kJ/mol
# Density = 1.915068 g / cm^3
# Si number density = 19.194372 Si / 1000 Ang^3
#
#
#
# Elastic Constant Matrix: (Units=GPa)
#
#
# Indices 1 2 3 4 5 6 
#
# 1 79.1162 26.6857 47.4451 0.0000 0.0000 0.0000
# 2 26.6857 79.1162 47.4451 0.0000 0.0000 0.0000
# 3 47.4451 47.4451 170.6806 0.0000 0.0000 0.0000
# 4 0.0000 0.0000 0.0000 -2.9516 0.0000 0.0000
# 5 0.0000 0.0000 0.0000 0.0000 -2.9516 0.0000
# 6 0.0000 0.0000 0.0000 0.0000 0.0000 17.5994
#
#
#
# Elastic Compliance Matrix: (Units=1/GPa)
#
#
# Indices 1 2 3 4 5 6 
#
# 1 0.015832 -0.003241 -0.003500 0.000000 0.000000 0.000000
# 2 -0.003241 0.015832 -0.003500 0.000000 0.000000 0.000000
# 3 -0.003500 -0.003500 0.007805 0.000000 0.000000 0.000000
# 4 0.000000 0.000000 0.000000 -0.338800 0.000000 0.000000
# 5 0.000000 0.000000 0.000000 0.000000 -0.338800 0.000000
# 6 0.000000 0.000000 0.000000 0.000000 0.000000 0.056820
#
#
# Mechanical properties :
#
#
# Convention : Reuss Voigt Hill
#
# Bulk Modulus (GPa) = 52.66967 63.56277 58.11622
# Shear Modulus (GPa) = -9.01710 16.16172 3.57231
#
# Velocity S-wave (km/s) = -2.16979 2.90488 1.36571
# Velocity P-wave (km/s) = 4.60678 6.66620 5.72978
#
# Compressibility (1/GPa) = 0.01898626
#
# Stress axis : x y z
#
# Youngs Moduli (GPa) = 63.16444 63.16444 128.12869
#
# Poissons Ratio (x) = 0.20473 0.44843
# Poissons Ratio (y) = 0.20473 0.44843
# Poissons Ratio (z) = 0.22107 0.22107
#
# Static dielectric constant tensor:
#      x y z
#    x 3.325380 0.000000 0.000000 
#    y 0.000000 3.325380 0.000000 
#    z 0.000000 0.000000 3.770800 
# 
# 
# High freq. dielectric constant tensor:
#      x y z
#    x 1.723300 0.000000 0.000000 
#    y 0.000000 1.723300 0.000000 
#    z 0.000000 0.000000 1.767050 
# 
# From -- ./inp_files/4662.got.cif
#   From: 2010.03.12/outbox.cif.g09.slc.cpg/sg105_3_cif.got.tgz:4662.got - 2010.04.14 01:45:32.
