data_PCOD8307074
_publ_section_title
;
Structure prediction by ZEFSAII (Michael W. Deem and Ramdas Pophale) SiO2 
 PCOD8307074
Probable space group: P 4 N C 
;
_chemical_formula_sum "Si O2"
_cell_formula_units_Z 40
_cell_length_a 14.013075
_cell_length_b 14.013075
_cell_length_c 8.700453
_cell_angle_alpha 90.000000
_cell_angle_beta 90.000000
_cell_angle_gamma 90.000000
_cell_volume 1708.475511
_symmetry_space_group_name_H-M "P 4 N C "
_symmetry_group_IT_number 104
_symmetry_cell_setting 'tetragonal'
loop_
_space_group_symop_operation_xyz
x,y,z
-y,x,z
-x,-y,z
y,-x,z
1/2-x,1/2+y,1/2+z
1/2+x,1/2-y,1/2+z
1/2-y,1/2-x,1/2+z
1/2+y,1/2+x,1/2+z
loop_
_atom_site_type_symbol
_atom_site_label
_atom_site_fract_x
_atom_site_fract_y
_atom_site_fract_z
Si Si1 0.144729 0.448638 0.466970
Si Si2 0.105083 0.748414 0.511828
Si Si3 0.847808 0.043184 0.090506
Si Si4 0.915186 0.766222 0.425937
Si Si5 0.415469 0.108478 0.738256
O O1 0.260512 0.441801 0.470170
O O2 0.096506 0.347851 0.433424
O O3 0.103840 0.492440 0.626294
O O4 0.104665 0.510010 0.325028
O O5 0.191454 0.819915 0.496727
O O6 0.138691 0.676123 0.639805
O O7 0.075612 0.696392 0.352931
O O8 0.001817 0.797989 0.541749
O O9 0.807587 0.064538 0.258307
O O10 0.934685 0.116526 0.064539
#
# Coordination Sequence:
#
# PCOD8307074 Si02
#       5
#     8   8   8   8   8
#     4  11  26  44  75 103 147 192 241 307 373 445
#     4  11  26  42  69  99 139 183 239 305 356 452
#     4  11  24  49  76 108 145 199 254 305 373 454
#     4  12  25  41  71 102 139 187 244 291 373 421
#     4  10  25  47  64 104 140 183 236 304 366 431
#
# _framework density 23.412686000000001
#
# number of rings (size 3 to 8) (size 9 to 14) (size 15 to 20)
#    0.000    1.000    4.000    0.000   11.200    5.200 
#    0.000    0.000    0.000    0.000    0.000    0.000 
#    0.000    0.000    0.000    0.000    0.000    0.000 
#
# Total GULP energy -495829.729733 kJ/mol
# GULP energy per Si atom -12395.743243 kJ/mol
# Density = 2.335940 g / cm^3
# Si number density = 23.412686 Si / 1000 Ang^3
#
#
#
# Elastic Constant Matrix: (Units=GPa)
#
#
# Indices 1 2 3 4 5 6 
#
# 1 122.5037 44.2944 29.1129 0.0000 0.0000 0.0000
# 2 44.2944 122.5037 29.1129 0.0000 0.0000 0.0000
# 3 29.1129 29.1129 73.2415 0.0000 0.0000 0.0000
# 4 0.0000 0.0000 0.0000 1.8147 0.0000 0.0000
# 5 0.0000 0.0000 0.0000 0.0000 1.8147 0.0000
# 6 0.0000 0.0000 0.0000 0.0000 0.0000 38.5740
#
#
#
# Elastic Compliance Matrix: (Units=1/GPa)
#
#
# Indices 1 2 3 4 5 6 
#
# 1 0.009874 -0.002913 -0.002767 0.000000 0.000000 0.000000
# 2 -0.002913 0.009874 -0.002767 0.000000 0.000000 0.000000
# 3 -0.002767 -0.002767 0.015853 0.000000 0.000000 0.000000
# 4 0.000000 0.000000 0.000000 0.551066 0.000000 0.000000
# 5 0.000000 0.000000 0.000000 0.000000 0.551066 0.000000
# 6 0.000000 0.000000 0.000000 0.000000 0.000000 0.025924
#
#
# Mechanical properties :
#
#
# Convention : Reuss Voigt Hill
#
# Bulk Modulus (GPa) = 53.45451 58.14327 55.79889
# Shear Modulus (GPa) = 4.21306 22.82257 13.51782
#
# Velocity S-wave (km/s) = 1.34290 3.12556 2.40546
# Velocity P-wave (km/s) = 5.02847 6.15739 5.62134
#
# Compressibility (1/GPa) = 0.01870749
#
# Stress axis : x y z
#
# Youngs Moduli (GPa) = 101.27924 101.27924 63.07883
#
# Poissons Ratio (x) = 0.29498 0.17454
# Poissons Ratio (y) = 0.29498 0.17454
# Poissons Ratio (z) = 0.28024 0.28024
#
# Static dielectric constant tensor:
#      x y z
#    x 4.619130 0.000000 0.000000 
#    y 0.000000 4.619130 0.000000 
#    z 0.000000 0.000000 4.171030 
# 
# 
# High freq. dielectric constant tensor:
#      x y z
#    x 1.946420 0.000000 0.000000 
#    y 0.000000 1.946420 0.000000 
#    z 0.000000 0.000000 1.910670 
# 
# From -- ./inp_files/448.got.cif
#   From: 2010.03.12/outbox.cif.g09.slc.cpg/sg104_cif.got.tgz:448.got - 2010.04.14 01:44:05.
