data_PCOD8307451
_publ_section_title
;
Structure prediction by ZEFSAII (Michael W. Deem and Ramdas Pophale) SiO2 
 PCOD8307451
Probable space group: P 42 B C
;
_chemical_formula_sum "Si O2"
_cell_formula_units_Z 60
_cell_length_a 17.582924
_cell_length_b 17.582924
_cell_length_c 8.376846
_cell_angle_alpha 90.000000
_cell_angle_beta 90.000000
_cell_angle_gamma 90.000000
_cell_volume 2589.779145
_symmetry_space_group_name_H-M "P 42 B C"
_symmetry_group_IT_number 106
_symmetry_cell_setting 'tetragonal'
loop_
_space_group_symop_operation_xyz
x,y,z
-y,x,1/2+z
-x,-y,z
y,-x,1/2+z
1/2-x,1/2+y,z
1/2+x,1/2-y,z
1/2-y,1/2-x,1/2+z
1/2+y,1/2+x,1/2+z
loop_
_atom_site_type_symbol
_atom_site_label
_atom_site_fract_x
_atom_site_fract_y
_atom_site_fract_z
Si Si1 0.140205 0.049138 0.230870
Si Si2 0.508691 0.871087 0.005442
Si Si3 0.603330 0.348907 0.869949
Si Si4 0.901445 0.752859 0.155712
Si Si5 0.856703 0.268977 0.878413
Si Si6 0.988875 0.853093 0.373295
Si Si7 0.779497 0.771401 0.679973
Si Si8 0.000000 0.500000 0.758599
O O1 0.210670 0.106503 0.251838
O O2 0.059547 0.080216 0.292858
O O3 0.157390 0.986140 0.362216
O O4 0.138486 0.002624 0.063275
O O5 0.446927 0.806411 0.044844
O O6 0.522097 0.925402 0.157429
O O7 0.587572 0.831020 0.954766
O O8 0.479030 0.925514 0.863077
O O9 0.640475 0.426357 0.803158
O O10 0.640923 0.283372 0.766657
O O11 0.615655 0.333421 0.060460
O O12 0.949769 0.773117 0.316489
O O13 0.819434 0.720070 0.188736
O O14 0.790632 0.310431 0.776531
O O15 0.811256 0.218459 0.008387
#
# Coordination Sequence:
#
# PCOD8307451 Si02
#       8
#     8   8   8   8   8   8   8   4
#     4  12  27  46  75 110 151 204 254 312 389 473
#     4  11  25  49  77 106 148 197 256 319 395 468
#     4  12  26  45  74 105 148 199 251 315 383 465
#     4  12  26  48  74 114 150 203 253 322 397 463
#     4  12  24  47  72 109 149 200 254 322 396 471
#     4  12  26  49  72 112 153 199 253 315 388 468
#     4  12  26  45  73 108 155 195 256 323 386 474
#     4  10  26  52  72 108 144 198 258 326 386 462
#
# _framework density 23.167998999999998
#
# number of rings (size 3 to 8) (size 9 to 14) (size 15 to 20)
#    0.000    0.267    5.333    2.800    3.733    1.067 
#    4.800    0.000    0.000    0.000    0.000    0.000 
#    0.000    0.000    0.000    0.000    0.000    0.000 
#
# Total GULP energy -743608.121264 kJ/mol
# GULP energy per Si atom -12393.468688 kJ/mol
# Density = 2.311527 g / cm^3
# Si number density = 23.167999 Si / 1000 Ang^3
#
#
#
# Elastic Constant Matrix: (Units=GPa)
#
#
# Indices 1 2 3 4 5 6 
#
# 1 109.9882 49.0717 39.7947 0.0000 0.0000 0.0000
# 2 49.0717 109.9882 39.7947 0.0000 0.0000 0.0000
# 3 39.7947 39.7947 126.9072 0.0000 0.0000 0.0000
# 4 0.0000 0.0000 0.0000 39.5120 0.0000 0.0000
# 5 0.0000 0.0000 0.0000 0.0000 39.5120 0.0000
# 6 0.0000 0.0000 0.0000 0.0000 0.0000 39.4076
#
#
#
# Elastic Compliance Matrix: (Units=1/GPa)
#
#
# Indices 1 2 3 4 5 6 
#
# 1 0.011936 -0.004479 -0.002338 0.000000 0.000000 0.000000
# 2 -0.004479 0.011936 -0.002338 0.000000 0.000000 0.000000
# 3 -0.002338 -0.002338 0.009346 0.000000 0.000000 0.000000
# 4 0.000000 0.000000 0.000000 0.025309 0.000000 0.000000
# 5 0.000000 0.000000 0.000000 0.000000 0.025309 0.000000
# 6 0.000000 0.000000 0.000000 0.000000 0.000000 0.025376
#
#
# Mechanical properties :
#
#
# Convention : Reuss Voigt Hill
#
# Bulk Modulus (GPa) = 67.08282 67.13397 67.10839
# Shear Modulus (GPa) = 37.73768 38.23451 37.98610
#
# Velocity S-wave (km/s) = 4.04031 4.06681 4.05358
# Velocity P-wave (km/s) = 7.12624 7.14786 7.13706
#
# Compressibility (1/GPa) = 0.01490695
#
# Stress axis : x y z
#
# Youngs Moduli (GPa) = 83.77705 83.77705 106.99501
#
# Poissons Ratio (x) = 0.37528 0.25019
# Poissons Ratio (y) = 0.37528 0.25019
# Poissons Ratio (z) = 0.19590 0.19590
#
# Static dielectric constant tensor:
#      x y z
#    x 4.238250 0.000000 0.000000 
#    y 0.000000 4.238250 0.000000 
#    z 0.000000 0.000000 4.425520 
# 
# 
# High freq. dielectric constant tensor:
#      x y z
#    x 1.921950 0.000000 0.000000 
#    y 0.000000 1.921950 0.000000 
#    z 0.000000 0.000000 1.929240 
# 
# From -- ./inp_files/553.got.cif
#   From: 2010.03.12/outbox.cif.g09.slc.cpg/sg106_cif.got.tgz:553.got - 2010.04.14 01:48:02.
