data_PCOD8307426
_publ_section_title
;
Structure prediction by ZEFSAII (Michael W. Deem and Ramdas Pophale) SiO2 
 PCOD8307426
Probable space group: P 42 B C
;
_chemical_formula_sum "Si O2"
_cell_formula_units_Z 60
_cell_length_a 17.135346
_cell_length_b 17.135346
_cell_length_c 8.777279
_cell_angle_alpha 90.000000
_cell_angle_beta 90.000000
_cell_angle_gamma 90.000000
_cell_volume 2577.185384
_symmetry_space_group_name_H-M "P 42 B C"
_symmetry_group_IT_number 106
_symmetry_cell_setting 'tetragonal'
loop_
_space_group_symop_operation_xyz
x,y,z
-y,x,1/2+z
-x,-y,z
y,-x,1/2+z
1/2-x,1/2+y,z
1/2+x,1/2-y,z
1/2-y,1/2-x,1/2+z
1/2+y,1/2+x,1/2+z
loop_
_atom_site_type_symbol
_atom_site_label
_atom_site_fract_x
_atom_site_fract_y
_atom_site_fract_z
Si Si1 0.092999 0.724831 0.867160
Si Si2 0.350073 0.502423 0.525375
Si Si3 0.655586 0.278694 0.999416
Si Si4 0.389112 0.043526 0.909816
Si Si5 0.876703 0.042808 0.876820
Si Si6 0.000000 0.500000 0.661816
Si Si7 0.064665 0.770008 0.536878
Si Si8 0.323405 0.736365 0.331160
O O1 0.083696 0.633844 0.904116
O O2 0.046030 0.748738 0.712447
O O3 0.182894 0.745761 0.835384
O O4 0.060413 0.775311 0.010781
O O5 0.320728 0.423293 0.442201
O O6 0.376220 0.485270 0.700193
O O7 0.422514 0.538806 0.427498
O O8 0.681002 0.203792 0.900481
O O9 0.723906 0.342870 0.011229
O O10 0.642875 0.243558 0.166455
O O11 0.421796 0.996989 0.764727
O O12 0.422887 0.002787 0.060288
O O13 0.296201 0.033767 0.920403
O O14 0.811161 0.108168 0.915694
O O15 0.853603 0.972580 0.990357
#
# Coordination Sequence:
#
# PCOD8307426 Si02
#       8
#     8   8   8   8   8   4   8   8
#     4  10  21  40  67  96 133 175 231 292 353 434
#     4  10  24  46  70 101 145 184 242 299 360 431
#     4  10  21  40  65  98 127 173 225 288 345 413
#     4  11  21  42  61  99 137 189 235 292 367 444
#     4  10  24  45  68 103 139 191 240 295 365 429
#     4  10  24  38  62  92 142 184 230 296 374 446
#     4  11  23  39  69  97 130 181 235 286 356 423
#     4   9  20  40  63  95 129 164 227 281 336 418
#
# _framework density 23.281212
#
# number of rings (size 3 to 8) (size 9 to 14) (size 15 to 20)
#    0.000    1.867    2.667    0.800    1.867    4.800 
#    4.800    4.000    0.000    0.000    0.000    0.000 
#    0.000    0.000    0.000    0.000    0.000    0.000 
#
# Total GULP energy -743495.032351 kJ/mol
# GULP energy per Si atom -12391.583873 kJ/mol
# Density = 2.322822 g / cm^3
# Si number density = 23.281212 Si / 1000 Ang^3
#
#
#
# Elastic Constant Matrix: (Units=GPa)
#
#
# Indices 1 2 3 4 5 6 
#
# 1 75.0520 14.9031 39.1355 0.0000 0.0000 0.0000
# 2 14.9031 75.0520 39.1355 0.0000 0.0000 0.0000
# 3 39.1355 39.1355 102.4547 0.0000 0.0000 0.0000
# 4 0.0000 0.0000 0.0000 29.2887 0.0000 0.0000
# 5 0.0000 0.0000 0.0000 0.0000 29.2887 0.0000
# 6 0.0000 0.0000 0.0000 0.0000 0.0000 45.5048
#
#
#
# Elastic Compliance Matrix: (Units=1/GPa)
#
#
# Indices 1 2 3 4 5 6 
#
# 1 0.016638 0.000013 -0.006360 0.000000 0.000000 0.000000
# 2 0.000013 0.016638 -0.006360 0.000000 0.000000 0.000000
# 3 -0.006360 -0.006360 0.014619 0.000000 0.000000 0.000000
# 4 0.000000 0.000000 0.000000 0.034143 0.000000 0.000000
# 5 0.000000 0.000000 0.000000 0.000000 0.034143 0.000000
# 6 0.000000 0.000000 0.000000 0.000000 0.000000 0.021976
#
#
# Mechanical properties :
#
#
# Convention : Reuss Voigt Hill
#
# Bulk Modulus (GPa) = 44.48406 48.76743 46.62574
# Shear Modulus (GPa) = 29.22850 31.44207 30.33529
#
# Velocity S-wave (km/s) = 3.54708 3.67895 3.61362
# Velocity P-wave (km/s) = 5.99370 6.24810 6.12223
#
# Compressibility (1/GPa) = 0.02247996
#
# Stress axis : x y z
#
# Youngs Moduli (GPa) = 60.10308 60.10308 68.40249
#
# Poissons Ratio (x) = -0.00076 0.43506
# Poissons Ratio (y) = -0.00076 0.43506
# Poissons Ratio (z) = 0.38227 0.38227
#
# Static dielectric constant tensor:
#      x y z
#    x 4.139250 0.000000 0.000000 
#    y 0.000000 4.139250 0.000000 
#    z 0.000000 0.000000 4.122570 
# 
# 
# High freq. dielectric constant tensor:
#      x y z
#    x 1.915500 0.000000 0.000000 
#    y 0.000000 1.915500 0.000000 
#    z 0.000000 0.000000 1.910450 
# 
# From -- ./inp_files/552.got.cif
#   From: 2010.03.12/outbox.cif.g09.slc.cpg/sg106_cif.got.tgz:552.got - 2010.04.14 01:48:02.
