data_PCOD8307881
_publ_section_title
;
Structure prediction by ZEFSAII (Michael W. Deem and Ramdas Pophale) SiO2 
 PCOD8307881
Probable space group: I 41 M D
;
_chemical_formula_sum "Si O2"
_cell_formula_units_Z 112
_cell_length_a 13.609724
_cell_length_b 13.609724
_cell_length_c 30.031206
_cell_angle_alpha 90.000000
_cell_angle_beta 90.000000
_cell_angle_gamma 90.000000
_cell_volume 5562.517739
_symmetry_space_group_name_H-M "I 41 M D"
_symmetry_group_IT_number 109
_symmetry_cell_setting 'tetragonal'
loop_
_space_group_symop_operation_xyz
x,y,z
-y,1/2+x,1/4+z
-x,-y,z
y,1/2-x,1/4+z
-x,y,z
x,-y,z
-y,1/2-x,1/4+z
y,1/2+x,1/4+z
1/2+x,1/2+y,1/2+z
1/2-y,x,3/4+z
1/2-x,1/2-y,1/2+z
1/2+y,-x,3/4+z
1/2-x,1/2+y,1/2+z
1/2+x,1/2-y,1/2+z
1/2-y,-x,3/4+z
1/2+y,x,3/4+z
loop_
_atom_site_type_symbol
_atom_site_label
_atom_site_fract_x
_atom_site_fract_y
_atom_site_fract_z
Si Si1 0.268306 0.269851 0.696020
Si Si2 0.108622 0.764938 0.817700
Si Si3 0.608766 0.891348 0.796383
Si Si4 0.611505 0.388429 0.404093
Si Si5 0.384421 0.768995 0.036746
Si Si6 0.387373 0.284722 0.859463
Si Si7 0.193503 0.109405 0.746350
O O1 0.365631 0.203925 0.686150
O O2 0.295286 0.340710 0.737920
O O3 0.219678 0.330425 0.656013
O O4 0.181519 0.190725 0.707751
O O5 0.125241 0.805382 0.866817
O O6 0.175609 0.672411 0.806436
O O7 0.125732 0.861138 0.787389
O O8 0.000000 0.724884 0.810466
O O9 0.500000 0.870271 0.775558
O O10 0.631233 0.820823 0.837425
O O11 0.690813 0.880221 0.758817
O O12 0.612847 0.000000 0.817142
O O13 0.500000 0.375818 0.425002
O O14 0.622204 0.500000 0.386348
O O15 0.500000 0.747834 0.032063
O O16 0.367222 0.853912 0.073657
O O17 0.500000 0.305853 0.870764
O O18 0.166146 0.000000 0.730165
#
# Coordination Sequence:
#
# PCOD8307881 Si02
#       7
#    16  16  16  16  16  16  16
#     4  11  21  38  60  93 127 167 205 262 313 380
#     4  10  20  38  63  91 124 160 201 251 312 378
#     4   9  17  32  56  85 118 160 203 240 295 374
#     4  10  20  34  60  99 135 165 196 236 302 388
#     4  11  24  44  67  91 119 163 221 275 324 375
#     4  11  22  40  61  87 124 166 209 264 325 377
#     4  10  19  33  56  88 126 164 201 246 302 369
#
# _framework density 20.134765999999999
#
# number of rings (size 3 to 8) (size 9 to 14) (size 15 to 20)
#    0.000    1.714    4.286    1.286    0.000    4.286 
#    0.000    4.286    0.000    6.000    0.000    0.000 
#    0.000    0.000    0.000    0.000    0.000    0.000 
#
# Total GULP energy -693796.570718 kJ/mol
# GULP energy per Si atom -12389.224477 kJ/mol
# Density = 2.008894 g / cm^3
# Si number density = 20.134766 Si / 1000 Ang^3
#
#
#
# Elastic Constant Matrix: (Units=GPa)
#
#
# Indices 1 2 3 4 5 6 
#
# 1 122.2054 46.1943 46.2933 0.0000 0.0000 0.0000
# 2 46.1943 122.2054 46.2933 0.0000 0.0000 0.0000
# 3 46.2933 46.2933 95.3159 0.0000 0.0000 0.0000
# 4 0.0000 0.0000 0.0000 18.9203 0.0000 0.0000
# 5 0.0000 0.0000 0.0000 0.0000 18.9203 0.0000
# 6 0.0000 0.0000 0.0000 0.0000 0.0000 21.7375
#
#
#
# Elastic Compliance Matrix: (Units=1/GPa)
#
#
# Indices 1 2 3 4 5 6 
#
# 1 0.010629 -0.002527 -0.003935 0.000000 0.000000 0.000000
# 2 -0.002527 0.010629 -0.003935 0.000000 0.000000 0.000000
# 3 -0.003935 -0.003935 0.014314 0.000000 0.000000 0.000000
# 4 0.000000 0.000000 0.000000 0.052853 0.000000 0.000000
# 5 0.000000 0.000000 0.000000 0.000000 0.052853 0.000000
# 6 0.000000 0.000000 0.000000 0.000000 0.000000 0.046003
#
#
# Mechanical properties :
#
#
# Convention : Reuss Voigt Hill
#
# Bulk Modulus (GPa) = 67.67020 68.58759 68.12889
# Shear Modulus (GPa) = 23.47412 25.31201 24.39307
#
# Velocity S-wave (km/s) = 3.41816 3.54945 3.48442
# Velocity P-wave (km/s) = 7.01855 7.13697 7.07801
#
# Compressibility (1/GPa) = 0.01477755
#
# Stress axis : x y z
#
# Youngs Moduli (GPa) = 94.08396 94.08396 69.86373
#
# Poissons Ratio (x) = 0.23777 0.27490
# Poissons Ratio (y) = 0.23777 0.27490
# Poissons Ratio (z) = 0.37020 0.37020
#
# Static dielectric constant tensor:
#      x y z
#    x 3.739770 0.000000 0.000000 
#    y 0.000000 3.739770 0.000000 
#    z 0.000000 0.000000 3.645720 
# 
# 
# High freq. dielectric constant tensor:
#      x y z
#    x 1.778340 0.000000 0.000000 
#    y 0.000000 1.778340 0.000000 
#    z 0.000000 0.000000 1.783510 
# 
# From -- ./inp_files/5059.got.cif
#   From: 2010.03.12/outbox.cif.g09.slc.cpg/sg109_3_cif.got.tgz:5059.got - 2010.04.14 01:55:16.
