data_PCOD8307328
_publ_section_title
;
Structure prediction by ZEFSAII (Michael W. Deem and Ramdas Pophale) SiO2 
 PCOD8307328
Probable space group: P 42 M C
;
_chemical_formula_sum "Si O2"
_cell_formula_units_Z 48
_cell_length_a 9.067087
_cell_length_b 9.067087
_cell_length_c 30.959871
_cell_angle_alpha 90.000000
_cell_angle_beta 90.000000
_cell_angle_gamma 90.000000
_cell_volume 2545.274979
_symmetry_space_group_name_H-M "P 42 M C"
_symmetry_group_IT_number 105
_symmetry_cell_setting 'tetragonal'
loop_
_space_group_symop_operation_xyz
x,y,z
-y,x,1/2+z
-x,-y,z
y,-x,1/2+z
-x,y,z
x,-y,z
-y,-x,1/2+z
y,x,1/2+z
loop_
_atom_site_type_symbol
_atom_site_label
_atom_site_fract_x
_atom_site_fract_y
_atom_site_fract_z
Si Si1 0.332500 0.173115 0.523950
Si Si2 0.172809 0.828370 0.610001
Si Si3 0.670950 0.326258 0.344795
Si Si4 0.671180 0.326531 0.688680
Si Si5 0.324893 0.662757 0.440789
Si Si6 0.828613 0.826820 0.767912
O O1 0.500000 0.228645 0.531477
O O2 0.234047 0.226731 0.563970
O O3 0.264029 0.236034 0.479470
O O4 0.327099 0.000000 0.519255
O O5 0.249864 0.733246 0.646398
O O6 0.000000 0.798541 0.611511
O O7 0.210011 0.000000 0.617649
O O8 0.500000 0.287446 0.336234
O O9 0.696863 0.500000 0.337438
O O10 0.720382 0.279403 0.393279
O O11 0.773273 0.231440 0.313747
O O12 0.500000 0.284639 0.686301
O O13 0.696004 0.500000 0.691702
O O14 0.739625 0.253856 0.730708
O O15 0.500000 0.657385 0.442211
O O16 0.259321 0.500000 0.448046
O O17 0.000000 0.786208 0.763715
O O18 0.802387 0.000000 0.763417
#
# Coordination Sequence:
#
# PCOD8307328 Si02
#       6
#     8   8   8   8   8   8
#     4   9  17  30  50  76 105 139 179 218 258 309
#     4  10  21  37  56  79 109 144 179 216 262 315
#     4   9  18  34  56  81 108 140 180 223 266 313
#     4  11  24  40  59  83 107 134 173 219 265 315
#     4   8  15  29  50  76 105 136 173 220 267 308
#     4  11  24  39  55  79 110 142 176 215 262 316
#
# _framework density 18.858471999999999
#
# number of rings (size 3 to 8) (size 9 to 14) (size 15 to 20)
#    0.000    2.333    0.000    3.500    0.000    9.333 
#    0.000    4.167    0.000    3.000    0.000    0.000 
#    0.000    0.000    0.000    0.000    0.000    0.000 
#
# Total GULP energy -595193.781428 kJ/mol
# GULP energy per Si atom -12399.870446 kJ/mol
# Density = 1.881555 g / cm^3
# Si number density = 18.858472 Si / 1000 Ang^3
#
#
#
# Elastic Constant Matrix: (Units=GPa)
#
#
# Indices 1 2 3 4 5 6 
#
# 1 68.6043 48.1057 56.7453 0.0000 0.0000 0.0000
# 2 48.1057 68.6043 56.7453 0.0000 0.0000 0.0000
# 3 56.7453 56.7453 161.2577 0.0000 0.0000 0.0000
# 4 0.0000 0.0000 0.0000 78.1087 0.0000 0.0000
# 5 0.0000 0.0000 0.0000 0.0000 78.1087 0.0000
# 6 0.0000 0.0000 0.0000 0.0000 0.0000 26.3879
#
#
#
# Elastic Compliance Matrix: (Units=1/GPa)
#
#
# Indices 1 2 3 4 5 6 
#
# 1 0.030905 -0.017879 -0.004584 0.000000 0.000000 0.000000
# 2 -0.017879 0.030905 -0.004584 0.000000 0.000000 0.000000
# 3 -0.004584 -0.004584 0.009427 0.000000 0.000000 0.000000
# 4 0.000000 0.000000 0.000000 0.012803 0.000000 0.000000
# 5 0.000000 0.000000 0.000000 0.000000 0.012803 0.000000
# 6 0.000000 0.000000 0.000000 0.000000 0.000000 0.037896
#
#
# Mechanical properties :
#
#
# Convention : Reuss Voigt Hill
#
# Bulk Modulus (GPa) = 58.33057 69.07321 63.70189
# Shear Modulus (GPa) = 25.70106 45.64572 35.67339
#
# Velocity S-wave (km/s) = 3.69567 4.92513 4.35401
# Velocity P-wave (km/s) = 7.01488 8.30959 7.68953
#
# Compressibility (1/GPa) = 0.01714367
#
# Stress axis : x y z
#
# Youngs Moduli (GPa) = 32.35774 32.35774 106.07767
#
# Poissons Ratio (x) = 0.57853 0.48621
# Poissons Ratio (y) = 0.57853 0.48621
# Poissons Ratio (z) = 0.14831 0.14831
#
# Static dielectric constant tensor:
#      x y z
#    x 3.396440 0.000000 0.000000 
#    y 0.000000 3.396440 0.000000 
#    z 0.000000 0.000000 3.815950 
# 
# 
# High freq. dielectric constant tensor:
#      x y z
#    x 1.722530 0.000000 0.000000 
#    y 0.000000 1.722530 0.000000 
#    z 0.000000 0.000000 1.752890 
# 
# From -- ./inp_files/4704.got.cif
#   From: 2010.03.12/outbox.cif.g09.slc.cpg/sg105_3_cif.got.tgz:4704.got - 2010.04.14 01:45:32.
