data_PCOD8307455
_publ_section_title
;
Structure prediction by ZEFSAII (Michael W. Deem and Ramdas Pophale) SiO2 
 PCOD8307455
Probable space group: P 42 B C
;
_chemical_formula_sum "Si O2"
_cell_formula_units_Z 40
_cell_length_a 13.254997
_cell_length_b 13.254997
_cell_length_c 9.620363
_cell_angle_alpha 90.000000
_cell_angle_beta 90.000000
_cell_angle_gamma 90.000000
_cell_volume 1690.249153
_symmetry_space_group_name_H-M "P 42 B C"
_symmetry_group_IT_number 106
_symmetry_cell_setting 'tetragonal'
loop_
_space_group_symop_operation_xyz
x,y,z
-y,x,1/2+z
-x,-y,z
y,-x,1/2+z
1/2-x,1/2+y,z
1/2+x,1/2-y,z
1/2-y,1/2-x,1/2+z
1/2+y,1/2+x,1/2+z
loop_
_atom_site_type_symbol
_atom_site_label
_atom_site_fract_x
_atom_site_fract_y
_atom_site_fract_z
Si Si1 0.300346 0.046624 0.959370
Si Si2 0.819571 0.957735 0.684443
Si Si3 0.230759 0.384249 0.178325
Si Si4 0.675039 0.342488 0.183223
Si Si5 0.297977 0.043036 0.404912
O O1 0.265612 0.040536 0.801389
O O2 0.412124 0.095129 0.956589
O O3 0.221266 0.116951 0.040758
O O4 0.303674 0.938873 0.036042
O O5 0.882207 0.853561 0.685768
O O6 0.769325 0.978504 0.537059
O O7 0.885279 0.060535 0.705063
O O8 0.176549 0.277948 0.175315
O O9 0.188157 0.442831 0.312854
O O10 0.742732 0.372295 0.313374
#
# Coordination Sequence:
#
# PCOD8307455 Si02
#       5
#     8   8   8   8   8
#     4  11  23  44  70 101 147 190 244 297 366 436
#     4  12  23  39  72 107 133 189 245 293 368 434
#     4  11  24  46  72 100 149 201 238 305 371 439
#     4  11  25  46  71  99 150 195 240 305 381 435
#     4  11  23  44  70 101 147 190 244 297 366 436
#
# _framework density 23.665149
#
# number of rings (size 3 to 8) (size 9 to 14) (size 15 to 20)
#    0.000    0.800    4.000    3.600    0.000    3.200 
#    0.000   14.000    0.000    0.000    0.000    0.000 
#    0.000    0.000    0.000    0.000    0.000    0.000 
#
# Total GULP energy -495985.771360 kJ/mol
# GULP energy per Si atom -12399.644284 kJ/mol
# Density = 2.361129 g / cm^3
# Si number density = 23.665149 Si / 1000 Ang^3
#
#
#
# Elastic Constant Matrix: (Units=GPa)
#
#
# Indices 1 2 3 4 5 6 
#
# 1 100.5994 7.2941 7.3389 0.0000 0.0000 0.0000
# 2 7.2941 100.5994 7.3389 0.0000 0.0000 0.0000
# 3 7.3389 7.3389 106.5150 0.0000 0.0000 0.0000
# 4 0.0000 0.0000 0.0000 22.9033 0.0000 0.0000
# 5 0.0000 0.0000 0.0000 0.0000 22.9033 0.0000
# 6 0.0000 0.0000 0.0000 0.0000 0.0000 29.9038
#
#
#
# Elastic Compliance Matrix: (Units=1/GPa)
#
#
# Indices 1 2 3 4 5 6 
#
# 1 0.010037 -0.000681 -0.000645 0.000000 0.000000 0.000000
# 2 -0.000681 0.010037 -0.000645 0.000000 0.000000 0.000000
# 3 -0.000645 -0.000645 0.009477 0.000000 0.000000 0.000000
# 4 0.000000 0.000000 0.000000 0.043662 0.000000 0.000000
# 5 0.000000 0.000000 0.000000 0.000000 0.043662 0.000000
# 6 0.000000 0.000000 0.000000 0.000000 0.000000 0.033441
#
#
# Mechanical properties :
#
#
# Convention : Reuss Voigt Hill
#
# Bulk Modulus (GPa) = 39.04598 39.07306 39.05952
# Shear Modulus (GPa) = 30.71407 34.19155 32.45281
#
# Velocity S-wave (km/s) = 3.60649 3.80518 3.70717
# Velocity P-wave (km/s) = 5.82044 5.98770 5.90466
#
# Compressibility (1/GPa) = 0.02561083
#
# Stress axis : x y z
#
# Youngs Moduli (GPa) = 99.63339 99.63339 105.51664
#
# Poissons Ratio (x) = 0.06782 0.06802
# Poissons Ratio (y) = 0.06782 0.06802
# Poissons Ratio (z) = 0.06423 0.06423
#
# Static dielectric constant tensor:
#      x y z
#    x 4.261780 0.000000 0.000000 
#    y 0.000000 4.261780 0.000000 
#    z 0.000000 0.000000 4.532010 
# 
# 
# High freq. dielectric constant tensor:
#      x y z
#    x 1.934740 0.000000 0.000000 
#    y 0.000000 1.934740 0.000000 
#    z 0.000000 0.000000 1.958580 
# 
# From -- ./inp_files/381.got.cif
#   From: 2010.03.12/outbox.cif.g09.slc.cpg/sg106_cif.got.tgz:381.got - 2010.04.14 01:48:02.
