data_PCOD8307171
_publ_section_title
;
Structure prediction by ZEFSAII (Michael W. Deem and Ramdas Pophale) SiO2 
 PCOD8307171
Probable space group: P 42 M C
;
_chemical_formula_sum "Si O2"
_cell_formula_units_Z 48
_cell_length_a 9.783054
_cell_length_b 9.783054
_cell_length_c 27.674141
_cell_angle_alpha 90.000000
_cell_angle_beta 90.000000
_cell_angle_gamma 90.000000
_cell_volume 2648.640715
_symmetry_space_group_name_H-M "P 42 M C"
_symmetry_group_IT_number 105
_symmetry_cell_setting 'tetragonal'
loop_
_space_group_symop_operation_xyz
x,y,z
-y,x,1/2+z
-x,-y,z
y,-x,1/2+z
-x,y,z
x,-y,z
-y,-x,1/2+z
y,x,1/2+z
loop_
_atom_site_type_symbol
_atom_site_label
_atom_site_fract_x
_atom_site_fract_y
_atom_site_fract_z
Si Si1 0.841808 0.000000 0.604750
Si Si2 0.838494 0.500000 0.594280
Si Si3 0.651919 0.000000 0.697074
Si Si4 0.245317 0.839537 0.035465
Si Si5 0.166504 0.500000 0.704653
Si Si6 0.339525 0.728215 0.756870
Si Si7 0.844474 0.660824 0.840723
Si Si8 0.840662 0.345669 0.951559
O O1 0.758638 0.000000 0.653959
O O2 0.801940 0.125656 0.571674
O O3 0.000000 0.000000 0.619885
O O4 0.782262 0.627214 0.564794
O O5 0.787732 0.500000 0.649009
O O6 0.000000 0.500000 0.595026
O O7 0.672912 0.127630 0.731578
O O8 0.500000 0.000000 0.674347
O O9 0.250788 0.000000 0.023216
O O10 0.239433 0.759982 0.985083
O O11 0.238178 0.630600 0.727526
O O12 0.000000 0.500000 0.712113
O O13 0.500000 0.680240 0.759534
O O14 0.272037 0.739044 0.810120
O O15 0.833302 0.500000 0.829796
O O16 0.810732 0.693179 0.896271
O O17 0.000000 0.709112 0.828336
O O18 0.790937 0.500000 0.962179
O O19 0.000000 0.332574 0.962748
#
# Coordination Sequence:
#
# PCOD8307171 Si02
#       8
#     4   4   4   8   4   8   8   8
#     4  10  20  34  58  84 108 146 190 230 277 332
#     4   9  20  35  53  79 115 147 181 225 274 329
#     4  10  24  40  54  80 122 156 186 230 281 350
#     4  10  19  35  56  80 112 144 182 231 277 328
#     4  11  21  37  63  87 109 151 197 235 282 335
#     4  11  22  38  58  82 116 151 187 237 289 340
#     4   9  18  35  58  81 105 140 186 234 281 336
#     4   9  18  34  56  80 106 140 182 230 279 331
#
# _framework density 18.122502000000001
#
# number of rings (size 3 to 8) (size 9 to 14) (size 15 to 20)
#    0.000    2.167    1.667    2.750    0.000    3.333 
#    3.000    2.083    0.000    0.000    0.000    0.000 
#    0.000    0.000    0.000    0.000    0.000    0.000 
#
# Total GULP energy -594962.494753 kJ/mol
# GULP energy per Si atom -12395.051974 kJ/mol
# Density = 1.808125 g / cm^3
# Si number density = 18.122502 Si / 1000 Ang^3
#
#
#
# Elastic Constant Matrix: (Units=GPa)
#
#
# Indices 1 2 3 4 5 6 
#
# 1 106.4046 46.8378 65.2895 0.0000 0.0000 0.0000
# 2 46.8378 106.4046 65.2895 0.0000 0.0000 0.0000
# 3 65.2895 65.2895 140.3789 0.0000 0.0000 0.0000
# 4 0.0000 0.0000 0.0000 20.6339 0.0000 0.0000
# 5 0.0000 0.0000 0.0000 0.0000 20.6339 0.0000
# 6 0.0000 0.0000 0.0000 0.0000 0.0000 24.7118
#
#
#
# Elastic Compliance Matrix: (Units=1/GPa)
#
#
# Indices 1 2 3 4 5 6 
#
# 1 0.013799 -0.002989 -0.005027 0.000000 0.000000 0.000000
# 2 -0.002989 0.013799 -0.005027 0.000000 0.000000 0.000000
# 3 -0.005027 -0.005027 0.011800 0.000000 0.000000 0.000000
# 4 0.000000 0.000000 0.000000 0.048464 0.000000 0.000000
# 5 0.000000 0.000000 0.000000 0.000000 0.048464 0.000000
# 6 0.000000 0.000000 0.000000 0.000000 0.000000 0.040467
#
#
# Mechanical properties :
#
#
# Convention : Reuss Voigt Hill
#
# Bulk Modulus (GPa) = 75.13536 78.66909 76.90222
# Shear Modulus (GPa) = 24.11769 24.91398 24.51584
#
# Velocity S-wave (km/s) = 3.65199 3.71179 3.68201
# Velocity P-wave (km/s) = 7.70275 7.86598 7.78480
#
# Compressibility (1/GPa) = 0.01330931
#
# Stress axis : x y z
#
# Youngs Moduli (GPa) = 72.47047 72.47047 84.74509
#
# Poissons Ratio (x) = 0.21663 0.42605
# Poissons Ratio (y) = 0.21663 0.42605
# Poissons Ratio (z) = 0.36434 0.36434
#
# Static dielectric constant tensor:
#      x y z
#    x 3.366360 0.000000 0.000000 
#    y 0.000000 3.366360 0.000000 
#    z 0.000000 0.000000 3.509570 
# 
# 
# High freq. dielectric constant tensor:
#      x y z
#    x 1.694830 0.000000 0.000000 
#    y 0.000000 1.694830 0.000000 
#    z 0.000000 0.000000 1.714430 
# 
# From -- ./inp_files/4966.got.cif
#   From: 2010.03.12/outbox.cif.g09.slc.cpg/sg105_3_cif.got.tgz:4966.got - 2010.04.14 01:45:32.
