data_PCOD8307785
_publ_section_title
;
Structure prediction by ZEFSAII (Michael W. Deem and Ramdas Pophale) SiO2 
 PCOD8307785
Probable space group: I 4 C M
;
_chemical_formula_sum "Si O2"
_cell_formula_units_Z 112
_cell_length_a 14.332853
_cell_length_b 14.332853
_cell_length_c 25.400885
_cell_angle_alpha 90.000000
_cell_angle_beta 90.000000
_cell_angle_gamma 90.000000
_cell_volume 5218.120954
_symmetry_space_group_name_H-M "I 4 C M"
_symmetry_group_IT_number 108
_symmetry_cell_setting 'tetragonal'
loop_
_space_group_symop_operation_xyz
x,y,z
-y,x,z
-x,-y,z
y,-x,z
-x,y,1/2+z
x,-y,1/2+z
-y,-x,1/2+z
y,x,1/2+z
1/2+x,1/2+y,1/2+z
1/2-y,1/2+x,1/2+z
1/2-x,1/2-y,1/2+z
1/2+y,1/2-x,1/2+z
1/2-x,1/2+y,z
1/2+x,1/2-y,z
1/2-y,1/2-x,z
1/2+y,1/2+x,z
loop_
_atom_site_type_symbol
_atom_site_label
_atom_site_fract_x
_atom_site_fract_y
_atom_site_fract_z
Si Si1 0.098619 0.116398 0.280140
Si Si2 0.667167 0.315062 0.998099
Si Si3 0.005425 0.352132 0.418782
Si Si4 0.374087 0.276123 0.678679
Si Si5 0.581697 0.231032 0.640896
Si Si6 0.280910 0.630460 0.378310
Si Si7 0.263606 0.980619 0.527592
O O1 0.146090 0.182501 0.236907
O O2 0.132689 0.140120 0.338942
O O3 0.989472 0.129810 0.271888
O O4 0.764770 0.264770 0.011598
O O5 0.651852 0.318260 0.935979
O O6 0.669304 0.420951 0.018132
O O7 0.589010 0.260061 0.030315
O O8 0.089231 0.410770 0.391142
O O9 0.040312 0.328527 0.477441
O O10 0.913158 0.413158 0.426989
O O11 0.974370 0.265132 0.381874
O O12 0.323348 0.176653 0.673481
O O13 0.484673 0.257866 0.670067
O O14 0.324605 0.352657 0.639757
O O15 0.644303 0.144303 0.665355
O O16 0.552767 0.194663 0.582920
O O17 0.203767 0.703767 0.359149
#
# Coordination Sequence:
#
# PCOD8307785 Si02
#       7
#    16  16  16  16  16  16  16
#     4  11  23  41  65  91 117 157 211 260 320 397
#     4  10  22  38  57  89 128 169 211 252 305 371
#     4   9  18  34  57  86 124 171 214 255 309 374
#     4  11  24  45  69  93 128 165 210 277 333 386
#     4  11  24  41  67  98 127 171 221 266 326 389
#     4   9  20  37  58  87 123 161 207 259 313 378
#     4  11  21  37  59  87 129 170 209 257 308 371
#
# _framework density 21.463664000000001
#
# number of rings (size 3 to 8) (size 9 to 14) (size 15 to 20)
#    0.000    1.714    1.429    3.857    4.000    3.143 
#    0.000    2.143    0.000    0.000    0.000    0.000 
#    0.000    0.000    0.000    0.000    0.000    0.000 
#
# Total GULP energy -693744.369807 kJ/mol
# GULP energy per Si atom -12388.292318 kJ/mol
# Density = 2.141481 g / cm^3
# Si number density = 21.463664 Si / 1000 Ang^3
#
#
#
# Elastic Constant Matrix: (Units=GPa)
#
#
# Indices 1 2 3 4 5 6 
#
# 1 68.4181 77.1003 31.1426 0.0000 0.0000 -0.0010
# 2 77.1003 68.4181 31.1426 0.0000 0.0000 0.0010
# 3 31.1426 31.1426 73.3918 0.0000 0.0000 0.0000
# 4 0.0000 0.0000 0.0000 24.9017 0.0000 0.0000
# 5 0.0000 0.0000 0.0000 0.0000 24.9017 0.0000
# 6 -0.0010 0.0010 0.0000 0.0000 0.0000 22.9043
#
#
#
# Elastic Compliance Matrix: (Units=1/GPa)
#
#
# Indices 1 2 3 4 5 6 
#
# 1 -0.053390 0.061788 -0.003563 0.000000 0.000000 -0.000005
# 2 0.061788 -0.053390 -0.003563 0.000000 0.000000 0.000005
# 3 -0.003563 -0.003563 0.016649 0.000000 0.000000 0.000000
# 4 0.000000 0.000000 0.000000 0.040158 0.000000 0.000000
# 5 0.000000 0.000000 0.000000 0.000000 0.040158 0.000000
# 6 -0.000005 0.000005 0.000000 0.000000 0.000000 0.043660
#
#
# Mechanical properties :
#
#
# Convention : Reuss Voigt Hill
#
# Bulk Modulus (GPa) = 52.10787 54.33323 53.22055
# Shear Modulus (GPa) = -72.37831 19.26439 -26.55696
#
# Velocity S-wave (km/s) = -5.81331 2.99914 -3.52134
# Velocity P-wave (km/s) = 4.55296 6.11246 2.88381
#
# Compressibility (1/GPa) = 0.01919096
#
# Stress axis : x y z
#
# Youngs Moduli (GPa) = -18.72993 -18.72993 60.06206
#
# Poissons Ratio (x) = 1.15728 0.21401
# Poissons Ratio (y) = 1.15728 0.21401
# Poissons Ratio (z) = -0.06674 -0.06674
#
# Static dielectric constant tensor:
#      x y z
#    x 3.978570 0.000000 0.000000 
#    y 0.000000 3.978570 0.000000 
#    z 0.000000 0.000000 3.701150 
# 
# 
# High freq. dielectric constant tensor:
#      x y z
#    x 1.844780 0.000000 0.000000 
#    y 0.000000 1.844780 0.000000 
#    z 0.000000 0.000000 1.824850 
# 
# From -- ./inp_files/3213.got.cif
#   From: 2010.03.12/outbox.cif.g09.slc.cpg/sg108_2_cif.got.tgz:3213.got - 2010.04.14 01:53:11.
