data_PCOD8307980
_publ_section_title
;
Structure prediction by ZEFSAII (Michael W. Deem and Ramdas Pophale) SiO2 
 PCOD8307980
Probable space group: I 41 M D
;
_chemical_formula_sum "Si O2"
_cell_formula_units_Z 48
_cell_length_a 7.796677
_cell_length_b 7.796677
_cell_length_c 38.293372
_cell_angle_alpha 90.000000
_cell_angle_beta 90.000000
_cell_angle_gamma 90.000000
_cell_volume 2327.784093
_symmetry_space_group_name_H-M "I 41 M D"
_symmetry_group_IT_number 109
_symmetry_cell_setting 'tetragonal'
loop_
_space_group_symop_operation_xyz
x,y,z
-y,1/2+x,1/4+z
-x,-y,z
y,1/2-x,1/4+z
-x,y,z
x,-y,z
-y,1/2-x,1/4+z
y,1/2+x,1/4+z
1/2+x,1/2+y,1/2+z
1/2-y,x,3/4+z
1/2-x,1/2-y,1/2+z
1/2+y,-x,3/4+z
1/2-x,1/2+y,1/2+z
1/2+x,1/2-y,1/2+z
1/2-y,-x,3/4+z
1/2+y,x,3/4+z
loop_
_atom_site_type_symbol
_atom_site_label
_atom_site_fract_x
_atom_site_fract_y
_atom_site_fract_z
Si Si1 0.689613 0.798386 0.034410
Si Si2 0.809074 0.203305 0.361976
Si Si3 0.802785 0.000000 0.736018
Si Si4 0.000000 0.294511 0.908649
O O1 0.500000 0.719306 0.025995
O O2 0.752939 0.743549 0.073040
O O3 0.827347 0.741982 0.006182
O O4 0.672885 0.000000 0.033858
O O5 0.671032 0.276642 0.389443
O O6 0.000000 0.280173 0.369581
O O7 0.820575 0.000000 0.364418
O O8 0.715581 0.000000 0.697729
O O9 0.000000 0.000000 0.728219
O O10 0.000000 0.500000 0.907382
#
# Coordination Sequence:
#
# PCOD8307980 Si02
#       4
#    16  16   8   8
#     4   9  19  37  60  80 104 149 200 240 283 341
#     4   8  15  30  54  79 102 141 195 240 282 337
#     4  11  23  33  51  89 125 149 181 237 303 357
#     4   9  18  31  49  79 117 149 181 233 297 348
#
# _framework density 20.620467999999999
#
# number of rings (size 3 to 8) (size 9 to 14) (size 15 to 20)
#    0.000    3.000    0.000    2.500    2.333    2.000 
#    0.000    3.333    7.333    0.000    0.000    0.000 
#    0.000    0.000    0.000    0.000    0.000    0.000 
#
# Total GULP energy -297393.524549 kJ/mol
# GULP energy per Si atom -12391.396856 kJ/mol
# Density = 2.057353 g / cm^3
# Si number density = 20.620468 Si / 1000 Ang^3
#
#
#
# Elastic Constant Matrix: (Units=GPa)
#
#
# Indices 1 2 3 4 5 6 
#
# 1 81.8113 26.1476 70.1477 0.0000 0.0000 0.0000
# 2 26.1476 81.8112 70.1476 0.0000 0.0000 0.0000
# 3 70.1477 70.1476 201.2936 0.0000 0.0000 0.0000
# 4 0.0000 0.0000 0.0000 3.1171 0.0000 0.0000
# 5 0.0000 0.0000 0.0000 0.0000 3.1171 0.0000
# 6 0.0000 0.0000 0.0000 0.0000 0.0000 18.4952
#
#
#
# Elastic Compliance Matrix: (Units=1/GPa)
#
#
# Indices 1 2 3 4 5 6 
#
# 1 0.017447 -0.000518 -0.005900 0.000000 0.000000 0.000000
# 2 -0.000518 0.017447 -0.005900 0.000000 0.000000 0.000000
# 3 -0.005900 -0.005900 0.009080 0.000000 0.000000 0.000000
# 4 0.000000 0.000000 0.000000 0.320813 -0.000001 0.000000
# 5 0.000000 0.000000 0.000000 -0.000001 0.320809 0.000000
# 6 0.000000 0.000000 0.000000 0.000000 0.000000 0.054068
#
#
# Mechanical properties :
#
#
# Convention : Reuss Voigt Hill
#
# Bulk Modulus (GPa) = 51.70587 77.53356 64.61972
# Shear Modulus (GPa) = 6.48722 18.17742 12.33232
#
# Velocity S-wave (km/s) = 1.77562 2.97227 2.44818
# Velocity P-wave (km/s) = 5.41602 7.03286 6.27672
#
# Compressibility (1/GPa) = 0.01934016
#
# Stress axis : x y z
#
# Youngs Moduli (GPa) = 57.31541 57.31537 110.13491
#
# Poissons Ratio (x) = 0.02967 0.64976
# Poissons Ratio (y) = 0.02967 0.64976
# Poissons Ratio (z) = 0.33814 0.33814
#
# Static dielectric constant tensor:
#      x y z
#    x 3.611820 0.000000 0.000000 
#    y 0.000000 3.611820 0.000000 
#    z 0.000000 0.000000 4.499880 
# 
# 
# High freq. dielectric constant tensor:
#      x y z
#    x 1.791730 0.000000 0.000000 
#    y 0.000000 1.791730 0.000000 
#    z 0.000000 0.000000 1.803330 
# 
# From -- ./inp_files/5251.got.cif
#   From: 2010.03.12/outbox.cif.g09.slc.cpg/sg109_3_cif.got.tgz:5251.got - 2010.04.14 01:55:16.
