data_PCOD8307846
_publ_section_title
;
Structure prediction by ZEFSAII (Michael W. Deem and Ramdas Pophale) SiO2 
 PCOD8307846
Probable space group: I 41 M D
;
_chemical_formula_sum "Si O2"
_cell_formula_units_Z 112
_cell_length_a 20.558445
_cell_length_b 20.558445
_cell_length_c 17.154517
_cell_angle_alpha 90.000000
_cell_angle_beta 90.000000
_cell_angle_gamma 90.000000
_cell_volume 7250.350792
_symmetry_space_group_name_H-M "I 41 M D"
_symmetry_group_IT_number 109
_symmetry_cell_setting 'tetragonal'
loop_
_space_group_symop_operation_xyz
x,y,z
-y,1/2+x,1/4+z
-x,-y,z
y,1/2-x,1/4+z
-x,y,z
x,-y,z
-y,1/2-x,1/4+z
y,1/2+x,1/4+z
1/2+x,1/2+y,1/2+z
1/2-y,x,3/4+z
1/2-x,1/2-y,1/2+z
1/2+y,-x,3/4+z
1/2-x,1/2+y,1/2+z
1/2+x,1/2-y,1/2+z
1/2-y,-x,3/4+z
1/2+y,x,3/4+z
loop_
_atom_site_type_symbol
_atom_site_label
_atom_site_fract_x
_atom_site_fract_y
_atom_site_fract_z
Si Si1 0.332746 0.198055 0.685450
Si Si2 0.726325 0.738547 0.822702
Si Si3 0.424626 0.343155 0.208097
Si Si4 0.430103 0.747169 0.438097
Si Si5 0.647256 0.571853 0.321952
Si Si6 0.709862 0.654553 0.962367
Si Si7 0.074392 0.360375 0.825368
O O1 0.332720 0.233590 0.769367
O O2 0.295252 0.243541 0.625083
O O3 0.301132 0.128179 0.698342
O O4 0.403715 0.181282 0.651844
O O5 0.695782 0.681066 0.875248
O O6 0.784122 0.711758 0.769651
O O7 0.500000 0.323850 0.206480
O O8 0.410001 0.381753 0.288921
O O9 0.381253 0.278962 0.207895
O O10 0.409632 0.387186 0.131803
O O11 0.500000 0.710176 0.438005
O O12 0.429399 0.798512 0.506727
O O13 0.422674 0.786927 0.358011
O O14 0.618790 0.500000 0.337404
O O15 0.649809 0.608498 0.990507
O O16 0.000000 0.385314 0.816429
#
# Coordination Sequence:
#
# PCOD8307846 Si02
#       7
#    16  16  16  16  16  16  16
#     4  11  16  29  43  69  84 116 149 185 231 270
#     4  10  18  26  49  65  91 107 148 199 231 275
#     4  11  20  31  45  67  97 130 162 186 219 271
#     4   9  16  27  41  62  90 117 143 179 216 265
#     4  10  19  30  43  61  91 120 149 182 218 267
#     4  11  17  31  45  71  90 119 153 193 237 269
#     4  10  18  29  44  64  95 127 157 184 220 273
#
# _framework density 15.447528
#
# number of rings (size 3 to 8) (size 9 to 14) (size 15 to 20)
#    0.000    1.714    5.714    3.429    0.000    2.857 
#    0.000    0.000    0.000    0.857    0.000    0.000 
#    0.000    0.000    0.000    0.000    0.000    0.000 
#
# Total GULP energy -693953.754153 kJ/mol
# GULP energy per Si atom -12392.031324 kJ/mol
# Density = 1.541237 g / cm^3
# Si number density = 15.447528 Si / 1000 Ang^3
#
#
#
# Elastic Constant Matrix: (Units=GPa)
#
#
# Indices 1 2 3 4 5 6 
#
# 1 32.0399 13.7685 28.6094 0.0000 0.0000 0.0000
# 2 13.7685 32.0399 28.6094 0.0000 0.0000 0.0000
# 3 28.6094 28.6094 83.1150 0.0000 0.0000 0.0000
# 4 0.0000 0.0000 0.0000 -14.8093 0.0000 0.0000
# 5 0.0000 0.0000 0.0000 0.0000 -14.8093 0.0000
# 6 0.0000 0.0000 0.0000 0.0000 0.0000 -8.6970
#
#
#
# Elastic Compliance Matrix: (Units=1/GPa)
#
#
# Indices 1 2 3 4 5 6 
#
# 1 0.046513 -0.008218 -0.013182 0.000000 0.000000 0.000000
# 2 -0.008218 0.046513 -0.013182 0.000000 0.000000 0.000000
# 3 -0.013182 -0.013182 0.021106 0.000000 0.000000 0.000000
# 4 0.000000 0.000000 0.000000 -0.067525 0.000000 0.000000
# 5 0.000000 0.000000 0.000000 0.000000 -0.067525 0.000000
# 6 0.000000 0.000000 0.000000 0.000000 0.000000 -0.114983
#
#
# Mechanical properties :
#
#
# Convention : Reuss Voigt Hill
#
# Bulk Modulus (GPa) = 22.23717 32.12991 27.18354
# Shear Modulus (GPa) = -96.62127 -2.58262 -49.60195
#
# Velocity S-wave (km/s) = -7.91731 -1.29441 -5.67271
# Velocity P-wave (km/s) = 8.31576 4.31399 5.02700
#
# Compressibility (1/GPa) = 0.04496975
#
# Stress axis : x y z
#
# Youngs Moduli (GPa) = 21.49943 21.49943 47.37934
#
# Poissons Ratio (x) = 0.17667 0.62455
# Poissons Ratio (y) = 0.17667 0.62455
# Poissons Ratio (z) = 0.28340 0.28340
#
# Static dielectric constant tensor:
#      x y z
#    x 3.062150 0.000000 0.000000 
#    y 0.000000 3.062150 0.000000 
#    z 0.000000 0.000000 3.191190 
# 
# 
# High freq. dielectric constant tensor:
#      x y z
#    x 1.570100 0.000000 0.000000 
#    y 0.000000 1.570100 0.000000 
#    z 0.000000 0.000000 1.581720 
# 
# From -- ./inp_files/3266.got.cif
#   From: 2010.03.12/outbox.cif.g09.slc.cpg/sg109_2_cif.got.tgz:3266.got - 2010.04.14 01:55:16.
