data_PCOD8307220
_publ_section_title
;
Structure prediction by ZEFSAII (Michael W. Deem and Ramdas Pophale) SiO2 
 PCOD8307220
Probable space group: P 42 M C
;
_chemical_formula_sum "Si O2"
_cell_formula_units_Z 48
_cell_length_a 9.020026
_cell_length_b 9.020026
_cell_length_c 30.993412
_cell_angle_alpha 90.000000
_cell_angle_beta 90.000000
_cell_angle_gamma 90.000000
_cell_volume 2521.650935
_symmetry_space_group_name_H-M "P 42 M C"
_symmetry_group_IT_number 105
_symmetry_cell_setting 'tetragonal'
loop_
_space_group_symop_operation_xyz
x,y,z
-y,x,1/2+z
-x,-y,z
y,-x,1/2+z
-x,y,z
x,-y,z
-y,-x,1/2+z
y,x,1/2+z
loop_
_atom_site_type_symbol
_atom_site_label
_atom_site_fract_x
_atom_site_fract_y
_atom_site_fract_z
Si Si1 0.167395 0.176756 0.822110
Si Si2 0.827163 0.671823 0.658514
Si Si3 0.170584 0.173969 0.492714
Si Si4 0.176404 0.332915 0.406417
Si Si5 0.824005 0.667970 0.237018
Si Si6 0.673651 0.670289 0.570277
O O1 0.246808 0.240061 0.864866
O O2 0.255173 0.236529 0.780464
O O3 0.000000 0.238021 0.820499
O O4 0.167678 0.000000 0.822849
O O5 0.795266 0.500000 0.667750
O O6 0.757667 0.766869 0.696359
O O7 0.753287 0.722159 0.613883
O O8 0.000000 0.707203 0.655545
O O9 0.231625 0.252171 0.449626
O O10 0.269929 0.226268 0.532184
O O11 0.000000 0.218003 0.501605
O O12 0.188462 0.000000 0.486147
O O13 0.238554 0.500000 0.406064
O O14 0.000000 0.332330 0.404688
O O15 0.764076 0.500000 0.235595
O O16 0.000000 0.671053 0.236254
O O17 0.500000 0.693556 0.576612
O O18 0.713291 0.500000 0.559457
#
# Coordination Sequence:
#
# PCOD8307220 Si02
#       6
#     8   8   8   8   8   8
#     4   9  16  27  45  71 104 139 175 218 265 310
#     4  10  21  37  57  79 103 134 173 216 262 312
#     4  10  20  33  51  77 106 135 169 210 256 306
#     4   9  16  27  46  72 102 136 174 216 260 307
#     4  10  20  33  51  77 108 141 177 216 260 312
#     4  10  21  37  56  76  99 131 170 210 255 309
#
# _framework density 19.035146999999998
#
# number of rings (size 3 to 8) (size 9 to 14) (size 15 to 20)
#    0.000    2.333    0.000    3.000    0.000    8.667 
#    0.000    0.000    0.000    1.000    0.000    0.000 
#    0.000    0.000    0.000    0.000    0.000    0.000 
#
# Total GULP energy -595340.561031 kJ/mol
# GULP energy per Si atom -12402.928355 kJ/mol
# Density = 1.899182 g / cm^3
# Si number density = 19.035147 Si / 1000 Ang^3
#
#
#
# Elastic Constant Matrix: (Units=GPa)
#
#
# Indices 1 2 3 4 5 6 
#
# 1 77.3898 28.6643 54.1758 0.0000 0.0000 0.0000
# 2 28.6643 77.3898 54.1758 0.0000 0.0000 0.0000
# 3 54.1758 54.1758 166.9946 0.0000 0.0000 0.0000
# 4 0.0000 0.0000 0.0000 -4.5921 0.0000 0.0000
# 5 0.0000 0.0000 0.0000 0.0000 -4.5921 0.0000
# 6 0.0000 0.0000 0.0000 0.0000 0.0000 20.8759
#
#
#
# Elastic Compliance Matrix: (Units=1/GPa)
#
#
# Indices 1 2 3 4 5 6 
#
# 1 0.017313 -0.003210 -0.004575 0.000000 0.000000 0.000000
# 2 -0.003210 0.017313 -0.004575 0.000000 0.000000 0.000000
# 3 -0.004575 -0.004575 0.008957 0.000000 0.000000 0.000000
# 4 0.000000 0.000000 0.000000 -0.217764 0.000000 0.000000
# 5 0.000000 0.000000 0.000000 0.000000 -0.217764 0.000000
# 6 0.000000 0.000000 0.000000 0.000000 0.000000 0.047902
#
#
# Mechanical properties :
#
#
# Convention : Reuss Voigt Hill
#
# Bulk Modulus (GPa) = 53.01522 66.20067 59.60795
# Shear Modulus (GPa) = -15.97274 14.65556 -0.65859
#
# Velocity S-wave (km/s) = -2.89990 2.77776 -0.58884
# Velocity P-wave (km/s) = 4.08646 6.71874 5.56061
#
# Compressibility (1/GPa) = 0.01886251
#
# Stress axis : x y z
#
# Youngs Moduli (GPa) = 57.75858 57.75858 111.64516
#
# Poissons Ratio (x) = 0.18539 0.51083
# Poissons Ratio (y) = 0.18539 0.51083
# Poissons Ratio (z) = 0.26427 0.26427
#
# Static dielectric constant tensor:
#      x y z
#    x 3.392710 0.000000 0.000000 
#    y 0.000000 3.392710 0.000000 
#    z 0.000000 0.000000 3.653590 
# 
# 
# High freq. dielectric constant tensor:
#      x y z
#    x 1.724340 0.000000 0.000000 
#    y 0.000000 1.724340 0.000000 
#    z 0.000000 0.000000 1.757360 
# 
# From -- ./inp_files/4650.got.cif
#   From: 2010.03.12/outbox.cif.g09.slc.cpg/sg105_3_cif.got.tgz:4650.got - 2010.04.14 01:45:32.
