data_PCOD8307936
_publ_section_title
;
Structure prediction by ZEFSAII (Michael W. Deem and Ramdas Pophale) SiO2 
 PCOD8307936
Probable space group: I 41 M D
;
_chemical_formula_sum "Si O2"
_cell_formula_units_Z 64
_cell_length_a 25.511290
_cell_length_b 25.511290
_cell_length_c 4.957464
_cell_angle_alpha 90.000000
_cell_angle_beta 90.000000
_cell_angle_gamma 90.000000
_cell_volume 3226.446056
_symmetry_space_group_name_H-M "I 41 M D"
_symmetry_group_IT_number 109
_symmetry_cell_setting 'tetragonal'
loop_
_space_group_symop_operation_xyz
x,y,z
-y,1/2+x,1/4+z
-x,-y,z
y,1/2-x,1/4+z
-x,y,z
x,-y,z
-y,1/2-x,1/4+z
y,1/2+x,1/4+z
1/2+x,1/2+y,1/2+z
1/2-y,x,3/4+z
1/2-x,1/2-y,1/2+z
1/2+y,-x,3/4+z
1/2-x,1/2+y,1/2+z
1/2+x,1/2-y,1/2+z
1/2-y,-x,3/4+z
1/2+y,x,3/4+z
loop_
_atom_site_type_symbol
_atom_site_label
_atom_site_fract_x
_atom_site_fract_y
_atom_site_fract_z
Si Si1 0.440110 0.645710 0.946530
Si Si2 0.892182 0.693367 0.190199
Si Si3 0.440109 0.145707 0.195588
Si Si4 0.193371 0.392183 0.201935
O O1 0.500000 0.633525 0.017865
O O2 0.408793 0.591209 0.946026
O O3 0.435739 0.668423 0.647007
O O4 0.416743 0.689504 0.152449
O O5 0.916748 0.689506 0.489676
O O6 0.837583 0.662415 0.196097
O O7 0.935733 0.668411 0.995127
O O8 0.878702 0.749997 0.071047
O O9 0.500000 0.133522 0.124276
#
# Coordination Sequence:
#
# PCOD8307936 Si02
#       4
#    16  16  16  16
#     4  10  21  36  55  80 109 141 179 222 267 319
#     4  10  21  37  55  79 109 140 179 223 267 320
#     4  10  21  36  55  80 109 141 179 222 267 319
#     4  10  21  37  55  79 109 140 179 223 267 320
#
# _framework density 19.836065999999999
#
# number of rings (size 3 to 8) (size 9 to 14) (size 15 to 20)
#    0.000    2.000    0.000    3.000    0.000    6.500 
#    0.000    7.500    0.000    9.000    0.000    0.000 
#    0.000    0.000    0.000    0.000    0.000    0.000 
#
# Total GULP energy -396653.790954 kJ/mol
# GULP energy per Si atom -12395.430967 kJ/mol
# Density = 1.979092 g / cm^3
# Si number density = 19.836066 Si / 1000 Ang^3
#
#
#
# Elastic Constant Matrix: (Units=GPa)
#
#
# Indices 1 2 3 4 5 6 
#
# 1 102.7768 76.2889 28.8478 0.0000 0.0000 0.0000
# 2 76.2889 102.7768 28.8478 0.0000 0.0000 0.0000
# 3 28.8478 28.8478 87.0765 0.0000 0.0000 0.0000
# 4 0.0000 0.0000 0.0000 21.0159 0.0000 0.0000
# 5 0.0000 0.0000 0.0000 0.0000 21.0159 0.0000
# 6 0.0000 0.0000 0.0000 0.0000 0.0000 9.9956
#
#
#
# Elastic Compliance Matrix: (Units=1/GPa)
#
#
# Indices 1 2 3 4 5 6 
#
# 1 0.022002 -0.015751 -0.002071 0.000000 0.000000 0.000000
# 2 -0.015751 0.022002 -0.002071 0.000000 0.000000 0.000000
# 3 -0.002071 -0.002071 0.012856 0.000000 0.000000 0.000000
# 4 0.000000 0.000000 0.000000 0.047583 0.000000 0.000000
# 5 0.000000 0.000000 0.000000 0.000000 0.047583 0.000000
# 6 0.000000 0.000000 0.000000 0.000000 0.000000 0.100044
#
#
# Mechanical properties :
#
#
# Convention : Reuss Voigt Hill
#
# Bulk Modulus (GPa) = 58.56354 62.28877 60.42616
# Shear Modulus (GPa) = 16.80393 20.98187 18.89290
#
# Velocity S-wave (km/s) = 2.91373 3.25586 3.08953
# Velocity P-wave (km/s) = 6.39590 6.75308 6.57692
#
# Compressibility (1/GPa) = 0.01707547
#
# Stress axis : x y z
#
# Youngs Moduli (GPa) = 45.44948 45.44948 77.78167
#
# Poissons Ratio (x) = 0.71585 0.16110
# Poissons Ratio (y) = 0.71585 0.16110
# Poissons Ratio (z) = 0.09414 0.09414
#
# Static dielectric constant tensor:
#      x y z
#    x 3.408520 0.000000 0.000000 
#    y 0.000000 3.408520 0.000000 
#    z 0.000000 0.000000 3.980840 
# 
# 
# High freq. dielectric constant tensor:
#      x y z
#    x 1.761910 0.000000 0.000000 
#    y 0.000000 1.761910 0.000000 
#    z 0.000000 0.000000 1.798130 
# 
# From -- ./inp_files/467.got.cif
#   From: 2010.03.12/outbox.cif.g09.slc.cpg/sg109_1_cif.got.tgz:467.got - 2010.04.14 01:55:16.
