data_PCOD8307036
_publ_section_title
;
Structure prediction by ZEFSAII (Michael W. Deem and Ramdas Pophale) SiO2 
 PCOD8307036
Probable space group: P 4 N C 
;
_chemical_formula_sum "Si O2"
_cell_formula_units_Z 56
_cell_length_a 14.316663
_cell_length_b 14.316663
_cell_length_c 12.795678
_cell_angle_alpha 90.000000
_cell_angle_beta 90.000000
_cell_angle_gamma 90.000000
_cell_volume 2622.689678
_symmetry_space_group_name_H-M "P 4 N C "
_symmetry_group_IT_number 104
_symmetry_cell_setting 'tetragonal'
loop_
_space_group_symop_operation_xyz
x,y,z
-y,x,z
-x,-y,z
y,-x,z
1/2-x,1/2+y,1/2+z
1/2+x,1/2-y,1/2+z
1/2-y,1/2-x,1/2+z
1/2+y,1/2+x,1/2+z
loop_
_atom_site_type_symbol
_atom_site_label
_atom_site_fract_x
_atom_site_fract_y
_atom_site_fract_z
Si Si1 0.429829 0.173633 0.033390
Si Si2 0.646755 0.038079 0.731836
Si Si3 0.630078 0.428252 0.085267
Si Si4 0.399842 0.380960 0.489383
Si Si5 0.666170 0.314828 0.277270
Si Si6 0.633289 0.960813 0.302596
Si Si7 0.244148 0.647579 0.662757
O O1 0.519793 0.165003 0.109122
O O2 0.393557 0.280867 0.020140
O O3 0.339349 0.122174 0.080441
O O4 0.470007 0.134295 0.926512
O O5 0.739905 0.082328 0.779462
O O6 0.557176 0.103122 0.749757
O O7 0.626088 0.937148 0.782413
O O8 0.624678 0.536727 0.054690
O O9 0.644670 0.407941 0.209089
O O10 0.511270 0.369938 0.482381
O O11 0.350928 0.321586 0.395905
O O12 0.362192 0.341024 0.600295
O O13 0.753867 0.262569 0.223502
O O14 0.733272 0.931628 0.253122
#
# Coordination Sequence:
#
# PCOD8307036 Si02
#       7
#     8   8   8   8   8   8   8
#     4  10  21  41  64  94 133 171 222 274 341 401
#     4  10  23  40  65 100 125 172 222 281 344 401
#     4  10  19  36  63  93 126 163 214 279 327 380
#     4  11  26  44  69 102 137 184 228 277 348 415
#     4  11  22  40  68  99 129 171 227 286 339 398
#     4  10  23  42  64  93 137 175 212 277 343 412
#     4  10  24  41  66  93 134 176 222 278 335 405
#
# _framework density 21.352125000000001
#
# number of rings (size 3 to 8) (size 9 to 14) (size 15 to 20)
#    0.000    1.714    1.429    1.714    8.000    6.857 
#    2.571    0.000    0.000    1.714    0.000    0.000 
#    0.000    0.000    0.000    0.000    0.000    0.000 
#
# Total GULP energy -693949.942919 kJ/mol
# GULP energy per Si atom -12391.963266 kJ/mol
# Density = 2.130353 g / cm^3
# Si number density = 21.352125 Si / 1000 Ang^3
#
#
#
# Elastic Constant Matrix: (Units=GPa)
#
#
# Indices 1 2 3 4 5 6 
#
# 1 77.3726 34.5769 44.5468 0.0000 0.0000 0.0000
# 2 34.5769 77.3726 44.5468 0.0000 0.0000 0.0000
# 3 44.5468 44.5468 122.9206 0.0000 0.0000 0.0000
# 4 0.0000 0.0000 0.0000 28.1709 0.0000 0.0000
# 5 0.0000 0.0000 0.0000 0.0000 28.1709 0.0000
# 6 0.0000 0.0000 0.0000 0.0000 0.0000 24.9704
#
#
#
# Elastic Compliance Matrix: (Units=1/GPa)
#
#
# Indices 1 2 3 4 5 6 
#
# 1 0.017960 -0.005407 -0.004549 0.000000 0.000000 0.000000
# 2 -0.005407 0.017960 -0.004549 0.000000 0.000000 0.000000
# 3 -0.004549 -0.004549 0.011433 0.000000 0.000000 0.000000
# 4 0.000000 0.000000 0.000000 0.035498 0.000000 0.000000
# 5 0.000000 0.000000 0.000000 0.000000 0.035498 0.000000
# 6 0.000000 0.000000 0.000000 0.000000 0.000000 0.040047
#
#
# Mechanical properties :
#
#
# Convention : Reuss Voigt Hill
#
# Bulk Modulus (GPa) = 54.52043 58.33407 56.42725
# Shear Modulus (GPa) = 25.83713 26.52880 26.18296
#
# Velocity S-wave (km/s) = 3.48235 3.52865 3.50558
# Velocity P-wave (km/s) = 6.46207 6.63183 6.54750
#
# Compressibility (1/GPa) = 0.01834175
#
# Stress axis : x y z
#
# Youngs Moduli (GPa) = 55.67943 55.67943 87.46866
#
# Poissons Ratio (x) = 0.30105 0.39792
# Poissons Ratio (y) = 0.30105 0.39792
# Poissons Ratio (z) = 0.25330 0.25330
#
# Static dielectric constant tensor:
#      x y z
#    x 3.840760 0.000000 0.000000 
#    y 0.000000 3.840760 0.000000 
#    z 0.000000 0.000000 3.725090 
# 
# 
# High freq. dielectric constant tensor:
#      x y z
#    x 1.834520 0.000000 0.000000 
#    y 0.000000 1.834520 0.000000 
#    z 0.000000 0.000000 1.822360 
# 
# From -- ./inp_files/1032.got.cif
#   From: 2010.03.12/outbox.cif.g09.slc.cpg/sg104_cif.got.tgz:1032.got - 2010.04.14 01:44:05.
