data_PCOD8307729
_publ_section_title
;
Structure prediction by ZEFSAII (Michael W. Deem and Ramdas Pophale) SiO2 
 PCOD8307729
Probable space group: I 4 C M
;
_chemical_formula_sum "Si O2"
_cell_formula_units_Z 112
_cell_length_a 21.558603
_cell_length_b 21.558603
_cell_length_c 13.415595
_cell_angle_alpha 90.000000
_cell_angle_beta 90.000000
_cell_angle_gamma 90.000000
_cell_volume 6235.211209
_symmetry_space_group_name_H-M "I 4 C M"
_symmetry_group_IT_number 108
_symmetry_cell_setting 'tetragonal'
loop_
_space_group_symop_operation_xyz
x,y,z
-y,x,z
-x,-y,z
y,-x,z
-x,y,1/2+z
x,-y,1/2+z
-y,-x,1/2+z
y,x,1/2+z
1/2+x,1/2+y,1/2+z
1/2-y,1/2+x,1/2+z
1/2-x,1/2-y,1/2+z
1/2+y,1/2-x,1/2+z
1/2-x,1/2+y,z
1/2+x,1/2-y,z
1/2-y,1/2-x,z
1/2+y,1/2+x,z
loop_
_atom_site_type_symbol
_atom_site_label
_atom_site_fract_x
_atom_site_fract_y
_atom_site_fract_z
Si Si1 0.543158 0.593174 0.840620
Si Si2 0.996933 0.597819 0.134929
Si Si3 0.998937 0.707707 0.499594
Si Si4 0.159518 0.560394 0.803535
Si Si5 0.858549 0.093193 0.144619
Si Si6 0.034127 0.157328 0.545578
Si Si7 0.120519 0.277741 0.112741
O O1 0.470214 0.581188 0.830301
O O2 0.566820 0.640689 0.756632
O O3 0.557464 0.626340 0.944156
O O4 0.041084 0.541084 0.128718
O O5 0.024648 0.649332 0.062243
O O6 0.927200 0.572801 0.103675
O O7 0.993165 0.619716 0.249564
O O8 0.976299 0.698984 0.386168
O O9 0.965310 0.768601 0.540183
O O10 0.073569 0.711643 0.518740
O O11 0.114918 0.614918 0.848156
O O12 0.202799 0.588381 0.716425
O O13 0.916707 0.138643 0.130077
O O14 0.795922 0.132359 0.122757
O O15 0.866585 0.034525 0.071125
O O16 0.184833 0.315168 0.094329
#
# Coordination Sequence:
#
# PCOD8307729 Si02
#       7
#    16  16  16  16  16  16  16
#     4  11  21  33  56  85 115 144 173 225 286 332
#     4   9  18  32  51  79 109 136 178 233 284 331
#     4  10  19  32  53  78 107 142 183 223 270 328
#     4   9  17  32  53  76 104 139 179 225 279 329
#     4  11  21  37  57  80 112 144 184 224 279 326
#     4  11  22  35  53  83 113 143 179 227 270 333
#     4   9  20  37  55  75 106 150 188 221 264 329
#
# _framework density 17.962503000000002
#
# number of rings (size 3 to 8) (size 9 to 14) (size 15 to 20)
#    0.000    2.000    2.857    2.571    0.000    1.429 
#    0.000    2.857    0.000    0.857    0.000    0.000 
#    0.000    0.000    0.000    0.000    0.000    0.000 
#
# Total GULP energy -693987.498472 kJ/mol
# GULP energy per Si atom -12392.633901 kJ/mol
# Density = 1.792162 g / cm^3
# Si number density = 17.962503 Si / 1000 Ang^3
#
#
#
# Elastic Constant Matrix: (Units=GPa)
#
#
# Indices 1 2 3 4 5 6 
#
# 1 86.6501 49.4694 26.4134 0.0000 0.0000 -0.0001
# 2 49.4694 86.6501 26.4134 0.0000 0.0000 0.0001
# 3 26.4134 26.4134 73.0764 0.0000 0.0000 0.0000
# 4 0.0000 0.0000 0.0000 23.1567 0.0000 0.0000
# 5 0.0000 0.0000 0.0000 0.0000 23.1567 0.0000
# 6 -0.0001 0.0001 0.0000 0.0000 0.0000 23.8587
#
#
#
# Elastic Compliance Matrix: (Units=1/GPa)
#
#
# Indices 1 2 3 4 5 6 
#
# 1 0.017720 -0.009175 -0.003089 0.000000 0.000000 0.000000
# 2 -0.009175 0.017720 -0.003089 0.000000 0.000000 0.000000
# 3 -0.003089 -0.003089 0.015917 0.000000 0.000000 0.000000
# 4 0.000000 0.000000 0.000000 0.043184 0.000000 0.000000
# 5 0.000000 0.000000 0.000000 0.000000 0.043184 0.000000
# 6 0.000000 0.000000 0.000000 0.000000 0.000000 0.041913
#
#
# Mechanical properties :
#
#
# Convention : Reuss Voigt Hill
#
# Bulk Modulus (GPa) = 48.41945 50.10763 49.26354
# Shear Modulus (GPa) = 23.01721 23.63978 23.32849
#
# Velocity S-wave (km/s) = 3.58355 3.63169 3.60770
# Velocity P-wave (km/s) = 6.64356 6.74847 6.69622
#
# Compressibility (1/GPa) = 0.02065286
#
# Stress axis : x y z
#
# Youngs Moduli (GPa) = 56.43206 56.43206 62.82559
#
# Poissons Ratio (x) = 0.51778 0.19405
# Poissons Ratio (y) = 0.51778 0.19405
# Poissons Ratio (z) = 0.17430 0.17430
#
# Static dielectric constant tensor:
#      x y z
#    x 3.339680 0.000000 0.000000 
#    y 0.000000 3.339680 0.000000 
#    z 0.000000 0.000000 3.318620 
# 
# 
# High freq. dielectric constant tensor:
#      x y z
#    x 1.689190 0.000000 0.000000 
#    y 0.000000 1.689190 0.000000 
#    z 0.000000 0.000000 1.688620 
# 
# From -- ./inp_files/1595.got.cif
#   From: 2010.03.12/outbox.cif.g09.slc.cpg/sg108_1_cif.got.tgz:1595.got - 2010.04.14 01:53:11.
