data_PCOD8307392
_publ_section_title
;
Structure prediction by ZEFSAII (Michael W. Deem and Ramdas Pophale) SiO2 
 PCOD8307392
Probable space group: P 42 M C
;
_chemical_formula_sum "Si O2"
_cell_formula_units_Z 48
_cell_length_a 13.153066
_cell_length_b 13.153066
_cell_length_c 16.913973
_cell_angle_alpha 90.000000
_cell_angle_beta 90.000000
_cell_angle_gamma 90.000000
_cell_volume 2926.170527
_symmetry_space_group_name_H-M "P 42 M C"
_symmetry_group_IT_number 105
_symmetry_cell_setting 'tetragonal'
loop_
_space_group_symop_operation_xyz
x,y,z
-y,x,1/2+z
-x,-y,z
y,-x,1/2+z
-x,y,z
x,-y,z
-y,-x,1/2+z
y,x,1/2+z
loop_
_atom_site_type_symbol
_atom_site_label
_atom_site_fract_x
_atom_site_fract_y
_atom_site_fract_z
Si Si1 0.800181 0.384257 0.054770
Si Si2 0.757515 0.616933 0.528223
Si Si3 0.242485 0.616933 0.231636
Si Si4 0.199820 0.615744 0.705089
Si Si5 0.888498 0.619874 0.379930
Si Si6 0.621092 0.000000 0.289526
Si Si7 0.000000 0.378908 0.970333
O O1 0.791020 0.500000 0.027950
O O2 0.693536 0.336851 0.027182
O O3 0.817107 0.373616 0.148824
O O4 0.898665 0.334341 0.012523
O O5 0.719870 0.500000 0.515438
O O6 0.817107 0.626384 0.611036
O O7 0.831040 0.654668 0.458811
O O8 0.280130 0.500000 0.244421
O O9 0.336850 0.693536 0.232678
O O10 0.168959 0.654668 0.301048
O O11 0.208981 0.500000 0.731909
O O12 0.101335 0.665658 0.747336
O O13 0.899332 0.500000 0.379930
O O14 0.000000 0.670748 0.379930
O O15 0.657310 0.000000 0.379929
O O16 0.500000 0.000000 0.281372
O O17 0.000000 0.500000 0.978487
#
# Coordination Sequence:
#
# PCOD8307392 Si02
#       7
#     8   8   8   8   8   4   4
#     4   9  18  31  48  69  97 127 157 192 229 276
#     4   9  18  31  47  71  97 124 156 189 233 285
#     4   9  18  31  47  71  97 124 156 189 233 285
#     4   9  18  31  48  69  97 127 157 192 229 276
#     4   9  18  30  47  68  93 122 155 198 237 275
#     4   9  18  30  46  67  91 125 162 196 230 266
#     4   9  18  30  46  67  91 125 162 196 230 266
#
# _framework density 16.403693000000001
#
# number of rings (size 3 to 8) (size 9 to 14) (size 15 to 20)
#    0.000    3.000    0.000    0.000    4.667    0.667 
#    0.000    3.333    0.000    3.000    0.000    2.333 
#    0.000    0.000    0.000    0.000    0.000    0.000 
#
# Total GULP energy -594975.003854 kJ/mol
# GULP energy per Si atom -12395.312580 kJ/mol
# Density = 1.636636 g / cm^3
# Si number density = 16.403693 Si / 1000 Ang^3
#
#
#
# Elastic Constant Matrix: (Units=GPa)
#
#
# Indices 1 2 3 4 5 6 
#
# 1 86.3761 43.6635 53.3048 0.0000 0.0000 0.0000
# 2 43.6635 86.3761 53.3048 0.0000 0.0000 0.0000
# 3 53.3048 53.3048 119.5770 0.0000 0.0000 0.0000
# 4 0.0000 0.0000 0.0000 22.5618 0.0000 0.0000
# 5 0.0000 0.0000 0.0000 0.0000 22.5618 0.0000
# 6 0.0000 0.0000 0.0000 0.0000 0.0000 3.9721
#
#
#
# Elastic Compliance Matrix: (Units=1/GPa)
#
#
# Indices 1 2 3 4 5 6 
#
# 1 0.017766 -0.005647 -0.005402 0.000000 0.000000 0.000000
# 2 -0.005647 0.017766 -0.005402 0.000000 0.000000 0.000000
# 3 -0.005402 -0.005402 0.013179 0.000000 0.000000 0.000000
# 4 0.000000 0.000000 0.000000 0.044323 0.000000 0.000000
# 5 0.000000 0.000000 0.000000 0.000000 0.044323 0.000000
# 6 0.000000 0.000000 0.000000 0.000000 0.000000 0.251756
#
#
# Mechanical properties :
#
#
# Convention : Reuss Voigt Hill
#
# Bulk Modulus (GPa) = 63.26000 65.87504 64.56752
# Shear Modulus (GPa) = 11.70183 19.28957 15.49570
#
# Velocity S-wave (km/s) = 2.67379 3.43290 3.07685
# Velocity P-wave (km/s) = 6.94121 7.48057 7.21593
#
# Compressibility (1/GPa) = 0.01580778
#
# Stress axis : x y z
#
# Youngs Moduli (GPa) = 56.28855 56.28855 75.87644
#
# Poissons Ratio (x) = 0.31784 0.40991
# Poissons Ratio (y) = 0.31784 0.40991
# Poissons Ratio (z) = 0.30409 0.30409
#
# Static dielectric constant tensor:
#      x y z
#    x 3.000690 0.000000 0.000000 
#    y 0.000000 3.000690 0.000000 
#    z 0.000000 0.000000 3.291420 
# 
# 
# High freq. dielectric constant tensor:
#      x y z
#    x 1.605770 0.000000 0.000000 
#    y 0.000000 1.605770 0.000000 
#    z 0.000000 0.000000 1.647720 
# 
# From -- ./inp_files/2574.got.cif
#   From: 2010.03.12/outbox.cif.g09.slc.cpg/sg105_2_cif.got.tgz:2574.got - 2010.04.14 01:45:32.
