data_PCOD8307057
_publ_section_title
;
Structure prediction by ZEFSAII (Michael W. Deem and Ramdas Pophale) SiO2 
 PCOD8307057
Probable space group: P 4 N C 
;
_chemical_formula_sum "Si O2"
_cell_formula_units_Z 64
_cell_length_a 11.742438
_cell_length_b 11.742438
_cell_length_c 22.130154
_cell_angle_alpha 90.000000
_cell_angle_beta 90.000000
_cell_angle_gamma 90.000000
_cell_volume 3051.412969
_symmetry_space_group_name_H-M "P 4 N C "
_symmetry_group_IT_number 104
_symmetry_cell_setting 'tetragonal'
loop_
_space_group_symop_operation_xyz
x,y,z
-y,x,z
-x,-y,z
y,-x,z
1/2-x,1/2+y,1/2+z
1/2+x,1/2-y,1/2+z
1/2-y,1/2-x,1/2+z
1/2+y,1/2+x,1/2+z
loop_
_atom_site_type_symbol
_atom_site_label
_atom_site_fract_x
_atom_site_fract_y
_atom_site_fract_z
Si Si1 0.307664 0.863378 0.783280
Si Si2 0.393901 0.917641 0.403930
Si Si3 0.604252 0.785270 0.243547
Si Si4 0.179311 0.990286 0.098741
Si Si5 0.632780 0.007567 0.190721
Si Si6 0.316121 0.525175 0.122413
Si Si7 0.528272 0.320203 0.456597
Si Si8 0.498531 0.689579 0.986065
O O1 0.376348 0.827645 0.843515
O O2 0.184950 0.807118 0.774086
O O3 0.378273 0.829801 0.724340
O O4 0.290780 0.999225 0.789781
O O5 0.445742 0.805441 0.434220
O O6 0.500000 0.000000 0.389201
O O7 0.301194 0.985946 0.444409
O O8 0.669285 0.905320 0.236426
O O9 0.550095 0.771496 0.175876
O O10 0.304089 0.991621 0.126958
O O11 0.117665 0.105760 0.120723
O O12 0.189657 0.980559 0.027869
O O13 0.500000 0.000000 0.177022
O O14 0.373877 0.404573 0.131934
O O15 0.264212 0.516899 0.054803
O O16 0.628836 0.406267 0.434872
O O17 0.386879 0.611327 0.974374
#
# Coordination Sequence:
#
# PCOD8307057 Si02
#       8
#     8   8   8   8   8   8   8   8
#     4  11  26  41  60  92 126 169 216 270 321 387
#     4  12  27  42  66  93 133 177 229 276 326 399
#     4  11  21  39  65  90 127 168 207 269 336 388
#     4   9  18  38  64  87 119 160 207 254 312 383
#     4  10  22  38  56  88 131 160 202 257 318 389
#     4   9  17  36  64  96 126 153 209 271 332 398
#     4   9  22  43  64  92 129 169 215 276 331 394
#     4   9  22  44  70  97 129 173 220 281 341 399
#
# _framework density 20.973890000000001
#
# number of rings (size 3 to 8) (size 9 to 14) (size 15 to 20)
#    0.000    2.000    1.250    3.375    3.500    4.750 
#    6.750    0.000    0.000    1.500    0.000    0.000 
#    0.000    0.000    0.000    0.000    0.000    0.000 
#
# Total GULP energy -793031.178713 kJ/mol
# GULP energy per Si atom -12391.112167 kJ/mol
# Density = 2.092615 g / cm^3
# Si number density = 20.973890 Si / 1000 Ang^3
#
#
#
# Elastic Constant Matrix: (Units=GPa)
#
#
# Indices 1 2 3 4 5 6 
#
# 1 80.6651 25.4781 33.5649 0.0000 0.0000 0.0000
# 2 25.4781 80.6651 33.5649 0.0000 0.0000 0.0000
# 3 33.5649 33.5649 67.4914 0.0000 0.0000 0.0000
# 4 0.0000 0.0000 0.0000 30.4856 0.0000 0.0000
# 5 0.0000 0.0000 0.0000 0.0000 30.4856 0.0000
# 6 0.0000 0.0000 0.0000 0.0000 0.0000 17.5620
#
#
#
# Elastic Compliance Matrix: (Units=1/GPa)
#
#
# Indices 1 2 3 4 5 6 
#
# 1 0.015932 -0.002188 -0.006835 0.000000 0.000000 0.000000
# 2 -0.002188 0.015932 -0.006835 0.000000 0.000000 0.000000
# 3 -0.006835 -0.006835 0.021615 0.000000 0.000000 0.000000
# 4 0.000000 0.000000 0.000000 0.032802 0.000000 0.000000
# 5 0.000000 0.000000 0.000000 0.000000 0.032802 0.000000
# 6 0.000000 0.000000 0.000000 0.000000 0.000000 0.056941
#
#
# Mechanical properties :
#
#
# Convention : Reuss Voigt Hill
#
# Bulk Modulus (GPa) = 45.95037 46.00418 45.97728
# Shear Modulus (GPa) = 23.25617 24.78758 24.02188
#
# Velocity S-wave (km/s) = 3.33350 3.44151 3.38793
# Velocity P-wave (km/s) = 6.06401 6.14602 6.10515
#
# Compressibility (1/GPa) = 0.02176261
#
# Stress axis : x y z
#
# Youngs Moduli (GPa) = 62.76604 62.76604 46.26342
#
# Poissons Ratio (x) = 0.13733 0.31622
# Poissons Ratio (y) = 0.13733 0.31622
# Poissons Ratio (z) = 0.42902 0.42902
#
# Static dielectric constant tensor:
#      x y z
#    x 3.878070 0.000000 0.000000 
#    y 0.000000 3.878070 0.000000 
#    z 0.000000 0.000000 3.718480 
# 
# 
# High freq. dielectric constant tensor:
#      x y z
#    x 1.822320 0.000000 0.000000 
#    y 0.000000 1.822320 0.000000 
#    z 0.000000 0.000000 1.815810 
# 
# From -- ./inp_files/1821.got.cif
#   From: 2010.03.12/outbox.cif.g09.slc.cpg/sg104_cif.got.tgz:1821.got - 2010.04.14 01:44:05.
