data_PCOD8307524
_publ_section_title
;
Structure prediction by ZEFSAII (Michael W. Deem and Ramdas Pophale) SiO2 
 PCOD8307524
Probable space group: I 4 M M
;
_chemical_formula_sum "Si O2"
_cell_formula_units_Z 112
_cell_length_a 13.931381
_cell_length_b 13.931381
_cell_length_c 35.812411
_cell_angle_alpha 90.000000
_cell_angle_beta 90.000000
_cell_angle_gamma 90.000000
_cell_volume 6950.593650
_symmetry_space_group_name_H-M "I 4 M M"
_symmetry_group_IT_number 107
_symmetry_cell_setting 'tetragonal'
loop_
_space_group_symop_operation_xyz
x,y,z
-y,x,z
-x,-y,z
y,-x,z
-x,y,z
x,-y,z
-y,-x,z
y,x,z
1/2+x,1/2+y,1/2+z
1/2-y,1/2+x,1/2+z
1/2-x,1/2-y,1/2+z
1/2+y,1/2-x,1/2+z
1/2-x,1/2+y,1/2+z
1/2+x,1/2-y,1/2+z
1/2-y,1/2-x,1/2+z
1/2+y,1/2+x,1/2+z
loop_
_atom_site_type_symbol
_atom_site_label
_atom_site_fract_x
_atom_site_fract_y
_atom_site_fract_z
Si Si1 0.113824 0.393527 0.888810
Si Si2 0.611367 0.889966 0.667880
Si Si3 0.109267 0.737499 0.599735
Si Si4 0.388048 0.231267 0.015072
Si Si5 0.113475 0.733580 0.238425
Si Si6 0.893424 0.613852 0.806669
Si Si7 0.113940 0.269928 0.958641
O O1 0.156446 0.500000 0.897609
O O2 0.147244 0.357670 0.847711
O O3 0.147379 0.317328 0.919621
O O4 0.000000 0.401700 0.888708
O O5 0.500000 0.875706 0.661111
O O6 0.659628 0.854264 0.629545
O O7 0.646771 0.826665 0.702469
O O8 0.636603 0.000000 0.677231
O O9 0.164344 0.835657 0.606196
O O10 0.124679 0.697625 0.557913
O O11 0.000000 0.764019 0.607049
O O12 0.500000 0.247593 0.005025
O O13 0.330769 0.330769 0.007339
O O14 0.343731 0.144843 0.990987
O O15 0.162601 0.837400 0.237116
O O16 0.152203 0.677613 0.274867
O O17 0.000000 0.749801 0.239511
O O18 0.901014 0.500000 0.803930
O O19 0.000000 0.657728 0.800283
O O20 0.168106 0.168106 0.962988
O O21 0.000000 0.251885 0.960838
#
# Coordination Sequence:
#
# PCOD8307524 Si02
#       7
#    16  16  16  16  16  16  16
#     4   8  14  26  45  67  88 109 135 172 218 263
#     4   9  17  29  45  64  84 107 139 180 221 253
#     4   9  17  29  45  66  92 117 140 168 204 252
#     4   9  18  31  47  69  94 119 147 178 215 261
#     4  10  19  29  42  60  83 113 145 175 210 251
#     4   8  14  26  44  65  87 108 134 173 217 257
#     4  10  20  32  46  65  89 118 152 188 224 261
#
# _framework density 16.113731000000001
#
# number of rings (size 3 to 8) (size 9 to 14) (size 15 to 20)
#    0.000    3.000    0.000    2.143    0.000    4.286 
#    0.000    2.857    0.000    0.000    0.000    0.000 
#    0.000    9.429    0.000    0.571    0.000    0.143 
#
# Total GULP energy -694141.332644 kJ/mol
# GULP energy per Si atom -12395.380940 kJ/mol
# Density = 1.607706 g / cm^3
# Si number density = 16.113731 Si / 1000 Ang^3
#
#
#
# Elastic Constant Matrix: (Units=GPa)
#
#
# Indices 1 2 3 4 5 6 
#
# 1 69.6366 40.5711 51.8163 0.0000 0.0000 0.0003
# 2 40.5711 69.6366 51.8163 0.0000 0.0000 -0.0003
# 3 51.8163 51.8163 125.3396 0.0000 0.0000 0.0000
# 4 0.0000 0.0000 0.0000 20.6736 0.0000 0.0000
# 5 0.0000 0.0000 0.0000 0.0000 20.6736 0.0000
# 6 0.0003 -0.0003 0.0000 0.0000 0.0000 19.8787
#
#
#
# Elastic Compliance Matrix: (Units=1/GPa)
#
#
# Indices 1 2 3 4 5 6 
#
# 1 0.024625 -0.009780 -0.006137 0.000000 0.000000 0.000000
# 2 -0.009780 0.024625 -0.006137 0.000000 0.000000 0.000000
# 3 -0.006137 -0.006137 0.013052 0.000000 0.000000 0.000000
# 4 0.000000 0.000000 0.000000 0.048371 0.000000 0.000000
# 5 0.000000 0.000000 0.000000 0.000000 0.048371 0.000000
# 6 0.000000 0.000000 0.000000 0.000000 0.000000 0.050305
#
#
# Mechanical properties :
#
#
# Convention : Reuss Voigt Hill
#
# Bulk Modulus (GPa) = 54.96314 61.44670 58.20492
# Shear Modulus (GPa) = 19.26626 20.27246 19.76936
#
# Velocity S-wave (km/s) = 3.46156 3.55080 3.50646
# Velocity P-wave (km/s) = 7.08238 7.41801 7.25213
#
# Compressibility (1/GPa) = 0.01819401
#
# Stress axis : x y z
#
# Youngs Moduli (GPa) = 40.60958 40.60958 76.61459
#
# Poissons Ratio (x) = 0.39717 0.47017
# Poissons Ratio (y) = 0.39717 0.47017
# Poissons Ratio (z) = 0.24921 0.24921
#
# Static dielectric constant tensor:
#      x y z
#    x 2.872800 0.000000 0.000000 
#    y 0.000000 2.872800 0.000000 
#    z 0.000000 0.000000 3.452840 
# 
# 
# High freq. dielectric constant tensor:
#      x y z
#    x 1.598280 0.000000 0.000000 
#    y 0.000000 1.598280 0.000000 
#    z 0.000000 0.000000 1.636790 
# 
# From -- ./inp_files/6161.got.cif
#   From: 2010.03.12/outbox.cif.g09.slc.cpg/sg107_4_cif.got.tgz:6161.got - 2010.04.14 01:49:11.
