data_PCOD8307677
_publ_section_title
;
Structure prediction by ZEFSAII (Michael W. Deem and Ramdas Pophale) SiO2 
 PCOD8307677
Probable space group: I 4 M M
;
_chemical_formula_sum "Si O2"
_cell_formula_units_Z 80
_cell_length_a 28.570387
_cell_length_b 28.570387
_cell_length_c 5.056183
_cell_angle_alpha 90.000000
_cell_angle_beta 90.000000
_cell_angle_gamma 90.000000
_cell_volume 4127.195396
_symmetry_space_group_name_H-M "I 4 M M"
_symmetry_group_IT_number 107
_symmetry_cell_setting 'tetragonal'
loop_
_space_group_symop_operation_xyz
x,y,z
-y,x,z
-x,-y,z
y,-x,z
-x,y,z
x,-y,z
-y,-x,z
y,x,z
1/2+x,1/2+y,1/2+z
1/2-y,1/2+x,1/2+z
1/2-x,1/2-y,1/2+z
1/2+y,1/2-x,1/2+z
1/2-x,1/2+y,1/2+z
1/2+x,1/2-y,1/2+z
1/2-y,1/2-x,1/2+z
1/2+y,1/2+x,1/2+z
loop_
_atom_site_type_symbol
_atom_site_label
_atom_site_fract_x
_atom_site_fract_y
_atom_site_fract_z
Si Si1 0.788501 0.211500 0.289280
Si Si2 0.500000 0.370542 0.215959
Si Si3 0.326007 0.326007 0.294159
Si Si4 0.070710 0.203883 0.879313
Si Si5 0.947056 0.262089 0.374216
Si Si6 0.194984 0.654188 0.858207
Si Si7 0.074355 0.000000 0.215167
O O1 0.821200 0.178801 0.478777
O O2 0.736933 0.192861 0.365751
O O3 0.792681 0.207320 0.972203
O O4 0.453812 0.342722 0.285617
O O5 0.500000 0.415941 0.402210
O O6 0.500000 0.380536 0.903622
O O7 0.375819 0.309880 0.395549
O O8 0.059747 0.245039 0.673445
O O9 0.053260 0.219116 0.168328
O O10 0.900894 0.292983 0.307998
O O11 0.000000 0.285589 0.355962
O O12 0.157893 0.668462 0.635288
O O13 0.046072 0.046072 0.289444
#
# Coordination Sequence:
#
# PCOD8307677 Si02
#       7
#     8   8   8  16  16  16   8
#     4  12  22  39  60  86 132 166 209 237 298 352
#     4  12  24  41  62  84 102 144 196 250 317 378
#     4  12  22  37  58  88 119 160 200 253 292 361
#     4  12  23  39  59  86 117 150 200 252 301 362
#     4  12  23  44  64  86 121 162 201 253 306 353
#     4  12  24  40  61  91 126 167 210 249 297 370
#     4  11  26  44  56  74 104 138 186 254 328 388
#
# _framework density 19.383624999999999
#
# number of rings (size 3 to 8) (size 9 to 14) (size 15 to 20)
#    0.000    0.100    6.000    4.800    2.800    0.800 
#    0.000    0.000    0.000    0.000    0.000    0.000 
#    0.000    2.400    0.000    0.000    0.000    0.000 
#
# Total GULP energy -495567.304278 kJ/mol
# GULP energy per Si atom -12389.182607 kJ/mol
# Density = 1.933951 g / cm^3
# Si number density = 19.383625 Si / 1000 Ang^3
#
#
#
# Elastic Constant Matrix: (Units=GPa)
#
#
# Indices 1 2 3 4 5 6 
#
# 1 63.3860 56.9185 10.8618 0.0000 0.0000 0.0010
# 2 56.9185 63.3860 10.8618 0.0000 0.0000 -0.0010
# 3 10.8618 10.8618 78.7389 0.0000 0.0000 0.0000
# 4 0.0000 0.0000 0.0000 29.3034 0.0000 0.0000
# 5 0.0000 0.0000 0.0000 0.0000 29.3034 0.0000
# 6 0.0010 -0.0010 0.0000 0.0000 0.0000 74.3141
#
#
#
# Elastic Compliance Matrix: (Units=1/GPa)
#
#
# Indices 1 2 3 4 5 6 
#
# 1 0.081572 -0.073047 -0.001176 0.000000 0.000000 -0.000002
# 2 -0.073047 0.081572 -0.001176 0.000000 0.000000 0.000002
# 3 -0.001176 -0.001176 0.013025 0.000000 0.000000 0.000000
# 4 0.000000 0.000000 0.000000 0.034126 0.000000 0.000000
# 5 0.000000 0.000000 0.000000 0.000000 0.034126 0.000000
# 6 -0.000002 0.000002 0.000000 0.000000 0.000000 0.013456
#
#
# Mechanical properties :
#
#
# Convention : Reuss Voigt Hill
#
# Bulk Modulus (GPa) = 39.41655 40.31054 39.86355
# Shear Modulus (GPa) = 11.98664 35.04211 23.51438
#
# Velocity S-wave (km/s) = 2.48944 4.25646 3.48674
# Velocity P-wave (km/s) = 5.35184 6.70805 6.06795
#
# Compressibility (1/GPa) = 0.02537005
#
# Stress axis : x y z
#
# Youngs Moduli (GPa) = 12.25914 12.25914 76.77763
#
# Poissons Ratio (x) = 0.89550 0.09029
# Poissons Ratio (y) = 0.89550 0.09029
# Poissons Ratio (z) = 0.01442 0.01442
#
# Static dielectric constant tensor:
#      x y z
#    x 3.554940 0.000000 0.000000 
#    y 0.000000 3.554940 0.000000 
#    z 0.000000 0.000000 3.868490 
# 
# 
# High freq. dielectric constant tensor:
#      x y z
#    x 1.731740 0.000000 0.000000 
#    y 0.000000 1.731740 0.000000 
#    z 0.000000 0.000000 1.784440 
# 
# From -- ./inp_files/493.got.cif
#   From: 2010.03.12/outbox.cif.g09.slc.cpg/sg107_1_cif.got.tgz:493.got - 2010.04.14 01:49:11.
