data_PCOD8307447
_publ_section_title
;
Structure prediction by ZEFSAII (Michael W. Deem and Ramdas Pophale) SiO2 
 PCOD8307447
Probable space group: P 42 B C
;
_chemical_formula_sum "Si O2"
_cell_formula_units_Z 40
_cell_length_a 13.589527
_cell_length_b 13.589527
_cell_length_c 9.083315
_cell_angle_alpha 90.000000
_cell_angle_beta 90.000000
_cell_angle_gamma 90.000000
_cell_volume 1677.463415
_symmetry_space_group_name_H-M "P 42 B C"
_symmetry_group_IT_number 106
_symmetry_cell_setting 'tetragonal'
loop_
_space_group_symop_operation_xyz
x,y,z
-y,x,1/2+z
-x,-y,z
y,-x,1/2+z
1/2-x,1/2+y,z
1/2+x,1/2-y,z
1/2-y,1/2-x,1/2+z
1/2+y,1/2+x,1/2+z
loop_
_atom_site_type_symbol
_atom_site_label
_atom_site_fract_x
_atom_site_fract_y
_atom_site_fract_z
Si Si1 0.803197 0.425387 0.097080
Si Si2 0.500000 0.000000 0.474453
Si Si3 0.319215 0.917351 0.313040
Si Si4 0.500000 0.500000 0.705721
Si Si5 0.279058 0.779997 0.049794
Si Si6 0.450484 0.650734 0.455756
O O1 0.773621 0.481046 0.250142
O O2 0.777876 0.311768 0.118504
O O3 0.737685 0.467920 0.962602
O O4 0.920376 0.439866 0.071915
O O5 0.427448 0.935677 0.375303
O O6 0.330597 0.843281 0.176390
O O7 0.249479 0.868283 0.438220
O O8 0.460138 0.586643 0.603620
O O9 0.410301 0.462334 0.806470
O O10 0.200311 0.843177 0.956544
#
# Coordination Sequence:
#
# PCOD8307447 Si02
#       6
#     8   4   8   4   8   8
#     4  11  27  46  76 108 147 199 248 319 384 447
#     4  12  24  50  74 112 150 194 256 316 384 450
#     4  11  25  49  71 112 148 193 255 311 379 466
#     4  10  24  46  72 102 150 194 244 304 378 460
#     4  11  27  48  75 108 151 194 254 311 382 460
#     4  10  24  47  70 108 144 194 249 304 378 454
#
# _framework density 23.845528999999999
#
# number of rings (size 3 to 8) (size 9 to 14) (size 15 to 20)
#    0.000    1.200    4.000    0.600   11.200    1.600 
#    7.200    0.000    0.000    0.000    0.000    0.000 
#    0.000    0.000    0.000    0.000    0.000    0.000 
#
# Total GULP energy -495952.373463 kJ/mol
# GULP energy per Si atom -12398.809337 kJ/mol
# Density = 2.379126 g / cm^3
# Si number density = 23.845529 Si / 1000 Ang^3
#
#
#
# Elastic Constant Matrix: (Units=GPa)
#
#
# Indices 1 2 3 4 5 6 
#
# 1 127.0138 37.3033 30.7568 0.0000 0.0000 0.0000
# 2 37.3033 127.0138 30.7568 0.0000 0.0000 0.0000
# 3 30.7568 30.7568 106.3152 0.0000 0.0000 0.0000
# 4 0.0000 0.0000 0.0000 26.8582 0.0000 0.0000
# 5 0.0000 0.0000 0.0000 0.0000 26.8582 0.0000
# 6 0.0000 0.0000 0.0000 0.0000 0.0000 30.3162
#
#
#
# Elastic Compliance Matrix: (Units=1/GPa)
#
#
# Indices 1 2 3 4 5 6 
#
# 1 0.008986 -0.002161 -0.001974 0.000000 0.000000 0.000000
# 2 -0.002161 0.008986 -0.001974 0.000000 0.000000 0.000000
# 3 -0.001974 -0.001974 0.010548 0.000000 0.000000 0.000000
# 4 0.000000 0.000000 0.000000 0.037233 0.000000 0.000000
# 5 0.000000 0.000000 0.000000 0.000000 0.037233 0.000000
# 6 0.000000 0.000000 0.000000 0.000000 0.000000 0.032986
#
#
# Mechanical properties :
#
#
# Convention : Reuss Voigt Hill
#
# Bulk Modulus (GPa) = 61.34779 61.99742 61.67261
# Shear Modulus (GPa) = 32.54689 34.24157 33.39423
#
# Velocity S-wave (km/s) = 3.69847 3.79354 3.74631
# Velocity P-wave (km/s) = 6.63485 6.72636 6.68076
#
# Compressibility (1/GPa) = 0.01630051
#
# Stress axis : x y z
#
# Youngs Moduli (GPa) = 111.28475 111.28475 94.80107
#
# Poissons Ratio (x) = 0.24049 0.18718
# Poissons Ratio (y) = 0.24049 0.18718
# Poissons Ratio (z) = 0.21973 0.21973
#
# Static dielectric constant tensor:
#      x y z
#    x 4.378080 0.000000 0.000000 
#    y 0.000000 4.378080 0.000000 
#    z 0.000000 0.000000 4.338800 
# 
# 
# High freq. dielectric constant tensor:
#      x y z
#    x 1.945930 0.000000 0.000000 
#    y 0.000000 1.945930 0.000000 
#    z 0.000000 0.000000 1.945200 
# 
# From -- ./inp_files/407.got.cif
#   From: 2010.03.12/outbox.cif.g09.slc.cpg/sg106_cif.got.tgz:407.got - 2010.04.14 01:48:02.
