data_PCOD8307584
_publ_section_title
;
Structure prediction by ZEFSAII (Michael W. Deem and Ramdas Pophale) SiO2 
 PCOD8307584
Probable space group: I 4 M M
;
_chemical_formula_sum "Si O2"
_cell_formula_units_Z 96
_cell_length_a 22.312286
_cell_length_b 22.312286
_cell_length_c 10.223325
_cell_angle_alpha 90.000000
_cell_angle_beta 90.000000
_cell_angle_gamma 90.000000
_cell_volume 5089.560761
_symmetry_space_group_name_H-M "I 4 M M"
_symmetry_group_IT_number 107
_symmetry_cell_setting 'tetragonal'
loop_
_space_group_symop_operation_xyz
x,y,z
-y,x,z
-x,-y,z
y,-x,z
-x,y,z
x,-y,z
-y,-x,z
y,x,z
1/2+x,1/2+y,1/2+z
1/2-y,1/2+x,1/2+z
1/2-x,1/2-y,1/2+z
1/2+y,1/2-x,1/2+z
1/2-x,1/2+y,1/2+z
1/2+x,1/2-y,1/2+z
1/2-y,1/2-x,1/2+z
1/2+y,1/2+x,1/2+z
loop_
_atom_site_type_symbol
_atom_site_label
_atom_site_fract_x
_atom_site_fract_y
_atom_site_fract_z
Si Si1 0.636649 0.731464 0.900790
Si Si2 0.159999 0.932434 0.617883
Si Si3 0.432345 0.884462 0.662866
Si Si4 0.932047 0.164997 0.909405
Si Si5 0.350832 0.068976 0.444276
Si Si6 0.245627 0.930993 0.145096
O O1 0.706726 0.706726 0.899996
O O2 0.608940 0.716213 0.759360
O O3 0.604209 0.697098 0.015262
O O4 0.622047 0.800975 0.934064
O O5 0.092171 0.907829 0.625145
O O6 0.189860 0.924810 0.761559
O O7 0.157401 0.000000 0.570506
O O8 0.500000 0.901977 0.623491
O O9 0.387495 0.925092 0.578500
O O10 0.418563 0.815649 0.630806
O O11 0.422474 0.894550 0.818685
O O12 0.892887 0.107114 0.938479
O O13 0.000000 0.144961 0.935288
O O14 0.912157 0.217670 0.006730
O O15 0.324127 0.000000 0.439357
O O16 0.233161 0.000000 0.180590
#
# Coordination Sequence:
#
# PCOD8307584 Si02
#       6
#    16  16  16  16  16  16
#     4  10  19  33  53  76 103 138 177 213 256 307
#     4   9  17  28  43  65  94 128 169 214 259 311
#     4   9  20  37  56  80 106 136 175 217 264 320
#     4   9  17  28  43  66  95 130 172 218 269 320
#     4  10  21  38  58  81 112 144 176 218 268 318
#     4   9  17  32  53  74  99 131 171 218 267 320
#
# _framework density 18.862138000000002
#
# number of rings (size 3 to 8) (size 9 to 14) (size 15 to 20)
#    0.000    2.667    0.000    3.000    0.000    2.667 
#    0.000    9.167    0.000    0.000    0.000    2.333 
#    0.000    0.000    0.000    0.000    0.000    0.000 
#
# Total GULP energy -594704.173387 kJ/mol
# GULP energy per Si atom -12389.670279 kJ/mol
# Density = 1.881921 g / cm^3
# Si number density = 18.862138 Si / 1000 Ang^3
#
#
#
# Elastic Constant Matrix: (Units=GPa)
#
#
# Indices 1 2 3 4 5 6 
#
# 1 56.7228 25.1126 31.4923 0.0000 0.0000 -0.0005
# 2 25.1126 56.7228 31.4923 0.0000 0.0000 0.0005
# 3 31.4923 31.4923 90.9138 0.0000 0.0000 0.0000
# 4 0.0000 0.0000 0.0000 27.9719 0.0000 0.0000
# 5 0.0000 0.0000 0.0000 0.0000 27.9719 0.0000
# 6 -0.0005 0.0005 0.0000 0.0000 0.0000 23.7970
#
#
#
# Elastic Compliance Matrix: (Units=1/GPa)
#
#
# Indices 1 2 3 4 5 6 
#
# 1 0.024149 -0.007487 -0.005772 0.000000 0.000000 0.000001
# 2 -0.007487 0.024149 -0.005772 0.000000 0.000000 -0.000001
# 3 -0.005772 -0.005772 0.014998 0.000000 0.000000 0.000000
# 4 0.000000 0.000000 0.000000 0.035750 0.000000 0.000000
# 5 0.000000 0.000000 0.000000 0.000000 0.035750 0.000000
# 6 0.000001 -0.000001 0.000000 0.000000 0.000000 0.042022
#
#
# Mechanical properties :
#
#
# Convention : Reuss Voigt Hill
#
# Bulk Modulus (GPa) = 39.62732 42.28375 40.95553
# Shear Modulus (GPa) = 22.39247 23.69895 23.04571
#
# Velocity S-wave (km/s) = 3.44926 3.54846 3.49921
# Velocity P-wave (km/s) = 6.07600 6.26536 6.17140
#
# Compressibility (1/GPa) = 0.02523512
#
# Stress axis : x y z
#
# Youngs Moduli (GPa) = 41.41035 41.41035 66.67573
#
# Poissons Ratio (x) = 0.31003 0.38483
# Poissons Ratio (y) = 0.31003 0.38483
# Poissons Ratio (z) = 0.23900 0.23900
#
# Static dielectric constant tensor:
#      x y z
#    x 3.501410 0.000000 0.000000 
#    y 0.000000 3.501410 0.000000 
#    z 0.000000 0.000000 3.712940 
# 
# 
# High freq. dielectric constant tensor:
#      x y z
#    x 1.714340 0.000000 0.000000 
#    y 0.000000 1.714340 0.000000 
#    z 0.000000 0.000000 1.751270 
# 
# From -- ./inp_files/1507.got.cif
#   From: 2010.03.12/outbox.cif.g09.slc.cpg/sg107_1_cif.got.tgz:1507.got - 2010.04.14 01:49:11.
