data_PCOD8307251
_publ_section_title
;
Structure prediction by ZEFSAII (Michael W. Deem and Ramdas Pophale) SiO2 
 PCOD8307251
Probable space group: P 42 M C
;
_chemical_formula_sum "Si O2"
_cell_formula_units_Z 48
_cell_length_a 9.033040
_cell_length_b 9.033040
_cell_length_c 30.895178
_cell_angle_alpha 90.000000
_cell_angle_beta 90.000000
_cell_angle_gamma 90.000000
_cell_volume 2520.917125
_symmetry_space_group_name_H-M "P 42 M C"
_symmetry_group_IT_number 105
_symmetry_cell_setting 'tetragonal'
loop_
_space_group_symop_operation_xyz
x,y,z
-y,x,1/2+z
-x,-y,z
y,-x,1/2+z
-x,y,z
x,-y,z
-y,-x,1/2+z
y,x,1/2+z
loop_
_atom_site_type_symbol
_atom_site_label
_atom_site_fract_x
_atom_site_fract_y
_atom_site_fract_z
Si Si1 0.324535 0.163643 0.539140
Si Si2 0.173322 0.671711 0.786165
Si Si3 0.825761 0.329164 0.207297
Si Si4 0.670286 0.825322 0.442461
Si Si5 0.828861 0.325946 0.365431
Si Si6 0.664818 0.676045 0.121130
O O1 0.500000 0.153898 0.543404
O O2 0.284743 0.222544 0.491246
O O3 0.258312 0.269245 0.576413
O O4 0.257219 0.000000 0.545968
O O5 0.211844 0.500000 0.780331
O O6 0.229476 0.758451 0.744580
O O7 0.252735 0.730500 0.828652
O O8 0.000000 0.698917 0.791710
O O9 0.782376 0.500000 0.215710
O O10 0.762893 0.271769 0.161605
O O11 0.000000 0.307593 0.206630
O O12 0.500000 0.782861 0.432611
O O13 0.778873 0.735832 0.411594
O O14 0.692848 0.000000 0.435970
O O15 0.802387 0.500000 0.364288
O O16 0.000000 0.285969 0.357572
O O17 0.500000 0.739786 0.126958
O O18 0.662874 0.500000 0.118689
#
# Coordination Sequence:
#
# PCOD8307251 Si02
#       6
#     8   8   8   8   8   8
#     4   8  14  26  45  71 104 138 172 214 262 311
#     4  11  24  40  58  80 105 134 171 215 263 315
#     4  10  20  34  54  80 109 141 177 216 260 312
#     4   9  18  33  54  80 108 139 177 219 263 312
#     4  11  24  39  55  78 107 138 174 215 260 312
#     4   9  16  26  44  73 107 141 177 218 264 311
#
# _framework density 19.040687999999999
#
# number of rings (size 3 to 8) (size 9 to 14) (size 15 to 20)
#    0.000    2.333    0.000    4.000    0.000   10.667 
#    0.000    1.667    0.000    1.000    0.000    4.667 
#    0.000    0.000    0.000    0.000    0.000    0.000 
#
# Total GULP energy -595213.407170 kJ/mol
# GULP energy per Si atom -12400.279316 kJ/mol
# Density = 1.899735 g / cm^3
# Si number density = 19.040688 Si / 1000 Ang^3
#
#
#
# Elastic Constant Matrix: (Units=GPa)
#
#
# Indices 1 2 3 4 5 6 
#
# 1 67.3402 34.6889 43.7331 0.0000 0.0000 0.0000
# 2 34.6889 67.3402 43.7331 0.0000 0.0000 0.0000
# 3 43.7331 43.7331 142.5011 0.0000 0.0000 0.0000
# 4 0.0000 0.0000 0.0000********** 0.0000 0.0000
# 5 0.0000 0.0000 0.0000 0.0000********** 0.0000
# 6 0.0000 0.0000 0.0000 0.0000 0.0000 23.8933
#
#
#
# Elastic Compliance Matrix: (Units=1/GPa)
#
#
# Indices 1 2 3 4 5 6 
#
# 1 0.021963 -0.008663 -0.004082 0.000000 0.000000 0.000000
# 2 -0.008663 0.021963 -0.004082 0.000000 0.000000 0.000000
# 3 -0.004082 -0.004082 0.009523 0.000000 0.000000 0.000000
# 4 0.000000 0.000000 0.000000 -0.000063 0.000000 0.000000
# 5 0.000000 0.000000 0.000000 0.000000 -0.000063 0.000000
# 6 0.000000 0.000000 0.000000 0.000000 0.000000 0.041853
#
#
# Mechanical properties :
#
#
# Convention : Reuss Voigt Hill
#
# Bulk Modulus (GPa) = 50.51460 57.94353 54.22907
# Shear Modulus (GPa) = 36.91994 -6292.32459 -3127.70233
#
# Velocity S-wave (km/s) = 4.40819 -57.54865 -40.57348
# Velocity P-wave (km/s) = 7.24547 66.22159 46.54461
#
# Compressibility (1/GPa) = 0.01979626
#
# Stress axis : x y z
#
# Youngs Moduli (GPa) = 45.53012 45.53012 105.01014
#
# Poissons Ratio (x) = 0.39443 0.42863
# Poissons Ratio (y) = 0.39443 0.42863
# Poissons Ratio (z) = 0.18585 0.18585
#
# Static dielectric constant tensor:
#      x y z
#    x 9.840840 0.000000 0.000000 
#    y 0.000000 9.840840 0.000000 
#    z 0.000000 0.000000 3.761630 
# 
# 
# High freq. dielectric constant tensor:
#      x y z
#    x 1.723440 0.000000 0.000000 
#    y 0.000000 1.723440 0.000000 
#    z 0.000000 0.000000 1.760040 
# 
# From -- ./inp_files/4682.got.cif
#   From: 2010.03.12/outbox.cif.g09.slc.cpg/sg105_3_cif.got.tgz:4682.got - 2010.04.14 01:45:32.
