data_PCOD8307109
_publ_section_title
;
Structure prediction by ZEFSAII (Michael W. Deem and Ramdas Pophale) SiO2 
 PCOD8307109
Probable space group: P 42 M C
;
_chemical_formula_sum "Si O2"
_cell_formula_units_Z 48
_cell_length_a 29.514918
_cell_length_b 29.514918
_cell_length_c 5.224393
_cell_angle_alpha 90.000000
_cell_angle_beta 90.000000
_cell_angle_gamma 90.000000
_cell_volume 4551.127483
_symmetry_space_group_name_H-M "P 42 M C"
_symmetry_group_IT_number 105
_symmetry_cell_setting 'tetragonal'
loop_
_space_group_symop_operation_xyz
x,y,z
-y,x,1/2+z
-x,-y,z
y,-x,1/2+z
-x,y,z
x,-y,z
-y,-x,1/2+z
y,x,1/2+z
loop_
_atom_site_type_symbol
_atom_site_label
_atom_site_fract_x
_atom_site_fract_y
_atom_site_fract_z
Si Si1 0.947375 0.296206 0.550240
Si Si2 0.240704 0.946329 0.558672
Si Si3 0.945866 0.397200 0.539822
Si Si4 0.946015 0.551153 0.039160
Si Si5 0.048434 0.918545 0.035489
Si Si6 0.842610 0.877836 0.533755
O O1 0.929832 0.265029 0.318442
O O2 0.925439 0.346288 0.541360
O O3 0.000000 0.302723 0.503995
O O4 0.937210 0.274078 0.823033
O O5 0.199389 0.912059 0.523420
O O6 0.226215 0.000000 0.568157
O O7 0.927307 0.423480 0.788292
O O8 0.000000 0.396503 0.544936
O O9 0.927692 0.422761 0.288558
O O10 0.927156 0.500000 0.041655
O O11 0.000000 0.550758 0.039068
O O12 0.050162 0.949934 0.285323
O O13 0.000000 0.892370 0.035880
O O14 0.090597 0.885761 0.037082
O O15 0.844692 0.845562 0.785606
#
# Coordination Sequence:
#
# PCOD8307109 Si02
#       6
#     8   8   8   8   8   8
#     4   9  17  26  38  54  66  80  97 117 143 161
#     4  10  18  29  43  55  66  78  95 113 134 168
#     4   9  15  23  32  44  64  81  99 125 143 157
#     4   9  15  21  30  43  60  85 109 124 139 157
#     4  10  20  31  42  54  66  78  90 102 119 143
#     4  10  20  32  43  54  66  78  90 107 131 159
#
# _framework density 10.546837
#
# number of rings (size 3 to 8) (size 9 to 14) (size 15 to 20)
#    0.000    2.500    0.000    3.500    0.000    7.000 
#    0.000    5.000    0.000    0.000    0.000    0.000 
#    0.000    0.000    0.000    0.000    0.000    0.000 
#
# Total GULP energy -594793.347193 kJ/mol
# GULP energy per Si atom -12391.528067 kJ/mol
# Density = 1.052283 g / cm^3
# Si number density = 10.546837 Si / 1000 Ang^3
#
#
#
# Elastic Constant Matrix: (Units=GPa)
#
#
# Indices 1 2 3 4 5 6 
#
# 1 41.3213 9.2827 18.0676 0.0000 0.0000 0.0000
# 2 9.2827 41.3213 18.0676 0.0000 0.0000 0.0000
# 3 18.0676 18.0676 83.6108 0.0000 0.0000 0.0000
# 4 0.0000 0.0000 0.0000 25.0651 0.0000 0.0000
# 5 0.0000 0.0000 0.0000 0.0000 25.0651 0.0000
# 6 0.0000 0.0000 0.0000 0.0000 0.0000 -1.0326
#
#
#
# Elastic Compliance Matrix: (Units=1/GPa)
#
#
# Indices 1 2 3 4 5 6 
#
# 1 0.027290 -0.003923 -0.005049 0.000000 0.000000 0.000000
# 2 -0.003923 0.027290 -0.005049 0.000000 0.000000 0.000000
# 3 -0.005049 -0.005049 0.014142 0.000000 0.000000 0.000000
# 4 0.000000 0.000000 0.000000 0.039896 0.000000 0.000000
# 5 0.000000 0.000000 0.000000 0.000000 0.039896 0.000000
# 6 0.000000 0.000000 0.000000 0.000000 0.000000 -0.968466
#
#
# Mechanical properties :
#
#
# Convention : Reuss Voigt Hill
#
# Bulk Modulus (GPa) = 24.58288 28.56545 26.57417
# Shear Modulus (GPa) = -6.42385 17.87524 5.72570
#
# Velocity S-wave (km/s) = -2.47063 4.12131 2.33251
# Velocity P-wave (km/s) = 3.90131 7.05621 5.70133
#
# Compressibility (1/GPa) = 0.04067872
#
# Stress axis : x y z
#
# Youngs Moduli (GPa) = 36.64397 36.64397 70.70917
#
# Poissons Ratio (x) = 0.14374 0.35704
# Poissons Ratio (y) = 0.14374 0.35704
# Poissons Ratio (z) = 0.18503 0.18503
#
# Static dielectric constant tensor:
#      x y z
#    x 2.092360 0.000000 0.000000 
#    y 0.000000 2.092360 0.000000 
#    z 0.000000 0.000000 2.667720 
# 
# 
# High freq. dielectric constant tensor:
#      x y z
#    x 1.356780 0.000000 0.000000 
#    y 0.000000 1.356780 0.000000 
#    z 0.000000 0.000000 1.424860 
# 
# From -- ./inp_files/310.got.cif
#   From: 2010.03.12/outbox.cif.g09.slc.cpg/sg105_1_cif.got.tgz:310.got - 2010.04.14 01:45:32.
