data_PCOD8307895
_publ_section_title
;
Structure prediction by ZEFSAII (Michael W. Deem and Ramdas Pophale) SiO2 
 PCOD8307895
Probable space group: I 41 M D
;
_chemical_formula_sum "Si O2"
_cell_formula_units_Z 112
_cell_length_a 23.886830
_cell_length_b 23.886830
_cell_length_c 11.892593
_cell_angle_alpha 90.000000
_cell_angle_beta 90.000000
_cell_angle_gamma 90.000000
_cell_volume 6785.683414
_symmetry_space_group_name_H-M "I 41 M D"
_symmetry_group_IT_number 109
_symmetry_cell_setting 'tetragonal'
loop_
_space_group_symop_operation_xyz
x,y,z
-y,1/2+x,1/4+z
-x,-y,z
y,1/2-x,1/4+z
-x,y,z
x,-y,z
-y,1/2-x,1/4+z
y,1/2+x,1/4+z
1/2+x,1/2+y,1/2+z
1/2-y,x,3/4+z
1/2-x,1/2-y,1/2+z
1/2+y,-x,3/4+z
1/2-x,1/2+y,1/2+z
1/2+x,1/2-y,1/2+z
1/2-y,-x,3/4+z
1/2+y,x,3/4+z
loop_
_atom_site_type_symbol
_atom_site_label
_atom_site_fract_x
_atom_site_fract_y
_atom_site_fract_z
Si Si1 0.754709 0.435897 0.388750
Si Si2 0.165776 0.618940 0.224020
Si Si3 0.147682 0.260339 0.325850
Si Si4 0.064641 0.064274 0.852607
Si Si5 0.639756 0.233360 0.311212
Si Si6 0.834006 0.936168 0.711615
Si Si7 0.754655 0.174929 0.319446
O O1 0.748971 0.500000 0.419603
O O2 0.807497 0.425885 0.308566
O O3 0.761277 0.405629 0.507700
O O4 0.699176 0.413694 0.322671
O O5 0.160415 0.676093 0.292676
O O6 0.106025 0.592046 0.192756
O O7 0.205837 0.627057 0.114925
O O8 0.198739 0.220830 0.292850
O O9 0.135695 0.252202 0.459073
O O10 0.099632 0.070596 0.735826
O O11 0.000000 0.079628 0.828576
O O12 0.070314 0.000000 0.896828
O O13 0.597121 0.185309 0.351935
O O14 0.700675 0.212333 0.345966
O O15 0.634718 0.235475 0.176026
O O16 0.816684 0.000000 0.690139
#
# Coordination Sequence:
#
# PCOD8307895 Si02
#       7
#    16  16  16  16  16  16  16
#     4  10  20  32  49  74 102 132 170 210 257 305
#     4  11  19  31  54  75 100 136 168 209 259 309
#     4  11  19  31  49  73 102 137 169 210 253 306
#     4  10  20  33  51  78 106 131 168 216 263 307
#     4  10  20  32  51  75 106 136 171 209 253 303
#     4   9  18  33  52  75 102 131 165 212 260 303
#     4  10  21  32  48  77 106 138 174 209 249 302
#
# _framework density 16.505338999999999
#
# number of rings (size 3 to 8) (size 9 to 14) (size 15 to 20)
#    0.000    1.857    2.857    3.000    2.000    0.571 
#    0.000    0.714    0.000    5.143    0.000    0.000 
#    0.000    0.000    0.000    0.000    0.000    0.000 
#
# Total GULP energy -694219.319733 kJ/mol
# GULP energy per Si atom -12396.773567 kJ/mol
# Density = 1.646777 g / cm^3
# Si number density = 16.505339 Si / 1000 Ang^3
#
#
#
# Elastic Constant Matrix: (Units=GPa)
#
#
# Indices 1 2 3 4 5 6 
#
# 1 85.6643 35.5581 47.6198 0.0000 0.0000 0.0000
# 2 35.5581 85.6643 47.6198 0.0000 0.0000 0.0000
# 3 47.6198 47.6198 115.5916 0.0000 0.0000 0.0000
# 4 0.0000 0.0000 0.0000 23.0367 0.0000 0.0000
# 5 0.0000 0.0000 0.0000 0.0000 23.0367 0.0000
# 6 0.0000 0.0000 0.0000 0.0000 0.0000 21.4826
#
#
#
# Elastic Compliance Matrix: (Units=1/GPa)
#
#
# Indices 1 2 3 4 5 6 
#
# 1 0.016077 -0.003880 -0.005025 0.000000 0.000000 0.000000
# 2 -0.003880 0.016077 -0.005025 0.000000 0.000000 0.000000
# 3 -0.005025 -0.005025 0.012791 0.000000 0.000000 0.000000
# 4 0.000000 0.000000 0.000000 0.043409 0.000000 0.000000
# 5 0.000000 0.000000 0.000000 0.000000 0.043409 0.000000
# 6 0.000000 0.000000 0.000000 0.000000 0.000000 0.046549
#
#
# Mechanical properties :
#
#
# Convention : Reuss Voigt Hill
#
# Bulk Modulus (GPa) = 58.52661 60.94619 59.73640
# Shear Modulus (GPa) = 23.59959 23.91938 23.75948
#
# Velocity S-wave (km/s) = 3.78539 3.81095 3.79819
# Velocity P-wave (km/s) = 7.39201 7.50798 7.45022
#
# Compressibility (1/GPa) = 0.01708625
#
# Stress axis : x y z
#
# Youngs Moduli (GPa) = 62.19940 62.19940 78.17865
#
# Poissons Ratio (x) = 0.24135 0.39283
# Poissons Ratio (y) = 0.24135 0.39283
# Poissons Ratio (z) = 0.31254 0.31254
#
# Static dielectric constant tensor:
#      x y z
#    x 3.124600 0.000000 0.000000 
#    y 0.000000 3.124600 0.000000 
#    z 0.000000 0.000000 3.104710 
# 
# 
# High freq. dielectric constant tensor:
#      x y z
#    x 1.633160 0.000000 0.000000 
#    y 0.000000 1.633160 0.000000 
#    z 0.000000 0.000000 1.620290 
# 
# From -- ./inp_files/2132.got.cif
#   From: 2010.03.12/outbox.cif.g09.slc.cpg/sg109_2_cif.got.tgz:2132.got - 2010.04.14 01:55:16.
