data_PCOD8307836
_publ_section_title
;
Structure prediction by ZEFSAII (Michael W. Deem and Ramdas Pophale) SiO2 
 PCOD8307836
Probable space group: I 41 M D
;
_chemical_formula_sum "Si O2"
_cell_formula_units_Z 64
_cell_length_a 18.681551
_cell_length_b 18.681551
_cell_length_c 7.667892
_cell_angle_alpha 90.000000
_cell_angle_beta 90.000000
_cell_angle_gamma 90.000000
_cell_volume 2676.096975
_symmetry_space_group_name_H-M "I 41 M D"
_symmetry_group_IT_number 109
_symmetry_cell_setting 'tetragonal'
loop_
_space_group_symop_operation_xyz
x,y,z
-y,1/2+x,1/4+z
-x,-y,z
y,1/2-x,1/4+z
-x,y,z
x,-y,z
-y,1/2-x,1/4+z
y,1/2+x,1/4+z
1/2+x,1/2+y,1/2+z
1/2-y,x,3/4+z
1/2-x,1/2-y,1/2+z
1/2+y,-x,3/4+z
1/2-x,1/2+y,1/2+z
1/2+x,1/2-y,1/2+z
1/2-y,-x,3/4+z
1/2+y,x,3/4+z
loop_
_atom_site_type_symbol
_atom_site_label
_atom_site_fract_x
_atom_site_fract_y
_atom_site_fract_z
Si Si1 0.204446 0.825064 0.312050
Si Si2 0.418861 0.919232 0.148271
Si Si3 0.579230 0.859910 0.538117
Si Si4 0.917821 0.221113 0.852696
O O1 0.184561 0.746102 0.381527
O O2 0.132259 0.870251 0.279114
O O3 0.256964 0.866882 0.443531
O O4 0.500000 0.913192 0.081368
O O5 0.413915 0.895480 0.348385
O O6 0.390044 0.000000 0.129902
O O7 0.500000 0.875236 0.616784
O O8 0.592087 0.774301 0.517243
O O9 0.640351 0.895197 0.659850
O O10 0.000000 0.224071 0.788754
#
# Coordination Sequence:
#
# PCOD8307836 Si02
#       4
#    16  16  16  16
#     4  11  21  33  51  75 105 141 173 211 258 308
#     4   9  17  29  49  78 104 126 165 222 271 305
#     4   9  17  26  41  69 101 130 163 209 260 308
#     4  10  17  27  45  72 100 131 165 205 261 312
#
# _framework density 23.915426
#
# number of rings (size 3 to 8) (size 9 to 14) (size 15 to 20)
#    0.000    2.250    5.000    3.000    0.000    2.500 
#    0.000    0.000    0.000    4.500    0.000    0.000 
#    0.000    4.000    0.000    0.000    0.000    0.000 
#
# Total GULP energy -396761.763769 kJ/mol
# GULP energy per Si atom -12398.805118 kJ/mol
# Density = 2.386099 g / cm^3
# Si number density = 23.915426 Si / 1000 Ang^3
#
#
#
# Elastic Constant Matrix: (Units=GPa)
#
#
# Indices 1 2 3 4 5 6 
#
# 1 177.1160 65.5277 11.6385 0.0000 0.0000 0.0000
# 2 65.5277 177.1160 11.6385 0.0000 0.0000 0.0000
# 3 11.6385 11.6385 16.9795 0.0000 0.0000 0.0000
# 4 0.0000 0.0000 0.0000 8.9708 0.0000 0.0000
# 5 0.0000 0.0000 0.0000 0.0000 8.9708 0.0000
# 6 0.0000 0.0000 0.0000 0.0000 0.0000 40.5782
#
#
#
# Elastic Compliance Matrix: (Units=1/GPa)
#
#
# Indices 1 2 3 4 5 6 
#
# 1 0.006686 -0.002275 -0.003024 0.000000 0.000000 0.000000
# 2 -0.002275 0.006686 -0.003024 0.000000 0.000000 0.000000
# 3 -0.003024 -0.003024 0.063040 0.000000 0.000000 0.000000
# 4 0.000000 0.000000 0.000000 0.111473 0.000000 0.000000
# 5 0.000000 0.000000 0.000000 0.000000 0.111473 0.000000
# 6 0.000000 0.000000 0.000000 0.000000 0.000000 0.024644
#
#
# Mechanical properties :
#
#
# Convention : Reuss Voigt Hill
#
# Bulk Modulus (GPa) = 16.73149 60.98010 38.85580
# Shear Modulus (GPa) = 13.86696 30.53107 22.19902
#
# Velocity S-wave (km/s) = 2.41058 3.57687 3.04999
# Velocity P-wave (km/s) = 3.84177 6.52780 5.35590
#
# Compressibility (1/GPa) = 0.05976755
#
# Stress axis : x y z
#
# Youngs Moduli (GPa) = 149.55673 149.55673 15.86299
#
# Poissons Ratio (x) = 0.34025 0.04797
# Poissons Ratio (y) = 0.34025 0.04797
# Poissons Ratio (z) = 0.45222 0.45222
#
# Static dielectric constant tensor:
#      x y z
#    x 4.663200 0.000000 0.000000 
#    y 0.000000 4.663200 0.000000 
#    z 0.000000 0.000000 3.291310 
# 
# 
# High freq. dielectric constant tensor:
#      x y z
#    x 1.966190 0.000000 0.000000 
#    y 0.000000 1.966190 0.000000 
#    z 0.000000 0.000000 1.872560 
# 
# From -- ./inp_files/1203.got.cif
#   From: 2010.03.12/outbox.cif.g09.slc.cpg/sg109_1_cif.got.tgz:1203.got - 2010.04.14 01:55:16.
