data_PCOD8307616
_publ_section_title
;
Structure prediction by ZEFSAII (Michael W. Deem and Ramdas Pophale) SiO2 
 PCOD8307616
Probable space group: I 4 M M
;
_chemical_formula_sum "Si O2"
_cell_formula_units_Z 112
_cell_length_a 13.877289
_cell_length_b 13.877289
_cell_length_c 35.787787
_cell_angle_alpha 90.000000
_cell_angle_beta 90.000000
_cell_angle_gamma 90.000000
_cell_volume 6891.981600
_symmetry_space_group_name_H-M "I 4 M M"
_symmetry_group_IT_number 107
_symmetry_cell_setting 'tetragonal'
loop_
_space_group_symop_operation_xyz
x,y,z
-y,x,z
-x,-y,z
y,-x,z
-x,y,z
x,-y,z
-y,-x,z
y,x,z
1/2+x,1/2+y,1/2+z
1/2-y,1/2+x,1/2+z
1/2-x,1/2-y,1/2+z
1/2+y,1/2-x,1/2+z
1/2-x,1/2+y,1/2+z
1/2+x,1/2-y,1/2+z
1/2-y,1/2-x,1/2+z
1/2+y,1/2+x,1/2+z
loop_
_atom_site_type_symbol
_atom_site_label
_atom_site_fract_x
_atom_site_fract_y
_atom_site_fract_z
Si Si1 0.271655 0.887566 0.078190
Si Si2 0.388979 0.233169 0.218195
Si Si3 0.729449 0.886229 0.273836
Si Si4 0.609801 0.234408 0.131747
Si Si5 0.390901 0.887385 0.345779
Si Si6 0.109014 0.262876 0.996965
Si Si7 0.612054 0.768775 0.416400
O O1 0.173433 0.826568 0.084108
O O2 0.352215 0.855216 0.107615
O O3 0.247985 0.000000 0.084657
O O4 0.317144 0.868638 0.036305
O O5 0.500000 0.247846 0.229979
O O6 0.332532 0.332532 0.227156
O O7 0.342141 0.144726 0.240639
O O8 0.379574 0.205402 0.174895
O O9 0.831499 0.831499 0.270660
O O10 0.679004 0.855525 0.312475
O O11 0.748720 0.000000 0.271125
O O12 0.500000 0.256499 0.121115
O O13 0.669485 0.330516 0.122151
O O14 0.500000 0.854594 0.336080
O O15 0.353377 0.841459 0.384339
O O16 0.386504 0.000000 0.352072
O O17 0.162569 0.162569 0.997039
O O18 0.132515 0.318091 0.957648
O O19 0.000000 0.230661 0.996731
O O20 0.500000 0.744128 0.411586
O O21 0.669483 0.669483 0.412097
#
# Coordination Sequence:
#
# PCOD8307616 Si02
#       7
#    16  16  16  16  16  16  16
#     4   9  17  29  44  63  89 119 152 189 225 263
#     4   9  18  32  50  72  95 118 145 177 215 261
#     4  10  20  33  49  68  90 117 150 187 224 261
#     4   9  18  32  49  69  92 117 146 181 220 262
#     4   9  17  29  45  64  85 111 144 180 218 260
#     4   8  14  24  38  57  82 113 146 179 215 254
#     4   9  16  26  41  61  86 114 142 174 213 258
#
# _framework density 16.250768000000001
#
# number of rings (size 3 to 8) (size 9 to 14) (size 15 to 20)
#    0.000    3.000    0.000    0.857    0.000    2.571 
#    0.000    6.429    0.000    2.571    0.000    6.000 
#    0.000    0.000    0.000    9.000    0.000    0.143 
#
# Total GULP energy -693863.088285 kJ/mol
# GULP energy per Si atom -12390.412291 kJ/mol
# Density = 1.621378 g / cm^3
# Si number density = 16.250768 Si / 1000 Ang^3
#
#
#
# Elastic Constant Matrix: (Units=GPa)
#
#
# Indices 1 2 3 4 5 6 
#
# 1 76.6323 37.9692 52.9319 0.0000 0.0000 -0.0001
# 2 37.9692 76.6322 52.9319 0.0000 0.0000 0.0001
# 3 52.9319 52.9319 107.6155 0.0000 0.0000 0.0000
# 4 0.0000 0.0000 0.0000 24.5193 0.0000 0.0000
# 5 0.0000 0.0000 0.0000 0.0000 24.5193 0.0000
# 6 -0.0001 0.0001 0.0000 0.0000 0.0000 15.1634
#
#
#
# Elastic Compliance Matrix: (Units=1/GPa)
#
#
# Indices 1 2 3 4 5 6 
#
# 1 0.020928 -0.004936 -0.007866 0.000000 0.000000 0.000000
# 2 -0.004936 0.020928 -0.007866 0.000000 0.000000 0.000000
# 3 -0.007866 -0.007866 0.017030 0.000000 0.000000 0.000000
# 4 0.000000 0.000000 0.000000 0.040784 0.000000 0.000000
# 5 0.000000 0.000000 0.000000 0.000000 0.040784 0.000000
# 6 0.000000 0.000000 0.000000 0.000000 0.000000 0.065948
#
#
# Mechanical properties :
#
#
# Convention : Reuss Voigt Hill
#
# Bulk Modulus (GPa) = 56.97750 60.94953 58.96351
# Shear Modulus (GPa) = 19.71692 20.64356 20.18024
#
# Velocity S-wave (km/s) = 3.48701 3.56801 3.52774
# Velocity P-wave (km/s) = 7.16588 7.38656 7.27706
#
# Compressibility (1/GPa) = 0.01755079
#
# Stress axis : x y z
#
# Youngs Moduli (GPa) = 47.78231 47.78231 58.71939
#
# Poissons Ratio (x) = 0.23586 0.46188
# Poissons Ratio (y) = 0.23586 0.46188
# Poissons Ratio (z) = 0.37585 0.37585
#
# Static dielectric constant tensor:
#      x y z
#    x 2.920540 0.000000 0.000000 
#    y 0.000000 2.920540 0.000000 
#    z 0.000000 0.000000 3.519510 
# 
# 
# High freq. dielectric constant tensor:
#      x y z
#    x 1.607480 0.000000 0.000000 
#    y 0.000000 1.607480 0.000000 
#    z 0.000000 0.000000 1.645030 
# 
# From -- ./inp_files/6156.got.cif
#   From: 2010.03.12/outbox.cif.g09.slc.cpg/sg107_4_cif.got.tgz:6156.got - 2010.04.14 01:49:11.
