data_PCOD8307137
_publ_section_title
;
Structure prediction by ZEFSAII (Michael W. Deem and Ramdas Pophale) SiO2 
 PCOD8307137
Probable space group: P 42 M C
;
_chemical_formula_sum "Si O2"
_cell_formula_units_Z 48
_cell_length_a 28.045692
_cell_length_b 28.045692
_cell_length_c 5.301838
_cell_angle_alpha 90.000000
_cell_angle_beta 90.000000
_cell_angle_gamma 90.000000
_cell_volume 4170.218150
_symmetry_space_group_name_H-M "P 42 M C"
_symmetry_group_IT_number 105
_symmetry_cell_setting 'tetragonal'
loop_
_space_group_symop_operation_xyz
x,y,z
-y,x,1/2+z
-x,-y,z
y,-x,1/2+z
-x,y,z
x,-y,z
-y,-x,1/2+z
y,x,1/2+z
loop_
_atom_site_type_symbol
_atom_site_label
_atom_site_fract_x
_atom_site_fract_y
_atom_site_fract_z
Si Si1 0.943094 0.606734 0.610440
Si Si2 0.286011 0.943589 0.110440
Si Si3 0.230819 0.056345 0.610440
Si Si4 0.867612 0.847038 0.110440
Si Si5 0.052117 0.087277 0.610440
Si Si6 0.553962 0.056802 0.610440
O O1 0.922757 0.660488 0.610440
O O2 0.923754 0.580266 0.360548
O O3 0.000000 0.606695 0.610440
O O4 0.923754 0.580266 0.860332
O O5 0.259405 0.926320 0.363186
O O6 0.288776 0.000000 0.110439
O O7 0.259405 0.926319 0.857694
O O8 0.179706 0.081893 0.610440
O O9 0.221566 0.000000 0.610441
O O10 0.836118 0.836118 0.360440
O O11 0.874580 0.904756 0.110441
O O12 0.054953 0.054953 0.360440
O O13 0.000000 0.113184 0.610440
O O14 0.500000 0.076114 0.610440
O O15 0.554508 0.000000 0.610440
#
# Coordination Sequence:
#
# PCOD8307137 Si02
#       6
#     8   8   8   8   8   8
#     4   9  15  23  34  48  66  86 109 131 146 161
#     4   9  17  28  42  56  67  82 103 127 149 164
#     4  10  19  31  44  56  68  80  97 120 146 175
#     4  10  21  33  45  57  68  80  92 109 138 177
#     4  10  21  34  45  56  68  80  92 104 121 155
#     4   9  15  21  30  46  69  94 113 127 143 161
#
# _framework density 11.51019
#
# number of rings (size 3 to 8) (size 9 to 14) (size 15 to 20)
#    0.000    2.500    0.000    3.000    0.000   12.333 
#    0.000    1.667    0.000    0.000    0.000    0.000 
#    0.000    0.000    0.000    0.000    0.000    0.000 
#
# Total GULP energy -594807.093098 kJ/mol
# GULP energy per Si atom -12391.814440 kJ/mol
# Density = 1.148399 g / cm^3
# Si number density = 11.510190 Si / 1000 Ang^3
#
#
#
# Elastic Constant Matrix: (Units=GPa)
#
#
# Indices 1 2 3 4 5 6 
#
# 1 42.8649 5.6085 23.9287 0.0000 0.0000 0.0000
# 2 5.6085 42.8649 23.9287 0.0000 0.0000 0.0000
# 3 23.9287 23.9287 133.4931 0.0000 0.0000 0.0000
# 4 0.0000 0.0000 0.0000 12.0333 0.0000 0.0000
# 5 0.0000 0.0000 0.0000 0.0000 12.0333 0.0000
# 6 0.0000 0.0000 0.0000 0.0000 0.0000 1.6901
#
#
#
# Elastic Compliance Matrix: (Units=1/GPa)
#
#
# Indices 1 2 3 4 5 6 
#
# 1 0.025953 -0.000888 -0.004493 0.000000 0.000000 0.000000
# 2 -0.000888 0.025953 -0.004493 0.000000 0.000000 0.000000
# 3 -0.004493 -0.004493 0.009102 0.000000 0.000000 0.000000
# 4 0.000000 0.000000 0.000000 0.083103 0.000000 0.000000
# 5 0.000000 0.000000 0.000000 0.000000 0.083103 0.000000
# 6 0.000000 0.000000 0.000000 0.000000 0.000000 0.591687
#
#
# Mechanical properties :
#
#
# Convention : Reuss Voigt Hill
#
# Bulk Modulus (GPa) = 24.23585 36.23940 30.23762
# Shear Modulus (GPa) = 5.86577 16.20182 11.03380
#
# Velocity S-wave (km/s) = 2.25992 3.75588 3.09950
# Velocity P-wave (km/s) = 5.28312 7.09660 6.25592
#
# Compressibility (1/GPa) = 0.04126120
#
# Stress axis : x y z
#
# Youngs Moduli (GPa) = 38.53059 38.53059 109.86860
#
# Poissons Ratio (x) = 0.03420 0.49364
# Poissons Ratio (y) = 0.03420 0.49364
# Poissons Ratio (z) = 0.17312 0.17312
#
# Static dielectric constant tensor:
#      x y z
#    x 2.147000 0.000000 0.000000 
#    y 0.000000 2.147000 0.000000 
#    z 0.000000 0.000000 3.246040 
# 
# 
# High freq. dielectric constant tensor:
#      x y z
#    x 1.384020 0.000000 0.000000 
#    y 0.000000 1.384020 0.000000 
#    z 0.000000 0.000000 1.472350 
# 
# From -- ./inp_files/308.got.cif
#   From: 2010.03.12/outbox.cif.g09.slc.cpg/sg105_1_cif.got.tgz:308.got - 2010.04.14 01:45:32.
