data_PCOD8307876
_publ_section_title
;
Structure prediction by ZEFSAII (Michael W. Deem and Ramdas Pophale) SiO2 
 PCOD8307876
Probable space group: I 41 M D
;
_chemical_formula_sum "Si O2"
_cell_formula_units_Z 112
_cell_length_a 22.860744
_cell_length_b 22.860744
_cell_length_c 12.746529
_cell_angle_alpha 90.000000
_cell_angle_beta 90.000000
_cell_angle_gamma 90.000000
_cell_volume 6661.509615
_symmetry_space_group_name_H-M "I 41 M D"
_symmetry_group_IT_number 109
_symmetry_cell_setting 'tetragonal'
loop_
_space_group_symop_operation_xyz
x,y,z
-y,1/2+x,1/4+z
-x,-y,z
y,1/2-x,1/4+z
-x,y,z
x,-y,z
-y,1/2-x,1/4+z
y,1/2+x,1/4+z
1/2+x,1/2+y,1/2+z
1/2-y,x,3/4+z
1/2-x,1/2-y,1/2+z
1/2+y,-x,3/4+z
1/2-x,1/2+y,1/2+z
1/2+x,1/2-y,1/2+z
1/2-y,-x,3/4+z
1/2+y,x,3/4+z
loop_
_atom_site_type_symbol
_atom_site_label
_atom_site_fract_x
_atom_site_fract_y
_atom_site_fract_z
Si Si1 0.242421 0.432576 0.413010
Si Si2 0.431774 0.124841 0.996740
Si Si3 0.567752 0.432248 0.153067
Si Si4 0.757579 0.932576 0.143124
Si Si5 0.124841 0.568226 0.309395
Si Si6 0.567793 0.628295 0.943183
Si Si7 0.128295 0.932207 0.862952
O O1 0.225950 0.500000 0.431865
O O2 0.250000 0.402891 0.528067
O O3 0.188209 0.406662 0.346755
O O4 0.302240 0.424484 0.349312
O O5 0.500000 0.126063 0.026381
O O6 0.406662 0.188209 0.959380
O O7 0.421292 0.078708 0.903068
O O8 0.395524 0.106410 0.098396
O O9 0.500000 0.419260 0.171365
O O10 0.580742 0.500000 0.134770
O O11 0.601036 0.408681 0.255176
O O12 0.591319 0.398964 0.050959
O O13 0.697761 0.924484 0.206823
O O14 0.774050 0.000000 0.124269
O O15 0.126063 0.500000 0.279754
O O16 0.106410 0.604477 0.207739
O O17 0.500000 0.611428 0.922458
O O18 0.111428 0.000000 0.883676
#
# Coordination Sequence:
#
# PCOD8307876 Si02
#       7
#    16  16  16  16  16  16  16
#     4   9  17  31  47  69 100 132 164 196 242 302
#     4  11  20  29  47  77 103 126 162 207 254 301
#     4   9  18  32  50  74 104 136 164 194 246 306
#     4   9  17  31  47  69 100 132 164 196 242 302
#     4  11  20  29  47  77 103 126 162 207 254 301
#     4  10  19  33  51  72 101 135 168 203 249 303
#     4  10  19  33  51  72 101 135 168 203 249 303
#
# _framework density 16.813006999999999
#
# number of rings (size 3 to 8) (size 9 to 14) (size 15 to 20)
#    0.000    2.143    2.857    1.714    0.000    3.143 
#    0.000    1.429    0.000    6.857   11.143    0.000 
#    0.000    0.000    0.000    0.000    0.000    0.000 
#
# Total GULP energy -694320.123535 kJ/mol
# GULP energy per Si atom -12398.573635 kJ/mol
# Density = 1.677474 g / cm^3
# Si number density = 16.813007 Si / 1000 Ang^3
#
#
#
# Elastic Constant Matrix: (Units=GPa)
#
#
# Indices 1 2 3 4 5 6 
#
# 1 63.6697 30.0993 43.7558 0.0000 0.0000 0.0000
# 2 30.0993 63.6697 43.7558 0.0000 0.0000 0.0000
# 3 43.7558 43.7558 135.3564 0.0000 0.0000 0.0000
# 4 0.0000 0.0000 0.0000 24.6680 0.0000 0.0000
# 5 0.0000 0.0000 0.0000 0.0000 24.6680 0.0000
# 6 0.0000 0.0000 0.0000 0.0000 0.0000 12.0673
#
#
#
# Elastic Compliance Matrix: (Units=1/GPa)
#
#
# Indices 1 2 3 4 5 6 
#
# 1 0.022530 -0.007258 -0.004937 0.000000 0.000000 0.000000
# 2 -0.007258 0.022530 -0.004937 0.000000 0.000000 0.000000
# 3 -0.004937 -0.004937 0.010580 0.000000 0.000000 0.000000
# 4 0.000000 0.000000 0.000000 0.040538 0.000000 0.000000
# 5 0.000000 0.000000 0.000000 0.000000 0.040538 0.000000
# 6 0.000000 0.000000 0.000000 0.000000 0.000000 0.082868
#
#
# Mechanical properties :
#
#
# Convention : Reuss Voigt Hill
#
# Bulk Modulus (GPa) = 46.78116 55.32416 51.05266
# Shear Modulus (GPa) = 19.15899 21.95299 20.55599
#
# Velocity S-wave (km/s) = 3.37936 3.61739 3.50040
# Velocity P-wave (km/s) = 6.56594 7.10101 6.83871
#
# Compressibility (1/GPa) = 0.02137613
#
# Stress axis : x y z
#
# Youngs Moduli (GPa) = 44.38515 44.38515 94.52054
#
# Poissons Ratio (x) = 0.32215 0.46663
# Poissons Ratio (y) = 0.32215 0.46663
# Poissons Ratio (z) = 0.21912 0.21912
#
# Static dielectric constant tensor:
#      x y z
#    x 3.069080 0.000000 0.000000 
#    y 0.000000 3.069080 0.000000 
#    z 0.000000 0.000000 3.284110 
# 
# 
# High freq. dielectric constant tensor:
#      x y z
#    x 1.628620 0.000000 0.000000 
#    y 0.000000 1.628620 0.000000 
#    z 0.000000 0.000000 1.649900 
# 
# From -- ./inp_files/2134.got.cif
#   From: 2010.03.12/outbox.cif.g09.slc.cpg/sg109_2_cif.got.tgz:2134.got - 2010.04.14 01:55:16.
