data_PCOD8307440
_publ_section_title
;
Structure prediction by ZEFSAII (Michael W. Deem and Ramdas Pophale) SiO2 
 PCOD8307440
Probable space group: P 42 B C
;
_chemical_formula_sum "Si O2"
_cell_formula_units_Z 32
_cell_length_a 10.196688
_cell_length_b 10.196688
_cell_length_c 13.915513
_cell_angle_alpha 90.000000
_cell_angle_beta 90.000000
_cell_angle_gamma 90.000000
_cell_volume 1446.829926
_symmetry_space_group_name_H-M "P 42 B C"
_symmetry_group_IT_number 106
_symmetry_cell_setting 'tetragonal'
loop_
_space_group_symop_operation_xyz
x,y,z
-y,x,1/2+z
-x,-y,z
y,-x,1/2+z
1/2-x,1/2+y,z
1/2+x,1/2-y,z
1/2-y,1/2-x,1/2+z
1/2+y,1/2+x,1/2+z
loop_
_atom_site_type_symbol
_atom_site_label
_atom_site_fract_x
_atom_site_fract_y
_atom_site_fract_z
Si Si1 0.714936 0.050625 0.580220
Si Si2 0.255244 0.389083 0.947703
Si Si3 0.386883 0.146960 0.891239
Si Si4 0.500000 0.500000 0.546208
Si Si5 0.000000 0.500000 0.234540
O O1 0.673386 0.195534 0.545740
O O2 0.630952 0.011123 0.671745
O O3 0.682987 0.958561 0.489717
O O4 0.870025 0.039007 0.608144
O O5 0.282743 0.265422 0.875497
O O6 0.165967 0.497461 0.896454
O O7 0.383596 0.468182 0.974506
O O8 0.481836 0.133534 0.798632
#
# Coordination Sequence:
#
# PCOD8307440 Si02
#       5
#     8   8   8   4   4
#     4  11  22  44  70  96 138 184 229 286 350 413
#     4  11  20  44  68  95 135 181 227 289 339 423
#     4  11  23  42  68  95 133 184 228 282 356 416
#     4  10  24  40  72  98 128 188 236 276 350 414
#     4  12  22  42  70 104 134 186 222 292 362 414
#
# _framework density 22.117318000000001
#
# number of rings (size 3 to 8) (size 9 to 14) (size 15 to 20)
#    0.000    1.000    7.500    0.000    0.000    0.000 
#   13.500    1.250    0.000    0.000    0.000    0.000 
#    0.000    0.000    0.000    0.000    0.000    0.000 
#
# Total GULP energy -396493.280731 kJ/mol
# GULP energy per Si atom -12390.415023 kJ/mol
# Density = 2.206698 g / cm^3
# Si number density = 22.117318 Si / 1000 Ang^3
#
#
#
# Elastic Constant Matrix: (Units=GPa)
#
#
# Indices 1 2 3 4 5 6 
#
# 1 151.3784 43.3114 49.5623 0.0000 0.0000 0.0000
# 2 43.3114 151.3784 49.5623 0.0000 0.0000 0.0000
# 3 49.5623 49.5623 94.5622 0.0000 0.0000 0.0000
# 4 0.0000 0.0000 0.0000 -37.4075 0.0000 0.0000
# 5 0.0000 0.0000 0.0000 0.0000 -37.4075 0.0000
# 6 0.0000 0.0000 0.0000 0.0000 0.0000 48.9109
#
#
#
# Elastic Compliance Matrix: (Units=1/GPa)
#
#
# Indices 1 2 3 4 5 6 
#
# 1 0.008130 -0.001124 -0.003672 0.000000 0.000000 0.000000
# 2 -0.001124 0.008130 -0.003672 0.000000 0.000000 0.000000
# 3 -0.003672 -0.003672 0.014424 0.000000 0.000000 0.000000
# 4 0.000000 0.000000 0.000000 -0.026733 0.000000 0.000000
# 5 0.000000 0.000000 0.000000 0.000000 -0.026733 0.000000
# 6 0.000000 0.000000 0.000000 0.000000 0.000000 0.020445
#
#
# Mechanical properties :
#
#
# Convention : Reuss Voigt Hill
#
# Bulk Modulus (GPa) = 72.73709 75.79902 74.26805
# Shear Modulus (GPa) = 260.66100 11.81137 136.23619
#
# Velocity S-wave (km/s) = 10.86783 2.31342 7.85689
# Velocity P-wave (km/s) = 13.79992 6.44062 10.76846
#
# Compressibility (1/GPa) = 0.01374814
#
# Stress axis : x y z
#
# Youngs Moduli (GPa) = 123.00538 123.00538 69.32801
#
# Poissons Ratio (x) = 0.13823 0.25457
# Poissons Ratio (y) = 0.13823 0.25457
# Poissons Ratio (z) = 0.45167 0.45167
#
# Static dielectric constant tensor:
#      x y z
#    x 5.193190 0.000000 0.000000 
#    y 0.000000 5.193190 0.000000 
#    z 0.000000 0.000000 3.576380 
# 
# 
# High freq. dielectric constant tensor:
#      x y z
#    x 1.887640 0.000000 0.000000 
#    y 0.000000 1.887640 0.000000 
#    z 0.000000 0.000000 1.828930 
# 
# From -- ./inp_files/684.got.cif
#   From: 2010.03.12/outbox.cif.g09.slc.cpg/sg106_cif.got.tgz:684.got - 2010.04.14 01:48:02.
