data_PCOD8307600
_publ_section_title
;
Structure prediction by ZEFSAII (Michael W. Deem and Ramdas Pophale) SiO2 
 PCOD8307600
Probable space group: I 4 M M
;
_chemical_formula_sum "Si O2"
_cell_formula_units_Z 112
_cell_length_a 13.941816
_cell_length_b 13.941816
_cell_length_c 35.206410
_cell_angle_alpha 90.000000
_cell_angle_beta 90.000000
_cell_angle_gamma 90.000000
_cell_volume 6843.218954
_symmetry_space_group_name_H-M "I 4 M M"
_symmetry_group_IT_number 107
_symmetry_cell_setting 'tetragonal'
loop_
_space_group_symop_operation_xyz
x,y,z
-y,x,z
-x,-y,z
y,-x,z
-x,y,z
x,-y,z
-y,-x,z
y,x,z
1/2+x,1/2+y,1/2+z
1/2-y,1/2+x,1/2+z
1/2-x,1/2-y,1/2+z
1/2+y,1/2-x,1/2+z
1/2-x,1/2+y,1/2+z
1/2+x,1/2-y,1/2+z
1/2-y,1/2-x,1/2+z
1/2+y,1/2+x,1/2+z
loop_
_atom_site_type_symbol
_atom_site_label
_atom_site_fract_x
_atom_site_fract_y
_atom_site_fract_z
Si Si1 0.889769 0.732947 0.557820
Si Si2 0.386244 0.769381 0.252442
Si Si3 0.109282 0.735657 0.108992
Si Si4 0.393538 0.886047 0.823464
Si Si5 0.890575 0.738836 0.472161
Si Si6 0.889432 0.734226 0.197108
Si Si7 0.886094 0.394329 0.406583
O O1 0.829789 0.829789 0.565407
O O2 0.853950 0.647910 0.584908
O O3 0.877709 0.696019 0.514483
O O4 0.000000 0.756477 0.567183
O O5 0.500000 0.751859 0.249948
O O6 0.332714 0.667287 0.248447
O O7 0.353345 0.817207 0.292095
O O8 0.354732 0.841943 0.219205
O O9 0.168714 0.831287 0.099080
O O10 0.119050 0.708074 0.152976
O O11 0.000000 0.756524 0.097703
O O12 0.500000 0.845419 0.813505
O O13 0.359866 0.849375 0.865216
O O14 0.400052 0.000000 0.825053
O O15 0.841499 0.841499 0.469336
O O16 0.843410 0.668172 0.441077
O O17 0.000000 0.757834 0.461991
O O18 0.832870 0.832870 0.206513
O O19 0.000000 0.747959 0.209402
O O20 0.840483 0.500000 0.410662
O O21 0.000000 0.401442 0.410150
#
# Coordination Sequence:
#
# PCOD8307600 Si02
#       7
#    16  16  16  16  16  16  16
#     4   9  18  31  45  63  88 117 152 192 228 263
#     4  10  20  32  46  65  89 118 153 190 225 261
#     4   9  18  32  49  70  95 119 144 176 214 260
#     4   8  14  26  44  64  85 109 139 178 222 265
#     4   9  17  28  42  61  85 114 146 178 214 256
#     4   9  18  32  50  72  95 118 144 175 214 261
#     4   8  14  25  41  62  87 111 137 174 218 262
#
# _framework density 16.366565999999999
#
# number of rings (size 3 to 8) (size 9 to 14) (size 15 to 20)
#    0.000    3.143    0.000    1.286    0.000    3.571 
#    0.000    5.714    0.000    0.000    0.000    4.000 
#    0.000    3.714    0.000    0.286    0.000    0.143 
#
# Total GULP energy -694141.657293 kJ/mol
# GULP energy per Si atom -12395.386737 kJ/mol
# Density = 1.632932 g / cm^3
# Si number density = 16.366566 Si / 1000 Ang^3
#
#
#
# Elastic Constant Matrix: (Units=GPa)
#
#
# Indices 1 2 3 4 5 6 
#
# 1 88.5825 41.3776 50.7170 0.0000 0.0000 -0.0001
# 2 41.3776 88.5825 50.7170 0.0000 0.0000 0.0001
# 3 50.7170 50.7170 88.8892 0.0000 0.0000 0.0000
# 4 0.0000 0.0000 0.0000 24.2268 0.0000 0.0000
# 5 0.0000 0.0000 0.0000 0.0000 24.2268 0.0000
# 6 -0.0001 0.0001 0.0000 0.0000 0.0000 13.4679
#
#
#
# Elastic Compliance Matrix: (Units=1/GPa)
#
#
# Indices 1 2 3 4 5 6 
#
# 1 0.017528 -0.003656 -0.007915 0.000000 0.000000 0.000000
# 2 -0.003656 0.017528 -0.007915 0.000000 0.000000 0.000000
# 3 -0.007915 -0.007915 0.020282 0.000000 0.000000 0.000000
# 4 0.000000 0.000000 0.000000 0.041277 0.000000 0.000000
# 5 0.000000 0.000000 0.000000 0.000000 0.041277 0.000000
# 6 0.000000 0.000000 0.000000 0.000000 0.000000 0.074251
#
#
# Mechanical properties :
#
#
# Convention : Reuss Voigt Hill
#
# Bulk Modulus (GPa) = 61.10031 61.29748 61.19890
# Shear Modulus (GPa) = 19.48784 20.60050 20.04417
#
# Velocity S-wave (km/s) = 3.45441 3.55166 3.50337
# Velocity P-wave (km/s) = 7.30233 7.37246 7.33748
#
# Compressibility (1/GPa) = 0.01636653
#
# Stress axis : x y z
#
# Youngs Moduli (GPa) = 57.05058 57.05057 49.30457
#
# Poissons Ratio (x) = 0.20857 0.39025
# Poissons Ratio (y) = 0.20857 0.39025
# Poissons Ratio (z) = 0.45156 0.45156
#
# Static dielectric constant tensor:
#      x y z
#    x 2.971840 0.000000 0.000000 
#    y 0.000000 2.971840 0.000000 
#    z 0.000000 0.000000 3.376740 
# 
# 
# High freq. dielectric constant tensor:
#      x y z
#    x 1.610880 0.000000 0.000000 
#    y 0.000000 1.610880 0.000000 
#    z 0.000000 0.000000 1.641800 
# 
# From -- ./inp_files/5792.got.cif
#   From: 2010.03.12/outbox.cif.g09.slc.cpg/sg107_3_cif.got.tgz:5792.got - 2010.04.14 01:49:11.
