data_PCOD8307285
_publ_section_title
;
Structure prediction by ZEFSAII (Michael W. Deem and Ramdas Pophale) SiO2 
 PCOD8307285
Probable space group: P 42 M C
;
_chemical_formula_sum "Si O2"
_cell_formula_units_Z 38
_cell_length_a 14.610512
_cell_length_b 14.610512
_cell_length_c 9.757647
_cell_angle_alpha 90.000000
_cell_angle_beta 90.000000
_cell_angle_gamma 90.000000
_cell_volume 2082.936226
_symmetry_space_group_name_H-M "P 42 M C"
_symmetry_group_IT_number 105
_symmetry_cell_setting 'tetragonal'
loop_
_space_group_symop_operation_xyz
x,y,z
-y,x,1/2+z
-x,-y,z
y,-x,1/2+z
-x,y,z
x,-y,z
-y,-x,1/2+z
y,x,1/2+z
loop_
_atom_site_type_symbol
_atom_site_label
_atom_site_fract_x
_atom_site_fract_y
_atom_site_fract_z
Si Si1 0.397041 0.104316 0.424010
Si Si2 0.895684 0.397041 0.510241
Si Si3 0.897179 0.323102 0.217125
Si Si4 0.000000 0.000000 0.467125
Si Si5 0.000000 0.136931 0.717125
Si Si6 0.826124 0.260150 0.717126
O O1 0.500000 0.133192 0.383775
O O2 0.387598 0.112091 0.586469
O O3 0.325554 0.172567 0.350669
O O4 0.378178 0.000000 0.375493
O O5 0.866807 0.500000 0.550475
O O6 0.887910 0.387597 0.347783
O O7 0.827433 0.325555 0.583583
O O8 0.000000 0.378180 0.558760
O O9 0.810864 0.256238 0.217126
O O10 0.000000 0.275243 0.217125
O O11 0.915372 0.000000 0.362622
O O12 0.000000 0.915372 0.571628
O O13 0.912709 0.197598 0.717124
#
# Coordination Sequence:
#
# PCOD8307285 Si02
#       6
#     8   8   8   2   4   8
#     4  10  20  37  56  77 107 146 191 237 285 328
#     4  10  20  37  56  77 107 146 191 237 285 328
#     4  10  23  35  55  79 113 151 184 227 278 336
#     4  10  28  42  52  70 112 174 208 226 252 310
#     4  11  26  38  55  74 112 152 205 234 261 314
#     4  12  22  34  54  83 111 145 187 232 277 330
#
# _framework density 18.243476999999999
#
# number of rings (size 3 to 8) (size 9 to 14) (size 15 to 20)
#    0.000    1.474    2.105    2.526    8.842    4.211 
#    0.000    0.000    0.000    0.000    0.000    0.000 
#    0.000   58.947    0.000    0.000    0.000    0.000 
#
# Total GULP energy -470893.652967 kJ/mol
# GULP energy per Si atom -12391.938236 kJ/mol
# Density = 1.820195 g / cm^3
# Si number density = 18.243477 Si / 1000 Ang^3
#
#
#
# Elastic Constant Matrix: (Units=GPa)
#
#
# Indices 1 2 3 4 5 6 
#
# 1 97.1127 43.4273 28.3172 0.0000 0.0000 0.0000
# 2 43.4273 97.1127 28.3172 0.0000 0.0000 0.0000
# 3 28.3172 28.3172 129.4055 0.0000 0.0000 0.0000
# 4 0.0000 0.0000 0.0000 26.4156 0.0000 0.0000
# 5 0.0000 0.0000 0.0000 0.0000 26.4156 0.0000
# 6 0.0000 0.0000 0.0000 0.0000 0.0000 20.6400
#
#
#
# Elastic Compliance Matrix: (Units=1/GPa)
#
#
# Indices 1 2 3 4 5 6 
#
# 1 0.013215 -0.005412 -0.001708 0.000000 0.000000 0.000000
# 2 -0.005412 0.013215 -0.001708 0.000000 0.000000 0.000000
# 3 -0.001708 -0.001708 0.008475 0.000000 0.000000 0.000000
# 4 0.000000 0.000000 0.000000 0.037856 0.000000 0.000000
# 5 0.000000 0.000000 0.000000 0.000000 0.037856 0.000000
# 6 0.000000 0.000000 0.000000 0.000000 0.000000 0.048450
#
#
# Mechanical properties :
#
#
# Convention : Reuss Voigt Hill
#
# Bulk Modulus (GPa) = 57.96557 58.19491 58.08024
# Shear Modulus (GPa) = 27.40139 29.59885 28.50012
#
# Velocity S-wave (km/s) = 3.87975 4.03232 3.95677
# Velocity P-wave (km/s) = 7.20501 7.32446 7.26498
#
# Compressibility (1/GPa) = 0.01725162
#
# Stress axis : x y z
#
# Youngs Moduli (GPa) = 75.66987 75.66987 117.99437
#
# Poissons Ratio (x) = 0.40951 0.20149
# Poissons Ratio (y) = 0.40951 0.20149
# Poissons Ratio (z) = 0.12921 0.12921
#
# Static dielectric constant tensor:
#      x y z
#    x 3.197150 0.000000 0.000000 
#    y 0.000000 3.197150 0.000000 
#    z 0.000000 0.000000 3.653770 
# 
# 
# High freq. dielectric constant tensor:
#      x y z
#    x 1.685940 0.000000 0.000000 
#    y 0.000000 1.685940 0.000000 
#    z 0.000000 0.000000 1.735300 
# 
# From -- ./inp_files/837.got.cif
#   From: 2010.03.12/outbox.cif.g09.slc.cpg/sg105_1_cif.got.tgz:837.got - 2010.04.14 01:45:32.
