data_PCOD8307860
_publ_section_title
;
Structure prediction by ZEFSAII (Michael W. Deem and Ramdas Pophale) SiO2 
 PCOD8307860
Probable space group: I 41 M D
;
_chemical_formula_sum "Si O2"
_cell_formula_units_Z 112
_cell_length_a 25.653724
_cell_length_b 25.653724
_cell_length_c 10.332865
_cell_angle_alpha 90.000000
_cell_angle_beta 90.000000
_cell_angle_gamma 90.000000
_cell_volume 6800.198519
_symmetry_space_group_name_H-M "I 41 M D"
_symmetry_group_IT_number 109
_symmetry_cell_setting 'tetragonal'
loop_
_space_group_symop_operation_xyz
x,y,z
-y,1/2+x,1/4+z
-x,-y,z
y,1/2-x,1/4+z
-x,y,z
x,-y,z
-y,1/2-x,1/4+z
y,1/2+x,1/4+z
1/2+x,1/2+y,1/2+z
1/2-y,x,3/4+z
1/2-x,1/2-y,1/2+z
1/2+y,-x,3/4+z
1/2-x,1/2+y,1/2+z
1/2+x,1/2-y,1/2+z
1/2-y,-x,3/4+z
1/2+y,x,3/4+z
loop_
_atom_site_type_symbol
_atom_site_label
_atom_site_fract_x
_atom_site_fract_y
_atom_site_fract_z
Si Si1 0.777393 0.560385 0.390510
Si Si2 0.710518 0.440443 0.639975
Si Si3 0.250000 0.789476 0.255169
Si Si4 0.439615 0.777395 0.369833
Si Si5 0.855113 0.855078 0.525876
Si Si6 0.940443 0.789481 0.620370
Si Si7 0.644921 0.355112 0.734464
O O1 0.795616 0.500000 0.396154
O O2 0.736706 0.573089 0.503692
O O3 0.749998 0.573440 0.255173
O O4 0.826997 0.597548 0.410700
O O5 0.693516 0.500000 0.648650
O O6 0.749999 0.425430 0.755175
O O7 0.657602 0.407369 0.653941
O O8 0.247034 0.752965 0.380168
O O9 0.302143 0.822386 0.271975
O O10 0.197857 0.822387 0.238365
O O11 0.500000 0.795618 0.364186
O O12 0.402452 0.826999 0.349636
O O13 0.426911 0.736705 0.256657
O O14 0.907369 0.842397 0.606401
O O15 0.871073 0.871071 0.380170
O O16 0.000000 0.806483 0.611693
#
# Coordination Sequence:
#
# PCOD8307860 Si02
#       7
#    16  16  16  16  16  16  16
#     4  10  22  37  53  76 107 143 184 223 262 316
#     4  10  18  33  53  74 100 137 178 210 256 324
#     4  10  20  30  41  68 103 130 162 200 262 322
#     4  10  22  37  53  76 107 143 184 223 262 316
#     4  11  19  33  51  75 104 135 176 220 259 318
#     4  10  18  33  53  74 100 137 178 210 256 324
#     4  11  19  33  51  75 104 135 176 220 259 318
#
# _framework density 16.470106000000001
#
# number of rings (size 3 to 8) (size 9 to 14) (size 15 to 20)
#    0.000    1.714    4.286    1.714    2.000    1.143 
#    0.000    0.000    0.000    0.857    0.000    2.000 
#    0.000    6.857    0.000    0.000    0.000    0.000 
#
# Total GULP energy -694367.685037 kJ/mol
# GULP energy per Si atom -12399.422947 kJ/mol
# Density = 1.643262 g / cm^3
# Si number density = 16.470106 Si / 1000 Ang^3
#
#
#
# Elastic Constant Matrix: (Units=GPa)
#
#
# Indices 1 2 3 4 5 6 
#
# 1 95.2285 61.2474 48.3846 0.0000 0.0000 0.0000
# 2 61.2474 95.2285 48.3846 0.0000 0.0000 0.0000
# 3 48.3846 48.3846 136.6026 0.0000 0.0000 0.0000
# 4 0.0000 0.0000 0.0000 18.0946 0.0000 0.0000
# 5 0.0000 0.0000 0.0000 0.0000 18.0946 0.0000
# 6 0.0000 0.0000 0.0000 0.0000 0.0000 28.2268
#
#
#
# Elastic Compliance Matrix: (Units=1/GPa)
#
#
# Indices 1 2 3 4 5 6 
#
# 1 0.018806 -0.010622 -0.002899 0.000000 0.000000 0.000000
# 2 -0.010622 0.018806 -0.002899 0.000000 0.000000 0.000000
# 3 -0.002899 -0.002899 0.009374 0.000000 0.000000 0.000000
# 4 0.000000 0.000000 0.000000 0.055265 0.000000 0.000000
# 5 0.000000 0.000000 0.000000 0.000000 0.055265 0.000000
# 6 0.000000 0.000000 0.000000 0.000000 0.000000 0.035427
#
#
# Mechanical properties :
#
#
# Convention : Reuss Voigt Hill
#
# Bulk Modulus (GPa) = 70.68979 71.45476 71.07228
# Shear Modulus (GPa) = 21.69222 24.15271 22.92247
#
# Velocity S-wave (km/s) = 3.63308 3.83359 3.73468
# Velocity P-wave (km/s) = 7.78539 7.94191 7.86404
#
# Compressibility (1/GPa) = 0.01414631
#
# Stress axis : x y z
#
# Youngs Moduli (GPa) = 53.17538 53.17538 106.68014
#
# Poissons Ratio (x) = 0.56485 0.30921
# Poissons Ratio (y) = 0.56485 0.30921
# Poissons Ratio (z) = 0.15413 0.15413
#
# Static dielectric constant tensor:
#      x y z
#    x 3.082870 0.000000 0.000000 
#    y 0.000000 3.082870 0.000000 
#    z 0.000000 0.000000 3.400420 
# 
# 
# High freq. dielectric constant tensor:
#      x y z
#    x 1.617990 0.000000 0.000000 
#    y 0.000000 1.617990 0.000000 
#    z 0.000000 0.000000 1.649250 
# 
# From -- ./inp_files/2148.got.cif
#   From: 2010.03.12/outbox.cif.g09.slc.cpg/sg109_2_cif.got.tgz:2148.got - 2010.04.14 01:55:16.
