data_PCOD8307178
_publ_section_title
;
Structure prediction by ZEFSAII (Michael W. Deem and Ramdas Pophale) SiO2 
 PCOD8307178
Probable space group: P 42 M C
;
_chemical_formula_sum "Si O2"
_cell_formula_units_Z 48
_cell_length_a 9.627982
_cell_length_b 9.627982
_cell_length_c 27.753014
_cell_angle_alpha 90.000000
_cell_angle_beta 90.000000
_cell_angle_gamma 90.000000
_cell_volume 2572.649930
_symmetry_space_group_name_H-M "P 42 M C"
_symmetry_group_IT_number 105
_symmetry_cell_setting 'tetragonal'
loop_
_space_group_symop_operation_xyz
x,y,z
-y,x,1/2+z
-x,-y,z
y,-x,1/2+z
-x,y,z
x,-y,z
-y,-x,1/2+z
y,x,1/2+z
loop_
_atom_site_type_symbol
_atom_site_label
_atom_site_fract_x
_atom_site_fract_y
_atom_site_fract_z
Si Si1 0.663454 0.339009 0.014420
Si Si2 0.341399 0.843913 0.606431
Si Si3 0.665960 0.000000 0.373659
Si Si4 0.500000 0.836628 0.761770
Si Si5 0.000000 0.336759 0.759708
Si Si6 0.838526 0.500000 0.366686
Si Si7 0.832987 0.763960 0.427098
Si Si8 0.839056 0.228577 0.208520
O O1 0.500000 0.305147 0.016260
O O2 0.689046 0.500000 0.999082
O O3 0.728823 0.309465 0.066524
O O4 0.743754 0.231551 0.979952
O O5 0.500000 0.831293 0.624832
O O6 0.237536 0.817951 0.651023
O O7 0.317149 0.000000 0.585735
O O8 0.745137 0.874318 0.398076
O O9 0.500000 0.000000 0.384595
O O10 0.695044 0.000000 0.316637
O O11 0.500000 0.763927 0.814570
O O12 0.629972 0.788263 0.731682
O O13 0.500000 0.000000 0.768000
O O14 0.127191 0.267158 0.733241
O O15 0.000000 0.500000 0.749945
O O16 0.793536 0.629370 0.397581
O O17 0.000000 0.500000 0.357181
O O18 0.000000 0.795214 0.429942
O O19 0.000000 0.191043 0.220415
#
# Coordination Sequence:
#
# PCOD8307178 Si02
#       8
#     8   8   4   4   4   4   8   8
#     4  10  21  37  58  85 118 160 199 240 300 365
#     4   9  18  35  60  90 117 150 200 251 295 348
#     4  11  25  43  61  85 121 163 205 247 302 365
#     4   9  16  30  59  91 113 143 191 241 292 343
#     4  11  25  41  57  85 127 165 199 241 300 367
#     4   9  18  32  55  87 121 149 183 237 294 357
#     4  11  22  39  61  88 120 154 199 251 304 359
#     4  10  19  36  62  88 118 154 198 248 298 354
#
# _framework density 18.657803999999999
#
# number of rings (size 3 to 8) (size 9 to 14) (size 15 to 20)
#    0.000    2.000    1.667    2.000    1.167    3.333 
#    1.500    0.417    0.000    3.000    0.000    0.000 
#    0.000    0.000    0.000    0.000    0.000    0.000 
#
# Total GULP energy -594817.113220 kJ/mol
# GULP energy per Si atom -12392.023192 kJ/mol
# Density = 1.861534 g / cm^3
# Si number density = 18.657804 Si / 1000 Ang^3
#
#
#
# Elastic Constant Matrix: (Units=GPa)
#
#
# Indices 1 2 3 4 5 6 
#
# 1 120.4992 65.4819 64.9345 0.0000 0.0000 0.0000
# 2 65.4819 120.4992 64.9345 0.0000 0.0000 0.0000
# 3 64.9345 64.9345 126.1797 0.0000 0.0000 0.0000
# 4 0.0000 0.0000 0.0000 32.2697 0.0000 0.0000
# 5 0.0000 0.0000 0.0000 0.0000 32.2697 0.0000
# 6 0.0000 0.0000 0.0000 0.0000 0.0000 27.9277
#
#
#
# Elastic Compliance Matrix: (Units=1/GPa)
#
#
# Indices 1 2 3 4 5 6 
#
# 1 0.013285 -0.004892 -0.004319 0.000000 0.000000 0.000000
# 2 -0.004892 0.013285 -0.004319 0.000000 0.000000 0.000000
# 3 -0.004319 -0.004319 0.012371 0.000000 0.000000 0.000000
# 4 0.000000 0.000000 0.000000 0.030989 0.000000 0.000000
# 5 0.000000 0.000000 0.000000 0.000000 0.030989 0.000000
# 6 0.000000 0.000000 0.000000 0.000000 0.000000 0.035807
#
#
# Mechanical properties :
#
#
# Convention : Reuss Voigt Hill
#
# Bulk Modulus (GPa) = 84.17612 84.20891 84.19251
# Shear Modulus (GPa) = 29.80734 29.94855 29.87794
#
# Velocity S-wave (km/s) = 4.00131 4.01078 4.00605
# Velocity P-wave (km/s) = 8.15849 8.16577 8.16213
#
# Compressibility (1/GPa) = 0.01187985
#
# Stress axis : x y z
#
# Youngs Moduli (GPa) = 75.27560 75.27560 80.83644
#
# Poissons Ratio (x) = 0.36822 0.34915
# Poissons Ratio (y) = 0.36822 0.34915
# Poissons Ratio (z) = 0.32513 0.32513
#
# Static dielectric constant tensor:
#      x y z
#    x 5.354170 0.000000 0.000000 
#    y 0.000000 5.354170 0.000000 
#    z 0.000000 0.000000 3.574980 
# 
# 
# High freq. dielectric constant tensor:
#      x y z
#    x 1.719560 0.000000 0.000000 
#    y 0.000000 1.719560 0.000000 
#    z 0.000000 0.000000 1.736370 
# 
# From -- ./inp_files/4927.got.cif
#   From: 2010.03.12/outbox.cif.g09.slc.cpg/sg105_3_cif.got.tgz:4927.got - 2010.04.14 01:45:32.
