data_PCOD8307665
_publ_section_title
;
Structure prediction by ZEFSAII (Michael W. Deem and Ramdas Pophale) SiO2 
 PCOD8307665
Probable space group: I 4 M M
;
_chemical_formula_sum "Si O2"
_cell_formula_units_Z 64
_cell_length_a 19.741868
_cell_length_b 19.741868
_cell_length_c 9.112975
_cell_angle_alpha 90.000000
_cell_angle_beta 90.000000
_cell_angle_gamma 90.000000
_cell_volume 3551.703198
_symmetry_space_group_name_H-M "I 4 M M"
_symmetry_group_IT_number 107
_symmetry_cell_setting 'tetragonal'
loop_
_space_group_symop_operation_xyz
x,y,z
-y,x,z
-x,-y,z
y,-x,z
-x,y,z
x,-y,z
-y,-x,z
y,x,z
1/2+x,1/2+y,1/2+z
1/2-y,1/2+x,1/2+z
1/2-x,1/2-y,1/2+z
1/2+y,1/2-x,1/2+z
1/2-x,1/2+y,1/2+z
1/2+x,1/2-y,1/2+z
1/2-y,1/2-x,1/2+z
1/2+y,1/2+x,1/2+z
loop_
_atom_site_type_symbol
_atom_site_label
_atom_site_fract_x
_atom_site_fract_y
_atom_site_fract_z
Si Si1 0.822376 0.579203 0.258000
Si Si2 0.813310 0.922673 0.598535
Si Si3 0.922673 0.186690 0.257729
Si Si4 0.079203 0.322377 0.098260
O O1 0.833708 0.500000 0.230935
O O2 0.750916 0.602715 0.190847
O O3 0.883316 0.616684 0.178130
O O4 0.822704 0.598372 0.428130
O O5 0.877650 0.877650 0.643095
O O6 0.794898 0.914588 0.428132
O O7 0.832043 0.000000 0.637288
O O8 0.877649 0.122352 0.213168
O O9 0.897285 0.250917 0.165416
O O10 0.000000 0.167957 0.218977
O O11 0.000000 0.333709 0.125324
#
# Coordination Sequence:
#
# PCOD8307665 Si02
#       4
#    16  16  16  16
#     4  10  21  36  54  76 102 133 169 209 253 302
#     4   9  18  33  53  77 105 136 170 209 252 298
#     4   9  18  33  53  77 105 136 170 209 252 298
#     4  10  21  36  54  76 102 133 169 209 253 302
#
# _framework density 18.019524000000001
#
# number of rings (size 3 to 8) (size 9 to 14) (size 15 to 20)
#    0.000    2.500    0.000    1.500    0.000    6.000 
#    0.000    5.000    0.000    0.000    0.000    7.000 
#    0.000    0.000    0.000    0.000    0.000    0.000 
#
# Total GULP energy -396924.988067 kJ/mol
# GULP energy per Si atom -12403.905877 kJ/mol
# Density = 1.797851 g / cm^3
# Si number density = 18.019524 Si / 1000 Ang^3
#
#
#
# Elastic Constant Matrix: (Units=GPa)
#
#
# Indices 1 2 3 4 5 6 
#
# 1 90.8096 66.2457 58.3882 0.0000 0.0000 -0.0012
# 2 66.2457 90.8096 58.3882 0.0000 0.0000 0.0012
# 3 58.3882 58.3882 97.2770 0.0000 0.0000 0.0000
# 4 0.0000 0.0000 0.0000 27.9002 0.0000 0.0000
# 5 0.0000 0.0000 0.0000 0.0000 27.9002 0.0000
# 6 -0.0012 0.0012 0.0000 0.0000 0.0000 34.4805
#
#
#
# Elastic Compliance Matrix: (Units=1/GPa)
#
#
# Indices 1 2 3 4 5 6 
#
# 1 0.026105 -0.014606 -0.006902 0.000000 0.000000 0.000001
# 2 -0.014606 0.026105 -0.006902 0.000000 0.000000 -0.000001
# 3 -0.006902 -0.006902 0.018566 0.000000 0.000000 0.000000
# 4 0.000000 0.000000 0.000000 0.035842 0.000000 0.000000
# 5 0.000000 0.000000 0.000000 0.000000 0.035842 0.000000
# 6 0.000001 -0.000001 0.000000 0.000000 0.000000 0.029002
#
#
# Mechanical properties :
#
#
# Convention : Reuss Voigt Hill
#
# Bulk Modulus (GPa) = 71.65642 71.66005 71.65823
# Shear Modulus (GPa) = 21.46548 24.44778 22.95663
#
# Velocity S-wave (km/s) = 3.45517 3.68739 3.57317
# Velocity P-wave (km/s) = 7.46793 7.61469 7.54166
#
# Compressibility (1/GPa) = 0.01395548
#
# Stress axis : x y z
#
# Youngs Moduli (GPa) = 38.30730 38.30730 53.86322
#
# Poissons Ratio (x) = 0.55950 0.37177
# Poissons Ratio (y) = 0.55950 0.37177
# Poissons Ratio (z) = 0.26440 0.26440
#
# Static dielectric constant tensor:
#      x y z
#    x 3.342420 0.000000 0.000000 
#    y 0.000000 3.342420 0.000000 
#    z 0.000000 0.000000 3.419010 
# 
# 
# High freq. dielectric constant tensor:
#      x y z
#    x 1.697950 0.000000 0.000000 
#    y 0.000000 1.697950 0.000000 
#    z 0.000000 0.000000 1.702840 
# 
# From -- ./inp_files/1171.got.cif
#   From: 2010.03.12/outbox.cif.g09.slc.cpg/sg107_1_cif.got.tgz:1171.got - 2010.04.14 01:49:11.
