data_PCOD8307788
_publ_section_title
;
Structure prediction by ZEFSAII (Michael W. Deem and Ramdas Pophale) SiO2 
 PCOD8307788
Probable space group: I 4 C M
;
_chemical_formula_sum "Si O2"
_cell_formula_units_Z 112
_cell_length_a 14.118325
_cell_length_b 14.118325
_cell_length_c 27.738495
_cell_angle_alpha 90.000000
_cell_angle_beta 90.000000
_cell_angle_gamma 90.000000
_cell_volume 5529.033789
_symmetry_space_group_name_H-M "I 4 C M"
_symmetry_group_IT_number 108
_symmetry_cell_setting 'tetragonal'
loop_
_space_group_symop_operation_xyz
x,y,z
-y,x,z
-x,-y,z
y,-x,z
-x,y,1/2+z
x,-y,1/2+z
-y,-x,1/2+z
y,x,1/2+z
1/2+x,1/2+y,1/2+z
1/2-y,1/2+x,1/2+z
1/2-x,1/2-y,1/2+z
1/2+y,1/2-x,1/2+z
1/2-x,1/2+y,z
1/2+x,1/2-y,z
1/2-y,1/2-x,z
1/2+y,1/2+x,z
loop_
_atom_site_type_symbol
_atom_site_label
_atom_site_fract_x
_atom_site_fract_y
_atom_site_fract_z
Si Si1 0.667533 0.319996 0.004450
Si Si2 0.230241 0.000818 0.062108
Si Si3 0.420378 0.079623 0.210800
Si Si4 0.920768 0.420768 0.102507
Si Si5 0.715459 0.941985 0.748808
Si Si6 0.886176 0.230572 0.400529
Si Si7 0.541445 0.646573 0.664117
Si Si8 0.409033 0.750871 0.354837
O O1 0.770540 0.270540 0.006447
O O2 0.669928 0.421412 0.031818
O O3 0.590477 0.252523 0.029375
O O4 0.630745 0.328351 0.949778
O O5 0.330415 0.043486 0.074564
O O6 0.179457 0.957707 0.109033
O O7 0.390962 0.109039 0.156615
O O8 0.455485 0.169006 0.240968
O O9 0.500000 0.000000 0.206758
O O10 0.000000 0.500000 0.102816
O O11 0.639006 0.860994 0.749705
O O12 0.777848 0.921871 0.702186
O O13 0.766139 0.944925 0.800306
O O14 0.832194 0.332194 0.402239
O O15 0.838007 0.160689 0.361922
O O16 0.997506 0.249294 0.389231
O O17 0.435446 0.615652 0.674284
O O18 0.350148 0.850148 0.362587
#
# Coordination Sequence:
#
# PCOD8307788 Si02
#       8
#    16  16   8   8  16  16  16  16
#     4  11  24  41  64  94 123 166 218 265 322 380
#     4  12  22  40  65  89 128 169 208 263 318 379
#     4   9  18  34  58  87 126 156 197 252 295 360
#     4  11  22  38  60  93 128 169 209 256 313 375
#     4  10  22  40  63  94 123 162 208 253 307 375
#     4  10  23  44  66  93 127 165 213 274 327 379
#     4  11  24  41  58  88 129 166 205 253 309 377
#     4  10  23  43  66  95 128 164 212 266 324 390
#
# _framework density 20.256705
#
# number of rings (size 3 to 8) (size 9 to 14) (size 15 to 20)
#    0.000    1.429    3.571    1.286    3.000    1.429 
#    3.857    1.429    0.000    0.000    0.000    0.000 
#    0.000    0.000    0.000    0.000    0.000    0.000 
#
# Total GULP energy -694080.196746 kJ/mol
# GULP energy per Si atom -12394.289228 kJ/mol
# Density = 2.021060 g / cm^3
# Si number density = 20.256705 Si / 1000 Ang^3
#
#
#
# Elastic Constant Matrix: (Units=GPa)
#
#
# Indices 1 2 3 4 5 6 
#
# 1 63.8294 18.5372 29.3298 0.0000 0.0000 0.0005
# 2 18.5372 63.8294 29.3298 0.0000 0.0000 -0.0005
# 3 29.3298 29.3298 124.7829 0.0000 0.0000 0.0000
# 4 0.0000 0.0000 0.0000 33.0017 0.0000 0.0000
# 5 0.0000 0.0000 0.0000 0.0000 33.0017 0.0000
# 6 0.0005 -0.0005 0.0000 0.0000 0.0000 38.5585
#
#
#
# Elastic Compliance Matrix: (Units=1/GPa)
#
#
# Indices 1 2 3 4 5 6 
#
# 1 0.018330 -0.003749 -0.003427 0.000000 0.000000 0.000000
# 2 -0.003749 0.018330 -0.003427 0.000000 0.000000 0.000000
# 3 -0.003427 -0.003427 0.009625 0.000000 0.000000 0.000000
# 4 0.000000 0.000000 0.000000 0.030301 0.000000 0.000000
# 5 0.000000 0.000000 0.000000 0.000000 0.030301 0.000000
# 6 0.000000 0.000000 0.000000 0.000000 0.000000 0.025935
#
#
# Mechanical properties :
#
#
# Convention : Reuss Voigt Hill
#
# Bulk Modulus (GPa) = 39.87393 45.20392 42.53893
# Shear Modulus (GPa) = 30.79013 32.59536 31.69274
#
# Velocity S-wave (km/s) = 3.90294 4.01573 3.95974
# Velocity P-wave (km/s) = 6.32753 6.62310 6.47700
#
# Compressibility (1/GPa) = 0.02507904
#
# Stress axis : x y z
#
# Youngs Moduli (GPa) = 54.55445 54.55445 103.89498
#
# Poissons Ratio (x) = 0.20450 0.35609
# Poissons Ratio (y) = 0.20450 0.35609
# Poissons Ratio (z) = 0.18698 0.18698
#
# Static dielectric constant tensor:
#      x y z
#    x 2.966010 0.000000 0.000000 
#    y 0.000000 2.966010 0.000000 
#    z 0.000000 0.000000 3.906030 
# 
# 
# High freq. dielectric constant tensor:
#      x y z
#    x 1.788400 0.000000 0.000000 
#    y 0.000000 1.788400 0.000000 
#    z 0.000000 0.000000 1.805030 
# 
# From -- ./inp_files/3417.got.cif
#   From: 2010.03.12/outbox.cif.g09.slc.cpg/sg108_2_cif.got.tgz:3417.got - 2010.04.14 01:53:11.
