data_PCOD8307032
_publ_section_title
;
Structure prediction by ZEFSAII (Michael W. Deem and Ramdas Pophale) SiO2 
 PCOD8307032
Probable space group: P 4 N C 
;
_chemical_formula_sum "Si O2"
_cell_formula_units_Z 48
_cell_length_a 23.948748
_cell_length_b 23.948748
_cell_length_c 5.339354
_cell_angle_alpha 90.000000
_cell_angle_beta 90.000000
_cell_angle_gamma 90.000000
_cell_volume 3062.346606
_symmetry_space_group_name_H-M "P 4 N C "
_symmetry_group_IT_number 104
_symmetry_cell_setting 'tetragonal'
loop_
_space_group_symop_operation_xyz
x,y,z
-y,x,z
-x,-y,z
y,-x,z
1/2-x,1/2+y,1/2+z
1/2+x,1/2-y,1/2+z
1/2-y,1/2-x,1/2+z
1/2+y,1/2+x,1/2+z
loop_
_atom_site_type_symbol
_atom_site_label
_atom_site_fract_x
_atom_site_fract_y
_atom_site_fract_z
Si Si1 0.138463 0.268891 0.431750
Si Si2 0.036272 0.416294 0.932486
Si Si3 0.193511 0.389060 0.431759
Si Si4 0.690087 0.902660 0.432006
Si Si5 0.244753 0.204164 0.418450
Si Si6 0.569340 0.847099 0.432010
O O1 0.176591 0.324287 0.429535
O O2 0.099596 0.269867 0.681029
O O3 0.178318 0.214681 0.433861
O O4 0.099748 0.269641 0.181852
O O5 0.048176 0.451821 0.682477
O O6 0.072549 0.360501 0.932653
O O7 0.971205 0.400451 0.932494
O O8 0.743473 0.861936 0.433986
O O9 0.633145 0.866781 0.430168
O O10 0.690325 0.941106 0.682209
O O11 0.690469 0.941001 0.181366
O O12 0.274285 0.233910 0.651425
#
# Coordination Sequence:
#
# PCOD8307032 Si02
#       6
#     8   8   8   8   8   8
#     4  10  16  25  41  63  80  94 110 140 192 238
#     4  12  21  32  44  57  71 102 133 162 201 244
#     4  10  16  27  38  55  84  94 113 149 180 230
#     4  10  19  35  42  57  76  92 124 174 201 234
#     4  12  16  25  46  62  76  96 112 140 206 243
#     4  10  20  32  46  54  71  97 127 164 213 235
#
# _framework density 15.674253999999999
#
# number of rings (size 3 to 8) (size 9 to 14) (size 15 to 20)
#    0.000    1.333   10.000    1.000    0.000    0.000 
#    0.000   10.000    0.000    0.000    0.000    0.000 
#    0.000    0.000    0.000    0.000    0.000    0.000 
#
# Total GULP energy -594798.166981 kJ/mol
# GULP energy per Si atom -12391.628479 kJ/mol
# Density = 1.563858 g / cm^3
# Si number density = 15.674254 Si / 1000 Ang^3
#
#
#
# Elastic Constant Matrix: (Units=GPa)
#
#
# Indices 1 2 3 4 5 6 
#
# 1 16.1715 15.2381 5.0501 0.0000 0.0000 0.0000
# 2 15.2381 16.1715 5.0501 0.0000 0.0000 0.0000
# 3 5.0501 5.0501 160.0161 0.0000 0.0000 0.0000
# 4 0.0000 0.0000 0.0000 5.0110 0.0000 0.0000
# 5 0.0000 0.0000 0.0000 0.0000 5.0110 0.0000
# 6 0.0000 0.0000 0.0000 0.0000 0.0000 13.1945
#
#
#
# Elastic Compliance Matrix: (Units=1/GPa)
#
#
# Indices 1 2 3 4 5 6 
#
# 1 0.551739 -0.519575 -0.001015 0.000000 0.000000 0.000000
# 2 -0.519575 0.551739 -0.001015 0.000000 0.000000 0.000000
# 3 -0.001015 -0.001015 0.006313 0.000000 0.000000 0.000000
# 4 0.000000 0.000000 0.000000 0.199561 0.000000 0.000000
# 5 0.000000 0.000000 0.000000 0.000000 0.199561 0.000000
# 6 0.000000 0.000000 0.000000 0.000000 0.000000 0.075789
#
#
# Mechanical properties :
#
#
# Convention : Reuss Voigt Hill
#
# Bulk Modulus (GPa) = 15.01935 27.00394 21.01165
# Shear Modulus (GPa) = 1.88672 15.77802 8.83237
#
# Velocity S-wave (km/s) = 1.09832 3.17617 2.37638
# Velocity P-wave (km/s) = 3.34834 5.54223 4.57863
#
# Compressibility (1/GPa) = 0.06658078
#
# Stress axis : x y z
#
# Youngs Moduli (GPa) = 1.81245 1.81245 158.39222
#
# Poissons Ratio (x) = 0.94170 0.16078
# Poissons Ratio (y) = 0.94170 0.16078
# Poissons Ratio (z) = 0.00184 0.00184
#
# Static dielectric constant tensor:
#      x y z
#    x 2.730120 0.000000 0.000000 
#    y 0.000000 2.730120 0.000000 
#    z 0.000000 0.000000 5.330900 
# 
# 
# High freq. dielectric constant tensor:
#      x y z
#    x 1.545370 0.000000 0.000000 
#    y 0.000000 1.545370 0.000000 
#    z 0.000000 0.000000 1.652530 
# 
# From -- ./inp_files/209.got.cif
#   From: 2010.03.12/outbox.cif.g09.slc.cpg/sg104_cif.got.tgz:209.got - 2010.04.14 01:44:05.
