data_PCOD8307123
_publ_section_title
;
Structure prediction by ZEFSAII (Michael W. Deem and Ramdas Pophale) SiO2 
 PCOD8307123
Probable space group: P 42 M C
;
_chemical_formula_sum "Si O2"
_cell_formula_units_Z 32
_cell_length_a 7.388924
_cell_length_b 7.388924
_cell_length_c 27.408682
_cell_angle_alpha 90.000000
_cell_angle_beta 90.000000
_cell_angle_gamma 90.000000
_cell_volume 1496.409826
_symmetry_space_group_name_H-M "P 42 M C"
_symmetry_group_IT_number 105
_symmetry_cell_setting 'tetragonal'
loop_
_space_group_symop_operation_xyz
x,y,z
-y,x,1/2+z
-x,-y,z
y,-x,1/2+z
-x,y,z
x,-y,z
-y,-x,1/2+z
y,x,1/2+z
loop_
_atom_site_type_symbol
_atom_site_label
_atom_site_fract_x
_atom_site_fract_y
_atom_site_fract_z
Si Si1 0.500000 0.804830 0.417771
Si Si2 0.715367 0.000000 0.662743
Si Si3 0.286404 0.297990 0.736458
Si Si4 0.706330 0.500000 0.021849
Si Si5 0.205741 0.709059 0.342263
Si Si6 0.790573 0.000000 0.552777
O O1 0.500000 0.669676 0.463395
O O2 0.323626 0.795526 0.384421
O O3 0.500000 0.000000 0.443580
O O4 0.786234 0.827481 0.693232
O O5 0.810507 0.000000 0.610939
O O6 0.500000 0.000000 0.655009
O O7 0.500000 0.271775 0.740158
O O8 0.228049 0.500000 0.722948
O O9 0.203213 0.245180 0.789218
O O10 0.500000 0.500000 0.044623
O O11 0.817846 0.318815 0.037057
O O12 0.258095 0.500000 0.339970
O O13 0.000000 0.743552 0.356983
O O14 0.000000 0.000000 0.532227
#
# Coordination Sequence:
#
# PCOD8307123 Si02
#       6
#     4   4   8   4   8   4
#     4  12  24  41  63  90 129 179 222 277 345 403
#     4  10  18  35  61  94 129 179 224 273 349 405
#     4   9  16  28  54  88 126 171 221 269 321 401
#     4  11  25  50  77 101 134 181 239 302 359 424
#     4  10  19  34  59  92 128 168 218 271 328 402
#     4  11  25  48  73 105 142 175 233 310 361 418
#
# _framework density 21.384519000000001
#
# number of rings (size 3 to 8) (size 9 to 14) (size 15 to 20)
#    0.000    1.750    5.000    1.125    0.000    3.000 
#    0.000    1.250    0.000    0.000    0.000    0.000 
#    0.000    0.000    0.000    0.000    0.000    0.000 
#
# Total GULP energy -396613.800476 kJ/mol
# GULP energy per Si atom -12394.181265 kJ/mol
# Density = 2.133585 g / cm^3
# Si number density = 21.384519 Si / 1000 Ang^3
#
#
#
# Elastic Constant Matrix: (Units=GPa)
#
#
# Indices 1 2 3 4 5 6 
#
# 1 113.9868 38.8983 29.4153 0.0000 0.0000 0.0000
# 2 38.8983 113.9868 29.4153 0.0000 0.0000 0.0000
# 3 29.4153 29.4153 134.4085 0.0000 0.0000 0.0000
# 4 0.0000 0.0000 0.0000 14.2480 0.0000 0.0000
# 5 0.0000 0.0000 0.0000 0.0000 14.2480 0.0000
# 6 0.0000 0.0000 0.0000 0.0000 0.0000 9.2661
#
#
#
# Elastic Compliance Matrix: (Units=1/GPa)
#
#
# Indices 1 2 3 4 5 6 
#
# 1 0.010230 -0.003088 -0.001563 0.000000 0.000000 0.000000
# 2 -0.003088 0.010230 -0.001563 0.000000 0.000000 0.000000
# 3 -0.001563 -0.001563 0.008124 0.000000 0.000000 0.000000
# 4 0.000000 0.000000 0.000000 0.070185 0.000000 0.000000
# 5 0.000000 0.000000 0.000000 0.000000 0.070185 0.000000
# 6 0.000000 0.000000 0.000000 0.000000 0.000000 0.107920
#
#
# Mechanical properties :
#
#
# Convention : Reuss Voigt Hill
#
# Bulk Modulus (GPa) = 61.89475 61.98221 61.93848
# Shear Modulus (GPa) = 16.96711 25.19597 21.08154
#
# Velocity S-wave (km/s) = 2.81984 3.43627 3.14320
# Velocity P-wave (km/s) = 6.29354 6.69264 6.49615
#
# Compressibility (1/GPa) = 0.01615646
#
# Stress axis : x y z
#
# Youngs Moduli (GPa) = 97.75181 97.75181 123.08945
#
# Poissons Ratio (x) = 0.30182 0.19240
# Poissons Ratio (y) = 0.30182 0.19240
# Poissons Ratio (z) = 0.15280 0.15280
#
# Static dielectric constant tensor:
#      x y z
#    x 3.799330 0.000000 0.000000 
#    y 0.000000 3.799330 0.000000 
#    z 0.000000 0.000000 3.842330 
# 
# 
# High freq. dielectric constant tensor:
#      x y z
#    x 1.833490 0.000000 0.000000 
#    y 0.000000 1.833490 0.000000 
#    z 0.000000 0.000000 1.836310 
# 
# From -- ./inp_files/3886.got.cif
#   From: 2010.03.12/outbox.cif.g09.slc.cpg/sg105_2_cif.got.tgz:3886.got - 2010.04.14 01:45:32.
