data_PCOD8307810
_publ_section_title
;
Structure prediction by ZEFSAII (Michael W. Deem and Ramdas Pophale) SiO2 
 PCOD8307810
Probable space group: I 4 C M
;
_chemical_formula_sum "Si O2"
_cell_formula_units_Z 64
_cell_length_a 17.517920
_cell_length_b 17.517920
_cell_length_c 9.663215
_cell_angle_alpha 90.000000
_cell_angle_beta 90.000000
_cell_angle_gamma 90.000000
_cell_volume 2965.423465
_symmetry_space_group_name_H-M "I 4 C M"
_symmetry_group_IT_number 108
_symmetry_cell_setting 'tetragonal'
loop_
_space_group_symop_operation_xyz
x,y,z
-y,x,z
-x,-y,z
y,-x,z
-x,y,1/2+z
x,-y,1/2+z
-y,-x,1/2+z
y,x,1/2+z
1/2+x,1/2+y,1/2+z
1/2-y,1/2+x,1/2+z
1/2-x,1/2-y,1/2+z
1/2+y,1/2-x,1/2+z
1/2-x,1/2+y,z
1/2+x,1/2-y,z
1/2-y,1/2-x,z
1/2+y,1/2+x,z
loop_
_atom_site_type_symbol
_atom_site_label
_atom_site_fract_x
_atom_site_fract_y
_atom_site_fract_z
Si Si1 0.600829 0.428448 0.787540
Si Si2 0.195708 0.425124 0.969232
Si Si3 0.698808 0.076791 0.650223
Si Si4 0.656365 0.655449 0.537441
O O1 0.605546 0.517579 0.816819
O O2 0.622481 0.413225 0.628886
O O3 0.659197 0.386656 0.889735
O O4 0.111782 0.388218 0.988570
O O5 0.210201 0.447252 0.809551
O O6 0.203323 0.501132 0.058959
O O7 0.255258 0.359869 0.016679
O O8 0.617149 0.117149 0.627313
O O9 0.763463 0.138821 0.611538
#
# Coordination Sequence:
#
# PCOD8307810 Si02
#       4
#    16  16  16  16
#     4  11  22  36  59  92 134 180 227 271 328 398
#     4  11  26  47  71 101 136 178 228 280 339 404
#     4  11  26  47  71 101 136 178 228 280 339 404
#     4  12  23  41  66  96 134 177 224 276 335 400
#
# _framework density 21.582077999999999
#
# number of rings (size 3 to 8) (size 9 to 14) (size 15 to 20)
#    0.000    0.750    2.500    5.250    3.500    3.500 
#    0.000    2.500    0.000    0.000    0.000    0.000 
#    0.000    0.000    0.000    0.000    0.000    0.000 
#
# Total GULP energy -396928.164708 kJ/mol
# GULP energy per Si atom -12404.005147 kJ/mol
# Density = 2.153296 g / cm^3
# Si number density = 21.582078 Si / 1000 Ang^3
#
#
#
# Elastic Constant Matrix: (Units=GPa)
#
#
# Indices 1 2 3 4 5 6 
#
# 1 63.3023 73.6090 56.4507 0.0000 0.0000 -0.0003
# 2 73.6090 63.3023 56.4507 0.0000 0.0000 0.0003
# 3 56.4507 56.4507 131.1711 0.0000 0.0000 0.0000
# 4 0.0000 0.0000 0.0000 30.8763 0.0000 0.0000
# 5 0.0000 0.0000 0.0000 0.0000 30.8763 0.0000
# 6 -0.0003 0.0003 0.0000 0.0000 0.0000 93.7475
#
#
#
# Elastic Compliance Matrix: (Units=1/GPa)
#
#
# Indices 1 2 3 4 5 6 
#
# 1 -0.042851 0.054173 -0.004873 0.000000 0.000000 0.000000
# 2 0.054173 -0.042851 -0.004873 0.000000 0.000000 0.000000
# 3 -0.004873 -0.004873 0.011818 0.000000 0.000000 0.000000
# 4 0.000000 0.000000 0.000000 0.032387 0.000000 0.000000
# 5 0.000000 0.000000 0.000000 0.000000 0.032387 0.000000
# 6 0.000000 0.000000 0.000000 0.000000 0.000000 0.010667
#
#
# Mechanical properties :
#
#
# Convention : Reuss Voigt Hill
#
# Bulk Modulus (GPa) = 66.79388 70.08852 68.44120
# Shear Modulus (GPa) = -60.74743 35.85104 -12.44819
#
# Velocity S-wave (km/s) = -5.31115 4.08014 -2.40424
# Velocity P-wave (km/s) = 2.56809 7.39882 4.90650
#
# Compressibility (1/GPa) = 0.01497143
#
# Stress axis : x y z
#
# Youngs Moduli (GPa) = -23.33673 -23.33673 84.61999
#
# Poissons Ratio (x) = 1.26422 0.41232
# Poissons Ratio (y) = 1.26422 0.41232
# Poissons Ratio (z) = -0.11371 -0.11371
#
# Static dielectric constant tensor:
#      x y z
#    x 3.767010 0.000000 0.000000 
#    y 0.000000 3.767010 0.000000 
#    z 0.000000 0.000000 3.988200 
# 
# 
# High freq. dielectric constant tensor:
#      x y z
#    x 1.843360 0.000000 0.000000 
#    y 0.000000 1.843360 0.000000 
#    z 0.000000 0.000000 1.862370 
# 
# From -- ./inp_files/1263.got.cif
#   From: 2010.03.12/outbox.cif.g09.slc.cpg/sg108_1_cif.got.tgz:1263.got - 2010.04.14 01:53:11.
