data_PCOD8307305
_publ_section_title
;
Structure prediction by ZEFSAII (Michael W. Deem and Ramdas Pophale) SiO2 
 PCOD8307305
Probable space group: P 42 M C
;
_chemical_formula_sum "Si O2"
_cell_formula_units_Z 48
_cell_length_a 9.345990
_cell_length_b 9.345990
_cell_length_c 30.904799
_cell_angle_alpha 90.000000
_cell_angle_beta 90.000000
_cell_angle_gamma 90.000000
_cell_volume 2699.457829
_symmetry_space_group_name_H-M "P 42 M C"
_symmetry_group_IT_number 105
_symmetry_cell_setting 'tetragonal'
loop_
_space_group_symop_operation_xyz
x,y,z
-y,x,1/2+z
-x,-y,z
y,-x,1/2+z
-x,y,z
x,-y,z
-y,-x,1/2+z
y,x,1/2+z
loop_
_atom_site_type_symbol
_atom_site_label
_atom_site_fract_x
_atom_site_fract_y
_atom_site_fract_z
Si Si1 0.329767 0.838196 0.251470
Si Si2 0.666425 0.833568 0.583091
Si Si3 0.667764 0.334538 0.333847
Si Si4 0.330265 0.842032 0.915155
Si Si5 0.333930 0.665967 0.168368
Si Si6 0.169392 0.663129 0.511305
O O1 0.500000 0.835215 0.252258
O O2 0.270789 0.755842 0.293616
O O3 0.275290 0.757473 0.208656
O O4 0.270818 0.000000 0.251432
O O5 0.500000 0.805794 0.574169
O O6 0.715221 0.755457 0.626871
O O7 0.754036 0.770318 0.543513
O O8 0.702056 0.000000 0.587879
O O9 0.500000 0.313473 0.339071
O O10 0.707539 0.500000 0.325829
O O11 0.737461 0.272931 0.377786
O O12 0.500000 0.849956 0.913754
O O13 0.266104 0.000000 0.906858
O O14 0.286338 0.786708 0.962860
O O15 0.500000 0.697815 0.158874
O O16 0.309252 0.500000 0.179508
O O17 0.219973 0.500000 0.519972
O O18 0.000000 0.674301 0.517326
#
# Coordination Sequence:
#
# PCOD8307305 Si02
#       6
#     8   8   8   8   8   8
#     4   9  17  29  46  69  95 121 152 193 237 279
#     4  10  21  35  50  72 102 131 160 198 245 295
#     4   9  16  27  46  71  95 120 152 189 230 277
#     4   8  15  29  48  70  95 122 155 195 234 274
#     4   9  17  31  51  71  91 120 158 197 237 283
#     4   9  18  33  53  75  98 127 165 205 243 287
#
# _framework density 17.781348999999999
#
# number of rings (size 3 to 8) (size 9 to 14) (size 15 to 20)
#    0.000    3.000    0.000    2.000    0.000    4.667 
#    0.000    5.000    0.000    8.500    0.000    0.000 
#    0.000    0.000    0.000    0.000    0.000    0.000 
#
# Total GULP energy -595119.111679 kJ/mol
# GULP energy per Si atom -12398.314827 kJ/mol
# Density = 1.774088 g / cm^3
# Si number density = 17.781349 Si / 1000 Ang^3
#
#
#
# Elastic Constant Matrix: (Units=GPa)
#
#
# Indices 1 2 3 4 5 6 
#
# 1 64.6803 34.7502 69.5242 0.0000 0.0000 0.0000
# 2 34.7502 64.6803 69.5242 0.0000 0.0000 0.0000
# 3 69.5242 69.5242 187.8688 0.0000 0.0000 0.0000
# 4 0.0000 0.0000 0.0000 5.1540 0.0000 0.0000
# 5 0.0000 0.0000 0.0000 0.0000 5.1540 0.0000
# 6 0.0000 0.0000 0.0000 0.0000 0.0000 16.9043
#
#
#
# Elastic Compliance Matrix: (Units=1/GPa)
#
#
# Indices 1 2 3 4 5 6 
#
# 1 0.027128 -0.006283 -0.007714 0.000000 0.000000 0.000000
# 2 -0.006283 0.027128 -0.007714 0.000000 0.000000 0.000000
# 3 -0.007714 -0.007714 0.011032 0.000000 0.000000 0.000000
# 4 0.000000 0.000000 0.000000 0.194023 0.000000 0.000000
# 5 0.000000 0.000000 0.000000 0.000000 0.194023 0.000000
# 6 0.000000 0.000000 0.000000 0.000000 0.000000 0.059157
#
#
# Mechanical properties :
#
#
# Convention : Reuss Voigt Hill
#
# Bulk Modulus (GPa) = 45.73300 73.86961 59.80131
# Shear Modulus (GPa) = 8.87780 15.00453 11.94117
#
# Velocity S-wave (km/s) = 2.23687 2.90804 2.59425
# Velocity P-wave (km/s) = 5.69622 7.27386 6.53284
#
# Compressibility (1/GPa) = 0.02186605
#
# Stress axis : x y z
#
# Youngs Moduli (GPa) = 36.86219 36.86219 90.64290
#
# Poissons Ratio (x) = 0.23161 0.69922
# Poissons Ratio (y) = 0.23161 0.69922
# Poissons Ratio (z) = 0.28436 0.28436
#
# Static dielectric constant tensor:
#      x y z
#    x 3.142020 0.000000 0.000000 
#    y 0.000000 3.142020 0.000000 
#    z 0.000000 0.000000 3.568700 
# 
# 
# High freq. dielectric constant tensor:
#      x y z
#    x 1.664700 0.000000 0.000000 
#    y 0.000000 1.664700 0.000000 
#    z 0.000000 0.000000 1.703250 
# 
# From -- ./inp_files/4706.got.cif
#   From: 2010.03.12/outbox.cif.g09.slc.cpg/sg105_3_cif.got.tgz:4706.got - 2010.04.14 01:45:32.
