data_PCOD8307551
_publ_section_title
;
Structure prediction by ZEFSAII (Michael W. Deem and Ramdas Pophale) SiO2 
 PCOD8307551
Probable space group: I 4 M M
;
_chemical_formula_sum "Si O2"
_cell_formula_units_Z 112
_cell_length_a 13.688074
_cell_length_b 13.688074
_cell_length_c 35.764405
_cell_angle_alpha 90.000000
_cell_angle_beta 90.000000
_cell_angle_gamma 90.000000
_cell_volume 6700.939441
_symmetry_space_group_name_H-M "I 4 M M"
_symmetry_group_IT_number 107
_symmetry_cell_setting 'tetragonal'
loop_
_space_group_symop_operation_xyz
x,y,z
-y,x,z
-x,-y,z
y,-x,z
-x,y,z
x,-y,z
-y,-x,z
y,x,z
1/2+x,1/2+y,1/2+z
1/2-y,1/2+x,1/2+z
1/2-x,1/2-y,1/2+z
1/2+y,1/2-x,1/2+z
1/2-x,1/2+y,1/2+z
1/2+x,1/2-y,1/2+z
1/2-y,1/2-x,1/2+z
1/2+y,1/2+x,1/2+z
loop_
_atom_site_type_symbol
_atom_site_label
_atom_site_fract_x
_atom_site_fract_y
_atom_site_fract_z
Si Si1 0.612599 0.888846 0.275070
Si Si2 0.726495 0.885464 0.139277
Si Si3 0.270822 0.885450 0.491418
Si Si4 0.729179 0.885450 0.348665
Si Si5 0.726496 0.114536 0.700806
Si Si6 0.108921 0.616022 0.920041
Si Si7 0.112599 0.388846 0.065013
O O1 0.500000 0.879076 0.286479
O O2 0.674791 0.856347 0.310661
O O3 0.639507 0.818335 0.241061
O O4 0.636888 0.000000 0.263268
O O5 0.828625 0.828625 0.144098
O O6 0.648488 0.851512 0.170041
O O7 0.681665 0.860494 0.099022
O O8 0.747184 0.000000 0.144225
O O9 0.166193 0.833808 0.490371
O O10 0.335636 0.847116 0.456944
O O11 0.325210 0.856347 0.529422
O O12 0.250977 0.000000 0.488498
O O13 0.833808 0.833808 0.349712
O O14 0.664366 0.847115 0.383139
O O15 0.749023 0.000000 0.351585
O O16 0.828626 0.171375 0.695985
O O17 0.747185 0.000000 0.695858
O O18 0.102926 0.500000 0.920041
O O19 0.000000 0.660789 0.920041
O O20 0.136888 0.500000 0.076815
O O21 0.000000 0.379076 0.053603
#
# Coordination Sequence:
#
# PCOD8307551 Si02
#       7
#    16  16  16  16  16  16  16
#     4   9  17  30  49  71  93 119 154 196 237 273
#     4  10  20  33  50  72  97 125 158 196 238 285
#     4  10  19  30  45  66  94 125 154 185 222 268
#     4  10  19  30  45  66  94 125 154 185 222 268
#     4  10  20  33  50  72  97 125 158 196 238 285
#     4   9  17  30  47  65  85 111 147 191 233 266
#     4   9  17  30  49  71  93 119 154 196 237 273
#
# _framework density 16.714075999999999
#
# number of rings (size 3 to 8) (size 9 to 14) (size 15 to 20)
#    0.000    2.429    0.000    3.000    0.000    5.429 
#    0.000    0.000    0.000    2.571    0.000    4.000 
#    0.000   21.714    0.000    0.000    0.000    0.000 
#
# Total GULP energy -694482.987389 kJ/mol
# GULP energy per Si atom -12401.481918 kJ/mol
# Density = 1.667603 g / cm^3
# Si number density = 16.714076 Si / 1000 Ang^3
#
#
#
# Elastic Constant Matrix: (Units=GPa)
#
#
# Indices 1 2 3 4 5 6 
#
# 1 84.1724 51.6650 55.7094 0.0000 0.0000 0.0003
# 2 51.6650 84.1724 55.7094 0.0000 0.0000 -0.0003
# 3 55.7094 55.7094 122.8160 0.0000 0.0000 0.0000
# 4 0.0000 0.0000 0.0000 21.9532 0.0000 0.0000
# 5 0.0000 0.0000 0.0000 0.0000 21.9532 0.0000
# 6 0.0003 -0.0003 0.0000 0.0000 0.0000 22.5225
#
#
#
# Elastic Compliance Matrix: (Units=1/GPa)
#
#
# Indices 1 2 3 4 5 6 
#
# 1 0.021243 -0.009519 -0.005318 0.000000 0.000000 0.000000
# 2 -0.009519 0.021243 -0.005318 0.000000 0.000000 0.000000
# 3 -0.005318 -0.005318 0.012967 0.000000 0.000000 0.000000
# 4 0.000000 0.000000 0.000000 0.045551 0.000000 0.000000
# 5 0.000000 0.000000 0.000000 0.000000 0.045551 0.000000
# 6 0.000000 0.000000 0.000000 0.000000 0.000000 0.044400
#
#
# Mechanical properties :
#
#
# Convention : Reuss Voigt Hill
#
# Bulk Modulus (GPa) = 66.03928 68.59205 67.31567
# Shear Modulus (GPa) = 21.15838 21.82424 21.49131
#
# Velocity S-wave (km/s) = 3.56181 3.61742 3.58972
# Velocity P-wave (km/s) = 7.51747 7.65345 7.58576
#
# Compressibility (1/GPa) = 0.01514250
#
# Stress axis : x y z
#
# Youngs Moduli (GPa) = 47.07445 47.07445 77.12102
#
# Poissons Ratio (x) = 0.44812 0.41012
# Poissons Ratio (y) = 0.44812 0.41012
# Poissons Ratio (z) = 0.25034 0.25034
#
# Static dielectric constant tensor:
#      x y z
#    x 2.982630 0.000000 0.000000 
#    y 0.000000 2.982630 0.000000 
#    z 0.000000 0.000000 3.293810 
# 
# 
# High freq. dielectric constant tensor:
#      x y z
#    x 1.631400 0.000000 0.000000 
#    y 0.000000 1.631400 0.000000 
#    z 0.000000 0.000000 1.661850 
# 
# From -- ./inp_files/6192.got.cif
#   From: 2010.03.12/outbox.cif.g09.slc.cpg/sg107_4_cif.got.tgz:6192.got - 2010.04.14 01:49:11.
