data_PCOD8307707
_publ_section_title
;
Structure prediction by ZEFSAII (Michael W. Deem and Ramdas Pophale) SiO2 
 PCOD8307707
Probable space group: I 4 C M
;
_chemical_formula_sum "Si O2"
_cell_formula_units_Z 112
_cell_length_a 17.412709
_cell_length_b 17.412709
_cell_length_c 19.790513
_cell_angle_alpha 90.000000
_cell_angle_beta 90.000000
_cell_angle_gamma 90.000000
_cell_volume 6000.531726
_symmetry_space_group_name_H-M "I 4 C M"
_symmetry_group_IT_number 108
_symmetry_cell_setting 'tetragonal'
loop_
_space_group_symop_operation_xyz
x,y,z
-y,x,z
-x,-y,z
y,-x,z
-x,y,1/2+z
x,-y,1/2+z
-y,-x,1/2+z
y,x,1/2+z
1/2+x,1/2+y,1/2+z
1/2-y,1/2+x,1/2+z
1/2-x,1/2-y,1/2+z
1/2+y,1/2-x,1/2+z
1/2-x,1/2+y,z
1/2+x,1/2-y,z
1/2-y,1/2-x,z
1/2+y,1/2+x,z
loop_
_atom_site_type_symbol
_atom_site_label
_atom_site_fract_x
_atom_site_fract_y
_atom_site_fract_z
Si Si1 0.293907 0.080319 0.038920
Si Si2 0.751772 0.373974 0.181584
Si Si3 0.871980 0.871982 0.505720
Si Si4 0.293908 0.080317 0.472520
Si Si5 0.908626 0.919539 0.149813
Si Si6 0.248226 0.626025 0.329857
Si Si7 0.580459 0.591375 0.361628
O O1 0.364247 0.135754 0.023824
O O2 0.279507 0.071074 0.120221
O O3 0.219041 0.114129 0.002397
O O4 0.315854 0.000001 0.005720
O O5 0.789557 0.289557 0.170782
O O6 0.658896 0.365989 0.180000
O O7 0.776306 0.406511 0.255720
O O8 0.780956 0.885872 0.509043
O O9 0.914700 0.908577 0.569141
O O10 0.908575 0.914703 0.442300
O O11 0.364250 0.135751 0.487616
O O12 0.279509 0.071073 0.391219
O O13 0.992693 0.892898 0.174388
O O14 0.210441 0.710441 0.340658
O O15 0.341103 0.634009 0.331441
O O16 0.492691 0.607102 0.337052
#
# Coordination Sequence:
#
# PCOD8307707 Si02
#       7
#    16  16  16  16  16  16  16
#     4  10  20  34  55  81 106 136 175 220 267 311
#     4   9  19  36  54  72 101 142 181 212 250 310
#     4  10  17  31  50  74 104 137 175 210 250 308
#     4  10  20  34  55  81 106 136 175 220 267 311
#     4  10  19  30  48  76 108 137 167 210 262 309
#     4   9  19  36  54  72 101 142 181 212 250 310
#     4  10  19  30  48  76 108 137 167 210 262 309
#
# _framework density 18.665012000000001
#
# number of rings (size 3 to 8) (size 9 to 14) (size 15 to 20)
#    0.000    2.286    0.000    4.714    0.000    3.714 
#    0.000    1.429    0.000    0.857    0.000    4.000 
#    0.000    0.000    0.000    0.000    0.000    0.000 
#
# Total GULP energy -693937.927720 kJ/mol
# GULP energy per Si atom -12391.748709 kJ/mol
# Density = 1.862253 g / cm^3
# Si number density = 18.665012 Si / 1000 Ang^3
#
#
#
# Elastic Constant Matrix: (Units=GPa)
#
#
# Indices 1 2 3 4 5 6 
#
# 1 104.7431 61.1863 32.5607 0.0000 0.0000 0.0007
# 2 61.1863 104.7431 32.5607 0.0000 0.0000 -0.0007
# 3 32.5607 32.5607 97.1988 0.0000 0.0000 0.0000
# 4 0.0000 0.0000 0.0000 13.1281 0.0000 0.0000
# 5 0.0000 0.0000 0.0000 0.0000 13.1281 0.0000
# 6 0.0007 -0.0007 0.0000 0.0000 0.0000 29.2499
#
#
#
# Elastic Compliance Matrix: (Units=1/GPa)
#
#
# Indices 1 2 3 4 5 6 
#
# 1 0.014949 -0.008010 -0.002324 0.000000 0.000000 -0.000001
# 2 -0.008010 0.014949 -0.002324 0.000000 0.000000 0.000001
# 3 -0.002324 -0.002324 0.011846 0.000000 0.000000 0.000000
# 4 0.000000 0.000000 0.000000 0.076172 0.000000 0.000000
# 5 0.000000 0.000000 0.000000 0.000000 0.076172 0.000000
# 6 -0.000001 0.000001 0.000000 0.000000 0.000000 0.034188
#
#
# Mechanical properties :
#
#
# Convention : Reuss Voigt Hill
#
# Bulk Modulus (GPa) = 60.88092 62.14448 61.51270
# Shear Modulus (GPa) = 19.29992 23.12639 21.21316
#
# Velocity S-wave (km/s) = 3.21910 3.52380 3.37489
# Velocity P-wave (km/s) = 6.81948 7.06563 6.94364
#
# Compressibility (1/GPa) = 0.01642551
#
# Stress axis : x y z
#
# Youngs Moduli (GPa) = 66.89531 66.89531 84.41987
#
# Poissons Ratio (x) = 0.53582 0.19623
# Poissons Ratio (y) = 0.53582 0.19623
# Poissons Ratio (z) = 0.15550 0.15550
#
# Static dielectric constant tensor:
#      x y z
#    x 3.375260 0.000000 0.000000 
#    y 0.000000 3.375260 0.000000 
#    z 0.000000 0.000000 3.661420 
# 
# 
# High freq. dielectric constant tensor:
#      x y z
#    x 1.708360 0.000000 0.000000 
#    y 0.000000 1.708360 0.000000 
#    z 0.000000 0.000000 1.734920 
# 
# From -- ./inp_files/3023.got.cif
#   From: 2010.03.12/outbox.cif.g09.slc.cpg/sg108_2_cif.got.tgz:3023.got - 2010.04.14 01:53:11.
