data_PCOD8307260
_publ_section_title
;
Structure prediction by ZEFSAII (Michael W. Deem and Ramdas Pophale) SiO2 
 PCOD8307260
Probable space group: P 42 M C
;
_chemical_formula_sum "Si O2"
_cell_formula_units_Z 48
_cell_length_a 9.433931
_cell_length_b 9.433931
_cell_length_c 27.679422
_cell_angle_alpha 90.000000
_cell_angle_beta 90.000000
_cell_angle_gamma 90.000000
_cell_volume 2463.442376
_symmetry_space_group_name_H-M "P 42 M C"
_symmetry_group_IT_number 105
_symmetry_cell_setting 'tetragonal'
loop_
_space_group_symop_operation_xyz
x,y,z
-y,x,1/2+z
-x,-y,z
y,-x,1/2+z
-x,y,z
x,-y,z
-y,-x,1/2+z
y,x,1/2+z
loop_
_atom_site_type_symbol
_atom_site_label
_atom_site_fract_x
_atom_site_fract_y
_atom_site_fract_z
Si Si1 0.267698 0.336860 0.273430
Si Si2 0.835384 0.668396 0.865059
Si Si3 0.670144 0.745396 0.563674
Si Si4 0.500000 0.160943 0.110426
Si Si5 0.000000 0.171692 0.110808
Si Si6 0.500000 0.841788 0.223423
Si Si7 0.657714 0.333316 0.955984
Si Si8 0.000000 0.656054 0.207177
O O1 0.317816 0.500000 0.282066
O O2 0.252823 0.256164 0.324331
O O3 0.367766 0.248243 0.239226
O O4 0.125806 0.329666 0.244133
O O5 0.820088 0.500000 0.857440
O O6 0.768266 0.720383 0.915728
O O7 0.000000 0.714612 0.863609
O O8 0.500000 0.759616 0.572305
O O9 0.738024 0.626763 0.596362
O O10 0.707342 0.718828 0.507967
O O11 0.761013 0.875686 0.580610
O O12 0.500000 0.138819 0.166889
O O13 0.500000 0.000000 0.087289
O O14 0.000000 0.222798 0.166487
O O15 0.000000 0.000000 0.110168
O O16 0.500000 0.000000 0.247478
O O17 0.500000 0.266078 0.949128
O O18 0.642694 0.500000 0.951818
O O19 0.000000 0.500000 0.181839
#
# Coordination Sequence:
#
# PCOD8307260 Si02
#       8
#     8   8   8   4   4   4   8   4
#     4  11  22  38  62  88 123 160 205 261 315 369
#     4  10  20  34  58  91 125 159 202 258 315 371
#     4  11  22  39  64  90 121 161 213 267 314 382
#     4  11  23  39  61  91 131 165 203 257 322 381
#     4  12  26  42  62  90 126 168 210 260 327 386
#     4  11  23  37  57  89 123 161 205 249 304 375
#     4   9  18  34  58  89 119 153 201 256 313 366
#     4  10  24  44  64  90 122 166 216 260 307 386
#
# _framework density 19.484931
#
# number of rings (size 3 to 8) (size 9 to 14) (size 15 to 20)
#    0.000    1.500    1.667    3.750    1.167    6.000 
#    0.000    0.000    3.667    0.000    0.000    0.000 
#    0.000    0.000    0.000    0.000    0.000    0.000 
#
# Total GULP energy -594769.021844 kJ/mol
# GULP energy per Si atom -12391.021288 kJ/mol
# Density = 1.944058 g / cm^3
# Si number density = 19.484931 Si / 1000 Ang^3
#
#
#
# Elastic Constant Matrix: (Units=GPa)
#
#
# Indices 1 2 3 4 5 6 
#
# 1 146.2583 61.4740 56.7079 0.0000 0.0000 0.0000
# 2 61.4740 146.2583 56.7079 0.0000 0.0000 0.0000
# 3 56.7079 56.7079 125.8741 0.0000 0.0000 0.0000
# 4 0.0000 0.0000 0.0000 49.5854 0.0000 0.0000
# 5 0.0000 0.0000 0.0000 0.0000 49.5854 0.0000
# 6 0.0000 0.0000 0.0000 0.0000 0.0000 13.3773
#
#
#
# Elastic Compliance Matrix: (Units=1/GPa)
#
#
# Indices 1 2 3 4 5 6 
#
# 1 0.009089 -0.002705 -0.002876 0.000000 0.000000 0.000000
# 2 -0.002705 0.009089 -0.002876 0.000000 0.000000 0.000000
# 3 -0.002876 -0.002876 0.010536 0.000000 0.000000 0.000000
# 4 0.000000 0.000000 0.000000 0.020167 0.000000 0.000000
# 5 0.000000 0.000000 0.000000 0.000000 0.020167 0.000000
# 6 0.000000 0.000000 0.000000 0.000000 0.000000 0.074754
#
#
# Mechanical properties :
#
#
# Convention : Reuss Voigt Hill
#
# Bulk Modulus (GPa) = 84.74810 85.35228 85.05019
# Shear Modulus (GPa) = 30.36725 38.74301 34.55513
#
# Velocity S-wave (km/s) = 3.95207 4.46394 4.21578
# Velocity P-wave (km/s) = 8.02581 8.39454 8.21225
#
# Compressibility (1/GPa) = 0.01179967
#
# Stress axis : x y z
#
# Youngs Moduli (GPa) = 110.01809 110.01809 94.91323
#
# Poissons Ratio (x) = 0.29762 0.27299
# Poissons Ratio (y) = 0.29762 0.27299
# Poissons Ratio (z) = 0.31643 0.31643
#
# Static dielectric constant tensor:
#      x y z
#    x 3.509160 0.000000 0.000000 
#    y 0.000000 3.509160 0.000000 
#    z 0.000000 0.000000 3.753900 
# 
# 
# High freq. dielectric constant tensor:
#      x y z
#    x 1.758440 0.000000 0.000000 
#    y 0.000000 1.758440 0.000000 
#    z 0.000000 0.000000 1.772690 
# 
# From -- ./inp_files/4907.got.cif
#   From: 2010.03.12/outbox.cif.g09.slc.cpg/sg105_3_cif.got.tgz:4907.got - 2010.04.14 01:45:32.
