data_PCOD8307160
_publ_section_title
;
Structure prediction by ZEFSAII (Michael W. Deem and Ramdas Pophale) SiO2 
 PCOD8307160
Probable space group: P 42 M C
;
_chemical_formula_sum "Si O2"
_cell_formula_units_Z 56
_cell_length_a 14.664564
_cell_length_b 14.664564
_cell_length_c 14.123727
_cell_angle_alpha 90.000000
_cell_angle_beta 90.000000
_cell_angle_gamma 90.000000
_cell_volume 3037.299544
_symmetry_space_group_name_H-M "P 42 M C"
_symmetry_group_IT_number 105
_symmetry_cell_setting 'tetragonal'
loop_
_space_group_symop_operation_xyz
x,y,z
-y,x,1/2+z
-x,-y,z
y,-x,1/2+z
-x,y,z
x,-y,z
-y,-x,1/2+z
y,x,1/2+z
loop_
_atom_site_type_symbol
_atom_site_label
_atom_site_fract_x
_atom_site_fract_y
_atom_site_fract_z
Si Si1 0.600794 0.100076 0.841770
Si Si2 0.899425 0.676952 0.945611
Si Si3 0.102597 0.395912 0.741843
Si Si4 0.603904 0.602331 0.798234
Si Si5 0.701952 0.742136 0.933329
Si Si6 0.329359 0.277376 0.143572
Si Si7 0.398351 0.156528 0.637933
O O1 0.500000 0.138076 0.868288
O O2 0.677885 0.162081 0.887273
O O3 0.609192 0.090950 0.728284
O O4 0.614466 0.000000 0.885024
O O5 0.889160 0.611773 0.855038
O O6 0.811986 0.744320 0.945680
O O7 0.000000 0.726451 0.941588
O O8 0.898239 0.617306 0.041026
O O9 0.123456 0.500000 0.713511
O O10 0.176322 0.331934 0.689693
O O11 0.000000 0.368053 0.709214
O O12 0.500000 0.640656 0.791967
O O13 0.602289 0.500000 0.837721
O O14 0.667377 0.661178 0.866691
O O15 0.652300 0.601732 0.695105
O O16 0.648871 0.730144 0.032449
O O17 0.230041 0.319993 0.156396
O O18 0.500000 0.200692 0.632684
#
# Coordination Sequence:
#
# PCOD8307160 Si02
#       7
#     8   8   8   8   8   8   8
#     4  10  20  35  57  83 112 147 187 234 286 337
#     4  10  20  34  56  84 111 143 184 233 289 341
#     4  10  20  34  53  78 108 142 185 236 285 333
#     4  11  23  38  55  77 109 149 194 234 269 324
#     4  11  23  38  57  81 113 149 187 232 283 337
#     4  11  22  36  55  77 108 149 187 226 281 338
#     4  10  19  33  55  83 113 143 180 230 285 339
#
# _framework density 18.437432999999999
#
# number of rings (size 3 to 8) (size 9 to 14) (size 15 to 20)
#    0.000    1.571    2.857    2.143    0.000    7.143 
#    0.000    2.857    0.000    0.429    0.000    0.000 
#    0.000    3.429    0.000    0.000    0.000    0.000 
#
# Total GULP energy -693993.200763 kJ/mol
# GULP energy per Si atom -12392.735728 kJ/mol
# Density = 1.839547 g / cm^3
# Si number density = 18.437433 Si / 1000 Ang^3
#
#
#
# Elastic Constant Matrix: (Units=GPa)
#
#
# Indices 1 2 3 4 5 6 
#
# 1 116.5989 52.1257 42.0618 0.0000 0.0000 0.0000
# 2 52.1257 116.5989 42.0618 0.0000 0.0000 0.0000
# 3 42.0618 42.0618 104.1146 0.0000 0.0000 0.0000
# 4 0.0000 0.0000 0.0000 15.6488 0.0000 0.0000
# 5 0.0000 0.0000 0.0000 0.0000 15.6488 0.0000
# 6 0.0000 0.0000 0.0000 0.0000 0.0000 14.5390
#
#
#
# Elastic Compliance Matrix: (Units=1/GPa)
#
#
# Indices 1 2 3 4 5 6 
#
# 1 0.011466 -0.004044 -0.002998 0.000000 0.000000 0.000000
# 2 -0.004044 0.011466 -0.002998 0.000000 0.000000 0.000000
# 3 -0.002998 -0.002998 0.012027 0.000000 0.000000 0.000000
# 4 0.000000 0.000000 0.000000 0.063903 0.000000 0.000000
# 5 0.000000 0.000000 0.000000 0.000000 0.063903 0.000000
# 6 0.000000 0.000000 0.000000 0.000000 0.000000 0.068780
#
#
# Mechanical properties :
#
#
# Convention : Reuss Voigt Hill
#
# Bulk Modulus (GPa) = 67.21546 67.75681 67.48614
# Shear Modulus (GPa) = 19.48660 22.57152 21.02906
#
# Velocity S-wave (km/s) = 3.25453 3.50269 3.38089
# Velocity P-wave (km/s) = 7.11743 7.29300 7.20575
#
# Compressibility (1/GPa) = 0.01487753
#
# Stress axis : x y z
#
# Youngs Moduli (GPa) = 87.21411 87.21411 83.14317
#
# Poissons Ratio (x) = 0.35272 0.24929
# Poissons Ratio (y) = 0.35272 0.24929
# Poissons Ratio (z) = 0.26150 0.26150
#
# Static dielectric constant tensor:
#      x y z
#    x 3.333950 0.000000 0.000000 
#    y 0.000000 3.333950 0.000000 
#    z 0.000000 0.000000 3.621440 
# 
# 
# High freq. dielectric constant tensor:
#      x y z
#    x 1.701040 0.000000 0.000000 
#    y 0.000000 1.701040 0.000000 
#    z 0.000000 0.000000 1.725650 
# 
# From -- ./inp_files/2611.got.cif
#   From: 2010.03.12/outbox.cif.g09.slc.cpg/sg105_2_cif.got.tgz:2611.got - 2010.04.14 01:45:32.
