data_PCOD8307678
_publ_section_title
;
Structure prediction by ZEFSAII (Michael W. Deem and Ramdas Pophale) SiO2 
 PCOD8307678
Probable space group: I 4 M M
;
_chemical_formula_sum "Si O2"
_cell_formula_units_Z 80
_cell_length_a 23.557338
_cell_length_b 23.557338
_cell_length_c 7.771585
_cell_angle_alpha 90.000000
_cell_angle_beta 90.000000
_cell_angle_gamma 90.000000
_cell_volume 4312.826902
_symmetry_space_group_name_H-M "I 4 M M"
_symmetry_group_IT_number 107
_symmetry_cell_setting 'tetragonal'
loop_
_space_group_symop_operation_xyz
x,y,z
-y,x,z
-x,-y,z
y,-x,z
-x,y,z
x,-y,z
-y,-x,z
y,x,z
1/2+x,1/2+y,1/2+z
1/2-y,1/2+x,1/2+z
1/2-x,1/2-y,1/2+z
1/2+y,1/2-x,1/2+z
1/2-x,1/2+y,1/2+z
1/2+x,1/2-y,1/2+z
1/2-y,1/2-x,1/2+z
1/2+y,1/2+x,1/2+z
loop_
_atom_site_type_symbol
_atom_site_label
_atom_site_fract_x
_atom_site_fract_y
_atom_site_fract_z
Si Si1 0.117574 0.117574 0.832448
Si Si2 0.878857 0.291533 0.034693
Si Si3 0.500000 0.331792 0.332442
Si Si4 0.744464 0.000000 0.526802
Si Si5 0.878850 0.708449 0.630187
Si Si6 0.678349 0.321652 0.025252
Si Si7 0.678322 0.321679 0.639676
Si Si8 0.000000 0.255502 0.138118
O O1 0.126314 0.051678 0.832350
O O2 0.142885 0.142885 0.659643
O O3 0.142826 0.142826 0.005425
O O4 0.852605 0.352587 0.082472
O O5 0.836591 0.244603 0.115687
O O6 0.942586 0.291804 0.110585
O O7 0.882836 0.280374 0.832435
O O8 0.500000 0.295690 0.505662
O O9 0.500000 0.295622 0.159366
O O10 0.708166 0.057422 0.554268
O O11 0.768353 0.000000 0.332479
O O12 0.836575 0.755367 0.549157
O O13 0.660661 0.339340 0.832486
#
# Coordination Sequence:
#
# PCOD8307678 Si02
#       8
#     8  16   8   8  16   8   8   8
#     4  12  24  41  64  90 122 164 216 258 308 371
#     4  12  23  39  59  92 127 159 204 256 310 377
#     4  12  24  43  64  88 126 161 218 258 306 376
#     4  12  22  40  63  88 122 169 207 252 316 373
#     4  12  23  39  59  92 127 159 204 256 310 377
#     4  12  21  37  60  90 122 157 199 254 319 374
#     4  12  21  37  60  90 122 157 199 254 319 374
#     4  12  22  40  63  88 122 169 207 252 316 373
#
# _framework density 18.549318
#
# number of rings (size 3 to 8) (size 9 to 14) (size 15 to 20)
#    0.000    0.000    8.000    4.200    0.000    0.200 
#    0.000    0.000    0.000    0.600    0.000    7.000 
#    0.000    0.000    0.000    0.000    0.000    0.000 
#
# Total GULP energy -496015.469414 kJ/mol
# GULP energy per Si atom -12400.386735 kJ/mol
# Density = 1.850710 g / cm^3
# Si number density = 18.549318 Si / 1000 Ang^3
#
#
#
# Elastic Constant Matrix: (Units=GPa)
#
#
# Indices 1 2 3 4 5 6 
#
# 1 119.1886 90.6810 41.3772 0.0000 0.0000 0.0002
# 2 90.6810 119.1886 41.3772 0.0000 0.0000 -0.0002
# 3 41.3772 41.3772 180.1460 0.0000 0.0000 0.0000
# 4 0.0000 0.0000 0.0000 22.9023 0.0000 0.0000
# 5 0.0000 0.0000 0.0000 0.0000 22.9023 0.0000
# 6 0.0002 -0.0002 0.0000 0.0000 0.0000 30.3420
#
#
#
# Elastic Compliance Matrix: (Units=1/GPa)
#
#
# Indices 1 2 3 4 5 6 
#
# 1 0.020159 -0.014920 -0.001203 0.000000 0.000000 0.000000
# 2 -0.014920 0.020159 -0.001203 0.000000 0.000000 0.000000
# 3 -0.001203 -0.001203 0.006104 0.000000 0.000000 0.000000
# 4 0.000000 0.000000 0.000000 0.043664 0.000000 0.000000
# 5 0.000000 0.000000 0.000000 0.000000 0.043664 0.000000
# 6 0.000000 0.000000 0.000000 0.000000 0.000000 0.032958
#
#
# Mechanical properties :
#
#
# Convention : Reuss Voigt Hill
#
# Bulk Modulus (GPa) = 84.96921 85.04379 85.00650
# Shear Modulus (GPa) = 24.35669 31.56851 27.96260
#
# Velocity S-wave (km/s) = 3.62757 4.12985 3.88683
# Velocity P-wave (km/s) = 7.96570 8.28781 8.12835
#
# Compressibility (1/GPa) = 0.01176897
#
# Stress axis : x y z
#
# Youngs Moduli (GPa) = 49.60587 49.60587 163.83047
#
# Poissons Ratio (x) = 0.74010 0.19716
# Poissons Ratio (y) = 0.74010 0.19716
# Poissons Ratio (z) = 0.05970 0.05970
#
# Static dielectric constant tensor:
#      x y z
#    x 3.546690 0.000000 0.000000 
#    y 0.000000 3.546690 0.000000 
#    z 0.000000 0.000000 3.879220 
# 
# 
# High freq. dielectric constant tensor:
#      x y z
#    x 1.708750 0.000000 0.000000 
#    y 0.000000 1.708750 0.000000 
#    z 0.000000 0.000000 1.748780 
# 
# From -- ./inp_files/1465.got.cif
#   From: 2010.03.12/outbox.cif.g09.slc.cpg/sg107_1_cif.got.tgz:1465.got - 2010.04.14 01:49:11.
