data_PCOD8307120
_publ_section_title
;
Structure prediction by ZEFSAII (Michael W. Deem and Ramdas Pophale) SiO2 
 PCOD8307120
Probable space group: P 42 M C
;
_chemical_formula_sum "Si O2"
_cell_formula_units_Z 56
_cell_length_a 14.331652
_cell_length_b 14.331652
_cell_length_c 13.641460
_cell_angle_alpha 90.000000
_cell_angle_beta 90.000000
_cell_angle_gamma 90.000000
_cell_volume 2801.904716
_symmetry_space_group_name_H-M "P 42 M C"
_symmetry_group_IT_number 105
_symmetry_cell_setting 'tetragonal'
loop_
_space_group_symop_operation_xyz
x,y,z
-y,x,1/2+z
-x,-y,z
y,-x,1/2+z
-x,y,z
x,-y,z
-y,-x,1/2+z
y,x,1/2+z
loop_
_atom_site_type_symbol
_atom_site_label
_atom_site_fract_x
_atom_site_fract_y
_atom_site_fract_z
Si Si1 0.609657 0.158243 0.451570
Si Si2 0.221881 0.399298 0.654636
Si Si3 0.335056 0.399599 0.246686
Si Si4 0.737161 0.667503 0.444669
Si Si5 0.604050 0.862379 0.669239
Si Si6 0.894731 0.244474 0.327124
Si Si7 0.263497 0.895351 0.275935
O O1 0.500000 0.163567 0.422700
O O2 0.653212 0.260520 0.458411
O O3 0.622190 0.107034 0.556521
O O4 0.668073 0.102706 0.369725
O O5 0.172767 0.500000 0.668846
O O6 0.313572 0.402629 0.724353
O O7 0.251166 0.391661 0.542158
O O8 0.154316 0.315864 0.685703
O O9 0.385557 0.500000 0.231884
O O10 0.292689 0.398886 0.355792
O O11 0.249569 0.389636 0.170914
O O12 0.837692 0.713623 0.418930
O O13 0.500000 0.895358 0.701681
O O14 0.680855 0.907170 0.739647
O O15 0.835532 0.155162 0.291613
O O16 0.000000 0.214974 0.359279
O O17 0.239810 0.000000 0.244649
#
# Coordination Sequence:
#
# PCOD8307120 Si02
#       7
#     8   8   8   8   8   8   8
#     4  10  18  33  59  85 115 153 194 239 292 348
#     4  12  23  38  60  88 125 167 202 237 292 356
#     4  10  19  35  57  85 120 157 200 244 284 338
#     4  10  20  37  57  88 119 158 194 244 293 349
#     4   9  17  33  60  89 116 145 185 241 296 348
#     4  10  21  40  63  88 116 151 198 253 310 361
#     4  11  24  41  58  83 119 159 203 251 303 360
#
# _framework density 19.986402999999999
#
# number of rings (size 3 to 8) (size 9 to 14) (size 15 to 20)
#    0.000    1.714    5.714    0.857    0.000    3.714 
#    0.000    1.429    0.000    2.571    0.000    4.000 
#    0.000    0.000    0.000    0.000    0.000    0.000 
#
# Total GULP energy -694053.158136 kJ/mol
# GULP energy per Si atom -12393.806395 kJ/mol
# Density = 1.994091 g / cm^3
# Si number density = 19.986403 Si / 1000 Ang^3
#
#
#
# Elastic Constant Matrix: (Units=GPa)
#
#
# Indices 1 2 3 4 5 6 
#
# 1 119.6580 33.3334 20.2556 0.0000 0.0000 0.0000
# 2 33.3334 119.6580 20.2556 0.0000 0.0000 0.0000
# 3 20.2556 20.2556 102.8467 0.0000 0.0000 0.0000
# 4 0.0000 0.0000 0.0000 13.0976 0.0000 0.0000
# 5 0.0000 0.0000 0.0000 0.0000 13.0976 0.0000
# 6 0.0000 0.0000 0.0000 0.0000 0.0000 -0.3972
#
#
#
# Elastic Compliance Matrix: (Units=1/GPa)
#
#
# Indices 1 2 3 4 5 6 
#
# 1 0.009240 -0.002344 -0.001358 0.000000 0.000000 0.000000
# 2 -0.002344 0.009240 -0.001358 0.000000 0.000000 0.000000
# 3 -0.001358 -0.001358 0.010258 0.000000 0.000000 0.000000
# 4 0.000000 0.000000 0.000000 0.076350 0.000000 0.000000
# 5 0.000000 0.000000 0.000000 0.000000 0.076350 0.000000
# 6 0.000000 0.000000 0.000000 0.000000 0.000000 -2.517746
#
#
# Mechanical properties :
#
#
# Convention : Reuss Voigt Hill
#
# Bulk Modulus (GPa) = 53.71301 54.42800 54.07051
# Shear Modulus (GPa) = -2.15519 23.04749 10.44615
#
# Velocity S-wave (km/s) = -1.03955 3.39950 2.28866
# Velocity P-wave (km/s) = 5.04898 6.53456 5.83921
#
# Compressibility (1/GPa) = 0.01861746
#
# Stress axis : x y z
#
# Youngs Moduli (GPa) = 108.22435 108.22435 97.48314
#
# Poissons Ratio (x) = 0.25369 0.13240
# Poissons Ratio (y) = 0.25369 0.13240
# Poissons Ratio (z) = 0.14699 0.14699
#
# Static dielectric constant tensor:
#      x y z
#    x 3.520570 0.000000 0.000000 
#    y 0.000000 3.520570 0.000000 
#    z 0.000000 0.000000 3.666800 
# 
# 
# High freq. dielectric constant tensor:
#      x y z
#    x 1.766890 0.000000 0.000000 
#    y 0.000000 1.766890 0.000000 
#    z 0.000000 0.000000 1.781160 
# 
# From -- ./inp_files/2609.got.cif
#   From: 2010.03.12/outbox.cif.g09.slc.cpg/sg105_2_cif.got.tgz:2609.got - 2010.04.14 01:45:32.
