data_PCOD8307969
_publ_section_title
;
Structure prediction by ZEFSAII (Michael W. Deem and Ramdas Pophale) SiO2 
 PCOD8307969
Probable space group: I 41 M D
;
_chemical_formula_sum "Si O2"
_cell_formula_units_Z 72
_cell_length_a 16.397206
_cell_length_b 16.397206
_cell_length_c 13.977038
_cell_angle_alpha 90.000000
_cell_angle_beta 90.000000
_cell_angle_gamma 90.000000
_cell_volume 3757.983349
_symmetry_space_group_name_H-M "I 41 M D"
_symmetry_group_IT_number 109
_symmetry_cell_setting 'tetragonal'
loop_
_space_group_symop_operation_xyz
x,y,z
-y,1/2+x,1/4+z
-x,-y,z
y,1/2-x,1/4+z
-x,y,z
x,-y,z
-y,1/2-x,1/4+z
y,1/2+x,1/4+z
1/2+x,1/2+y,1/2+z
1/2-y,x,3/4+z
1/2-x,1/2-y,1/2+z
1/2+y,-x,3/4+z
1/2-x,1/2+y,1/2+z
1/2+x,1/2-y,1/2+z
1/2-y,-x,3/4+z
1/2+y,x,3/4+z
loop_
_atom_site_type_symbol
_atom_site_label
_atom_site_fract_x
_atom_site_fract_y
_atom_site_fract_z
Si Si1 0.000000 0.593989 0.586360
Si Si2 0.404780 0.342197 0.712584
Si Si3 0.292765 0.500000 0.019492
Si Si4 0.321919 0.678139 0.516973
Si Si5 0.834850 0.364744 0.056879
Si Si6 0.500000 0.092858 0.452231
O O1 0.921494 0.614910 0.523788
O O2 0.000000 0.649504 0.678751
O O3 0.000000 0.500000 0.618934
O O4 0.500000 0.323156 0.705257
O O5 0.371358 0.357672 0.606173
O O6 0.361700 0.266959 0.764586
O O7 0.236367 0.579236 0.015700
O O8 0.347659 0.500000 0.113009
O O9 0.372806 0.658274 0.421475
O O10 0.310235 0.774483 0.526303
O O11 0.921432 0.390891 0.016256
O O12 0.500000 0.000000 0.415424
#
# Coordination Sequence:
#
# PCOD8307969 Si02
#       6
#     8  16   8  16  16   8
#     4  10  25  47  65  96 133 173 226 263 320 388
#     4  10  24  43  68  96 130 172 214 270 327 385
#     4  12  25  43  66  90 136 178 212 271 317 391
#     4  10  24  41  68  97 130 162 216 276 322 391
#     4  11  24  41  65  95 133 168 216 266 326 389
#     4  12  25  43  63 100 131 171 216 261 330 385
#
# _framework density 19.159212
#
# number of rings (size 3 to 8) (size 9 to 14) (size 15 to 20)
#    0.000    1.333    3.333    0.333   15.556    0.000 
#    0.000    1.111    0.000    0.000    0.000    0.000 
#    0.000    0.000    0.000    0.000    0.000    0.000 
#
# Total GULP energy -446577.141846 kJ/mol
# GULP energy per Si atom -12404.920607 kJ/mol
# Density = 1.911561 g / cm^3
# Si number density = 19.159212 Si / 1000 Ang^3
#
#
#
# Elastic Constant Matrix: (Units=GPa)
#
#
# Indices 1 2 3 4 5 6 
#
# 1 130.5043 73.5769 76.4638 0.0000 0.0000 0.0000
# 2 73.5769 130.5043 76.4638 0.0000 0.0000 0.0000
# 3 76.4638 76.4638 142.0483 0.0000 0.0000 0.0000
# 4 0.0000 0.0000 0.0000 28.0978 0.0000 0.0000
# 5 0.0000 0.0000 0.0000 0.0000 28.0978 0.0000
# 6 0.0000 0.0000 0.0000 0.0000 0.0000 40.5710
#
#
#
# Elastic Compliance Matrix: (Units=1/GPa)
#
#
# Indices 1 2 3 4 5 6 
#
# 1 0.012890 -0.004677 -0.004421 0.000000 0.000000 0.000000
# 2 -0.004677 0.012890 -0.004421 0.000000 0.000000 0.000000
# 3 -0.004421 -0.004421 0.011799 0.000000 0.000000 0.000000
# 4 0.000000 0.000000 0.000000 0.035590 0.000000 0.000000
# 5 0.000000 0.000000 0.000000 0.000000 0.035590 0.000000
# 6 0.000000 0.000000 0.000000 0.000000 0.000000 0.024648
#
#
# Mechanical properties :
#
#
# Convention : Reuss Voigt Hill
#
# Bulk Modulus (GPa) = 94.86461 95.11843 94.99152
# Shear Modulus (GPa) = 30.49575 31.12348 30.80961
#
# Velocity S-wave (km/s) = 3.99394 4.03484 4.01444
# Velocity P-wave (km/s) = 8.41962 8.45344 8.43655
#
# Compressibility (1/GPa) = 0.01054134
#
# Stress axis : x y z
#
# Youngs Moduli (GPa) = 77.58244 77.58244 84.75046
#
# Poissons Ratio (x) = 0.36283 0.37467
# Poissons Ratio (y) = 0.36283 0.37467
# Poissons Ratio (z) = 0.34298 0.34298
#
# Static dielectric constant tensor:
#      x y z
#    x 3.722200 0.000000 0.000000 
#    y 0.000000 3.722200 0.000000 
#    z 0.000000 0.000000 3.688350 
# 
# 
# High freq. dielectric constant tensor:
#      x y z
#    x 1.758840 0.000000 0.000000 
#    y 0.000000 1.758840 0.000000 
#    z 0.000000 0.000000 1.755310 
# 
# From -- ./inp_files/1917.got.cif
#   From: 2010.03.12/outbox.cif.g09.slc.cpg/sg109_1_cif.got.tgz:1917.got - 2010.04.14 01:55:16.
