data_PCOD8307142
_publ_section_title
;
Structure prediction by ZEFSAII (Michael W. Deem and Ramdas Pophale) SiO2 
 PCOD8307142
Probable space group: P 42 M C
;
_chemical_formula_sum "Si O2"
_cell_formula_units_Z 48
_cell_length_a 8.081492
_cell_length_b 8.081492
_cell_length_c 34.130655
_cell_angle_alpha 90.000000
_cell_angle_beta 90.000000
_cell_angle_gamma 90.000000
_cell_volume 2229.090585
_symmetry_space_group_name_H-M "P 42 M C"
_symmetry_group_IT_number 105
_symmetry_cell_setting 'tetragonal'
loop_
_space_group_symop_operation_xyz
x,y,z
-y,x,1/2+z
-x,-y,z
y,-x,1/2+z
-x,y,z
x,-y,z
-y,-x,1/2+z
y,x,1/2+z
loop_
_atom_site_type_symbol
_atom_site_label
_atom_site_fract_x
_atom_site_fract_y
_atom_site_fract_z
Si Si1 0.184629 0.302845 0.537830
Si Si2 0.819838 0.190713 0.878774
Si Si3 0.810962 0.810455 0.204174
Si Si4 0.686906 0.500000 0.251778
Si Si5 0.500000 0.809739 0.836618
Si Si6 0.683022 0.194932 0.121583
Si Si7 0.310903 0.310948 0.956485
O O1 0.184700 0.500000 0.539832
O O2 0.262192 0.243098 0.579912
O O3 0.289466 0.239351 0.500568
O O4 0.000000 0.233174 0.531950
O O5 0.666904 0.274725 0.854769
O O6 0.793075 0.206398 0.925365
O O7 0.000000 0.270545 0.867843
O O8 0.828015 0.000000 0.867184
O O9 0.714637 0.669911 0.227962
O O10 0.799601 0.762335 0.158263
O O11 0.000000 0.803439 0.217414
O O12 0.742211 0.000000 0.211257
O O13 0.500000 0.500000 0.266419
O O14 0.800922 0.500000 0.289906
O O15 0.500000 0.000000 0.849822
O O16 0.500000 0.268707 0.130366
O O17 0.668010 0.000000 0.115729
O O18 0.500000 0.247776 0.955188
O O19 0.296780 0.500000 0.943960
#
# Coordination Sequence:
#
# PCOD8307142 Si02
#       7
#     8   8   8   4   4   8   8
#     4   8  14  26  47  74 107 151 198 240 285 342
#     4  10  21  38  62  88 112 148 194 236 287 349
#     4  10  21  39  63  89 121 161 202 248 304 363
#     4  12  26  42  64  94 124 156 198 246 304 370
#     4  10  22  42  64  88 120 150 188 244 294 358
#     4   8  14  28  51  79 112 151 196 242 290 348
#     4  10  19  31  50  78 115 156 195 237 288 343
#
# _framework density 21.533445
#
# number of rings (size 3 to 8) (size 9 to 14) (size 15 to 20)
#    0.000    2.500    0.833    2.750    0.000    3.333 
#    1.500    2.500    0.000    3.000    0.000    0.000 
#    0.000    0.000    0.000    0.000    0.000    0.000 
#
# Total GULP energy -594696.470538 kJ/mol
# GULP energy per Si atom -12389.509803 kJ/mol
# Density = 2.148443 g / cm^3
# Si number density = 21.533445 Si / 1000 Ang^3
#
#
#
# Elastic Constant Matrix: (Units=GPa)
#
#
# Indices 1 2 3 4 5 6 
#
# 1 77.1487 21.9958 32.1946 0.0000 0.0000 0.0000
# 2 21.9958 77.1487 32.1946 0.0000 0.0000 0.0000
# 3 32.1946 32.1946 135.2617 0.0000 0.0000 0.0000
# 4 0.0000 0.0000 0.0000 22.8201 0.0000 0.0000
# 5 0.0000 0.0000 0.0000 0.0000 22.8201 0.0000
# 6 0.0000 0.0000 0.0000 0.0000 0.0000 13.6624
#
#
#
# Elastic Compliance Matrix: (Units=1/GPa)
#
#
# Indices 1 2 3 4 5 6 
#
# 1 0.015031 -0.003100 -0.002840 0.000000 0.000000 0.000000
# 2 -0.003100 0.015031 -0.002840 0.000000 0.000000 0.000000
# 3 -0.002840 -0.002840 0.008745 0.000000 0.000000 0.000000
# 4 0.000000 0.000000 0.000000 0.043821 0.000000 0.000000
# 5 0.000000 0.000000 0.000000 0.000000 0.043821 0.000000
# 6 0.000000 0.000000 0.000000 0.000000 0.000000 0.073194
#
#
# Mechanical properties :
#
#
# Convention : Reuss Voigt Hill
#
# Bulk Modulus (GPa) = 47.06500 51.36989 49.21744
# Shear Modulus (GPa) = 22.29313 25.40547 23.84930
#
# Velocity S-wave (km/s) = 3.22107 3.43857 3.33159
# Velocity P-wave (km/s) = 5.97811 6.29862 6.14046
#
# Compressibility (1/GPa) = 0.02124721
#
# Stress axis : x y z
#
# Youngs Moduli (GPa) = 66.52938 66.52938 114.35304
#
# Poissons Ratio (x) = 0.20627 0.32472
# Poissons Ratio (y) = 0.20627 0.32472
# Poissons Ratio (z) = 0.18892 0.18892
#
# Static dielectric constant tensor:
#      x y z
#    x 3.725980 0.000000 0.000000 
#    y 0.000000 3.725980 0.000000 
#    z 0.000000 0.000000 3.995900 
# 
# 
# High freq. dielectric constant tensor:
#      x y z
#    x 1.817380 0.000000 0.000000 
#    y 0.000000 1.817380 0.000000 
#    z 0.000000 0.000000 1.850060 
# 
# From -- ./inp_files/4839.got.cif
#   From: 2010.03.12/outbox.cif.g09.slc.cpg/sg105_3_cif.got.tgz:4839.got - 2010.04.14 01:45:32.
