data_PCOD8307187
_publ_section_title
;
Structure prediction by ZEFSAII (Michael W. Deem and Ramdas Pophale) SiO2 
 PCOD8307187
Probable space group: P 42 M C
;
_chemical_formula_sum "Si O2"
_cell_formula_units_Z 56
_cell_length_a 18.329466
_cell_length_b 18.329466
_cell_length_c 11.076368
_cell_angle_alpha 90.000000
_cell_angle_beta 90.000000
_cell_angle_gamma 90.000000
_cell_volume 3721.319868
_symmetry_space_group_name_H-M "P 42 M C"
_symmetry_group_IT_number 105
_symmetry_cell_setting 'tetragonal'
loop_
_space_group_symop_operation_xyz
x,y,z
-y,x,1/2+z
-x,-y,z
y,-x,1/2+z
-x,y,z
x,-y,z
-y,-x,1/2+z
y,x,1/2+z
loop_
_atom_site_type_symbol
_atom_site_label
_atom_site_fract_x
_atom_site_fract_y
_atom_site_fract_z
Si Si1 0.585281 0.080301 0.454330
Si Si2 0.587088 0.168601 0.226464
Si Si3 0.584898 0.216988 0.862558
Si Si4 0.414719 0.080301 0.998597
Si Si5 0.216988 0.415102 0.090370
Si Si6 0.585799 0.334501 0.226464
Si Si7 0.348751 0.651249 0.476464
O O1 0.500000 0.069131 0.433963
O O2 0.617791 0.123987 0.340630
O O3 0.600446 0.130835 0.571221
O O4 0.621803 0.000000 0.469775
O O5 0.500000 0.172411 0.226464
O O6 0.617791 0.123987 0.112297
O O7 0.616783 0.251559 0.226464
O O8 0.500000 0.234107 0.890748
O O9 0.605876 0.237643 0.726464
O O10 0.633984 0.263375 0.955531
O O11 0.600446 0.130835 0.881706
O O12 0.500000 0.069131 0.018965
O O13 0.378197 0.000000 0.983152
O O14 0.234107 0.500000 0.062179
O O15 0.263375 0.366016 0.997396
O O16 0.500000 0.337611 0.226464
O O17 0.612073 0.374541 0.351047
O O18 0.612073 0.374541 0.101881
#
# Coordination Sequence:
#
# PCOD8307187 Si02
#       7
#     8   8   8   8   8   8   8
#     4   9  16  26  42  64  89 113 137 171 214 263
#     4   9  15  26  43  65  88 107 137 174 214 264
#     4  10  20  32  46  64  85 113 148 185 228 274
#     4   9  16  26  42  64  89 113 137 171 214 263
#     4  10  20  32  46  64  85 113 148 185 228 274
#     4  11  22  35  53  71  86 113 151 194 240 282
#     4  12  20  34  52  69  86 114 148 191 234 280
#
# _framework density 15.048424000000001
#
# number of rings (size 3 to 8) (size 9 to 14) (size 15 to 20)
#    0.000    2.000    4.286    1.286    0.000    2.286 
#    0.000    2.857    0.000   10.286    0.000    0.000 
#    0.000    0.000    0.000    0.000    0.000    0.714 
#
# Total GULP energy -693798.088211 kJ/mol
# GULP energy per Si atom -12389.251575 kJ/mol
# Density = 1.501417 g / cm^3
# Si number density = 15.048424 Si / 1000 Ang^3
#
#
#
# Elastic Constant Matrix: (Units=GPa)
#
#
# Indices 1 2 3 4 5 6 
#
# 1 50.0146 26.6112 29.5532 0.0000 0.0000 0.0000
# 2 26.6112 50.0146 29.5532 0.0000 0.0000 0.0000
# 3 29.5532 29.5532 106.6843 0.0000 0.0000 0.0000
# 4 0.0000 0.0000 0.0000 17.9695 0.0000 0.0000
# 5 0.0000 0.0000 0.0000 0.0000 17.9695 0.0000
# 6 0.0000 0.0000 0.0000 0.0000 0.0000 1.5025
#
#
#
# Elastic Compliance Matrix: (Units=1/GPa)
#
#
# Indices 1 2 3 4 5 6 
#
# 1 0.029663 -0.013066 -0.004598 0.000000 0.000000 0.000000
# 2 -0.013066 0.029663 -0.004598 0.000000 0.000000 0.000000
# 3 -0.004598 -0.004598 0.011921 0.000000 0.000000 0.000000
# 4 0.000000 0.000000 0.000000 0.055650 0.000000 0.000000
# 5 0.000000 0.000000 0.000000 0.000000 0.055650 0.000000
# 6 0.000000 0.000000 0.000000 0.000000 0.000000 0.665553
#
#
# Mechanical properties :
#
#
# Convention : Reuss Voigt Hill
#
# Bulk Modulus (GPa) = 37.41952 42.01652 39.71802
# Shear Modulus (GPa) = 5.54613 15.55468 10.55041
#
# Velocity S-wave (km/s) = 1.92185 3.21852 2.65070
# Velocity P-wave (km/s) = 5.46303 6.46477 5.98490
#
# Compressibility (1/GPa) = 0.02672402
#
# Stress axis : x y z
#
# Youngs Moduli (GPa) = 33.71220 33.71220 83.88806
#
# Poissons Ratio (x) = 0.44048 0.38568
# Poissons Ratio (y) = 0.44048 0.38568
# Poissons Ratio (z) = 0.15499 0.15499
#
# Static dielectric constant tensor:
#      x y z
#    x 2.747820 0.000000 0.000000 
#    y 0.000000 2.747820 0.000000 
#    z 0.000000 0.000000 3.158180 
# 
# 
# High freq. dielectric constant tensor:
#      x y z
#    x 1.534840 0.000000 0.000000 
#    y 0.000000 1.534840 0.000000 
#    z 0.000000 0.000000 1.601040 
# 
# From -- ./inp_files/1993.got.cif
#   From: 2010.03.12/outbox.cif.g09.slc.cpg/sg105_1_cif.got.tgz:1993.got - 2010.04.14 01:45:32.
