data_PCOD8307063
_publ_section_title
;
Structure prediction by ZEFSAII (Michael W. Deem and Ramdas Pophale) SiO2 
 PCOD8307063
Probable space group: P 4 N C 
;
_chemical_formula_sum "Si O2"
_cell_formula_units_Z 40
_cell_length_a 8.067927
_cell_length_b 8.067927
_cell_length_c 28.246837
_cell_angle_alpha 90.000000
_cell_angle_beta 90.000000
_cell_angle_gamma 90.000000
_cell_volume 1838.627467
_symmetry_space_group_name_H-M "P 4 N C "
_symmetry_group_IT_number 104
_symmetry_cell_setting 'tetragonal'
loop_
_space_group_symop_operation_xyz
x,y,z
-y,x,z
-x,-y,z
y,-x,z
1/2-x,1/2+y,1/2+z
1/2+x,1/2-y,1/2+z
1/2-y,1/2-x,1/2+z
1/2+y,1/2+x,1/2+z
loop_
_atom_site_type_symbol
_atom_site_label
_atom_site_fract_x
_atom_site_fract_y
_atom_site_fract_z
Si Si1 0.000000 0.500000 0.828620
Si Si2 0.745858 0.903054 0.507010
Si Si3 0.500000 0.000000 0.669739
Si Si4 0.740047 0.916764 0.094265
Si Si5 0.744032 0.906468 0.400537
Si Si6 0.077471 0.264405 0.248906
O O1 0.099505 0.629752 0.862496
O O2 0.126360 0.394867 0.795946
O O3 0.604128 0.846480 0.543255
O O4 0.676731 0.879380 0.453787
O O5 0.906571 0.790607 0.515566
O O6 0.621389 0.891532 0.635973
O O7 0.390921 0.877871 0.702785
O O8 0.893359 0.794093 0.099803
O O9 0.901685 0.791931 0.391881
O O10 0.886856 0.203667 0.248389
#
# Coordination Sequence:
#
# PCOD8307063 Si02
#       6
#     4   8   4   8   8   8
#     4  11  20  31  60  90 112 147 192 243 292 346
#     4   9  19  36  58  86 121 160 201 244 287 338
#     4  11  22  37  62  86 108 145 194 243 292 356
#     4  11  23  38  59  88 121 157 196 240 295 358
#     4   9  19  36  58  85 118 159 202 238 282 344
#     4  10  22  41  62  84 112 148 194 247 306 369
#
# _framework density 21.75536
#
# number of rings (size 3 to 8) (size 9 to 14) (size 15 to 20)
#    0.000    2.000    0.000    4.800    0.000    7.200 
#    0.000    0.000    0.000   45.000    0.000    0.000 
#    0.000    0.000    0.000    0.000    0.000    0.000 
#
# Total GULP energy -495927.488286 kJ/mol
# GULP energy per Si atom -12398.187207 kJ/mol
# Density = 2.170584 g / cm^3
# Si number density = 21.755360 Si / 1000 Ang^3
#
#
#
# Elastic Constant Matrix: (Units=GPa)
#
#
# Indices 1 2 3 4 5 6 
#
# 1 103.0639 32.5255 64.6431 0.0000 0.0000 0.0000
# 2 32.5255 103.0639 64.6431 0.0000 0.0000 0.0000
# 3 64.6431 64.6431 189.0935 0.0000 0.0000 0.0000
# 4 0.0000 0.0000 0.0000 36.4888 0.0000 0.0000
# 5 0.0000 0.0000 0.0000 0.0000 36.4888 0.0000
# 6 0.0000 0.0000 0.0000 0.0000 0.0000 23.8941
#
#
#
# Elastic Compliance Matrix: (Units=1/GPa)
#
#
# Indices 1 2 3 4 5 6 
#
# 1 0.012559 -0.001617 -0.003741 0.000000 0.000000 0.000000
# 2 -0.001617 0.012559 -0.003741 0.000000 0.000000 0.000000
# 3 -0.003741 -0.003741 0.007846 0.000000 0.000000 0.000000
# 4 0.000000 0.000000 0.000000 0.027406 0.000000 0.000000
# 5 0.000000 0.000000 0.000000 0.000000 0.027406 0.000000
# 6 0.000000 0.000000 0.000000 0.000000 0.000000 0.041851
#
#
# Mechanical properties :
#
#
# Convention : Reuss Voigt Hill
#
# Bulk Modulus (GPa) = 67.71683 79.87162 73.79423
# Shear Modulus (GPa) = 32.73394 34.93497 33.83445
#
# Velocity S-wave (km/s) = 3.88317 4.01160 3.94791
# Velocity P-wave (km/s) = 7.16236 7.63220 7.40101
#
# Compressibility (1/GPa) = 0.01476738
#
# Stress axis : x y z
#
# Youngs Moduli (GPa) = 79.62235 79.62235 127.45545
#
# Poissons Ratio (x) = 0.12878 0.47676
# Poissons Ratio (y) = 0.12878 0.47676
# Poissons Ratio (z) = 0.29783 0.29783
#
# Static dielectric constant tensor:
#      x y z
#    x 3.744630 0.000000 0.000000 
#    y 0.000000 3.744630 0.000000 
#    z 0.000000 0.000000 4.241540 
# 
# 
# High freq. dielectric constant tensor:
#      x y z
#    x 1.833900 0.000000 0.000000 
#    y 0.000000 1.833900 0.000000 
#    z 0.000000 0.000000 1.881160 
# 
# From -- ./inp_files/1865.got.cif
#   From: 2010.03.12/outbox.cif.g09.slc.cpg/sg104_cif.got.tgz:1865.got - 2010.04.14 01:44:05.
