data_PCOD8307444
_publ_section_title
;
Structure prediction by ZEFSAII (Michael W. Deem and Ramdas Pophale) SiO2 
 PCOD8307444
Probable space group: P 42 B C
;
_chemical_formula_sum "Si O2"
_cell_formula_units_Z 40
_cell_length_a 13.876737
_cell_length_b 13.876737
_cell_length_c 8.177233
_cell_angle_alpha 90.000000
_cell_angle_beta 90.000000
_cell_angle_gamma 90.000000
_cell_volume 1574.639303
_symmetry_space_group_name_H-M "P 42 B C"
_symmetry_group_IT_number 106
_symmetry_cell_setting 'tetragonal'
loop_
_space_group_symop_operation_xyz
x,y,z
-y,x,1/2+z
-x,-y,z
y,-x,1/2+z
1/2-x,1/2+y,z
1/2+x,1/2-y,z
1/2-y,1/2-x,1/2+z
1/2+y,1/2+x,1/2+z
loop_
_atom_site_type_symbol
_atom_site_label
_atom_site_fract_x
_atom_site_fract_y
_atom_site_fract_z
Si Si1 0.429547 0.192846 0.351310
Si Si2 0.336219 0.522680 0.378893
Si Si3 0.805077 0.576747 0.595187
Si Si4 0.500000 0.000000 0.985193
Si Si5 0.676798 0.744743 0.663730
Si Si6 0.500000 0.500000 0.632583
O O1 0.525196 0.233800 0.262496
O O2 0.401184 0.252382 0.514044
O O3 0.351939 0.208462 0.207203
O O4 0.440510 0.078238 0.381625
O O5 0.240965 0.461288 0.424291
O O6 0.301016 0.629603 0.327829
O O7 0.401347 0.506685 0.536383
O O8 0.400994 0.487428 0.230059
O O9 0.773409 0.687811 0.612297
O O10 0.921170 0.561701 0.589980
#
# Coordination Sequence:
#
# PCOD8307444 Si02
#       6
#     8   8   8   4   8   4
#     4  12  28  53  76 118 162 205 282 339 409 501
#     4  11  23  45  73 115 157 211 264 334 414 489
#     4  12  28  49  84 116 163 220 272 343 417 488
#     4  12  26  56  80 114 164 224 272 340 420 480
#     4  12  27  50  79 119 157 213 272 352 399 506
#     4  10  24  42  74 116 166 206 268 328 422 508
#
# _framework density 25.402646000000001
#
# number of rings (size 3 to 8) (size 9 to 14) (size 15 to 20)
#    0.000    0.400    6.000    0.600    8.400    0.000 
#    0.000    0.000    0.000    0.000    0.000    0.000 
#    0.000    0.000    0.000    0.000    0.000    0.000 
#
# Total GULP energy -495628.479563 kJ/mol
# GULP energy per Si atom -12390.711989 kJ/mol
# Density = 2.534483 g / cm^3
# Si number density = 25.402646 Si / 1000 Ang^3
#
#
#
# Elastic Constant Matrix: (Units=GPa)
#
#
# Indices 1 2 3 4 5 6 
#
# 1 117.1320 45.1862 29.1023 0.0000 0.0000 0.0000
# 2 45.1862 117.1320 29.1023 0.0000 0.0000 0.0000
# 3 29.1023 29.1023 107.2584 0.0000 0.0000 0.0000
# 4 0.0000 0.0000 0.0000 85.2848 0.0000 0.0000
# 5 0.0000 0.0000 0.0000 0.0000 85.2848 0.0000
# 6 0.0000 0.0000 0.0000 0.0000 0.0000 47.2631
#
#
#
# Elastic Compliance Matrix: (Units=1/GPa)
#
#
# Indices 1 2 3 4 5 6 
#
# 1 0.010362 -0.003537 -0.001852 0.000000 0.000000 0.000000
# 2 -0.003537 0.010362 -0.001852 0.000000 0.000000 0.000000
# 3 -0.001852 -0.001852 0.010328 0.000000 0.000000 0.000000
# 4 0.000000 0.000000 0.000000 0.011725 0.000000 0.000000
# 5 0.000000 0.000000 0.000000 0.000000 0.011725 0.000000
# 6 0.000000 0.000000 0.000000 0.000000 0.000000 0.021158
#
#
# Mechanical properties :
#
#
# Convention : Reuss Voigt Hill
#
# Bulk Modulus (GPa) = 60.34770 60.92265 60.63517
# Shear Modulus (GPa) = 52.26494 59.44196 55.85345
#
# Velocity S-wave (km/s) = 4.54084 4.84259 4.69414
# Velocity P-wave (km/s) = 7.16243 7.43656 7.30078
#
# Compressibility (1/GPa) = 0.01657064
#
# Stress axis : x y z
#
# Youngs Moduli (GPa) = 96.50597 96.50597 96.82281
#
# Poissons Ratio (x) = 0.34137 0.17929
# Poissons Ratio (y) = 0.34137 0.17929
# Poissons Ratio (z) = 0.17870 0.17870
#
# Static dielectric constant tensor:
#      x y z
#    x 4.571870 0.000000 0.000000 
#    y 0.000000 4.571870 0.000000 
#    z 0.000000 0.000000 4.692250 
# 
# 
# High freq. dielectric constant tensor:
#      x y z
#    x 2.010100 0.000000 0.000000 
#    y 0.000000 2.010100 0.000000 
#    z 0.000000 0.000000 2.020380 
# 
# From -- ./inp_files/409.got.cif
#   From: 2010.03.12/outbox.cif.g09.slc.cpg/sg106_cif.got.tgz:409.got - 2010.04.14 01:48:02.
