data_PCOD8307843
_publ_section_title
;
Structure prediction by ZEFSAII (Michael W. Deem and Ramdas Pophale) SiO2 
 PCOD8307843
Probable space group: I 41 M D
;
_chemical_formula_sum "Si O2"
_cell_formula_units_Z 96
_cell_length_a 14.251400
_cell_length_b 14.251400
_cell_length_c 27.073410
_cell_angle_alpha 90.000000
_cell_angle_beta 90.000000
_cell_angle_gamma 90.000000
_cell_volume 5498.674600
_symmetry_space_group_name_H-M "I 41 M D"
_symmetry_group_IT_number 109
_symmetry_cell_setting 'tetragonal'
loop_
_space_group_symop_operation_xyz
x,y,z
-y,1/2+x,1/4+z
-x,-y,z
y,1/2-x,1/4+z
-x,y,z
x,-y,z
-y,1/2-x,1/4+z
y,1/2+x,1/4+z
1/2+x,1/2+y,1/2+z
1/2-y,x,3/4+z
1/2-x,1/2-y,1/2+z
1/2+y,-x,3/4+z
1/2-x,1/2+y,1/2+z
1/2+x,1/2-y,1/2+z
1/2-y,-x,3/4+z
1/2+y,x,3/4+z
loop_
_atom_site_type_symbol
_atom_site_label
_atom_site_fract_x
_atom_site_fract_y
_atom_site_fract_z
Si Si1 0.603307 0.388345 0.515480
Si Si2 0.388398 0.790407 0.058286
Si Si3 0.896693 0.611655 0.761959
Si Si4 0.395649 0.610809 0.902955
Si Si5 0.388398 0.709593 0.719152
Si Si6 0.610809 0.604351 0.624484
O O1 0.500000 0.348389 0.500564
O O2 0.597143 0.500000 0.517964
O O3 0.682447 0.354016 0.476921
O O4 0.633950 0.353306 0.570325
O O5 0.500000 0.793866 0.058724
O O6 0.346476 0.828663 0.110146
O O7 0.354016 0.682447 0.050518
O O8 0.355241 0.855241 0.013719
O O9 0.902857 0.500000 0.759475
O O10 0.866050 0.646694 0.707114
O O11 0.000000 0.651611 0.776875
O O12 0.500000 0.653831 0.896325
O O13 0.401724 0.500000 0.896829
O O14 0.500000 0.706134 0.718715
O O15 0.346476 0.671337 0.667293
O O16 0.500000 0.598276 0.630610
O O17 0.653831 0.500000 0.631114
#
# Coordination Sequence:
#
# PCOD8307843 Si02
#       6
#    16  16  16  16  16  16
#     4   8  15  28  42  55  77 110 141 166 194 231
#     4  10  18  25  37  59  83 108 137 164 193 232
#     4   8  15  28  42  55  77 110 141 166 194 231
#     4   8  14  25  39  56  82 111 134 160 194 231
#     4  10  18  25  37  59  83 108 137 164 193 232
#     4   8  14  25  39  56  82 111 134 160 194 231
#
# _framework density 17.458753999999999
#
# number of rings (size 3 to 8) (size 9 to 14) (size 15 to 20)
#    0.000    3.333    0.000    3.000    0.000    3.000 
#    0.000    5.000    0.000    0.000    0.000    4.667 
#    0.000    3.333    0.000    0.000    0.000    0.000 
#
# Total GULP energy -594698.655995 kJ/mol
# GULP energy per Si atom -12389.555333 kJ/mol
# Density = 1.741902 g / cm^3
# Si number density = 17.458754 Si / 1000 Ang^3
#
#
#
# Elastic Constant Matrix: (Units=GPa)
#
#
# Indices 1 2 3 4 5 6 
#
# 1 46.8529 17.3667 32.3347 0.0000 0.0000 0.0000
# 2 17.3667 46.8529 32.3347 0.0000 0.0000 0.0000
# 3 32.3347 32.3347 75.2455 0.0000 0.0000 0.0000
# 4 0.0000 0.0000 0.0000 4.4533 0.0000 0.0000
# 5 0.0000 0.0000 0.0000 0.0000 4.4533 0.0000
# 6 0.0000 0.0000 0.0000 0.0000 0.0000 6.6528
#
#
#
# Elastic Compliance Matrix: (Units=1/GPa)
#
#
# Indices 1 2 3 4 5 6 
#
# 1 0.030682 -0.003232 -0.011796 0.000000 0.000000 0.000000
# 2 -0.003232 0.030682 -0.011796 0.000000 0.000000 0.000000
# 3 -0.011796 -0.011796 0.023428 0.000000 0.000000 0.000000
# 4 0.000000 0.000000 0.000000 0.224554 0.000000 0.000000
# 5 0.000000 0.000000 0.000000 0.000000 0.224554 0.000000
# 6 0.000000 0.000000 0.000000 0.000000 0.000000 0.150313
#
#
# Mechanical properties :
#
#
# Convention : Reuss Voigt Hill
#
# Bulk Modulus (GPa) = 32.10865 37.00264 34.55565
# Shear Modulus (GPa) = 6.68232 8.90620 7.79426
#
# Velocity S-wave (km/s) = 1.95852 2.26105 2.11520
# Velocity P-wave (km/s) = 4.85237 5.29687 5.07948
#
# Compressibility (1/GPa) = 0.03114425
#
# Stress axis : x y z
#
# Youngs Moduli (GPa) = 32.59224 32.59224 42.68430
#
# Poissons Ratio (x) = 0.10534 0.50350
# Poissons Ratio (y) = 0.10534 0.50350
# Poissons Ratio (z) = 0.38446 0.38446
#
# Static dielectric constant tensor:
#      x y z
#    x 3.211360 0.000000 0.000000 
#    y 0.000000 3.211360 0.000000 
#    z 0.000000 0.000000 3.507640 
# 
# 
# High freq. dielectric constant tensor:
#      x y z
#    x 1.645000 0.000000 0.000000 
#    y 0.000000 1.645000 0.000000 
#    z 0.000000 0.000000 1.666370 
# 
# From -- ./inp_files/5678.got.cif
#   From: 2010.03.12/outbox.cif.g09.slc.cpg/sg109_3_cif.got.tgz:5678.got - 2010.04.14 01:55:16.
