data_PCOD8307993
_publ_section_title
;
Structure prediction by ZEFSAII (Michael W. Deem and Ramdas Pophale) SiO2 
 PCOD8307993
Probable space group: I 41 M D
;
_chemical_formula_sum "Si O2"
_cell_formula_units_Z 64
_cell_length_a 9.784127
_cell_length_b 9.784127
_cell_length_c 40.650414
_cell_angle_alpha 90.000000
_cell_angle_beta 90.000000
_cell_angle_gamma 90.000000
_cell_volume 3891.429220
_symmetry_space_group_name_H-M "I 41 M D"
_symmetry_group_IT_number 109
_symmetry_cell_setting 'tetragonal'
loop_
_space_group_symop_operation_xyz
x,y,z
-y,1/2+x,1/4+z
-x,-y,z
y,1/2-x,1/4+z
-x,y,z
x,-y,z
-y,1/2-x,1/4+z
y,1/2+x,1/4+z
1/2+x,1/2+y,1/2+z
1/2-y,x,3/4+z
1/2-x,1/2-y,1/2+z
1/2+y,-x,3/4+z
1/2-x,1/2+y,1/2+z
1/2+x,1/2-y,1/2+z
1/2-y,-x,3/4+z
1/2+y,x,3/4+z
loop_
_atom_site_type_symbol
_atom_site_label
_atom_site_fract_x
_atom_site_fract_y
_atom_site_fract_z
Si Si1 0.338100 0.650678 0.305790
Si Si2 0.339493 0.157538 0.629755
Si Si3 0.660507 0.342461 0.926775
Si Si4 0.849322 0.161900 0.500740
O O1 0.500000 0.643498 0.301849
O O2 0.275956 0.500000 0.299980
O O3 0.302612 0.701992 0.342455
O O4 0.273175 0.750000 0.278265
O O5 0.500000 0.182329 0.635334
O O6 0.254216 0.254216 0.653265
O O7 0.302261 0.000000 0.636991
O O8 0.500000 0.317671 0.921196
O O9 0.697739 0.500000 0.919539
O O10 0.701992 0.302612 0.964075
O O11 0.000000 0.224044 0.506550
O O12 0.856502 0.000000 0.504681
#
# Coordination Sequence:
#
# PCOD8307993 Si02
#       4
#    16  16  16  16
#     4   8  14  25  41  62  88 115 143 179 223 267
#     4   9  18  31  46  67  94 121 151 187 225 267
#     4   9  18  31  46  67  94 121 151 187 225 267
#     4   8  14  25  41  62  88 115 143 179 223 267
#
# _framework density 16.446399
#
# number of rings (size 3 to 8) (size 9 to 14) (size 15 to 20)
#    0.000    3.500    0.000    3.000    0.000    3.000 
#    0.000    5.000    0.000    1.500    0.000    0.000 
#    0.000    0.000    0.000    0.000    0.000    0.000 
#
# Total GULP energy -396574.279507 kJ/mol
# GULP energy per Si atom -12392.946235 kJ/mol
# Density = 1.640897 g / cm^3
# Si number density = 16.446399 Si / 1000 Ang^3
#
#
#
# Elastic Constant Matrix: (Units=GPa)
#
#
# Indices 1 2 3 4 5 6 
#
# 1 60.1134 41.6232 69.0121 0.0000 0.0000 0.0000
# 2 41.6232 60.1134 69.0121 0.0000 0.0000 0.0000
# 3 69.0121 69.0121 153.4633 0.0000 0.0000 0.0000
# 4 0.0000 0.0000 0.0000 22.1400 0.0000 0.0000
# 5 0.0000 0.0000 0.0000 0.0000 22.1400 0.0000
# 6 0.0000 0.0000 0.0000 0.0000 0.0000 23.6864
#
#
#
# Elastic Compliance Matrix: (Units=1/GPa)
#
#
# Indices 1 2 3 4 5 6 
#
# 1 0.039646 -0.014436 -0.011337 0.000000 0.000000 0.000000
# 2 -0.014436 0.039646 -0.011337 0.000000 0.000000 0.000000
# 3 -0.011337 -0.011337 0.016712 0.000000 0.000000 0.000000
# 4 0.000000 0.000000 0.000000 0.045167 0.000000 0.000000
# 5 0.000000 0.000000 0.000000 0.000000 0.045167 0.000000
# 6 0.000000 0.000000 0.000000 0.000000 0.000000 0.042218
#
#
# Mechanical properties :
#
#
# Convention : Reuss Voigt Hill
#
# Bulk Modulus (GPa) = 45.90354 70.33164 58.11759
# Shear Modulus (GPa) = 16.12702 19.86279 17.99490
#
# Velocity S-wave (km/s) = 3.13482 3.47901 3.31139
# Velocity P-wave (km/s) = 6.40893 7.68082 7.07352
#
# Compressibility (1/GPa) = 0.02178481
#
# Stress axis : x y z
#
# Youngs Moduli (GPa) = 25.22314 25.22316 59.83578
#
# Poissons Ratio (x) = 0.36413 0.67834
# Poissons Ratio (y) = 0.36413 0.67834
# Poissons Ratio (z) = 0.28595 0.28595
#
# Static dielectric constant tensor:
#      x y z
#    x 3.000190 0.000000 0.000000 
#    y 0.000000 3.000190 0.000000 
#    z 0.000000 0.000000 3.298960 
# 
# 
# High freq. dielectric constant tensor:
#      x y z
#    x 1.606090 0.000000 0.000000 
#    y 0.000000 1.606090 0.000000 
#    z 0.000000 0.000000 1.644160 
# 
# From -- ./inp_files/4793.got.cif
#   From: 2010.03.12/outbox.cif.g09.slc.cpg/sg109_3_cif.got.tgz:4793.got - 2010.04.14 01:55:16.
