data_PCOD8307294
_publ_section_title
;
Structure prediction by ZEFSAII (Michael W. Deem and Ramdas Pophale) SiO2 
 PCOD8307294
Probable space group: P 42 M C
;
_chemical_formula_sum "Si O2"
_cell_formula_units_Z 24
_cell_length_a 9.371848
_cell_length_b 9.371848
_cell_length_c 14.745083
_cell_angle_alpha 90.000000
_cell_angle_beta 90.000000
_cell_angle_gamma 90.000000
_cell_volume 1295.083273
_symmetry_space_group_name_H-M "P 42 M C"
_symmetry_group_IT_number 105
_symmetry_cell_setting 'tetragonal'
loop_
_space_group_symop_operation_xyz
x,y,z
-y,x,1/2+z
-x,-y,z
y,-x,1/2+z
-x,y,z
x,-y,z
-y,-x,1/2+z
y,x,1/2+z
loop_
_atom_site_type_symbol
_atom_site_label
_atom_site_fract_x
_atom_site_fract_y
_atom_site_fract_z
Si Si1 0.000000 0.500000 0.502511
Si Si2 0.161893 0.724297 0.190722
Si Si3 0.500000 0.500000 0.412730
Si Si4 0.500000 0.339257 0.585653
Si Si5 0.000000 0.660052 0.676842
Si Si6 0.798881 0.500000 0.338752
O O1 0.000000 0.640871 0.566791
O O2 0.140072 0.500000 0.440306
O O3 0.250172 0.638268 0.114935
O O4 0.150122 0.639017 0.284837
O O5 0.000000 0.754797 0.156243
O O6 0.248652 0.866855 0.210462
O O7 0.500000 0.357958 0.476428
O O8 0.629958 0.500000 0.343901
O O9 0.500000 0.500000 0.629755
O O10 0.000000 0.500000 0.721127
#
# Coordination Sequence:
#
# PCOD8307294 Si02
#       6
#     2   8   2   4   4   4
#     4  10  20  42  62  88 114 166 194 258 300 374
#     4  11  21  37  61  87 117 161 199 251 306 375
#     4  10  22  30  62  80 124 144 204 256 300 350
#     4   9  19  36  57  88 109 155 205 253 290 363
#     4  10  23  37  68  82 121 154 219 237 296 373
#     4  11  21  36  61  88 121 152 199 249 314 349
#
# _framework density 18.531628000000001
#
# number of rings (size 3 to 8) (size 9 to 14) (size 15 to 20)
#    1.000    0.667    1.667    5.000    7.000    0.000 
#    0.000    0.000   22.000    0.000    0.000    0.000 
#    0.000    0.000    0.000    0.000    0.000    0.000 
#
# Total GULP energy -297469.276846 kJ/mol
# GULP energy per Si atom -12394.553202 kJ/mol
# Density = 1.848945 g / cm^3
# Si number density = 18.531628 Si / 1000 Ang^3
#
#
#
# Elastic Constant Matrix: (Units=GPa)
#
#
# Indices 1 2 3 4 5 6 
#
# 1 156.3588 53.4640 14.5192 0.0000 0.0000 0.0000
# 2 53.4640 156.3588 14.5192 0.0000 0.0000 0.0000
# 3 14.5192 14.5192 54.0503 0.0000 0.0000 0.0000
# 4 0.0000 0.0000 0.0000 11.9891 0.0000 0.0000
# 5 0.0000 0.0000 0.0000 0.0000 11.9891 0.0000
# 6 0.0000 0.0000 0.0000 0.0000 0.0000 53.0515
#
#
#
# Elastic Compliance Matrix: (Units=1/GPa)
#
#
# Indices 1 2 3 4 5 6 
#
# 1 0.007334 -0.002384 -0.001330 0.000000 0.000000 0.000000
# 2 -0.002384 0.007334 -0.001330 0.000000 0.000000 0.000000
# 3 -0.001330 -0.001330 0.019216 0.000000 0.000000 0.000000
# 4 0.000000 0.000000 0.000000 0.083409 0.000000 0.000000
# 5 0.000000 0.000000 0.000000 0.000000 0.083409 0.000000
# 6 0.000000 0.000000 0.000000 0.000000 0.000000 0.018850
#
#
# Mechanical properties :
#
#
# Convention : Reuss Voigt Hill
#
# Bulk Modulus (GPa) = 42.02239 59.08587 50.55413
# Shear Modulus (GPa) = 21.04623 34.35696 27.70159
#
# Velocity S-wave (km/s) = 3.37366 4.31044 3.87049
# Velocity P-wave (km/s) = 6.15635 7.53168 6.87848
#
# Compressibility (1/GPa) = 0.02379684
#
# Stress axis : x y z
#
# Youngs Moduli (GPa) = 136.34555 136.34555 52.04093
#
# Poissons Ratio (x) = 0.32510 0.06920
# Poissons Ratio (y) = 0.32510 0.06920
# Poissons Ratio (z) = 0.18130 0.18130
#
# Static dielectric constant tensor:
#      x y z
#    x 3.528040 0.000000 0.000000 
#    y 0.000000 3.528040 0.000000 
#    z 0.000000 0.000000 3.076830 
# 
# 
# High freq. dielectric constant tensor:
#      x y z
#    x 1.725390 0.000000 0.000000 
#    y 0.000000 1.725390 0.000000 
#    z 0.000000 0.000000 1.693980 
# 
# From -- ./inp_files/2810.got.cif
#   From: 2010.03.12/outbox.cif.g09.slc.cpg/sg105_2_cif.got.tgz:2810.got - 2010.04.14 01:45:32.
