data_PCOD8307041
_publ_section_title
;
Structure prediction by ZEFSAII (Michael W. Deem and Ramdas Pophale) SiO2 
 PCOD8307041
Probable space group: P 4 N C 
;
_chemical_formula_sum "Si O2"
_cell_formula_units_Z 48
_cell_length_a 14.013162
_cell_length_b 14.013162
_cell_length_c 12.549527
_cell_angle_alpha 90.000000
_cell_angle_beta 90.000000
_cell_angle_gamma 90.000000
_cell_volume 2464.334419
_symmetry_space_group_name_H-M "P 4 N C "
_symmetry_group_IT_number 104
_symmetry_cell_setting 'tetragonal'
loop_
_space_group_symop_operation_xyz
x,y,z
-y,x,z
-x,-y,z
y,-x,z
1/2-x,1/2+y,1/2+z
1/2+x,1/2-y,1/2+z
1/2-y,1/2-x,1/2+z
1/2+y,1/2+x,1/2+z
loop_
_atom_site_type_symbol
_atom_site_label
_atom_site_fract_x
_atom_site_fract_y
_atom_site_fract_z
Si Si1 0.567818 0.226341 0.761300
Si Si2 0.389370 0.020206 0.082871
Si Si3 0.205082 0.608998 0.210642
Si Si4 0.780039 0.862198 0.331854
Si Si5 0.633108 0.412644 0.051693
Si Si6 0.466354 0.893525 0.346958
O O1 0.556489 0.173058 0.648476
O O2 0.642178 0.312290 0.755775
O O3 0.470400 0.273278 0.797146
O O4 0.605700 0.148646 0.847698
O O5 0.365106 0.127915 0.118959
O O6 0.500000 0.000000 0.101255
O O7 0.361810 0.007291 0.960394
O O8 0.194248 0.681587 0.310378
O O9 0.311022 0.613541 0.160772
O O10 0.181365 0.504914 0.259195
O O11 0.809090 0.863377 0.455583
O O12 0.630680 0.527451 0.047300
O O13 0.500000 0.000000 0.314702
#
# Coordination Sequence:
#
# PCOD8307041 Si02
#       6
#     8   8   8   8   8   8
#     4  11  22  38  58  88 122 164 207 267 313 380
#     4  10  20  35  60  88 124 158 203 262 337 371
#     4  11  22  38  62  95 122 160 213 266 310 391
#     4  11  23  39  62  90 123 165 219 254 317 376
#     4  11  25  43  65  92 131 175 208 259 325 389
#     4  11  20  37  61  88 124 161 199 268 331 373
#
# _framework density 19.477875999999998
#
# number of rings (size 3 to 8) (size 9 to 14) (size 15 to 20)
#    0.000    1.167    6.667    1.000    4.667    1.667 
#    0.000    0.000    0.000    0.000    0.000    0.000 
#    0.000    0.000    0.000    0.000    0.000    0.000 
#
# Total GULP energy -595104.359314 kJ/mol
# GULP energy per Si atom -12398.007486 kJ/mol
# Density = 1.943354 g / cm^3
# Si number density = 19.477876 Si / 1000 Ang^3
#
#
#
# Elastic Constant Matrix: (Units=GPa)
#
#
# Indices 1 2 3 4 5 6 
#
# 1 83.7845 48.3602 33.7383 0.0000 0.0000 0.0000
# 2 48.3602 83.7845 33.7383 0.0000 0.0000 0.0000
# 3 33.7383 33.7383 98.9473 0.0000 0.0000 0.0000
# 4 0.0000 0.0000 0.0000 27.6855 0.0000 0.0000
# 5 0.0000 0.0000 0.0000 0.0000 27.6855 0.0000
# 6 0.0000 0.0000 0.0000 0.0000 0.0000 33.6713
#
#
#
# Elastic Compliance Matrix: (Units=1/GPa)
#
#
# Indices 1 2 3 4 5 6 
#
# 1 0.018696 -0.009533 -0.003124 0.000000 0.000000 0.000000
# 2 -0.009533 0.018696 -0.003124 0.000000 0.000000 0.000000
# 3 -0.003124 -0.003124 0.012237 0.000000 0.000000 0.000000
# 4 0.000000 0.000000 0.000000 0.036120 0.000000 0.000000
# 5 0.000000 0.000000 0.000000 0.000000 0.036120 0.000000
# 6 0.000000 0.000000 0.000000 0.000000 0.000000 0.029699
#
#
# Mechanical properties :
#
#
# Convention : Reuss Voigt Hill
#
# Bulk Modulus (GPa) = 55.35411 55.35444 55.35427
# Shear Modulus (GPa) = 26.43364 27.85379 27.14371
#
# Velocity S-wave (km/s) = 3.68790 3.78567 3.73710
# Velocity P-wave (km/s) = 6.82750 6.89849 6.86309
#
# Compressibility (1/GPa) = 0.01806551
#
# Stress axis : x y z
#
# Youngs Moduli (GPa) = 53.48740 53.48740 81.71959
#
# Poissons Ratio (x) = 0.50991 0.25531
# Poissons Ratio (y) = 0.50991 0.25531
# Poissons Ratio (z) = 0.16711 0.16711
#
# Static dielectric constant tensor:
#      x y z
#    x 3.565570 0.000000 0.000000 
#    y 0.000000 3.565570 0.000000 
#    z 0.000000 0.000000 3.603770 
# 
# 
# High freq. dielectric constant tensor:
#      x y z
#    x 1.750970 0.000000 0.000000 
#    y 0.000000 1.750970 0.000000 
#    z 0.000000 0.000000 1.754880 
# 
# From -- ./inp_files/959.got.cif
#   From: 2010.03.12/outbox.cif.g09.slc.cpg/sg104_cif.got.tgz:959.got - 2010.04.14 01:44:05.
