data_PCOD8307978
_publ_section_title
;
Structure prediction by ZEFSAII (Michael W. Deem and Ramdas Pophale) SiO2 
 PCOD8307978
Probable space group: I 41 M D
;
_chemical_formula_sum "Si O2"
_cell_formula_units_Z 64
_cell_length_a 22.547161
_cell_length_b 22.547161
_cell_length_c 5.285114
_cell_angle_alpha 90.000000
_cell_angle_beta 90.000000
_cell_angle_gamma 90.000000
_cell_volume 2686.817024
_symmetry_space_group_name_H-M "I 41 M D"
_symmetry_group_IT_number 109
_symmetry_cell_setting 'tetragonal'
loop_
_space_group_symop_operation_xyz
x,y,z
-y,1/2+x,1/4+z
-x,-y,z
y,1/2-x,1/4+z
-x,y,z
x,-y,z
-y,1/2-x,1/4+z
y,1/2+x,1/4+z
1/2+x,1/2+y,1/2+z
1/2-y,x,3/4+z
1/2-x,1/2-y,1/2+z
1/2+y,-x,3/4+z
1/2-x,1/2+y,1/2+z
1/2+x,1/2-y,1/2+z
1/2-y,-x,3/4+z
1/2+y,x,3/4+z
loop_
_atom_site_type_symbol
_atom_site_label
_atom_site_fract_x
_atom_site_fract_y
_atom_site_fract_z
Si Si1 0.683485 0.431164 0.944330
Si Si2 0.904798 0.800786 0.906884
Si Si3 0.789601 0.173730 0.103575
Si Si4 0.133131 0.564623 0.677106
O O1 0.685869 0.500000 0.873154
O O2 0.705264 0.392758 0.705749
O O3 0.614946 0.414723 0.000635
O O4 0.729163 0.416055 0.177225
O O5 0.940057 0.821053 0.659737
O O6 0.834265 0.815088 0.865666
O O7 0.924857 0.833006 0.163372
O O8 0.814519 0.220920 0.307653
O O9 0.101680 0.500000 0.657608
#
# Coordination Sequence:
#
# PCOD8307978 Si02
#       4
#    16  16  16  16
#     4  11  23  40  65  97 134 174 217 267 323 389
#     4  11  23  43  68  96 129 167 217 275 330 382
#     4  11  22  40  69 101 133 169 214 273 332 385
#     4  11  24  43  66  93 130 174 218 267 323 386
#
# _framework density 23.820007
#
# number of rings (size 3 to 8) (size 9 to 14) (size 15 to 20)
#    0.000    1.000    0.000    8.250    0.000    2.500 
#    0.000   17.500    0.000    6.000    0.000    0.000 
#    0.000    0.000    0.000    0.000    0.000    0.000 
#
# Total GULP energy -396496.334542 kJ/mol
# GULP energy per Si atom -12390.510454 kJ/mol
# Density = 2.376579 g / cm^3
# Si number density = 23.820007 Si / 1000 Ang^3
#
#
#
# Elastic Constant Matrix: (Units=GPa)
#
#
# Indices 1 2 3 4 5 6 
#
# 1 158.2026 55.2662 27.1826 0.0000 0.0000 0.0000
# 2 55.2662 158.2026 27.1826 0.0000 0.0000 0.0000
# 3 27.1826 27.1826 98.8515 0.0000 0.0000 0.0000
# 4 0.0000 0.0000 0.0000 3.9421 0.0000 0.0000
# 5 0.0000 0.0000 0.0000 0.0000 3.9421 0.0000
# 6 0.0000 0.0000 0.0000 0.0000 0.0000 18.6857
#
#
#
# Elastic Compliance Matrix: (Units=1/GPa)
#
#
# Indices 1 2 3 4 5 6 
#
# 1 0.007376 -0.002339 -0.001385 0.000000 0.000000 0.000000
# 2 -0.002339 0.007376 -0.001385 0.000000 0.000000 0.000000
# 3 -0.001385 -0.001385 0.010878 0.000000 0.000000 0.000000
# 4 0.000000 0.000000 0.000000 0.253672 0.000000 0.000000
# 5 0.000000 0.000000 0.000000 0.000000 0.253672 0.000000
# 6 0.000000 0.000000 0.000000 0.000000 0.000000 0.053517
#
#
# Mechanical properties :
#
#
# Convention : Reuss Voigt Hill
#
# Bulk Modulus (GPa) = 64.88500 70.50213 67.69357
# Shear Modulus (GPa) = 8.30776 25.68900 16.99838
#
# Velocity S-wave (km/s) = 1.86957 3.28756 2.67426
# Velocity P-wave (km/s) = 5.65325 6.63874 6.16571
#
# Compressibility (1/GPa) = 0.01541188
#
# Stress axis : x y z
#
# Youngs Moduli (GPa) = 135.57451 135.57451 91.92875
#
# Poissons Ratio (x) = 0.31707 0.12734
# Poissons Ratio (y) = 0.31707 0.12734
# Poissons Ratio (z) = 0.18779 0.18779
#
# Static dielectric constant tensor:
#      x y z
#    x 4.593880 0.000000 0.000000 
#    y 0.000000 4.593880 0.000000 
#    z 0.000000 0.000000 4.012430 
# 
# 
# High freq. dielectric constant tensor:
#      x y z
#    x 1.947120 0.000000 0.000000 
#    y 0.000000 1.947120 0.000000 
#    z 0.000000 0.000000 1.935130 
# 
# From -- ./inp_files/456.got.cif
#   From: 2010.03.12/outbox.cif.g09.slc.cpg/sg109_1_cif.got.tgz:456.got - 2010.04.14 01:55:16.
