data_PCOD8307805
_publ_section_title
;
Structure prediction by ZEFSAII (Michael W. Deem and Ramdas Pophale) SiO2 
 PCOD8307805
Probable space group: I 4 C M
;
_chemical_formula_sum "Si O2"
_cell_formula_units_Z 112
_cell_length_a 13.612415
_cell_length_b 13.612415
_cell_length_c 32.637999
_cell_angle_alpha 90.000000
_cell_angle_beta 90.000000
_cell_angle_gamma 90.000000
_cell_volume 6047.750786
_symmetry_space_group_name_H-M "I 4 C M"
_symmetry_group_IT_number 108
_symmetry_cell_setting 'tetragonal'
loop_
_space_group_symop_operation_xyz
x,y,z
-y,x,z
-x,-y,z
y,-x,z
-x,y,1/2+z
x,-y,1/2+z
-y,-x,1/2+z
y,x,1/2+z
1/2+x,1/2+y,1/2+z
1/2-y,1/2+x,1/2+z
1/2-x,1/2-y,1/2+z
1/2+y,1/2-x,1/2+z
1/2-x,1/2+y,z
1/2+x,1/2-y,z
1/2-y,1/2-x,z
1/2+y,1/2+x,z
loop_
_atom_site_type_symbol
_atom_site_label
_atom_site_fract_x
_atom_site_fract_y
_atom_site_fract_z
Si Si1 0.888913 0.768108 0.494120
Si Si2 0.510923 0.661658 0.614003
Si Si3 0.364480 0.410681 0.409101
Si Si4 0.989077 0.838342 0.704201
Si Si5 0.249613 0.412968 0.782170
Si Si6 0.249611 0.587030 0.536033
Si Si7 0.231896 0.111086 0.824083
O O1 0.835518 0.664483 0.498624
O O2 0.870941 0.808976 0.448838
O O3 0.844425 0.844940 0.527194
O O4 0.003512 0.748802 0.501462
O O5 0.410751 0.602646 0.608498
O O6 0.500000 0.710802 0.659102
O O7 0.530908 0.744479 0.579886
O O8 0.472394 0.365981 0.409099
O O9 0.308968 0.370938 0.369365
O O10 0.969092 0.755523 0.738317
O O11 0.089249 0.897353 0.709706
O O12 0.149766 0.350235 0.784173
O O13 0.248803 0.496486 0.816742
O O14 0.344428 0.344939 0.791009
O O15 0.149762 0.649762 0.534030
O O16 0.335523 0.164478 0.819576
#
# Coordination Sequence:
#
# PCOD8307805 Si02
#       7
#    16  16  16  16  16  16  16
#     4  11  23  39  59  85 120 158 195 244 296 354
#     4   9  17  32  57  86 115 144 189 246 298 343
#     4  11  21  36  62  91 116 148 194 253 306 342
#     4   9  17  32  57  86 115 144 189 246 298 343
#     4  11  22  37  60  87 117 157 201 242 294 356
#     4  11  22  37  60  87 117 157 201 242 294 356
#     4  11  23  39  59  85 120 158 195 244 296 354
#
# _framework density 18.519283000000001
#
# number of rings (size 3 to 8) (size 9 to 14) (size 15 to 20)
#    0.000    1.571    5.714    1.286    0.000    1.143 
#    0.000    5.000    0.000    1.714    0.000    0.000 
#    0.000    0.000    0.000    0.000    0.000    0.000 
#
# Total GULP energy -694194.860488 kJ/mol
# GULP energy per Si atom -12396.336794 kJ/mol
# Density = 1.847713 g / cm^3
# Si number density = 18.519283 Si / 1000 Ang^3
#
#
#
# Elastic Constant Matrix: (Units=GPa)
#
#
# Indices 1 2 3 4 5 6 
#
# 1 76.0011 36.9392 19.5152 0.0000 0.0000 -0.0002
# 2 36.9392 76.0011 19.5152 0.0000 0.0000 0.0002
# 3 19.5152 19.5152 109.2964 0.0000 0.0000 0.0000
# 4 0.0000 0.0000 0.0000 25.2398 0.0000 0.0000
# 5 0.0000 0.0000 0.0000 0.0000 25.2398 0.0000
# 6 -0.0002 0.0002 0.0000 0.0000 0.0000 12.7614
#
#
#
# Elastic Compliance Matrix: (Units=1/GPa)
#
#
# Indices 1 2 3 4 5 6 
#
# 1 0.017518 -0.008082 -0.001685 0.000000 0.000000 0.000000
# 2 -0.008082 0.017518 -0.001685 0.000000 0.000000 0.000000
# 3 -0.001685 -0.001685 0.009751 0.000000 0.000000 0.000000
# 4 0.000000 0.000000 0.000000 0.039620 0.000000 0.000000
# 5 0.000000 0.000000 0.000000 0.000000 0.039620 0.000000
# 6 0.000000 0.000000 0.000000 0.000000 0.000000 0.078361
#
#
# Mechanical properties :
#
#
# Convention : Reuss Voigt Hill
#
# Bulk Modulus (GPa) = 45.69445 45.91529 45.80487
# Shear Modulus (GPa) = 21.49728 25.00348 23.25038
#
# Velocity S-wave (km/s) = 3.41076 3.67840 3.54710
# Velocity P-wave (km/s) = 6.34339 6.54889 6.44695
#
# Compressibility (1/GPa) = 0.02188450
#
# Stress axis : x y z
#
# Youngs Moduli (GPa) = 57.08261 57.08261 102.55228
#
# Poissons Ratio (x) = 0.46134 0.17279
# Poissons Ratio (y) = 0.46134 0.17279
# Poissons Ratio (z) = 0.09618 0.09618
#
# Static dielectric constant tensor:
#      x y z
#    x 3.144650 0.000000 0.000000 
#    y 0.000000 3.144650 0.000000 
#    z 0.000000 0.000000 3.553210 
# 
# 
# High freq. dielectric constant tensor:
#      x y z
#    x 1.697930 0.000000 0.000000 
#    y 0.000000 1.697930 0.000000 
#    z 0.000000 0.000000 1.734130 
# 
# From -- ./inp_files/3537.got.cif
#   From: 2010.03.12/outbox.cif.g09.slc.cpg/sg108_2_cif.got.tgz:3537.got - 2010.04.14 01:53:11.
