data_PCOD8307566
_publ_section_title
;
Structure prediction by ZEFSAII (Michael W. Deem and Ramdas Pophale) SiO2 
 PCOD8307566
Probable space group: I 4 M M
;
_chemical_formula_sum "Si O2"
_cell_formula_units_Z 80
_cell_length_a 12.037855
_cell_length_b 12.037855
_cell_length_c 33.507948
_cell_angle_alpha 90.000000
_cell_angle_beta 90.000000
_cell_angle_gamma 90.000000
_cell_volume 4855.635170
_symmetry_space_group_name_H-M "I 4 M M"
_symmetry_group_IT_number 107
_symmetry_cell_setting 'tetragonal'
loop_
_space_group_symop_operation_xyz
x,y,z
-y,x,z
-x,-y,z
y,-x,z
-x,y,z
x,-y,z
-y,-x,z
y,x,z
1/2+x,1/2+y,1/2+z
1/2-y,1/2+x,1/2+z
1/2-x,1/2-y,1/2+z
1/2+y,1/2-x,1/2+z
1/2-x,1/2+y,1/2+z
1/2+x,1/2-y,1/2+z
1/2-y,1/2-x,1/2+z
1/2+y,1/2+x,1/2+z
loop_
_atom_site_type_symbol
_atom_site_label
_atom_site_fract_x
_atom_site_fract_y
_atom_site_fract_z
Si Si1 0.373323 0.807128 0.577160
Si Si2 0.632569 0.000000 0.934830
Si Si3 0.685019 0.868227 0.284163
Si Si4 0.131157 0.500000 0.222628
Si Si5 0.373324 0.807127 0.991166
Si Si6 0.867431 0.500000 0.133496
Si Si7 0.000000 0.368843 0.845699
O O1 0.500000 0.776750 0.586318
O O2 0.306778 0.693222 0.579167
O O3 0.364447 0.864449 0.534163
O O4 0.324715 0.890998 0.610370
O O5 0.675285 0.890998 0.957956
O O6 0.682719 0.000000 0.890109
O O7 0.500000 0.000000 0.935065
O O8 0.800095 0.800095 0.284163
O O9 0.612063 0.833001 0.245645
O O10 0.612063 0.833001 0.322682
O O11 0.712741 0.000000 0.284163
O O12 0.182719 0.500000 0.178217
O O13 0.000000 0.500000 0.220099
O O14 0.500000 0.776749 0.982008
O O15 0.306779 0.693222 0.989159
O O16 0.000000 0.500000 0.133262
O O17 0.000000 0.500000 0.848228
#
# Coordination Sequence:
#
# PCOD8307566 Si02
#       7
#    16   8  16   8  16   8   8
#     4  10  19  31  48  70  96 126 160 201 248 294
#     4   9  17  30  51  69  92 126 168 207 241 284
#     4   9  17  30  50  74 103 131 162 202 248 293
#     4   8  16  31  48  70  94 130 170 200 234 288
#     4  10  19  31  48  70  96 126 160 201 248 294
#     4   9  17  30  51  69  92 126 168 207 241 284
#     4   8  16  31  48  70  94 130 170 200 234 288
#
# _framework density 16.475701999999998
#
# number of rings (size 3 to 8) (size 9 to 14) (size 15 to 20)
#    0.000    2.800    2.000    1.200    0.000    2.200 
#    0.000    0.000    0.000    5.400    0.000   16.800 
#    0.000    0.000    0.000    0.000    0.000    0.000 
#
# Total GULP energy -495851.168115 kJ/mol
# GULP energy per Si atom -12396.279203 kJ/mol
# Density = 1.643820 g / cm^3
# Si number density = 16.475702 Si / 1000 Ang^3
#
#
#
# Elastic Constant Matrix: (Units=GPa)
#
#
# Indices 1 2 3 4 5 6 
#
# 1 79.1218 45.6486 36.2797 0.0000 0.0000 -0.0004
# 2 45.6486 79.1218 36.2797 0.0000 0.0000 0.0004
# 3 36.2797 36.2797 145.9616 0.0000 0.0000 0.0000
# 4 0.0000 0.0000 0.0000 12.9992 0.0000 0.0000
# 5 0.0000 0.0000 0.0000 0.0000 12.9992 0.0000
# 6 -0.0004 0.0004 0.0000 0.0000 0.0000 10.8978
#
#
#
# Elastic Compliance Matrix: (Units=1/GPa)
#
#
# Indices 1 2 3 4 5 6 
#
# 1 0.019622 -0.010253 -0.002329 0.000000 0.000000 0.000001
# 2 -0.010253 0.019622 -0.002329 0.000000 0.000000 -0.000001
# 3 -0.002329 -0.002329 0.008009 0.000000 0.000000 0.000000
# 4 0.000000 0.000000 0.000000 0.076928 0.000000 0.000000
# 5 0.000000 0.000000 0.000000 0.000000 0.076928 0.000000
# 6 0.000001 -0.000001 0.000000 0.000000 0.000000 0.091762
#
#
# Mechanical properties :
#
#
# Convention : Reuss Voigt Hill
#
# Bulk Modulus (GPa) = 57.36635 60.06903 58.71769
# Shear Modulus (GPa) = 15.22067 19.77906 17.49986
#
# Velocity S-wave (km/s) = 3.04275 3.46858 3.26262
# Velocity P-wave (km/s) = 6.87305 7.25119 7.06465
#
# Compressibility (1/GPa) = 0.01743182
#
# Stress axis : x y z
#
# Youngs Moduli (GPa) = 50.96368 50.96367 124.86337
#
# Poissons Ratio (x) = 0.52252 0.29077
# Poissons Ratio (y) = 0.52252 0.29077
# Poissons Ratio (z) = 0.11868 0.11868
#
# Static dielectric constant tensor:
#      x y z
#    x 2.828620 0.000000 0.000000 
#    y 0.000000 2.828620 0.000000 
#    z 0.000000 0.000000 3.646240 
# 
# 
# High freq. dielectric constant tensor:
#      x y z
#    x 1.613360 0.000000 0.000000 
#    y 0.000000 1.613360 0.000000 
#    z 0.000000 0.000000 1.644010 
# 
# From -- ./inp_files/6013.got.cif
#   From: 2010.03.12/outbox.cif.g09.slc.cpg/sg107_4_cif.got.tgz:6013.got - 2010.04.14 01:49:11.
