data_PCOD8307581
_publ_section_title
;
Structure prediction by ZEFSAII (Michael W. Deem and Ramdas Pophale) SiO2 
 PCOD8307581
Probable space group: I 4 M M
;
_chemical_formula_sum "Si O2"
_cell_formula_units_Z 96
_cell_length_a 18.734961
_cell_length_b 18.734961
_cell_length_c 15.230448
_cell_angle_alpha 90.000000
_cell_angle_beta 90.000000
_cell_angle_gamma 90.000000
_cell_volume 5345.868418
_symmetry_space_group_name_H-M "I 4 M M"
_symmetry_group_IT_number 107
_symmetry_cell_setting 'tetragonal'
loop_
_space_group_symop_operation_xyz
x,y,z
-y,x,z
-x,-y,z
y,-x,z
-x,y,z
x,-y,z
-y,-x,z
y,x,z
1/2+x,1/2+y,1/2+z
1/2-y,1/2+x,1/2+z
1/2-x,1/2-y,1/2+z
1/2+y,1/2-x,1/2+z
1/2-x,1/2+y,1/2+z
1/2+x,1/2-y,1/2+z
1/2-y,1/2-x,1/2+z
1/2+y,1/2+x,1/2+z
loop_
_atom_site_type_symbol
_atom_site_label
_atom_site_fract_x
_atom_site_fract_y
_atom_site_fract_z
Si Si1 0.730499 0.151916 0.936530
Si Si2 0.197884 0.082987 0.775479
Si Si3 0.197698 0.580582 0.126099
Si Si4 0.920006 0.287694 0.429819
Si Si5 0.916904 0.303496 0.113459
Si Si6 0.579486 0.695016 0.766552
O O1 0.771582 0.228419 0.933924
O O2 0.764275 0.097354 0.867901
O O3 0.646375 0.159219 0.911652
O O4 0.739984 0.116870 0.032180
O O5 0.122637 0.122637 0.770034
O O6 0.248318 0.112790 0.697715
O O7 0.181719 0.000000 0.764211
O O8 0.178269 0.500000 0.151704
O O9 0.122822 0.621548 0.125143
O O10 0.236667 0.585396 0.031297
O O11 0.910980 0.219542 0.367150
O O12 0.000000 0.322189 0.413123
O O13 0.903480 0.260447 0.202489
O O14 0.000000 0.318616 0.096046
O O15 0.500000 0.666557 0.749654
O O16 0.630794 0.630794 0.743721
#
# Coordination Sequence:
#
# PCOD8307581 Si02
#       6
#    16  16  16  16  16  16
#     4  10  19  32  53  77 102 134 171 209 250 300
#     4  10  21  36  54  76 102 132 168 212 257 303
#     4   9  19  34  51  74 103 133 165 200 243 296
#     4   9  18  32  50  74 103 131 163 206 250 294
#     4  10  20  33  51  75 102 131 165 206 248 294
#     4  10  20  33  49  70  97 128 164 205 247 291
#
# _framework density 17.957792999999999
#
# number of rings (size 3 to 8) (size 9 to 14) (size 15 to 20)
#    0.000    2.333    0.000    2.500    0.000    6.000 
#    0.000    0.000    0.000    2.500    0.000   11.667 
#    0.000    0.000    0.000    0.000    0.000    0.000 
#
# Total GULP energy -595077.635583 kJ/mol
# GULP energy per Si atom -12397.450741 kJ/mol
# Density = 1.791692 g / cm^3
# Si number density = 17.957793 Si / 1000 Ang^3
#
#
#
# Elastic Constant Matrix: (Units=GPa)
#
#
# Indices 1 2 3 4 5 6 
#
# 1 94.5229 51.5320 39.7633 0.0000 0.0000 -0.0001
# 2 51.5320 94.5229 39.7633 0.0000 0.0000 0.0001
# 3 39.7633 39.7633 89.8751 0.0000 0.0000 0.0000
# 4 0.0000 0.0000 0.0000 25.1132 0.0000 0.0000
# 5 0.0000 0.0000 0.0000 0.0000 25.1132 0.0000
# 6 -0.0001 0.0001 0.0000 0.0000 0.0000 24.7434
#
#
#
# Elastic Compliance Matrix: (Units=1/GPa)
#
#
# Indices 1 2 3 4 5 6 
#
# 1 0.016140 -0.007121 -0.003991 0.000000 0.000000 0.000000
# 2 -0.007121 0.016140 -0.003991 0.000000 0.000000 0.000000
# 3 -0.003991 -0.003991 0.014658 0.000000 0.000000 0.000000
# 4 0.000000 0.000000 0.000000 0.039820 0.000000 0.000000
# 5 0.000000 0.000000 0.000000 0.000000 0.039820 0.000000
# 6 0.000000 0.000000 0.000000 0.000000 0.000000 0.040415
#
#
# Mechanical properties :
#
#
# Convention : Reuss Voigt Hill
#
# Bulk Modulus (GPa) = 59.75619 60.11535 59.93577
# Shear Modulus (GPa) = 24.65804 24.85144 24.75474
#
# Velocity S-wave (km/s) = 3.70957 3.72409 3.71684
# Velocity P-wave (km/s) = 7.19000 7.21390 7.20196
#
# Compressibility (1/GPa) = 0.01673467
#
# Stress axis : x y z
#
# Youngs Moduli (GPa) = 61.95723 61.95723 68.22407
#
# Poissons Ratio (x) = 0.44117 0.27225
# Poissons Ratio (y) = 0.44117 0.27225
# Poissons Ratio (z) = 0.24724 0.24724
#
# Static dielectric constant tensor:
#      x y z
#    x 3.232320 0.000000 0.000000 
#    y 0.000000 3.232320 0.000000 
#    z 0.000000 0.000000 3.576350 
# 
# 
# High freq. dielectric constant tensor:
#      x y z
#    x 1.684370 0.000000 0.000000 
#    y 0.000000 1.684370 0.000000 
#    z 0.000000 0.000000 1.714470 
# 
# From -- ./inp_files/4043.got.cif
#   From: 2010.03.12/outbox.cif.g09.slc.cpg/sg107_3_cif.got.tgz:4043.got - 2010.04.14 01:49:11.
