data_PCOD8307733
_publ_section_title
;
Structure prediction by ZEFSAII (Michael W. Deem and Ramdas Pophale) SiO2 
 PCOD8307733
Probable space group: I 4 C M
;
_chemical_formula_sum "Si O2"
_cell_formula_units_Z 112
_cell_length_a 15.430765
_cell_length_b 15.430765
_cell_length_c 23.177586
_cell_angle_alpha 90.000000
_cell_angle_beta 90.000000
_cell_angle_gamma 90.000000
_cell_volume 5518.780433
_symmetry_space_group_name_H-M "I 4 C M"
_symmetry_group_IT_number 108
_symmetry_cell_setting 'tetragonal'
loop_
_space_group_symop_operation_xyz
x,y,z
-y,x,z
-x,-y,z
y,-x,z
-x,y,1/2+z
x,-y,1/2+z
-y,-x,1/2+z
y,x,1/2+z
1/2+x,1/2+y,1/2+z
1/2-y,1/2+x,1/2+z
1/2-x,1/2-y,1/2+z
1/2+y,1/2-x,1/2+z
1/2-x,1/2+y,z
1/2+x,1/2-y,z
1/2-y,1/2-x,z
1/2+y,1/2+x,z
loop_
_atom_site_type_symbol
_atom_site_label
_atom_site_fract_x
_atom_site_fract_y
_atom_site_fract_z
Si Si1 0.273913 0.637986 0.190580
Si Si2 0.381859 0.581004 0.503180
Si Si3 0.055715 0.866835 0.294269
Si Si4 0.629843 0.262627 0.106355
Si Si5 0.325972 0.961957 0.595953
Si Si6 0.362747 0.002553 0.971512
Si Si7 0.113502 0.242633 0.903140
O O1 0.194206 0.694206 0.217475
O O2 0.311961 0.570612 0.236148
O O3 0.351918 0.700082 0.170233
O O4 0.244428 0.594037 0.130411
O O5 0.381524 0.477615 0.496627
O O6 0.339765 0.600092 0.564914
O O7 0.326421 0.628731 0.453842
O O8 0.087080 0.806193 0.345560
O O9 0.954302 0.888013 0.297208
O O10 0.716585 0.216585 0.081248
O O11 0.559748 0.186560 0.116926
O O12 0.422782 0.922782 0.607135
O O13 0.307981 0.962371 0.526590
O O14 0.424316 0.924316 0.994336
O O15 0.301835 0.968346 0.920821
O O16 0.420184 0.079817 0.944666
O O17 0.200286 0.299715 0.893895
#
# Coordination Sequence:
#
# PCOD8307733 Si02
#       7
#    16  16  16  16  16  16  16
#     4  10  22  39  62  92 123 156 203 258 307 357
#     4  11  23  38  56  83 123 164 202 243 297 363
#     4  11  24  44  67  86 116 162 209 251 304 372
#     4  11  21  35  57  88 124 158 200 252 301 353
#     4  10  19  34  57  86 123 164 200 242 300 365
#     4   9  18  34  58  89 125 163 199 240 301 371
#     4  11  22  40  65  91 121 156 203 259 308 358
#
# _framework density 20.294339999999998
#
# number of rings (size 3 to 8) (size 9 to 14) (size 15 to 20)
#    0.000    1.571    1.429    3.857    0.000    2.000 
#    0.000    5.714    0.000    1.714    0.000    6.000 
#    0.000    0.000    0.000    0.000    0.000    0.000 
#
# Total GULP energy -694050.021484 kJ/mol
# GULP energy per Si atom -12393.750384 kJ/mol
# Density = 2.024815 g / cm^3
# Si number density = 20.294340 Si / 1000 Ang^3
#
#
#
# Elastic Constant Matrix: (Units=GPa)
#
#
# Indices 1 2 3 4 5 6 
#
# 1 109.8573 56.4023 63.2489 0.0000 0.0000 0.0002
# 2 56.4023 109.8573 63.2489 0.0000 0.0000 -0.0002
# 3 63.2489 63.2489 103.2205 0.0000 0.0000 0.0000
# 4 0.0000 0.0000 0.0000 33.6897 0.0000 0.0000
# 5 0.0000 0.0000 0.0000 0.0000 33.6897 0.0000
# 6 0.0002 -0.0002 0.0000 0.0000 0.0000 32.0391
#
#
#
# Elastic Compliance Matrix: (Units=1/GPa)
#
#
# Indices 1 2 3 4 5 6 
#
# 1 0.014988 -0.003720 -0.006904 0.000000 0.000000 0.000000
# 2 -0.003720 0.014988 -0.006904 0.000000 0.000000 0.000000
# 3 -0.006904 -0.006904 0.018150 0.000000 0.000000 0.000000
# 4 0.000000 0.000000 0.000000 0.029683 0.000000 0.000000
# 5 0.000000 0.000000 0.000000 0.000000 0.029683 0.000000
# 6 0.000000 0.000000 0.000000 0.000000 0.000000 0.031212
#
#
# Mechanical properties :
#
#
# Convention : Reuss Voigt Hill
#
# Bulk Modulus (GPa) = 76.52604 76.52612 76.52608
# Shear Modulus (GPa) = 28.07173 29.21936 28.64554
#
# Velocity S-wave (km/s) = 3.72321 3.79856 3.76107
# Velocity P-wave (km/s) = 7.50154 7.55173 7.52668
#
# Compressibility (1/GPa) = 0.01306745
#
# Stress axis : x y z
#
# Youngs Moduli (GPa) = 66.72171 66.72171 55.09788
#
# Poissons Ratio (x) = 0.24818 0.38042
# Poissons Ratio (y) = 0.24818 0.38042
# Poissons Ratio (z) = 0.46068 0.46068
#
# Static dielectric constant tensor:
#      x y z
#    x 3.929980 0.000000 0.000000 
#    y 0.000000 3.929980 0.000000 
#    z 0.000000 0.000000 3.429800 
# 
# 
# High freq. dielectric constant tensor:
#      x y z
#    x 1.803490 0.000000 0.000000 
#    y 0.000000 1.803490 0.000000 
#    z 0.000000 0.000000 1.766820 
# 
# From -- ./inp_files/3216.got.cif
#   From: 2010.03.12/outbox.cif.g09.slc.cpg/sg108_2_cif.got.tgz:3216.got - 2010.04.14 01:53:11.
