data_PCOD8307262
_publ_section_title
;
Structure prediction by ZEFSAII (Michael W. Deem and Ramdas Pophale) SiO2 
 PCOD8307262
Probable space group: P 42 M C
;
_chemical_formula_sum "Si O2"
_cell_formula_units_Z 40
_cell_length_a 8.139701
_cell_length_b 8.139701
_cell_length_c 28.687424
_cell_angle_alpha 90.000000
_cell_angle_beta 90.000000
_cell_angle_gamma 90.000000
_cell_volume 1900.677599
_symmetry_space_group_name_H-M "P 42 M C"
_symmetry_group_IT_number 105
_symmetry_cell_setting 'tetragonal'
loop_
_space_group_symop_operation_xyz
x,y,z
-y,x,1/2+z
-x,-y,z
y,-x,1/2+z
-x,y,z
x,-y,z
-y,-x,1/2+z
y,x,1/2+z
loop_
_atom_site_type_symbol
_atom_site_label
_atom_site_fract_x
_atom_site_fract_y
_atom_site_fract_z
Si Si1 0.816356 0.196028 0.297690
Si Si2 0.189951 0.815099 0.401680
Si Si3 0.311377 0.317256 0.494702
Si Si4 0.804594 0.500000 0.741577
Si Si5 0.178738 0.189703 0.084253
Si Si6 0.196384 0.500000 0.635504
O O1 0.782536 0.260883 0.350176
O O2 0.668012 0.263817 0.265426
O O3 0.000000 0.255641 0.281072
O O4 0.817476 0.000000 0.298182
O O5 0.289331 0.714953 0.439999
O O6 0.000000 0.809150 0.415274
O O7 0.257425 0.000000 0.402393
O O8 0.500000 0.295928 0.507812
O O9 0.248517 0.500000 0.505354
O O10 0.210179 0.196994 0.528435
O O11 0.742885 0.500000 0.688653
O O12 0.000000 0.500000 0.744746
O O13 0.334625 0.270182 0.111253
O O14 0.000000 0.265622 0.099053
O O15 0.174799 0.000000 0.097175
O O16 0.000000 0.500000 0.631690
#
# Coordination Sequence:
#
# PCOD8307262 Si02
#       6
#     8   8   8   4   8   4
#     4   8  15  27  43  69 105 139 175 221 271 332
#     4   9  18  32  50  74 103 137 176 214 261 323
#     4  11  23  35  49  74 105 137 176 221 270 327
#     4   9  16  26  46  73 103 143 179 219 283 330
#     4  10  20  35  55  76 103 142 181 223 279 338
#     4   9  18  32  49  75 107 139 183 233 277 334
#
# _framework density 21.045127999999998
#
# number of rings (size 3 to 8) (size 9 to 14) (size 15 to 20)
#    0.000    2.600    1.000    2.400    1.400    5.200 
#    0.000    4.000    0.000    0.000    0.000    2.800 
#    0.000    3.200    0.000    0.000    0.000    0.000 
#
# Total GULP energy -495692.478208 kJ/mol
# GULP energy per Si atom -12392.311955 kJ/mol
# Density = 2.099723 g / cm^3
# Si number density = 21.045128 Si / 1000 Ang^3
#
#
#
# Elastic Constant Matrix: (Units=GPa)
#
#
# Indices 1 2 3 4 5 6 
#
# 1 91.2130 28.0458 46.0164 0.0000 0.0000 0.0000
# 2 28.0458 91.2130 46.0164 0.0000 0.0000 0.0000
# 3 46.0164 46.0164 137.2647 0.0000 0.0000 0.0000
# 4 0.0000 0.0000 0.0000 15.1219 0.0000 0.0000
# 5 0.0000 0.0000 0.0000 0.0000 15.1219 0.0000
# 6 0.0000 0.0000 0.0000 0.0000 0.0000 13.0762
#
#
#
# Elastic Compliance Matrix: (Units=1/GPa)
#
#
# Indices 1 2 3 4 5 6 
#
# 1 0.013571 -0.002260 -0.003792 0.000000 0.000000 0.000000
# 2 -0.002260 0.013571 -0.003792 0.000000 0.000000 0.000000
# 3 -0.003792 -0.003792 0.009828 0.000000 0.000000 0.000000
# 4 0.000000 0.000000 0.000000 0.066129 0.000000 0.000000
# 5 0.000000 0.000000 0.000000 0.000000 0.066129 0.000000
# 6 0.000000 0.000000 0.000000 0.000000 0.000000 0.076475
#
#
# Mechanical properties :
#
#
# Convention : Reuss Voigt Hill
#
# Bulk Modulus (GPa) = 57.86217 62.20531 60.03374
# Shear Modulus (GPa) = 18.43982 21.97146 20.20564
#
# Velocity S-wave (km/s) = 2.96329 3.23463 3.10193
# Velocity P-wave (km/s) = 6.26595 6.60096 6.43563
#
# Compressibility (1/GPa) = 0.01728245
#
# Stress axis : x y z
#
# Youngs Moduli (GPa) = 73.68527 73.68527 101.75356
#
# Poissons Ratio (x) = 0.16651 0.38585
# Poissons Ratio (y) = 0.16651 0.38585
# Poissons Ratio (z) = 0.27942 0.27942
#
# Static dielectric constant tensor:
#      x y z
#    x 3.686410 0.000000 0.000000 
#    y 0.000000 3.686410 0.000000 
#    z 0.000000 0.000000 3.764850 
# 
# 
# High freq. dielectric constant tensor:
#      x y z
#    x 1.802330 0.000000 0.000000 
#    y 0.000000 1.802330 0.000000 
#    z 0.000000 0.000000 1.817720 
# 
# From -- ./inp_files/4263.got.cif
#   From: 2010.03.12/outbox.cif.g09.slc.cpg/sg105_3_cif.got.tgz:4263.got - 2010.04.14 01:45:32.
