data_PCOD8307162
_publ_section_title
;
Structure prediction by ZEFSAII (Michael W. Deem and Ramdas Pophale) SiO2 
 PCOD8307162
Probable space group: P 42 M C
;
_chemical_formula_sum "Si O2"
_cell_formula_units_Z 56
_cell_length_a 14.175901
_cell_length_b 14.175901
_cell_length_c 14.078485
_cell_angle_alpha 90.000000
_cell_angle_beta 90.000000
_cell_angle_gamma 90.000000
_cell_volume 2829.158413
_symmetry_space_group_name_H-M "P 42 M C"
_symmetry_group_IT_number 105
_symmetry_cell_setting 'tetragonal'
loop_
_space_group_symop_operation_xyz
x,y,z
-y,x,1/2+z
-x,-y,z
y,-x,1/2+z
-x,y,z
x,-y,z
-y,-x,1/2+z
y,x,1/2+z
loop_
_atom_site_type_symbol
_atom_site_label
_atom_site_fract_x
_atom_site_fract_y
_atom_site_fract_z
Si Si1 0.773556 0.605941 0.313020
Si Si2 0.735609 0.662505 0.105075
Si Si3 0.397743 0.394219 0.445975
Si Si4 0.885898 0.254126 0.975468
Si Si5 0.105381 0.735182 0.435448
Si Si6 0.842238 0.611322 0.610632
Si Si7 0.397933 0.894002 0.319149
O O1 0.805611 0.500000 0.340353
O O2 0.756423 0.607128 0.200941
O O3 0.678248 0.634708 0.367452
O O4 0.851193 0.681610 0.344650
O O5 0.657032 0.740931 0.124044
O O6 0.684632 0.596842 0.028069
O O7 0.837472 0.700693 0.068713
O O8 0.500000 0.393989 0.396003
O O9 0.375928 0.500000 0.486126
O O10 0.835738 0.153927 0.957826
O O11 0.851354 0.317334 0.885915
O O12 0.000000 0.243574 0.987083
O O13 0.105891 0.664175 0.524797
O O14 0.000000 0.761870 0.407916
O O15 0.836164 0.500000 0.587180
O O16 0.896117 0.631151 0.708823
O O17 0.500000 0.841742 0.332216
O O18 0.410298 0.000000 0.354603
#
# Coordination Sequence:
#
# PCOD8307162 Si02
#       7
#     8   8   8   8   8   8   8
#     4  11  23  40  59  90 128 163 202 242 294 361
#     4  11  22  37  57  86 122 164 196 242 290 358
#     4  10  21  38  60  88 123 162 204 244 288 351
#     4  10  22  41  60  85 121 158 203 255 304 361
#     4  11  23  40  61  86 117 158 205 256 312 362
#     4  10  19  33  58  88 117 149 192 243 298 353
#     4   9  18  33  56  86 114 142 184 239 295 349
#
# _framework density 19.793873999999999
#
# number of rings (size 3 to 8) (size 9 to 14) (size 15 to 20)
#    0.000    1.714    2.857    2.571    0.000    4.857 
#    0.000    1.429    0.000    0.000    0.000    4.000 
#    0.000    0.000    0.000    0.000    0.000    0.000 
#
# Total GULP energy -693991.599243 kJ/mol
# GULP energy per Si atom -12392.707129 kJ/mol
# Density = 1.974882 g / cm^3
# Si number density = 19.793874 Si / 1000 Ang^3
#
#
#
# Elastic Constant Matrix: (Units=GPa)
#
#
# Indices 1 2 3 4 5 6 
#
# 1 119.6042 42.4207 39.7711 0.0000 0.0000 0.0000
# 2 42.4207 119.6042 39.7711 0.0000 0.0000 0.0000
# 3 39.7711 39.7711 109.3924 0.0000 0.0000 0.0000
# 4 0.0000 0.0000 0.0000 22.0469 0.0000 0.0000
# 5 0.0000 0.0000 0.0000 0.0000 22.0469 0.0000
# 6 0.0000 0.0000 0.0000 0.0000 0.0000 11.6348
#
#
#
# Elastic Compliance Matrix: (Units=1/GPa)
#
#
# Indices 1 2 3 4 5 6 
#
# 1 0.010234 -0.002722 -0.002731 0.000000 0.000000 0.000000
# 2 -0.002722 0.010234 -0.002731 0.000000 0.000000 0.000000
# 3 -0.002731 -0.002731 0.011127 0.000000 0.000000 0.000000
# 4 0.000000 0.000000 0.000000 0.045358 0.000000 0.000000
# 5 0.000000 0.000000 0.000000 0.000000 0.045358 0.000000
# 6 0.000000 0.000000 0.000000 0.000000 0.000000 0.085949
#
#
# Mechanical properties :
#
#
# Convention : Reuss Voigt Hill
#
# Bulk Modulus (GPa) = 65.67049 65.83628 65.75339
# Shear Modulus (GPa) = 21.76694 26.25490 24.01092
#
# Velocity S-wave (km/s) = 3.31974 3.64595 3.48666
# Velocity P-wave (km/s) = 6.92412 7.14542 7.03564
#
# Compressibility (1/GPa) = 0.01522754
#
# Stress axis : x y z
#
# Youngs Moduli (GPa) = 97.70899 97.70899 89.86770
#
# Poissons Ratio (x) = 0.26593 0.24546
# Poissons Ratio (y) = 0.26593 0.24546
# Poissons Ratio (z) = 0.26688 0.26688
#
# Static dielectric constant tensor:
#      x y z
#    x 3.586800 0.000000 0.000000 
#    y 0.000000 3.586800 0.000000 
#    z 0.000000 0.000000 3.621940 
# 
# 
# High freq. dielectric constant tensor:
#      x y z
#    x 1.769680 0.000000 0.000000 
#    y 0.000000 1.769680 0.000000 
#    z 0.000000 0.000000 1.764740 
# 
# From -- ./inp_files/2632.got.cif
#   From: 2010.03.12/outbox.cif.g09.slc.cpg/sg105_2_cif.got.tgz:2632.got - 2010.04.14 01:45:32.
