data_PCOD8307609
_publ_section_title
;
Structure prediction by ZEFSAII (Michael W. Deem and Ramdas Pophale) SiO2 
 PCOD8307609
Probable space group: I 4 M M
;
_chemical_formula_sum "Si O2"
_cell_formula_units_Z 96
_cell_length_a 23.825444
_cell_length_b 23.825444
_cell_length_c 9.664372
_cell_angle_alpha 90.000000
_cell_angle_beta 90.000000
_cell_angle_gamma 90.000000
_cell_volume 5485.997986
_symmetry_space_group_name_H-M "I 4 M M"
_symmetry_group_IT_number 107
_symmetry_cell_setting 'tetragonal'
loop_
_space_group_symop_operation_xyz
x,y,z
-y,x,z
-x,-y,z
y,-x,z
-x,y,z
x,-y,z
-y,-x,z
y,x,z
1/2+x,1/2+y,1/2+z
1/2-y,1/2+x,1/2+z
1/2-x,1/2-y,1/2+z
1/2+y,1/2-x,1/2+z
1/2-x,1/2+y,1/2+z
1/2+x,1/2-y,1/2+z
1/2-y,1/2-x,1/2+z
1/2+y,1/2+x,1/2+z
loop_
_atom_site_type_symbol
_atom_site_label
_atom_site_fract_x
_atom_site_fract_y
_atom_site_fract_z
Si Si1 0.645084 0.733289 0.899160
Si Si2 0.272339 0.637400 0.210088
Si Si3 0.784646 0.062897 0.162865
Si Si4 0.934124 0.339810 0.072572
Si Si5 0.563661 0.653157 0.388942
Si Si6 0.647594 0.140604 0.812164
O O1 0.707933 0.707933 0.877044
O O2 0.604616 0.703840 0.788428
O O3 0.642867 0.799971 0.888267
O O4 0.622930 0.716632 0.050211
O O5 0.304824 0.695177 0.251606
O O6 0.294778 0.586009 0.300222
O O7 0.206433 0.642403 0.233501
O O8 0.726433 0.076326 0.085703
O O9 0.783397 0.000000 0.223162
O O10 0.833687 0.070282 0.051241
O O11 0.901960 0.369636 0.200483
O O12 0.000000 0.355901 0.077264
O O13 0.908490 0.358615 0.925442
O O14 0.500000 0.642664 0.346646
O O15 0.597032 0.597032 0.352181
#
# Coordination Sequence:
#
# PCOD8307609 Si02
#       6
#    16  16  16  16  16  16
#     4  10  20  32  49  79 112 142 176 220 272 327
#     4  10  20  32  49  79 110 142 180 219 270 328
#     4   9  18  33  52  76 107 142 181 220 262 315
#     4  10  21  36  57  82 106 137 178 219 263 324
#     4  10  20  34  53  77 108 146 186 227 269 314
#     4  11  19  36  55  77 111 142 177 217 272 326
#
# _framework density 17.499095000000001
#
# number of rings (size 3 to 8) (size 9 to 14) (size 15 to 20)
#    0.000    2.000    3.333    1.000    0.000    0.833 
#    0.000    0.833    0.000    1.500    0.000    0.000 
#    0.000    4.000    0.000    0.000    0.000    0.000 
#
# Total GULP energy -595181.122806 kJ/mol
# GULP energy per Si atom -12399.606725 kJ/mol
# Density = 1.745927 g / cm^3
# Si number density = 17.499095 Si / 1000 Ang^3
#
#
#
# Elastic Constant Matrix: (Units=GPa)
#
#
# Indices 1 2 3 4 5 6 
#
# 1 87.3658 29.4364 38.2335 0.0000 0.0000 -0.0006
# 2 29.4364 87.3658 38.2335 0.0000 0.0000 0.0006
# 3 38.2335 38.2335 98.2966 0.0000 0.0000 0.0000
# 4 0.0000 0.0000 0.0000 25.5560 0.0000 0.0000
# 5 0.0000 0.0000 0.0000 0.0000 25.5560 0.0000
# 6 -0.0006 0.0006 0.0000 0.0000 0.0000 13.9719
#
#
#
# Elastic Compliance Matrix: (Units=1/GPa)
#
#
# Indices 1 2 3 4 5 6 
#
# 1 0.014374 -0.002888 -0.004468 0.000000 0.000000 0.000001
# 2 -0.002888 0.014374 -0.004468 0.000000 0.000000 -0.000001
# 3 -0.004468 -0.004468 0.013649 0.000000 0.000000 0.000000
# 4 0.000000 0.000000 0.000000 0.039130 0.000000 0.000000
# 5 0.000000 0.000000 0.000000 0.000000 0.039130 0.000000
# 6 0.000001 -0.000001 0.000000 0.000000 0.000000 0.071572
#
#
# Mechanical properties :
#
#
# Convention : Reuss Voigt Hill
#
# Bulk Modulus (GPa) = 53.33157 53.87055 53.60106
# Shear Modulus (GPa) = 22.50971 24.15845 23.33408
#
# Velocity S-wave (km/s) = 3.59044 3.71961 3.65560
# Velocity P-wave (km/s) = 6.90878 7.02132 6.96528
#
# Compressibility (1/GPa) = 0.01875062
#
# Stress axis : x y z
#
# Youngs Moduli (GPa) = 69.56822 69.56822 73.26625
#
# Poissons Ratio (x) = 0.20091 0.32734
# Poissons Ratio (y) = 0.20091 0.32734
# Poissons Ratio (z) = 0.31081 0.31081
#
# Static dielectric constant tensor:
#      x y z
#    x 3.147430 0.000000 0.000000 
#    y 0.000000 3.147430 0.000000 
#    z 0.000000 0.000000 3.270760 
# 
# 
# High freq. dielectric constant tensor:
#      x y z
#    x 1.662610 0.000000 0.000000 
#    y 0.000000 1.662610 0.000000 
#    z 0.000000 0.000000 1.685140 
# 
# From -- ./inp_files/1473.got.cif
#   From: 2010.03.12/outbox.cif.g09.slc.cpg/sg107_1_cif.got.tgz:1473.got - 2010.04.14 01:49:11.
