data_PCOD8307671
_publ_section_title
;
Structure prediction by ZEFSAII (Michael W. Deem and Ramdas Pophale) SiO2 
 PCOD8307671
Probable space group: I 4 M M
;
_chemical_formula_sum "Si O2"
_cell_formula_units_Z 64
_cell_length_a 23.634797
_cell_length_b 23.634797
_cell_length_c 4.972172
_cell_angle_alpha 90.000000
_cell_angle_beta 90.000000
_cell_angle_gamma 90.000000
_cell_volume 2777.473324
_symmetry_space_group_name_H-M "I 4 M M"
_symmetry_group_IT_number 107
_symmetry_cell_setting 'tetragonal'
loop_
_space_group_symop_operation_xyz
x,y,z
-y,x,z
-x,-y,z
y,-x,z
-x,y,z
x,-y,z
-y,-x,z
y,x,z
1/2+x,1/2+y,1/2+z
1/2-y,1/2+x,1/2+z
1/2-x,1/2-y,1/2+z
1/2+y,1/2-x,1/2+z
1/2-x,1/2+y,1/2+z
1/2+x,1/2-y,1/2+z
1/2-y,1/2-x,1/2+z
1/2+y,1/2+x,1/2+z
loop_
_atom_site_type_symbol
_atom_site_label
_atom_site_fract_x
_atom_site_fract_y
_atom_site_fract_z
Si Si1 0.064607 0.382471 0.899150
Si Si2 0.407606 0.500000 0.754698
Si Si3 0.000000 0.168063 0.753382
Si Si4 0.268388 0.062337 0.620868
Si Si5 0.322168 0.768839 0.841379
O O1 0.105489 0.419586 0.708229
O O2 0.075904 0.316771 0.838496
O O3 0.000000 0.400244 0.846907
O O4 0.444283 0.444283 0.799796
O O5 0.383991 0.500000 0.453349
O O6 0.355256 0.500000 0.951833
O O7 0.943993 0.208297 0.780332
O O8 0.263742 0.111103 0.397664
O O9 0.280647 0.000000 0.482228
O O10 0.292461 0.707540 0.875664
O O11 0.292716 0.813724 0.042517
#
# Coordination Sequence:
#
# PCOD8307671 Si02
#       5
#    16   8   8  16  16
#     4  11  23  39  61  88 124 170 212 265 320 375
#     4  11  24  44  68  96 130 166 203 248 312 382
#     4  10  24  41  66  96 125 166 210 256 308 370
#     4   9  22  42  60  93 122 164 208 259 312 375
#     4  10  21  38  61  88 119 158 202 252 308 366
#
# _framework density 23.042525999999999
#
# number of rings (size 3 to 8) (size 9 to 14) (size 15 to 20)
#    0.750    1.125    0.000    3.000    0.000    8.500 
#    0.000    2.500    0.000    0.000    0.000    0.000 
#    0.000    0.000    0.000    0.000    0.000    0.000 
#
# Total GULP energy -396717.766018 kJ/mol
# GULP energy per Si atom -12397.430188 kJ/mol
# Density = 2.299008 g / cm^3
# Si number density = 23.042526 Si / 1000 Ang^3
#
#
#
# Elastic Constant Matrix: (Units=GPa)
#
#
# Indices 1 2 3 4 5 6 
#
# 1 115.2153 21.4465 3.0793 0.0000 0.0000 -0.0004
# 2 21.4465 115.2153 3.0793 0.0000 0.0000 0.0004
# 3 3.0793 3.0793 57.8738 0.0000 0.0000 0.0000
# 4 0.0000 0.0000 0.0000 14.1823 0.0000 0.0000
# 5 0.0000 0.0000 0.0000 0.0000 14.1823 0.0000
# 6 -0.0004 0.0004 0.0000 0.0000 0.0000 -22.5359
#
#
#
# Elastic Compliance Matrix: (Units=1/GPa)
#
#
# Indices 1 2 3 4 5 6 
#
# 1 0.009000 -0.001665 -0.000390 0.000000 0.000000 0.000000
# 2 -0.001665 0.009000 -0.000390 0.000000 0.000000 0.000000
# 3 -0.000390 -0.000390 0.017321 0.000000 0.000000 0.000000
# 4 0.000000 0.000000 0.000000 0.070511 0.000000 0.000000
# 5 0.000000 0.000000 0.000000 0.000000 0.070511 0.000000
# 6 0.000000 0.000000 0.000000 0.000000 0.000000 -0.044374
#
#
# Mechanical properties :
#
#
# Convention : Reuss Voigt Hill
#
# Bulk Modulus (GPa) = 32.86310 38.16829 35.51569
# Shear Modulus (GPa) = 34.01332 18.54567 26.27950
#
# Velocity S-wave (km/s) = 3.84619 2.84006 3.38076
# Velocity P-wave (km/s) = 5.83242 5.23018 5.53949
#
# Compressibility (1/GPa) = 0.03042927
#
# Stress axis : x y z
#
# Youngs Moduli (GPa) = 111.11450 111.11450 57.73502
#
# Poissons Ratio (x) = 0.18498 0.02253
# Poissons Ratio (y) = 0.18498 0.02253
# Poissons Ratio (z) = 0.04336 0.04336
#
# Static dielectric constant tensor:
#      x y z
#    x 4.200950 0.000000 0.000000 
#    y 0.000000 4.200950 0.000000 
#    z 0.000000 0.000000 3.724000 
# 
# 
# High freq. dielectric constant tensor:
#      x y z
#    x 1.914210 0.000000 0.000000 
#    y 0.000000 1.914210 0.000000 
#    z 0.000000 0.000000 1.895430 
# 
# From -- ./inp_files/379.got.cif
#   From: 2010.03.12/outbox.cif.g09.slc.cpg/sg107_1_cif.got.tgz:379.got - 2010.04.14 01:49:11.
