data_PCOD8307885
_publ_section_title
;
Structure prediction by ZEFSAII (Michael W. Deem and Ramdas Pophale) SiO2 
 PCOD8307885
Probable space group: I 41 M D
;
_chemical_formula_sum "Si O2"
_cell_formula_units_Z 128
_cell_length_a 24.444217
_cell_length_b 24.444217
_cell_length_c 10.588096
_cell_angle_alpha 90.000000
_cell_angle_beta 90.000000
_cell_angle_gamma 90.000000
_cell_volume 6326.596419
_symmetry_space_group_name_H-M "I 41 M D"
_symmetry_group_IT_number 109
_symmetry_cell_setting 'tetragonal'
loop_
_space_group_symop_operation_xyz
x,y,z
-y,1/2+x,1/4+z
-x,-y,z
y,1/2-x,1/4+z
-x,y,z
x,-y,z
-y,1/2-x,1/4+z
y,1/2+x,1/4+z
1/2+x,1/2+y,1/2+z
1/2-y,x,3/4+z
1/2-x,1/2-y,1/2+z
1/2+y,-x,3/4+z
1/2-x,1/2+y,1/2+z
1/2+x,1/2-y,1/2+z
1/2-y,-x,3/4+z
1/2+y,x,3/4+z
loop_
_atom_site_type_symbol
_atom_site_label
_atom_site_fract_x
_atom_site_fract_y
_atom_site_fract_z
Si Si1 0.305480 0.060929 0.905400
Si Si2 0.651310 0.625415 0.297536
Si Si3 0.246580 0.209329 0.787083
Si Si4 0.060288 0.315019 0.268127
Si Si5 0.275013 0.353525 0.681001
Si Si6 0.640506 0.343481 0.865188
Si Si7 0.667912 0.563303 0.052297
Si Si8 0.937080 0.793492 0.865096
O O1 0.243919 0.059770 0.953118
O O2 0.300944 0.081512 0.760822
O O3 0.330862 0.000000 0.911124
O O4 0.343497 0.099007 0.995074
O O5 0.711192 0.654305 0.297668
O O6 0.643096 0.591298 0.425969
O O7 0.644124 0.581895 0.186021
O O8 0.602732 0.669034 0.282043
O O9 0.244790 0.225577 0.638344
O O10 0.310935 0.204954 0.822188
O O11 0.090726 0.308184 0.401172
O O12 0.000000 0.337812 0.294878
O O13 0.297480 0.334026 0.815306
O O14 0.211051 0.367730 0.698169
O O15 0.638450 0.399002 0.946014
O O16 0.652581 0.500000 0.026379
O O17 0.732990 0.571338 0.059509
O O18 0.000000 0.811452 0.848166
#
# Coordination Sequence:
#
# PCOD8307885 Si02
#       8
#    16  16  16  16  16  16  16  16
#     4   9  18  38  62  87 121 162 208 255 306 370
#     4  12  22  35  64  87 120 166 207 253 315 377
#     4  12  24  34  54  91 132 166 202 253 320 394
#     4  10  19  34  57  85 115 158 211 251 296 361
#     4  11  22  35  54  87 125 161 198 255 319 376
#     4  11  24  38  57  87 125 163 207 259 313 385
#     4  11  26  43  61  89 129 171 213 256 314 390
#     4  10  22  39  62  93 126 164 208 259 314 377
#
# _framework density 20.232047999999999
#
# number of rings (size 3 to 8) (size 9 to 14) (size 15 to 20)
#    0.000    1.250    3.750    2.625    5.250    0.500 
#    0.000    0.625    0.000    2.625    0.000    3.500 
#    0.000    0.000    0.000    0.000    0.000    0.000 
#
# Total GULP energy -793028.650306 kJ/mol
# GULP energy per Si atom -12391.072661 kJ/mol
# Density = 2.018600 g / cm^3
# Si number density = 20.232048 Si / 1000 Ang^3
#
#
#
# Elastic Constant Matrix: (Units=GPa)
#
#
# Indices 1 2 3 4 5 6 
#
# 1 69.1353 19.3297 9.7764 0.0000 0.0000 0.0000
# 2 19.3297 69.1353 9.7764 0.0000 0.0000 0.0000
# 3 9.7764 9.7764 47.5791 0.0000 0.0000 0.0000
# 4 0.0000 0.0000 0.0000 31.3975 0.0000 0.0000
# 5 0.0000 0.0000 0.0000 0.0000 31.3975 0.0000
# 6 0.0000 0.0000 0.0000 0.0000 0.0000 18.3515
#
#
#
# Elastic Compliance Matrix: (Units=1/GPa)
#
#
# Indices 1 2 3 4 5 6 
#
# 1 0.015960 -0.004118 -0.002433 0.000000 0.000000 0.000000
# 2 -0.004118 0.015960 -0.002433 0.000000 0.000000 0.000000
# 3 -0.002433 -0.002433 0.022018 0.000000 0.000000 0.000000
# 4 0.000000 0.000000 0.000000 0.031850 0.000000 0.000000
# 5 0.000000 0.000000 0.000000 0.000000 0.031850 0.000000
# 6 0.000000 0.000000 0.000000 0.000000 0.000000 0.054491
#
#
# Mechanical properties :
#
#
# Convention : Reuss Voigt Hill
#
# Bulk Modulus (GPa) = 27.80232 29.29049 28.54640
# Shear Modulus (GPa) = 24.74187 26.02712 25.38449
#
# Velocity S-wave (km/s) = 3.50080 3.59057 3.54597
# Velocity P-wave (km/s) = 5.48747 5.63013 5.55926
#
# Compressibility (1/GPa) = 0.03596823
#
# Stress axis : x y z
#
# Youngs Moduli (GPa) = 62.65708 62.65708 45.41827
#
# Poissons Ratio (x) = 0.25803 0.11051
# Poissons Ratio (y) = 0.25803 0.11051
# Poissons Ratio (z) = 0.15246 0.15246
#
# Static dielectric constant tensor:
#      x y z
#    x 3.696370 0.000000 0.000000 
#    y 0.000000 3.696370 0.000000 
#    z 0.000000 0.000000 3.648410 
# 
# 
# High freq. dielectric constant tensor:
#      x y z
#    x 1.770470 0.000000 0.000000 
#    y 0.000000 1.770470 0.000000 
#    z 0.000000 0.000000 1.787900 
# 
# From -- ./inp_files/2172.got.cif
#   From: 2010.03.12/outbox.cif.g09.slc.cpg/sg109_2_cif.got.tgz:2172.got - 2010.04.14 01:55:16.
