data_PCOD8307165
_publ_section_title
;
Structure prediction by ZEFSAII (Michael W. Deem and Ramdas Pophale) SiO2 
 PCOD8307165
Probable space group: P 42 M C
;
_chemical_formula_sum "Si O2"
_cell_formula_units_Z 48
_cell_length_a 9.619572
_cell_length_b 9.619572
_cell_length_c 27.914360
_cell_angle_alpha 90.000000
_cell_angle_beta 90.000000
_cell_angle_gamma 90.000000
_cell_volume 2583.087836
_symmetry_space_group_name_H-M "P 42 M C"
_symmetry_group_IT_number 105
_symmetry_cell_setting 'tetragonal'
loop_
_space_group_symop_operation_xyz
x,y,z
-y,x,1/2+z
-x,-y,z
y,-x,1/2+z
-x,y,z
x,-y,z
-y,-x,1/2+z
y,x,1/2+z
loop_
_atom_site_type_symbol
_atom_site_label
_atom_site_fract_x
_atom_site_fract_y
_atom_site_fract_z
Si Si1 0.268037 0.332971 0.270990
Si Si2 0.838501 0.665351 0.862043
Si Si3 0.664026 0.720525 0.556712
Si Si4 0.500000 0.156902 0.108390
Si Si5 0.000000 0.337906 0.105955
Si Si6 0.500000 0.841077 0.221235
Si Si7 0.654919 0.335523 0.949659
Si Si8 0.000000 0.661065 0.211768
O O1 0.298459 0.500000 0.275281
O O2 0.263765 0.260436 0.322764
O O3 0.373010 0.250704 0.238036
O O4 0.127742 0.296958 0.244265
O O5 0.829229 0.500000 0.855368
O O6 0.772078 0.715770 0.912369
O O7 0.000000 0.714184 0.859200
O O8 0.500000 0.686000 0.562713
O O9 0.756097 0.631034 0.591938
O O10 0.705119 0.873162 0.572762
O O11 0.714463 0.698082 0.502423
O O12 0.500000 0.147999 0.164937
O O13 0.500000 0.000000 0.087097
O O14 0.000000 0.265161 0.158948
O O15 0.000000 0.500000 0.115378
O O16 0.500000 0.000000 0.243037
O O17 0.500000 0.277518 0.937213
O O18 0.650352 0.500000 0.948375
O O19 0.000000 0.500000 0.201085
#
# Coordination Sequence:
#
# PCOD8307165 Si02
#       8
#     8   8   8   4   4   4   8   4
#     4  11  21  36  59  82 112 149 192 240 291 345
#     4  10  20  33  53  82 118 151 187 238 293 344
#     4  10  19  34  58  85 114 145 189 240 287 341
#     4  11  23  37  55  81 117 155 189 233 282 343
#     4   9  18  32  55  85 115 143 183 237 292 341
#     4  11  23  37  55  83 117 149 193 235 286 347
#     4   9  17  30  51  81 113 145 186 232 284 341
#     4   9  20  36  53  81 115 147 185 235 284 343
#
# _framework density 18.582412999999999
#
# number of rings (size 3 to 8) (size 9 to 14) (size 15 to 20)
#    0.000    2.000    1.667    2.500    1.167    3.333 
#    0.000    2.083    1.833    4.000    0.000    0.000 
#    0.000    0.000    0.000    0.000    0.000    0.000 
#
# Total GULP energy -594778.059673 kJ/mol
# GULP energy per Si atom -12391.209577 kJ/mol
# Density = 1.854012 g / cm^3
# Si number density = 18.582413 Si / 1000 Ang^3
#
#
#
# Elastic Constant Matrix: (Units=GPa)
#
#
# Indices 1 2 3 4 5 6 
#
# 1 117.9755 41.4045 46.3058 0.0000 0.0000 0.0000
# 2 41.4045 117.9755 46.3058 0.0000 0.0000 0.0000
# 3 46.3058 46.3058 117.6185 0.0000 0.0000 0.0000
# 4 0.0000 0.0000 0.0000 27.2110 0.0000 0.0000
# 5 0.0000 0.0000 0.0000 0.0000 27.2110 0.0000
# 6 0.0000 0.0000 0.0000 0.0000 0.0000 9.0437
#
#
#
# Elastic Compliance Matrix: (Units=1/GPa)
#
#
# Indices 1 2 3 4 5 6 
#
# 1 0.010598 -0.002462 -0.003203 0.000000 0.000000 0.000000
# 2 -0.002462 0.010598 -0.003203 0.000000 0.000000 0.000000
# 3 -0.003203 -0.003203 0.011024 0.000000 0.000000 0.000000
# 4 0.000000 0.000000 0.000000 0.036750 0.000000 0.000000
# 5 0.000000 0.000000 0.000000 0.000000 0.036750 0.000000
# 6 0.000000 0.000000 0.000000 0.000000 0.000000 0.110574
#
#
# Mechanical properties :
#
#
# Convention : Reuss Voigt Hill
#
# Bulk Modulus (GPa) = 69.04495 69.06686 69.05591
# Shear Modulus (GPa) = 20.93303 27.33001 24.13152
#
# Velocity S-wave (km/s) = 3.35997 3.83919 3.60755
# Velocity P-wave (km/s) = 7.23113 7.54328 7.38886
#
# Compressibility (1/GPa) = 0.01448332
#
# Stress axis : x y z
#
# Youngs Moduli (GPa) = 94.36100 94.36100 90.71141
#
# Poissons Ratio (x) = 0.23233 0.29054
# Poissons Ratio (y) = 0.23233 0.29054
# Poissons Ratio (z) = 0.30223 0.30223
#
# Static dielectric constant tensor:
#      x y z
#    x 3.858620 0.000000 0.000000 
#    y 0.000000 3.858620 0.000000 
#    z 0.000000 0.000000 3.649090 
# 
# 
# High freq. dielectric constant tensor:
#      x y z
#    x 1.704870 0.000000 0.000000 
#    y 0.000000 1.704870 0.000000 
#    z 0.000000 0.000000 1.740340 
# 
# From -- ./inp_files/4909.got.cif
#   From: 2010.03.12/outbox.cif.g09.slc.cpg/sg105_3_cif.got.tgz:4909.got - 2010.04.14 01:45:32.
