data_PCOD8307223
_publ_section_title
;
Structure prediction by ZEFSAII (Michael W. Deem and Ramdas Pophale) SiO2 
 PCOD8307223
Probable space group: P 42 M C
;
_chemical_formula_sum "Si O2"
_cell_formula_units_Z 56
_cell_length_a 13.906930
_cell_length_b 13.906930
_cell_length_c 15.722670
_cell_angle_alpha 90.000000
_cell_angle_beta 90.000000
_cell_angle_gamma 90.000000
_cell_volume 3040.806861
_symmetry_space_group_name_H-M "P 42 M C"
_symmetry_group_IT_number 105
_symmetry_cell_setting 'tetragonal'
loop_
_space_group_symop_operation_xyz
x,y,z
-y,x,1/2+z
-x,-y,z
y,-x,1/2+z
-x,y,z
x,-y,z
-y,-x,1/2+z
y,x,1/2+z
loop_
_atom_site_type_symbol
_atom_site_label
_atom_site_fract_x
_atom_site_fract_y
_atom_site_fract_z
Si Si1 0.603967 0.388191 0.581810
Si Si2 0.389386 0.805175 0.138680
Si Si3 0.396033 0.388191 0.887330
Si Si4 0.885877 0.107717 0.734570
Si Si5 0.888024 0.211027 0.905503
Si Si6 0.788973 0.111976 0.063637
Si Si7 0.805175 0.610614 0.830460
O O1 0.500000 0.338950 0.605153
O O2 0.590375 0.500000 0.598142
O O3 0.694104 0.351495 0.637328
O O4 0.631856 0.368141 0.484570
O O5 0.500000 0.811736 0.107096
O O6 0.325080 0.870292 0.075936
O O7 0.379953 0.844510 0.234570
O O8 0.500000 0.338950 0.863989
O O9 0.409624 0.500000 0.870994
O O10 0.305895 0.351494 0.831812
O O11 0.849141 0.160368 0.819602
O O12 0.849141 0.160368 0.649538
O O13 0.000000 0.107674 0.734570
O O14 0.844316 0.000000 0.734570
O O15 0.870292 0.325080 0.893204
O O16 0.000000 0.190261 0.922210
O O17 0.828189 0.171811 0.984570
O O18 0.809739 0.000000 0.046930
O O19 0.811735 0.500000 0.862043
#
# Coordination Sequence:
#
# PCOD8307223 Si02
#       7
#     8   8   8   8   8   8   8
#     4   8  14  26  45  70 103 143 184 226 269 313
#     4  10  20  33  51  79 115 150 185 227 277 337
#     4   8  14  26  45  70 103 143 184 226 269 313
#     4   9  18  34  55  79 106 133 169 225 287 338
#     4  11  22  37  57  82 109 142 185 232 284 341
#     4  11  22  37  57  82 109 142 185 232 284 341
#     4  10  20  33  51  79 115 150 185 227 277 337
#
# _framework density 18.416164999999999
#
# number of rings (size 3 to 8) (size 9 to 14) (size 15 to 20)
#    0.000    2.429    1.429    2.571    0.000    2.571 
#    0.000    4.286    0.000    0.000    0.000    0.000 
#    0.000    4.571    0.000    0.000    0.000    0.000 
#
# Total GULP energy -693982.680061 kJ/mol
# GULP energy per Si atom -12392.547858 kJ/mol
# Density = 1.837425 g / cm^3
# Si number density = 18.416165 Si / 1000 Ang^3
#
#
#
# Elastic Constant Matrix: (Units=GPa)
#
#
# Indices 1 2 3 4 5 6 
#
# 1 76.4270 25.3859 38.6219 0.0000 0.0000 0.0000
# 2 25.3859 76.4270 38.6219 0.0000 0.0000 0.0000
# 3 38.6219 38.6219 101.1120 0.0000 0.0000 0.0000
# 4 0.0000 0.0000 0.0000 25.9674 0.0000 0.0000
# 5 0.0000 0.0000 0.0000 0.0000 25.9674 0.0000
# 6 0.0000 0.0000 0.0000 0.0000 0.0000 21.3021
#
#
#
# Elastic Compliance Matrix: (Units=1/GPa)
#
#
# Indices 1 2 3 4 5 6 
#
# 1 0.016711 -0.002881 -0.005283 0.000000 0.000000 0.000000
# 2 -0.002881 0.016711 -0.005283 0.000000 0.000000 0.000000
# 3 -0.005283 -0.005283 0.013926 0.000000 0.000000 0.000000
# 4 0.000000 0.000000 0.000000 0.038510 0.000000 0.000000
# 5 0.000000 0.000000 0.000000 0.000000 0.038510 0.000000
# 6 0.000000 0.000000 0.000000 0.000000 0.000000 0.046944
#
#
# Mechanical properties :
#
#
# Convention : Reuss Voigt Hill
#
# Bulk Modulus (GPa) = 48.88827 51.02504 49.95665
# Shear Modulus (GPa) = 24.38770 24.73649 24.56209
#
# Velocity S-wave (km/s) = 3.64298 3.66894 3.65598
# Velocity P-wave (km/s) = 6.65576 6.76128 6.70873
#
# Compressibility (1/GPa) = 0.02045481
#
# Stress axis : x y z
#
# Youngs Moduli (GPa) = 59.84126 59.84126 71.81030
#
# Poissons Ratio (x) = 0.17241 0.37934
# Poissons Ratio (y) = 0.17241 0.37934
# Poissons Ratio (z) = 0.31611 0.31611
#
# Static dielectric constant tensor:
#      x y z
#    x 2.402820 0.000000 0.000000 
#    y 0.000000 2.402820 0.000000 
#    z 0.000000 0.000000 3.384200 
# 
# 
# High freq. dielectric constant tensor:
#      x y z
#    x 1.694830 0.000000 0.000000 
#    y 0.000000 1.694830 0.000000 
#    z 0.000000 0.000000 1.707110 
# 
# From -- ./inp_files/2644.got.cif
#   From: 2010.03.12/outbox.cif.g09.slc.cpg/sg105_2_cif.got.tgz:2644.got - 2010.04.14 01:45:32.
