data_PCOD8307023
_publ_section_title
;
Structure prediction by ZEFSAII (Michael W. Deem and Ramdas Pophale) SiO2 
 PCOD8307023
Probable space group: P 4 C C
;
_chemical_formula_sum "Si O2"
_cell_formula_units_Z 36
_cell_length_a 8.156839
_cell_length_b 8.156839
_cell_length_c 24.238083
_cell_angle_alpha 90.000000
_cell_angle_beta 90.000000
_cell_angle_gamma 90.000000
_cell_volume 1612.657159
_symmetry_space_group_name_H-M "P 4 C C"
_symmetry_group_IT_number 103
_symmetry_cell_setting 'tetragonal'
loop_
_space_group_symop_operation_xyz
x,y,z
-y,x,z
-x,-y,z
y,-x,z
-x,y,1/2+z
x,-y,1/2+z
-y,-x,1/2+z
y,x,1/2+z
loop_
_atom_site_type_symbol
_atom_site_label
_atom_site_fract_x
_atom_site_fract_y
_atom_site_fract_z
Si Si1 0.000000 0.500000 0.275910
Si Si2 0.418434 0.242305 0.188400
Si Si3 0.900697 0.750080 0.588225
Si Si4 0.242305 0.581566 0.863421
Si Si5 0.249920 0.099303 0.963596
O O1 0.887731 0.383320 0.237112
O O2 0.887731 0.616680 0.314709
O O3 0.606073 0.296641 0.194563
O O4 0.393220 0.156370 0.129206
O O5 0.875320 0.685729 0.525910
O O6 0.089621 0.791487 0.598936
O O7 0.296641 0.393927 0.857258
O O8 0.156370 0.606780 0.922615
O O9 0.089621 0.208513 0.952885
#
# Coordination Sequence:
#
# PCOD8307023 Si02
#       5
#     4   8   8   8   8
#     4  12  24  42  62  82 116 162 204 256 316 378
#     4  11  24  41  63  92 124 160 206 261 320 382
#     4   9  19  38  64  94 129 168 209 254 308 373
#     4  11  24  41  63  92 124 160 206 261 320 382
#     4   9  19  38  64  94 129 168 209 254 308 373
#
# _framework density 22.323404
#
# number of rings (size 3 to 8) (size 9 to 14) (size 15 to 20)
#    0.000    1.778    0.000    5.333    0.000    3.556 
#    0.000    7.778    0.000    2.667    0.000    0.000 
#    0.000    0.000    0.000    0.000    0.000    0.000 
#
# Total GULP energy -446466.414498 kJ/mol
# GULP energy per Si atom -12401.844847 kJ/mol
# Density = 2.227259 g / cm^3
# Si number density = 22.323404 Si / 1000 Ang^3
#
#
#
# Elastic Constant Matrix: (Units=GPa)
#
#
# Indices 1 2 3 4 5 6 
#
# 1 109.5939 48.0373 82.8165 0.0000 0.0000 0.0000
# 2 48.0373 109.5939 82.8165 0.0000 0.0000 0.0000
# 3 82.8165 82.8165 203.1788 0.0000 0.0000 0.0000
# 4 0.0000 0.0000 0.0000 44.8290 0.0000 0.0000
# 5 0.0000 0.0000 0.0000 0.0000 44.8290 0.0000
# 6 0.0000 0.0000 0.0000 0.0000 0.0000 36.6808
#
#
#
# Elastic Compliance Matrix: (Units=1/GPa)
#
#
# Indices 1 2 3 4 5 6 
#
# 1 0.013671 -0.002574 -0.004523 0.000000 0.000000 0.000000
# 2 -0.002574 0.013671 -0.004523 0.000000 0.000000 0.000000
# 3 -0.004523 -0.004523 0.008609 0.000000 0.000000 0.000000
# 4 0.000000 0.000000 0.000000 0.022307 0.000000 0.000000
# 5 0.000000 0.000000 0.000000 0.000000 0.022307 0.000000
# 6 0.000000 0.000000 0.000000 0.000000 0.000000 0.027262
#
#
# Mechanical properties :
#
#
# Convention : Reuss Voigt Hill
#
# Bulk Modulus (GPa) = 78.67805 94.41192 86.54499
# Shear Modulus (GPa) = 36.95377 39.18084 38.06731
#
# Velocity S-wave (km/s) = 4.07305 4.19399 4.13396
# Velocity P-wave (km/s) = 7.57897 8.11402 7.85106
#
# Compressibility (1/GPa) = 0.01271003
#
# Stress axis : x y z
#
# Youngs Moduli (GPa) = 73.14827 73.14827 116.15833
#
# Poissons Ratio (x) = 0.18831 0.52538
# Poissons Ratio (y) = 0.18831 0.52538
# Poissons Ratio (z) = 0.33085 0.33085
#
# Static dielectric constant tensor:
#      x y z
#    x 3.903950 0.000000 0.000000 
#    y 0.000000 3.903950 0.000000 
#    z 0.000000 0.000000 4.156650 
# 
# 
# High freq. dielectric constant tensor:
#      x y z
#    x 1.872440 0.000000 0.000000 
#    y 0.000000 1.872440 0.000000 
#    z 0.000000 0.000000 1.892980 
# 
# From -- ./inp_files/1167.got.cif
#   From: 2010.03.12/outbox.cif.g09.slc.cpg/sg103_cif.got.tgz:1167.got - 2010.04.14 01:42:52.
