data_PCOD8307302
_publ_section_title
;
Structure prediction by ZEFSAII (Michael W. Deem and Ramdas Pophale) SiO2 
 PCOD8307302
Probable space group: P 42 M C
;
_chemical_formula_sum "Si O2"
_cell_formula_units_Z 32
_cell_length_a 9.405024
_cell_length_b 9.405024
_cell_length_c 20.519860
_cell_angle_alpha 90.000000
_cell_angle_beta 90.000000
_cell_angle_gamma 90.000000
_cell_volume 1815.073473
_symmetry_space_group_name_H-M "P 42 M C"
_symmetry_group_IT_number 105
_symmetry_cell_setting 'tetragonal'
loop_
_space_group_symop_operation_xyz
x,y,z
-y,x,1/2+z
-x,-y,z
y,-x,1/2+z
-x,y,z
x,-y,z
-y,-x,1/2+z
y,x,1/2+z
loop_
_atom_site_type_symbol
_atom_site_label
_atom_site_fract_x
_atom_site_fract_y
_atom_site_fract_z
Si Si1 0.163847 0.333841 0.115890
Si Si2 0.666932 0.334873 0.489948
Si Si3 0.168729 0.843106 0.237066
Si Si4 0.165293 0.166118 0.882673
O O1 0.180937 0.500000 0.126615
O O2 0.225728 0.262258 0.181429
O O3 0.000000 0.291249 0.102832
O O4 0.256777 0.279783 0.055313
O O5 0.500000 0.311250 0.480072
O O6 0.706792 0.500000 0.495246
O O7 0.745580 0.266700 0.429118
O O8 0.215762 0.794473 0.309302
O O9 0.000000 0.847486 0.236048
O O10 0.229589 0.000000 0.222184
O O11 0.000000 0.199567 0.897150
O O12 0.196081 0.000000 0.892864
#
# Coordination Sequence:
#
# PCOD8307302 Si02
#       4
#     8   8   8   8
#     4   9  17  30  49  70  92 124 164 200 237 286
#     4  10  21  35  49  69 100 135 168 202 241 286
#     4   8  15  29  49  73  98 121 151 196 245 290
#     4   9  18  33  53  76 100 127 161 201 245 292
#
# _framework density 17.630139
#
# number of rings (size 3 to 8) (size 9 to 14) (size 15 to 20)
#    0.000    3.000    0.000    2.250    0.000    4.000 
#    0.000    6.250    0.000    4.500    0.000    0.000 
#    0.000    0.000    0.000    0.000    0.000    0.000 
#
# Total GULP energy -396714.971499 kJ/mol
# GULP energy per Si atom -12397.342859 kJ/mol
# Density = 1.759001 g / cm^3
# Si number density = 17.630139 Si / 1000 Ang^3
#
#
#
# Elastic Constant Matrix: (Units=GPa)
#
#
# Indices 1 2 3 4 5 6 
#
# 1 66.4045 43.7558 72.2839 0.0000 0.0000 0.0000
# 2 43.7558 66.4045 72.2839 0.0000 0.0000 0.0000
# 3 72.2839 72.2839 176.9727 0.0000 0.0000 0.0000
# 4 0.0000 0.0000 0.0000 4.6219 0.0000 0.0000
# 5 0.0000 0.0000 0.0000 0.0000 4.6219 0.0000
# 6 0.0000 0.0000 0.0000 0.0000 0.0000 23.1885
#
#
#
# Elastic Compliance Matrix: (Units=1/GPa)
#
#
# Indices 1 2 3 4 5 6 
#
# 1 0.031859 -0.012294 -0.007991 0.000000 0.000000 0.000000
# 2 -0.012294 0.031859 -0.007991 0.000000 0.000000 0.000000
# 3 -0.007991 -0.007991 0.012179 0.000000 0.000000 0.000000
# 4 0.000000 0.000000 0.000000 0.216361 0.000000 0.000000
# 5 0.000000 0.000000 0.000000 0.000000 0.216361 0.000000
# 6 0.000000 0.000000 0.000000 0.000000 0.000000 0.043125
#
#
# Mechanical properties :
#
#
# Convention : Reuss Voigt Hill
#
# Bulk Modulus (GPa) = 51.69711 76.26988 63.98349
# Shear Modulus (GPa) = 8.13349 14.58368 11.35859
#
# Velocity S-wave (km/s) = 2.15021 2.87923 2.54100
# Velocity P-wave (km/s) = 5.96250 7.37620 6.70670
#
# Compressibility (1/GPa) = 0.01934344
#
# Stress axis : x y z
#
# Youngs Moduli (GPa) = 31.38854 31.38854 82.11176
#
# Poissons Ratio (x) = 0.38589 0.65617
# Poissons Ratio (y) = 0.38589 0.65617
# Poissons Ratio (z) = 0.25083 0.25083
#
# Static dielectric constant tensor:
#      x y z
#    x 3.242650 0.000000 0.000000 
#    y 0.000000 3.242650 0.000000 
#    z 0.000000 0.000000 3.545200 
# 
# 
# High freq. dielectric constant tensor:
#      x y z
#    x 1.663670 0.000000 0.000000 
#    y 0.000000 1.663670 0.000000 
#    z 0.000000 0.000000 1.695950 
# 
# From -- ./inp_files/2344.got.cif
#   From: 2010.03.12/outbox.cif.g09.slc.cpg/sg105_2_cif.got.tgz:2344.got - 2010.04.14 01:45:32.
