data_PCOD8307191
_publ_section_title
;
Structure prediction by ZEFSAII (Michael W. Deem and Ramdas Pophale) SiO2 
 PCOD8307191
Probable space group: P 42 M C
;
_chemical_formula_sum "Si O2"
_cell_formula_units_Z 48
_cell_length_a 9.249742
_cell_length_b 9.249742
_cell_length_c 31.081790
_cell_angle_alpha 90.000000
_cell_angle_beta 90.000000
_cell_angle_gamma 90.000000
_cell_volume 2659.287306
_symmetry_space_group_name_H-M "P 42 M C"
_symmetry_group_IT_number 105
_symmetry_cell_setting 'tetragonal'
loop_
_space_group_symop_operation_xyz
x,y,z
-y,x,1/2+z
-x,-y,z
y,-x,1/2+z
-x,y,z
x,-y,z
-y,-x,1/2+z
y,x,1/2+z
loop_
_atom_site_type_symbol
_atom_site_label
_atom_site_fract_x
_atom_site_fract_y
_atom_site_fract_z
Si Si1 0.672186 0.163758 0.579400
Si Si2 0.831106 0.168047 0.422139
Si Si3 0.663678 0.672380 0.161843
Si Si4 0.666712 0.670431 0.995753
Si Si5 0.840205 0.828330 0.826313
Si Si6 0.669950 0.833831 0.744746
O O1 0.500000 0.163233 0.580487
O O2 0.732978 0.247988 0.621000
O O3 0.728641 0.245720 0.537046
O O4 0.732254 0.000000 0.579455
O O5 0.742732 0.270152 0.453442
O O6 0.779932 0.210857 0.373845
O O7 0.000000 0.198554 0.428594
O O8 0.796257 0.000000 0.431218
O O9 0.500000 0.731396 0.160031
O O10 0.664853 0.500000 0.161217
O O11 0.740411 0.730237 0.205023
O O12 0.500000 0.714185 0.001548
O O13 0.685207 0.500000 0.990916
O O14 0.735119 0.770116 0.789011
O O15 0.000000 0.766810 0.817011
O O16 0.843906 0.000000 0.825867
O O17 0.500000 0.818567 0.748834
O O18 0.715823 0.000000 0.737055
#
# Coordination Sequence:
#
# PCOD8307191 Si02
#       6
#     8   8   8   8   8   8
#     4   9  16  27  45  67  91 122 160 199 237 280
#     4   9  18  33  52  72  94 124 163 202 239 284
#     4   9  16  26  41  63  92 122 150 186 234 282
#     4  10  20  32  47  71 101 129 158 196 244 294
#     4   8  15  29  48  68  90 118 153 191 229 272
#     4   9  16  26  43  67  90 112 144 185 225 269
#
# _framework density 18.049949000000002
#
# number of rings (size 3 to 8) (size 9 to 14) (size 15 to 20)
#    0.000    3.000    0.000    2.500    0.000    6.000 
#    0.000    2.500    0.000    4.500    0.000    2.333 
#    0.000    0.000    0.000    0.000    0.000    0.000 
#
# Total GULP energy -595057.655046 kJ/mol
# GULP energy per Si atom -12397.034480 kJ/mol
# Density = 1.800887 g / cm^3
# Si number density = 18.049949 Si / 1000 Ang^3
#
#
#
# Elastic Constant Matrix: (Units=GPa)
#
#
# Indices 1 2 3 4 5 6 
#
# 1 69.1877 34.1103 64.3379 0.0000 0.0000 0.0000
# 2 34.1103 69.1877 64.3379 0.0000 0.0000 0.0000
# 3 64.3379 64.3379 184.1660 0.0000 0.0000 0.0000
# 4 0.0000 0.0000 0.0000 27.7390 0.0000 0.0000
# 5 0.0000 0.0000 0.0000 0.0000 27.7390 0.0000
# 6 0.0000 0.0000 0.0000 0.0000 0.0000 16.5417
#
#
#
# Elastic Compliance Matrix: (Units=1/GPa)
#
#
# Indices 1 2 3 4 5 6 
#
# 1 0.022824 -0.005685 -0.005988 0.000000 0.000000 0.000000
# 2 -0.005685 0.022824 -0.005988 0.000000 0.000000 0.000000
# 3 -0.005988 -0.005988 0.009613 0.000000 0.000000 0.000000
# 4 0.000000 0.000000 0.000000 0.036050 0.000000 0.000000
# 5 0.000000 0.000000 0.000000 0.000000 0.036050 0.000000
# 6 0.000000 0.000000 0.000000 0.000000 0.000000 0.060453
#
#
# Mechanical properties :
#
#
# Convention : Reuss Voigt Hill
#
# Bulk Modulus (GPa) = 50.14624 72.01264 61.07944
# Shear Modulus (GPa) = 21.75979 25.05429 23.40704
#
# Velocity S-wave (km/s) = 3.47584 3.72970 3.60501
# Velocity P-wave (km/s) = 6.62955 7.65052 7.15826
#
# Compressibility (1/GPa) = 0.01994167
#
# Stress axis : x y z
#
# Youngs Moduli (GPa) = 43.81383 43.81383 104.02184
#
# Poissons Ratio (x) = 0.24906 0.62284
# Poissons Ratio (y) = 0.24906 0.62284
# Poissons Ratio (z) = 0.26234 0.26234
#
# Static dielectric constant tensor:
#      x y z
#    x 3.171680 0.000000 0.000000 
#    y 0.000000 3.171680 0.000000 
#    z 0.000000 0.000000 3.640080 
# 
# 
# High freq. dielectric constant tensor:
#      x y z
#    x 1.669510 0.000000 0.000000 
#    y 0.000000 1.669510 0.000000 
#    z 0.000000 0.000000 1.717680 
# 
# From -- ./inp_files/4719.got.cif
#   From: 2010.03.12/outbox.cif.g09.slc.cpg/sg105_3_cif.got.tgz:4719.got - 2010.04.14 01:45:32.
