data_PCOD8307535
_publ_section_title
;
Structure prediction by ZEFSAII (Michael W. Deem and Ramdas Pophale) SiO2 
 PCOD8307535
Probable space group: I 4 M M
;
_chemical_formula_sum "Si O2"
_cell_formula_units_Z 96
_cell_length_a 35.214623
_cell_length_b 35.214623
_cell_length_c 5.162096
_cell_angle_alpha 90.000000
_cell_angle_beta 90.000000
_cell_angle_gamma 90.000000
_cell_volume 6401.358699
_symmetry_space_group_name_H-M "I 4 M M"
_symmetry_group_IT_number 107
_symmetry_cell_setting 'tetragonal'
loop_
_space_group_symop_operation_xyz
x,y,z
-y,x,z
-x,-y,z
y,-x,z
-x,y,z
x,-y,z
-y,-x,z
y,x,z
1/2+x,1/2+y,1/2+z
1/2-y,1/2+x,1/2+z
1/2-x,1/2-y,1/2+z
1/2+y,1/2-x,1/2+z
1/2-x,1/2+y,1/2+z
1/2+x,1/2-y,1/2+z
1/2-y,1/2-x,1/2+z
1/2+y,1/2+x,1/2+z
loop_
_atom_site_type_symbol
_atom_site_label
_atom_site_fract_x
_atom_site_fract_y
_atom_site_fract_z
Si Si1 0.544627 0.079382 0.576960
Si Si2 0.955137 0.159430 0.071406
Si Si3 0.577968 0.422033 0.575507
Si Si4 0.209334 0.454611 0.041106
Si Si5 0.455472 0.294251 0.063556
Si Si6 0.334519 0.045153 0.041284
Si Si7 0.956257 0.043744 0.576178
O O1 0.500000 0.076623 0.527829
O O2 0.565444 0.053322 0.366541
O O3 0.559653 0.122310 0.546748
O O4 0.945348 0.187655 0.838161
O O5 0.000000 0.149389 0.081046
O O6 0.930629 0.121889 0.027733
O O7 0.940121 0.179275 0.332714
O O8 0.553752 0.446249 0.370828
O O9 0.567680 0.432321 0.870430
O O10 0.210124 0.500000 0.045719
O O11 0.252044 0.437834 0.048632
O O12 0.188335 0.438847 0.787364
O O13 0.186086 0.438960 0.286467
O O14 0.500000 0.290476 0.023607
O O15 0.333925 0.000000 0.047359
O O16 0.000000 0.053201 0.528397
#
# Coordination Sequence:
#
# PCOD8307535 Si02
#       7
#    16  16   8  16  16  16   8
#     4  11  22  34  46  61  84 116 156 199 232 255
#     4  10  19  30  42  58  79 103 134 169 207 250
#     4  12  22  33  46  58  78 108 136 172 216 259
#     4   9  15  26  44  63  81  99 122 161 215 262
#     4   9  17  28  43  62  81  99 122 161 209 256
#     4   9  17  28  43  62  81 103 134 174 217 256
#     4  11  22  34  46  58  70  92 136 188 230 259
#
# _framework density 14.996816000000001
#
# number of rings (size 3 to 8) (size 9 to 14) (size 15 to 20)
#    0.000    2.083    0.000    5.000    0.000    9.667 
#    0.000    0.000    0.000    0.000    0.000    0.000 
#    0.000    0.000    0.000    0.000    0.000    0.000 
#
# Total GULP energy -595262.318445 kJ/mol
# GULP energy per Si atom -12401.298301 kJ/mol
# Density = 1.496268 g / cm^3
# Si number density = 14.996816 Si / 1000 Ang^3
#
#
#
# Elastic Constant Matrix: (Units=GPa)
#
#
# Indices 1 2 3 4 5 6 
#
# 1 453.6633 -369.1595 15.7071 0.0000 0.0000 -0.0075
# 2 -369.1595 453.6633 15.7071 0.0000 0.0000 0.0075
# 3 15.7071 15.7071 87.4729 0.0000 0.0000 0.0000
# 4 0.0000 0.0000 0.0000 20.8510 0.0000 0.0000
# 5 0.0000 0.0000 0.0000 0.0000 20.8510 0.0000
# 6 -0.0075 0.0075 0.0000 0.0000 0.0000 3.4554
#
#
#
# Elastic Compliance Matrix: (Units=1/GPa)
#
#
# Indices 1 2 3 4 5 6 
#
# 1 0.006948 0.005732 -0.002277 0.000000 0.000000 0.000003
# 2 0.005732 0.006948 -0.002277 0.000000 0.000000 -0.000003
# 3 -0.002277 -0.002277 0.012250 0.000000 0.000000 0.000000
# 4 0.000000 0.000000 0.000000 0.047959 0.000000 0.000000
# 5 0.000000 0.000000 0.000000 0.000000 0.047959 0.000000
# 6 0.000003 -0.000003 0.000000 0.000000 0.000000 0.289403
#
#
# Mechanical properties :
#
#
# Convention : Reuss Voigt Hill
#
# Bulk Modulus (GPa) = 35.08458 35.47879 35.28169
# Shear Modulus (GPa) = 11.94427 97.86781 54.90604
#
# Velocity S-wave (km/s) = 2.82521 8.08707 6.05733
# Velocity P-wave (km/s) = 5.83849 10.53138 8.51463
#
# Compressibility (1/GPa) = 0.02850255
#
# Stress axis : x y z
#
# Youngs Moduli (GPa) = 143.93097 143.93097 81.63381
#
# Poissons Ratio (x) = -0.82508 0.18587
# Poissons Ratio (y) = -0.82508 0.18587
# Poissons Ratio (z) = 0.32772 0.32772
#
# Static dielectric constant tensor:
#      x y z
#    x 2.719210 0.000000 0.000000 
#    y 0.000000 2.719210 0.000000 
#    z 0.000000 0.000000 3.092580 
# 
# 
# High freq. dielectric constant tensor:
#      x y z
#    x 1.538680 0.000000 0.000000 
#    y 0.000000 1.538680 0.000000 
#    z 0.000000 0.000000 1.600440 
# 
# From -- ./inp_files/568.got.cif
#   From: 2010.03.12/outbox.cif.g09.slc.cpg/sg107_1_cif.got.tgz:568.got - 2010.04.14 01:49:11.
