data_PCOD8307555
_publ_section_title
;
Structure prediction by ZEFSAII (Michael W. Deem and Ramdas Pophale) SiO2 
 PCOD8307555
Probable space group: I 4 M M
;
_chemical_formula_sum "Si O2"
_cell_formula_units_Z 128
_cell_length_a 18.766032
_cell_length_b 18.766032
_cell_length_c 22.077273
_cell_angle_alpha 90.000000
_cell_angle_beta 90.000000
_cell_angle_gamma 90.000000
_cell_volume 7774.819820
_symmetry_space_group_name_H-M "I 4 M M"
_symmetry_group_IT_number 107
_symmetry_cell_setting 'tetragonal'
loop_
_space_group_symop_operation_xyz
x,y,z
-y,x,z
-x,-y,z
y,-x,z
-x,y,z
x,-y,z
-y,-x,z
y,x,z
1/2+x,1/2+y,1/2+z
1/2-y,1/2+x,1/2+z
1/2-x,1/2-y,1/2+z
1/2+y,1/2-x,1/2+z
1/2-x,1/2+y,1/2+z
1/2+x,1/2-y,1/2+z
1/2-y,1/2-x,1/2+z
1/2+y,1/2+x,1/2+z
loop_
_atom_site_type_symbol
_atom_site_label
_atom_site_fract_x
_atom_site_fract_y
_atom_site_fract_z
Si Si1 0.917952 0.418136 0.168480
Si Si2 0.340213 0.224390 0.961985
Si Si3 0.298565 0.415956 0.854027
Si Si4 0.578723 0.308399 0.324283
Si Si5 0.155189 0.416659 0.789859
Si Si6 0.834127 0.580913 0.393859
Si Si7 0.693671 0.580685 0.188834
Si Si8 0.418474 0.200772 0.082661
O O1 0.902163 0.500000 0.188113
O O2 0.890883 0.366412 0.222597
O O3 0.879682 0.401348 0.104349
O O4 0.000000 0.404725 0.155059
O O5 0.262441 0.262441 0.956922
O O6 0.395743 0.266578 0.919488
O O7 0.339753 0.140230 0.946404
O O8 0.367069 0.229162 0.030569
O O9 0.318336 0.500000 0.853096
O O10 0.369354 0.369354 0.839642
O O11 0.237769 0.396856 0.804122
O O12 0.500000 0.341486 0.322940
O O13 0.630515 0.369486 0.347331
O O14 0.584219 0.246280 0.372149
O O15 0.599218 0.280413 0.257046
O O16 0.143603 0.500000 0.795876
O O17 0.100756 0.384317 0.838146
O O18 0.852775 0.500000 0.416516
O O19 0.668537 0.500000 0.183040
O O20 0.625625 0.625625 0.169569
O O21 0.757146 0.598011 0.143934
O O22 0.500000 0.208978 0.060451
#
# Coordination Sequence:
#
# PCOD8307555 Si02
#       8
#    16  16  16  16  16  16  16  16
#     4   9  17  29  46  67  91 119 147 177 216 263
#     4  10  20  33  47  63  87 120 154 188 227 270
#     4   9  18  32  49  69  92 119 152 190 231 271
#     4   9  17  29  45  66  91 116 143 176 214 257
#     4   9  17  30  47  68  94 120 145 176 218 270
#     4  10  19  30  46  67  89 115 147 183 221 262
#     4   9  17  28  43  63  86 112 140 171 207 247
#     4  10  19  31  46  63  85 114 148 184 219 256
#
# _framework density 16.463404000000001
#
# number of rings (size 3 to 8) (size 9 to 14) (size 15 to 20)
#    0.000    2.625    0.000    2.250    0.000    4.625 
#    0.000    2.500    0.000    0.000    0.000    1.750 
#    0.000    0.000    0.000    0.000    0.000    3.375 
#
# Total GULP energy -793245.424179 kJ/mol
# GULP energy per Si atom -12394.459753 kJ/mol
# Density = 1.642593 g / cm^3
# Si number density = 16.463404 Si / 1000 Ang^3
#
#
#
# Elastic Constant Matrix: (Units=GPa)
#
#
# Indices 1 2 3 4 5 6 
#
# 1 67.2932 33.5564 14.6260 0.0000 0.0000 -0.0008
# 2 33.5564 67.2932 14.6260 0.0000 0.0000 0.0008
# 3 14.6260 14.6260 36.8256 0.0000 0.0000 0.0000
# 4 0.0000 0.0000 0.0000 19.5248 0.0000 0.0000
# 5 0.0000 0.0000 0.0000 0.0000 19.5248 0.0000
# 6 -0.0008 0.0008 0.0000 0.0000 0.0000 18.9846
#
#
#
# Elastic Compliance Matrix: (Units=1/GPa)
#
#
# Indices 1 2 3 4 5 6 
#
# 1 0.020424 -0.009217 -0.004451 0.000000 0.000000 0.000001
# 2 -0.009217 0.020424 -0.004451 0.000000 0.000000 -0.000001
# 3 -0.004451 -0.004451 0.030691 0.000000 0.000000 0.000000
# 4 0.000000 0.000000 0.000000 0.051217 0.000000 0.000000
# 5 0.000000 0.000000 0.000000 0.000000 0.051217 0.000000
# 6 0.000001 -0.000001 0.000000 0.000000 0.000000 0.052674
#
#
# Mechanical properties :
#
#
# Convention : Reuss Voigt Hill
#
# Bulk Modulus (GPa) = 28.32846 33.00322 30.66584
# Shear Modulus (GPa) = 18.20486 18.84707 18.52597
#
# Velocity S-wave (km/s) = 3.32893 3.38714 3.35816
# Velocity P-wave (km/s) = 5.65862 5.94869 5.80547
#
# Compressibility (1/GPa) = 0.03530019
#
# Stress axis : x y z
#
# Youngs Moduli (GPa) = 48.96197 48.96197 32.58325
#
# Poissons Ratio (x) = 0.45129 0.14503
# Poissons Ratio (y) = 0.45129 0.14503
# Poissons Ratio (z) = 0.21793 0.21793
#
# Static dielectric constant tensor:
#      x y z
#    x 3.162880 0.000000 0.000000 
#    y 0.000000 3.162880 0.000000 
#    z 0.000000 0.000000 3.020840 
# 
# 
# High freq. dielectric constant tensor:
#      x y z
#    x 1.632130 0.000000 0.000000 
#    y 0.000000 1.632130 0.000000 
#    z 0.000000 0.000000 1.615120 
# 
# From -- ./inp_files/5466.got.cif
#   From: 2010.03.12/outbox.cif.g09.slc.cpg/sg107_3_cif.got.tgz:5466.got - 2010.04.14 01:49:11.
