data_PCOD8307134
_publ_section_title
;
Structure prediction by ZEFSAII (Michael W. Deem and Ramdas Pophale) SiO2 
 PCOD8307134
Probable space group: P 42 M C
;
_chemical_formula_sum "Si O2"
_cell_formula_units_Z 64
_cell_length_a 14.221400
_cell_length_b 14.221400
_cell_length_c 17.994985
_cell_angle_alpha 90.000000
_cell_angle_beta 90.000000
_cell_angle_gamma 90.000000
_cell_volume 3639.453648
_symmetry_space_group_name_H-M "P 42 M C"
_symmetry_group_IT_number 105
_symmetry_cell_setting 'tetragonal'
loop_
_space_group_symop_operation_xyz
x,y,z
-y,x,1/2+z
-x,-y,z
y,-x,1/2+z
-x,y,z
x,-y,z
-y,-x,1/2+z
y,x,1/2+z
loop_
_atom_site_type_symbol
_atom_site_label
_atom_site_fract_x
_atom_site_fract_y
_atom_site_fract_z
Si Si1 0.772066 0.728564 0.081600
Si Si2 0.606181 0.890292 0.684872
Si Si3 0.890292 0.393819 0.802416
Si Si4 0.769554 0.110088 0.191541
Si Si5 0.603920 0.603536 0.405420
Si Si6 0.230446 0.889912 0.795748
Si Si7 0.396080 0.603536 0.581868
Si Si8 0.271436 0.772066 0.405688
O O1 0.852096 0.659147 0.112004
O O2 0.776090 0.833837 0.114057
O O3 0.674660 0.682890 0.110151
O O4 0.782134 0.735558 0.993644
O O5 0.500000 0.848846 0.693925
O O6 0.668908 0.867419 0.757593
O O7 0.599583 0.000000 0.672218
O O8 0.848847 0.500000 0.793363
O O9 0.867419 0.331092 0.729695
O O10 0.852095 0.340853 0.875284
O O11 0.000000 0.400416 0.815071
O O12 0.854636 0.145364 0.243644
O O13 0.782665 0.000000 0.175056
O O14 0.500000 0.632787 0.376211
O O15 0.629978 0.500000 0.375302
O O16 0.602145 0.603618 0.493644
O O17 0.682891 0.674659 0.377138
O O18 0.223911 0.833837 0.873231
O O19 0.217335 0.000000 0.812232
O O20 0.500000 0.632787 0.611078
O O21 0.370021 0.500000 0.611987
#
# Coordination Sequence:
#
# PCOD8307134 Si02
#       8
#     8   8   8   8   8   8   8   8
#     4  10  19  30  48  75 103 128 157 200 252 299
#     4   9  18  33  52  72  96 128 163 199 241 291
#     4   9  18  33  52  72  96 128 163 199 241 291
#     4   9  19  35  52  70  93 126 168 207 244 293
#     4   8  14  25  41  63  94 130 161 186 219 270
#     4   9  19  35  52  70  93 126 168 207 244 293
#     4   8  14  25  41  63  94 130 161 186 219 270
#     4  10  19  30  48  75 103 128 157 200 252 299
#
# _framework density 17.585055000000001
#
# number of rings (size 3 to 8) (size 9 to 14) (size 15 to 20)
#    0.000    3.000    0.000    1.500    0.000    3.750 
#    0.000    1.250    0.000    0.000    0.000   26.250 
#    0.000    0.000    0.000    0.000    0.000    0.000 
#
# Total GULP energy -793179.143662 kJ/mol
# GULP energy per Si atom -12393.424120 kJ/mol
# Density = 1.754503 g / cm^3
# Si number density = 17.585055 Si / 1000 Ang^3
#
#
#
# Elastic Constant Matrix: (Units=GPa)
#
#
# Indices 1 2 3 4 5 6 
#
# 1 94.2363 34.2449 34.8096 0.0000 0.0000 0.0000
# 2 34.2449 94.2363 34.8096 0.0000 0.0000 0.0000
# 3 34.8096 34.8096 73.7789 0.0000 0.0000 0.0000
# 4 0.0000 0.0000 0.0000 15.0966 0.0000 0.0000
# 5 0.0000 0.0000 0.0000 0.0000 15.0966 0.0000
# 6 0.0000 0.0000 0.0000 0.0000 0.0000 25.8441
#
#
#
# Elastic Compliance Matrix: (Units=1/GPa)
#
#
# Indices 1 2 3 4 5 6 
#
# 1 0.013563 -0.003106 -0.004933 0.000000 0.000000 0.000000
# 2 -0.003106 0.013563 -0.004933 0.000000 0.000000 0.000000
# 3 -0.004933 -0.004933 0.018209 0.000000 0.000000 0.000000
# 4 0.000000 0.000000 0.000000 0.066240 0.000000 0.000000
# 5 0.000000 0.000000 0.000000 0.000000 0.066240 0.000000
# 6 0.000000 0.000000 0.000000 0.000000 0.000000 0.038693
#
#
# Mechanical properties :
#
#
# Convention : Reuss Voigt Hill
#
# Bulk Modulus (GPa) = 51.57713 52.21995 51.89854
# Shear Modulus (GPa) = 20.08695 21.76663 20.92679
#
# Velocity S-wave (km/s) = 3.38342 3.52204 3.45343
# Velocity P-wave (km/s) = 6.68260 6.80440 6.74377
#
# Compressibility (1/GPa) = 0.01938844
#
# Stress axis : x y z
#
# Youngs Moduli (GPa) = 73.73122 73.73122 54.91690
#
# Poissons Ratio (x) = 0.22903 0.27093
# Poissons Ratio (y) = 0.22903 0.27093
# Poissons Ratio (z) = 0.36375 0.36375
#
# Static dielectric constant tensor:
#      x y z
#    x 3.462760 0.000000 0.000000 
#    y 0.000000 3.462760 0.000000 
#    z 0.000000 0.000000 2.924540 
# 
# 
# High freq. dielectric constant tensor:
#      x y z
#    x 1.683670 0.000000 0.000000 
#    y 0.000000 1.683670 0.000000 
#    z 0.000000 0.000000 1.651450 
# 
# From -- ./inp_files/3216.got.cif
#   From: 2010.03.12/outbox.cif.g09.slc.cpg/sg105_2_cif.got.tgz:3216.got - 2010.04.14 01:45:32.
