data_PCOD8307929
_publ_section_title
;
Structure prediction by ZEFSAII (Michael W. Deem and Ramdas Pophale) SiO2 
 PCOD8307929
Probable space group: I 41 M D
;
_chemical_formula_sum "Si O2"
_cell_formula_units_Z 112
_cell_length_a 13.732044
_cell_length_b 13.732044
_cell_length_c 27.017615
_cell_angle_alpha 90.000000
_cell_angle_beta 90.000000
_cell_angle_gamma 90.000000
_cell_volume 5094.685519
_symmetry_space_group_name_H-M "I 41 M D"
_symmetry_group_IT_number 109
_symmetry_cell_setting 'tetragonal'
loop_
_space_group_symop_operation_xyz
x,y,z
-y,1/2+x,1/4+z
-x,-y,z
y,1/2-x,1/4+z
-x,y,z
x,-y,z
-y,1/2-x,1/4+z
y,1/2+x,1/4+z
1/2+x,1/2+y,1/2+z
1/2-y,x,3/4+z
1/2-x,1/2-y,1/2+z
1/2+y,-x,3/4+z
1/2-x,1/2+y,1/2+z
1/2+x,1/2-y,1/2+z
1/2-y,-x,3/4+z
1/2+y,x,3/4+z
loop_
_atom_site_type_symbol
_atom_site_label
_atom_site_fract_x
_atom_site_fract_y
_atom_site_fract_z
Si Si1 0.885527 0.612051 0.406220
Si Si2 0.798810 0.606566 0.227827
Si Si3 0.612971 0.699666 0.759928
Si Si4 0.614547 0.893526 0.211624
Si Si5 0.302790 0.188162 0.114356
Si Si6 0.106247 0.746945 0.870851
Si Si7 0.801474 0.389310 0.012362
O O1 0.850233 0.500000 0.398230
O O2 0.860192 0.649304 0.461938
O O3 0.830733 0.685249 0.368661
O O4 0.000000 0.620721 0.397629
O O5 0.828903 0.500000 0.247962
O O6 0.864937 0.685735 0.254546
O O7 0.816921 0.611327 0.168715
O O8 0.683011 0.621216 0.237665
O O9 0.500000 0.683637 0.767005
O O10 0.662997 0.659678 0.809601
O O11 0.500000 0.896230 0.216001
O O12 0.641954 0.875916 0.154518
O O13 0.651895 0.806402 0.247155
O O14 0.656708 0.000000 0.227439
O O15 0.327123 0.302549 0.123510
O O16 0.116773 0.812218 0.821543
O O17 0.000000 0.692770 0.869544
O O18 0.819000 0.500000 0.993354
#
# Coordination Sequence:
#
# PCOD8307929 Si02
#       7
#    16  16  16  16  16  16  16
#     4  10  22  40  61  87 121 159 199 245 298 355
#     4  11  22  39  60  84 116 154 195 249 299 352
#     4  11  23  38  59  89 120 155 199 246 297 358
#     4  10  21  37  60  91 124 159 198 240 292 355
#     4  12  21  39  64  87 121 159 197 243 300 349
#     4  10  21  38  63  89 120 156 197 245 299 358
#     4  10  20  39  61  85 118 156 197 246 297 354
#
# _framework density 21.983692000000001
#
# number of rings (size 3 to 8) (size 9 to 14) (size 15 to 20)
#    0.000    1.429    4.286    1.286    0.000    1.714 
#    0.000    3.571    0.000    6.857    0.000    0.000 
#    0.000    0.000    0.000    0.000    0.000    0.000 
#
# Total GULP energy -694153.923479 kJ/mol
# GULP energy per Si atom -12395.605776 kJ/mol
# Density = 2.193366 g / cm^3
# Si number density = 21.983692 Si / 1000 Ang^3
#
#
#
# Elastic Constant Matrix: (Units=GPa)
#
#
# Indices 1 2 3 4 5 6 
#
# 1 55.4653 -6.1603 3.2719 0.0000 0.0000 0.0000
# 2 -6.1603 55.4653 3.2719 0.0000 0.0000 0.0000
# 3 3.2719 3.2719 91.5063 0.0000 0.0000 0.0000
# 4 0.0000 0.0000 0.0000 22.7521 0.0000 0.0000
# 5 0.0000 0.0000 0.0000 0.0000 22.7521 0.0000
# 6 0.0000 0.0000 0.0000 0.0000 0.0000 25.2182
#
#
#
# Elastic Compliance Matrix: (Units=1/GPa)
#
#
# Indices 1 2 3 4 5 6 
#
# 1 0.018303 0.002076 -0.000729 0.000000 0.000000 0.000000
# 2 0.002076 0.018303 -0.000729 0.000000 0.000000 0.000000
# 3 -0.000729 -0.000729 0.010980 0.000000 0.000000 0.000000
# 4 0.000000 0.000000 0.000000 0.043952 0.000000 0.000000
# 5 0.000000 0.000000 0.000000 0.000000 0.043952 0.000000
# 6 0.000000 0.000000 0.000000 0.000000 0.000000 0.039654
#
#
# Mechanical properties :
#
#
# Convention : Reuss Voigt Hill
#
# Bulk Modulus (GPa) = 20.48219 22.57822 21.53021
# Shear Modulus (GPa) = 26.29072 27.61471 26.95272
#
# Velocity S-wave (km/s) = 3.46196 3.54806 3.50527
# Velocity P-wave (km/s) = 5.03164 5.20362 5.11836
#
# Compressibility (1/GPa) = 0.04882291
#
# Stress axis : x y z
#
# Youngs Moduli (GPa) = 54.63642 54.63642 91.07201
#
# Poissons Ratio (x) = -0.11341 0.06636
# Poissons Ratio (y) = -0.11341 0.06636
# Poissons Ratio (z) = 0.03981 0.03981
#
# Static dielectric constant tensor:
#      x y z
#    x 4.100440 0.000000 0.000000 
#    y 0.000000 4.100440 0.000000 
#    z 0.000000 0.000000 4.055490 
# 
# 
# High freq. dielectric constant tensor:
#      x y z
#    x 1.851980 0.000000 0.000000 
#    y 0.000000 1.851980 0.000000 
#    z 0.000000 0.000000 1.871730 
# 
# From -- ./inp_files/5028.got.cif
#   From: 2010.03.12/outbox.cif.g09.slc.cpg/sg109_3_cif.got.tgz:5028.got - 2010.04.14 01:55:16.
