data_PCOD8307422
_publ_section_title
;
Structure prediction by ZEFSAII (Michael W. Deem and Ramdas Pophale) SiO2 
 PCOD8307422
Probable space group: P 42 B C
;
_chemical_formula_sum "Si O2"
_cell_formula_units_Z 40
_cell_length_a 18.735653
_cell_length_b 18.735653
_cell_length_c 5.087762
_cell_angle_alpha 90.000000
_cell_angle_beta 90.000000
_cell_angle_gamma 90.000000
_cell_volume 1785.930096
_symmetry_space_group_name_H-M "P 42 B C"
_symmetry_group_IT_number 106
_symmetry_cell_setting 'tetragonal'
loop_
_space_group_symop_operation_xyz
x,y,z
-y,x,1/2+z
-x,-y,z
y,-x,1/2+z
1/2-x,1/2+y,z
1/2+x,1/2-y,z
1/2-y,1/2-x,1/2+z
1/2+y,1/2+x,1/2+z
loop_
_atom_site_type_symbol
_atom_site_label
_atom_site_fract_x
_atom_site_fract_y
_atom_site_fract_z
Si Si1 0.133391 0.101579 0.289050
Si Si2 0.839068 0.062877 0.285900
Si Si3 0.213103 0.651671 0.265002
Si Si4 0.886481 0.676789 0.786641
Si Si5 0.900295 0.467001 0.302787
O O1 0.076075 0.131170 0.494659
O O2 0.205007 0.145611 0.338612
O O3 0.150490 0.019796 0.344349
O O4 0.106103 0.113442 0.994069
O O5 0.756504 0.083914 0.309396
O O6 0.178215 0.707940 0.465371
O O7 0.173833 0.576040 0.295608
O O8 0.839757 0.666935 0.525525
O O9 0.950475 0.619750 0.785770
O O10 0.943734 0.452386 0.568348
#
# Coordination Sequence:
#
# PCOD8307422 Si02
#       5
#     8   8   8   8   8
#     4  12  26  47  72  98 138 170 226 284 333 406
#     4  12  28  47  71 101 131 179 224 279 345 391
#     4  10  21  39  68  98 129 174 221 264 318 391
#     4  12  26  44  68 102 144 177 221 278 340 406
#     4  10  21  39  65  97 134 179 224 263 320 396
#
# _framework density 22.397293999999999
#
# number of rings (size 3 to 8) (size 9 to 14) (size 15 to 20)
#    0.000    0.800    2.000    4.800    0.000    9.600 
#    0.000    0.000    0.000    0.000    0.000    0.000 
#    0.000    0.000    0.000    0.000    0.000    0.000 
#
# Total GULP energy -496290.208184 kJ/mol
# GULP energy per Si atom -12407.255205 kJ/mol
# Density = 2.234632 g / cm^3
# Si number density = 22.397294 Si / 1000 Ang^3
#
#
#
# Elastic Constant Matrix: (Units=GPa)
#
#
# Indices 1 2 3 4 5 6 
#
# 1 83.8183 50.0709 14.9659 0.0000 0.0000 0.0000
# 2 50.0709 83.8183 14.9659 0.0000 0.0000 0.0000
# 3 14.9659 14.9659 111.2993 0.0000 0.0000 0.0000
# 4 0.0000 0.0000 0.0000 -31.9756 0.0000 0.0000
# 5 0.0000 0.0000 0.0000 0.0000 -31.9756 0.0000
# 6 0.0000 0.0000 0.0000 0.0000 0.0000 22.6060
#
#
#
# Elastic Compliance Matrix: (Units=1/GPa)
#
#
# Indices 1 2 3 4 5 6 
#
# 1 0.018666 -0.010966 -0.001035 0.000000 0.000000 0.000000
# 2 -0.010966 0.018666 -0.001035 0.000000 0.000000 0.000000
# 3 -0.001035 -0.001035 0.009263 0.000000 0.000000 0.000000
# 4 0.000000 0.000000 0.000000 -0.031274 0.000000 0.000000
# 5 0.000000 0.000000 0.000000 0.000000 -0.031274 0.000000
# 6 0.000000 0.000000 0.000000 0.000000 0.000000 0.044236
#
#
# Mechanical properties :
#
#
# Convention : Reuss Voigt Hill
#
# Bulk Modulus (GPa) = 48.72769 48.77124 48.74947
# Shear Modulus (GPa) = 81.70233 4.99320 43.34776
#
# Velocity S-wave (km/s) = 6.04631 1.49473 4.40409
# Velocity P-wave (km/s) = 8.39923 4.98013 6.90467
#
# Compressibility (1/GPa) = 0.02052221
#
# Stress axis : x y z
#
# Youngs Moduli (GPa) = 53.57296 53.57296 107.95362
#
# Poissons Ratio (x) = 0.58747 0.11178
# Poissons Ratio (y) = 0.58747 0.11178
# Poissons Ratio (z) = 0.05547 0.05547
#
# Static dielectric constant tensor:
#      x y z
#    x 4.190570 0.000000 0.000000 
#    y 0.000000 4.190570 0.000000 
#    z 0.000000 0.000000 4.094430 
# 
# 
# High freq. dielectric constant tensor:
#      x y z
#    x 1.890670 0.000000 0.000000 
#    y 0.000000 1.890670 0.000000 
#    z 0.000000 0.000000 1.894460 
# 
# From -- ./inp_files/74.got.cif
#   From: 2010.03.12/outbox.cif.g09.slc.cpg/sg106_cif.got.tgz:74.got - 2010.04.14 01:48:02.
