data_PCOD8307819
_publ_section_title
;
Structure prediction by ZEFSAII (Michael W. Deem and Ramdas Pophale) SiO2 
 PCOD8307819
Probable space group: I 4 C M
;
_chemical_formula_sum "Si O2"
_cell_formula_units_Z 96
_cell_length_a 14.977794
_cell_length_b 14.977794
_cell_length_c 22.519469
_cell_angle_alpha 90.000000
_cell_angle_beta 90.000000
_cell_angle_gamma 90.000000
_cell_volume 5051.889610
_symmetry_space_group_name_H-M "I 4 C M"
_symmetry_group_IT_number 108
_symmetry_cell_setting 'tetragonal'
loop_
_space_group_symop_operation_xyz
x,y,z
-y,x,z
-x,-y,z
y,-x,z
-x,y,1/2+z
x,-y,1/2+z
-y,-x,1/2+z
y,x,1/2+z
1/2+x,1/2+y,1/2+z
1/2-y,1/2+x,1/2+z
1/2-x,1/2-y,1/2+z
1/2+y,1/2-x,1/2+z
1/2-x,1/2+y,z
1/2+x,1/2-y,z
1/2-y,1/2-x,z
1/2+y,1/2+x,z
loop_
_atom_site_type_symbol
_atom_site_label
_atom_site_fract_x
_atom_site_fract_y
_atom_site_fract_z
Si Si1 0.179081 0.830254 0.888480
Si Si2 0.820920 0.169747 0.143283
Si Si3 0.569125 0.930876 0.945403
Si Si4 0.760139 0.990387 0.085869
Si Si5 0.569125 0.069125 0.586364
Si Si6 0.509614 0.739862 0.945895
Si Si7 0.605749 0.605749 0.765881
O O1 0.243987 0.743987 0.895604
O O2 0.088532 0.826908 0.927491
O O3 0.151547 0.845090 0.820875
O O4 0.227864 0.917222 0.912471
O O5 0.756015 0.256015 0.136158
O O6 0.911470 0.173091 0.104272
O O7 0.848452 0.154911 0.210888
O O8 0.772135 0.082780 0.119292
O O9 0.544179 0.834201 0.922306
O O10 0.500000 0.000000 0.917052
O O11 0.566061 0.933940 0.015883
O O12 0.665800 0.955821 0.109459
O O13 0.765575 0.007208 0.015882
O O14 0.500000 0.000000 0.614715
O O15 0.500000 0.624595 0.765881
#
# Coordination Sequence:
#
# PCOD8307819 Si02
#       7
#    16  16   8  16   8  16  16
#     4  12  24  42  66  92 127 167 213 264 314 372
#     4  12  24  42  66  92 127 167 213 264 314 372
#     4   9  18  36  58  85 124 167 207 244 300 377
#     4  11  23  38  62  95 130 167 205 254 316 380
#     4   9  18  36  58  85 124 167 207 244 300 377
#     4  11  23  38  62  95 130 167 205 254 316 380
#     4  11  23  44  68  88 117 165 216 264 320 370
#
# _framework density 19.002790000000001
#
# number of rings (size 3 to 8) (size 9 to 14) (size 15 to 20)
#    0.000    1.000    5.000    2.500    0.000    4.000 
#    0.000    1.667    0.000    0.000    0.000    2.333 
#    0.000    0.000    0.000    0.000    0.000    0.000 
#
# Total GULP energy -595147.662398 kJ/mol
# GULP energy per Si atom -12398.909633 kJ/mol
# Density = 1.895954 g / cm^3
# Si number density = 19.002790 Si / 1000 Ang^3
#
#
#
# Elastic Constant Matrix: (Units=GPa)
#
#
# Indices 1 2 3 4 5 6 
#
# 1 94.5442 27.5919 41.4642 0.0000 0.0000 0.0000
# 2 27.5919 94.5442 41.4642 0.0000 0.0000 0.0000
# 3 41.4642 41.4642 100.0790 0.0000 0.0000 0.0000
# 4 0.0000 0.0000 0.0000 11.5571 0.0000 0.0000
# 5 0.0000 0.0000 0.0000 0.0000 11.5571 0.0000
# 6 0.0000 0.0000 0.0000 0.0000 0.0000 38.9343
#
#
#
# Elastic Compliance Matrix: (Units=1/GPa)
#
#
# Indices 1 2 3 4 5 6 
#
# 1 0.013164 -0.001772 -0.004720 0.000000 0.000000 0.000000
# 2 -0.001772 0.013164 -0.004720 0.000000 0.000000 0.000000
# 3 -0.004720 -0.004720 0.013903 0.000000 0.000000 0.000000
# 4 0.000000 0.000000 0.000000 0.086527 0.000000 0.000000
# 5 0.000000 0.000000 0.000000 0.000000 0.086527 0.000000
# 6 0.000000 0.000000 0.000000 0.000000 0.000000 0.025684
#
#
# Mechanical properties :
#
#
# Convention : Reuss Voigt Hill
#
# Bulk Modulus (GPa) = 56.15475 56.68976 56.42226
# Shear Modulus (GPa) = 18.70355 24.31951 21.51153
#
# Velocity S-wave (km/s) = 3.14068 3.58129 3.36820
# Velocity P-wave (km/s) = 6.53963 6.85551 6.69943
#
# Compressibility (1/GPa) = 0.01780793
#
# Stress axis : x y z
#
# Youngs Moduli (GPa) = 75.96347 75.96347 71.92548
#
# Poissons Ratio (x) = 0.13459 0.33949
# Poissons Ratio (y) = 0.13459 0.33949
# Poissons Ratio (z) = 0.35855 0.35855
#
# Static dielectric constant tensor:
#      x y z
#    x 3.762190 0.000000 0.000000 
#    y 0.000000 3.762190 0.000000 
#    z 0.000000 0.000000 3.330040 
# 
# 
# High freq. dielectric constant tensor:
#      x y z
#    x 1.753170 0.000000 0.000000 
#    y 0.000000 1.753170 0.000000 
#    z 0.000000 0.000000 1.728400 
# 
# From -- ./inp_files/2931.got.cif
#   From: 2010.03.12/outbox.cif.g09.slc.cpg/sg108_2_cif.got.tgz:2931.got - 2010.04.14 01:53:11.
