data_PCOD8307166
_publ_section_title
;
Structure prediction by ZEFSAII (Michael W. Deem and Ramdas Pophale) SiO2 
 PCOD8307166
Probable space group: P 42 M C
;
_chemical_formula_sum "Si O2"
_cell_formula_units_Z 32
_cell_length_a 7.975234
_cell_length_b 7.975234
_cell_length_c 23.867047
_cell_angle_alpha 90.000000
_cell_angle_beta 90.000000
_cell_angle_gamma 90.000000
_cell_volume 1518.048186
_symmetry_space_group_name_H-M "P 42 M C"
_symmetry_group_IT_number 105
_symmetry_cell_setting 'tetragonal'
loop_
_space_group_symop_operation_xyz
x,y,z
-y,x,1/2+z
-x,-y,z
y,-x,1/2+z
-x,y,z
x,-y,z
-y,-x,1/2+z
y,x,1/2+z
loop_
_atom_site_type_symbol
_atom_site_label
_atom_site_fract_x
_atom_site_fract_y
_atom_site_fract_z
Si Si1 0.313814 0.696410 0.307770
Si Si2 0.306939 0.000000 0.612686
Si Si3 0.000000 0.299638 0.236678
Si Si4 0.188674 0.193186 0.422760
Si Si5 0.313605 0.197767 0.040236
O O1 0.500000 0.738079 0.283420
O O2 0.288260 0.500000 0.314842
O O3 0.303621 0.777306 0.369075
O O4 0.168190 0.769142 0.267447
O O5 0.265750 0.170688 0.580702
O O6 0.500000 0.000000 0.624926
O O7 0.221053 0.000000 0.674144
O O8 0.000000 0.500000 0.236652
O O9 0.263987 0.289838 0.476687
O O10 0.000000 0.255860 0.408800
O O11 0.188478 0.000000 0.439702
O O12 0.500000 0.252504 0.061129
O O13 0.294243 0.000000 0.039173
#
# Coordination Sequence:
#
# PCOD8307166 Si02
#       5
#     8   4   4   8   8
#     4  10  20  35  58  85 112 150 202 253 305 370
#     4  11  23  39  61  89 123 163 205 260 311 362
#     4   9  20  39  59  81 117 161 203 250 307 361
#     4  10  19  34  58  85 117 154 193 245 311 374
#     4  10  21  39  63  88 118 161 207 253 310 373
#
# _framework density 21.079702000000001
#
# number of rings (size 3 to 8) (size 9 to 14) (size 15 to 20)
#    0.000    2.000    2.500    1.125    0.000    4.000 
#    0.000    5.000    0.000    0.000    0.000    0.000 
#    0.000    0.000    0.000    0.000    0.000    0.000 
#
# Total GULP energy -396692.903805 kJ/mol
# GULP energy per Si atom -12396.653244 kJ/mol
# Density = 2.103172 g / cm^3
# Si number density = 21.079702 Si / 1000 Ang^3
#
#
#
# Elastic Constant Matrix: (Units=GPa)
#
#
# Indices 1 2 3 4 5 6 
#
# 1 97.1618 31.6727 51.2348 0.0000 0.0000 0.0000
# 2 31.6727 97.1618 51.2348 0.0000 0.0000 0.0000
# 3 51.2348 51.2348 154.1528 0.0000 0.0000 0.0000
# 4 0.0000 0.0000 0.0000 26.8452 0.0000 0.0000
# 5 0.0000 0.0000 0.0000 0.0000 26.8452 0.0000
# 6 0.0000 0.0000 0.0000 0.0000 0.0000 19.0992
#
#
#
# Elastic Compliance Matrix: (Units=1/GPa)
#
#
# Indices 1 2 3 4 5 6 
#
# 1 0.012910 -0.002359 -0.003507 0.000000 0.000000 0.000000
# 2 -0.002359 0.012910 -0.003507 0.000000 0.000000 0.000000
# 3 -0.003507 -0.003507 0.008818 0.000000 0.000000 0.000000
# 4 0.000000 0.000000 0.000000 0.037251 0.000000 0.000000
# 5 0.000000 0.000000 0.000000 0.000000 0.037251 0.000000
# 6 0.000000 0.000000 0.000000 0.000000 0.000000 0.052358
#
#
# Mechanical properties :
#
#
# Convention : Reuss Voigt Hill
#
# Bulk Modulus (GPa) = 62.92048 68.52900 65.72474
# Shear Modulus (GPa) = 26.94809 28.84686 27.89748
#
# Velocity S-wave (km/s) = 3.57934 3.70329 3.64184
# Velocity P-wave (km/s) = 6.85535 7.13203 6.99506
#
# Compressibility (1/GPa) = 0.01589308
#
# Stress axis : x y z
#
# Youngs Moduli (GPa) = 77.45710 77.45710 113.40276
#
# Poissons Ratio (x) = 0.18275 0.39768
# Poissons Ratio (y) = 0.18275 0.39768
# Poissons Ratio (z) = 0.27163 0.27163
#
# Static dielectric constant tensor:
#      x y z
#    x 3.769600 0.000000 0.000000 
#    y 0.000000 3.769600 0.000000 
#    z 0.000000 0.000000 3.901270 
# 
# 
# High freq. dielectric constant tensor:
#      x y z
#    x 1.818960 0.000000 0.000000 
#    y 0.000000 1.818960 0.000000 
#    z 0.000000 0.000000 1.818690 
# 
# From -- ./inp_files/3344.got.cif
#   From: 2010.03.12/outbox.cif.g09.slc.cpg/sg105_2_cif.got.tgz:3344.got - 2010.04.14 01:45:32.
