data_PCOD8307948
_publ_section_title
;
Structure prediction by ZEFSAII (Michael W. Deem and Ramdas Pophale) SiO2 
 PCOD8307948
Probable space group: I 41 M D
;
_chemical_formula_sum "Si O2"
_cell_formula_units_Z 48
_cell_length_a 7.837056
_cell_length_b 7.837056
_cell_length_c 37.299221
_cell_angle_alpha 90.000000
_cell_angle_beta 90.000000
_cell_angle_gamma 90.000000
_cell_volume 2290.897518
_symmetry_space_group_name_H-M "I 41 M D"
_symmetry_group_IT_number 109
_symmetry_cell_setting 'tetragonal'
loop_
_space_group_symop_operation_xyz
x,y,z
-y,1/2+x,1/4+z
-x,-y,z
y,1/2-x,1/4+z
-x,y,z
x,-y,z
-y,1/2-x,1/4+z
y,1/2+x,1/4+z
1/2+x,1/2+y,1/2+z
1/2-y,x,3/4+z
1/2-x,1/2-y,1/2+z
1/2+y,-x,3/4+z
1/2-x,1/2+y,1/2+z
1/2+x,1/2-y,1/2+z
1/2-y,-x,3/4+z
1/2+y,x,3/4+z
loop_
_atom_site_type_symbol
_atom_site_label
_atom_site_fract_x
_atom_site_fract_y
_atom_site_fract_z
Si Si1 0.000000 0.188216 0.720011
Si Si2 0.000000 0.692613 0.797367
Si Si3 0.307355 0.300631 0.672040
Si Si4 0.702932 0.191286 0.093155
O O1 0.829449 0.208229 0.696860
O O2 0.000000 0.309459 0.754441
O O3 0.000000 0.000000 0.736280
O O4 0.825549 0.773918 0.813539
O O5 0.000000 0.500000 0.811046
O O6 0.500000 0.249523 0.683592
O O7 0.275328 0.500000 0.676746
O O8 0.279350 0.247742 0.630969
O O9 0.500000 0.189547 0.096005
O O10 0.768007 0.000000 0.083233
#
# Coordination Sequence:
#
# PCOD8307948 Si02
#       4
#     8   8  16  16
#     4  12  26  40  58  88 132 170 208 262 322 382
#     4  10  22  38  60  86 122 168 208 256 320 376
#     4  10  21  39  65  91 118 160 212 264 315 376
#     4   9  18  35  61  90 119 156 208 262 314 380
#
# _framework density 20.952486
#
# number of rings (size 3 to 8) (size 9 to 14) (size 15 to 20)
#    0.000    2.000    1.667    1.500    2.333    3.333 
#    0.000    3.333    0.000    0.000    0.000    0.000 
#    0.000    0.000    0.000    0.000    0.000    0.000 
#
# Total GULP energy -297525.735315 kJ/mol
# GULP energy per Si atom -12396.905638 kJ/mol
# Density = 2.090480 g / cm^3
# Si number density = 20.952486 Si / 1000 Ang^3
#
#
#
# Elastic Constant Matrix: (Units=GPa)
#
#
# Indices 1 2 3 4 5 6 
#
# 1 91.8298 24.9474 49.8732 0.0000 0.0000 0.0000
# 2 24.9474 91.8298 49.8732 0.0000 0.0000 0.0000
# 3 49.8732 49.8732 120.1629 0.0000 0.0000 0.0000
# 4 0.0000 0.0000 0.0000 8.3834 0.0000 0.0000
# 5 0.0000 0.0000 0.0000 0.0000 8.3834 0.0000
# 6 0.0000 0.0000 0.0000 0.0000 0.0000 6.0805
#
#
#
# Elastic Compliance Matrix: (Units=1/GPa)
#
#
# Indices 1 2 3 4 5 6 
#
# 1 0.014109 -0.000843 -0.005506 0.000000 0.000000 0.000000
# 2 -0.000843 0.014109 -0.005506 0.000000 0.000000 0.000000
# 3 -0.005506 -0.005506 0.012893 0.000000 0.000000 0.000000
# 4 0.000000 0.000000 0.000000 0.119283 0.000000 0.000000
# 5 0.000000 0.000000 0.000000 0.000000 0.119283 0.000000
# 6 0.000000 0.000000 0.000000 0.000000 0.000000 0.164460
#
#
# Mechanical properties :
#
#
# Convention : Reuss Voigt Hill
#
# Bulk Modulus (GPa) = 57.46845 61.46779 59.46812
# Shear Modulus (GPa) = 10.55636 16.51137 13.53386
#
# Velocity S-wave (km/s) = 2.24704 2.81025 2.54427
# Velocity P-wave (km/s) = 5.84977 6.31905 6.08893
#
# Compressibility (1/GPa) = 0.01740085
#
# Stress axis : x y z
#
# Youngs Moduli (GPa) = 70.87640 70.87642 77.56312
#
# Poissons Ratio (x) = 0.05972 0.42708
# Poissons Ratio (y) = 0.05972 0.42708
# Poissons Ratio (z) = 0.39026 0.39026
#
# Static dielectric constant tensor:
#      x y z
#    x 3.906220 0.000000 0.000000 
#    y 0.000000 3.906220 0.000000 
#    z 0.000000 0.000000 3.492400 
# 
# 
# High freq. dielectric constant tensor:
#      x y z
#    x 1.820710 0.000000 0.000000 
#    y 0.000000 1.820710 0.000000 
#    z 0.000000 0.000000 1.804700 
# 
# From -- ./inp_files/5255.got.cif
#   From: 2010.03.12/outbox.cif.g09.slc.cpg/sg109_3_cif.got.tgz:5255.got - 2010.04.14 01:55:16.
