data_PCOD8307287
_publ_section_title
;
Structure prediction by ZEFSAII (Michael W. Deem and Ramdas Pophale) SiO2 
 PCOD8307287
Probable space group: P 42 M C
;
_chemical_formula_sum "Si O2"
_cell_formula_units_Z 48
_cell_length_a 8.212282
_cell_length_b 8.212282
_cell_length_c 34.019770
_cell_angle_alpha 90.000000
_cell_angle_beta 90.000000
_cell_angle_gamma 90.000000
_cell_volume 2294.346892
_symmetry_space_group_name_H-M "P 42 M C"
_symmetry_group_IT_number 105
_symmetry_cell_setting 'tetragonal'
loop_
_space_group_symop_operation_xyz
x,y,z
-y,x,1/2+z
-x,-y,z
y,-x,1/2+z
-x,y,z
x,-y,z
-y,-x,1/2+z
y,x,1/2+z
loop_
_atom_site_type_symbol
_atom_site_label
_atom_site_fract_x
_atom_site_fract_y
_atom_site_fract_z
Si Si1 0.685628 0.184243 0.393020
Si Si2 0.189371 0.186345 0.630617
Si Si3 0.684519 0.817932 0.970228
Si Si4 0.308961 0.500000 0.677662
Si Si5 0.500000 0.308822 0.265607
Si Si6 0.182657 0.807106 0.311943
Si Si7 0.322945 0.187999 0.548271
O O1 0.500000 0.194905 0.378876
O O2 0.705266 0.287517 0.432537
O O3 0.792748 0.253610 0.356953
O O4 0.736415 0.000000 0.403215
O O5 0.258065 0.328773 0.658123
O O6 0.222979 0.248232 0.586159
O O7 0.000000 0.178165 0.637950
O O8 0.259517 0.000000 0.638660
O O9 0.500000 0.801160 0.983996
O O10 0.730753 0.000000 0.957418
O O11 0.789271 0.771513 0.007822
O O12 0.500000 0.500000 0.678658
O O13 0.235694 0.500000 0.721670
O O14 0.500000 0.500000 0.265003
O O15 0.669787 0.256593 0.285531
O O16 0.000000 0.749779 0.298066
O O17 0.193713 0.000000 0.311191
O O18 0.500000 0.276132 0.546809
O O19 0.351955 0.000000 0.553902
#
# Coordination Sequence:
#
# PCOD8307287 Si02
#       7
#     8   8   8   4   4   8   8
#     4  10  20  37  61  86 115 154 202 254 307 366
#     4  10  22  41  66  95 125 161 206 259 318 376
#     4  11  24  37  51  79 119 160 203 253 304 358
#     4  11  25  43  65  93 127 169 209 253 313 381
#     4  11  25  43  63  93 131 167 205 255 317 381
#     4  10  21  40  67  94 122 162 210 259 312 374
#     4  10  21  38  60  85 115 155 202 250 304 367
#
# _framework density 20.920985000000002
#
# number of rings (size 3 to 8) (size 9 to 14) (size 15 to 20)
#    0.000    1.667    0.833    3.000    1.167    9.333 
#    0.000    3.333    0.000    0.000    0.000    0.000 
#    0.000    0.000    0.000    0.000    0.000    0.000 
#
# Total GULP energy -594864.738819 kJ/mol
# GULP energy per Si atom -12393.015392 kJ/mol
# Density = 2.087337 g / cm^3
# Si number density = 20.920985 Si / 1000 Ang^3
#
#
#
# Elastic Constant Matrix: (Units=GPa)
#
#
# Indices 1 2 3 4 5 6 
#
# 1 88.3970 36.4100 50.6265 0.0000 0.0000 0.0000
# 2 36.4100 88.3970 50.6265 0.0000 0.0000 0.0000
# 3 50.6265 50.6265 157.4880 0.0000 0.0000 0.0000
# 4 0.0000 0.0000 0.0000 37.9061 0.0000 0.0000
# 5 0.0000 0.0000 0.0000 0.0000 37.9061 0.0000
# 6 0.0000 0.0000 0.0000 0.0000 0.0000 26.3547
#
#
#
# Elastic Compliance Matrix: (Units=1/GPa)
#
#
# Indices 1 2 3 4 5 6 
#
# 1 0.015037 -0.004198 -0.003484 0.000000 0.000000 0.000000
# 2 -0.004198 0.015037 -0.003484 0.000000 0.000000 0.000000
# 3 -0.003484 -0.003484 0.008590 0.000000 0.000000 0.000000
# 4 0.000000 0.000000 0.000000 0.026381 0.000000 0.000000
# 5 0.000000 0.000000 0.000000 0.000000 0.026381 0.000000
# 6 0.000000 0.000000 0.000000 0.000000 0.000000 0.037944
#
#
# Mechanical properties :
#
#
# Convention : Reuss Voigt Hill
#
# Bulk Modulus (GPa) = 61.23442 67.73420 64.48431
# Shear Modulus (GPa) = 31.81714 33.54132 32.67923
#
# Velocity S-wave (km/s) = 3.90401 4.00839 3.95654
# Velocity P-wave (km/s) = 7.04660 7.33958 7.19458
#
# Compressibility (1/GPa) = 0.01633069
#
# Stress axis : x y z
#
# Youngs Moduli (GPa) = 66.50098 66.50098 116.41592
#
# Poissons Ratio (x) = 0.27918 0.40564
# Poissons Ratio (y) = 0.27918 0.40564
# Poissons Ratio (z) = 0.23172 0.23172
#
# Static dielectric constant tensor:
#      x y z
#    x 3.347170 0.000000 0.000000 
#    y 0.000000 3.347170 0.000000 
#    z 0.000000 0.000000 3.852240 
# 
# 
# High freq. dielectric constant tensor:
#      x y z
#    x 1.821720 0.000000 0.000000 
#    y 0.000000 1.821720 0.000000 
#    z 0.000000 0.000000 1.818300 
# 
# From -- ./inp_files/4832.got.cif
#   From: 2010.03.12/outbox.cif.g09.slc.cpg/sg105_3_cif.got.tgz:4832.got - 2010.04.14 01:45:32.
