data_PCOD8307570
_publ_section_title
;
Structure prediction by ZEFSAII (Michael W. Deem and Ramdas Pophale) SiO2 
 PCOD8307570
Probable space group: I 4 M M
;
_chemical_formula_sum "Si O2"
_cell_formula_units_Z 88
_cell_length_a 13.638140
_cell_length_b 13.638140
_cell_length_c 28.922269
_cell_angle_alpha 90.000000
_cell_angle_beta 90.000000
_cell_angle_gamma 90.000000
_cell_volume 5379.509140
_symmetry_space_group_name_H-M "I 4 M M"
_symmetry_group_IT_number 107
_symmetry_cell_setting 'tetragonal'
loop_
_space_group_symop_operation_xyz
x,y,z
-y,x,z
-x,-y,z
y,-x,z
-x,y,z
x,-y,z
-y,-x,z
y,x,z
1/2+x,1/2+y,1/2+z
1/2-y,1/2+x,1/2+z
1/2-x,1/2-y,1/2+z
1/2+y,1/2-x,1/2+z
1/2-x,1/2+y,1/2+z
1/2+x,1/2-y,1/2+z
1/2-y,1/2-x,1/2+z
1/2+y,1/2+x,1/2+z
loop_
_atom_site_type_symbol
_atom_site_label
_atom_site_fract_x
_atom_site_fract_y
_atom_site_fract_z
Si Si1 0.744027 0.744027 0.970398
Si Si2 0.885298 0.388813 0.027330
Si Si3 0.892197 0.616220 0.204691
Si Si4 0.888029 0.269361 0.619490
Si Si5 0.115181 0.613193 0.808889
Si Si6 0.887361 0.112640 0.420390
Si Si7 0.758384 0.758384 0.367392
O O1 0.660324 0.660324 0.966205
O O2 0.777425 0.777425 0.918565
O O3 0.695194 0.835241 0.996497
O O4 0.862776 0.500000 0.009338
O O5 0.850510 0.378181 0.079908
O O6 0.000000 0.367463 0.025706
O O7 0.898502 0.500000 0.200913
O O8 0.815242 0.655212 0.166912
O O9 0.860591 0.646382 0.256421
O O10 0.000000 0.660238 0.194080
O O11 0.826012 0.173989 0.605998
O O12 0.000000 0.235065 0.625669
O O13 0.143566 0.500000 0.820561
O O14 0.167896 0.692395 0.841108
O O15 0.000000 0.627613 0.816345
O O16 0.841690 0.158311 0.373664
O O17 0.000000 0.137480 0.421078
#
# Coordination Sequence:
#
# PCOD8307570 Si02
#       7
#     8  16  16  16  16   8   8
#     4  10  21  34  49  74 102 129 167 211 253 302
#     4  10  20  35  55  77 101 130 168 212 252 296
#     4   8  15  29  49  72  98 129 166 210 255 294
#     4  10  19  31  49  75 107 136 165 202 249 308
#     4   9  18  33  52  75 103 134 172 217 260 302
#     4   9  18  32  48  68 100 135 160 196 256 315
#     4  10  21  30  49  74 102 131 171 215 255 302
#
# _framework density 16.358370000000001
#
# number of rings (size 3 to 8) (size 9 to 14) (size 15 to 20)
#    0.545    2.091    0.909    2.727    1.273    3.091 
#    0.000    1.818    0.000    0.545    0.000    1.273 
#    0.000    0.000    0.000    0.000    0.000    0.000 
#
# Total GULP energy -545279.108797 kJ/mol
# GULP energy per Si atom -12392.707018 kJ/mol
# Density = 1.632114 g / cm^3
# Si number density = 16.358370 Si / 1000 Ang^3
#
#
#
# Elastic Constant Matrix: (Units=GPa)
#
#
# Indices 1 2 3 4 5 6 
#
# 1 86.6308 45.7188 44.8872 0.0000 0.0000 0.0008
# 2 45.7188 86.6308 44.8872 0.0000 0.0000 -0.0008
# 3 44.8872 44.8872 101.0129 0.0000 0.0000 0.0000
# 4 0.0000 0.0000 0.0000 27.4461 0.0000 0.0000
# 5 0.0000 0.0000 0.0000 0.0000 27.4461 0.0000
# 6 0.0008 -0.0008 0.0000 0.0000 0.0000 27.0978
#
#
#
# Elastic Compliance Matrix: (Units=1/GPa)
#
#
# Indices 1 2 3 4 5 6 
#
# 1 0.017629 -0.006813 -0.004806 0.000000 0.000000 -0.000001
# 2 -0.006813 0.017629 -0.004806 0.000000 0.000000 0.000001
# 3 -0.004806 -0.004806 0.014171 0.000000 0.000000 0.000000
# 4 0.000000 0.000000 0.000000 0.036435 0.000000 0.000000
# 5 0.000000 0.000000 0.000000 0.000000 0.036435 0.000000
# 6 -0.000001 0.000001 0.000000 0.000000 0.000000 0.036903
#
#
# Mechanical properties :
#
#
# Convention : Reuss Voigt Hill
#
# Bulk Modulus (GPa) = 60.32102 60.58457 60.45279
# Shear Modulus (GPa) = 25.30605 25.65009 25.47807
#
# Velocity S-wave (km/s) = 3.93743 3.96411 3.95079
# Velocity P-wave (km/s) = 7.59117 7.62026 7.60573
#
# Compressibility (1/GPa) = 0.01657797
#
# Stress axis : x y z
#
# Youngs Moduli (GPa) = 56.72372 56.72372 70.56532
#
# Poissons Ratio (x) = 0.38648 0.33916
# Poissons Ratio (y) = 0.38648 0.33916
# Poissons Ratio (z) = 0.27263 0.27263
#
# Static dielectric constant tensor:
#      x y z
#    x 2.913310 0.000000 0.000000 
#    y 0.000000 2.913310 0.000000 
#    z 0.000000 0.000000 3.182700 
# 
# 
# High freq. dielectric constant tensor:
#      x y z
#    x 1.612750 0.000000 0.000000 
#    y 0.000000 1.612750 0.000000 
#    z 0.000000 0.000000 1.635670 
# 
# From -- ./inp_files/5656.got.cif
#   From: 2010.03.12/outbox.cif.g09.slc.cpg/sg107_3_cif.got.tgz:5656.got - 2010.04.14 01:49:11.
