data_PCOD8307952
_publ_section_title
;
Structure prediction by ZEFSAII (Michael W. Deem and Ramdas Pophale) SiO2 
 PCOD8307952
Probable space group: I 41 M D
;
_chemical_formula_sum "Si O2"
_cell_formula_units_Z 112
_cell_length_a 28.816326
_cell_length_b 28.816326
_cell_length_c 6.701860
_cell_angle_alpha 90.000000
_cell_angle_beta 90.000000
_cell_angle_gamma 90.000000
_cell_volume 5565.094824
_symmetry_space_group_name_H-M "I 41 M D"
_symmetry_group_IT_number 109
_symmetry_cell_setting 'tetragonal'
loop_
_space_group_symop_operation_xyz
x,y,z
-y,1/2+x,1/4+z
-x,-y,z
y,1/2-x,1/4+z
-x,y,z
x,-y,z
-y,1/2-x,1/4+z
y,1/2+x,1/4+z
1/2+x,1/2+y,1/2+z
1/2-y,x,3/4+z
1/2-x,1/2-y,1/2+z
1/2+y,-x,3/4+z
1/2-x,1/2+y,1/2+z
1/2+x,1/2-y,1/2+z
1/2-y,-x,3/4+z
1/2+y,x,3/4+z
loop_
_atom_site_type_symbol
_atom_site_label
_atom_site_fract_x
_atom_site_fract_y
_atom_site_fract_z
Si Si1 0.377844 0.718742 0.574770
Si Si2 0.117662 0.112562 0.191605
Si Si3 0.246588 0.813659 0.499523
Si Si4 0.551981 0.385552 0.056087
Si Si5 0.892913 0.722220 0.461591
Si Si6 0.213131 0.553141 0.982356
Si Si7 0.551994 0.553256 0.421423
O O1 0.379212 0.667370 0.660203
O O2 0.332191 0.723620 0.436855
O O3 0.376024 0.756532 0.751308
O O4 0.421965 0.728613 0.435485
O O5 0.091378 0.103594 0.397069
O O6 0.169132 0.090445 0.185915
O O7 0.088223 0.086966 0.024753
O O8 0.208825 0.778772 0.582560
O O9 0.219735 0.853349 0.380257
O O10 0.500000 0.377709 0.963538
O O11 0.566494 0.339748 0.179778
O O12 0.550795 0.431125 0.192292
O O13 0.934404 0.754015 0.545286
O O14 0.218744 0.500000 0.032128
O O15 0.500000 0.558768 0.513178
O O16 0.568445 0.500000 0.436054
#
# Coordination Sequence:
#
# PCOD8307952 Si02
#       7
#    16  16  16  16  16  16  16
#     4  11  23  41  62  92 128 170 217 267 321 391
#     4  12  23  38  69  93 132 168 215 264 334 385
#     4  11  26  40  62  88 124 170 220 271 326 379
#     4  10  21  40  67  95 123 167 217 271 324 386
#     4  11  25  41  60  94 134 169 214 268 321 388
#     4  10  22  41  65  92 122 166 222 264 311 383
#     4  10  23  43  67  99 132 165 215 274 334 401
#
# _framework density 20.125444999999999
#
# number of rings (size 3 to 8) (size 9 to 14) (size 15 to 20)
#    0.000    1.286    2.857    2.143    6.000    4.571 
#    0.000    2.857    0.000    0.000    0.000    0.000 
#    0.000    0.000    0.000    0.000    0.000    0.000 
#
# Total GULP energy -694448.607276 kJ/mol
# GULP energy per Si atom -12400.867987 kJ/mol
# Density = 2.007964 g / cm^3
# Si number density = 20.125445 Si / 1000 Ang^3
#
#
#
# Elastic Constant Matrix: (Units=GPa)
#
#
# Indices 1 2 3 4 5 6 
#
# 1 87.2535 14.4436 18.7691 0.0000 0.0000 0.0000
# 2 14.4436 87.2535 18.7691 0.0000 0.0000 0.0000
# 3 18.7691 18.7691 83.3768 0.0000 0.0000 0.0000
# 4 0.0000 0.0000 0.0000 31.3919 0.0000 0.0000
# 5 0.0000 0.0000 0.0000 0.0000 31.3919 0.0000
# 6 0.0000 0.0000 0.0000 0.0000 0.0000 37.6098
#
#
#
# Elastic Compliance Matrix: (Units=1/GPa)
#
#
# Indices 1 2 3 4 5 6 
#
# 1 0.012229 -0.001505 -0.002414 0.000000 0.000000 0.000000
# 2 -0.001505 0.012229 -0.002414 0.000000 0.000000 0.000000
# 3 -0.002414 -0.002414 0.013081 0.000000 0.000000 0.000000
# 4 0.000000 0.000000 0.000000 0.031855 0.000000 0.000000
# 5 0.000000 0.000000 0.000000 0.000000 0.031855 0.000000
# 6 0.000000 0.000000 0.000000 0.000000 0.000000 0.026589
#
#
# Mechanical properties :
#
#
# Convention : Reuss Voigt Hill
#
# Bulk Modulus (GPa) = 40.20501 40.20524 40.20512
# Shear Modulus (GPa) = 33.60299 33.80555 33.70427
#
# Velocity S-wave (km/s) = 4.09060 4.10291 4.09676
# Velocity P-wave (km/s) = 6.50625 6.51658 6.51142
#
# Compressibility (1/GPa) = 0.02487252
#
# Stress axis : x y z
#
# Youngs Moduli (GPa) = 81.77073 81.77073 76.44879
#
# Poissons Ratio (x) = 0.12307 0.18456
# Poissons Ratio (y) = 0.12307 0.18456
# Poissons Ratio (z) = 0.19741 0.19741
#
# Static dielectric constant tensor:
#      x y z
#    x 3.702860 0.000000 0.000000 
#    y 0.000000 3.702860 0.000000 
#    z 0.000000 0.000000 3.691440 
# 
# 
# High freq. dielectric constant tensor:
#      x y z
#    x 1.785490 0.000000 0.000000 
#    y 0.000000 1.785490 0.000000 
#    z 0.000000 0.000000 1.791790 
# 
# From -- ./inp_files/699.got.cif
#   From: 2010.03.12/outbox.cif.g09.slc.cpg/sg109_1_cif.got.tgz:699.got - 2010.04.14 01:55:16.
