data_PCOD8307232
_publ_section_title
;
Structure prediction by ZEFSAII (Michael W. Deem and Ramdas Pophale) SiO2 
 PCOD8307232
Probable space group: P 42 M C
;
_chemical_formula_sum "Si O2"
_cell_formula_units_Z 34
_cell_length_a 7.831404
_cell_length_b 7.831404
_cell_length_c 26.520133
_cell_angle_alpha 90.000000
_cell_angle_beta 90.000000
_cell_angle_gamma 90.000000
_cell_volume 1626.503323
_symmetry_space_group_name_H-M "P 42 M C"
_symmetry_group_IT_number 105
_symmetry_cell_setting 'tetragonal'
loop_
_space_group_symop_operation_xyz
x,y,z
-y,x,1/2+z
-x,-y,z
y,-x,1/2+z
-x,y,z
x,-y,z
-y,-x,1/2+z
y,x,1/2+z
loop_
_atom_site_type_symbol
_atom_site_label
_atom_site_fract_x
_atom_site_fract_y
_atom_site_fract_z
Si Si1 0.690171 0.806578 0.006860
Si Si2 0.693387 0.304682 0.399705
Si Si3 0.500000 0.000000 0.258653
Si Si4 0.696492 0.188346 0.609801
Si Si5 0.188159 0.000000 0.333982
Si Si6 0.500000 0.295562 0.179087
O O1 0.500000 0.750445 0.023530
O O2 0.808765 0.786631 0.055539
O O3 0.695497 0.000000 0.988021
O O4 0.749680 0.697136 0.958677
O O5 0.500000 0.292992 0.380445
O O6 0.763003 0.500000 0.393260
O O7 0.801399 0.171042 0.367549
O O8 0.329281 0.000000 0.291147
O O9 0.500000 0.178114 0.228262
O O10 0.500000 0.223126 0.599121
O O11 0.762330 0.332188 0.648106
O O12 0.729348 0.000000 0.633429
O O13 0.000000 0.000000 0.308988
O O14 0.500000 0.500000 0.192280
#
# Coordination Sequence:
#
# PCOD8307232 Si02
#       6
#     8   8   2   8   4   4
#     4  10  20  33  55  91 133 176 219 258 322 399
#     4  10  21  40  66  94 133 181 225 276 333 403
#     4  12  28  48  72 100 124 176 236 284 348 394
#     4  10  21  37  59  89 125 171 218 265 324 400
#     4  12  26  46  70 100 136 172 226 290 340 409
#     4  10  24  46  70  92 130 170 218 290 336 391
#
# _framework density 20.903739000000002
#
# number of rings (size 3 to 8) (size 9 to 14) (size 15 to 20)
#    0.000    1.647    2.353    1.412    3.294    4.706 
#    0.000    0.000    0.000    0.000    0.000    0.000 
#    0.000    0.000    0.000    0.000    0.000    0.000 
#
# Total GULP energy -421526.624276 kJ/mol
# GULP energy per Si atom -12397.841890 kJ/mol
# Density = 2.085616 g / cm^3
# Si number density = 20.903739 Si / 1000 Ang^3
#
#
#
# Elastic Constant Matrix: (Units=GPa)
#
#
# Indices 1 2 3 4 5 6 
#
# 1 117.7858 40.7557 55.3805 0.0000 0.0000 0.0000
# 2 40.7557 117.7858 55.3805 0.0000 0.0000 0.0000
# 3 55.3805 55.3805 111.7527 0.0000 0.0000 0.0000
# 4 0.0000 0.0000 0.0000 7.6840 0.0000 0.0000
# 5 0.0000 0.0000 0.0000 0.0000 7.6840 0.0000
# 6 0.0000 0.0000 0.0000 0.0000 0.0000 14.5710
#
#
#
# Elastic Compliance Matrix: (Units=1/GPa)
#
#
# Indices 1 2 3 4 5 6 
#
# 1 0.011315 -0.001667 -0.004781 0.000000 0.000000 0.000000
# 2 -0.001667 0.011315 -0.004781 0.000000 0.000000 0.000000
# 3 -0.004781 -0.004781 0.013687 0.000000 0.000000 0.000000
# 4 0.000000 0.000000 0.000000 0.130141 0.000000 0.000000
# 5 0.000000 0.000000 0.000000 0.000000 0.130141 0.000000
# 6 0.000000 0.000000 0.000000 0.000000 0.000000 0.068629
#
#
# Mechanical properties :
#
#
# Convention : Reuss Voigt Hill
#
# Bulk Modulus (GPa) = 72.15979 72.26198 72.21088
# Shear Modulus (GPa) = 12.74519 19.04165 15.89342
#
# Velocity S-wave (km/s) = 2.47191 3.02142 2.76037
# Velocity P-wave (km/s) = 6.53774 6.84222 6.69171
#
# Compressibility (1/GPa) = 0.01385813
#
# Stress axis : x y z
#
# Youngs Moduli (GPa) = 88.38001 88.38001 73.06255
#
# Poissons Ratio (x) = 0.14734 0.34931
# Poissons Ratio (y) = 0.14734 0.34931
# Poissons Ratio (z) = 0.42255 0.42255
#
# Static dielectric constant tensor:
#      x y z
#    x 3.852430 0.000000 0.000000 
#    y 0.000000 3.852430 0.000000 
#    z 0.000000 0.000000 3.480700 
# 
# 
# High freq. dielectric constant tensor:
#      x y z
#    x 1.824600 0.000000 0.000000 
#    y 0.000000 1.824600 0.000000 
#    z 0.000000 0.000000 1.791540 
# 
# From -- ./inp_files/3502.got.cif
#   From: 2010.03.12/outbox.cif.g09.slc.cpg/sg105_2_cif.got.tgz:3502.got - 2010.04.14 01:45:32.
