data_PCOD8307525
_publ_section_title
;
Structure prediction by ZEFSAII (Michael W. Deem and Ramdas Pophale) SiO2 
 PCOD8307525
Probable space group: I 4 M M
;
_chemical_formula_sum "Si O2"
_cell_formula_units_Z 96
_cell_length_a 14.185425
_cell_length_b 14.185425
_cell_length_c 30.858585
_cell_angle_alpha 90.000000
_cell_angle_beta 90.000000
_cell_angle_gamma 90.000000
_cell_volume 6209.558341
_symmetry_space_group_name_H-M "I 4 M M"
_symmetry_group_IT_number 107
_symmetry_cell_setting 'tetragonal'
loop_
_space_group_symop_operation_xyz
x,y,z
-y,x,z
-x,-y,z
y,-x,z
-x,y,z
x,-y,z
-y,-x,z
y,x,z
1/2+x,1/2+y,1/2+z
1/2-y,1/2+x,1/2+z
1/2-x,1/2-y,1/2+z
1/2+y,1/2-x,1/2+z
1/2-x,1/2+y,1/2+z
1/2+x,1/2-y,1/2+z
1/2-y,1/2-x,1/2+z
1/2+y,1/2+x,1/2+z
loop_
_atom_site_type_symbol
_atom_site_label
_atom_site_fract_x
_atom_site_fract_y
_atom_site_fract_z
Si Si1 0.604006 0.888196 0.606180
Si Si2 0.737638 0.891563 0.776609
Si Si3 0.258457 0.891953 0.678888
Si Si4 0.605108 0.111311 0.852869
Si Si5 0.888019 0.265377 0.932405
Si Si6 0.112029 0.604754 0.010874
O O1 0.500000 0.843616 0.611842
O O2 0.668747 0.846973 0.644532
O O3 0.646446 0.862534 0.558748
O O4 0.596832 0.000000 0.610466
O O5 0.831026 0.831026 0.785665
O O6 0.700599 0.879129 0.727430
O O7 0.653627 0.857220 0.807887
O O8 0.765085 0.000000 0.786245
O O9 0.158790 0.841211 0.674369
O O10 0.238484 0.000000 0.667881
O O11 0.500000 0.156283 0.855623
O O12 0.669354 0.145371 0.892656
O O13 0.595264 0.000000 0.855022
O O14 0.834483 0.165518 0.929959
O O15 0.000000 0.245354 0.931631
O O16 0.854625 0.319536 0.975679
O O17 0.151840 0.500000 0.999565
O O18 0.000000 0.598319 0.011469
#
# Coordination Sequence:
#
# PCOD8307525 Si02
#       6
#    16  16  16  16  16  16
#     4   8  14  25  41  60  81 105 135 173 215 252
#     4   9  17  28  41  59  84 112 140 167 196 236
#     4   9  17  27  39  57  82 112 142 169 198 236
#     4   9  17  29  44  60  78 101 129 164 204 238
#     4  10  19  29  42  61  85 112 139 164 193 235
#     4   8  14  26  43  61  81 105 135 173 213 248
#
# _framework density 15.460036000000001
#
# number of rings (size 3 to 8) (size 9 to 14) (size 15 to 20)
#    0.000    3.167    0.000    2.000    0.000    3.833 
#    0.000    5.000    0.000    3.000    0.000    0.000 
#    0.000   16.000    0.000    7.333    0.000    2.000 
#
# Total GULP energy -594898.761114 kJ/mol
# GULP energy per Si atom -12393.724190 kJ/mol
# Density = 1.542485 g / cm^3
# Si number density = 15.460036 Si / 1000 Ang^3
#
#
#
# Elastic Constant Matrix: (Units=GPa)
#
#
# Indices 1 2 3 4 5 6 
#
# 1 62.7999 35.2060 48.0066 0.0000 0.0000 -0.0001
# 2 35.2060 62.7999 48.0066 0.0000 0.0000 0.0001
# 3 48.0066 48.0066 126.4123 0.0000 0.0000 0.0000
# 4 0.0000 0.0000 0.0000 19.1889 0.0000 0.0000
# 5 0.0000 0.0000 0.0000 0.0000 19.1889 0.0000
# 6 -0.0001 0.0001 0.0000 0.0000 0.0000 12.7233
#
#
#
# Elastic Compliance Matrix: (Units=1/GPa)
#
#
# Indices 1 2 3 4 5 6 
#
# 1 0.026244 -0.009996 -0.006171 0.000000 0.000000 0.000000
# 2 -0.009996 0.026244 -0.006171 0.000000 0.000000 0.000000
# 3 -0.006171 -0.006171 0.012597 0.000000 0.000000 0.000000
# 4 0.000000 0.000000 0.000000 0.052113 0.000000 0.000000
# 5 0.000000 0.000000 0.000000 0.000000 0.052113 0.000000
# 6 0.000000 0.000000 0.000000 0.000000 0.000000 0.078596
#
#
# Mechanical properties :
#
#
# Convention : Reuss Voigt Hill
#
# Bulk Modulus (GPa) = 48.99044 57.16115 53.07579
# Shear Modulus (GPa) = 16.70084 18.27310 17.48697
#
# Velocity S-wave (km/s) = 3.29029 3.44169 3.36684
# Velocity P-wave (km/s) = 6.79647 7.26962 7.03702
#
# Compressibility (1/GPa) = 0.02041215
#
# Stress axis : x y z
#
# Youngs Moduli (GPa) = 38.10360 38.10360 79.38189
#
# Poissons Ratio (x) = 0.38087 0.48983
# Poissons Ratio (y) = 0.38087 0.48983
# Poissons Ratio (z) = 0.23512 0.23512
#
# Static dielectric constant tensor:
#      x y z
#    x 2.780260 0.000000 0.000000 
#    y 0.000000 2.780260 0.000000 
#    z 0.000000 0.000000 3.356590 
# 
# 
# High freq. dielectric constant tensor:
#      x y z
#    x 1.559740 0.000000 0.000000 
#    y 0.000000 1.559740 0.000000 
#    z 0.000000 0.000000 1.614060 
# 
# From -- ./inp_files/6077.got.cif
#   From: 2010.03.12/outbox.cif.g09.slc.cpg/sg107_4_cif.got.tgz:6077.got - 2010.04.14 01:49:11.
