data_PCOD8307080
_publ_section_title
;
Structure prediction by ZEFSAII (Michael W. Deem and Ramdas Pophale) SiO2 
 PCOD8307080
Probable space group: P 4 N C 
;
_chemical_formula_sum "Si O2"
_cell_formula_units_Z 56
_cell_length_a 10.187200
_cell_length_b 10.187200
_cell_length_c 27.587996
_cell_angle_alpha 90.000000
_cell_angle_beta 90.000000
_cell_angle_gamma 90.000000
_cell_volume 2863.055846
_symmetry_space_group_name_H-M "P 4 N C "
_symmetry_group_IT_number 104
_symmetry_cell_setting 'tetragonal'
loop_
_space_group_symop_operation_xyz
x,y,z
-y,x,z
-x,-y,z
y,-x,z
1/2-x,1/2+y,1/2+z
1/2+x,1/2-y,1/2+z
1/2-y,1/2-x,1/2+z
1/2+y,1/2+x,1/2+z
loop_
_atom_site_type_symbol
_atom_site_label
_atom_site_fract_x
_atom_site_fract_y
_atom_site_fract_z
Si Si1 0.819209 0.896194 0.055370
Si Si2 0.714246 0.475338 0.194559
Si Si3 0.797734 0.065421 0.515543
Si Si4 0.956751 0.354267 0.598097
Si Si5 0.538876 0.850887 0.398982
Si Si6 0.474527 0.285081 0.302754
Si Si7 0.773588 0.188160 0.954157
O O1 0.691052 0.828521 0.078308
O O2 0.952115 0.822736 0.072462
O O3 0.818627 0.882359 0.996945
O O4 0.642267 0.612863 0.186515
O O5 0.829412 0.461702 0.155356
O O6 0.775316 0.467746 0.248453
O O7 0.696120 0.125932 0.477196
O O8 0.917270 0.163578 0.506098
O O9 0.739514 0.061550 0.570199
O O10 0.000000 0.500000 0.585853
O O11 0.540792 0.833116 0.340837
O O12 0.681790 0.812715 0.421008
O O13 0.439906 0.740070 0.420532
O O14 0.500000 0.000000 0.411314
O O15 0.612813 0.356871 0.310058
#
# Coordination Sequence:
#
# PCOD8307080 Si02
#       7
#     8   8   8   8   8   8   8
#     4  11  24  40  58  81 119 162 202 252 297 351
#     4   9  20  39  64  91 121 155 197 250 314 371
#     4  11  23  38  56  80 122 167 198 237 293 355
#     4  12  25  37  60  88 120 159 207 254 296 363
#     4  12  25  37  63  91 123 157 206 256 314 370
#     4   9  18  39  66  92 119 151 198 260 315 366
#     4  12  23  39  58  86 120 163 204 249 299 363
#
# _framework density 19.559521
#
# number of rings (size 3 to 8) (size 9 to 14) (size 15 to 20)
#    0.000    1.143    4.286    3.429    2.000    2.000 
#    0.000    0.000    0.000    0.000    0.000    0.000 
#    0.000    0.000    0.000    0.000    0.000    0.000 
#
# Total GULP energy -693974.522930 kJ/mol
# GULP energy per Si atom -12392.402195 kJ/mol
# Density = 1.951500 g / cm^3
# Si number density = 19.559521 Si / 1000 Ang^3
#
#
#
# Elastic Constant Matrix: (Units=GPa)
#
#
# Indices 1 2 3 4 5 6 
#
# 1 58.7104 39.9615 36.2778 0.0000 0.0000 0.0000
# 2 39.9615 58.7104 36.2778 0.0000 0.0000 0.0000
# 3 36.2778 36.2778 127.1927 0.0000 0.0000 0.0000
# 4 0.0000 0.0000 0.0000 29.2838 0.0000 0.0000
# 5 0.0000 0.0000 0.0000 0.0000 29.2838 0.0000
# 6 0.0000 0.0000 0.0000 0.0000 0.0000 -526.5770
#
#
#
# Elastic Compliance Matrix: (Units=1/GPa)
#
#
# Indices 1 2 3 4 5 6 
#
# 1 0.033080 -0.020256 -0.003658 0.000000 0.000000 0.000000
# 2 -0.020256 0.033080 -0.003658 0.000000 0.000000 0.000000
# 3 -0.003658 -0.003658 0.009949 0.000000 0.000000 0.000000
# 4 0.000000 0.000000 0.000000 0.034149 0.000000 0.000000
# 5 0.000000 0.000000 0.000000 0.000000 0.034149 0.000000
# 6 0.000000 0.000000 0.000000 0.000000 0.000000 -0.001899
#
#
# Mechanical properties :
#
#
# Convention : Reuss Voigt Hill
#
# Bulk Modulus (GPa) = 47.69597 52.18307 49.93952
# Shear Modulus (GPa) = 24.43326 -84.79544 -30.18109
#
# Velocity S-wave (km/s) = 3.53820 -6.59141 -3.93241
# Velocity P-wave (km/s) = 6.41325 5.58496 2.22913
#
# Compressibility (1/GPa) = 0.02096613
#
# Stress axis : x y z
#
# Youngs Moduli (GPa) = 30.22946 30.22946 100.51696
#
# Poissons Ratio (x) = 0.61233 0.36766
# Poissons Ratio (y) = 0.61233 0.36766
# Poissons Ratio (z) = 0.11057 0.11057
#
# Static dielectric constant tensor:
#      x y z
#    x 3.396680 0.000000 0.000000 
#    y 0.000000 3.396680 0.000000 
#    z 0.000000 0.000000 3.521080 
# 
# 
# High freq. dielectric constant tensor:
#      x y z
#    x 1.754630 0.000000 0.000000 
#    y 0.000000 1.754630 0.000000 
#    z 0.000000 0.000000 1.753530 
# 
# From -- ./inp_files/1668.got.cif
#   From: 2010.03.12/outbox.cif.g09.slc.cpg/sg104_cif.got.tgz:1668.got - 2010.04.14 01:44:05.
