data_PCOD8307148
_publ_section_title
;
Structure prediction by ZEFSAII (Michael W. Deem and Ramdas Pophale) SiO2 
 PCOD8307148
Probable space group: P 42 M C
;
_chemical_formula_sum "Si O2"
_cell_formula_units_Z 56
_cell_length_a 14.055248
_cell_length_b 14.055248
_cell_length_c 15.642963
_cell_angle_alpha 90.000000
_cell_angle_beta 90.000000
_cell_angle_gamma 90.000000
_cell_volume 3090.267283
_symmetry_space_group_name_H-M "P 42 M C"
_symmetry_group_IT_number 105
_symmetry_cell_setting 'tetragonal'
loop_
_space_group_symop_operation_xyz
x,y,z
-y,x,1/2+z
-x,-y,z
y,-x,1/2+z
-x,y,z
x,-y,z
-y,-x,1/2+z
y,x,1/2+z
loop_
_atom_site_type_symbol
_atom_site_label
_atom_site_fract_x
_atom_site_fract_y
_atom_site_fract_z
Si Si1 0.887927 0.225605 0.123900
Si Si2 0.806164 0.889534 0.968107
Si Si3 0.106409 0.395163 0.410721
Si Si4 0.388921 0.391853 0.473344
Si Si5 0.887196 0.107802 0.288059
Si Si6 0.743562 0.387113 0.127028
Si Si7 0.393154 0.286573 0.811132
O O1 0.849656 0.169344 0.207592
O O2 0.840691 0.329327 0.114818
O O3 0.000000 0.241426 0.127843
O O4 0.861835 0.165099 0.040908
O O5 0.691554 0.871519 0.975981
O O6 0.841937 0.852450 0.875448
O O7 0.831236 0.000000 0.979181
O O8 0.118976 0.500000 0.455372
O O9 0.173414 0.388676 0.328008
O O10 0.000000 0.382427 0.374490
O O11 0.500000 0.389624 0.459195
O O12 0.351954 0.500000 0.487628
O O13 0.357930 0.330892 0.554611
O O14 0.341779 0.342260 0.389467
O O15 0.000000 0.104229 0.284920
O O16 0.846213 0.000000 0.283053
O O17 0.766661 0.500000 0.127744
O O18 0.695094 0.352766 0.216491
O O19 0.500000 0.326262 0.812149
#
# Coordination Sequence:
#
# PCOD8307148 Si02
#       7
#     8   8   8   8   8   8   8
#     4  11  22  34  50  72  98 132 171 208 251 303
#     4  10  19  32  52  76 101 131 166 205 253 305
#     4   9  17  29  47  72 100 130 165 206 252 299
#     4   9  18  33  53  76 101 128 159 200 250 302
#     4   9  18  32  49  71  99 128 163 211 259 300
#     4  10  21  34  49  73 101 129 165 205 245 296
#     4   9  17  30  48  69  96 129 161 196 240 289
#
# _framework density 18.121409
#
# number of rings (size 3 to 8) (size 9 to 14) (size 15 to 20)
#    0.000    2.429    0.000    2.571    0.000    4.000 
#    0.000    4.286    0.000    0.000    0.000    1.000 
#    0.000    3.429    0.000    0.000    0.000    0.429 
#
# Total GULP energy -693991.693904 kJ/mol
# GULP energy per Si atom -12392.708820 kJ/mol
# Density = 1.808016 g / cm^3
# Si number density = 18.121409 Si / 1000 Ang^3
#
#
#
# Elastic Constant Matrix: (Units=GPa)
#
#
# Indices 1 2 3 4 5 6 
#
# 1 78.3442 36.5176 52.3662 0.0000 0.0000 0.0000
# 2 36.5176 78.3442 52.3662 0.0000 0.0000 0.0000
# 3 52.3662 52.3662 153.5219 0.0000 0.0000 0.0000
# 4 0.0000 0.0000 0.0000 22.2898 0.0000 0.0000
# 5 0.0000 0.0000 0.0000 0.0000 22.2898 0.0000
# 6 0.0000 0.0000 0.0000 0.0000 0.0000 23.9154
#
#
#
# Elastic Compliance Matrix: (Units=1/GPa)
#
#
# Indices 1 2 3 4 5 6 
#
# 1 0.018272 -0.005636 -0.004310 0.000000 0.000000 0.000000
# 2 -0.005636 0.018272 -0.004310 0.000000 0.000000 0.000000
# 3 -0.004310 -0.004310 0.009454 0.000000 0.000000 0.000000
# 4 0.000000 0.000000 0.000000 0.044864 0.000000 0.000000
# 5 0.000000 0.000000 0.000000 0.000000 0.044864 0.000000
# 6 0.000000 0.000000 0.000000 0.000000 0.000000 0.041814
#
#
# Mechanical properties :
#
#
# Convention : Reuss Voigt Hill
#
# Bulk Modulus (GPa) = 57.18944 65.85672 61.52308
# Shear Modulus (GPa) = 23.59813 24.96302 24.28058
#
# Velocity S-wave (km/s) = 3.61255 3.71555 3.66441
# Velocity P-wave (km/s) = 7.00202 7.40459 7.20611
#
# Compressibility (1/GPa) = 0.01748575
#
# Stress axis : x y z
#
# Youngs Moduli (GPa) = 54.72788 54.72788 105.77370
#
# Poissons Ratio (x) = 0.30845 0.45591
# Poissons Ratio (y) = 0.30845 0.45591
# Poissons Ratio (z) = 0.23589 0.23589
#
# Static dielectric constant tensor:
#      x y z
#    x 3.371280 0.000000 0.000000 
#    y 0.000000 3.371280 0.000000 
#    z 0.000000 0.000000 3.460220 
# 
# 
# High freq. dielectric constant tensor:
#      x y z
#    x 1.691350 0.000000 0.000000 
#    y 0.000000 1.691350 0.000000 
#    z 0.000000 0.000000 1.698750 
# 
# From -- ./inp_files/2621.got.cif
#   From: 2010.03.12/outbox.cif.g09.slc.cpg/sg105_2_cif.got.tgz:2621.got - 2010.04.14 01:45:32.
