data_PCOD8307507
_publ_section_title
;
Structure prediction by ZEFSAII (Michael W. Deem and Ramdas Pophale) SiO2 
 PCOD8307507
Probable space group: I 4 M M
;
_chemical_formula_sum "Si O2"
_cell_formula_units_Z 112
_cell_length_a 17.170403
_cell_length_b 17.170403
_cell_length_c 23.725027
_cell_angle_alpha 90.000000
_cell_angle_beta 90.000000
_cell_angle_gamma 90.000000
_cell_volume 6994.677447
_symmetry_space_group_name_H-M "I 4 M M"
_symmetry_group_IT_number 107
_symmetry_cell_setting 'tetragonal'
loop_
_space_group_symop_operation_xyz
x,y,z
-y,x,z
-x,-y,z
y,-x,z
-x,y,z
x,-y,z
-y,-x,z
y,x,z
1/2+x,1/2+y,1/2+z
1/2-y,1/2+x,1/2+z
1/2-x,1/2-y,1/2+z
1/2+y,1/2-x,1/2+z
1/2-x,1/2+y,1/2+z
1/2+x,1/2-y,1/2+z
1/2-y,1/2-x,1/2+z
1/2+y,1/2+x,1/2+z
loop_
_atom_site_type_symbol
_atom_site_label
_atom_site_fract_x
_atom_site_fract_y
_atom_site_fract_z
Si Si1 0.089917 0.587614 0.383440
Si Si2 0.281304 0.590371 0.067612
Si Si3 0.172610 0.299870 0.667944
Si Si4 0.910083 0.412386 0.751784
Si Si5 0.327389 0.799872 0.967282
Si Si6 0.797310 0.915821 0.002736
Si Si7 0.584179 0.297311 0.632494
O O1 0.120527 0.500000 0.399339
O O2 0.102032 0.602030 0.317612
O O3 0.133465 0.658683 0.413929
O O4 0.000000 0.592484 0.400319
O O5 0.303152 0.500000 0.067612
O O6 0.360970 0.639031 0.067612
O O7 0.232370 0.609325 0.123915
O O8 0.232371 0.609325 0.011309
O O9 0.230243 0.230243 0.688085
O O10 0.133463 0.341315 0.721295
O O11 0.218577 0.367267 0.635750
O O12 0.879470 0.500000 0.735887
O O13 0.000000 0.407519 0.734904
O O14 0.269754 0.730247 0.947142
O O15 0.281426 0.867269 0.999479
O O16 0.868119 0.868119 0.973473
O O17 0.789162 0.000000 0.972679
O O18 0.817014 0.928031 0.067615
O O19 0.500000 0.289161 0.662551
O O20 0.631880 0.368121 0.661757
#
# Coordination Sequence:
#
# PCOD8307507 Si02
#       7
#    16  16  16  16  16  16  16
#     4   9  18  32  48  66  90 119 150 186 226 267
#     4  10  20  33  49  69  92 118 146 180 222 266
#     4  10  18  30  47  67  92 118 148 185 224 265
#     4   9  18  32  48  66  90 119 150 186 226 267
#     4  10  18  30  47  67  92 118 148 185 224 265
#     4   9  16  26  40  59  86 118 149 181 216 255
#     4   9  16  26  40  59  86 118 149 181 216 255
#
# _framework density 16.012176
#
# number of rings (size 3 to 8) (size 9 to 14) (size 15 to 20)
#    0.000    2.571    1.429    2.571    0.000    1.000 
#    0.000    1.429    0.000    3.429    0.000    0.000 
#    0.000    0.000    0.000   53.143    0.000    0.286 
#
# Total GULP energy -693860.575721 kJ/mol
# GULP energy per Si atom -12390.367424 kJ/mol
# Density = 1.597573 g / cm^3
# Si number density = 16.012176 Si / 1000 Ang^3
#
#
#
# Elastic Constant Matrix: (Units=GPa)
#
#
# Indices 1 2 3 4 5 6 
#
# 1 107.4369 51.3726 39.8797 0.0000 0.0000 0.0000
# 2 51.3726 107.4369 39.8797 0.0000 0.0000 0.0000
# 3 39.8797 39.8797 61.4195 0.0000 0.0000 0.0000
# 4 0.0000 0.0000 0.0000 20.0249 0.0000 0.0000
# 5 0.0000 0.0000 0.0000 0.0000 20.0249 0.0000
# 6 0.0000 0.0000 0.0000 0.0000 0.0000 22.1653
#
#
#
# Elastic Compliance Matrix: (Units=1/GPa)
#
#
# Indices 1 2 3 4 5 6 
#
# 1 0.013590 -0.004246 -0.006067 0.000000 0.000000 0.000000
# 2 -0.004246 0.013590 -0.006067 0.000000 0.000000 0.000000
# 3 -0.006067 -0.006067 0.024160 0.000000 0.000000 0.000000
# 4 0.000000 0.000000 0.000000 0.049938 0.000000 0.000000
# 5 0.000000 0.000000 0.000000 0.000000 0.049938 0.000000
# 6 0.000000 0.000000 0.000000 0.000000 0.000000 0.045116
#
#
# Mechanical properties :
#
#
# Convention : Reuss Voigt Hill
#
# Bulk Modulus (GPa) = 53.82165 59.83971 56.83068
# Shear Modulus (GPa) = 21.25072 22.12042 21.68557
#
# Velocity S-wave (km/s) = 3.64697 3.72085 3.68410
# Velocity P-wave (km/s) = 7.17076 7.47744 7.32571
#
# Compressibility (1/GPa) = 0.01857988
#
# Stress axis : x y z
#
# Youngs Moduli (GPa) = 73.58201 73.58201 41.39059
#
# Poissons Ratio (x) = 0.31246 0.25112
# Poissons Ratio (y) = 0.31246 0.25112
# Poissons Ratio (z) = 0.44642 0.44642
#
# Static dielectric constant tensor:
#      x y z
#    x 3.144840 0.000000 0.000000 
#    y 0.000000 3.144840 0.000000 
#    z 0.000000 0.000000 2.744560 
# 
# 
# High freq. dielectric constant tensor:
#      x y z
#    x 1.618940 0.000000 0.000000 
#    y 0.000000 1.618940 0.000000 
#    z 0.000000 0.000000 1.583190 
# 
# From -- ./inp_files/4935.got.cif
#   From: 2010.03.12/outbox.cif.g09.slc.cpg/sg107_3_cif.got.tgz:4935.got - 2010.04.14 01:49:11.
