data_PCOD8307602
_publ_section_title
;
Structure prediction by ZEFSAII (Michael W. Deem and Ramdas Pophale) SiO2 
 PCOD8307602
Probable space group: I 4 M M
;
_chemical_formula_sum "Si O2"
_cell_formula_units_Z 112
_cell_length_a 13.866714
_cell_length_b 13.866714
_cell_length_c 36.071819
_cell_angle_alpha 90.000000
_cell_angle_beta 90.000000
_cell_angle_gamma 90.000000
_cell_volume 6936.097028
_symmetry_space_group_name_H-M "I 4 M M"
_symmetry_group_IT_number 107
_symmetry_cell_setting 'tetragonal'
loop_
_space_group_symop_operation_xyz
x,y,z
-y,x,z
-x,-y,z
y,-x,z
-x,y,z
x,-y,z
-y,-x,z
y,x,z
1/2+x,1/2+y,1/2+z
1/2-y,1/2+x,1/2+z
1/2-x,1/2-y,1/2+z
1/2+y,1/2-x,1/2+z
1/2-x,1/2+y,1/2+z
1/2+x,1/2-y,1/2+z
1/2-y,1/2-x,1/2+z
1/2+y,1/2+x,1/2+z
loop_
_atom_site_type_symbol
_atom_site_label
_atom_site_fract_x
_atom_site_fract_y
_atom_site_fract_z
Si Si1 0.385134 0.228332 0.773510
Si Si2 0.387574 0.108642 0.141584
Si Si3 0.614393 0.893096 0.843754
Si Si4 0.772325 0.385403 0.213428
Si Si5 0.763903 0.389017 0.490109
Si Si6 0.765866 0.610471 0.572315
Si Si7 0.114464 0.606247 0.924749
O O1 0.500000 0.244626 0.769695
O O2 0.330662 0.330662 0.768295
O O3 0.354808 0.184935 0.813300
O O4 0.349752 0.150577 0.743505
O O5 0.500000 0.109784 0.134852
O O6 0.358383 0.182357 0.173801
O O7 0.342037 0.144550 0.103046
O O8 0.353321 0.000000 0.152080
O O9 0.500000 0.900925 0.846011
O O10 0.652243 0.859575 0.884435
O O11 0.655527 0.000000 0.833697
O O12 0.754943 0.500000 0.218020
O O13 0.670460 0.329541 0.217902
O O14 0.745308 0.500000 0.481554
O O15 0.660165 0.339836 0.488222
O O16 0.810317 0.372914 0.531060
O O17 0.831784 0.342429 0.458583
O O18 0.737551 0.500000 0.577934
O O19 0.667833 0.667833 0.578078
O O20 0.160399 0.500000 0.928348
O O21 0.000000 0.599259 0.928428
#
# Coordination Sequence:
#
# PCOD8307602 Si02
#       7
#    16  16  16  16  16  16  16
#     4  10  20  32  47  68  92 119 151 184 219 260
#     4   9  17  29  46  67  88 111 140 174 214 258
#     4   8  14  26  44  64  85 109 139 177 218 259
#     4  10  20  33  50  71  93 118 147 179 217 260
#     4   9  17  27  39  57  81 111 144 175 210 252
#     4   9  17  28  41  58  82 111 143 178 212 249
#     4   8  14  25  41  61  84 108 136 175 220 259
#
# _framework density 16.147411000000002
#
# number of rings (size 3 to 8) (size 9 to 14) (size 15 to 20)
#    0.000    3.000    0.000    2.143    0.000    3.143 
#    0.000    4.286    0.000    0.000    0.000    2.000 
#    0.000    3.714    0.000    3.143    0.000    5.429 
#
# Total GULP energy -693995.029745 kJ/mol
# GULP energy per Si atom -12392.768388 kJ/mol
# Density = 1.611066 g / cm^3
# Si number density = 16.147411 Si / 1000 Ang^3
#
#
#
# Elastic Constant Matrix: (Units=GPa)
#
#
# Indices 1 2 3 4 5 6 
#
# 1 63.4569 35.5547 46.9149 0.0000 0.0000 0.0001
# 2 35.5547 63.4569 46.9149 0.0000 0.0000 -0.0001
# 3 46.9149 46.9149 129.0922 0.0000 0.0000 0.0000
# 4 0.0000 0.0000 0.0000 22.0953 0.0000 0.0000
# 5 0.0000 0.0000 0.0000 0.0000 22.0953 0.0000
# 6 0.0001 -0.0001 0.0000 0.0000 0.0000 16.7371
#
#
#
# Elastic Compliance Matrix: (Units=1/GPa)
#
#
# Indices 1 2 3 4 5 6 
#
# 1 0.025622 -0.010217 -0.005599 0.000000 0.000000 0.000000
# 2 -0.010217 0.025622 -0.005599 0.000000 0.000000 0.000000
# 3 -0.005599 -0.005599 0.011816 0.000000 0.000000 0.000000
# 4 0.000000 0.000000 0.000000 0.045259 0.000000 0.000000
# 5 0.000000 0.000000 0.000000 0.000000 0.045259 0.000000
# 6 0.000000 0.000000 0.000000 0.000000 0.000000 0.059748
#
#
# Mechanical properties :
#
#
# Convention : Reuss Voigt Hill
#
# Bulk Modulus (GPa) = 49.42662 57.19722 53.31192
# Shear Modulus (GPa) = 19.01877 20.62697 19.82287
#
# Velocity S-wave (km/s) = 3.43566 3.57797 3.50754
# Velocity P-wave (km/s) = 6.81282 7.25038 7.03500
#
# Compressibility (1/GPa) = 0.02023201
#
# Stress axis : x y z
#
# Youngs Moduli (GPa) = 39.02825 39.02823 84.63266
#
# Poissons Ratio (x) = 0.39875 0.47383
# Poissons Ratio (y) = 0.39875 0.47383
# Poissons Ratio (z) = 0.21851 0.21851
#
# Static dielectric constant tensor:
#      x y z
#    x 2.881240 0.000000 0.000000 
#    y 0.000000 2.881240 0.000000 
#    z 0.000000 0.000000 3.466540 
# 
# 
# High freq. dielectric constant tensor:
#      x y z
#    x 1.597230 0.000000 0.000000 
#    y 0.000000 1.597230 0.000000 
#    z 0.000000 0.000000 1.641160 
# 
# From -- ./inp_files/6169.got.cif
#   From: 2010.03.12/outbox.cif.g09.slc.cpg/sg107_4_cif.got.tgz:6169.got - 2010.04.14 01:49:11.
