data_PCOD8307477
_publ_section_title
;
Structure prediction by ZEFSAII (Michael W. Deem and Ramdas Pophale) SiO2 
 PCOD8307477
Probable space group: I 4 M M
;
_chemical_formula_sum "Si O2"
_cell_formula_units_Z 128
_cell_length_a 24.158923
_cell_length_b 24.158923
_cell_length_c 12.648218
_cell_angle_alpha 90.000000
_cell_angle_beta 90.000000
_cell_angle_gamma 90.000000
_cell_volume 7382.177470
_symmetry_space_group_name_H-M "I 4 M M"
_symmetry_group_IT_number 107
_symmetry_cell_setting 'tetragonal'
loop_
_space_group_symop_operation_xyz
x,y,z
-y,x,z
-x,-y,z
y,-x,z
-x,y,z
x,-y,z
-y,-x,z
y,x,z
1/2+x,1/2+y,1/2+z
1/2-y,1/2+x,1/2+z
1/2-x,1/2-y,1/2+z
1/2+y,1/2-x,1/2+z
1/2-x,1/2+y,1/2+z
1/2+x,1/2-y,1/2+z
1/2-y,1/2-x,1/2+z
1/2+y,1/2+x,1/2+z
loop_
_atom_site_type_symbol
_atom_site_label
_atom_site_fract_x
_atom_site_fract_y
_atom_site_fract_z
Si Si1 0.648872 0.562197 0.795160
Si Si2 0.841104 0.066161 0.918622
Si Si3 0.938489 0.696233 0.425329
Si Si4 0.935318 0.653396 0.197058
Si Si5 0.231208 0.064719 0.115989
Si Si6 0.110894 0.196567 0.493375
Si Si7 0.272857 0.435313 0.208542
Si Si8 0.151570 0.561859 0.149471
O O1 0.631364 0.500000 0.771519
O O2 0.598317 0.598317 0.752644
O O3 0.702944 0.579347 0.727870
O O4 0.659489 0.571064 0.919386
O O5 0.898231 0.101770 0.913591
O O6 0.802704 0.079575 0.817769
O O7 0.855399 0.000000 0.924778
O O8 0.804541 0.088032 0.017865
O O9 0.923556 0.664518 0.319693
O O10 0.891418 0.741378 0.449733
O O11 0.939245 0.654307 0.522679
O O12 0.000000 0.724362 0.414326
O O13 0.913719 0.705326 0.125190
O O14 0.900744 0.599207 0.173943
O O15 0.000000 0.641693 0.175837
O O16 0.234535 0.000000 0.098512
O O17 0.173591 0.173591 0.484575
O O18 0.091926 0.191820 0.614515
O O19 0.272186 0.500000 0.185606
O O20 0.208613 0.415073 0.203357
O O21 0.139824 0.500000 0.192722
#
# Coordination Sequence:
#
# PCOD8307477 Si02
#       8
#    16  16  16  16  16  16  16  16
#     4  10  18  28  45  69  96 126 163 210 255 298
#     4  10  20  34  53  76 105 140 179 222 264 308
#     4   9  17  33  53  72 100 137 173 203 246 312
#     4  10  19  33  56  79 103 135 169 211 258 310
#     4   9  18  32  49  71  96 131 176 209 244 301
#     4  10  17  27  50  75  95 122 168 222 256 291
#     4   9  18  33  52  72 100 139 178 211 252 314
#     4   9  19  34  54  80 105 132 167 211 261 312
#
# _framework density 17.339058000000001
#
# number of rings (size 3 to 8) (size 9 to 14) (size 15 to 20)
#    0.000    2.500    1.250    2.625    0.000    1.500 
#    0.000    1.875    0.000   18.750    0.000    1.750 
#    0.000    0.000    0.000    0.000    0.000    0.000 
#
# Total GULP energy -793091.318478 kJ/mol
# GULP energy per Si atom -12392.051851 kJ/mol
# Density = 1.729959 g / cm^3
# Si number density = 17.339058 Si / 1000 Ang^3
#
#
#
# Elastic Constant Matrix: (Units=GPa)
#
#
# Indices 1 2 3 4 5 6 
#
# 1 87.5967 61.5129 37.4019 0.0000 0.0000 -0.0002
# 2 61.5129 87.5967 37.4019 0.0000 0.0000 0.0002
# 3 37.4019 37.4019 90.3828 0.0000 0.0000 0.0000
# 4 0.0000 0.0000 0.0000 19.9913 0.0000 0.0000
# 5 0.0000 0.0000 0.0000 0.0000 19.9913 0.0000
# 6 -0.0002 0.0002 0.0000 0.0000 0.0000 32.1235
#
#
#
# Elastic Compliance Matrix: (Units=1/GPa)
#
#
# Indices 1 2 3 4 5 6 
#
# 1 0.023401 -0.014937 -0.003502 0.000000 0.000000 0.000000
# 2 -0.014937 0.023401 -0.003502 0.000000 0.000000 0.000000
# 3 -0.003502 -0.003502 0.013963 0.000000 0.000000 0.000000
# 4 0.000000 0.000000 0.000000 0.050022 0.000000 0.000000
# 5 0.000000 0.000000 0.000000 0.000000 0.050022 0.000000
# 6 0.000000 0.000000 0.000000 0.000000 0.000000 0.031130
#
#
# Mechanical properties :
#
#
# Convention : Reuss Voigt Hill
#
# Bulk Modulus (GPa) = 59.24046 59.80104 59.52075
# Shear Modulus (GPa) = 20.70838 23.03851 21.87344
#
# Velocity S-wave (km/s) = 3.45964 3.64910 3.55563
# Velocity P-wave (km/s) = 7.08512 7.23316 7.15952
#
# Compressibility (1/GPa) = 0.01688036
#
# Stress axis : x y z
#
# Youngs Moduli (GPa) = 42.73374 42.73374 71.61935
#
# Poissons Ratio (x) = 0.63832 0.25084
# Poissons Ratio (y) = 0.63832 0.25084
# Poissons Ratio (z) = 0.14967 0.14967
#
# Static dielectric constant tensor:
#      x y z
#    x 3.097100 0.000000 0.000000 
#    y 0.000000 3.097100 0.000000 
#    z 0.000000 0.000000 3.453380 
# 
# 
# High freq. dielectric constant tensor:
#      x y z
#    x 1.650480 0.000000 0.000000 
#    y 0.000000 1.650480 0.000000 
#    z 0.000000 0.000000 1.681080 
# 
# From -- ./inp_files/2663.got.cif
#   From: 2010.03.12/outbox.cif.g09.slc.cpg/sg107_2_cif.got.tgz:2663.got - 2010.04.14 01:49:11.
