data_PCOD8307717
_publ_section_title
;
Structure prediction by ZEFSAII (Michael W. Deem and Ramdas Pophale) SiO2 
 PCOD8307717
Probable space group: I 4 C M
;
_chemical_formula_sum "Si O2"
_cell_formula_units_Z 112
_cell_length_a 16.159156
_cell_length_b 16.159156
_cell_length_c 22.221598
_cell_angle_alpha 90.000000
_cell_angle_beta 90.000000
_cell_angle_gamma 90.000000
_cell_volume 5802.466396
_symmetry_space_group_name_H-M "I 4 C M"
_symmetry_group_IT_number 108
_symmetry_cell_setting 'tetragonal'
loop_
_space_group_symop_operation_xyz
x,y,z
-y,x,z
-x,-y,z
y,-x,z
-x,y,1/2+z
x,-y,1/2+z
-y,-x,1/2+z
y,x,1/2+z
1/2+x,1/2+y,1/2+z
1/2-y,1/2+x,1/2+z
1/2-x,1/2-y,1/2+z
1/2+y,1/2-x,1/2+z
1/2-x,1/2+y,z
1/2+x,1/2-y,z
1/2-y,1/2-x,z
1/2+y,1/2+x,z
loop_
_atom_site_type_symbol
_atom_site_label
_atom_site_fract_x
_atom_site_fract_y
_atom_site_fract_z
Si Si1 0.422643 0.791030 0.422190
Si Si2 0.076091 0.287057 0.997959
Si Si3 0.557029 0.625272 0.697325
Si Si4 0.242975 0.988073 0.610058
Si Si5 0.893679 0.739042 0.289709
Si Si6 0.630344 0.000057 0.211398
Si Si7 0.704654 0.337724 0.033108
O O1 0.383889 0.883889 0.417187
O O2 0.520038 0.791873 0.438100
O O3 0.408234 0.742166 0.359925
O O4 0.376862 0.741397 0.473557
O O5 0.145134 0.354867 0.989339
O O6 0.116088 0.197009 0.010964
O O7 0.021117 0.302796 0.057220
O O8 0.458458 0.608605 0.700202
O O9 0.559586 0.679299 0.635128
O O10 0.595922 0.676691 0.752365
O O11 0.304586 0.964421 0.663661
O O12 0.194938 0.906196 0.586076
O O13 0.803113 0.696888 0.278814
O O14 0.965469 0.676142 0.269933
O O15 0.575539 0.924462 0.234770
O O16 0.572783 0.072783 0.182644
O O17 0.763646 0.263646 0.057204
#
# Coordination Sequence:
#
# PCOD8307717 Si02
#       7
#    16  16  16  16  16  16  16
#     4   9  19  35  53  73 100 132 165 205 253 302
#     4  10  20  32  50  76 102 131 169 210 251 298
#     4  10  21  36  54  78 107 138 173 216 265 314
#     4  10  18  32  50  71 101 138 173 210 254 306
#     4   9  19  36  55  75 101 134 172 213 257 309
#     4   9  17  29  47  72 101 132 167 210 258 305
#     4   9  18  32  49  71 100 133 169 209 250 296
#
# _framework density 19.302136999999998
#
# number of rings (size 3 to 8) (size 9 to 14) (size 15 to 20)
#    0.000    2.571    0.000    1.714    0.000    3.143 
#    0.000    5.000    0.000    3.857    0.000    0.000 
#    0.000    0.000    0.000    0.000    0.000    0.000 
#
# Total GULP energy -693943.975262 kJ/mol
# GULP energy per Si atom -12391.856701 kJ/mol
# Density = 1.925820 g / cm^3
# Si number density = 19.302137 Si / 1000 Ang^3
#
#
#
# Elastic Constant Matrix: (Units=GPa)
#
#
# Indices 1 2 3 4 5 6 
#
# 1 57.8917 2.3199 9.3613 0.0000 0.0000 0.0000
# 2 2.3199 57.8917 9.3613 0.0000 0.0000 0.0000
# 3 9.3613 9.3613 74.3273 0.0000 0.0000 0.0000
# 4 0.0000 0.0000 0.0000 22.4572 0.0000 0.0000
# 5 0.0000 0.0000 0.0000 0.0000 22.4572 0.0000
# 6 0.0000 0.0000 0.0000 0.0000 0.0000 28.2922
#
#
#
# Elastic Compliance Matrix: (Units=1/GPa)
#
#
# Indices 1 2 3 4 5 6 
#
# 1 0.017640 -0.000355 -0.002177 0.000000 0.000000 0.000000
# 2 -0.000355 0.017640 -0.002177 0.000000 0.000000 0.000000
# 3 -0.002177 -0.002177 0.014002 0.000000 0.000000 0.000000
# 4 0.000000 0.000000 0.000000 0.044529 0.000000 0.000000
# 5 0.000000 0.000000 0.000000 0.000000 0.044529 0.000000
# 6 0.000000 0.000000 0.000000 0.000000 0.000000 0.035345
#
#
# Mechanical properties :
#
#
# Convention : Reuss Voigt Hill
#
# Bulk Modulus (GPa) = 25.08502 25.79952 25.44227
# Shear Modulus (GPa) = 25.45932 25.91253 25.68593
#
# Velocity S-wave (km/s) = 3.63573 3.66795 3.65187
# Velocity P-wave (km/s) = 5.53614 5.59764 5.56698
#
# Compressibility (1/GPa) = 0.03986444
#
# Stress axis : x y z
#
# Youngs Moduli (GPa) = 56.68977 56.68978 71.41646
#
# Poissons Ratio (x) = 0.02012 0.15547
# Poissons Ratio (y) = 0.02012 0.15547
# Poissons Ratio (z) = 0.12341 0.12341
#
# Static dielectric constant tensor:
#      x y z
#    x 3.587170 0.000000 0.000000 
#    y 0.000000 3.587170 0.000000 
#    z 0.000000 0.000000 3.439740 
# 
# 
# High freq. dielectric constant tensor:
#      x y z
#    x 1.746320 0.000000 0.000000 
#    y 0.000000 1.746320 0.000000 
#    z 0.000000 0.000000 1.745360 
# 
# From -- ./inp_files/3043.got.cif
#   From: 2010.03.12/outbox.cif.g09.slc.cpg/sg108_2_cif.got.tgz:3043.got - 2010.04.14 01:53:11.
