data_PCOD8307997
_publ_section_title
;
Structure prediction by ZEFSAII (Michael W. Deem and Ramdas Pophale) SiO2 
 PCOD8307997
Probable space group: I 41 M D
;
_chemical_formula_sum "Si O2"
_cell_formula_units_Z 48
_cell_length_a 7.719933
_cell_length_b 7.719933
_cell_length_c 38.391095
_cell_angle_alpha 90.000000
_cell_angle_beta 90.000000
_cell_angle_gamma 90.000000
_cell_volume 2288.008122
_symmetry_space_group_name_H-M "I 41 M D"
_symmetry_group_IT_number 109
_symmetry_cell_setting 'tetragonal'
loop_
_space_group_symop_operation_xyz
x,y,z
-y,1/2+x,1/4+z
-x,-y,z
y,1/2-x,1/4+z
-x,y,z
x,-y,z
-y,1/2-x,1/4+z
y,1/2+x,1/4+z
1/2+x,1/2+y,1/2+z
1/2-y,x,3/4+z
1/2-x,1/2-y,1/2+z
1/2+y,-x,3/4+z
1/2-x,1/2+y,1/2+z
1/2+x,1/2-y,1/2+z
1/2-y,-x,3/4+z
1/2+y,x,3/4+z
loop_
_atom_site_type_symbol
_atom_site_label
_atom_site_fract_x
_atom_site_fract_y
_atom_site_fract_z
Si Si1 0.694957 0.294579 0.726110
Si Si2 0.294676 0.191205 0.802067
Si Si3 0.793799 0.000000 0.427318
Si Si4 0.500000 0.207224 0.099035
O O1 0.500000 0.223967 0.718517
O O2 0.691338 0.500000 0.727382
O O3 0.768977 0.227892 0.762923
O O4 0.826301 0.226083 0.696520
O O5 0.500000 0.205819 0.802193
O O6 0.218841 0.330738 0.829200
O O7 0.232290 0.000000 0.813647
O O8 0.719151 0.000000 0.388210
O O9 0.000000 0.000000 0.427029
O O10 0.500000 0.000000 0.099250
#
# Coordination Sequence:
#
# PCOD8307997 Si02
#       4
#    16  16   8   8
#     4   9  16  29  47  70 103 138 177 226 270 316
#     4   9  16  27  47  73 101 138 180 223 270 319
#     4   9  18  28  45  75 107 142 179 221 278 329
#     4   9  16  28  44  72 112 140 174 228 276 324
#
# _framework density 20.978946000000001
#
# number of rings (size 3 to 8) (size 9 to 14) (size 15 to 20)
#    0.000    3.000    1.667    0.000    0.000    1.333 
#    0.000    7.500    0.000    0.000    8.667    0.000 
#    0.000    0.000    0.000    0.000    0.000    0.000 
#
# Total GULP energy -297484.118810 kJ/mol
# GULP energy per Si atom -12395.171617 kJ/mol
# Density = 2.093120 g / cm^3
# Si number density = 20.978946 Si / 1000 Ang^3
#
#
#
# Elastic Constant Matrix: (Units=GPa)
#
#
# Indices 1 2 3 4 5 6 
#
# 1 86.0054 22.3638 65.9927 0.0000 0.0000 0.0000
# 2 22.3638 86.0054 65.9926 0.0000 0.0000 0.0000
# 3 65.9927 65.9926 207.1644 0.0000 0.0000 0.0000
# 4 0.0000 0.0000 0.0000 7.8501 0.0000 0.0000
# 5 0.0000 0.0000 0.0000 0.0000 7.8501 0.0000
# 6 0.0000 0.0000 0.0000 0.0000 0.0000 0.4472
#
#
#
# Elastic Compliance Matrix: (Units=1/GPa)
#
#
# Indices 1 2 3 4 5 6 
#
# 1 0.015395 -0.000318 -0.004803 0.000000 0.000000 0.000000
# 2 -0.000318 0.015395 -0.004803 0.000000 0.000000 0.000000
# 3 -0.004803 -0.004803 0.007887 0.000000 0.000000 0.000000
# 4 0.000000 0.000000 0.000000 0.127386 0.000000 0.000002
# 5 0.000000 0.000000 0.000000 0.000000 0.127386 0.000001
# 6 0.000000 0.000000 0.000000 0.000002 0.000001 2.235914
#
#
# Mechanical properties :
#
#
# Convention : Reuss Voigt Hill
#
# Bulk Modulus (GPa) = 53.10677 76.43037 64.76857
# Shear Modulus (GPa) = 1.95657 18.21791 10.08724
#
# Velocity S-wave (km/s) = 0.96678 2.95004 2.19516
# Velocity P-wave (km/s) = 5.15902 6.93648 6.11270
#
# Compressibility (1/GPa) = 0.01882999
#
# Stress axis : x y z
#
# Youngs Moduli (GPa) = 64.95561 64.95562 126.79041
#
# Poissons Ratio (x) = 0.02065 0.60896
# Poissons Ratio (y) = 0.02065 0.60896
# Poissons Ratio (z) = 0.31198 0.31198
#
# Static dielectric constant tensor:
#      x y z
#    x 3.669180 0.000000 0.000000 
#    y 0.000000 3.669180 0.000000 
#    z 0.000000 0.000000 3.930530 
# 
# 
# High freq. dielectric constant tensor:
#      x y z
#    x 1.800860 0.000000 0.000000 
#    y 0.000000 1.800860 0.000000 
#    z 0.000000 0.000000 1.813030 
# 
# From -- ./inp_files/5254.got.cif
#   From: 2010.03.12/outbox.cif.g09.slc.cpg/sg109_3_cif.got.tgz:5254.got - 2010.04.14 01:55:16.
