data_PCOD8307985
_publ_section_title
;
Structure prediction by ZEFSAII (Michael W. Deem and Ramdas Pophale) SiO2 
 PCOD8307985
Probable space group: I 41 M D
;
_chemical_formula_sum "Si O2"
_cell_formula_units_Z 32
_cell_length_a 16.963722
_cell_length_b 16.963722
_cell_length_c 4.872691
_cell_angle_alpha 90.000000
_cell_angle_beta 90.000000
_cell_angle_gamma 90.000000
_cell_volume 1402.203881
_symmetry_space_group_name_H-M "I 41 M D"
_symmetry_group_IT_number 109
_symmetry_cell_setting 'tetragonal'
loop_
_space_group_symop_operation_xyz
x,y,z
-y,1/2+x,1/4+z
-x,-y,z
y,1/2-x,1/4+z
-x,y,z
x,-y,z
-y,1/2-x,1/4+z
y,1/2+x,1/4+z
1/2+x,1/2+y,1/2+z
1/2-y,x,3/4+z
1/2-x,1/2-y,1/2+z
1/2+y,-x,3/4+z
1/2-x,1/2+y,1/2+z
1/2+x,1/2-y,1/2+z
1/2-y,-x,3/4+z
1/2+y,x,3/4+z
loop_
_atom_site_type_symbol
_atom_site_label
_atom_site_fract_x
_atom_site_fract_y
_atom_site_fract_z
Si Si1 0.165298 0.409639 0.149150
Si Si2 0.334709 0.590362 0.914729
O O1 0.164228 0.500000 0.248386
O O2 0.145340 0.354656 0.406928
O O3 0.250004 0.384545 0.031949
O O4 0.101893 0.398119 0.906928
O O5 0.335781 0.500000 0.815512
#
# Coordination Sequence:
#
# PCOD8307985 Si02
#       2
#    16  16
#     4  11  24  42  65  95 131 170 215 267 321 382
#     4  11  24  42  65  95 131 170 215 267 321 382
#
# _framework density 22.821218999999999
#
# number of rings (size 3 to 8) (size 9 to 14) (size 15 to 20)
#    0.000    1.000    0.000    6.000    0.000   18.000 
#    0.000    0.000    0.000    0.000    0.000    0.000 
#    0.000    0.000    0.000    0.000    0.000    0.000 
#
# Total GULP energy -198511.645209 kJ/mol
# GULP energy per Si atom -12406.977826 kJ/mol
# Density = 2.276928 g / cm^3
# Si number density = 22.821219 Si / 1000 Ang^3
#
#
#
# Elastic Constant Matrix: (Units=GPa)
#
#
# Indices 1 2 3 4 5 6 
#
# 1 114.1406 89.4730 74.5699 0.0000 0.0000 0.0000
# 2 89.4730 114.1406 74.5699 0.0000 0.0000 0.0000
# 3 74.5699 74.5699 185.4462 0.0000 0.0000 0.0000
# 4 0.0000 0.0000 0.0000 43.9576 0.0000 0.0000
# 5 0.0000 0.0000 0.0000 0.0000 43.9576 0.0000
# 6 0.0000 0.0000 0.0000 0.0000 0.0000 36.8171
#
#
#
# Elastic Compliance Matrix: (Units=1/GPa)
#
#
# Indices 1 2 3 4 5 6 
#
# 1 0.023750 -0.016789 -0.002799 0.000000 0.000000 0.000000
# 2 -0.016789 0.023750 -0.002799 0.000000 0.000000 0.000000
# 3 -0.002799 -0.002799 0.007644 0.000000 0.000000 0.000000
# 4 0.000000 0.000000 0.000000 0.022749 0.000000 0.000000
# 5 0.000000 0.000000 0.000000 0.000000 0.022749 0.000000
# 6 0.000000 0.000000 0.000000 0.000000 0.000000 0.027161
#
#
# Mechanical properties :
#
#
# Convention : Reuss Voigt Hill
#
# Bulk Modulus (GPa) = 96.43550 98.99480 97.71515
# Shear Modulus (GPa) = 28.40335 36.62077 32.51206
#
# Velocity S-wave (km/s) = 3.53172 4.01019 3.77854
# Velocity P-wave (km/s) = 7.67981 8.05697 7.87065
#
# Compressibility (1/GPa) = 0.01036963
#
# Stress axis : x y z
#
# Youngs Moduli (GPa) = 42.10456 42.10456 130.82634
#
# Poissons Ratio (x) = 0.70688 0.36623
# Poissons Ratio (y) = 0.70688 0.36623
# Poissons Ratio (z) = 0.11787 0.11787
#
# Static dielectric constant tensor:
#      x y z
#    x 4.061810 0.000000 0.000000 
#    y 0.000000 4.061810 0.000000 
#    z 0.000000 0.000000 4.167370 
# 
# 
# High freq. dielectric constant tensor:
#      x y z
#    x 1.902370 0.000000 0.000000 
#    y 0.000000 1.902370 0.000000 
#    z 0.000000 0.000000 1.916580 
# 
# From -- ./inp_files/85.got.cif
#   From: 2010.03.12/outbox.cif.g09.slc.cpg/sg109_1_cif.got.tgz:85.got - 2010.04.14 01:55:16.
