data_PCOD8307654
_publ_section_title
;
Structure prediction by ZEFSAII (Michael W. Deem and Ramdas Pophale) SiO2 
 PCOD8307654
Probable space group: I 4 M M
;
_chemical_formula_sum "Si O2"
_cell_formula_units_Z 92
_cell_length_a 25.503724
_cell_length_b 25.503724
_cell_length_c 8.414815
_cell_angle_alpha 90.000000
_cell_angle_beta 90.000000
_cell_angle_gamma 90.000000
_cell_volume 5473.331746
_symmetry_space_group_name_H-M "I 4 M M"
_symmetry_group_IT_number 107
_symmetry_cell_setting 'tetragonal'
loop_
_space_group_symop_operation_xyz
x,y,z
-y,x,z
-x,-y,z
y,-x,z
-x,y,z
x,-y,z
-y,-x,z
y,x,z
1/2+x,1/2+y,1/2+z
1/2-y,1/2+x,1/2+z
1/2-x,1/2-y,1/2+z
1/2+y,1/2-x,1/2+z
1/2-x,1/2+y,1/2+z
1/2+x,1/2-y,1/2+z
1/2-y,1/2-x,1/2+z
1/2+y,1/2+x,1/2+z
loop_
_atom_site_type_symbol
_atom_site_label
_atom_site_fract_x
_atom_site_fract_y
_atom_site_fract_z
Si Si1 0.745703 0.336939 0.152610
Si Si2 0.596173 0.872415 0.262714
Si Si3 0.000000 0.500000 0.164543
Si Si4 0.058680 0.715439 0.536637
Si Si5 0.184185 0.559340 0.679289
Si Si6 0.411674 0.000000 0.915981
Si Si7 0.154582 0.295042 0.966447
O O1 0.693306 0.306695 0.096591
O O2 0.742748 0.397601 0.095465
O O3 0.746887 0.334534 0.346041
O O4 0.795984 0.307268 0.076893
O O5 0.573187 0.841236 0.111475
O O6 0.622275 0.926219 0.200689
O O7 0.552662 0.877365 0.401071
O O8 0.644951 0.842755 0.343706
O O9 0.000000 0.446948 0.068027
O O10 0.946575 0.500000 0.258409
O O11 0.058891 0.713334 0.347458
O O12 0.000000 0.731885 0.594226
O O13 0.184097 0.500000 0.605899
O O14 0.214506 0.601341 0.568062
#
# Coordination Sequence:
#
# PCOD8307654 Si02
#       7
#    16  16   4  16  16   8  16
#     4  11  21  36  56  76 100 129 166 213 264 313
#     4  11  21  33  50  68  90 130 174 218 262 307
#     4  10  28  38  36  58  84 122 172 230 280 292
#     4  10  20  37  53  74 100 130 165 210 260 312
#     4  11  22  32  51  70  98 135 178 219 260 304
#     4  11  26  34  46  56  86 122 170 224 271 307
#     4  11  21  34  50  74  97 127 172 219 262 312
#
# _framework density 16.808774
#
# number of rings (size 3 to 8) (size 9 to 14) (size 15 to 20)
#    0.000    1.217    6.087    0.522    8.522    0.696 
#    0.000    0.870    0.000    0.000    0.000    0.000 
#    0.000    0.348    0.000    0.000    0.000    4.348 
#
# Total GULP energy -570118.338346 kJ/mol
# GULP energy per Si atom -12393.876921 kJ/mol
# Density = 1.677052 g / cm^3
# Si number density = 16.808774 Si / 1000 Ang^3
#
#
#
# Elastic Constant Matrix: (Units=GPa)
#
#
# Indices 1 2 3 4 5 6 
#
# 1 74.1786 55.9747 22.8746 0.0000 0.0000 -0.0001
# 2 55.9747 74.1786 22.8746 0.0000 0.0000 0.0001
# 3 22.8746 22.8746 72.5701 0.0000 0.0000 0.0000
# 4 0.0000 0.0000 0.0000 18.2311 0.0000 0.0000
# 5 0.0000 0.0000 0.0000 0.0000 18.2311 0.0000
# 6 -0.0001 0.0001 0.0000 0.0000 0.0000 49.9397
#
#
#
# Elastic Compliance Matrix: (Units=1/GPa)
#
#
# Indices 1 2 3 4 5 6 
#
# 1 0.031787 -0.023146 -0.002724 0.000000 0.000000 0.000000
# 2 -0.023146 0.031787 -0.002724 0.000000 0.000000 0.000000
# 3 -0.002724 -0.002724 0.015497 0.000000 0.000000 0.000000
# 4 0.000000 0.000000 0.000000 0.054851 0.000000 0.000000
# 5 0.000000 0.000000 0.000000 0.000000 0.054851 0.000000
# 6 0.000000 0.000000 0.000000 0.000000 0.000000 0.020024
#
#
# Mechanical properties :
#
#
# Convention : Reuss Voigt Hill
#
# Bulk Modulus (GPa) = 45.69623 47.15278 46.42451
# Shear Modulus (GPa) = 18.29634 25.22730 21.76182
#
# Velocity S-wave (km/s) = 3.30282 3.87827 3.60206
# Velocity P-wave (km/s) = 6.46450 6.94032 6.70663
#
# Compressibility (1/GPa) = 0.02188364
#
# Stress axis : x y z
#
# Youngs Moduli (GPa) = 31.45949 31.45949 64.52965
#
# Poissons Ratio (x) = 0.72817 0.17575
# Poissons Ratio (y) = 0.72817 0.17575
# Poissons Ratio (z) = 0.08568 0.08568
#
# Static dielectric constant tensor:
#      x y z
#    x 3.034730 0.000000 0.000000 
#    y 0.000000 3.034730 0.000000 
#    z 0.000000 0.000000 3.465060 
# 
# 
# High freq. dielectric constant tensor:
#      x y z
#    x 1.608440 0.000000 0.000000 
#    y 0.000000 1.608440 0.000000 
#    z 0.000000 0.000000 1.681090 
# 
# From -- ./inp_files/1623.got.cif
#   From: 2010.03.12/outbox.cif.g09.slc.cpg/sg107_1_cif.got.tgz:1623.got - 2010.04.14 01:49:11.
