data_PCOD8307779
_publ_section_title
;
Structure prediction by ZEFSAII (Michael W. Deem and Ramdas Pophale) SiO2 
 PCOD8307779
Probable space group: I 4 C M
;
_chemical_formula_sum "Si O2"
_cell_formula_units_Z 128
_cell_length_a 24.568687
_cell_length_b 24.568687
_cell_length_c 10.784043
_cell_angle_alpha 90.000000
_cell_angle_beta 90.000000
_cell_angle_gamma 90.000000
_cell_volume 6509.468143
_symmetry_space_group_name_H-M "I 4 C M"
_symmetry_group_IT_number 108
_symmetry_cell_setting 'tetragonal'
loop_
_space_group_symop_operation_xyz
x,y,z
-y,x,z
-x,-y,z
y,-x,z
-x,y,1/2+z
x,-y,1/2+z
-y,-x,1/2+z
y,x,1/2+z
1/2+x,1/2+y,1/2+z
1/2-y,1/2+x,1/2+z
1/2-x,1/2-y,1/2+z
1/2+y,1/2-x,1/2+z
1/2-x,1/2+y,z
1/2+x,1/2-y,z
1/2-y,1/2-x,z
1/2+y,1/2+x,z
loop_
_atom_site_type_symbol
_atom_site_label
_atom_site_fract_x
_atom_site_fract_y
_atom_site_fract_z
Si Si1 0.712959 0.876948 0.633530
Si Si2 0.282635 0.380258 0.888620
Si Si3 0.090713 0.007673 0.067379
Si Si4 0.522588 0.217719 0.296369
Si Si5 0.840269 0.011784 0.823337
Si Si6 0.095679 0.320449 0.760619
Si Si7 0.235567 0.179239 0.864120
Si Si8 0.186417 0.604221 0.980985
O O1 0.658904 0.841097 0.603991
O O2 0.748398 0.889271 0.513184
O O3 0.697471 0.936354 0.688553
O O4 0.751451 0.845714 0.730002
O O5 0.325887 0.427184 0.862747
O O6 0.237410 0.374866 0.781416
O O7 0.319854 0.327680 0.890574
O O8 0.125121 0.010114 0.195675
O O9 0.049209 0.058284 0.065289
O O10 0.127613 0.013405 0.942249
O O11 0.518771 0.283329 0.295197
O O12 0.466562 0.184789 0.300295
O O13 0.545519 0.197800 0.426923
O O14 0.129669 0.370332 0.825667
O O15 0.095702 0.333050 0.617718
O O16 0.260005 0.239996 0.874623
O O17 0.259333 0.140733 0.971477
O O18 0.138509 0.638509 0.909093
#
# Coordination Sequence:
#
# PCOD8307779 Si02
#       8
#    16  16  16  16  16  16  16  16
#     4  10  21  38  59  86 119 160 200 237 299 366
#     4  11  23  35  57  89 122 152 193 250 300 357
#     4  11  25  46  66  86 119 168 217 265 314 366
#     4  10  22  38  63  85 122 151 195 246 297 354
#     4  11  25  40  64  93 122 157 208 263 318 362
#     4  10  22  37  58  86 116 152 195 238 295 354
#     4   9  19  35  55  82 118 161 192 229 289 364
#     4   9  20  38  59  83 114 156 192 229 291 360
#
# _framework density 19.663665000000002
#
# number of rings (size 3 to 8) (size 9 to 14) (size 15 to 20)
#    0.000    1.875    0.000    3.750    8.750    6.000 
#    0.000    0.000    0.000    1.500    0.000    3.500 
#    0.000    0.000    0.000    0.000    0.000    0.000 
#
# Total GULP energy -792972.901205 kJ/mol
# GULP energy per Si atom -12390.201581 kJ/mol
# Density = 1.961891 g / cm^3
# Si number density = 19.663665 Si / 1000 Ang^3
#
#
#
# Elastic Constant Matrix: (Units=GPa)
#
#
# Indices 1 2 3 4 5 6 
#
# 1 109.4250 71.5035 29.6671 0.0000 0.0000 -0.0005
# 2 71.5035 109.4250 29.6671 0.0000 0.0000 0.0005
# 3 29.6671 29.6671 85.2864 0.0000 0.0000 0.0000
# 4 0.0000 0.0000 0.0000 25.5043 0.0000 0.0000
# 5 0.0000 0.0000 0.0000 0.0000 25.5043 0.0000
# 6 -0.0005 0.0005 0.0000 0.0000 0.0000 33.3821
#
#
#
# Elastic Compliance Matrix: (Units=1/GPa)
#
#
# Indices 1 2 3 4 5 6 
#
# 1 0.016305 -0.010066 -0.002170 0.000000 0.000000 0.000000
# 2 -0.010066 0.016305 -0.002170 0.000000 0.000000 0.000000
# 3 -0.002170 -0.002170 0.013235 0.000000 0.000000 0.000000
# 4 0.000000 0.000000 0.000000 0.039209 0.000000 0.000000
# 5 0.000000 0.000000 0.000000 0.000000 0.039209 0.000000
# 6 0.000000 0.000000 0.000000 0.000000 0.000000 0.029956
#
#
# Mechanical properties :
#
#
# Convention : Reuss Voigt Hill
#
# Bulk Modulus (GPa) = 58.71366 62.86798 60.79082
# Shear Modulus (GPa) = 26.49599 28.43138 27.46369
#
# Velocity S-wave (km/s) = 3.67476 3.80660 3.74126
# Velocity P-wave (km/s) = 6.92307 7.16668 7.04593
#
# Compressibility (1/GPa) = 0.01703181
#
# Stress axis : x y z
#
# Youngs Moduli (GPa) = 61.33274 61.33274 75.55727
#
# Poissons Ratio (x) = 0.61736 0.16397
# Poissons Ratio (y) = 0.61736 0.16397
# Poissons Ratio (z) = 0.13310 0.13310
#
# Static dielectric constant tensor:
#      x y z
#    x 4.047060 0.000000 0.000000 
#    y 0.000000 4.047060 0.000000 
#    z 0.000000 0.000000 3.713920 
# 
# 
# High freq. dielectric constant tensor:
#      x y z
#    x 1.765420 0.000000 0.000000 
#    y 0.000000 1.765420 0.000000 
#    z 0.000000 0.000000 1.774100 
# 
# From -- ./inp_files/1629.got.cif
#   From: 2010.03.12/outbox.cif.g09.slc.cpg/sg108_1_cif.got.tgz:1629.got - 2010.04.14 01:53:11.
