data_PCOD8307184
_publ_section_title
;
Structure prediction by ZEFSAII (Michael W. Deem and Ramdas Pophale) SiO2 
 PCOD8307184
Probable space group: P 42 M C
;
_chemical_formula_sum "Si O2"
_cell_formula_units_Z 56
_cell_length_a 22.857351
_cell_length_b 22.857351
_cell_length_c 9.030755
_cell_angle_alpha 90.000000
_cell_angle_beta 90.000000
_cell_angle_gamma 90.000000
_cell_volume 4718.194664
_symmetry_space_group_name_H-M "P 42 M C"
_symmetry_group_IT_number 105
_symmetry_cell_setting 'tetragonal'
loop_
_space_group_symop_operation_xyz
x,y,z
-y,x,1/2+z
-x,-y,z
y,-x,1/2+z
-x,y,z
x,-y,z
-y,-x,1/2+z
y,x,1/2+z
loop_
_atom_site_type_symbol
_atom_site_label
_atom_site_fract_x
_atom_site_fract_y
_atom_site_fract_z
Si Si1 0.430265 0.000000 0.165560
Si Si2 0.653691 0.568771 0.504595
Si Si3 0.000000 0.569735 0.000084
Si Si4 0.568771 0.346309 0.661049
Si Si5 0.229565 0.430382 0.665670
Si Si6 0.770435 0.569618 0.999975
Si Si7 0.430222 0.114978 0.000174
Si Si8 0.114978 0.569778 0.165470
O O1 0.500000 0.000000 0.165230
O O2 0.406243 0.000000 0.332822
O O3 0.406234 0.942662 0.082263
O O4 0.645960 0.500000 0.528966
O O5 0.655105 0.585491 0.332822
O O6 0.598959 0.598959 0.582822
O O7 0.713561 0.591847 0.577980
O O8 0.000000 0.500000 0.000413
O O9 0.057338 0.593766 0.083381
O O10 0.500000 0.354040 0.636679
O O11 0.591847 0.286439 0.587664
O O12 0.227722 0.500000 0.665959
O O13 0.171928 0.405667 0.584640
O O14 0.231443 0.405981 0.832822
O O15 0.772277 0.500000 0.999685
O O16 0.828072 0.594333 0.081005
O O17 0.500000 0.115254 0.000686
O O18 0.406316 0.115361 0.832822
O O19 0.115254 0.500000 0.164958
#
# Coordination Sequence:
#
# PCOD8307184 Si02
#       8
#     4   8   4   8   8   8   8   8
#     4   9  15  21  29  43  63  85 107 127 145 165
#     4  10  20  32  44  56  68  81  98 122 154 193
#     4   9  15  21  29  43  63  85 107 127 145 165
#     4  10  20  32  44  56  68  81  98 122 154 193
#     4   9  16  26  39  52  65  81 100 121 146 178
#     4   9  16  26  39  52  65  81 100 121 146 178
#     4   9  15  22  32  46  64  84 104 124 145 169
#     4   9  15  22  32  46  64  84 104 124 145 169
#
# _framework density 11.868945999999999
#
# number of rings (size 3 to 8) (size 9 to 14) (size 15 to 20)
#    0.000    2.714    0.000    3.000    0.000   10.571 
#    0.000    1.429    0.000    0.000    0.000    0.000 
#    0.000    0.000    0.000    0.000    0.000    0.000 
#
# Total GULP energy -694355.070016 kJ/mol
# GULP energy per Si atom -12399.197679 kJ/mol
# Density = 1.184193 g / cm^3
# Si number density = 11.868946 Si / 1000 Ang^3
#
#
#
# Elastic Constant Matrix: (Units=GPa)
#
#
# Indices 1 2 3 4 5 6 
#
# 1 43.5831 25.1255 39.7542 0.0000 0.0000 0.0000
# 2 25.1255 43.5831 39.7542 0.0000 0.0000 0.0000
# 3 39.7542 39.7542 130.0403 0.0000 0.0000 0.0000
# 4 0.0000 0.0000 0.0000 19.0117 0.0000 0.0000
# 5 0.0000 0.0000 0.0000 0.0000 19.0117 0.0000
# 6 0.0000 0.0000 0.0000 0.0000 0.0000 0.3045
#
#
#
# Elastic Compliance Matrix: (Units=1/GPa)
#
#
# Indices 1 2 3 4 5 6 
#
# 1 0.038350 -0.015828 -0.006885 0.000000 0.000000 0.000000
# 2 -0.015828 0.038350 -0.006885 0.000000 0.000000 0.000000
# 3 -0.006885 -0.006885 0.011899 0.000000 0.000000 0.000000
# 4 0.000000 0.000000 0.000000 0.052599 0.000000 0.000000
# 5 0.000000 0.000000 0.000000 0.000000 0.052599 0.000000
# 6 0.000000 0.000000 0.000000 0.000000 0.000000 3.284570
#
#
# Mechanical properties :
#
#
# Convention : Reuss Voigt Hill
#
# Bulk Modulus (GPa) = 34.01080 47.38605 40.69842
# Shear Modulus (GPa) = 1.40950 15.17041 8.28995
#
# Velocity S-wave (km/s) = 1.09093 3.57901 2.64570
# Velocity P-wave (km/s) = 5.50494 7.55581 6.61039
#
# Compressibility (1/GPa) = 0.02940243
#
# Stress axis : x y z
#
# Youngs Moduli (GPa) = 26.07583 26.07583 84.03739
#
# Poissons Ratio (x) = 0.41274 0.57859
# Poissons Ratio (y) = 0.41274 0.57859
# Poissons Ratio (z) = 0.17953 0.17953
#
# Static dielectric constant tensor:
#      x y z
#    x 2.247430 0.000000 0.000000 
#    y 0.000000 2.247430 0.000000 
#    z 0.000000 0.000000 2.721350 
# 
# 
# High freq. dielectric constant tensor:
#      x y z
#    x 1.408010 0.000000 0.000000 
#    y 0.000000 1.408010 0.000000 
#    z 0.000000 0.000000 1.475610 
# 
# From -- ./inp_files/1183.got.cif
#   From: 2010.03.12/outbox.cif.g09.slc.cpg/sg105_1_cif.got.tgz:1183.got - 2010.04.14 01:45:32.
