data_PCOD8307463
_publ_section_title
;
Structure prediction by ZEFSAII (Michael W. Deem and Ramdas Pophale) SiO2 
 PCOD8307463
Probable space group: P 42 B C
;
_chemical_formula_sum "Si O2"
_cell_formula_units_Z 32
_cell_length_a 9.298433
_cell_length_b 9.298433
_cell_length_c 17.577893
_cell_angle_alpha 90.000000
_cell_angle_beta 90.000000
_cell_angle_gamma 90.000000
_cell_volume 1519.799680
_symmetry_space_group_name_H-M "P 42 B C"
_symmetry_group_IT_number 106
_symmetry_cell_setting 'tetragonal'
loop_
_space_group_symop_operation_xyz
x,y,z
-y,x,1/2+z
-x,-y,z
y,-x,1/2+z
1/2-x,1/2+y,z
1/2+x,1/2-y,z
1/2-y,1/2-x,1/2+z
1/2+y,1/2+x,1/2+z
loop_
_atom_site_type_symbol
_atom_site_label
_atom_site_fract_x
_atom_site_fract_y
_atom_site_fract_z
Si Si1 0.130114 0.603339 0.079430
Si Si2 0.911823 0.856436 0.825034
Si Si3 0.143564 0.911823 0.156937
Si Si4 0.603339 0.869886 0.902541
O O1 0.118967 0.751711 0.125188
O O2 0.267263 0.508936 0.099468
O O3 0.000000 0.500000 0.101363
O O4 0.139444 0.639444 0.990985
O O5 0.896982 0.784513 0.740985
O O6 0.751711 0.881033 0.856783
O O7 0.008936 0.767263 0.882502
O O8 0.000000 0.000000 0.815828
O O9 0.000000 0.000000 0.166143
O O10 0.500000 0.000000 0.880607
#
# Coordination Sequence:
#
# PCOD8307463 Si02
#       4
#     8   8   8   8
#     4  11  26  42  68 103 135 181 229 285 348 417
#     4  11  25  44  69  98 137 181 228 287 345 414
#     4  11  25  44  69  98 137 181 228 287 345 414
#     4  11  26  42  68 103 135 181 229 285 348 417
#
# _framework density 21.055406000000001
#
# number of rings (size 3 to 8) (size 9 to 14) (size 15 to 20)
#    0.000    1.000    0.000    4.500   14.000    8.000 
#    0.000    0.000    0.000    0.000    0.000    0.000 
#    0.000    0.000    0.000    0.000    0.000    0.000 
#
# Total GULP energy -396727.564095 kJ/mol
# GULP energy per Si atom -12397.736378 kJ/mol
# Density = 2.100748 g / cm^3
# Si number density = 21.055406 Si / 1000 Ang^3
#
#
#
# Elastic Constant Matrix: (Units=GPa)
#
#
# Indices 1 2 3 4 5 6 
#
# 1 135.5481 40.0459 75.0871 0.0000 0.0000 0.0000
# 2 40.0459 135.5481 75.0871 0.0000 0.0000 0.0000
# 3 75.0871 75.0871 164.7124 0.0000 0.0000 0.0000
# 4 0.0000 0.0000 0.0000 39.4198 0.0000 0.0000
# 5 0.0000 0.0000 0.0000 0.0000 39.4198 0.0000
# 6 0.0000 0.0000 0.0000 0.0000 0.0000 44.5359
#
#
#
# Elastic Compliance Matrix: (Units=1/GPa)
#
#
# Indices 1 2 3 4 5 6 
#
# 1 0.009903 -0.000568 -0.004255 0.000000 0.000000 0.000000
# 2 -0.000568 0.009903 -0.004255 0.000000 0.000000 0.000000
# 3 -0.004255 -0.004255 0.009951 0.000000 0.000000 0.000000
# 4 0.000000 0.000000 0.000000 0.025368 0.000000 0.000000
# 5 0.000000 0.000000 0.000000 0.000000 0.025368 0.000000
# 6 0.000000 0.000000 0.000000 0.000000 0.000000 0.022454
#
#
# Mechanical properties :
#
#
# Convention : Reuss Voigt Hill
#
# Bulk Modulus (GPa) = 86.21843 90.69428 88.45635
# Shear Modulus (GPa) = 40.00995 41.04768 40.52882
#
# Velocity S-wave (km/s) = 4.36388 4.42011 4.39209
# Velocity P-wave (km/s) = 8.15037 8.31970 8.23547
#
# Compressibility (1/GPa) = 0.01159845
#
# Stress axis : x y z
#
# Youngs Moduli (GPa) = 100.98448 100.98448 100.49527
#
# Poissons Ratio (x) = 0.05740 0.42762
# Poissons Ratio (y) = 0.05740 0.42762
# Poissons Ratio (z) = 0.42970 0.42970
#
# Static dielectric constant tensor:
#      x y z
#    x 3.896240 0.000000 0.000000 
#    y 0.000000 3.896240 0.000000 
#    z 0.000000 0.000000 4.099770 
# 
# 
# High freq. dielectric constant tensor:
#      x y z
#    x 1.839010 0.000000 0.000000 
#    y 0.000000 1.839010 0.000000 
#    z 0.000000 0.000000 1.845870 
# 
# From -- ./inp_files/1534.got.cif
#   From: 2010.03.12/outbox.cif.g09.slc.cpg/sg106_cif.got.tgz:1534.got - 2010.04.14 01:48:02.
