data_PCOD8307628
_publ_section_title
;
Structure prediction by ZEFSAII (Michael W. Deem and Ramdas Pophale) SiO2 
 PCOD8307628
Probable space group: I 4 M M
;
_chemical_formula_sum "Si O2"
_cell_formula_units_Z 96
_cell_length_a 24.888259
_cell_length_b 24.888259
_cell_length_c 9.092816
_cell_angle_alpha 90.000000
_cell_angle_beta 90.000000
_cell_angle_gamma 90.000000
_cell_volume 5632.321516
_symmetry_space_group_name_H-M "I 4 M M"
_symmetry_group_IT_number 107
_symmetry_cell_setting 'tetragonal'
loop_
_space_group_symop_operation_xyz
x,y,z
-y,x,z
-x,-y,z
y,-x,z
-x,y,z
x,-y,z
-y,-x,z
y,x,z
1/2+x,1/2+y,1/2+z
1/2-y,1/2+x,1/2+z
1/2-x,1/2-y,1/2+z
1/2+y,1/2-x,1/2+z
1/2-x,1/2+y,1/2+z
1/2+x,1/2-y,1/2+z
1/2-y,1/2-x,1/2+z
1/2+y,1/2+x,1/2+z
loop_
_atom_site_type_symbol
_atom_site_label
_atom_site_fract_x
_atom_site_fract_y
_atom_site_fract_z
Si Si1 0.359491 0.063355 0.734580
Si Si2 0.851929 0.938629 0.735579
Si Si3 0.936125 0.746318 0.898474
Si Si4 0.640509 0.936645 0.394172
Si Si5 0.561371 0.351930 0.893166
Si Si6 0.746318 0.936125 0.230275
O O1 0.304649 0.085354 0.807393
O O2 0.358994 0.079533 0.564376
O O3 0.409981 0.090019 0.814376
O O4 0.365535 0.000000 0.756589
O O5 0.903997 0.903997 0.777794
O O6 0.801022 0.915301 0.823834
O O7 0.837732 0.934231 0.564372
O O8 0.864818 0.000000 0.779880
O O9 0.000000 0.746271 0.895523
O O10 0.913897 0.743002 0.064374
O O11 0.695352 0.914646 0.321358
O O12 0.634467 0.000000 0.372163
O O13 0.500000 0.364819 0.848865
O O14 0.596003 0.403998 0.850950
O O15 0.584699 0.301022 0.804911
O O16 0.746271 0.000000 0.233226
#
# Coordination Sequence:
#
# PCOD8307628 Si02
#       6
#    16  16  16  16  16  16
#     4  10  20  33  50  72  98 127 158 193 233 278
#     4   9  17  29  46  69  97 128 161 197 237 281
#     4   9  17  30  48  68  91 122 161 200 235 276
#     4  10  20  33  50  72  98 127 158 193 233 278
#     4   9  17  29  46  69  97 128 161 197 237 281
#     4   9  17  30  48  68  91 122 161 200 235 276
#
# _framework density 17.044481000000001
#
# number of rings (size 3 to 8) (size 9 to 14) (size 15 to 20)
#    0.000    2.667    0.000    2.000    0.000    7.333 
#    0.000    3.333    0.000    1.000    0.000    4.667 
#    0.000    0.000    0.000    0.000    0.000    0.000 
#
# Total GULP energy -595243.131253 kJ/mol
# GULP energy per Si atom -12400.898568 kJ/mol
# Density = 1.700569 g / cm^3
# Si number density = 17.044481 Si / 1000 Ang^3
#
#
#
# Elastic Constant Matrix: (Units=GPa)
#
#
# Indices 1 2 3 4 5 6 
#
# 1 75.6822 47.6332 57.3294 0.0000 0.0000 0.0007
# 2 47.6332 75.6822 57.3294 0.0000 0.0000 -0.0007
# 3 57.3294 57.3294 126.1662 0.0000 0.0000 0.0000
# 4 0.0000 0.0000 0.0000 27.0391 0.0000 0.0000
# 5 0.0000 0.0000 0.0000 0.0000 27.0391 0.0000
# 6 0.0007 -0.0007 0.0000 0.0000 0.0000 5.3890
#
#
#
# Elastic Compliance Matrix: (Units=1/GPa)
#
#
# Indices 1 2 3 4 5 6 
#
# 1 0.024847 -0.010805 -0.006381 0.000000 0.000000 -0.000005
# 2 -0.010805 0.024847 -0.006381 0.000000 0.000000 0.000005
# 3 -0.006381 -0.006381 0.013725 0.000000 0.000000 0.000000
# 4 0.000000 0.000000 0.000000 0.036983 0.000000 0.000000
# 5 0.000000 0.000000 0.000000 0.000000 0.036983 0.000000
# 6 -0.000005 0.000005 0.000000 0.000000 0.000000 0.185562
#
#
# Mechanical properties :
#
#
# Convention : Reuss Voigt Hill
#
# Bulk Modulus (GPa) = 61.40165 66.90161 64.15163
# Shear Modulus (GPa) = 13.31529 19.57603 16.44566
#
# Velocity S-wave (km/s) = 2.79804 3.39267 3.10960
# Velocity P-wave (km/s) = 6.82212 7.39482 7.11423
#
# Compressibility (1/GPa) = 0.01628621
#
# Stress axis : x y z
#
# Youngs Moduli (GPa) = 40.24648 40.24648 72.86125
#
# Poissons Ratio (x) = 0.43486 0.46490
# Poissons Ratio (y) = 0.43486 0.46490
# Poissons Ratio (z) = 0.25680 0.25680
#
# Static dielectric constant tensor:
#      x y z
#    x 3.073950 0.000000 0.000000 
#    y 0.000000 3.073950 0.000000 
#    z 0.000000 0.000000 3.368440 
# 
# 
# High freq. dielectric constant tensor:
#      x y z
#    x 1.638660 0.000000 0.000000 
#    y 0.000000 1.638660 0.000000 
#    z 0.000000 0.000000 1.670330 
# 
# From -- ./inp_files/1476.got.cif
#   From: 2010.03.12/outbox.cif.g09.slc.cpg/sg107_1_cif.got.tgz:1476.got - 2010.04.14 01:49:11.
