data_PCOD8307607
_publ_section_title
;
Structure prediction by ZEFSAII (Michael W. Deem and Ramdas Pophale) SiO2 
 PCOD8307607
Probable space group: I 4 M M
;
_chemical_formula_sum "Si O2"
_cell_formula_units_Z 96
_cell_length_a 13.570162
_cell_length_b 13.570162
_cell_length_c 30.940717
_cell_angle_alpha 90.000000
_cell_angle_beta 90.000000
_cell_angle_gamma 90.000000
_cell_volume 5697.711275
_symmetry_space_group_name_H-M "I 4 M M"
_symmetry_group_IT_number 107
_symmetry_cell_setting 'tetragonal'
loop_
_space_group_symop_operation_xyz
x,y,z
-y,x,z
-x,-y,z
y,-x,z
-x,y,z
x,-y,z
-y,-x,z
y,x,z
1/2+x,1/2+y,1/2+z
1/2-y,1/2+x,1/2+z
1/2-x,1/2-y,1/2+z
1/2+y,1/2-x,1/2+z
1/2-x,1/2+y,1/2+z
1/2+x,1/2-y,1/2+z
1/2-y,1/2-x,1/2+z
1/2+y,1/2+x,1/2+z
loop_
_atom_site_type_symbol
_atom_site_label
_atom_site_fract_x
_atom_site_fract_y
_atom_site_fract_z
Si Si1 0.391592 0.882716 0.350480
Si Si2 0.117133 0.609237 0.756493
Si Si3 0.384266 0.221772 0.598202
Si Si4 0.611859 0.766235 0.928436
Si Si5 0.616611 0.225275 0.172799
Si Si6 0.385623 0.775361 0.025285
O O1 0.500000 0.835978 0.353975
O O2 0.343704 0.854960 0.303734
O O3 0.331959 0.838004 0.391000
O O4 0.398121 0.000000 0.354168
O O5 0.158988 0.500000 0.745620
O O6 0.149575 0.685324 0.719689
O O7 0.000000 0.602544 0.759209
O O8 0.500000 0.245561 0.600049
O O9 0.324810 0.324810 0.600084
O O10 0.354562 0.151478 0.637887
O O11 0.360232 0.161983 0.554558
O O12 0.500000 0.747987 0.916352
O O13 0.659296 0.659296 0.928446
O O14 0.624455 0.814349 0.975954
O O15 0.500000 0.241796 0.168993
O O16 0.670295 0.329706 0.164766
O O17 0.500000 0.757267 0.037487
O O18 0.327656 0.672345 0.032681
#
# Coordination Sequence:
#
# PCOD8307607 Si02
#       6
#    16  16  16  16  16  16
#     4   8  14  25  41  62  87 113 145 188 233 272
#     4   8  14  26  44  64  86 113 147 189 233 273
#     4  10  21  36  53  73  95 118 147 183 223 270
#     4   9  17  28  42  62  89 120 152 184 219 262
#     4  10  20  32  47  69  95 123 156 190 225 268
#     4   9  18  31  46  67  94 123 157 193 228 269
#
# _framework density 16.848870000000002
#
# number of rings (size 3 to 8) (size 9 to 14) (size 15 to 20)
#    0.000    3.000    0.000    2.000    0.000    4.000 
#    0.000    3.333    0.000    3.000    0.000    0.000 
#    0.000    4.333    0.000    0.333    0.000    0.000 
#
# Total GULP energy -594846.140923 kJ/mol
# GULP energy per Si atom -12392.627936 kJ/mol
# Density = 1.681052 g / cm^3
# Si number density = 16.848870 Si / 1000 Ang^3
#
#
#
# Elastic Constant Matrix: (Units=GPa)
#
#
# Indices 1 2 3 4 5 6 
#
# 1 81.6116 36.8075 45.7349 0.0000 0.0000 0.0001
# 2 36.8075 81.6116 45.7349 0.0000 0.0000 -0.0001
# 3 45.7349 45.7349 127.4110 0.0000 0.0000 0.0000
# 4 0.0000 0.0000 0.0000 23.2570 0.0000 0.0000
# 5 0.0000 0.0000 0.0000 0.0000 23.2570 0.0000
# 6 0.0001 -0.0001 0.0000 0.0000 0.0000 12.7719
#
#
#
# Elastic Compliance Matrix: (Units=1/GPa)
#
#
# Indices 1 2 3 4 5 6 
#
# 1 0.017002 -0.005318 -0.004194 0.000000 0.000000 0.000000
# 2 -0.005318 0.017002 -0.004194 0.000000 0.000000 0.000000
# 3 -0.004194 -0.004194 0.010860 0.000000 0.000000 0.000000
# 4 0.000000 0.000000 0.000000 0.042998 0.000000 0.000000
# 5 0.000000 0.000000 0.000000 0.000000 0.042998 0.000000
# 6 0.000000 0.000000 0.000000 0.000000 0.000000 0.078297
#
#
# Mechanical properties :
#
#
# Convention : Reuss Voigt Hill
#
# Bulk Modulus (GPa) = 57.30134 60.79874 59.05004
# Shear Modulus (GPa) = 20.62834 22.68095 21.65465
#
# Velocity S-wave (km/s) = 3.50282 3.67296 3.58890
# Velocity P-wave (km/s) = 7.10229 7.35871 7.23164
#
# Compressibility (1/GPa) = 0.01745160
#
# Stress axis : x y z
#
# Youngs Moduli (GPa) = 58.81729 58.81729 92.08424
#
# Poissons Ratio (x) = 0.31277 0.38621
# Poissons Ratio (y) = 0.31277 0.38621
# Poissons Ratio (z) = 0.24669 0.24669
#
# Static dielectric constant tensor:
#      x y z
#    x 2.949520 0.000000 0.000000 
#    y 0.000000 2.949520 0.000000 
#    z 0.000000 0.000000 3.625250 
# 
# 
# High freq. dielectric constant tensor:
#      x y z
#    x 1.622620 0.000000 0.000000 
#    y 0.000000 1.622620 0.000000 
#    z 0.000000 0.000000 1.674030 
# 
# From -- ./inp_files/6088.got.cif
#   From: 2010.03.12/outbox.cif.g09.slc.cpg/sg107_4_cif.got.tgz:6088.got - 2010.04.14 01:49:11.
