data_PCOD8307488
_publ_section_title
;
Structure prediction by ZEFSAII (Michael W. Deem and Ramdas Pophale) SiO2 
 PCOD8307488
Probable space group: I 4 M M
;
_chemical_formula_sum "Si O2"
_cell_formula_units_Z 96
_cell_length_a 31.850190
_cell_length_b 31.850190
_cell_length_c 7.659587
_cell_angle_alpha 90.000000
_cell_angle_beta 90.000000
_cell_angle_gamma 90.000000
_cell_volume 7770.150098
_symmetry_space_group_name_H-M "I 4 M M"
_symmetry_group_IT_number 107
_symmetry_cell_setting 'tetragonal'
loop_
_space_group_symop_operation_xyz
x,y,z
-y,x,z
-x,-y,z
y,-x,z
-x,y,z
x,-y,z
-y,-x,z
y,x,z
1/2+x,1/2+y,1/2+z
1/2-y,1/2+x,1/2+z
1/2-x,1/2-y,1/2+z
1/2+y,1/2-x,1/2+z
1/2-x,1/2+y,1/2+z
1/2+x,1/2-y,1/2+z
1/2-y,1/2-x,1/2+z
1/2+y,1/2+x,1/2+z
loop_
_atom_site_type_symbol
_atom_site_label
_atom_site_fract_x
_atom_site_fract_y
_atom_site_fract_z
Si Si1 0.246664 0.683301 0.697490
Si Si2 0.253334 0.183299 0.583175
Si Si3 0.546799 0.613971 0.087276
Si Si4 0.709451 0.361281 0.390336
Si Si5 0.452753 0.320967 0.390352
Si Si6 0.113971 0.046800 0.193428
O O1 0.278009 0.721992 0.703374
O O2 0.201069 0.701072 0.640339
O O3 0.263681 0.649381 0.561429
O O4 0.243187 0.662612 0.890331
O O5 0.221989 0.221989 0.577296
O O6 0.236315 0.149377 0.719227
O O7 0.500000 0.595450 0.098237
O O8 0.577305 0.577305 0.149723
O O9 0.557310 0.629089 0.890352
O O10 0.552124 0.652744 0.214543
O O11 0.664378 0.335623 0.390340
O O12 0.708352 0.411957 0.390348
O O13 0.500000 0.299676 0.390356
O O14 0.447873 0.347255 0.566162
O O15 0.077305 0.077305 0.130983
O O16 0.095452 0.000000 0.182460
#
# Coordination Sequence:
#
# PCOD8307488 Si02
#       6
#    16  16  16  16  16  16
#     4   9  15  24  38  57  80  99 112 135 176 226
#     4   9  15  24  38  57  80  99 112 135 176 226
#     4   9  17  28  41  54  68  86 111 150 197 239
#     4  10  18  26  40  58  74  97 125 149 184 232
#     4  10  20  32  41  51  71  98 128 159 184 212
#     4   9  17  28  41  54  68  86 111 150 197 239
#
# _framework density 12.354972999999999
#
# number of rings (size 3 to 8) (size 9 to 14) (size 15 to 20)
#    0.000    2.667    1.667    1.500    0.000    1.667 
#    0.000    5.000    0.000    3.000    0.000    0.000 
#    0.000    0.000    0.000    0.000    0.000    0.000 
#
# Total GULP energy -594671.526753 kJ/mol
# GULP energy per Si atom -12388.990141 kJ/mol
# Density = 1.232685 g / cm^3
# Si number density = 12.354973 Si / 1000 Ang^3
#
#
#
# Elastic Constant Matrix: (Units=GPa)
#
#
# Indices 1 2 3 4 5 6 
#
# 1 55.0914 37.2295 31.8438 0.0000 0.0000 0.0000
# 2 37.2295 55.0914 31.8438 0.0000 0.0000 0.0000
# 3 31.8438 31.8438 95.7701 0.0000 0.0000 0.0000
# 4 0.0000 0.0000 0.0000 10.6678 0.0000 0.0000
# 5 0.0000 0.0000 0.0000 0.0000 10.6678 0.0000
# 6 0.0000 0.0000 0.0000 0.0000 0.0000 21.8435
#
#
#
# Elastic Compliance Matrix: (Units=1/GPa)
#
#
# Indices 1 2 3 4 5 6 
#
# 1 0.035020 -0.020965 -0.004674 0.000000 0.000000 0.000000
# 2 -0.020965 0.035020 -0.004674 0.000000 0.000000 0.000000
# 3 -0.004674 -0.004674 0.013550 0.000000 0.000000 0.000000
# 4 0.000000 0.000000 0.000000 0.093740 0.000000 0.000000
# 5 0.000000 0.000000 0.000000 0.000000 0.093740 0.000000
# 6 0.000000 0.000000 0.000000 0.000000 0.000000 0.045780
#
#
# Mechanical properties :
#
#
# Convention : Reuss Voigt Hill
#
# Bulk Modulus (GPa) = 43.54084 45.30967 44.42525
# Shear Modulus (GPa) = 12.98265 15.63823 14.31044
#
# Velocity S-wave (km/s) = 3.24513 3.56159 3.40703
# Velocity P-wave (km/s) = 7.02561 7.32571 7.17723
#
# Compressibility (1/GPa) = 0.02296694
#
# Stress axis : x y z
#
# Youngs Moduli (GPa) = 28.55475 28.55475 73.80270
#
# Poissons Ratio (x) = 0.59864 0.34492
# Poissons Ratio (y) = 0.59864 0.34492
# Poissons Ratio (z) = 0.13345 0.13345
#
# Static dielectric constant tensor:
#      x y z
#    x 2.326500 0.000000 0.000000 
#    y 0.000000 2.326500 0.000000 
#    z 0.000000 0.000000 2.981330 
# 
# 
# High freq. dielectric constant tensor:
#      x y z
#    x 1.428400 0.000000 0.000000 
#    y 0.000000 1.428400 0.000000 
#    z 0.000000 0.000000 1.497280 
# 
# From -- ./inp_files/1606.got.cif
#   From: 2010.03.12/outbox.cif.g09.slc.cpg/sg107_1_cif.got.tgz:1606.got - 2010.04.14 01:49:11.
