data_PCOD8307637
_publ_section_title
;
Structure prediction by ZEFSAII (Michael W. Deem and Ramdas Pophale) SiO2 
 PCOD8307637
Probable space group: I 4 M M
;
_chemical_formula_sum "Si O2"
_cell_formula_units_Z 128
_cell_length_a 24.784401
_cell_length_b 24.784401
_cell_length_c 12.247096
_cell_angle_alpha 90.000000
_cell_angle_beta 90.000000
_cell_angle_gamma 90.000000
_cell_volume 7522.981198
_symmetry_space_group_name_H-M "I 4 M M"
_symmetry_group_IT_number 107
_symmetry_cell_setting 'tetragonal'
loop_
_space_group_symop_operation_xyz
x,y,z
-y,x,z
-x,-y,z
y,-x,z
-x,y,z
x,-y,z
-y,-x,z
y,x,z
1/2+x,1/2+y,1/2+z
1/2-y,1/2+x,1/2+z
1/2-x,1/2-y,1/2+z
1/2+y,1/2-x,1/2+z
1/2-x,1/2+y,1/2+z
1/2+x,1/2-y,1/2+z
1/2-y,1/2-x,1/2+z
1/2+y,1/2+x,1/2+z
loop_
_atom_site_type_symbol
_atom_site_label
_atom_site_fract_x
_atom_site_fract_y
_atom_site_fract_z
Si Si1 0.152332 0.663617 0.955000
Si Si2 0.706655 0.560457 0.008053
Si Si3 0.063068 0.851910 0.968637
Si Si4 0.439932 0.194166 0.304509
Si Si5 0.192038 0.062537 0.740265
Si Si6 0.234216 0.853669 0.337953
Si Si7 0.361303 0.271691 0.586568
Si Si8 0.831266 0.442754 0.067253
O O1 0.098889 0.663613 0.884961
O O2 0.206354 0.658346 0.883290
O O3 0.155534 0.714866 0.034467
O O4 0.140061 0.609328 0.020710
O O5 0.687034 0.500000 0.973035
O O6 0.674346 0.582282 0.117829
O O7 0.768068 0.559494 0.044182
O O8 0.700770 0.601591 0.907240
O O9 0.095106 0.904895 0.011280
O O10 0.071987 0.850981 0.836733
O O11 0.000000 0.856896 0.998520
O O12 0.086726 0.798127 0.026350
O O13 0.500000 0.200895 0.356470
O O14 0.411183 0.251930 0.280480
O O15 0.443144 0.158584 0.196086
O O16 0.205594 0.000000 0.723517
O O17 0.202322 0.797679 0.343166
O O18 0.237526 0.875177 0.213860
O O19 0.310606 0.310606 0.570779
O O20 0.853806 0.500000 0.018944
#
# Coordination Sequence:
#
# PCOD8307637 Si02
#       8
#    16  16  16  16  16  16  16  16
#     4  11  18  30  52  70  92 128 167 196 241 302
#     4   8  15  29  49  69  92 128 167 202 240 287
#     4  10  20  34  52  74 102 135 171 215 260 303
#     4   9  16  28  47  70  92 119 158 197 234 280
#     4   8  14  28  48  71  96 119 157 206 246 286
#     4  10  21  33  45  69 104 133 161 199 248 305
#     4  10  21  34  46  68 103 135 163 202 252 302
#     4   8  16  29  45  68  96 120 150 200 246 279
#
# _framework density 17.014531000000002
#
# number of rings (size 3 to 8) (size 9 to 14) (size 15 to 20)
#    0.000    2.750    1.250    2.625    0.000    1.125 
#    0.000    0.000    0.000    2.625    0.000    1.750 
#    0.000    0.250    0.000    0.250    0.000    0.000 
#
# Total GULP energy -792854.220146 kJ/mol
# GULP energy per Si atom -12388.347190 kJ/mol
# Density = 1.697580 g / cm^3
# Si number density = 17.014531 Si / 1000 Ang^3
#
#
#
# Elastic Constant Matrix: (Units=GPa)
#
#
# Indices 1 2 3 4 5 6 
#
# 1 82.3453 26.8662 35.4905 0.0000 0.0000 -0.0007
# 2 26.8662 82.3453 35.4905 0.0000 0.0000 0.0007
# 3 35.4905 35.4905 101.1684 0.0000 0.0000 0.0000
# 4 0.0000 0.0000 0.0000 23.2545 0.0000 0.0000
# 5 0.0000 0.0000 0.0000 0.0000 23.2545 0.0000
# 6 -0.0007 0.0007 0.0000 0.0000 0.0000 12.2112
#
#
#
# Elastic Compliance Matrix: (Units=1/GPa)
#
#
# Indices 1 2 3 4 5 6 
#
# 1 0.014943 -0.003082 -0.004161 0.000000 0.000000 0.000001
# 2 -0.003082 0.014943 -0.004161 0.000000 0.000000 -0.000001
# 3 -0.004161 -0.004161 0.012804 0.000000 0.000000 0.000000
# 4 0.000000 0.000000 0.000000 0.043002 0.000000 0.000000
# 5 0.000000 0.000000 0.000000 0.000000 0.043002 0.000000
# 6 0.000001 -0.000001 0.000000 0.000000 0.000000 0.081892
#
#
# Mechanical properties :
#
#
# Convention : Reuss Voigt Hill
#
# Bulk Modulus (GPa) = 50.29650 51.28370 50.79010
# Shear Modulus (GPa) = 20.83149 22.94483 21.88816
#
# Velocity S-wave (km/s) = 3.50285 3.67624 3.59059
# Velocity P-wave (km/s) = 6.78122 6.94451 6.86335
#
# Compressibility (1/GPa) = 0.01988210
#
# Stress axis : x y z
#
# Youngs Moduli (GPa) = 66.92168 66.92168 78.10172
#
# Poissons Ratio (x) = 0.20625 0.32497
# Poissons Ratio (y) = 0.20625 0.32497
# Poissons Ratio (z) = 0.27845 0.27845
#
# Static dielectric constant tensor:
#      x y z
#    x 3.069240 0.000000 0.000000 
#    y 0.000000 3.069240 0.000000 
#    z 0.000000 0.000000 3.385490 
# 
# 
# High freq. dielectric constant tensor:
#      x y z
#    x 1.636590 0.000000 0.000000 
#    y 0.000000 1.636590 0.000000 
#    z 0.000000 0.000000 1.660550 
# 
# From -- ./inp_files/2639.got.cif
#   From: 2010.03.12/outbox.cif.g09.slc.cpg/sg107_2_cif.got.tgz:2639.got - 2010.04.14 01:49:11.
