data_PCOD8307479
_publ_section_title
;
Structure prediction by ZEFSAII (Michael W. Deem and Ramdas Pophale) SiO2 
 PCOD8307479
Probable space group: I 4 M M
;
_chemical_formula_sum "Si O2"
_cell_formula_units_Z 112
_cell_length_a 22.359539
_cell_length_b 22.359539
_cell_length_c 13.430488
_cell_angle_alpha 90.000000
_cell_angle_beta 90.000000
_cell_angle_gamma 90.000000
_cell_volume 6714.558834
_symmetry_space_group_name_H-M "I 4 M M"
_symmetry_group_IT_number 107
_symmetry_cell_setting 'tetragonal'
loop_
_space_group_symop_operation_xyz
x,y,z
-y,x,z
-x,-y,z
y,-x,z
-x,y,z
x,-y,z
-y,-x,z
y,x,z
1/2+x,1/2+y,1/2+z
1/2-y,1/2+x,1/2+z
1/2-x,1/2-y,1/2+z
1/2+y,1/2-x,1/2+z
1/2-x,1/2+y,1/2+z
1/2+x,1/2-y,1/2+z
1/2-y,1/2-x,1/2+z
1/2+y,1/2+x,1/2+z
loop_
_atom_site_type_symbol
_atom_site_label
_atom_site_fract_x
_atom_site_fract_y
_atom_site_fract_z
Si Si1 0.838521 0.338521 0.034380
Si Si2 0.331575 0.568540 0.058274
Si Si3 0.430672 0.786399 0.171982
Si Si4 0.668425 0.568541 0.510488
Si Si5 0.930672 0.713600 0.896780
Si Si6 0.767713 0.866155 0.393746
Si Si7 0.633847 0.267713 0.675017
O O1 0.833808 0.399127 0.098404
O O2 0.835500 0.285124 0.113238
O O3 0.899127 0.333809 0.970356
O O4 0.785123 0.335499 0.955522
O O5 0.353824 0.500000 0.063268
O O6 0.388480 0.611520 0.074232
O O7 0.282619 0.582807 0.143411
O O8 0.298552 0.578972 0.952595
O O9 0.500000 0.800613 0.161547
O O10 0.407858 0.795997 0.284381
O O11 0.646177 0.500000 0.505497
O O12 0.611519 0.611519 0.494524
O O13 0.717382 0.582807 0.425354
O O14 0.701443 0.578976 0.616170
O O15 0.000000 0.699386 0.907215
O O16 0.815592 0.815592 0.377475
O O17 0.745888 0.888824 0.284381
O O18 0.684415 0.315586 0.691296
#
# Coordination Sequence:
#
# PCOD8307479 Si02
#       7
#    16  16  16  16  16  16  16
#     4  10  17  28  48  71  90 116 154 188 222 279
#     4   9  18  31  46  66  92 124 162 198 232 271
#     4   9  18  32  49  70  97 125 151 185 230 276
#     4   9  18  31  46  66  92 124 162 198 232 271
#     4   9  18  32  49  70  97 125 151 185 230 276
#     4   9  17  28  42  63  91 118 147 191 242 283
#     4   9  17  28  42  63  91 118 147 191 242 283
#
# _framework density 16.680171999999999
#
# number of rings (size 3 to 8) (size 9 to 14) (size 15 to 20)
#    0.000    2.857    0.000    1.286    0.000    2.571 
#    0.000    0.000    0.000    3.000    0.000   10.000 
#    0.000    0.000    0.000    0.000    0.000    0.000 
#
# Total GULP energy -694023.019694 kJ/mol
# GULP energy per Si atom -12393.268209 kJ/mol
# Density = 1.664221 g / cm^3
# Si number density = 16.680172 Si / 1000 Ang^3
#
#
#
# Elastic Constant Matrix: (Units=GPa)
#
#
# Indices 1 2 3 4 5 6 
#
# 1 73.9796 49.1644 45.5198 0.0000 0.0000 0.0000
# 2 49.1644 73.9796 45.5198 0.0000 0.0000 0.0000
# 3 45.5198 45.5198 130.6032 0.0000 0.0000 0.0000
# 4 0.0000 0.0000 0.0000 22.3423 0.0000 0.0000
# 5 0.0000 0.0000 0.0000 0.0000 22.3423 0.0000
# 6 0.0000 0.0000 0.0000 0.0000 0.0000 21.7931
#
#
#
# Elastic Compliance Matrix: (Units=1/GPa)
#
#
# Indices 1 2 3 4 5 6 
#
# 1 0.025619 -0.014679 -0.003813 0.000000 0.000000 0.000000
# 2 -0.014679 0.025619 -0.003813 0.000000 0.000000 0.000000
# 3 -0.003813 -0.003813 0.010315 0.000000 0.000000 0.000000
# 4 0.000000 0.000000 0.000000 0.044758 0.000000 0.000000
# 5 0.000000 0.000000 0.000000 0.000000 0.044758 0.000000
# 6 0.000000 0.000000 0.000000 0.000000 0.000000 0.045886
#
#
# Mechanical properties :
#
#
# Convention : Reuss Voigt Hill
#
# Bulk Modulus (GPa) = 59.02424 62.10786 60.56605
# Shear Modulus (GPa) = 20.22565 22.51944 21.37254
#
# Velocity S-wave (km/s) = 3.48596 3.67832 3.58343
# Velocity P-wave (km/s) = 7.18785 7.44012 7.31507
#
# Compressibility (1/GPa) = 0.01694219
#
# Stress axis : x y z
#
# Youngs Moduli (GPa) = 39.03415 39.03415 96.95061
#
# Poissons Ratio (x) = 0.57299 0.36965
# Poissons Ratio (y) = 0.57299 0.36965
# Poissons Ratio (z) = 0.14883 0.14883
#
# Static dielectric constant tensor:
#      x y z
#    x 2.998670 0.000000 0.000000 
#    y 0.000000 2.998670 0.000000 
#    z 0.000000 0.000000 3.728950 
# 
# 
# High freq. dielectric constant tensor:
#      x y z
#    x 1.624730 0.000000 0.000000 
#    y 0.000000 1.624730 0.000000 
#    z 0.000000 0.000000 1.659500 
# 
# From -- ./inp_files/2607.got.cif
#   From: 2010.03.12/outbox.cif.g09.slc.cpg/sg107_2_cif.got.tgz:2607.got - 2010.04.14 01:49:11.
