data_PCOD8307742
_publ_section_title
;
Structure prediction by ZEFSAII (Michael W. Deem and Ramdas Pophale) SiO2 
 PCOD8307742
Probable space group: I 4 C M
;
_chemical_formula_sum "Si O2"
_cell_formula_units_Z 96
_cell_length_a 20.832910
_cell_length_b 20.832910
_cell_length_c 14.299523
_cell_angle_alpha 90.000000
_cell_angle_beta 90.000000
_cell_angle_gamma 90.000000
_cell_volume 6206.137966
_symmetry_space_group_name_H-M "I 4 C M"
_symmetry_group_IT_number 108
_symmetry_cell_setting 'tetragonal'
loop_
_space_group_symop_operation_xyz
x,y,z
-y,x,z
-x,-y,z
y,-x,z
-x,y,1/2+z
x,-y,1/2+z
-y,-x,1/2+z
y,x,1/2+z
1/2+x,1/2+y,1/2+z
1/2-y,1/2+x,1/2+z
1/2-x,1/2-y,1/2+z
1/2+y,1/2-x,1/2+z
1/2-x,1/2+y,z
1/2+x,1/2-y,z
1/2-y,1/2-x,z
1/2+y,1/2+x,z
loop_
_atom_site_type_symbol
_atom_site_label
_atom_site_fract_x
_atom_site_fract_y
_atom_site_fract_z
Si Si1 0.702015 0.310020 0.655680
Si Si2 0.261649 0.346238 0.348915
Si Si3 0.827018 0.565270 0.857050
Si Si4 0.599139 0.793247 0.155684
Si Si5 0.434727 0.827015 0.454316
Si Si6 0.153761 0.238352 0.962446
O O1 0.752071 0.252071 0.655677
O O2 0.714222 0.356666 0.743368
O O3 0.630856 0.278087 0.655684
O O4 0.714218 0.356666 0.567990
O O5 0.207438 0.292563 0.355230
O O6 0.233845 0.410873 0.393756
O O7 0.323862 0.323858 0.405676
O O8 0.886117 0.613883 0.862603
O O9 0.804530 0.556287 0.748928
O O10 0.850448 0.499998 0.905683
O O11 0.766159 0.589126 0.917611
O O12 0.656832 0.843168 0.155688
O O13 0.556289 0.804530 0.062439
O O14 0.386112 0.886112 0.448761
O O15 0.207438 0.292563 0.956134
#
# Coordination Sequence:
#
# PCOD8307742 Si02
#       6
#    16  16  16  16  16  16
#     4   9  14  23  44  69  89 109 141 185 243 297
#     4   9  15  25  43  66  86 109 145 191 237 277
#     4  10  20  32  46  65  93 128 164 194 223 264
#     4   9  16  29  47  64  85 121 156 186 239 293
#     4  10  20  32  46  65  93 128 164 194 223 264
#     4   9  15  25  43  66  86 109 145 191 237 277
#
# _framework density 15.468558
#
# number of rings (size 3 to 8) (size 9 to 14) (size 15 to 20)
#    0.000    2.667    3.333    0.000    0.000    1.667 
#    0.000    2.500    0.000    3.000    0.000    0.000 
#    0.000    0.667    0.000    3.000    0.000    0.333 
#
# Total GULP energy -594820.549748 kJ/mol
# GULP energy per Si atom -12392.094786 kJ/mol
# Density = 1.543335 g / cm^3
# Si number density = 15.468558 Si / 1000 Ang^3
#
#
#
# Elastic Constant Matrix: (Units=GPa)
#
#
# Indices 1 2 3 4 5 6 
#
# 1 35.5908 32.9155 39.5919 0.0000 0.0000 -0.0002
# 2 32.9155 35.5908 39.5919 0.0000 0.0000 0.0002
# 3 39.5919 39.5919 163.3884 0.0000 0.0000 0.0000
# 4 0.0000 0.0000 0.0000 21.4689 0.0000 0.0000
# 5 0.0000 0.0000 0.0000 0.0000 21.4689 0.0000
# 6 -0.0002 0.0002 0.0000 0.0000 0.0000 10.8461
#
#
#
# Elastic Compliance Matrix: (Units=1/GPa)
#
#
# Indices 1 2 3 4 5 6 
#
# 1 0.197034 -0.176758 -0.004913 0.000000 0.000000 0.000008
# 2 -0.176758 0.197034 -0.004913 0.000000 0.000000 -0.000008
# 3 -0.004913 -0.004913 0.008502 0.000000 0.000000 0.000000
# 4 0.000000 0.000000 0.000000 0.046579 0.000000 0.000000
# 5 0.000000 0.000000 0.000000 0.000000 0.046579 0.000000
# 6 0.000008 -0.000008 0.000000 0.000000 0.000000 0.092199
#
#
# Mechanical properties :
#
#
# Convention : Reuss Voigt Hill
#
# Bulk Modulus (GPa) = 34.01251 50.97428 42.49340
# Shear Modulus (GPa) = 5.14988 18.92150 12.03569
#
# Velocity S-wave (km/s) = 1.82660 3.50125 2.79242
# Velocity P-wave (km/s) = 5.14631 7.02638 6.15851
#
# Compressibility (1/GPa) = 0.02940095
#
# Stress axis : x y z
#
# Youngs Moduli (GPa) = 5.07526 5.07526 117.62561
#
# Poissons Ratio (x) = 0.89709 0.57793
# Poissons Ratio (y) = 0.89709 0.57793
# Poissons Ratio (z) = 0.02494 0.02494
#
# Static dielectric constant tensor:
#      x y z
#    x 2.616280 0.000000 0.000000 
#    y 0.000000 2.616280 0.000000 
#    z 0.000000 0.000000 3.372110 
# 
# 
# High freq. dielectric constant tensor:
#      x y z
#    x 1.549070 0.000000 0.000000 
#    y 0.000000 1.549070 0.000000 
#    z 0.000000 0.000000 1.620090 
# 
# From -- ./inp_files/2080.got.cif
#   From: 2010.03.12/outbox.cif.g09.slc.cpg/sg108_2_cif.got.tgz:2080.got - 2010.04.14 01:53:11.
