data_PCOD8307908
_publ_section_title
;
Structure prediction by ZEFSAII (Michael W. Deem and Ramdas Pophale) SiO2 
 PCOD8307908
Probable space group: I 41 M D
;
_chemical_formula_sum "Si O2"
_cell_formula_units_Z 96
_cell_length_a 15.711906
_cell_length_b 15.711906
_cell_length_c 18.567440
_cell_angle_alpha 90.000000
_cell_angle_beta 90.000000
_cell_angle_gamma 90.000000
_cell_volume 4583.632325
_symmetry_space_group_name_H-M "I 41 M D"
_symmetry_group_IT_number 109
_symmetry_cell_setting 'tetragonal'
loop_
_space_group_symop_operation_xyz
x,y,z
-y,1/2+x,1/4+z
-x,-y,z
y,1/2-x,1/4+z
-x,y,z
x,-y,z
-y,1/2-x,1/4+z
y,1/2+x,1/4+z
1/2+x,1/2+y,1/2+z
1/2-y,x,3/4+z
1/2-x,1/2-y,1/2+z
1/2+y,-x,3/4+z
1/2-x,1/2+y,1/2+z
1/2+x,1/2-y,1/2+z
1/2-y,-x,3/4+z
1/2+y,x,3/4+z
loop_
_atom_site_type_symbol
_atom_site_label
_atom_site_fract_x
_atom_site_fract_y
_atom_site_fract_z
Si Si1 0.406192 0.904918 0.958160
Si Si2 0.693859 0.356321 0.582291
Si Si3 0.900439 0.903009 0.942150
Si Si4 0.593325 0.371246 0.861891
Si Si5 0.902450 0.756045 0.697546
Si Si6 0.748971 0.824119 0.600741
O O1 0.500000 0.901642 0.922930
O O2 0.341030 0.855946 0.907269
O O3 0.370657 0.000000 0.965524
O O4 0.410251 0.866957 0.038473
O O5 0.631188 0.395632 0.523861
O O6 0.770688 0.419829 0.599538
O O7 0.732425 0.265344 0.561047
O O8 0.850731 0.833752 0.895778
O O9 0.000000 0.881623 0.940258
O O10 0.883903 0.000000 0.914421
O O11 0.500000 0.409628 0.880438
O O12 0.658136 0.394630 0.924308
O O13 0.834232 0.815738 0.652409
O O14 0.888455 0.747232 0.783539
O O15 0.000000 0.789491 0.684896
#
# Coordination Sequence:
#
# PCOD8307908 Si02
#       6
#    16  16  16  16  16  16
#     4  10  20  34  54  86 127 162 197 248 314 393
#     4  11  21  36  60  93 127 171 210 258 330 403
#     4  11  23  40  65  97 132 172 218 268 330 404
#     4  10  22  37  59  93 129 167 213 268 332 398
#     4  11  25  45  70  95 131 183 237 289 347 412
#     4  11  24  46  65  95 134 173 226 288 346 397
#
# _framework density 20.944087
#
# number of rings (size 3 to 8) (size 9 to 14) (size 15 to 20)
#    0.000    1.333    1.667    4.000    7.000    5.667 
#    0.000    0.000    0.000    2.500    0.000    0.000 
#    0.000    0.000    0.000    0.000    0.000    0.000 
#
# Total GULP energy -594772.498735 kJ/mol
# GULP energy per Si atom -12391.093724 kJ/mol
# Density = 2.089642 g / cm^3
# Si number density = 20.944087 Si / 1000 Ang^3
#
#
#
# Elastic Constant Matrix: (Units=GPa)
#
#
# Indices 1 2 3 4 5 6 
#
# 1 103.9948 36.1102 37.5153 0.0000 0.0000 0.0000
# 2 36.1102 103.9948 37.5153 0.0000 0.0000 0.0000
# 3 37.5153 37.5153 102.4401 0.0000 0.0000 0.0000
# 4 0.0000 0.0000 0.0000 28.1183 0.0000 0.0000
# 5 0.0000 0.0000 0.0000 0.0000 28.1182 0.0000
# 6 0.0000 0.0000 0.0000 0.0000 0.0000 18.6874
#
#
#
# Elastic Compliance Matrix: (Units=1/GPa)
#
#
# Indices 1 2 3 4 5 6 
#
# 1 0.011805 -0.002926 -0.003252 0.000000 0.000000 0.000000
# 2 -0.002926 0.011805 -0.003252 0.000000 0.000000 0.000000
# 3 -0.003252 -0.003252 0.012143 0.000000 0.000000 0.000000
# 4 0.000000 0.000000 0.000000 0.035564 0.000000 0.000000
# 5 0.000000 0.000000 0.000000 0.000000 0.035564 0.000000
# 6 0.000000 0.000000 0.000000 0.000000 0.000000 0.053512
#
#
# Mechanical properties :
#
#
# Convention : Reuss Voigt Hill
#
# Bulk Modulus (GPa) = 59.19010 59.19013 59.19011
# Shear Modulus (GPa) = 27.04411 28.27071 27.65741
#
# Velocity S-wave (km/s) = 3.59730 3.67797 3.63786
# Velocity P-wave (km/s) = 6.75103 6.80875 6.77995
#
# Compressibility (1/GPa) = 0.01689472
#
# Stress axis : x y z
#
# Youngs Moduli (GPa) = 84.71091 84.71091 82.34951
#
# Poissons Ratio (x) = 0.24787 0.26777
# Poissons Ratio (y) = 0.24787 0.26777
# Poissons Ratio (z) = 0.27544 0.27544
#
# Static dielectric constant tensor:
#      x y z
#    x 5.094800 0.000000 0.000000 
#    y 0.000000 5.094790 0.000000 
#    z 0.000000 0.000000 3.755710 
# 
# 
# High freq. dielectric constant tensor:
#      x y z
#    x 1.820110 0.000000 0.000000 
#    y 0.000000 1.820110 0.000000 
#    z 0.000000 0.000000 1.819180 
# 
# From -- ./inp_files/3802.got.cif
#   From: 2010.03.12/outbox.cif.g09.slc.cpg/sg109_2_cif.got.tgz:3802.got - 2010.04.14 01:55:16.
