data_PCOD8307542
_publ_section_title
;
Structure prediction by ZEFSAII (Michael W. Deem and Ramdas Pophale) SiO2 
 PCOD8307542
Probable space group: I 4 M M
;
_chemical_formula_sum "Si O2"
_cell_formula_units_Z 96
_cell_length_a 13.918325
_cell_length_b 13.918325
_cell_length_c 30.399567
_cell_angle_alpha 90.000000
_cell_angle_beta 90.000000
_cell_angle_gamma 90.000000
_cell_volume 5888.997152
_symmetry_space_group_name_H-M "I 4 M M"
_symmetry_group_IT_number 107
_symmetry_cell_setting 'tetragonal'
loop_
_space_group_symop_operation_xyz
x,y,z
-y,x,z
-x,-y,z
y,-x,z
-x,y,z
x,-y,z
-y,-x,z
y,x,z
1/2+x,1/2+y,1/2+z
1/2-y,1/2+x,1/2+z
1/2-x,1/2-y,1/2+z
1/2+y,1/2-x,1/2+z
1/2-x,1/2+y,1/2+z
1/2+x,1/2-y,1/2+z
1/2-y,1/2-x,1/2+z
1/2+y,1/2+x,1/2+z
loop_
_atom_site_type_symbol
_atom_site_label
_atom_site_fract_x
_atom_site_fract_y
_atom_site_fract_z
Si Si1 0.390575 0.237009 0.692580
Si Si2 0.887994 0.390081 0.611947
Si Si3 0.270326 0.887196 0.858837
Si Si4 0.888114 0.268398 0.292293
Si Si5 0.109408 0.389444 0.444742
Si Si6 0.887332 0.732929 0.529405
O O1 0.500000 0.264154 0.684248
O O2 0.334810 0.334810 0.684562
O O3 0.354715 0.158273 0.657652
O O4 0.374930 0.197435 0.741901
O O5 0.861414 0.500000 0.601243
O O6 0.850452 0.326283 0.571595
O O7 0.000000 0.376546 0.618440
O O8 0.169835 0.830166 0.855648
O O9 0.343962 0.853863 0.821156
O O10 0.319853 0.863682 0.905159
O O11 0.249074 0.000000 0.853066
O O12 0.831598 0.168403 0.301231
O O13 0.000000 0.251854 0.304074
O O14 0.119120 0.500000 0.458757
O O15 0.140451 0.326810 0.486290
O O16 0.000000 0.366585 0.430267
O O17 0.835006 0.835006 0.528007
O O18 0.000000 0.753378 0.531893
#
# Coordination Sequence:
#
# PCOD8307542 Si02
#       6
#    16  16  16  16  16  16
#     4   9  17  29  45  66  92 119 146 178 217 264
#     4   9  17  29  45  65  87 112 146 187 226 260
#     4  10  20  33  49  69  93 121 153 189 227 268
#     4   9  18  31  47  69  95 122 153 187 225 271
#     4   9  17  30  49  71  91 112 142 181 224 268
#     4  10  19  30  45  64  88 118 148 180 218 260
#
# _framework density 16.301586
#
# number of rings (size 3 to 8) (size 9 to 14) (size 15 to 20)
#    0.000    2.667    0.000    2.000    0.000    4.333 
#    0.000    3.333    0.000    0.000    0.000    2.333 
#    0.000   16.000    0.000    0.000    0.000    0.000 
#
# Total GULP energy -595174.955472 kJ/mol
# GULP energy per Si atom -12399.478239 kJ/mol
# Density = 1.626448 g / cm^3
# Si number density = 16.301586 Si / 1000 Ang^3
#
#
#
# Elastic Constant Matrix: (Units=GPa)
#
#
# Indices 1 2 3 4 5 6 
#
# 1 83.3132 52.1346 60.0913 0.0000 0.0000 0.0001
# 2 52.1346 83.3132 60.0913 0.0000 0.0000 -0.0001
# 3 60.0913 60.0913 117.2115 0.0000 0.0000 0.0000
# 4 0.0000 0.0000 0.0000 25.8690 0.0000 0.0000
# 5 0.0000 0.0000 0.0000 0.0000 25.8690 0.0000
# 6 0.0001 -0.0001 0.0000 0.0000 0.0000 24.8644
#
#
#
# Elastic Compliance Matrix: (Units=1/GPa)
#
#
# Indices 1 2 3 4 5 6 
#
# 1 0.022809 -0.009265 -0.006944 0.000000 0.000000 0.000000
# 2 -0.009265 0.022809 -0.006944 0.000000 0.000000 0.000000
# 3 -0.006944 -0.006944 0.015651 0.000000 0.000000 0.000000
# 4 0.000000 0.000000 0.000000 0.038656 0.000000 0.000000
# 5 0.000000 0.000000 0.000000 0.000000 0.038656 0.000000
# 6 0.000000 0.000000 0.000000 0.000000 0.000000 0.040218
#
#
# Mechanical properties :
#
#
# Convention : Reuss Voigt Hill
#
# Bulk Modulus (GPa) = 66.82421 69.83026 68.32723
# Shear Modulus (GPa) = 21.73050 22.75521 22.24285
#
# Velocity S-wave (km/s) = 3.65503 3.74021 3.69787
# Velocity P-wave (km/s) = 7.67423 7.84740 7.76130
#
# Compressibility (1/GPa) = 0.01496464
#
# Stress axis : x y z
#
# Youngs Moduli (GPa) = 43.84301 43.84301 63.89254
#
# Poissons Ratio (x) = 0.40619 0.44365
# Poissons Ratio (y) = 0.40619 0.44365
# Poissons Ratio (z) = 0.30443 0.30443
#
# Static dielectric constant tensor:
#      x y z
#    x 2.982830 0.000000 0.000000 
#    y 0.000000 2.982830 0.000000 
#    z 0.000000 0.000000 3.279550 
# 
# 
# High freq. dielectric constant tensor:
#      x y z
#    x 1.618930 0.000000 0.000000 
#    y 0.000000 1.618930 0.000000 
#    z 0.000000 0.000000 1.640140 
# 
# From -- ./inp_files/6096.got.cif
#   From: 2010.03.12/outbox.cif.g09.slc.cpg/sg107_4_cif.got.tgz:6096.got - 2010.04.14 01:49:11.
