data_PCOD8307753
_publ_section_title
;
Structure prediction by ZEFSAII (Michael W. Deem and Ramdas Pophale) SiO2 
 PCOD8307753
Probable space group: I 4 C M
;
_chemical_formula_sum "Si O2"
_cell_formula_units_Z 84
_cell_length_a 24.075282
_cell_length_b 24.075282
_cell_length_c 8.842332
_cell_angle_alpha 90.000000
_cell_angle_beta 90.000000
_cell_angle_gamma 90.000000
_cell_volume 5125.185430
_symmetry_space_group_name_H-M "I 4 C M"
_symmetry_group_IT_number 108
_symmetry_cell_setting 'tetragonal'
loop_
_space_group_symop_operation_xyz
x,y,z
-y,x,z
-x,-y,z
y,-x,z
-x,y,1/2+z
x,-y,1/2+z
-y,-x,1/2+z
y,x,1/2+z
1/2+x,1/2+y,1/2+z
1/2-y,1/2+x,1/2+z
1/2-x,1/2-y,1/2+z
1/2+y,1/2-x,1/2+z
1/2-x,1/2+y,z
1/2+x,1/2-y,z
1/2-y,1/2-x,z
1/2+y,1/2+x,z
loop_
_atom_site_type_symbol
_atom_site_label
_atom_site_fract_x
_atom_site_fract_y
_atom_site_fract_z
Si Si1 0.443158 0.793188 0.637360
Si Si2 0.745204 0.336716 0.634059
Si Si3 0.087323 0.587323 0.789728
Si Si4 0.587323 0.087323 0.624902
Si Si5 0.254796 0.663284 0.280571
Si Si6 0.943158 0.293188 0.777269
Si Si7 0.000000 0.500000 0.707315
O O1 0.434327 0.856123 0.703086
O O2 0.394662 0.753602 0.696215
O O3 0.446535 0.791227 0.457315
O O4 0.500000 0.770128 0.707315
O O5 0.799112 0.299112 0.663843
O O6 0.734793 0.346294 0.457315
O O7 0.691330 0.308670 0.707315
O O8 0.753602 0.394662 0.718414
O O9 0.065673 0.643877 0.711543
O O10 0.040030 0.540030 0.802993
O O11 0.104863 0.604863 0.957315
O O12 0.540030 0.040030 0.611636
O O13 0.200888 0.700888 0.250787
#
# Coordination Sequence:
#
# PCOD8307753 Si02
#       7
#    16  16   8   8  16  16   4
#     4  11  21  35  50  71  99 132 171 216 261 308
#     4  10  20  34  53  76  99 130 167 212 263 316
#     4  10  21  31  44  63  91 128 172 217 258 295
#     4  10  21  31  44  63  91 128 172 217 258 295
#     4  10  20  34  53  76  99 130 167 212 263 316
#     4  11  21  35  50  71  99 132 171 216 261 308
#     4  12  18  36  44  62  88 136 182 224 258 288
#
# _framework density 16.389651000000001
#
# number of rings (size 3 to 8) (size 9 to 14) (size 15 to 20)
#    0.000    1.524    3.810    2.571    0.000    1.524 
#    0.000    0.000    0.000    0.000    0.000    0.000 
#    0.000    0.762    0.000    7.619    0.000    4.571 
#
# Total GULP energy -520778.688589 kJ/mol
# GULP energy per Si atom -12399.492585 kJ/mol
# Density = 1.635235 g / cm^3
# Si number density = 16.389651 Si / 1000 Ang^3
#
#
#
# Elastic Constant Matrix: (Units=GPa)
#
#
# Indices 1 2 3 4 5 6 
#
# 1 105.7663 64.5959 46.7290 0.0000 0.0000 0.0000
# 2 64.5959 105.7663 46.7290 0.0000 0.0000 0.0000
# 3 46.7290 46.7290 97.6375 0.0000 0.0000 0.0000
# 4 0.0000 0.0000 0.0000 25.4328 0.0000 0.0000
# 5 0.0000 0.0000 0.0000 0.0000 25.4328 0.0000
# 6 0.0000 0.0000 0.0000 0.0000 0.0000 27.5176
#
#
#
# Elastic Compliance Matrix: (Units=1/GPa)
#
#
# Indices 1 2 3 4 5 6 
#
# 1 0.016124 -0.008165 -0.003809 0.000000 0.000000 0.000000
# 2 -0.008165 0.016124 -0.003809 0.000000 0.000000 0.000000
# 3 -0.003809 -0.003809 0.013888 0.000000 0.000000 0.000000
# 4 0.000000 0.000000 0.000000 0.039319 0.000000 0.000000
# 5 0.000000 0.000000 0.000000 0.000000 0.039319 0.000000
# 6 0.000000 0.000000 0.000000 0.000000 0.000000 0.036340
#
#
# Mechanical properties :
#
#
# Convention : Reuss Voigt Hill
#
# Bulk Modulus (GPa) = 68.63507 69.47533 69.05520
# Shear Modulus (GPa) = 25.31127 25.75104 25.53115
#
# Velocity S-wave (km/s) = 3.93408 3.96811 3.95113
# Velocity P-wave (km/s) = 7.91227 7.96720 7.93978
#
# Compressibility (1/GPa) = 0.01456981
#
# Stress axis : x y z
#
# Youngs Moduli (GPa) = 62.01754 62.01754 72.00269
#
# Poissons Ratio (x) = 0.50636 0.27429
# Poissons Ratio (y) = 0.50636 0.27429
# Poissons Ratio (z) = 0.23625 0.23625
#
# Static dielectric constant tensor:
#      x y z
#    x 2.963380 0.000000 0.000000 
#    y 0.000000 2.963380 0.000000 
#    z 0.000000 0.000000 3.006080 
# 
# 
# High freq. dielectric constant tensor:
#      x y z
#    x 1.611500 0.000000 0.000000 
#    y 0.000000 1.611500 0.000000 
#    z 0.000000 0.000000 1.635860 
# 
# From -- ./inp_files/734.got.cif
#   From: 2010.03.12/outbox.cif.g09.slc.cpg/sg108_1_cif.got.tgz:734.got - 2010.04.14 01:53:11.
