data_PCOD8307501
_publ_section_title
;
Structure prediction by ZEFSAII (Michael W. Deem and Ramdas Pophale) SiO2 
 PCOD8307501
Probable space group: I 4 M M
;
_chemical_formula_sum "Si O2"
_cell_formula_units_Z 96
_cell_length_a 25.685299
_cell_length_b 25.685299
_cell_length_c 9.754952
_cell_angle_alpha 90.000000
_cell_angle_beta 90.000000
_cell_angle_gamma 90.000000
_cell_volume 6435.679207
_symmetry_space_group_name_H-M "I 4 M M"
_symmetry_group_IT_number 107
_symmetry_cell_setting 'tetragonal'
loop_
_space_group_symop_operation_xyz
x,y,z
-y,x,z
-x,-y,z
y,-x,z
-x,y,z
x,-y,z
-y,-x,z
y,x,z
1/2+x,1/2+y,1/2+z
1/2-y,1/2+x,1/2+z
1/2-x,1/2-y,1/2+z
1/2+y,1/2-x,1/2+z
1/2-x,1/2+y,1/2+z
1/2+x,1/2-y,1/2+z
1/2-y,1/2-x,1/2+z
1/2+y,1/2+x,1/2+z
loop_
_atom_site_type_symbol
_atom_site_label
_atom_site_fract_x
_atom_site_fract_y
_atom_site_fract_z
Si Si1 0.711558 0.557887 0.245830
Si Si2 0.441133 0.355083 0.986006
Si Si3 0.391402 0.308610 0.745583
Si Si4 0.832926 0.254621 0.783666
Si Si5 0.823059 0.736664 0.096184
Si Si6 0.057617 0.139662 0.994717
O O1 0.738106 0.500000 0.224949
O O2 0.749063 0.607630 0.230662
O O3 0.689588 0.561666 0.398365
O O4 0.663863 0.563717 0.141229
O O5 0.500000 0.371601 0.951848
O O6 0.405304 0.405304 0.959655
O O7 0.423564 0.306415 0.887997
O O8 0.337375 0.337375 0.778962
O O9 0.376301 0.252827 0.677523
O O10 0.426770 0.342475 0.645075
O O11 0.799582 0.200419 0.777488
O O12 0.810113 0.296573 0.678186
O O13 0.833693 0.278494 0.937638
O O14 0.786703 0.786703 0.092362
O O15 0.095148 0.095148 0.937401
O O16 0.000000 0.116108 0.997964
#
# Coordination Sequence:
#
# PCOD8307501 Si02
#       6
#    16  16  16  16  16  16
#     4  10  20  32  46  62  85 120 154 184 230 275
#     4  10  20  31  44  61  82 116 160 203 243 273
#     4   9  17  30  43  59  83 109 140 182 231 281
#     4  10  18  30  46  68  92 114 146 187 225 272
#     4   9  18  28  44  67  89 112 138 178 232 274
#     4  10  18  29  44  59  79 111 151 194 234 266
#
# _framework density 14.916840000000001
#
# number of rings (size 3 to 8) (size 9 to 14) (size 15 to 20)
#    0.000    2.333    1.667    2.000    2.333    0.333 
#    0.000    0.000    0.000    6.000    0.000    0.000 
#    0.000    0.000    0.000    0.000    0.000   12.500 
#
# Total GULP energy -594761.129955 kJ/mol
# GULP energy per Si atom -12390.856874 kJ/mol
# Density = 1.488289 g / cm^3
# Si number density = 14.916840 Si / 1000 Ang^3
#
#
#
# Elastic Constant Matrix: (Units=GPa)
#
#
# Indices 1 2 3 4 5 6 
#
# 1 64.8545 39.4791 24.8156 0.0000 0.0000 0.0000
# 2 39.4791 64.8545 24.8156 0.0000 0.0000 0.0000
# 3 24.8156 24.8156 62.2066 0.0000 0.0000 0.0000
# 4 0.0000 0.0000 0.0000 18.6764 0.0000 0.0000
# 5 0.0000 0.0000 0.0000 0.0000 18.6764 0.0000
# 6 0.0000 0.0000 0.0000 0.0000 0.0000 20.2455
#
#
#
# Elastic Compliance Matrix: (Units=1/GPa)
#
#
# Indices 1 2 3 4 5 6 
#
# 1 0.025619 -0.013789 -0.004719 0.000000 0.000000 0.000000
# 2 -0.013789 0.025619 -0.004719 0.000000 0.000000 0.000000
# 3 -0.004719 -0.004719 0.019841 0.000000 0.000000 0.000000
# 4 0.000000 0.000000 0.000000 0.053543 0.000000 0.000000
# 5 0.000000 0.000000 0.000000 0.000000 0.053543 0.000000
# 6 0.000000 0.000000 0.000000 0.000000 0.000000 0.049394
#
#
# Mechanical properties :
#
#
# Convention : Reuss Voigt Hill
#
# Bulk Modulus (GPa) = 40.61193 41.12625 40.86909
# Shear Modulus (GPa) = 17.71658 18.37335 18.04496
#
# Velocity S-wave (km/s) = 3.45003 3.51339 3.48185
# Velocity P-wave (km/s) = 6.56924 6.63994 6.60468
#
# Compressibility (1/GPa) = 0.02462331
#
# Stress axis : x y z
#
# Youngs Moduli (GPa) = 39.03374 39.03374 50.40184
#
# Poissons Ratio (x) = 0.53825 0.23785
# Poissons Ratio (y) = 0.53825 0.23785
# Poissons Ratio (z) = 0.18420 0.18420
#
# Static dielectric constant tensor:
#      x y z
#    x 2.737100 0.000000 0.000000 
#    y 0.000000 2.737100 0.000000 
#    z 0.000000 0.000000 3.053080 
# 
# 
# High freq. dielectric constant tensor:
#      x y z
#    x 1.535040 0.000000 0.000000 
#    y 0.000000 1.535040 0.000000 
#    z 0.000000 0.000000 1.594540 
# 
# From -- ./inp_files/1600.got.cif
#   From: 2010.03.12/outbox.cif.g09.slc.cpg/sg107_1_cif.got.tgz:1600.got - 2010.04.14 01:49:11.
