data_PCOD8307107
_publ_section_title
;
Structure prediction by ZEFSAII (Michael W. Deem and Ramdas Pophale) SiO2 
 PCOD8307107
Probable space group: P 42 M C
;
_chemical_formula_sum "Si O2"
_cell_formula_units_Z 48
_cell_length_a 22.797575
_cell_length_b 22.797575
_cell_length_c 5.354842
_cell_angle_alpha 90.000000
_cell_angle_beta 90.000000
_cell_angle_gamma 90.000000
_cell_volume 2783.068958
_symmetry_space_group_name_H-M "P 42 M C"
_symmetry_group_IT_number 105
_symmetry_cell_setting 'tetragonal'
loop_
_space_group_symop_operation_xyz
x,y,z
-y,x,1/2+z
-x,-y,z
y,-x,1/2+z
-x,y,z
x,-y,z
-y,-x,1/2+z
y,x,1/2+z
loop_
_atom_site_type_symbol
_atom_site_label
_atom_site_fract_x
_atom_site_fract_y
_atom_site_fract_z
Si Si1 0.431266 0.622526 0.696830
Si Si2 0.235546 0.322832 0.704821
Si Si3 0.120095 0.098290 0.706470
Si Si4 0.869308 0.760311 0.706487
Si Si5 0.638359 0.265018 0.704825
Si Si6 0.065488 0.247600 0.206480
O O1 0.500000 0.613016 0.714969
O O2 0.409363 0.597628 0.433014
O O3 0.417178 0.691823 0.707511
O O4 0.196429 0.264183 0.706349
O O5 0.224236 0.361591 0.454347
O O6 0.302943 0.303961 0.702264
O O7 0.224555 0.362019 0.954281
O O8 0.083276 0.083285 0.456478
O O9 0.134403 0.168874 0.706513
O O10 0.177481 0.059215 0.706441
O O11 0.901413 0.734180 0.460778
O O12 0.901349 0.734173 0.952335
O O13 0.000000 0.274619 0.206355
#
# Coordination Sequence:
#
# PCOD8307107 Si02
#       6
#     8   8   8   8   8   8
#     4  12  23  40  54  74 102 138 182 227 257 293
#     4  10  18  28  51  66  97 110 158 210 244 283
#     4   8  16  25  37  55  78  98 152 181 220 255
#     4  10  19  28  45  68  84 121 161 205 231 284
#     4  10  19  31  48  72  96 120 154 211 259 290
#     4  10  19  29  39  58  96 124 154 186 243 298
#
# _framework density 17.247149
#
# number of rings (size 3 to 8) (size 9 to 14) (size 15 to 20)
#    0.000    2.000    3.333    2.000   14.000    1.000 
#    0.000    0.000    0.000    0.000    0.000    0.000 
#    0.000  162.000    0.000    0.000    0.000   58.333 
#
# Total GULP energy -594636.067741 kJ/mol
# GULP energy per Si atom -12388.251411 kJ/mol
# Density = 1.720789 g / cm^3
# Si number density = 17.247149 Si / 1000 Ang^3
#
#
#
# Elastic Constant Matrix: (Units=GPa)
#
#
# Indices 1 2 3 4 5 6 
#
# 1 28.4849 22.3428 12.0521 0.0000 0.0000 0.0000
# 2 22.3428 28.4849 12.0521 0.0000 0.0000 0.0000
# 3 12.0521 12.0521 179.6746 0.0000 0.0000 0.0000
# 4 0.0000 0.0000 0.0000 17.4628 0.0000 0.0000
# 5 0.0000 0.0000 0.0000 0.0000 17.4628 0.0000
# 6 0.0000 0.0000 0.0000 0.0000 0.0000 8.8851
#
#
#
# Elastic Compliance Matrix: (Units=1/GPa)
#
#
# Indices 1 2 3 4 5 6 
#
# 1 0.091565 -0.071245 -0.001363 0.000000 0.000000 0.000000
# 2 -0.071245 0.091565 -0.001363 0.000000 0.000000 0.000000
# 3 -0.001363 -0.001363 0.005748 0.000000 0.000000 0.000000
# 4 0.000000 0.000000 0.000000 0.057265 0.000000 0.000000
# 5 0.000000 0.000000 0.000000 0.000000 0.057265 0.000000
# 6 0.000000 0.000000 0.000000 0.000000 0.000000 0.112547
#
#
# Mechanical properties :
#
#
# Convention : Reuss Voigt Hill
#
# Bulk Modulus (GPa) = 24.42736 36.61537 30.52136
# Shear Modulus (GPa) = 8.65736 21.44197 15.04966
#
# Velocity S-wave (km/s) = 2.24287 3.52976 2.95717
# Velocity P-wave (km/s) = 4.57178 6.15533 5.42168
#
# Compressibility (1/GPa) = 0.04093771
#
# Stress axis : x y z
#
# Youngs Moduli (GPa) = 10.92115 10.92115 173.95904
#
# Poissons Ratio (x) = 0.77807 0.23712
# Poissons Ratio (y) = 0.77807 0.23712
# Poissons Ratio (z) = 0.01489 0.01489
#
# Static dielectric constant tensor:
#      x y z
#    x 2.787530 0.000000 0.000000 
#    y 0.000000 2.787530 0.000000 
#    z 0.000000 0.000000 5.337230 
# 
# 
# High freq. dielectric constant tensor:
#      x y z
#    x 1.608270 0.000000 0.000000 
#    y 0.000000 1.608270 0.000000 
#    z 0.000000 0.000000 1.717560 
# 
# From -- ./inp_files/265.got.cif
#   From: 2010.03.12/outbox.cif.g09.slc.cpg/sg105_1_cif.got.tgz:265.got - 2010.04.14 01:45:32.
