data_PCOD8307826
_publ_section_title
;
Structure prediction by ZEFSAII (Michael W. Deem and Ramdas Pophale) SiO2 
 PCOD8307826
Probable space group: I 41 M D
;
_chemical_formula_sum "Si O2"
_cell_formula_units_Z 80
_cell_length_a 18.076117
_cell_length_b 18.076117
_cell_length_c 15.289379
_cell_angle_alpha 90.000000
_cell_angle_beta 90.000000
_cell_angle_gamma 90.000000
_cell_volume 4995.743519
_symmetry_space_group_name_H-M "I 41 M D"
_symmetry_group_IT_number 109
_symmetry_cell_setting 'tetragonal'
loop_
_space_group_symop_operation_xyz
x,y,z
-y,1/2+x,1/4+z
-x,-y,z
y,1/2-x,1/4+z
-x,y,z
x,-y,z
-y,1/2-x,1/4+z
y,1/2+x,1/4+z
1/2+x,1/2+y,1/2+z
1/2-y,x,3/4+z
1/2-x,1/2-y,1/2+z
1/2+y,-x,3/4+z
1/2-x,1/2+y,1/2+z
1/2+x,1/2-y,1/2+z
1/2-y,-x,3/4+z
1/2+y,x,3/4+z
loop_
_atom_site_type_symbol
_atom_site_label
_atom_site_fract_x
_atom_site_fract_y
_atom_site_fract_z
Si Si1 0.716799 0.583773 0.827320
Si Si2 0.418564 0.416084 0.516812
Si Si3 0.816492 0.784785 0.439310
Si Si4 0.874412 0.417487 0.463420
Si Si5 0.770999 0.157013 0.001402
O O1 0.740109 0.500000 0.850498
O O2 0.779687 0.621654 0.765980
O O3 0.706897 0.631081 0.916969
O O4 0.638072 0.584249 0.778633
O O5 0.500000 0.387811 0.486071
O O6 0.406247 0.500000 0.485623
O O7 0.413945 0.414622 0.621026
O O8 0.354141 0.365674 0.474967
O O9 0.850987 0.743179 0.355199
O O10 0.742918 0.741610 0.471710
O O11 0.880081 0.500000 0.502935
O O12 0.787960 0.395677 0.452282
#
# Coordination Sequence:
#
# PCOD8307826 Si02
#       5
#    16  16  16  16  16
#     4  10  18  30  46  68  96 124 155 192 230 275
#     4  10  18  26  39  64  92 114 142 180 222 269
#     4   8  18  28  45  66  86 121 158 186 220 282
#     4   9  17  25  39  63  90 121 143 164 208 270
#     4  10  15  30  43  61  88 122 156 181 222 271
#
# _framework density 16.013632000000001
#
# number of rings (size 3 to 8) (size 9 to 14) (size 15 to 20)
#    0.000    3.000    4.000    1.200    0.000    4.400 
#    0.000    0.000    0.000    4.800    0.000    0.000 
#    0.000    0.000    0.000    0.000    0.000    0.000 
#
# Total GULP energy -495645.987338 kJ/mol
# GULP energy per Si atom -12391.149683 kJ/mol
# Density = 1.597718 g / cm^3
# Si number density = 16.013632 Si / 1000 Ang^3
#
#
#
# Elastic Constant Matrix: (Units=GPa)
#
#
# Indices 1 2 3 4 5 6 
#
# 1 115.8733 29.0667 21.5604 0.0000 0.0000 0.0000
# 2 29.0667 115.8733 21.5604 0.0000 0.0000 0.0000
# 3 21.5604 21.5604 26.6263 0.0000 0.0000 0.0000
# 4 0.0000 0.0000 0.0000 20.3988 0.0000 0.0000
# 5 0.0000 0.0000 0.0000 0.0000 20.3988 0.0000
# 6 0.0000 0.0000 0.0000 0.0000 0.0000 14.7481
#
#
#
# Elastic Compliance Matrix: (Units=1/GPa)
#
#
# Indices 1 2 3 4 5 6 
#
# 1 0.010304 -0.001215 -0.007360 0.000000 0.000000 0.000000
# 2 -0.001215 0.010304 -0.007360 0.000000 0.000000 0.000000
# 3 -0.007360 -0.007360 0.049476 0.000000 0.000000 0.000000
# 4 0.000000 0.000000 0.000000 0.049022 0.000000 0.000000
# 5 0.000000 0.000000 0.000000 0.000000 0.049022 0.000000
# 6 0.000000 0.000000 0.000000 0.000000 0.000000 0.067805
#
#
# Mechanical properties :
#
#
# Convention : Reuss Voigt Hill
#
# Bulk Modulus (GPa) = 26.16780 44.74974 35.45877
# Shear Modulus (GPa) = 17.82258 23.52151 20.67204
#
# Velocity S-wave (km/s) = 3.33973 3.83671 3.59681
# Velocity P-wave (km/s) = 5.59000 6.90163 6.28015
#
# Compressibility (1/GPa) = 0.03821491
#
# Stress axis : x y z
#
# Youngs Moduli (GPa) = 97.04571 97.04571 20.21188
#
# Poissons Ratio (x) = 0.11795 0.14875
# Poissons Ratio (y) = 0.11795 0.14875
# Poissons Ratio (z) = 0.71423 0.71423
#
# Static dielectric constant tensor:
#      x y z
#    x 3.091560 0.000000 0.000000 
#    y 0.000000 3.091560 0.000000 
#    z 0.000000 0.000000 2.764530 
# 
# 
# High freq. dielectric constant tensor:
#      x y z
#    x 1.606950 0.000000 0.000000 
#    y 0.000000 1.606950 0.000000 
#    z 0.000000 0.000000 1.569520 
# 
# From -- ./inp_files/2475.got.cif
#   From: 2010.03.12/outbox.cif.g09.slc.cpg/sg109_2_cif.got.tgz:2475.got - 2010.04.14 01:55:16.
