data_PCOD8307149
_publ_section_title
;
Structure prediction by ZEFSAII (Michael W. Deem and Ramdas Pophale) SiO2 
 PCOD8307149
Probable space group: P 42 M C
;
_chemical_formula_sum "Si O2"
_cell_formula_units_Z 48
_cell_length_a 8.143909
_cell_length_b 8.143909
_cell_length_c 34.248870
_cell_angle_alpha 90.000000
_cell_angle_beta 90.000000
_cell_angle_gamma 90.000000
_cell_volume 2271.496497
_symmetry_space_group_name_H-M "P 42 M C"
_symmetry_group_IT_number 105
_symmetry_cell_setting 'tetragonal'
loop_
_space_group_symop_operation_xyz
x,y,z
-y,x,1/2+z
-x,-y,z
y,-x,1/2+z
-x,y,z
x,-y,z
-y,-x,1/2+z
y,x,1/2+z
loop_
_atom_site_type_symbol
_atom_site_label
_atom_site_fract_x
_atom_site_fract_y
_atom_site_fract_z
Si Si1 0.802985 0.000000 0.040061
Si Si2 0.000000 0.809682 0.627204
Si Si3 0.688279 0.811760 0.918190
Si Si4 0.308741 0.815918 0.757299
Si Si5 0.680487 0.810245 0.495633
Si Si6 0.812261 0.189823 0.837613
Si Si7 0.685526 0.688924 0.673976
O O1 0.731408 0.000000 0.083983
O O2 0.731330 0.165343 0.019194
O O3 0.000000 0.000000 0.037538
O O4 0.830154 0.766632 0.648586
O O5 0.000000 0.000000 0.621102
O O6 0.500000 0.799749 0.930199
O O7 0.713359 0.737080 0.874603
O O8 0.751774 0.000000 0.918749
O O9 0.790186 0.707860 0.949370
O O10 0.500000 0.822288 0.764948
O O11 0.230889 0.728610 0.795729
O O12 0.265423 0.710297 0.719209
O O13 0.238299 0.000000 0.750428
O O14 0.500000 0.733616 0.506725
O O15 0.673791 0.000000 0.506172
O O16 0.000000 0.218285 0.847686
O O17 0.763582 0.000000 0.832635
O O18 0.500000 0.764132 0.666196
O O19 0.679885 0.500000 0.663288
#
# Coordination Sequence:
#
# PCOD8307149 Si02
#       7
#     4   4   8   8   8   8   8
#     4   9  20  39  61  89 119 147 185 241 301 353
#     4  11  23  39  65  95 119 151 199 253 305 363
#     4  10  19  32  52  78 111 153 194 232 280 338
#     4   9  17  31  52  79 111 149 196 244 289 344
#     4  10  20  36  60  86 113 148 187 231 288 353
#     4   9  17  28  47  77 110 147 192 241 288 337
#     4  10  22  40  60  85 121 163 200 241 302 367
#
# _framework density 21.131442
#
# number of rings (size 3 to 8) (size 9 to 14) (size 15 to 20)
#    0.000    2.333    0.833    1.750    1.167    4.667 
#    0.000    4.167    0.000    3.000    0.000    0.000 
#    0.000    0.000    0.000    0.000    0.000    0.000 
#
# Total GULP energy -594823.911611 kJ/mol
# GULP energy per Si atom -12392.164825 kJ/mol
# Density = 2.108335 g / cm^3
# Si number density = 21.131442 Si / 1000 Ang^3
#
#
#
# Elastic Constant Matrix: (Units=GPa)
#
#
# Indices 1 2 3 4 5 6 
#
# 1 73.4646 21.7643 43.2874 0.0000 0.0000 0.0000
# 2 21.7643 73.4646 43.2874 0.0000 0.0000 0.0000
# 3 43.2874 43.2874 149.8608 0.0000 0.0000 0.0000
# 4 0.0000 0.0000 0.0000 3.2688 0.0000 0.0000
# 5 0.0000 0.0000 0.0000 0.0000 3.2688 0.0000
# 6 0.0000 0.0000 0.0000 0.0000 0.0000 14.9136
#
#
#
# Elastic Compliance Matrix: (Units=1/GPa)
#
#
# Indices 1 2 3 4 5 6 
#
# 1 0.016791 -0.002551 -0.004113 0.000000 0.000000 0.000000
# 2 -0.002551 0.016791 -0.004113 0.000000 0.000000 0.000000
# 3 -0.004113 -0.004113 0.009049 0.000000 0.000000 0.000000
# 4 0.000000 0.000000 0.000000 0.305920 0.000000 0.000000
# 5 0.000000 0.000000 0.000000 0.000000 0.305920 0.000000
# 6 0.000000 0.000000 0.000000 0.000000 0.000000 0.067053
#
#
# Mechanical properties :
#
#
# Convention : Reuss Voigt Hill
#
# Bulk Modulus (GPa) = 47.44561 57.05202 52.24882
# Shear Modulus (GPa) = 6.66572 16.85363 11.75968
#
# Velocity S-wave (km/s) = 1.77799 2.82718 2.36159
# Velocity P-wave (km/s) = 5.16879 6.14121 5.67586
#
# Compressibility (1/GPa) = 0.02107676
#
# Stress axis : x y z
#
# Youngs Moduli (GPa) = 59.55419 59.55419 110.50721
#
# Poissons Ratio (x) = 0.15191 0.45456
# Poissons Ratio (y) = 0.15191 0.45456
# Poissons Ratio (z) = 0.24497 0.24497
#
# Static dielectric constant tensor:
#      x y z
#    x 3.785440 0.000000 0.000000 
#    y 0.000000 3.785440 0.000000 
#    z 0.000000 0.000000 3.954660 
# 
# 
# High freq. dielectric constant tensor:
#      x y z
#    x 1.807920 0.000000 0.000000 
#    y 0.000000 1.807920 0.000000 
#    z 0.000000 0.000000 1.832510 
# 
# From -- ./inp_files/4733.got.cif
#   From: 2010.03.12/outbox.cif.g09.slc.cpg/sg105_3_cif.got.tgz:4733.got - 2010.04.14 01:45:32.
