data_PCOD8307649
_publ_section_title
;
Structure prediction by ZEFSAII (Michael W. Deem and Ramdas Pophale) SiO2 
 PCOD8307649
Probable space group: I 4 M M
;
_chemical_formula_sum "Si O2"
_cell_formula_units_Z 128
_cell_length_a 25.023691
_cell_length_b 25.023691
_cell_length_c 11.069962
_cell_angle_alpha 90.000000
_cell_angle_beta 90.000000
_cell_angle_gamma 90.000000
_cell_volume 6931.845387
_symmetry_space_group_name_H-M "I 4 M M"
_symmetry_group_IT_number 107
_symmetry_cell_setting 'tetragonal'
loop_
_space_group_symop_operation_xyz
x,y,z
-y,x,z
-x,-y,z
y,-x,z
-x,y,z
x,-y,z
-y,-x,z
y,x,z
1/2+x,1/2+y,1/2+z
1/2-y,1/2+x,1/2+z
1/2-x,1/2-y,1/2+z
1/2+y,1/2-x,1/2+z
1/2-x,1/2+y,1/2+z
1/2+x,1/2-y,1/2+z
1/2-y,1/2-x,1/2+z
1/2+y,1/2+x,1/2+z
loop_
_atom_site_type_symbol
_atom_site_label
_atom_site_fract_x
_atom_site_fract_y
_atom_site_fract_z
Si Si1 0.709766 0.855690 0.828960
Si Si2 0.436641 0.879510 0.363975
Si Si3 0.384039 0.938147 0.135324
Si Si4 0.061407 0.739302 0.174878
Si Si5 0.757052 0.156412 0.349280
Si Si6 0.692087 0.391770 0.471671
Si Si7 0.720174 0.365152 0.120285
Si Si8 0.645722 0.560658 0.240166
O O1 0.678065 0.909231 0.862534
O O2 0.676375 0.803234 0.857508
O O3 0.764386 0.854916 0.904048
O O4 0.722770 0.856736 0.685598
O O5 0.500000 0.871877 0.352090
O O6 0.415554 0.911446 0.246845
O O7 0.423170 0.904937 0.498232
O O8 0.321456 0.923286 0.141230
O O9 0.393450 0.000000 0.156967
O O10 0.102890 0.761103 0.272336
O O11 0.000000 0.742670 0.220708
O O12 0.068498 0.779000 0.063207
O O13 0.796860 0.203141 0.300656
O O14 0.774390 0.137512 0.479291
O O15 0.649635 0.350366 0.532482
O O16 0.660932 0.429722 0.379242
O O17 0.680584 0.319416 0.170371
O O18 0.695706 0.422472 0.156144
O O19 0.631909 0.500000 0.215614
O O20 0.593310 0.593310 0.202627
#
# Coordination Sequence:
#
# PCOD8307649 Si02
#       8
#    16  16  16  16  16  16  16  16
#     4  11  21  35  57  84 115 148 191 238 291 357
#     4  11  24  41  63  88 116 155 201 256 305 355
#     4  10  23  43  62  84 116 153 198 254 306 354
#     4  11  22  37  57  82 116 154 195 242 290 350
#     4  11  23  37  57  85 118 153 192 242 299 359
#     4  10  20  35  57  83 114 153 193 232 287 352
#     4   9  21  37  52  78 115 151 189 230 283 349
#     4   9  18  34  56  82 113 148 189 237 285 343
#
# _framework density 18.465501
#
# number of rings (size 3 to 8) (size 9 to 14) (size 15 to 20)
#    0.000    1.750    2.500    2.625    3.500    3.375 
#    0.000    2.500    0.000    0.000    0.000    0.000 
#    0.000    2.250    0.000    0.500    0.000    0.000 
#
# Total GULP energy -793251.350320 kJ/mol
# GULP energy per Si atom -12394.552349 kJ/mol
# Density = 1.842347 g / cm^3
# Si number density = 18.465501 Si / 1000 Ang^3
#
#
#
# Elastic Constant Matrix: (Units=GPa)
#
#
# Indices 1 2 3 4 5 6 
#
# 1 96.8916 40.9220 41.0389 0.0000 0.0000 0.0002
# 2 40.9220 96.8916 41.0389 0.0000 0.0000 -0.0002
# 3 41.0389 41.0389 96.6490 0.0000 0.0000 0.0000
# 4 0.0000 0.0000 0.0000 20.4431 0.0000 0.0000
# 5 0.0000 0.0000 0.0000 0.0000 20.4431 0.0000
# 6 0.0002 -0.0002 0.0000 0.0000 0.0000 22.7702
#
#
#
# Elastic Compliance Matrix: (Units=1/GPa)
#
#
# Indices 1 2 3 4 5 6 
#
# 1 0.013790 -0.004077 -0.004124 0.000000 0.000000 0.000000
# 2 -0.004077 0.013790 -0.004124 0.000000 0.000000 0.000000
# 3 -0.004124 -0.004124 0.013849 0.000000 0.000000 0.000000
# 4 0.000000 0.000000 0.000000 0.048916 0.000000 0.000000
# 5 0.000000 0.000000 0.000000 0.000000 0.048916 0.000000
# 6 0.000000 0.000000 0.000000 0.000000 0.000000 0.043917
#
#
# Mechanical properties :
#
#
# Convention : Reuss Voigt Hill
#
# Bulk Modulus (GPa) = 59.60349 59.60351 59.60350
# Shear Modulus (GPa) = 23.42790 23.89345 23.66067
#
# Velocity S-wave (km/s) = 3.56580 3.60106 3.58347
# Velocity P-wave (km/s) = 7.02151 7.04546 7.03350
#
# Compressibility (1/GPa) = 0.01677754
#
# Stress axis : x y z
#
# Youngs Moduli (GPa) = 72.51849 72.51849 72.20741
#
# Poissons Ratio (x) = 0.29568 0.29779
# Poissons Ratio (y) = 0.29568 0.29779
# Poissons Ratio (z) = 0.29907 0.29907
#
# Static dielectric constant tensor:
#      x y z
#    x 3.372750 0.000000 0.000000 
#    y 0.000000 3.372750 0.000000 
#    z 0.000000 0.000000 3.525350 
# 
# 
# High freq. dielectric constant tensor:
#      x y z
#    x 1.711070 0.000000 0.000000 
#    y 0.000000 1.711070 0.000000 
#    z 0.000000 0.000000 1.718130 
# 
# From -- ./inp_files/2666.got.cif
#   From: 2010.03.12/outbox.cif.g09.slc.cpg/sg107_2_cif.got.tgz:2666.got - 2010.04.14 01:49:11.
