data_PCOD8307984
_publ_section_title
;
Structure prediction by ZEFSAII (Michael W. Deem and Ramdas Pophale) SiO2 
 PCOD8307984
Probable space group: I 41 M D
;
_chemical_formula_sum "Si O2"
_cell_formula_units_Z 96
_cell_length_a 23.512432
_cell_length_b 23.512432
_cell_length_c 8.861255
_cell_angle_alpha 90.000000
_cell_angle_beta 90.000000
_cell_angle_gamma 90.000000
_cell_volume 4898.807110
_symmetry_space_group_name_H-M "I 41 M D"
_symmetry_group_IT_number 109
_symmetry_cell_setting 'tetragonal'
loop_
_space_group_symop_operation_xyz
x,y,z
-y,1/2+x,1/4+z
-x,-y,z
y,1/2-x,1/4+z
-x,y,z
x,-y,z
-y,1/2-x,1/4+z
y,1/2+x,1/4+z
1/2+x,1/2+y,1/2+z
1/2-y,x,3/4+z
1/2-x,1/2-y,1/2+z
1/2+y,-x,3/4+z
1/2-x,1/2+y,1/2+z
1/2+x,1/2-y,1/2+z
1/2-y,-x,3/4+z
1/2+y,x,3/4+z
loop_
_atom_site_type_symbol
_atom_site_label
_atom_site_fract_x
_atom_site_fract_y
_atom_site_fract_z
Si Si1 0.667883 0.188576 0.517210
Si Si2 0.562771 0.437229 0.927455
Si Si3 0.436123 0.680053 0.791991
Si Si4 0.811424 0.667883 0.337701
Si Si5 0.250000 0.617216 0.802455
Si Si6 0.180053 0.063877 0.562919
O O1 0.695160 0.250000 0.552455
O O2 0.657081 0.157081 0.677456
O O3 0.711105 0.155690 0.409591
O O4 0.607153 0.200005 0.440335
O O5 0.500000 0.431269 0.004204
O O6 0.568731 0.500000 0.850706
O O7 0.569504 0.388374 0.802336
O O8 0.611625 0.430496 0.052575
O O9 0.500000 0.697730 0.745536
O O10 0.392847 0.700005 0.664576
O O11 0.421811 0.708653 0.952873
O O12 0.844309 0.711106 0.445321
O O13 0.291348 0.578190 0.902038
O O14 0.197731 0.000000 0.609374
#
# Coordination Sequence:
#
# PCOD8307984 Si02
#       6
#    16  16  16  16  16  16
#     4  12  26  40  62  93 130 168 206 253 310 373
#     4   9  18  36  64  90 114 154 208 258 300 356
#     4  11  23  42  64  92 126 163 209 260 312 369
#     4  12  26  40  62  93 130 168 206 253 310 373
#     4  12  23  42  62  92 124 168 213 254 306 376
#     4  11  23  42  64  92 126 163 209 260 312 369
#
# _framework density 19.596609000000001
#
# number of rings (size 3 to 8) (size 9 to 14) (size 15 to 20)
#    0.000    0.833    6.667    0.500    2.333    0.667 
#    0.000    1.667    0.000    0.000    0.000    0.000 
#    0.000    0.000    0.000    0.000    0.000    0.000 
#
# Total GULP energy -595059.470389 kJ/mol
# GULP energy per Si atom -12397.072300 kJ/mol
# Density = 1.955201 g / cm^3
# Si number density = 19.596609 Si / 1000 Ang^3
#
#
#
# Elastic Constant Matrix: (Units=GPa)
#
#
# Indices 1 2 3 4 5 6 
#
# 1 112.6995 27.4840 43.4161 0.0000 0.0000 0.0000
# 2 27.4840 112.6995 43.4161 0.0000 0.0000 0.0000
# 3 43.4161 43.4161 127.6594 0.0000 0.0000 0.0000
# 4 0.0000 0.0000 0.0000 21.0105 0.0000 0.0000
# 5 0.0000 0.0000 0.0000 0.0000 21.0105 0.0000
# 6 0.0000 0.0000 0.0000 0.0000 0.0000 12.9093
#
#
#
# Elastic Compliance Matrix: (Units=1/GPa)
#
#
# Indices 1 2 3 4 5 6 
#
# 1 0.010386 -0.001349 -0.003074 0.000000 0.000000 0.000000
# 2 -0.001349 0.010386 -0.003074 0.000000 0.000000 0.000000
# 3 -0.003074 -0.003074 0.009924 0.000000 0.000000 0.000000
# 4 0.000000 0.000000 0.000000 0.047595 0.000000 0.000000
# 5 0.000000 0.000000 0.000000 0.000000 0.047595 0.000000
# 6 0.000000 0.000000 0.000000 0.000000 0.000000 0.077463
#
#
# Mechanical properties :
#
#
# Convention : Reuss Voigt Hill
#
# Bulk Modulus (GPa) = 63.67637 64.63235 64.15436
# Shear Modulus (GPa) = 22.36372 26.90223 24.63297
#
# Velocity S-wave (km/s) = 3.38184 3.70915 3.54927
# Velocity P-wave (km/s) = 6.91471 7.16915 7.04308
#
# Compressibility (1/GPa) = 0.01570441
#
# Stress axis : x y z
#
# Youngs Moduli (GPa) = 96.28227 96.28227 100.76669
#
# Poissons Ratio (x) = 0.12987 0.30971
# Poissons Ratio (y) = 0.12987 0.30971
# Poissons Ratio (z) = 0.29593 0.29593
#
# Static dielectric constant tensor:
#      x y z
#    x 3.772720 0.000000 0.000000 
#    y 0.000000 3.772720 0.000000 
#    z 0.000000 0.000000 3.589910 
# 
# 
# High freq. dielectric constant tensor:
#      x y z
#    x 1.774720 0.000000 0.000000 
#    y 0.000000 1.774720 0.000000 
#    z 0.000000 0.000000 1.742390 
# 
# From -- ./inp_files/1444.got.cif
#   From: 2010.03.12/outbox.cif.g09.slc.cpg/sg109_1_cif.got.tgz:1444.got - 2010.04.14 01:55:16.
