data_PCOD8307283
_publ_section_title
;
Structure prediction by ZEFSAII (Michael W. Deem and Ramdas Pophale) SiO2 
 PCOD8307283
Probable space group: P 42 M C
;
_chemical_formula_sum "Si O2"
_cell_formula_units_Z 32
_cell_length_a 7.986759
_cell_length_b 7.986759
_cell_length_c 23.451398
_cell_angle_alpha 90.000000
_cell_angle_beta 90.000000
_cell_angle_gamma 90.000000
_cell_volume 1495.925264
_symmetry_space_group_name_H-M "P 42 M C"
_symmetry_group_IT_number 105
_symmetry_cell_setting 'tetragonal'
loop_
_space_group_symop_operation_xyz
x,y,z
-y,x,1/2+z
-x,-y,z
y,-x,1/2+z
-x,y,z
x,-y,z
-y,-x,1/2+z
y,x,1/2+z
loop_
_atom_site_type_symbol
_atom_site_label
_atom_site_fract_x
_atom_site_fract_y
_atom_site_fract_z
Si Si1 0.814008 0.500000 0.653220
Si Si2 0.500000 0.690764 0.275950
Si Si3 0.195262 0.310751 0.471067
Si Si4 0.185960 0.308638 0.085407
Si Si5 0.185541 0.300164 0.343515
O O1 0.694251 0.500000 0.707749
O O2 0.793258 0.333194 0.615778
O O3 0.000000 0.500000 0.678024
O O4 0.500000 0.500000 0.296301
O O5 0.670658 0.773041 0.301465
O O6 0.262955 0.500000 0.475790
O O7 0.292318 0.199066 0.517074
O O8 0.228708 0.239568 0.407650
O O9 0.000000 0.304483 0.485560
O O10 0.207608 0.500000 0.103597
O O11 0.000000 0.245338 0.103975
O O12 0.178782 0.500000 0.342480
O O13 0.000000 0.232858 0.325372
#
# Coordination Sequence:
#
# PCOD8307283 Si02
#       5
#     4   4   8   8   8
#     4  12  26  44  62  84 120 168 208 255 312 367
#     4  10  20  36  60  86 114 156 210 251 300 357
#     4   9  17  32  57  89 124 159 193 239 302 368
#     4  11  24  40  61  91 121 156 204 259 315 369
#     4   8  16  31  54  87 121 154 196 247 305 366
#
# _framework density 21.391442000000001
#
# number of rings (size 3 to 8) (size 9 to 14) (size 15 to 20)
#    0.000    2.250    1.250    3.375    1.750    3.000 
#    0.000    3.750    0.000    1.500    0.000    0.000 
#    0.000    0.000    0.000    0.000    0.000    0.000 
#
# Total GULP energy -396649.793551 kJ/mol
# GULP energy per Si atom -12395.306048 kJ/mol
# Density = 2.134275 g / cm^3
# Si number density = 21.391442 Si / 1000 Ang^3
#
#
#
# Elastic Constant Matrix: (Units=GPa)
#
#
# Indices 1 2 3 4 5 6 
#
# 1 93.8782 29.8520 36.7072 0.0000 0.0000 0.0000
# 2 29.8520 93.8782 36.7072 0.0000 0.0000 0.0000
# 3 36.7072 36.7072 115.7896 0.0000 0.0000 0.0000
# 4 0.0000 0.0000 0.0000 11.0779 0.0000 0.0000
# 5 0.0000 0.0000 0.0000 0.0000 11.0779 0.0000
# 6 0.0000 0.0000 0.0000 0.0000 0.0000 2.7755
#
#
#
# Elastic Compliance Matrix: (Units=1/GPa)
#
#
# Indices 1 2 3 4 5 6 
#
# 1 0.012787 -0.002832 -0.003156 0.000000 0.000000 0.000000
# 2 -0.002832 0.012787 -0.003156 0.000000 0.000000 0.000000
# 3 -0.003156 -0.003156 0.010637 0.000000 0.000000 0.000000
# 4 0.000000 0.000000 0.000000 0.090269 0.000000 0.000000
# 5 0.000000 0.000000 0.000000 0.000000 0.090269 0.000000
# 6 0.000000 0.000000 0.000000 0.000000 0.000000 0.360297
#
#
# Mechanical properties :
#
#
# Convention : Reuss Voigt Hill
#
# Bulk Modulus (GPa) = 55.79336 56.67542 56.23439
# Shear Modulus (GPa) = 8.31521 18.33824 13.32673
#
# Velocity S-wave (km/s) = 1.97373 2.93109 2.49869
# Velocity P-wave (km/s) = 5.59758 6.16498 5.88812
#
# Compressibility (1/GPa) = 0.01792328
#
# Stress axis : x y z
#
# Youngs Moduli (GPa) = 78.20698 78.20698 94.00960
#
# Poissons Ratio (x) = 0.22148 0.29667
# Poissons Ratio (y) = 0.22148 0.29667
# Poissons Ratio (z) = 0.24680 0.24680
#
# Static dielectric constant tensor:
#      x y z
#    x 3.778100 0.000000 0.000000 
#    y 0.000000 3.778100 0.000000 
#    z 0.000000 0.000000 3.676380 
# 
# 
# High freq. dielectric constant tensor:
#      x y z
#    x 1.824730 0.000000 0.000000 
#    y 0.000000 1.824730 0.000000 
#    z 0.000000 0.000000 1.828820 
# 
# From -- ./inp_files/3832.got.cif
#   From: 2010.03.12/outbox.cif.g09.slc.cpg/sg105_2_cif.got.tgz:3832.got - 2010.04.14 01:45:32.
