data_PCOD8307273
_publ_section_title
;
Structure prediction by ZEFSAII (Michael W. Deem and Ramdas Pophale) SiO2 
 PCOD8307273
Probable space group: P 42 M C
;
_chemical_formula_sum "Si O2"
_cell_formula_units_Z 48
_cell_length_a 8.824020
_cell_length_b 8.824020
_cell_length_c 30.829140
_cell_angle_alpha 90.000000
_cell_angle_beta 90.000000
_cell_angle_gamma 90.000000
_cell_volume 2400.459469
_symmetry_space_group_name_H-M "P 42 M C"
_symmetry_group_IT_number 105
_symmetry_cell_setting 'tetragonal'
loop_
_space_group_symop_operation_xyz
x,y,z
-y,x,1/2+z
-x,-y,z
y,-x,1/2+z
-x,y,z
x,-y,z
-y,-x,1/2+z
y,x,1/2+z
loop_
_atom_site_type_symbol
_atom_site_label
_atom_site_fract_x
_atom_site_fract_y
_atom_site_fract_z
Si Si1 0.175906 0.825145 0.245640
Si Si2 0.675478 0.675478 0.326894
Si Si3 0.825145 0.824094 0.408149
Si Si4 0.673117 0.321431 0.664492
Si Si5 0.170420 0.319962 0.076894
Si Si6 0.678569 0.673117 0.989297
O O1 0.227357 0.723254 0.285633
O O2 0.267161 0.778864 0.203169
O O3 0.000000 0.795691 0.236873
O O4 0.209258 0.000000 0.256631
O O5 0.500000 0.706074 0.316618
O O6 0.706074 0.500000 0.337171
O O7 0.723254 0.772643 0.368156
O O8 0.778864 0.732839 0.450620
O O9 0.000000 0.790742 0.397158
O O10 0.795691 0.000000 0.416916
O O11 0.500000 0.267519 0.672778
O O12 0.681288 0.500000 0.660795
O O13 0.739961 0.253374 0.619954
O O14 0.175914 0.500000 0.076894
O O15 0.000000 0.257185 0.076895
O O16 0.253373 0.260039 0.033834
O O17 0.500000 0.681290 0.992994
O O18 0.732480 0.500000 0.981011
#
# Coordination Sequence:
#
# PCOD8307273 Si02
#       6
#     8   8   8   8   8   8
#     4  11  24  40  58  83 115 150 188 230 278 333
#     4  11  24  41  62  88 114 143 184 231 278 332
#     4  11  24  40  58  83 115 150 188 230 278 333
#     4  10  20  35  57  85 115 148 189 235 281 333
#     4   9  17  31  54  83 114 149 188 232 284 337
#     4  10  20  35  57  85 115 148 189 235 281 333
#
# _framework density 19.996172999999999
#
# number of rings (size 3 to 8) (size 9 to 14) (size 15 to 20)
#    0.000    1.667    0.000    4.500    0.000   14.000 
#    0.000    0.833    0.000    5.000    0.000    0.000 
#    0.000    0.000    0.000    0.000    0.000    0.000 
#
# Total GULP energy -595462.106440 kJ/mol
# GULP energy per Si atom -12405.460551 kJ/mol
# Density = 1.995066 g / cm^3
# Si number density = 19.996173 Si / 1000 Ang^3
#
#
#
# Elastic Constant Matrix: (Units=GPa)
#
#
# Indices 1 2 3 4 5 6 
#
# 1 64.7646 31.3491 25.2605 0.0000 0.0000 0.0000
# 2 31.3491 64.7646 25.2605 0.0000 0.0000 0.0000
# 3 25.2605 25.2605 131.7495 0.0000 0.0000 0.0000
# 4 0.0000 0.0000 0.0000 75.8640 0.0000 0.0000
# 5 0.0000 0.0000 0.0000 0.0000 75.8640 0.0000
# 6 0.0000 0.0000 0.0000 0.0000 0.0000 29.0663
#
#
#
# Elastic Compliance Matrix: (Units=1/GPa)
#
#
# Indices 1 2 3 4 5 6 
#
# 1 0.020748 -0.009178 -0.002218 0.000000 0.000000 0.000000
# 2 -0.009178 0.020748 -0.002218 0.000000 0.000000 0.000000
# 3 -0.002218 -0.002218 0.008441 0.000000 0.000000 0.000000
# 4 0.000000 0.000000 0.000000 0.013181 0.000000 0.000000
# 5 0.000000 0.000000 0.000000 0.000000 0.013181 0.000000
# 6 0.000000 0.000000 0.000000 0.000000 0.000000 0.034404
#
#
# Mechanical properties :
#
#
# Convention : Reuss Voigt Hill
#
# Bulk Modulus (GPa) = 44.03725 47.22430 45.63078
# Shear Modulus (GPa) = 34.36344 48.11942 41.24143
#
# Velocity S-wave (km/s) = 4.14998 4.91086 4.54637
# Velocity P-wave (km/s) = 6.71072 7.47150 7.10131
#
# Compressibility (1/GPa) = 0.02270805
#
# Stress axis : x y z
#
# Youngs Moduli (GPa) = 48.19660 48.19660 118.47160
#
# Poissons Ratio (x) = 0.44234 0.26282
# Poissons Ratio (y) = 0.44234 0.26282
# Poissons Ratio (z) = 0.10692 0.10692
#
# Static dielectric constant tensor:
#      x y z
#    x 3.641460 0.000000 0.000000 
#    y 0.000000 3.641460 0.000000 
#    z 0.000000 0.000000 4.093170 
# 
# 
# High freq. dielectric constant tensor:
#      x y z
#    x 1.778120 0.000000 0.000000 
#    y 0.000000 1.778120 0.000000 
#    z 0.000000 0.000000 1.796840 
# 
# From -- ./inp_files/4695.got.cif
#   From: 2010.03.12/outbox.cif.g09.slc.cpg/sg105_3_cif.got.tgz:4695.got - 2010.04.14 01:45:32.
