data_PCOD8307082
_publ_section_title
;
Structure prediction by ZEFSAII (Michael W. Deem and Ramdas Pophale) SiO2 
 PCOD8307082
Probable space group: P 4 N C 
;
_chemical_formula_sum "Si O2"
_cell_formula_units_Z 56
_cell_length_a 14.396665
_cell_length_b 14.396665
_cell_length_c 11.963497
_cell_angle_alpha 90.000000
_cell_angle_beta 90.000000
_cell_angle_gamma 90.000000
_cell_volume 2479.601801
_symmetry_space_group_name_H-M "P 4 N C "
_symmetry_group_IT_number 104
_symmetry_cell_setting 'tetragonal'
loop_
_space_group_symop_operation_xyz
x,y,z
-y,x,z
-x,-y,z
y,-x,z
1/2-x,1/2+y,1/2+z
1/2+x,1/2-y,1/2+z
1/2-y,1/2-x,1/2+z
1/2+y,1/2+x,1/2+z
loop_
_atom_site_type_symbol
_atom_site_label
_atom_site_fract_x
_atom_site_fract_y
_atom_site_fract_z
Si Si1 0.671978 0.692908 0.086150
Si Si2 0.242619 0.834877 0.941929
Si Si3 0.646618 0.547396 0.617303
Si Si4 0.445874 0.857045 0.263273
Si Si5 0.311015 0.146112 0.806719
Si Si6 0.754265 0.520796 0.041980
Si Si7 0.988117 0.704968 0.297185
O O1 0.660646 0.743701 0.202526
O O2 0.666213 0.579801 0.091561
O O3 0.585619 0.727388 0.013051
O O4 0.776904 0.699162 0.034813
O O5 0.292623 0.870250 0.828688
O O6 0.168567 0.753939 0.911987
O O7 0.198265 0.925184 0.001886
O O8 0.559162 0.615798 0.622425
O O9 0.716038 0.560826 0.721674
O O10 0.542759 0.850299 0.329180
O O11 0.470127 0.833454 0.135291
O O12 0.398913 0.958766 0.256591
O O13 0.400137 0.213042 0.792116
O O14 0.786781 0.556334 0.920693
#
# Coordination Sequence:
#
# PCOD8307082 Si02
#       7
#     8   8   8   8   8   8   8
#     4  11  23  42  69 101 137 181 235 283 364 423
#     4  12  22  44  73  97 140 187 231 296 362 430
#     4  11  27  45  69 105 140 189 243 296 359 433
#     4  11  25  43  69 105 140 183 237 294 363 421
#     4  11  25  45  71 105 139 190 239 296 365 436
#     4  11  24  42  67 102 134 186 232 287 351 435
#     4  12  25  45  71 100 145 184 241 297 363 432
#
# _framework density 22.584271999999999
#
# number of rings (size 3 to 8) (size 9 to 14) (size 15 to 20)
#    0.000    0.714    4.286    3.000    4.000    0.286 
#    0.000    1.429    0.000    0.000    0.000    0.000 
#    0.000    0.000    0.000    0.000    0.000    0.000 
#
# Total GULP energy -693747.594217 kJ/mol
# GULP energy per Si atom -12388.349897 kJ/mol
# Density = 2.253287 g / cm^3
# Si number density = 22.584272 Si / 1000 Ang^3
#
#
#
# Elastic Constant Matrix: (Units=GPa)
#
#
# Indices 1 2 3 4 5 6 
#
# 1 87.5756 26.8381 23.9200 0.0000 0.0000 0.0000
# 2 26.8381 87.5756 23.9200 0.0000 0.0000 0.0000
# 3 23.9200 23.9200 78.7634 0.0000 0.0000 0.0000
# 4 0.0000 0.0000 0.0000 28.1257 0.0000 0.0000
# 5 0.0000 0.0000 0.0000 0.0000 28.1257 0.0000
# 6 0.0000 0.0000 0.0000 0.0000 0.0000 34.1708
#
#
#
# Elastic Compliance Matrix: (Units=1/GPa)
#
#
# Indices 1 2 3 4 5 6 
#
# 1 0.013238 -0.003226 -0.003040 0.000000 0.000000 0.000000
# 2 -0.003226 0.013238 -0.003040 0.000000 0.000000 0.000000
# 3 -0.003040 -0.003040 0.014543 0.000000 0.000000 0.000000
# 4 0.000000 0.000000 0.000000 0.035555 0.000000 0.000000
# 5 0.000000 0.000000 0.000000 0.000000 0.035555 0.000000
# 6 0.000000 0.000000 0.000000 0.000000 0.000000 0.029265
#
#
# Mechanical properties :
#
#
# Convention : Reuss Voigt Hill
#
# Bulk Modulus (GPa) = 44.63439 44.80788 44.72113
# Shear Modulus (GPa) = 29.85512 30.03354 29.94433
#
# Velocity S-wave (km/s) = 3.63980 3.65066 3.64523
# Velocity P-wave (km/s) = 6.12132 6.13621 6.12877
#
# Compressibility (1/GPa) = 0.02240425
#
# Stress axis : x y z
#
# Youngs Moduli (GPa) = 75.54063 75.54063 68.76163
#
# Poissons Ratio (x) = 0.24372 0.20907
# Poissons Ratio (y) = 0.24372 0.20907
# Poissons Ratio (z) = 0.22968 0.22968
#
# Static dielectric constant tensor:
#      x y z
#    x 4.226270 0.000000 0.000000 
#    y 0.000000 4.226270 0.000000 
#    z 0.000000 0.000000 3.925030 
# 
# 
# High freq. dielectric constant tensor:
#      x y z
#    x 1.893610 0.000000 0.000000 
#    y 0.000000 1.893610 0.000000 
#    z 0.000000 0.000000 1.891030 
# 
# From -- ./inp_files/1044.got.cif
#   From: 2010.03.12/outbox.cif.g09.slc.cpg/sg104_cif.got.tgz:1044.got - 2010.04.14 01:44:05.
