data_PCOD8307230
_publ_section_title
;
Structure prediction by ZEFSAII (Michael W. Deem and Ramdas Pophale) SiO2 
 PCOD8307230
Probable space group: P 42 M C
;
_chemical_formula_sum "Si O2"
_cell_formula_units_Z 48
_cell_length_a 9.080769
_cell_length_b 9.080769
_cell_length_c 30.771452
_cell_angle_alpha 90.000000
_cell_angle_beta 90.000000
_cell_angle_gamma 90.000000
_cell_volume 2537.425183
_symmetry_space_group_name_H-M "P 42 M C"
_symmetry_group_IT_number 105
_symmetry_cell_setting 'tetragonal'
loop_
_space_group_symop_operation_xyz
x,y,z
-y,x,1/2+z
-x,-y,z
y,-x,1/2+z
-x,y,z
x,-y,z
-y,-x,1/2+z
y,x,1/2+z
loop_
_atom_site_type_symbol
_atom_site_label
_atom_site_fract_x
_atom_site_fract_y
_atom_site_fract_z
Si Si1 0.173301 0.669239 0.355790
Si Si2 0.825374 0.662774 0.029502
Si Si3 0.175001 0.165909 0.112411
Si Si4 0.670342 0.827664 0.277693
Si Si5 0.671721 0.670362 0.689673
Si Si6 0.673688 0.168766 0.432514
O O1 0.217996 0.500000 0.348260
O O2 0.234240 0.766412 0.316794
O O3 0.240817 0.723208 0.400869
O O4 0.000000 0.690293 0.358038
O O5 0.759572 0.500000 0.038750
O O6 0.765834 0.774664 0.065996
O O7 0.000000 0.652623 0.031307
O O8 0.780140 0.716500 0.981352
O O9 0.235394 0.268730 0.150033
O O10 0.000000 0.171509 0.114073
O O11 0.233660 0.000000 0.118388
O O12 0.500000 0.792134 0.287231
O O13 0.723416 0.751422 0.233419
O O14 0.699112 0.000000 0.273041
O O15 0.500000 0.701428 0.695301
O O16 0.705765 0.500000 0.680404
O O17 0.500000 0.184258 0.424889
O O18 0.722215 0.000000 0.424011
#
# Coordination Sequence:
#
# PCOD8307230 Si02
#       6
#     8   8   8   8   8   8
#     4  11  24  38  52  76 110 143 175 213 259 311
#     4   8  15  30  52  77 105 137 175 219 263 309
#     4  10  20  33  52  80 111 143 179 218 263 315
#     4  10  21  38  60  82 103 132 173 218 264 316
#     4  10  21  37  57  80 106 139 178 218 263 315
#     4   9  18  34  57  82 105 134 176 221 264 313
#
# _framework density 18.916813000000001
#
# number of rings (size 3 to 8) (size 9 to 14) (size 15 to 20)
#    0.000    2.333    0.000    3.500    0.000    8.000 
#    0.000    2.500    0.000    1.000    0.000    0.000 
#    0.000    0.000    0.000    0.000    0.000    0.000 
#
# Total GULP energy -595271.120399 kJ/mol
# GULP energy per Si atom -12401.481675 kJ/mol
# Density = 1.887376 g / cm^3
# Si number density = 18.916813 Si / 1000 Ang^3
#
#
#
# Elastic Constant Matrix: (Units=GPa)
#
#
# Indices 1 2 3 4 5 6 
#
# 1 69.9707 35.7171 52.0720 0.0000 0.0000 0.0000
# 2 35.7171 69.9707 52.0720 0.0000 0.0000 0.0000
# 3 52.0720 52.0720 148.8734 0.0000 0.0000 0.0000
# 4 0.0000 0.0000 0.0000 34.9393 0.0000 0.0000
# 5 0.0000 0.0000 0.0000 0.0000 34.9393 0.0000
# 6 0.0000 0.0000 0.0000 0.0000 0.0000 27.8388
#
#
#
# Elastic Compliance Matrix: (Units=1/GPa)
#
#
# Indices 1 2 3 4 5 6 
#
# 1 0.021816 -0.007378 -0.005050 0.000000 0.000000 0.000000
# 2 -0.007378 0.021816 -0.005050 0.000000 0.000000 0.000000
# 3 -0.005050 -0.005050 0.010250 0.000000 0.000000 0.000000
# 4 0.000000 0.000000 0.000000 0.028621 0.000000 0.000000
# 5 0.000000 0.000000 0.000000 0.000000 0.028621 0.000000
# 6 0.000000 0.000000 0.000000 0.000000 0.000000 0.035921
#
#
# Mechanical properties :
#
#
# Convention : Reuss Voigt Hill
#
# Bulk Modulus (GPa) = 52.83780 63.17076 58.00428
# Shear Modulus (GPa) = 26.55196 29.47374 28.01285
#
# Velocity S-wave (km/s) = 3.75055 3.95152 3.85235
# Velocity P-wave (km/s) = 6.83724 7.36789 7.10752
#
# Compressibility (1/GPa) = 0.01892584
#
# Stress axis : x y z
#
# Youngs Moduli (GPa) = 45.83776 45.83776 97.56213
#
# Poissons Ratio (x) = 0.33819 0.49270
# Poissons Ratio (y) = 0.33819 0.49270
# Poissons Ratio (z) = 0.23148 0.23148
#
# Static dielectric constant tensor:
#      x y z
#    x 3.328940 0.000000 0.000000 
#    y 0.000000 3.328940 0.000000 
#    z 0.000000 0.000000 3.713610 
# 
# 
# High freq. dielectric constant tensor:
#      x y z
#    x 1.725710 0.000000 0.000000 
#    y 0.000000 1.725710 0.000000 
#    z 0.000000 0.000000 1.751640 
# 
# From -- ./inp_files/4664.got.cif
#   From: 2010.03.12/outbox.cif.g09.slc.cpg/sg105_3_cif.got.tgz:4664.got - 2010.04.14 01:45:32.
