data_PCOD8307739
_publ_section_title
;
Structure prediction by ZEFSAII (Michael W. Deem and Ramdas Pophale) SiO2 
 PCOD8307739
Probable space group: I 4 C M
;
_chemical_formula_sum "Si O2"
_cell_formula_units_Z 96
_cell_length_a 23.290118
_cell_length_b 23.290118
_cell_length_c 12.130921
_cell_angle_alpha 90.000000
_cell_angle_beta 90.000000
_cell_angle_gamma 90.000000
_cell_volume 6580.170583
_symmetry_space_group_name_H-M "I 4 C M"
_symmetry_group_IT_number 108
_symmetry_cell_setting 'tetragonal'
loop_
_space_group_symop_operation_xyz
x,y,z
-y,x,z
-x,-y,z
y,-x,z
-x,y,1/2+z
x,-y,1/2+z
-y,-x,1/2+z
y,x,1/2+z
1/2+x,1/2+y,1/2+z
1/2-y,1/2+x,1/2+z
1/2-x,1/2-y,1/2+z
1/2+y,1/2-x,1/2+z
1/2-x,1/2+y,z
1/2+x,1/2-y,z
1/2-y,1/2-x,z
1/2+y,1/2+x,z
loop_
_atom_site_type_symbol
_atom_site_label
_atom_site_fract_x
_atom_site_fract_y
_atom_site_fract_z
Si Si1 0.270833 0.673675 0.134300
Si Si2 0.575523 0.828439 0.757066
Si Si3 0.221019 0.372922 0.839277
Si Si4 0.141751 0.548891 0.201096
Si Si5 0.236664 0.360379 0.080719
Si Si6 0.398890 0.803665 0.493437
O O1 0.220342 0.720342 0.135514
O O2 0.271925 0.640831 0.252260
O O3 0.332313 0.702659 0.114972
O O4 0.256710 0.627208 0.037899
O O5 0.625513 0.874488 0.760665
O O6 0.518256 0.863299 0.725918
O O7 0.589402 0.779620 0.666402
O O8 0.569734 0.796513 0.875541
O O9 0.184496 0.315505 0.852356
O O10 0.181916 0.424336 0.795188
O O11 0.245262 0.388719 0.959974
O O12 0.078952 0.578952 0.204557
O O13 0.170220 0.556679 0.081418
O O14 0.187267 0.312734 0.081050
O O15 0.346394 0.846394 0.477966
#
# Coordination Sequence:
#
# PCOD8307739 Si02
#       6
#    16  16  16  16  16  16
#     4   8  14  25  42  59  78 101 121 154 209 262
#     4  10  20  29  41  61  80 101 140 188 217 241
#     4   8  15  27  41  57  75 101 133 162 200 251
#     4   9  18  32  45  53  74 111 146 180 215 247
#     4   9  17  25  39  62  81  96 123 170 211 248
#     4   8  16  30  43  57  76 102 132 167 212 259
#
# _framework density 14.589288
#
# number of rings (size 3 to 8) (size 9 to 14) (size 15 to 20)
#    0.000    3.333    0.000    2.000    4.667    0.333 
#    0.000    0.000    0.000    3.000    0.000    0.000 
#    0.000    0.000    0.000    0.000    0.000   13.333 
#
# Total GULP energy -594803.393297 kJ/mol
# GULP energy per Si atom -12391.737360 kJ/mol
# Density = 1.455608 g / cm^3
# Si number density = 14.589288 Si / 1000 Ang^3
#
#
#
# Elastic Constant Matrix: (Units=GPa)
#
#
# Indices 1 2 3 4 5 6 
#
# 1 33.7395 30.6107 35.2448 0.0000 0.0000 0.0003
# 2 30.6107 33.7395 35.2448 0.0000 0.0000 -0.0003
# 3 35.2448 35.2448 137.6536 0.0000 0.0000 0.0000
# 4 0.0000 0.0000 0.0000 13.0509 0.0000 0.0000
# 5 0.0000 0.0000 0.0000 0.0000 13.0509 0.0000
# 6 0.0003 -0.0003 0.0000 0.0000 0.0000 12.0665
#
#
#
# Elastic Compliance Matrix: (Units=1/GPa)
#
#
# Indices 1 2 3 4 5 6 
#
# 1 0.170601 -0.149004 -0.005530 0.000000 0.000000 -0.000008
# 2 -0.149004 0.170601 -0.005530 0.000000 0.000000 0.000008
# 3 -0.005530 -0.005530 0.010096 0.000000 0.000000 0.000000
# 4 0.000000 0.000000 0.000000 0.076623 0.000000 0.000000
# 5 0.000000 0.000000 0.000000 0.000000 0.076623 0.000000
# 6 -0.000008 0.000008 0.000000 0.000000 0.000000 0.082874
#
#
# Mechanical properties :
#
#
# Convention : Reuss Voigt Hill
#
# Bulk Modulus (GPa) = 32.08024 45.25925 38.66975
# Shear Modulus (GPa) = 5.44699 14.56914 10.00807
#
# Velocity S-wave (km/s) = 1.93434 3.16352 2.62198
# Velocity P-wave (km/s) = 5.19861 6.66584 5.97741
#
# Compressibility (1/GPa) = 0.03117184
#
# Stress axis : x y z
#
# Youngs Moduli (GPa) = 5.86162 5.86162 99.04615
#
# Poissons Ratio (x) = 0.87340 0.54770
# Poissons Ratio (y) = 0.87340 0.54770
# Poissons Ratio (z) = 0.03241 0.03241
#
# Static dielectric constant tensor:
#      x y z
#    x 2.517290 0.000000 0.000000 
#    y 0.000000 2.517290 0.000000 
#    z 0.000000 0.000000 3.332900 
# 
# 
# High freq. dielectric constant tensor:
#      x y z
#    x 1.512670 0.000000 0.000000 
#    y 0.000000 1.512670 0.000000 
#    z 0.000000 0.000000 1.581230 
# 
# From -- ./inp_files/1470.got.cif
#   From: 2010.03.12/outbox.cif.g09.slc.cpg/sg108_1_cif.got.tgz:1470.got - 2010.04.14 01:53:11.
