data_PCOD8307351
_publ_section_title
;
Structure prediction by ZEFSAII (Michael W. Deem and Ramdas Pophale) SiO2 
 PCOD8307351
Probable space group: P 42 M C
;
_chemical_formula_sum "Si O2"
_cell_formula_units_Z 32
_cell_length_a 16.618273
_cell_length_b 16.618273
_cell_length_c 4.965995
_cell_angle_alpha 90.000000
_cell_angle_beta 90.000000
_cell_angle_gamma 90.000000
_cell_volume 1371.443929
_symmetry_space_group_name_H-M "P 42 M C"
_symmetry_group_IT_number 105
_symmetry_cell_setting 'tetragonal'
loop_
_space_group_symop_operation_xyz
x,y,z
-y,x,1/2+z
-x,-y,z
y,-x,1/2+z
-x,y,z
x,-y,z
-y,-x,1/2+z
y,x,1/2+z
loop_
_atom_site_type_symbol
_atom_site_label
_atom_site_fract_x
_atom_site_fract_y
_atom_site_fract_z
Si Si1 0.908878 0.167640 0.155390
Si Si2 0.910905 0.658722 0.309967
Si Si3 0.672107 0.252392 0.105758
Si Si4 0.859206 0.500000 0.050778
Si Si5 0.500000 0.245200 0.044883
O O1 0.880406 0.148908 0.457511
O O2 0.900011 0.263395 0.118190
O O3 0.000000 0.138390 0.111484
O O4 0.841958 0.658720 0.539967
O O5 0.908605 0.580528 0.119093
O O6 0.000000 0.662383 0.447140
O O7 0.706445 0.264229 0.404343
O O8 0.583107 0.294287 0.095590
O O9 0.778787 0.500000 0.231699
O O10 0.834176 0.500000 0.738352
#
# Coordination Sequence:
#
# PCOD8307351 Si02
#       5
#     8   8   8   4   4
#     4  11  24  41  62  88 121 162 213 267 315 368
#     4  10  22  40  62  93 130 168 212 260 316 385
#     4  11  22  40  66  92 126 169 213 264 324 387
#     4  10  21  40  62  90 128 166 202 252 318 386
#     4  10  22  40  63  95 126 159 212 263 312 381
#
# _framework density 23.333072000000001
#
# number of rings (size 3 to 8) (size 9 to 14) (size 15 to 20)
#    0.000    1.500    0.000    5.625    0.000    5.500 
#    0.000   23.750    0.000    2.250    0.000    0.000 
#    0.000    0.000    0.000    0.000    0.000    0.000 
#
# Total GULP energy -396685.271483 kJ/mol
# GULP energy per Si atom -12396.414734 kJ/mol
# Density = 2.327996 g / cm^3
# Si number density = 23.333072 Si / 1000 Ang^3
#
#
#
# Elastic Constant Matrix: (Units=GPa)
#
#
# Indices 1 2 3 4 5 6 
#
# 1 139.8731 32.4521 17.6741 0.0000 0.0000 0.0000
# 2 32.4521 139.8731 17.6741 0.0000 0.0000 0.0000
# 3 17.6741 17.6741 65.1501 0.0000 0.0000 0.0000
# 4 0.0000 0.0000 0.0000 24.1462 0.0000 0.0000
# 5 0.0000 0.0000 0.0000 0.0000 24.1462 0.0000
# 6 0.0000 0.0000 0.0000 0.0000 0.0000 19.4538
#
#
#
# Elastic Compliance Matrix: (Units=1/GPa)
#
#
# Indices 1 2 3 4 5 6 
#
# 1 0.007727 -0.001582 -0.001667 0.000000 0.000000 0.000000
# 2 -0.001582 0.007727 -0.001667 0.000000 0.000000 0.000000
# 3 -0.001667 -0.001667 0.016254 0.000000 0.000000 0.000000
# 4 0.000000 0.000000 0.000000 0.041414 0.000000 0.000000
# 5 0.000000 0.000000 0.000000 0.000000 0.041414 0.000000
# 6 0.000000 0.000000 0.000000 0.000000 0.000000 0.051404
#
#
# Mechanical properties :
#
#
# Convention : Reuss Voigt Hill
#
# Bulk Modulus (GPa) = 45.71340 53.38856 49.55098
# Shear Modulus (GPa) = 27.31279 32.02231 29.66755
#
# Velocity S-wave (km/s) = 3.42506 3.70861 3.56965
# Velocity P-wave (km/s) = 5.93932 6.42411 6.18647
#
# Compressibility (1/GPa) = 0.02187543
#
# Stress axis : x y z
#
# Youngs Moduli (GPa) = 129.41557 129.41557 61.52471
#
# Poissons Ratio (x) = 0.20475 0.10256
# Poissons Ratio (y) = 0.20475 0.10256
# Poissons Ratio (z) = 0.21574 0.21574
#
# Static dielectric constant tensor:
#      x y z
#    x 4.422410 0.000000 0.000000 
#    y 0.000000 4.422410 0.000000 
#    z 0.000000 0.000000 3.758890 
# 
# 
# High freq. dielectric constant tensor:
#      x y z
#    x 1.922390 0.000000 0.000000 
#    y 0.000000 1.922390 0.000000 
#    z 0.000000 0.000000 1.909450 
# 
# From -- ./inp_files/179.got.cif
#   From: 2010.03.12/outbox.cif.g09.slc.cpg/sg105_1_cif.got.tgz:179.got - 2010.04.14 01:45:32.
