data_PCOD8307047
_publ_section_title
;
Structure prediction by ZEFSAII (Michael W. Deem and Ramdas Pophale) SiO2 
 PCOD8307047
Probable space group: P 4 N C 
;
_chemical_formula_sum "Si O2"
_cell_formula_units_Z 36
_cell_length_a 11.437145
_cell_length_b 11.437145
_cell_length_c 12.611790
_cell_angle_alpha 90.000000
_cell_angle_beta 90.000000
_cell_angle_gamma 90.000000
_cell_volume 1649.726630
_symmetry_space_group_name_H-M "P 4 N C "
_symmetry_group_IT_number 104
_symmetry_cell_setting 'tetragonal'
loop_
_space_group_symop_operation_xyz
x,y,z
-y,x,z
-x,-y,z
y,-x,z
1/2-x,1/2+y,1/2+z
1/2+x,1/2-y,1/2+z
1/2-y,1/2-x,1/2+z
1/2+y,1/2+x,1/2+z
loop_
_atom_site_type_symbol
_atom_site_label
_atom_site_fract_x
_atom_site_fract_y
_atom_site_fract_z
Si Si1 0.403144 0.801281 0.337930
Si Si2 0.000000 0.500000 0.968643
Si Si3 0.833083 0.086242 0.399971
Si Si4 0.913757 0.833083 0.037315
Si Si5 0.903144 0.698719 0.599356
O O1 0.276622 0.863716 0.335504
O O2 0.397917 0.685287 0.410043
O O3 0.441726 0.770022 0.218643
O O4 0.499240 0.886299 0.392740
O O5 0.113701 0.499239 0.044546
O O6 0.814713 0.102082 0.527243
O O7 0.950093 0.155083 0.368909
O O8 0.049907 0.844917 0.068377
O O9 0.863715 0.723378 0.101782
#
# Coordination Sequence:
#
# PCOD8307047 Si02
#       5
#     8   4   8   8   8
#     4  10  21  36  57  82 106 141 184 221 263 319
#     4   8  18  36  52  74 108 138 166 214 264 306
#     4   9  20  38  55  77 111 143 175 222 273 317
#     4   9  20  38  55  77 111 143 175 222 273 317
#     4  10  21  36  57  82 106 141 184 221 263 319
#
# _framework density 21.821798000000001
#
# number of rings (size 3 to 8) (size 9 to 14) (size 15 to 20)
#    0.000    3.111    0.000    0.667    0.000   17.778 
#    0.000    4.444    0.000    0.000    0.000    0.000 
#    0.000    0.000    0.000    0.000    0.000    0.000 
#
# Total GULP energy -446210.595197 kJ/mol
# GULP energy per Si atom -12394.738755 kJ/mol
# Density = 2.177213 g / cm^3
# Si number density = 21.821798 Si / 1000 Ang^3
#
#
#
# Elastic Constant Matrix: (Units=GPa)
#
#
# Indices 1 2 3 4 5 6 
#
# 1 65.8493 29.2064 -24.2853 0.0000 0.0000 0.0000
# 2 29.2064 65.8493 -24.2853 0.0000 0.0000 0.0000
# 3 -24.2853 -24.2853 97.9950 0.0000 0.0000 0.0000
# 4 0.0000 0.0000 0.0000 10.6952 0.0000 0.0000
# 5 0.0000 0.0000 0.0000 0.0000 10.6952 0.0000
# 6 0.0000 0.0000 0.0000 0.0000 0.0000 25.3817
#
#
#
# Elastic Compliance Matrix: (Units=1/GPa)
#
#
# Indices 1 2 3 4 5 6 
#
# 1 0.019668 -0.007622 0.002985 0.000000 0.000000 0.000000
# 2 -0.007622 0.019668 0.002985 0.000000 0.000000 0.000000
# 3 0.002985 0.002985 0.011684 0.000000 0.000000 0.000000
# 4 0.000000 0.000000 0.000000 0.093500 0.000000 0.000000
# 5 0.000000 0.000000 0.000000 0.000000 0.093500 0.000000
# 6 0.000000 0.000000 0.000000 0.000000 0.000000 0.039398
#
#
# Mechanical properties :
#
#
# Convention : Reuss Voigt Hill
#
# Bulk Modulus (GPa) = 20.95751 21.21836 21.08794
# Shear Modulus (GPa) = 16.85610 25.95826 21.40718
#
# Velocity S-wave (km/s) = 2.78230 3.45274 3.13549
# Velocity P-wave (km/s) = 4.46614 5.06357 4.77421
#
# Compressibility (1/GPa) = 0.04771558
#
# Stress axis : x y z
#
# Youngs Moduli (GPa) = 50.84418 50.84418 85.58594
#
# Poissons Ratio (x) = 0.38756 -0.25548
# Poissons Ratio (y) = 0.38756 -0.25548
# Poissons Ratio (z) = -0.15178 -0.15178
#
# Static dielectric constant tensor:
#      x y z
#    x 3.788790 0.000000 0.000000 
#    y 0.000000 3.788790 0.000000 
#    z 0.000000 0.000000 3.712960 
# 
# 
# High freq. dielectric constant tensor:
#      x y z
#    x 1.847450 0.000000 0.000000 
#    y 0.000000 1.847450 0.000000 
#    z 0.000000 0.000000 1.846600 
# 
# From -- ./inp_files/1170.got.cif
#   From: 2010.03.12/outbox.cif.g09.slc.cpg/sg104_cif.got.tgz:1170.got - 2010.04.14 01:44:05.
