data_PCOD8307428
_publ_section_title
;
Structure prediction by ZEFSAII (Michael W. Deem and Ramdas Pophale) SiO2 
 PCOD8307428
Probable space group: P 42 B C
;
_chemical_formula_sum "Si O2"
_cell_formula_units_Z 56
_cell_length_a 14.304426
_cell_length_b 14.304426
_cell_length_c 12.094030
_cell_angle_alpha 90.000000
_cell_angle_beta 90.000000
_cell_angle_gamma 90.000000
_cell_volume 2474.639337
_symmetry_space_group_name_H-M "P 42 B C"
_symmetry_group_IT_number 106
_symmetry_cell_setting 'tetragonal'
loop_
_space_group_symop_operation_xyz
x,y,z
-y,x,1/2+z
-x,-y,z
y,-x,1/2+z
1/2-x,1/2+y,z
1/2+x,1/2-y,z
1/2-y,1/2-x,1/2+z
1/2+y,1/2+x,1/2+z
loop_
_atom_site_type_symbol
_atom_site_label
_atom_site_fract_x
_atom_site_fract_y
_atom_site_fract_z
Si Si1 0.715484 0.799703 0.366940
Si Si2 0.400848 0.113451 0.057431
Si Si3 0.546646 0.397545 0.593330
Si Si4 0.924995 0.764041 0.392538
Si Si5 0.066207 0.773054 0.215594
Si Si6 0.224254 0.519101 0.220481
Si Si7 0.554170 0.081350 0.877008
O O1 0.672336 0.828628 0.483598
O O2 0.814265 0.752990 0.391469
O O3 0.647870 0.724401 0.308334
O O4 0.732777 0.884904 0.285175
O O5 0.440013 0.172105 0.160612
O O6 0.339901 0.028543 0.110478
O O7 0.492347 0.087168 0.988509
O O8 0.500000 0.500000 0.585023
O O9 0.537751 0.339580 0.480235
O O10 0.654679 0.415615 0.617680
O O11 0.507914 0.331112 0.691206
O O12 0.957845 0.656229 0.413028
O O13 0.967711 0.796141 0.275170
O O14 0.175849 0.443091 0.303384
O O15 0.500000 0.000000 0.806551
#
# Coordination Sequence:
#
# PCOD8307428 Si02
#       7
#     8   8   8   8   8   8   8
#     4  10  21  42  66  95 134 179 227 291 350 425
#     4  10  21  43  66  99 143 177 226 293 362 430
#     4  12  26  45  65  98 133 187 240 289 345 423
#     4  12  25  43  67 101 137 180 241 286 356 429
#     4  11  24  44  67  94 139 181 231 292 352 421
#     4  10  22  41  69  96 133 177 229 288 356 417
#     4  11  23  40  68 105 138 177 226 298 363 427
#
# _framework density 22.629560000000001
#
# number of rings (size 3 to 8) (size 9 to 14) (size 15 to 20)
#    0.000    1.143    1.429    6.000    0.000    6.857 
#    5.143    0.000    0.000    0.000    0.000    0.000 
#    0.000    0.000    0.000    0.000    0.000    0.000 
#
# Total GULP energy -694141.471623 kJ/mol
# GULP energy per Si atom -12395.383422 kJ/mol
# Density = 2.257805 g / cm^3
# Si number density = 22.629560 Si / 1000 Ang^3
#
#
#
# Elastic Constant Matrix: (Units=GPa)
#
#
# Indices 1 2 3 4 5 6 
#
# 1 115.2269 30.8974 35.1416 0.0000 0.0000 0.0000
# 2 30.8974 115.2269 35.1416 0.0000 0.0000 0.0000
# 3 35.1416 35.1416 89.5959 0.0000 0.0000 0.0000
# 4 0.0000 0.0000 0.0000 30.7302 0.0000 0.0000
# 5 0.0000 0.0000 0.0000 0.0000 30.7302 0.0000
# 6 0.0000 0.0000 0.0000 0.0000 0.0000 34.7869
#
#
#
# Elastic Compliance Matrix: (Units=1/GPa)
#
#
# Indices 1 2 3 4 5 6 
#
# 1 0.010146 -0.001712 -0.003308 0.000000 0.000000 0.000000
# 2 -0.001712 0.010146 -0.003308 0.000000 0.000000 0.000000
# 3 -0.003308 -0.003308 0.013756 0.000000 0.000000 0.000000
# 4 0.000000 0.000000 0.000000 0.032541 0.000000 0.000000
# 5 0.000000 0.000000 0.000000 0.000000 0.032541 0.000000
# 6 0.000000 0.000000 0.000000 0.000000 0.000000 0.028746
#
#
# Mechanical properties :
#
#
# Convention : Reuss Voigt Hill
#
# Bulk Modulus (GPa) = 57.49548 58.04566 57.77057
# Shear Modulus (GPa) = 33.25958 33.84074 33.55016
#
# Velocity S-wave (km/s) = 3.83788 3.87126 3.85461
# Velocity P-wave (km/s) = 6.71576 6.75931 6.73757
#
# Compressibility (1/GPa) = 0.01739267
#
# Stress axis : x y z
#
# Youngs Moduli (GPa) = 98.55636 98.55636 72.69348
#
# Poissons Ratio (x) = 0.16871 0.24049
# Poissons Ratio (y) = 0.16871 0.24049
# Poissons Ratio (z) = 0.32605 0.32605
#
# Static dielectric constant tensor:
#      x y z
#    x 4.057450 0.000000 0.000000 
#    y 0.000000 4.057450 0.000000 
#    z 0.000000 0.000000 4.050060 
# 
# 
# High freq. dielectric constant tensor:
#      x y z
#    x 1.891950 0.000000 0.000000 
#    y 0.000000 1.891950 0.000000 
#    z 0.000000 0.000000 1.898100 
# 
# From -- ./inp_files/987.got.cif
#   From: 2010.03.12/outbox.cif.g09.slc.cpg/sg106_cif.got.tgz:987.got - 2010.04.14 01:48:02.
