data_PCOD8307841
_publ_section_title
;
Structure prediction by ZEFSAII (Michael W. Deem and Ramdas Pophale) SiO2 
 PCOD8307841
Probable space group: I 41 M D
;
_chemical_formula_sum "Si O2"
_cell_formula_units_Z 80
_cell_length_a 16.996215
_cell_length_b 16.996215
_cell_length_c 15.267516
_cell_angle_alpha 90.000000
_cell_angle_beta 90.000000
_cell_angle_gamma 90.000000
_cell_volume 4410.347566
_symmetry_space_group_name_H-M "I 41 M D"
_symmetry_group_IT_number 109
_symmetry_cell_setting 'tetragonal'
loop_
_space_group_symop_operation_xyz
x,y,z
-y,1/2+x,1/4+z
-x,-y,z
y,1/2-x,1/4+z
-x,y,z
x,-y,z
-y,1/2-x,1/4+z
y,1/2+x,1/4+z
1/2+x,1/2+y,1/2+z
1/2-y,x,3/4+z
1/2-x,1/2-y,1/2+z
1/2+y,-x,3/4+z
1/2-x,1/2+y,1/2+z
1/2+x,1/2-y,1/2+z
1/2-y,-x,3/4+z
1/2+y,x,3/4+z
loop_
_atom_site_type_symbol
_atom_site_label
_atom_site_fract_x
_atom_site_fract_y
_atom_site_fract_z
Si Si1 0.089442 0.145098 0.928180
Si Si2 0.586777 0.089964 0.494784
Si Si3 0.818894 0.278450 0.476146
Si Si4 0.791797 0.175179 0.632289
Si Si5 0.908053 0.277662 0.309095
O O1 0.105610 0.084794 0.848978
O O2 0.101646 0.231966 0.885005
O O3 0.000000 0.139699 0.962621
O O4 0.144861 0.124396 0.009953
O O5 0.500000 0.112201 0.458709
O O6 0.655650 0.137951 0.447992
O O7 0.606601 0.000000 0.474810
O O8 0.828787 0.201753 0.539175
O O9 0.747009 0.262447 0.411616
O O10 0.895149 0.289102 0.413967
O O11 0.799992 0.359832 0.527501
O O12 0.000000 0.264713 0.290321
#
# Coordination Sequence:
#
# PCOD8307841 Si02
#       5
#    16  16  16  16  16
#     4  10  20  33  53  80 109 142 173 211 271 335
#     4  10  20  32  49  79 112 138 172 222 278 330
#     4   9  20  35  55  77 101 138 187 220 255 320
#     4  10  17  35  53  74 103 139 181 222 260 309
#     4  10  21  36  54  79 109 140 175 222 268 313
#
# _framework density 18.139161000000001
#
# number of rings (size 3 to 8) (size 9 to 14) (size 15 to 20)
#    0.000    2.200    2.000    1.200    2.800    2.800 
#    0.000    0.000    0.000    0.000    0.000    0.000 
#    0.000    0.000    0.000    0.000    0.000    0.000 
#
# Total GULP energy -495733.790724 kJ/mol
# GULP energy per Si atom -12393.344768 kJ/mol
# Density = 1.809788 g / cm^3
# Si number density = 18.139161 Si / 1000 Ang^3
#
#
#
# Elastic Constant Matrix: (Units=GPa)
#
#
# Indices 1 2 3 4 5 6 
#
# 1 59.3885 30.8156 29.7573 0.0000 0.0000 0.0000
# 2 30.8156 59.3885 29.7573 0.0000 0.0000 0.0000
# 3 29.7573 29.7573 87.8831 0.0000 0.0000 0.0000
# 4 0.0000 0.0000 0.0000 25.9197 0.0000 0.0000
# 5 0.0000 0.0000 0.0000 0.0000 25.9197 0.0000
# 6 0.0000 0.0000 0.0000 0.0000 0.0000 15.2850
#
#
#
# Elastic Compliance Matrix: (Units=1/GPa)
#
#
# Indices 1 2 3 4 5 6 
#
# 1 0.024637 -0.010362 -0.004834 0.000000 0.000000 0.000000
# 2 -0.010362 0.024637 -0.004834 0.000000 0.000000 0.000000
# 3 -0.004834 -0.004834 0.014652 0.000000 0.000000 0.000000
# 4 0.000000 0.000000 0.000000 0.038581 0.000000 0.000000
# 5 0.000000 0.000000 0.000000 0.000000 0.038581 0.000000
# 6 0.000000 0.000000 0.000000 0.000000 0.000000 0.065424
#
#
# Mechanical properties :
#
#
# Convention : Reuss Voigt Hill
#
# Bulk Modulus (GPa) = 41.89721 43.03561 42.46641
# Shear Modulus (GPa) = 19.64453 21.18020 20.41237
#
# Velocity S-wave (km/s) = 3.29445 3.42080 3.35822
# Velocity P-wave (km/s) = 6.13343 6.27529 6.20477
#
# Compressibility (1/GPa) = 0.02386794
#
# Stress axis : x y z
#
# Youngs Moduli (GPa) = 40.58996 40.58996 68.24997
#
# Poissons Ratio (x) = 0.42058 0.32989
# Poissons Ratio (y) = 0.42058 0.32989
# Poissons Ratio (z) = 0.19619 0.19619
#
# Static dielectric constant tensor:
#      x y z
#    x 3.247830 0.000000 0.000000 
#    y 0.000000 3.247830 0.000000 
#    z 0.000000 0.000000 3.376000 
# 
# 
# High freq. dielectric constant tensor:
#      x y z
#    x 1.689870 0.000000 0.000000 
#    y 0.000000 1.689870 0.000000 
#    z 0.000000 0.000000 1.696350 
# 
# From -- ./inp_files/2479.got.cif
#   From: 2010.03.12/outbox.cif.g09.slc.cpg/sg109_2_cif.got.tgz:2479.got - 2010.04.14 01:55:16.
