data_PCOD8307930
_publ_section_title
;
Structure prediction by ZEFSAII (Michael W. Deem and Ramdas Pophale) SiO2 
 PCOD8307930
Probable space group: I 41 M D
;
_chemical_formula_sum "Si O2"
_cell_formula_units_Z 96
_cell_length_a 22.216354
_cell_length_b 22.216354
_cell_length_c 9.056574
_cell_angle_alpha 90.000000
_cell_angle_beta 90.000000
_cell_angle_gamma 90.000000
_cell_volume 4470.020490
_symmetry_space_group_name_H-M "I 41 M D"
_symmetry_group_IT_number 109
_symmetry_cell_setting 'tetragonal'
loop_
_space_group_symop_operation_xyz
x,y,z
-y,1/2+x,1/4+z
-x,-y,z
y,1/2-x,1/4+z
-x,y,z
x,-y,z
-y,1/2-x,1/4+z
y,1/2+x,1/4+z
1/2+x,1/2+y,1/2+z
1/2-y,x,3/4+z
1/2-x,1/2-y,1/2+z
1/2+y,-x,3/4+z
1/2-x,1/2+y,1/2+z
1/2+x,1/2-y,1/2+z
1/2-y,-x,3/4+z
1/2+y,x,3/4+z
loop_
_atom_site_type_symbol
_atom_site_label
_atom_site_fract_x
_atom_site_fract_y
_atom_site_fract_z
Si Si1 0.119801 0.828234 0.842240
Si Si2 0.433606 0.567303 0.509162
Si Si3 0.430606 0.330311 0.031756
Si Si4 0.611135 0.431624 0.818531
Si Si5 0.780571 0.129721 0.153181
Si Si6 0.750411 0.352434 0.342672
O O1 0.073034 0.833151 0.709339
O O2 0.188858 0.820291 0.787935
O O3 0.115548 0.888840 0.939702
O O4 0.105622 0.773931 0.957711
O O5 0.500000 0.582750 0.448317
O O6 0.414386 0.500000 0.464600
O O7 0.436994 0.573579 0.686822
O O8 0.500000 0.314480 0.990104
O O9 0.411146 0.393332 0.958460
O O10 0.380059 0.282362 0.985753
O O11 0.618710 0.500000 0.875211
O O12 0.673523 0.410357 0.745939
O O13 0.802137 0.199333 0.138726
O O14 0.765840 0.107021 0.985885
#
# Coordination Sequence:
#
# PCOD8307930 Si02
#       6
#    16  16  16  16  16  16
#     4  11  24  42  64 102 138 180 230 285 359 429
#     4  10  20  39  67  94 126 173 230 285 338 412
#     4  12  27  44  67 101 144 191 233 290 359 436
#     4  11  23  43  70 100 135 180 239 296 355 425
#     4  11  21  44  69 100 133 177 233 291 358 421
#     4  10  22  41  70  99 132 177 229 289 357 418
#
# _framework density 21.476412
#
# number of rings (size 3 to 8) (size 9 to 14) (size 15 to 20)
#    0.000    1.167    5.000    1.500    2.333    7.000 
#    0.000    4.167    0.000    0.000    0.000    0.000 
#    0.000    0.000    0.000    0.000    0.000    0.000 
#
# Total GULP energy -594715.903748 kJ/mol
# GULP energy per Si atom -12389.914661 kJ/mol
# Density = 2.142753 g / cm^3
# Si number density = 21.476412 Si / 1000 Ang^3
#
#
#
# Elastic Constant Matrix: (Units=GPa)
#
#
# Indices 1 2 3 4 5 6 
#
# 1 105.0564 38.8105 31.6795 0.0000 0.0000 0.0000
# 2 38.8105 105.0564 31.6795 0.0000 0.0000 0.0000
# 3 31.6795 31.6795 119.2639 0.0000 0.0000 0.0000
# 4 0.0000 0.0000 0.0000 29.6699 0.0000 0.0000
# 5 0.0000 0.0000 0.0000 0.0000 29.6699 0.0000
# 6 0.0000 0.0000 0.0000 0.0000 0.0000 22.7386
#
#
#
# Elastic Compliance Matrix: (Units=1/GPa)
#
#
# Indices 1 2 3 4 5 6 
#
# 1 0.011483 -0.003612 -0.002091 0.000000 0.000000 0.000000
# 2 -0.003612 0.011483 -0.002091 0.000000 0.000000 0.000000
# 3 -0.002091 -0.002091 0.009496 0.000000 0.000000 0.000000
# 4 0.000000 0.000000 0.000000 0.033704 0.000000 0.000000
# 5 0.000000 0.000000 0.000000 0.000000 0.033704 0.000000
# 6 0.000000 0.000000 0.000000 0.000000 0.000000 0.043978
#
#
# Mechanical properties :
#
#
# Convention : Reuss Voigt Hill
#
# Bulk Modulus (GPa) = 59.25823 59.30175 59.27999
# Shear Modulus (GPa) = 30.29179 31.56285 30.92732
#
# Velocity S-wave (km/s) = 3.75969 3.83776 3.79893
# Velocity P-wave (km/s) = 6.81903 6.87825 6.84871
#
# Compressibility (1/GPa) = 0.01687529
#
# Stress axis : x y z
#
# Youngs Moduli (GPa) = 87.08153 87.08153 105.31221
#
# Poissons Ratio (x) = 0.31452 0.22020
# Poissons Ratio (y) = 0.31452 0.22020
# Poissons Ratio (z) = 0.18208 0.18208
#
# Static dielectric constant tensor:
#      x y z
#    x 3.799220 0.000000 0.000000 
#    y 0.000000 3.799220 0.000000 
#    z 0.000000 0.000000 3.969230 
# 
# 
# High freq. dielectric constant tensor:
#      x y z
#    x 1.836350 0.000000 0.000000 
#    y 0.000000 1.836350 0.000000 
#    z 0.000000 0.000000 1.842180 
# 
# From -- ./inp_files/1413.got.cif
#   From: 2010.03.12/outbox.cif.g09.slc.cpg/sg109_1_cif.got.tgz:1413.got - 2010.04.14 01:55:16.
