data_PCOD8307590
_publ_section_title
;
Structure prediction by ZEFSAII (Michael W. Deem and Ramdas Pophale) SiO2 
 PCOD8307590
Probable space group: I 4 M M
;
_chemical_formula_sum "Si O2"
_cell_formula_units_Z 112
_cell_length_a 24.040216
_cell_length_b 24.040216
_cell_length_c 10.272092
_cell_angle_alpha 90.000000
_cell_angle_beta 90.000000
_cell_angle_gamma 90.000000
_cell_volume 5936.570523
_symmetry_space_group_name_H-M "I 4 M M"
_symmetry_group_IT_number 107
_symmetry_cell_setting 'tetragonal'
loop_
_space_group_symop_operation_xyz
x,y,z
-y,x,z
-x,-y,z
y,-x,z
-x,y,z
x,-y,z
-y,-x,z
y,x,z
1/2+x,1/2+y,1/2+z
1/2-y,1/2+x,1/2+z
1/2-x,1/2-y,1/2+z
1/2+y,1/2-x,1/2+z
1/2-x,1/2+y,1/2+z
1/2+x,1/2-y,1/2+z
1/2-y,1/2-x,1/2+z
1/2+y,1/2+x,1/2+z
loop_
_atom_site_type_symbol
_atom_site_label
_atom_site_fract_x
_atom_site_fract_y
_atom_site_fract_z
Si Si1 0.152244 0.062599 0.796960
Si Si2 0.269628 0.907356 0.406138
Si Si3 0.438840 0.152442 0.139184
Si Si4 0.201022 0.709346 0.983373
Si Si5 0.848090 0.062374 0.496144
Si Si6 0.272327 0.911483 0.878703
Si Si7 0.103456 0.675539 0.137912
O O1 0.105062 0.105062 0.848193
O O2 0.166266 0.074869 0.646385
O O3 0.208483 0.069106 0.879779
O O4 0.129257 0.000000 0.815087
O O5 0.312206 0.933635 0.507796
O O6 0.262718 0.841618 0.429843
O O7 0.208383 0.933185 0.413322
O O8 0.295624 0.920967 0.265472
O O9 0.500000 0.124073 0.139665
O O10 0.436791 0.195173 0.258480
O O11 0.392066 0.103926 0.149627
O O12 0.239600 0.760401 0.019393
O O13 0.155919 0.726181 0.872643
O O14 0.168447 0.692413 0.115791
O O15 0.894793 0.105208 0.444378
O O16 0.871906 0.000000 0.479433
O O17 0.303006 0.931767 0.012560
#
# Coordination Sequence:
#
# PCOD8307590 Si02
#       7
#    16  16  16  16  16  16  16
#     4  10  20  35  55  81 113 155 203 247 290 339
#     4  11  19  35  53  83 116 151 194 244 291 348
#     4  11  19  35  58  81 115 155 189 232 286 349
#     4   9  19  31  50  77 113 154 188 233 293 356
#     4  10  21  35  54  81 114 155 203 247 290 340
#     4  10  19  35  54  80 116 151 195 235 292 354
#     4   9  21  36  52  81 118 145 191 234 291 360
#
# _framework density 18.866111
#
# number of rings (size 3 to 8) (size 9 to 14) (size 15 to 20)
#    0.857    1.143    2.857    1.714    0.000    1.429 
#    0.000    4.286    0.000    0.000    0.000    0.000 
#    0.000   50.286    0.000    0.000    0.000    0.000 
#
# Total GULP energy -694086.128637 kJ/mol
# GULP energy per Si atom -12394.395154 kJ/mol
# Density = 1.882317 g / cm^3
# Si number density = 18.866111 Si / 1000 Ang^3
#
#
#
# Elastic Constant Matrix: (Units=GPa)
#
#
# Indices 1 2 3 4 5 6 
#
# 1 92.2590 39.5346 28.7958 0.0000 0.0000 0.0001
# 2 39.5346 92.2590 28.7958 0.0000 0.0000 -0.0001
# 3 28.7958 28.7958 107.3699 0.0000 0.0000 0.0000
# 4 0.0000 0.0000 0.0000 11.2274 0.0000 0.0000
# 5 0.0000 0.0000 0.0000 0.0000 11.2274 0.0000
# 6 0.0001 -0.0001 0.0000 0.0000 0.0000 14.2066
#
#
#
# Elastic Compliance Matrix: (Units=1/GPa)
#
#
# Indices 1 2 3 4 5 6 
#
# 1 0.013781 -0.005186 -0.002305 0.000000 0.000000 0.000000
# 2 -0.005186 0.013781 -0.002305 0.000000 0.000000 0.000000
# 3 -0.002305 -0.002305 0.010550 0.000000 0.000000 0.000000
# 4 0.000000 0.000000 0.000000 0.089068 0.000000 0.000000
# 5 0.000000 0.000000 0.000000 0.000000 0.089068 0.000000
# 6 0.000000 0.000000 0.000000 0.000000 0.000000 0.070390
#
#
# Mechanical properties :
#
#
# Convention : Reuss Voigt Hill
#
# Bulk Modulus (GPa) = 53.99723 54.01559 54.00641
# Shear Modulus (GPa) = 16.00498 20.31638 18.16068
#
# Velocity S-wave (km/s) = 2.91580 3.28513 3.10596
# Velocity P-wave (km/s) = 6.32608 6.56374 6.44600
#
# Compressibility (1/GPa) = 0.01851947
#
# Stress axis : x y z
#
# Youngs Moduli (GPa) = 72.56505 72.56505 94.78666
#
# Poissons Ratio (x) = 0.37631 0.21849
# Poissons Ratio (y) = 0.37631 0.21849
# Poissons Ratio (z) = 0.16727 0.16727
#
# Static dielectric constant tensor:
#      x y z
#    x 3.355050 0.000000 0.000000 
#    y 0.000000 3.355050 0.000000 
#    z 0.000000 0.000000 3.253020 
# 
# 
# High freq. dielectric constant tensor:
#      x y z
#    x 1.720030 0.000000 0.000000 
#    y 0.000000 1.720030 0.000000 
#    z 0.000000 0.000000 1.715410 
# 
# From -- ./inp_files/2605.got.cif
#   From: 2010.03.12/outbox.cif.g09.slc.cpg/sg107_2_cif.got.tgz:2605.got - 2010.04.14 01:49:11.
