data_PCOD8307821
_publ_section_title
;
Structure prediction by ZEFSAII (Michael W. Deem and Ramdas Pophale) SiO2 
 PCOD8307821
Probable space group: I 4 C M
;
_chemical_formula_sum "Si O2"
_cell_formula_units_Z 92
_cell_length_a 14.073501
_cell_length_b 14.073501
_cell_length_c 19.787357
_cell_angle_alpha 90.000000
_cell_angle_beta 90.000000
_cell_angle_gamma 90.000000
_cell_volume 3919.151806
_symmetry_space_group_name_H-M "I 4 C M"
_symmetry_group_IT_number 108
_symmetry_cell_setting 'tetragonal'
loop_
_space_group_symop_operation_xyz
x,y,z
-y,x,z
-x,-y,z
y,-x,z
-x,y,1/2+z
x,-y,1/2+z
-y,-x,1/2+z
y,x,1/2+z
1/2+x,1/2+y,1/2+z
1/2-y,1/2+x,1/2+z
1/2-x,1/2-y,1/2+z
1/2+y,1/2-x,1/2+z
1/2-x,1/2+y,z
1/2+x,1/2-y,z
1/2-y,1/2-x,z
1/2+y,1/2+x,z
loop_
_atom_site_type_symbol
_atom_site_label
_atom_site_fract_x
_atom_site_fract_y
_atom_site_fract_z
Si Si1 0.632524 0.132524 0.994820
Si Si2 0.000000 0.500000 0.082937
Si Si3 0.145583 0.957750 0.558024
Si Si4 0.287896 0.787896 0.123989
Si Si5 0.366367 0.866367 0.671094
Si Si6 0.982459 0.775028 0.192407
Si Si7 0.293345 0.949228 0.447719
Si Si8 0.353923 0.455308 0.336289
O O1 0.562864 0.191890 0.946261
O O2 0.698669 0.198669 0.042728
O O3 0.567202 0.067202 0.040990
O O4 0.928961 0.428961 0.120666
O O5 0.237491 0.924671 0.516775
O O6 0.064016 0.884124 0.537724
O O7 0.163193 0.955390 0.638832
O O8 0.207714 0.707714 0.135536
O O9 0.262020 0.889307 0.155112
O O10 0.444200 0.808561 0.715790
O O11 0.947945 0.833656 0.256713
O O12 0.391549 0.891549 0.447404
O O13 0.235245 0.922208 0.380589
O O14 0.437946 0.383352 0.354691
#
# Coordination Sequence:
#
# PCOD8307821 Si02
#       8
#     8   4  16   8   8  16  16  16
#     4  12  24  47  71 101 146 194 241 299 372 445
#     4  12  20  48  70 104 154 206 228 312 392 444
#     4  11  23  42  68 105 140 179 235 292 358 430
#     4  12  24  42  73 118 153 192 255 301 379 453
#     4  12  24  41  73 112 160 193 242 309 387 460
#     4  12  25  43  73 114 147 194 245 308 368 443
#     4  12  26  46  71 100 142 190 242 296 364 439
#     4  11  26  52  74 100 145 196 245 307 376 440
#
# _framework density 23.474466
#
# number of rings (size 3 to 8) (size 9 to 14) (size 15 to 20)
#    0.000    0.348    4.348    4.174    2.435    3.478 
#   12.522    0.000    0.000    0.000    0.000    0.000 
#    0.000    0.000    0.000    0.000    0.000    0.000 
#
# Total GULP energy -570273.563030 kJ/mol
# GULP energy per Si atom -12397.251370 kJ/mol
# Density = 2.342104 g / cm^3
# Si number density = 23.474466 Si / 1000 Ang^3
#
#
#
# Elastic Constant Matrix: (Units=GPa)
#
#
# Indices 1 2 3 4 5 6 
#
# 1 107.3155 25.6436 16.1321 0.0000 0.0000 0.0000
# 2 25.6436 107.3155 16.1321 0.0000 0.0000 0.0000
# 3 16.1321 16.1321 103.9003 0.0000 0.0000 0.0000
# 4 0.0000 0.0000 0.0000 29.0949 0.0000 0.0000
# 5 0.0000 0.0000 0.0000 0.0000 29.0949 0.0000
# 6 0.0000 0.0000 0.0000 0.0000 0.0000 30.6875
#
#
#
# Elastic Compliance Matrix: (Units=1/GPa)
#
#
# Indices 1 2 3 4 5 6 
#
# 1 0.010030 -0.002214 -0.001213 0.000000 0.000000 0.000000
# 2 -0.002214 0.010030 -0.001213 0.000000 0.000000 0.000000
# 3 -0.001213 -0.001213 0.010001 0.000000 0.000000 0.000000
# 4 0.000000 0.000000 0.000000 0.034370 0.000000 0.000000
# 5 0.000000 0.000000 0.000000 0.000000 0.034370 0.000000
# 6 0.000000 0.000000 0.000000 0.000000 0.000000 0.032587
#
#
# Mechanical properties :
#
#
# Convention : Reuss Voigt Hill
#
# Bulk Modulus (GPa) = 48.12632 48.26075 48.19354
# Shear Modulus (GPa) = 33.87604 35.15036 34.51320
#
# Velocity S-wave (km/s) = 3.80294 3.87381 3.83854
# Velocity P-wave (km/s) = 6.31104 6.37275 6.34197
#
# Compressibility (1/GPa) = 0.02077865
#
# Stress axis : x y z
#
# Youngs Moduli (GPa) = 99.70238 99.70239 99.98563
#
# Poissons Ratio (x) = 0.22077 0.12133
# Poissons Ratio (y) = 0.22077 0.12133
# Poissons Ratio (z) = 0.12099 0.12099
#
# Static dielectric constant tensor:
#      x y z
#    x 4.693520 0.000000 0.000000 
#    y 0.000000 4.693520 0.000000 
#    z 0.000000 0.000000 3.865540 
# 
# 
# High freq. dielectric constant tensor:
#      x y z
#    x 1.947790 0.000000 0.000000 
#    y 0.000000 1.947790 0.000000 
#    z 0.000000 0.000000 1.898120 
# 
# From -- ./inp_files/2965.got.cif
#   From: 2010.03.12/outbox.cif.g09.slc.cpg/sg108_2_cif.got.tgz:2965.got - 2010.04.14 01:53:11.
