data_PCOD8307212
_publ_section_title
;
Structure prediction by ZEFSAII (Michael W. Deem and Ramdas Pophale) SiO2 
 PCOD8307212
Probable space group: P 42 M C
;
_chemical_formula_sum "Si O2"
_cell_formula_units_Z 48
_cell_length_a 9.314738
_cell_length_b 9.314738
_cell_length_c 30.977117
_cell_angle_alpha 90.000000
_cell_angle_beta 90.000000
_cell_angle_gamma 90.000000
_cell_volume 2687.709236
_symmetry_space_group_name_H-M "P 42 M C"
_symmetry_group_IT_number 105
_symmetry_cell_setting 'tetragonal'
loop_
_space_group_symop_operation_xyz
x,y,z
-y,x,1/2+z
-x,-y,z
y,-x,1/2+z
-x,y,z
x,-y,z
-y,-x,1/2+z
y,x,1/2+z
loop_
_atom_site_type_symbol
_atom_site_label
_atom_site_fract_x
_atom_site_fract_y
_atom_site_fract_z
Si Si1 0.341641 0.670261 0.524180
Si Si2 0.167095 0.333796 0.605011
Si Si3 0.335711 0.669984 0.928103
Si Si4 0.168540 0.166988 0.355585
Si Si5 0.833789 0.168140 0.689095
Si Si6 0.662406 0.829335 0.772058
O O1 0.500000 0.735450 0.531442
O O2 0.349091 0.500000 0.526640
O O3 0.240139 0.730480 0.561952
O O4 0.284413 0.711651 0.476584
O O5 0.205607 0.500000 0.611975
O O6 0.223575 0.248129 0.646570
O O7 0.000000 0.308573 0.598546
O O8 0.500000 0.717441 0.918711
O O9 0.320645 0.500000 0.922233
O O10 0.227384 0.750555 0.896922
O O11 0.226704 0.251246 0.313657
O O12 0.000000 0.192147 0.362111
O O13 0.204899 0.000000 0.349578
O O14 0.741725 0.227429 0.729226
O O15 0.000000 0.204123 0.698308
O O16 0.810341 0.000000 0.681989
O O17 0.500000 0.769145 0.773411
O O18 0.663058 0.000000 0.771755
#
# Coordination Sequence:
#
# PCOD8307212 Si02
#       6
#     8   8   8   8   8   8
#     4   8  15  29  48  68  91 121 155 190 230 276
#     4   9  17  29  46  69  95 122 154 191 230 275
#     4   9  18  33  52  73  97 126 161 200 242 289
#     4  10  20  33  50  73  99 127 160 198 242 292
#     4   9  17  30  47  66  91 123 154 187 233 284
#     4   9  17  30  49  71  93 120 158 201 239 279
#
# _framework density 17.859076000000002
#
# number of rings (size 3 to 8) (size 9 to 14) (size 15 to 20)
#    0.000    3.000    0.000    2.000    0.000    4.667 
#    0.000    3.333    0.000    6.000    0.000    0.000 
#    0.000    0.000    0.000    0.000    0.000    0.000 
#
# Total GULP energy -595102.605230 kJ/mol
# GULP energy per Si atom -12397.970942 kJ/mol
# Density = 1.781843 g / cm^3
# Si number density = 17.859076 Si / 1000 Ang^3
#
#
#
# Elastic Constant Matrix: (Units=GPa)
#
#
# Indices 1 2 3 4 5 6 
#
# 1 63.3800 34.0207 66.3678 0.0000 0.0000 0.0000
# 2 34.0207 63.3800 66.3678 0.0000 0.0000 0.0000
# 3 66.3678 66.3678 188.3265 0.0000 0.0000 0.0000
# 4 0.0000 0.0000 0.0000 33.3511 0.0000 0.0000
# 5 0.0000 0.0000 0.0000 0.0000 33.3511 0.0000
# 6 0.0000 0.0000 0.0000 0.0000 0.0000 19.2262
#
#
#
# Elastic Compliance Matrix: (Units=1/GPa)
#
#
# Indices 1 2 3 4 5 6 
#
# 1 0.026907 -0.007154 -0.006961 0.000000 0.000000 0.000000
# 2 -0.007154 0.026907 -0.006961 0.000000 0.000000 0.000000
# 3 -0.006961 -0.006961 0.010216 0.000000 0.000000 0.000000
# 4 0.000000 0.000000 0.000000 0.029984 0.000000 0.000000
# 5 0.000000 0.000000 0.000000 0.000000 0.029984 0.000000
# 6 0.000000 0.000000 0.000000 0.000000 0.000000 0.052012
#
#
# Mechanical properties :
#
#
# Convention : Reuss Voigt Hill
#
# Bulk Modulus (GPa) = 45.70737 72.06655 58.88696
# Shear Modulus (GPa) = 22.17721 27.07434 24.62577
#
# Velocity S-wave (km/s) = 3.52773 3.89781 3.71737
# Velocity P-wave (km/s) = 6.49939 7.79087 7.17425
#
# Compressibility (1/GPa) = 0.02187831
#
# Stress axis : x y z
#
# Youngs Moduli (GPa) = 37.16475 37.16475 97.88187
#
# Poissons Ratio (x) = 0.26586 0.68139
# Poissons Ratio (y) = 0.26586 0.68139
# Poissons Ratio (z) = 0.25872 0.25872
#
# Static dielectric constant tensor:
#      x y z
#    x 3.187730 0.000000 0.000000 
#    y 0.000000 3.187730 0.000000 
#    z 0.000000 0.000000 3.612180 
# 
# 
# High freq. dielectric constant tensor:
#      x y z
#    x 1.669210 0.000000 0.000000 
#    y 0.000000 1.669210 0.000000 
#    z 0.000000 0.000000 1.707040 
# 
# From -- ./inp_files/4665.got.cif
#   From: 2010.03.12/outbox.cif.g09.slc.cpg/sg105_3_cif.got.tgz:4665.got - 2010.04.14 01:45:32.
