data_PCOD8307127
_publ_section_title
;
Structure prediction by ZEFSAII (Michael W. Deem and Ramdas Pophale) SiO2 
 PCOD8307127
Probable space group: P 42 M C
;
_chemical_formula_sum "Si O2"
_cell_formula_units_Z 34
_cell_length_a 14.440655
_cell_length_b 14.440655
_cell_length_c 9.533046
_cell_angle_alpha 90.000000
_cell_angle_beta 90.000000
_cell_angle_gamma 90.000000
_cell_volume 1987.950075
_symmetry_space_group_name_H-M "P 42 M C"
_symmetry_group_IT_number 105
_symmetry_cell_setting 'tetragonal'
loop_
_space_group_symop_operation_xyz
x,y,z
-y,x,1/2+z
-x,-y,z
y,-x,1/2+z
-x,y,z
x,-y,z
-y,-x,1/2+z
y,x,1/2+z
loop_
_atom_site_type_symbol
_atom_site_label
_atom_site_fract_x
_atom_site_fract_y
_atom_site_fract_z
Si Si1 0.500000 0.500000 0.100040
Si Si2 0.500000 0.297903 0.193077
Si Si3 0.396434 0.000000 0.184838
Si Si4 0.804157 0.679351 0.683353
Si Si5 0.000000 0.396434 0.015245
Si Si6 0.500000 0.702097 0.507006
Si Si7 0.804157 0.320649 0.016731
O O1 0.500000 0.409002 0.195730
O O2 0.409002 0.500000 0.004350
O O3 0.592846 0.256676 0.124063
O O4 0.500000 0.258790 0.350042
O O5 0.338943 0.909926 0.138348
O O6 0.500000 0.000000 0.117810
O O7 0.408851 0.000000 0.350042
O O8 0.770098 0.770098 0.600042
O O9 0.792492 0.694782 0.850042
O O10 0.909926 0.338943 0.061736
O O11 0.000000 0.500000 0.082274
O O12 0.592846 0.743324 0.576020
#
# Coordination Sequence:
#
# PCOD8307127 Si02
#       7
#     2   4   4   8   4   4   8
#     4  12  18  28  40  66 104 136 162 184 242 288
#     4  10  19  28  43  67  98 132 166 195 232 285
#     4   9  16  30  55  76  95 128 178 217 241 288
#     4  10  19  33  51  74  99 130 167 209 249 292
#     4   9  16  30  55  76  95 128 178 217 241 288
#     4  10  19  28  43  67  98 132 166 195 232 285
#     4  10  19  33  51  74  99 130 167 209 249 292
#
# _framework density 17.103045999999999
#
# number of rings (size 3 to 8) (size 9 to 14) (size 15 to 20)
#    0.000    2.118    4.706    0.353    0.000    0.000 
#    0.000    2.353    0.000    2.118    0.000    4.941 
#    0.000    0.000    0.000    0.000    0.000    0.000 
#
# Total GULP energy -421441.842909 kJ/mol
# GULP energy per Si atom -12395.348321 kJ/mol
# Density = 1.706412 g / cm^3
# Si number density = 17.103046 Si / 1000 Ang^3
#
#
#
# Elastic Constant Matrix: (Units=GPa)
#
#
# Indices 1 2 3 4 5 6 
#
# 1 143.8046 71.6317 30.0746 0.0000 0.0000 0.0000
# 2 71.6317 143.8046 30.0746 0.0000 0.0000 0.0000
# 3 30.0746 30.0746 35.1665 0.0000 0.0000 0.0000
# 4 0.0000 0.0000 0.0000 21.6638 0.0000 0.0000
# 5 0.0000 0.0000 0.0000 0.0000 21.6638 0.0000
# 6 0.0000 0.0000 0.0000 0.0000 0.0000 23.2435
#
#
#
# Elastic Compliance Matrix: (Units=1/GPa)
#
#
# Indices 1 2 3 4 5 6 
#
# 1 0.009977 -0.003879 -0.005215 0.000000 0.000000 0.000000
# 2 -0.003879 0.009977 -0.005215 0.000000 0.000000 0.000000
# 3 -0.005215 -0.005215 0.037356 0.000000 0.000000 0.000000
# 4 0.000000 0.000000 0.000000 0.046160 0.000000 0.000000
# 5 0.000000 0.000000 0.000000 0.000000 0.046160 0.000000
# 6 0.000000 0.000000 0.000000 0.000000 0.000000 0.043023
#
#
# Mechanical properties :
#
#
# Convention : Reuss Voigt Hill
#
# Bulk Modulus (GPa) = 34.85309 65.14862 50.00086
# Shear Modulus (GPa) = 21.66069 26.04719 23.85394
#
# Velocity S-wave (km/s) = 3.56263 3.90674 3.73865
# Velocity P-wave (km/s) = 6.11111 7.65014 6.92352
#
# Compressibility (1/GPa) = 0.02869186
#
# Stress axis : x y z
#
# Youngs Moduli (GPa) = 100.23392 100.23392 26.76970
#
# Poissons Ratio (x) = 0.38880 0.13960
# Poissons Ratio (y) = 0.38880 0.13960
# Poissons Ratio (z) = 0.52270 0.52270
#
# Static dielectric constant tensor:
#      x y z
#    x 3.254070 0.000000 0.000000 
#    y 0.000000 3.254070 0.000000 
#    z 0.000000 0.000000 2.699120 
# 
# 
# High freq. dielectric constant tensor:
#      x y z
#    x 1.658200 0.000000 0.000000 
#    y 0.000000 1.658200 0.000000 
#    z 0.000000 0.000000 1.613090 
# 
# From -- ./inp_files/786.got.cif
#   From: 2010.03.12/outbox.cif.g09.slc.cpg/sg105_1_cif.got.tgz:786.got - 2010.04.14 01:45:32.
