data_PCOD8307603
_publ_section_title
;
Structure prediction by ZEFSAII (Michael W. Deem and Ramdas Pophale) SiO2 
 PCOD8307603
Probable space group: I 4 M M
;
_chemical_formula_sum "Si O2"
_cell_formula_units_Z 64
_cell_length_a 13.526519
_cell_length_b 13.526519
_cell_length_c 20.638464
_cell_angle_alpha 90.000000
_cell_angle_beta 90.000000
_cell_angle_gamma 90.000000
_cell_volume 3776.151987
_symmetry_space_group_name_H-M "I 4 M M"
_symmetry_group_IT_number 107
_symmetry_cell_setting 'tetragonal'
loop_
_space_group_symop_operation_xyz
x,y,z
-y,x,z
-x,-y,z
y,-x,z
-x,y,z
x,-y,z
-y,-x,z
y,x,z
1/2+x,1/2+y,1/2+z
1/2-y,1/2+x,1/2+z
1/2-x,1/2-y,1/2+z
1/2+y,1/2-x,1/2+z
1/2-x,1/2+y,1/2+z
1/2+x,1/2-y,1/2+z
1/2-y,1/2-x,1/2+z
1/2+y,1/2+x,1/2+z
loop_
_atom_site_type_symbol
_atom_site_label
_atom_site_fract_x
_atom_site_fract_y
_atom_site_fract_z
Si Si1 0.616358 0.774922 0.355200
Si Si2 0.882821 0.610169 0.122653
Si Si3 0.883642 0.725078 0.247259
Si Si4 0.889831 0.382821 0.479806
O O1 0.500000 0.754329 0.353748
O O2 0.671912 0.671912 0.341169
O O3 0.643833 0.856167 0.301229
O O4 0.654482 0.815543 0.424540
O O5 0.839762 0.500000 0.134966
O O6 0.845519 0.684458 0.177919
O O7 0.000000 0.604373 0.125930
O O8 0.849106 0.647945 0.051229
O O9 0.828088 0.828088 0.261291
O O10 0.000000 0.745671 0.248712
O O11 0.895626 0.500000 0.476528
O O12 0.000000 0.339763 0.467493
#
# Coordination Sequence:
#
# PCOD8307603 Si02
#       4
#    16  16  16  16
#     4  10  20  32  47  68  93 122 157 196 238 285
#     4   8  14  26  45  67  89 115 149 188 227 266
#     4  10  20  32  47  68  93 122 157 196 238 285
#     4   8  14  26  45  67  89 115 149 188 227 266
#
# _framework density 16.948471000000001
#
# number of rings (size 3 to 8) (size 9 to 14) (size 15 to 20)
#    0.000    3.000    0.000    3.000    0.000    4.000 
#    0.000    0.000    0.000    0.000    0.000    7.000 
#    0.000    0.000    0.000   46.500    0.000    2.500 
#
# Total GULP energy -396589.798625 kJ/mol
# GULP energy per Si atom -12393.431207 kJ/mol
# Density = 1.690990 g / cm^3
# Si number density = 16.948471 Si / 1000 Ang^3
#
#
#
# Elastic Constant Matrix: (Units=GPa)
#
#
# Indices 1 2 3 4 5 6 
#
# 1 65.4025 28.5167 35.7848 0.0000 0.0000 0.0000
# 2 28.5167 65.4025 35.7848 0.0000 0.0000 0.0000
# 3 35.7848 35.7848 122.2243 0.0000 0.0000 0.0000
# 4 0.0000 0.0000 0.0000 20.2416 0.0000 0.0000
# 5 0.0000 0.0000 0.0000 0.0000 20.2416 0.0000
# 6 0.0000 0.0000 0.0000 0.0000 0.0000 12.9833
#
#
#
# Elastic Compliance Matrix: (Units=1/GPa)
#
#
# Indices 1 2 3 4 5 6 
#
# 1 0.020408 -0.006703 -0.004013 0.000000 0.000000 0.000000
# 2 -0.006703 0.020408 -0.004013 0.000000 0.000000 0.000000
# 3 -0.004013 -0.004013 0.010531 0.000000 0.000000 0.000000
# 4 0.000000 0.000000 0.000000 0.049403 0.000000 0.000000
# 5 0.000000 0.000000 0.000000 0.000000 0.049403 0.000000
# 6 0.000000 0.000000 0.000000 0.000000 0.000000 0.077022
#
#
# Mechanical properties :
#
#
# Convention : Reuss Voigt Hill
#
# Bulk Modulus (GPa) = 45.68034 50.35578 48.01806
# Shear Modulus (GPa) = 18.94452 20.88951 19.91702
#
# Velocity S-wave (km/s) = 3.34694 3.51455 3.43177
# Velocity P-wave (km/s) = 6.47665 6.80037 6.64048
#
# Compressibility (1/GPa) = 0.02189126
#
# Stress axis : x y z
#
# Youngs Moduli (GPa) = 49.00053 49.00053 94.95500
#
# Poissons Ratio (x) = 0.32844 0.38102
# Poissons Ratio (y) = 0.32844 0.38102
# Poissons Ratio (z) = 0.19662 0.19662
#
# Static dielectric constant tensor:
#      x y z
#    x 2.866480 0.000000 0.000000 
#    y 0.000000 2.866480 0.000000 
#    z 0.000000 0.000000 3.644650 
# 
# 
# High freq. dielectric constant tensor:
#      x y z
#    x 1.624160 0.000000 0.000000 
#    y 0.000000 1.624160 0.000000 
#    z 0.000000 0.000000 1.675620 
# 
# From -- ./inp_files/3718.got.cif
#   From: 2010.03.12/outbox.cif.g09.slc.cpg/sg107_2_cif.got.tgz:3718.got - 2010.04.14 01:49:11.
