data_PCOD8307513
_publ_section_title
;
Structure prediction by ZEFSAII (Michael W. Deem and Ramdas Pophale) SiO2 
 PCOD8307513
Probable space group: I 4 M M
;
_chemical_formula_sum "Si O2"
_cell_formula_units_Z 96
_cell_length_a 23.610548
_cell_length_b 23.610548
_cell_length_c 10.365709
_cell_angle_alpha 90.000000
_cell_angle_beta 90.000000
_cell_angle_gamma 90.000000
_cell_volume 5778.447168
_symmetry_space_group_name_H-M "I 4 M M"
_symmetry_group_IT_number 107
_symmetry_cell_setting 'tetragonal'
loop_
_space_group_symop_operation_xyz
x,y,z
-y,x,z
-x,-y,z
y,-x,z
-x,y,z
x,-y,z
-y,-x,z
y,x,z
1/2+x,1/2+y,1/2+z
1/2-y,1/2+x,1/2+z
1/2-x,1/2-y,1/2+z
1/2+y,1/2-x,1/2+z
1/2-x,1/2+y,1/2+z
1/2+x,1/2-y,1/2+z
1/2-y,1/2-x,1/2+z
1/2+y,1/2+x,1/2+z
loop_
_atom_site_type_symbol
_atom_site_label
_atom_site_fract_x
_atom_site_fract_y
_atom_site_fract_z
Si Si1 0.064517 0.844381 0.012340
Si Si2 0.932974 0.724432 0.619056
Si Si3 0.150427 0.432950 0.360580
Si Si4 0.775568 0.567026 0.602103
Si Si5 0.844381 0.064517 0.708821
Si Si6 0.164519 0.432849 0.860580
O O1 0.102242 0.897759 0.054356
O O2 0.088917 0.788709 0.084172
O O3 0.000000 0.857955 0.053285
O O4 0.068013 0.832494 0.860581
O O5 0.912539 0.685059 0.735816
O O6 0.911082 0.788709 0.636989
O O7 0.910725 0.699146 0.484655
O O8 0.000000 0.726601 0.622600
O O9 0.137115 0.500000 0.360581
O O10 0.185059 0.412539 0.485344
O O11 0.091457 0.399069 0.360579
O O12 0.773400 0.500000 0.598555
O O13 0.800855 0.589274 0.736505
O O14 0.897759 0.102242 0.666805
O O15 0.857955 0.000000 0.667876
O O16 0.157833 0.500000 0.860581
#
# Coordination Sequence:
#
# PCOD8307513 Si02
#       6
#    16  16  16  16  16  16
#     4   9  16  28  49  74  98 125 157 194 235 280
#     4   9  17  31  48  68  93 127 163 190 228 285
#     4  10  18  31  51  69  92 124 158 198 242 286
#     4   9  17  31  48  68  93 127 163 190 228 285
#     4   9  16  28  49  74  98 125 157 194 235 280
#     4  10  20  31  47  71  96 122 158 202 240 280
#
# _framework density 16.61346
#
# number of rings (size 3 to 8) (size 9 to 14) (size 15 to 20)
#    0.000    2.667    1.667    1.000    0.000    0.667 
#    0.000    2.500    0.000   12.000    0.000    0.000 
#    0.000    6.667    0.000    0.000    0.000    0.000 
#
# Total GULP energy -595084.669666 kJ/mol
# GULP energy per Si atom -12397.597285 kJ/mol
# Density = 1.657565 g / cm^3
# Si number density = 16.613460 Si / 1000 Ang^3
#
#
#
# Elastic Constant Matrix: (Units=GPa)
#
#
# Indices 1 2 3 4 5 6 
#
# 1 93.6422 58.7284 42.8657 0.0000 0.0000 0.0000
# 2 58.7284 93.6422 42.8657 0.0000 0.0000 0.0000
# 3 42.8657 42.8657 115.5892 0.0000 0.0000 0.0000
# 4 0.0000 0.0000 0.0000 13.7482 0.0000 0.0000
# 5 0.0000 0.0000 0.0000 0.0000 13.7482 0.0000
# 6 0.0000 0.0000 0.0000 0.0000 0.0000 12.8233
#
#
#
# Elastic Compliance Matrix: (Units=1/GPa)
#
#
# Indices 1 2 3 4 5 6 
#
# 1 0.018468 -0.010174 -0.003076 0.000000 0.000000 0.000000
# 2 -0.010174 0.018468 -0.003076 0.000000 0.000000 0.000000
# 3 -0.003076 -0.003076 0.010932 0.000000 0.000000 0.000000
# 4 0.000000 0.000000 0.000000 0.072737 0.000000 0.000000
# 5 0.000000 0.000000 0.000000 0.000000 0.072737 0.000000
# 6 0.000000 0.000000 0.000000 0.000000 0.000000 0.077983
#
#
# Mechanical properties :
#
#
# Convention : Reuss Voigt Hill
#
# Bulk Modulus (GPa) = 65.71599 65.75478 65.73539
# Shear Modulus (GPa) = 16.17872 18.62485 17.40179
#
# Velocity S-wave (km/s) = 3.12401 3.35187 3.23995
# Velocity P-wave (km/s) = 7.25633 7.39224 7.32460
#
# Compressibility (1/GPa) = 0.01521700
#
# Stress axis : x y z
#
# Youngs Moduli (GPa) = 54.14860 54.14860 91.47081
#
# Poissons Ratio (x) = 0.55092 0.28132
# Poissons Ratio (y) = 0.55092 0.28132
# Poissons Ratio (z) = 0.16654 0.16654
#
# Static dielectric constant tensor:
#      x y z
#    x 3.025770 0.000000 0.000000 
#    y 0.000000 3.025770 0.000000 
#    z 0.000000 0.000000 3.327170 
# 
# 
# High freq. dielectric constant tensor:
#      x y z
#    x 1.624600 0.000000 0.000000 
#    y 0.000000 1.624600 0.000000 
#    z 0.000000 0.000000 1.635760 
# 
# From -- ./inp_files/1471.got.cif
#   From: 2010.03.12/outbox.cif.g09.slc.cpg/sg107_1_cif.got.tgz:1471.got - 2010.04.14 01:49:11.
