data_PCOD8307532
_publ_section_title
;
Structure prediction by ZEFSAII (Michael W. Deem and Ramdas Pophale) SiO2 
 PCOD8307532
Probable space group: I 4 M M
;
_chemical_formula_sum "Si O2"
_cell_formula_units_Z 84
_cell_length_a 21.686182
_cell_length_b 21.686182
_cell_length_c 9.507927
_cell_angle_alpha 90.000000
_cell_angle_beta 90.000000
_cell_angle_gamma 90.000000
_cell_volume 4471.487645
_symmetry_space_group_name_H-M "I 4 M M"
_symmetry_group_IT_number 107
_symmetry_cell_setting 'tetragonal'
loop_
_space_group_symop_operation_xyz
x,y,z
-y,x,z
-x,-y,z
y,-x,z
-x,y,z
x,-y,z
-y,-x,z
y,x,z
1/2+x,1/2+y,1/2+z
1/2-y,1/2+x,1/2+z
1/2-x,1/2-y,1/2+z
1/2+y,1/2-x,1/2+z
1/2-x,1/2+y,1/2+z
1/2+x,1/2-y,1/2+z
1/2-y,1/2-x,1/2+z
1/2+y,1/2+x,1/2+z
loop_
_atom_site_type_symbol
_atom_site_label
_atom_site_fract_x
_atom_site_fract_y
_atom_site_fract_z
Si Si1 0.634218 0.000000 0.235080
Si Si2 0.666031 0.430909 0.725565
Si Si3 0.202140 0.380951 0.725479
Si Si4 0.069091 0.833970 0.558969
Si Si5 0.619049 0.202140 0.059055
Si Si6 0.500000 0.000000 0.642268
Si Si7 0.000000 0.634218 0.549455
O O1 0.661258 0.061855 0.165386
O O2 0.560314 0.000000 0.238956
O O3 0.660837 0.000000 0.392267
O O4 0.665216 0.500000 0.660666
O O5 0.607340 0.392660 0.667623
O O6 0.727642 0.394443 0.682510
O O7 0.663112 0.435823 0.892266
O O8 0.179833 0.320167 0.642267
O O9 0.194039 0.370296 0.892267
O O10 0.107339 0.892661 0.616910
O O11 0.105557 0.772359 0.602023
O O12 0.000000 0.834784 0.623867
O O13 0.561855 0.161259 0.119148
O O14 0.560314 0.000000 0.545581
#
# Coordination Sequence:
#
# PCOD8307532 Si02
#       7
#     8  16  16  16  16   4   8
#     4  10  19  29  43  64  94 129 163 203 247 292
#     4   9  17  30  50  74 101 132 167 208 256 307
#     4  10  19  33  50  71 100 134 167 203 249 299
#     4   9  17  30  50  74 101 132 167 208 256 307
#     4  10  19  33  50  71 100 134 167 203 249 299
#     4  12  18  28  44  66  88 128 174 216 234 292
#     4  10  19  29  43  64  94 129 163 203 247 292
#
# _framework density 18.785693999999999
#
# number of rings (size 3 to 8) (size 9 to 14) (size 15 to 20)
#    0.000    2.286    3.810    0.286    0.000    1.143 
#    0.000    2.857    0.000    0.000    0.000    0.000 
#    0.000    0.000    0.000    3.429    0.000    3.810 
#
# Total GULP energy -520601.448987 kJ/mol
# GULP energy per Si atom -12395.272595 kJ/mol
# Density = 1.874294 g / cm^3
# Si number density = 18.785694 Si / 1000 Ang^3
#
#
#
# Elastic Constant Matrix: (Units=GPa)
#
#
# Indices 1 2 3 4 5 6 
#
# 1 135.8587 85.5341 23.5184 0.0000 0.0000 0.0006
# 2 85.5341 135.8587 23.5184 0.0000 0.0000 -0.0006
# 3 23.5184 23.5184 27.5840 0.0000 0.0000 0.0000
# 4 0.0000 0.0000 0.0000 16.7333 0.0000 0.0000
# 5 0.0000 0.0000 0.0000 0.0000 16.7333 0.0000
# 6 0.0006 -0.0006 0.0000 0.0000 0.0000 35.9976
#
#
#
# Elastic Compliance Matrix: (Units=1/GPa)
#
#
# Indices 1 2 3 4 5 6 
#
# 1 0.012694 -0.007177 -0.004703 0.000000 0.000000 0.000000
# 2 -0.007177 0.012694 -0.004703 0.000000 0.000000 0.000000
# 3 -0.004703 -0.004703 0.044273 0.000000 0.000000 0.000000
# 4 0.000000 0.000000 0.000000 0.059761 0.000000 0.000000
# 5 0.000000 0.000000 0.000000 0.000000 0.059761 0.000000
# 6 0.000000 0.000000 0.000000 0.000000 0.000000 0.027780
#
#
# Mechanical properties :
#
#
# Convention : Reuss Voigt Hill
#
# Bulk Modulus (GPa) = 27.40286 62.71593 45.05939
# Shear Modulus (GPa) = 19.06265 25.00819 22.03542
#
# Velocity S-wave (km/s) = 3.18896 3.65257 3.42861
# Velocity P-wave (km/s) = 5.30830 7.15861 6.30174
#
# Compressibility (1/GPa) = 0.03649254
#
# Stress axis : x y z
#
# Youngs Moduli (GPa) = 78.78036 78.78036 22.58732
#
# Poissons Ratio (x) = 0.56544 0.10623
# Poissons Ratio (y) = 0.56544 0.10623
# Poissons Ratio (z) = 0.37051 0.37051
#
# Static dielectric constant tensor:
#      x y z
#    x 3.606970 0.000000 0.000000 
#    y 0.000000 3.606970 0.000000 
#    z 0.000000 0.000000 2.774500 
# 
# 
# High freq. dielectric constant tensor:
#      x y z
#    x 1.738770 0.000000 0.000000 
#    y 0.000000 1.738770 0.000000 
#    z 0.000000 0.000000 1.656160 
# 
# From -- ./inp_files/2389.got.cif
#   From: 2010.03.12/outbox.cif.g09.slc.cpg/sg107_2_cif.got.tgz:2389.got - 2010.04.14 01:49:11.
