data_PCOD8307441
_publ_section_title
;
Structure prediction by ZEFSAII (Michael W. Deem and Ramdas Pophale) SiO2 
 PCOD8307441
Probable space group: P 42 B C
;
_chemical_formula_sum "Si O2"
_cell_formula_units_Z 32
_cell_length_a 10.113046
_cell_length_b 10.113046
_cell_length_c 13.930461
_cell_angle_alpha 90.000000
_cell_angle_beta 90.000000
_cell_angle_gamma 90.000000
_cell_volume 1424.719781
_symmetry_space_group_name_H-M "P 42 B C"
_symmetry_group_IT_number 106
_symmetry_cell_setting 'tetragonal'
loop_
_space_group_symop_operation_xyz
x,y,z
-y,x,1/2+z
-x,-y,z
y,-x,1/2+z
1/2-x,1/2+y,z
1/2+x,1/2-y,z
1/2-y,1/2-x,1/2+z
1/2+y,1/2+x,1/2+z
loop_
_atom_site_type_symbol
_atom_site_label
_atom_site_fract_x
_atom_site_fract_y
_atom_site_fract_z
Si Si1 0.456500 0.714785 0.100320
Si Si2 0.611230 0.750462 0.727720
Si Si3 0.500000 0.500000 0.951705
Si Si4 0.000000 0.500000 0.633583
Si Si5 0.387145 0.351710 0.291731
O O1 0.307965 0.665664 0.125535
O O2 0.528329 0.695625 0.201825
O O3 0.463567 0.869893 0.069819
O O4 0.525558 0.628343 0.018179
O O5 0.530535 0.881040 0.704644
O O6 0.504261 0.658092 0.779650
O O7 0.737781 0.774316 0.799308
O O8 0.634543 0.472087 0.889817
#
# Coordination Sequence:
#
# PCOD8307441 Si02
#       5
#     8   8   4   4   8
#     4  11  22  44  72  96 144 192 238 302 372 439
#     4  11  20  44  68  97 135 183 236 300 369 436
#     4  12  22  42  70 108 136 196 238 300 368 446
#     4  10  24  40  72  98 128 192 242 288 368 444
#     4  11  23  42  70  95 140 189 237 297 372 440
#
# _framework density 22.460557000000001
#
# number of rings (size 3 to 8) (size 9 to 14) (size 15 to 20)
#    0.000    1.000    7.500    0.000    0.000    0.000 
#   13.500    1.250    0.000    0.000    0.000    0.000 
#    0.000    0.000    0.000    0.000    0.000    0.000 
#
# Total GULP energy -396477.582979 kJ/mol
# GULP energy per Si atom -12389.924468 kJ/mol
# Density = 2.240944 g / cm^3
# Si number density = 22.460557 Si / 1000 Ang^3
#
#
#
# Elastic Constant Matrix: (Units=GPa)
#
#
# Indices 1 2 3 4 5 6 
#
# 1 146.0793 35.5492 42.3772 0.0000 0.0000 0.0000
# 2 35.5492 146.0793 42.3772 0.0000 0.0000 0.0000
# 3 42.3772 42.3772 101.0303 0.0000 0.0000 0.0000
# 4 0.0000 0.0000 0.0000 20.8218 0.0000 0.0000
# 5 0.0000 0.0000 0.0000 0.0000 20.8218 0.0000
# 6 0.0000 0.0000 0.0000 0.0000 0.0000 47.0428
#
#
#
# Elastic Compliance Matrix: (Units=1/GPa)
#
#
# Indices 1 2 3 4 5 6 
#
# 1 0.007946 -0.001101 -0.002871 0.000000 0.000000 0.000000
# 2 -0.001101 0.007946 -0.002871 0.000000 0.000000 0.000000
# 3 -0.002871 -0.002871 0.012307 0.000000 0.000000 0.000000
# 4 0.000000 0.000000 0.000000 0.048027 0.000000 0.000000
# 5 0.000000 0.000000 0.000000 0.000000 0.048027 0.000000
# 6 0.000000 0.000000 0.000000 0.000000 0.000000 0.021257
#
#
# Mechanical properties :
#
#
# Convention : Reuss Voigt Hill
#
# Bulk Modulus (GPa) = 68.90611 70.42181 69.66396
# Shear Modulus (GPa) = 30.48126 35.92961 33.20543
#
# Velocity S-wave (km/s) = 3.68788 4.00393 3.84915
# Velocity P-wave (km/s) = 6.99137 7.26615 7.13008
#
# Compressibility (1/GPa) = 0.01451250
#
# Stress axis : x y z
#
# Youngs Moduli (GPa) = 125.84193 125.84193 81.25551
#
# Poissons Ratio (x) = 0.13853 0.23332
# Poissons Ratio (y) = 0.13853 0.23332
# Poissons Ratio (z) = 0.36134 0.36134
#
# Static dielectric constant tensor:
#      x y z
#    x 7.573550 0.000000 0.000000 
#    y 0.000000 7.573550 0.000000 
#    z 0.000000 0.000000 3.696760 
# 
# 
# High freq. dielectric constant tensor:
#      x y z
#    x 1.899670 0.000000 0.000000 
#    y 0.000000 1.899670 0.000000 
#    z 0.000000 0.000000 1.839300 
# 
# From -- ./inp_files/744.got.cif
#   From: 2010.03.12/outbox.cif.g09.slc.cpg/sg106_cif.got.tgz:744.got - 2010.04.14 01:48:02.
