data_PCOD8307882
_publ_section_title
;
Structure prediction by ZEFSAII (Michael W. Deem and Ramdas Pophale) SiO2 
 PCOD8307882
Probable space group: I 41 M D
;
_chemical_formula_sum "Si O2"
_cell_formula_units_Z 72
_cell_length_a 11.627459
_cell_length_b 11.627459
_cell_length_c 28.763401
_cell_angle_alpha 90.000000
_cell_angle_beta 90.000000
_cell_angle_gamma 90.000000
_cell_volume 3888.748616
_symmetry_space_group_name_H-M "I 41 M D"
_symmetry_group_IT_number 109
_symmetry_cell_setting 'tetragonal'
loop_
_space_group_symop_operation_xyz
x,y,z
-y,1/2+x,1/4+z
-x,-y,z
y,1/2-x,1/4+z
-x,y,z
x,-y,z
-y,1/2-x,1/4+z
y,1/2+x,1/4+z
1/2+x,1/2+y,1/2+z
1/2-y,x,3/4+z
1/2-x,1/2-y,1/2+z
1/2+y,-x,3/4+z
1/2-x,1/2+y,1/2+z
1/2+x,1/2-y,1/2+z
1/2-y,-x,3/4+z
1/2+y,x,3/4+z
loop_
_atom_site_type_symbol
_atom_site_label
_atom_site_fract_x
_atom_site_fract_y
_atom_site_fract_z
Si Si1 0.874469 0.000000 0.860361
Si Si2 0.868083 0.631193 0.465416
Si Si3 0.231204 0.708890 0.142666
Si Si4 0.231636 0.871545 0.054949
Si Si5 0.000000 0.217367 0.021870
Si Si6 0.500000 0.135579 0.428432
O O1 0.859810 0.888383 0.892337
O O2 0.787855 0.000000 0.818719
O O3 0.000000 0.000000 0.838060
O O4 0.845979 0.500000 0.447843
O O5 0.797892 0.723818 0.435211
O O6 0.836795 0.643185 0.519511
O O7 0.000000 0.664607 0.459567
O O8 0.250597 0.777672 0.094869
O O9 0.332465 0.615856 0.149959
O O10 0.115252 0.858468 0.024284
O O11 0.230822 0.000000 0.076847
O O12 0.000000 0.297485 0.977014
O O13 0.500000 0.000000 0.437740
#
# Coordination Sequence:
#
# PCOD8307882 Si02
#       6
#     8  16  16  16   8   8
#     4  10  19  33  57  86 115 145 191 245 309 354
#     4  10  20  35  57  86 118 151 191 242 301 358
#     4  11  21  37  58  88 120 156 193 250 296 362
#     4  10  21  36  59  91 121 155 193 242 305 367
#     4  10  20  36  58  87 120 155 198 252 301 356
#     4  12  25  40  60  86 120 168 212 250 297 361
#
# _framework density 18.514953999999999
#
# number of rings (size 3 to 8) (size 9 to 14) (size 15 to 20)
#    0.000    1.556    4.444    1.333    0.000    0.889 
#    2.000    0.000    0.000    2.000    0.000    0.000 
#    0.000    0.000    0.000    0.000    0.000    0.000 
#
# Total GULP energy -446382.168008 kJ/mol
# GULP energy per Si atom -12399.504667 kJ/mol
# Density = 1.847281 g / cm^3
# Si number density = 18.514954 Si / 1000 Ang^3
#
#
#
# Elastic Constant Matrix: (Units=GPa)
#
#
# Indices 1 2 3 4 5 6 
#
# 1 98.5955 32.9681 35.4282 0.0000 0.0000 0.0000
# 2 32.9681 98.5955 35.4282 0.0000 0.0000 0.0000
# 3 35.4282 35.4282 74.7130 0.0000 0.0000 0.0000
# 4 0.0000 0.0000 0.0000 -4.5012 0.0000 0.0000
# 5 0.0000 0.0000 0.0000 0.0000 -4.5012 0.0000
# 6 0.0000 0.0000 0.0000 0.0000 0.0000 22.5841
#
#
#
# Elastic Compliance Matrix: (Units=1/GPa)
#
#
# Indices 1 2 3 4 5 6 
#
# 1 0.012723 -0.002515 -0.004840 0.000000 0.000000 0.000000
# 2 -0.002515 0.012723 -0.004840 0.000000 0.000000 0.000000
# 3 -0.004840 -0.004840 0.017975 0.000000 0.000000 0.000000
# 4 0.000000 0.000000 0.000000 -0.222164 0.000000 0.000000
# 5 0.000000 0.000000 0.000000 0.000000 -0.222164 0.000000
# 6 0.000000 0.000000 0.000000 0.000000 0.000000 0.044279
#
#
# Mechanical properties :
#
#
# Convention : Reuss Voigt Hill
#
# Bulk Modulus (GPa) = 52.55145 53.28367 52.91756
# Shear Modulus (GPa) = -15.34239 13.92166 -0.71037
#
# Velocity S-wave (km/s) = -2.88175 2.74508 -0.62008
# Velocity P-wave (km/s) = 4.16800 6.23606 5.30381
#
# Compressibility (1/GPa) = 0.01902897
#
# Stress axis : x y z
#
# Youngs Moduli (GPa) = 78.59983 78.59982 55.63245
#
# Poissons Ratio (x) = 0.19767 0.26929
# Poissons Ratio (y) = 0.19767 0.26929
# Poissons Ratio (z) = 0.38046 0.38046
#
# Static dielectric constant tensor:
#      x y z
#    x 3.414720 0.000000 0.000000 
#    y 0.000000 3.414720 0.000000 
#    z 0.000000 0.000000 3.240070 
# 
# 
# High freq. dielectric constant tensor:
#      x y z
#    x 1.711990 0.000000 0.000000 
#    y 0.000000 1.711990 0.000000 
#    z 0.000000 0.000000 1.719000 
# 
# From -- ./inp_files/4891.got.cif
#   From: 2010.03.12/outbox.cif.g09.slc.cpg/sg109_3_cif.got.tgz:4891.got - 2010.04.14 01:55:16.
