data_PCOD8307296
_publ_section_title
;
Structure prediction by ZEFSAII (Michael W. Deem and Ramdas Pophale) SiO2 
 PCOD8307296
Probable space group: P 42 M C
;
_chemical_formula_sum "Si O2"
_cell_formula_units_Z 56
_cell_length_a 14.107009
_cell_length_b 14.107009
_cell_length_c 15.463998
_cell_angle_alpha 90.000000
_cell_angle_beta 90.000000
_cell_angle_gamma 90.000000
_cell_volume 3077.454720
_symmetry_space_group_name_H-M "P 42 M C"
_symmetry_group_IT_number 105
_symmetry_cell_setting 'tetragonal'
loop_
_space_group_symop_operation_xyz
x,y,z
-y,x,1/2+z
-x,-y,z
y,-x,1/2+z
-x,y,z
x,-y,z
-y,-x,1/2+z
y,x,1/2+z
loop_
_atom_site_type_symbol
_atom_site_label
_atom_site_fract_x
_atom_site_fract_y
_atom_site_fract_z
Si Si1 0.109775 0.610199 0.748480
Si Si2 0.609912 0.606965 0.824189
Si Si3 0.389946 0.608708 0.519065
Si Si4 0.110520 0.789264 0.853076
Si Si5 0.298588 0.718153 0.171195
Si Si6 0.103135 0.889411 0.515136
Si Si7 0.801246 0.890595 0.693228
O O1 0.132684 0.500000 0.770766
O O2 0.132639 0.678272 0.831515
O O3 0.177326 0.651280 0.672273
O O4 0.000000 0.620563 0.719491
O O5 0.500000 0.610040 0.800957
O O6 0.648019 0.500000 0.815607
O O7 0.663971 0.671244 0.757071
O O8 0.627398 0.644945 0.921290
O O9 0.500000 0.633858 0.527600
O O10 0.372612 0.500000 0.545503
O O11 0.331660 0.674557 0.582690
O O12 0.150666 0.862977 0.783094
O O13 0.000000 0.805378 0.851720
O O14 0.152654 0.818634 0.947430
O O15 0.184101 0.716888 0.175567
O O16 0.127077 0.871283 0.614698
O O17 0.000000 0.843012 0.497031
O O18 0.097170 0.000000 0.497715
O O19 0.765471 0.000000 0.695144
#
# Coordination Sequence:
#
# PCOD8307296 Si02
#       7
#     8   8   8   8   8   8   8
#     4   9  18  31  46  69 102 136 170 208 249 299
#     4   9  18  33  55  84 110 126 152 204 262 309
#     4   9  18  33  55  83 107 124 152 201 258 310
#     4   9  17  30  50  72  92 123 167 211 259 307
#     4  11  20  31  53  75  98 137 175 203 246 303
#     4   9  17  30  49  70  92 122 164 215 262 297
#     4  10  21  33  45  67 101 136 171 213 253 288
#
# _framework density 18.196857000000001
#
# number of rings (size 3 to 8) (size 9 to 14) (size 15 to 20)
#    0.000    2.571    0.000    3.429    0.000    5.429 
#    0.000    0.000    0.000    3.429    0.000    4.000 
#    0.000    0.000    0.000    0.000    0.000    0.000 
#
# Total GULP energy -693846.969003 kJ/mol
# GULP energy per Si atom -12390.124446 kJ/mol
# Density = 1.815544 g / cm^3
# Si number density = 18.196857 Si / 1000 Ang^3
#
#
#
# Elastic Constant Matrix: (Units=GPa)
#
#
# Indices 1 2 3 4 5 6 
#
# 1 93.4222 34.0217 37.1669 0.0000 0.0000 0.0000
# 2 34.0217 93.4222 37.1669 0.0000 0.0000 0.0000
# 3 37.1669 37.1669 81.7270 0.0000 0.0000 0.0000
# 4 0.0000 0.0000 0.0000 23.1426 0.0000 0.0000
# 5 0.0000 0.0000 0.0000 0.0000 23.1426 0.0000
# 6 0.0000 0.0000 0.0000 0.0000 0.0000 25.1090
#
#
#
# Elastic Compliance Matrix: (Units=1/GPa)
#
#
# Indices 1 2 3 4 5 6 
#
# 1 0.013757 -0.003078 -0.004857 0.000000 0.000000 0.000000
# 2 -0.003078 0.013757 -0.004857 0.000000 0.000000 0.000000
# 3 -0.004857 -0.004857 0.016653 0.000000 0.000000 0.000000
# 4 0.000000 0.000000 0.000000 0.043210 0.000000 0.000000
# 5 0.000000 0.000000 0.000000 0.000000 0.043210 0.000000
# 6 0.000000 0.000000 0.000000 0.000000 0.000000 0.039826
#
#
# Mechanical properties :
#
#
# Convention : Reuss Voigt Hill
#
# Bulk Modulus (GPa) = 53.80606 53.92028 53.86317
# Shear Modulus (GPa) = 24.72904 24.95991 24.84447
#
# Velocity S-wave (km/s) = 3.69042 3.70761 3.69903
# Velocity P-wave (km/s) = 6.91318 6.92997 6.92158
#
# Compressibility (1/GPa) = 0.01858527
#
# Stress axis : x y z
#
# Youngs Moduli (GPa) = 72.68986 72.68986 60.04878
#
# Poissons Ratio (x) = 0.22372 0.29163
# Poissons Ratio (y) = 0.22372 0.29163
# Poissons Ratio (z) = 0.35303 0.35303
#
# Static dielectric constant tensor:
#      x y z
#    x 3.439590 0.000000 0.000000 
#    y 0.000000 3.439590 0.000000 
#    z 0.000000 0.000000 3.490390 
# 
# 
# High freq. dielectric constant tensor:
#      x y z
#    x 1.693080 0.000000 0.000000 
#    y 0.000000 1.693080 0.000000 
#    z 0.000000 0.000000 1.706290 
# 
# From -- ./inp_files/2643.got.cif
#   From: 2010.03.12/outbox.cif.g09.slc.cpg/sg105_2_cif.got.tgz:2643.got - 2010.04.14 01:45:32.
