data_PCOD8307517
_publ_section_title
;
Structure prediction by ZEFSAII (Michael W. Deem and Ramdas Pophale) SiO2 
 PCOD8307517
Probable space group: I 4 M M
;
_chemical_formula_sum "Si O2"
_cell_formula_units_Z 128
_cell_length_a 19.518689
_cell_length_b 19.518689
_cell_length_c 19.710516
_cell_angle_alpha 90.000000
_cell_angle_beta 90.000000
_cell_angle_gamma 90.000000
_cell_volume 7509.297017
_symmetry_space_group_name_H-M "I 4 M M"
_symmetry_group_IT_number 107
_symmetry_cell_setting 'tetragonal'
loop_
_space_group_symop_operation_xyz
x,y,z
-y,x,z
-x,-y,z
y,-x,z
-x,y,z
x,-y,z
-y,-x,z
y,x,z
1/2+x,1/2+y,1/2+z
1/2-y,1/2+x,1/2+z
1/2-x,1/2-y,1/2+z
1/2+y,1/2-x,1/2+z
1/2-x,1/2+y,1/2+z
1/2+x,1/2-y,1/2+z
1/2-y,1/2-x,1/2+z
1/2+y,1/2+x,1/2+z
loop_
_atom_site_type_symbol
_atom_site_label
_atom_site_fract_x
_atom_site_fract_y
_atom_site_fract_z
Si Si1 0.148133 0.743684 0.318070
Si Si2 0.580100 0.691669 0.086326
Si Si3 0.741015 0.852194 0.468246
Si Si4 0.314039 0.919262 0.192236
Si Si5 0.764310 0.346784 0.557794
Si Si6 0.806361 0.576204 0.188359
Si Si7 0.421288 0.312357 0.444092
Si Si8 0.237830 0.869015 0.810000
O O1 0.178677 0.821324 0.314959
O O2 0.117004 0.726010 0.393162
O O3 0.091243 0.733574 0.259153
O O4 0.208619 0.691713 0.303075
O O5 0.500000 0.675787 0.099157
O O6 0.624376 0.624376 0.105340
O O7 0.607268 0.756953 0.129827
O O8 0.592746 0.712397 0.008067
O O9 0.780908 0.780908 0.455272
O O10 0.674109 0.831831 0.513284
O O11 0.279252 0.887918 0.125916
O O12 0.384669 0.877576 0.200057
O O13 0.328771 0.000000 0.183200
O O14 0.721682 0.278319 0.576592
O O15 0.719707 0.399462 0.514883
O O16 0.827777 0.500000 0.167952
O O17 0.758889 0.574075 0.255414
O O18 0.500000 0.329841 0.444833
O O19 0.383792 0.383792 0.431239
O O20 0.402465 0.259187 0.384274
O O21 0.162339 0.837661 0.794690
#
# Coordination Sequence:
#
# PCOD8307517 Si02
#       8
#    16  16  16  16  16  16  16  16
#     4   9  17  31  51  75 100 127 162 209 259 301
#     4  10  20  33  52  77 103 134 168 206 256 312
#     4   9  16  30  52  76 100 126 164 213 259 304
#     4  11  22  33  49  75 104 135 169 212 264 305
#     4  10  18  32  52  74  99 126 164 217 264 307
#     4  10  20  33  49  69  95 133 174 207 248 304
#     4  10  19  30  46  69  98 132 166 205 254 307
#     4   9  16  28  48  73  96 120 159 210 254 293
#
# _framework density 17.045535999999998
#
# number of rings (size 3 to 8) (size 9 to 14) (size 15 to 20)
#    0.000    2.250    2.500    1.500    0.000    2.000 
#    0.000    0.000    0.000    0.000    0.000    1.750 
#    0.000    2.250    0.000    0.500    0.000    0.000 
#
# Total GULP energy -793172.063490 kJ/mol
# GULP energy per Si atom -12393.313492 kJ/mol
# Density = 1.700674 g / cm^3
# Si number density = 17.045536 Si / 1000 Ang^3
#
#
#
# Elastic Constant Matrix: (Units=GPa)
#
#
# Indices 1 2 3 4 5 6 
#
# 1 68.3680 36.4144 34.0699 0.0000 0.0000 0.0002
# 2 36.4144 68.3680 34.0699 0.0000 0.0000 -0.0002
# 3 34.0699 34.0699 123.9471 0.0000 0.0000 0.0000
# 4 0.0000 0.0000 0.0000 18.7363 0.0000 0.0000
# 5 0.0000 0.0000 0.0000 0.0000 18.7363 0.0000
# 6 0.0002 -0.0002 0.0000 0.0000 0.0000 14.5204
#
#
#
# Elastic Compliance Matrix: (Units=1/GPa)
#
#
# Indices 1 2 3 4 5 6 
#
# 1 0.021458 -0.009837 -0.003194 0.000000 0.000000 0.000000
# 2 -0.009837 0.021458 -0.003194 0.000000 0.000000 0.000000
# 3 -0.003194 -0.003194 0.009824 0.000000 0.000000 0.000000
# 4 0.000000 0.000000 0.000000 0.053372 0.000000 0.000000
# 5 0.000000 0.000000 0.000000 0.000000 0.053372 0.000000
# 6 0.000000 0.000000 0.000000 0.000000 0.000000 0.068869
#
#
# Mechanical properties :
#
#
# Convention : Reuss Voigt Hill
#
# Bulk Modulus (GPa) = 49.28882 52.19903 50.74392
# Shear Modulus (GPa) = 18.68684 20.80719 19.74702
#
# Velocity S-wave (km/s) = 3.31462 3.49762 3.40735
# Velocity P-wave (km/s) = 6.60512 6.85572 6.73159
#
# Compressibility (1/GPa) = 0.02028858
#
# Stress axis : x y z
#
# Youngs Moduli (GPa) = 46.60246 46.60246 101.79151
#
# Poissons Ratio (x) = 0.45844 0.32515
# Poissons Ratio (y) = 0.45844 0.32515
# Poissons Ratio (z) = 0.14886 0.14886
#
# Static dielectric constant tensor:
#      x y z
#    x 2.978670 0.000000 0.000000 
#    y 0.000000 2.978670 0.000000 
#    z 0.000000 0.000000 3.446780 
# 
# 
# High freq. dielectric constant tensor:
#      x y z
#    x 1.631600 0.000000 0.000000 
#    y 0.000000 1.631600 0.000000 
#    z 0.000000 0.000000 1.675750 
# 
# From -- ./inp_files/4378.got.cif
#   From: 2010.03.12/outbox.cif.g09.slc.cpg/sg107_3_cif.got.tgz:4378.got - 2010.04.14 01:49:11.
