data_PCOD8307433
_publ_section_title
;
Structure prediction by ZEFSAII (Michael W. Deem and Ramdas Pophale) SiO2 
 PCOD8307433
Probable space group: P 42 B C
;
_chemical_formula_sum "Si O2"
_cell_formula_units_Z 56
_cell_length_a 13.939410
_cell_length_b 13.939410
_cell_length_c 13.291595
_cell_angle_alpha 90.000000
_cell_angle_beta 90.000000
_cell_angle_gamma 90.000000
_cell_volume 2582.651959
_symmetry_space_group_name_H-M "P 42 B C"
_symmetry_group_IT_number 106
_symmetry_cell_setting 'tetragonal'
loop_
_space_group_symop_operation_xyz
x,y,z
-y,x,1/2+z
-x,-y,z
y,-x,1/2+z
1/2-x,1/2+y,z
1/2+x,1/2-y,z
1/2-y,1/2-x,1/2+z
1/2+y,1/2+x,1/2+z
loop_
_atom_site_type_symbol
_atom_site_label
_atom_site_fract_x
_atom_site_fract_y
_atom_site_fract_z
Si Si1 0.274311 0.049838 0.955810
Si Si2 0.519725 0.219736 0.241243
Si Si3 0.591584 0.936588 0.138651
Si Si4 0.374046 0.698992 0.562383
Si Si5 0.655962 0.274464 0.960594
Si Si6 0.116785 0.993542 0.601187
Si Si7 0.197597 0.406855 0.253157
O O1 0.308046 0.995149 0.856878
O O2 0.227242 0.147320 0.914461
O O3 0.359526 0.076943 0.030912
O O4 0.202659 0.979660 0.014197
O O5 0.436930 0.168591 0.175919
O O6 0.518076 0.333275 0.212150
O O7 0.623350 0.175305 0.219022
O O8 0.500000 0.000000 0.116320
O O9 0.656431 0.987969 0.224413
O O10 0.306323 0.780967 0.515962
O O11 0.341978 0.589425 0.547124
O O12 0.385399 0.711162 0.682854
O O13 0.595050 0.226380 0.870628
O O14 0.591457 0.336900 0.036316
O O15 0.000000 0.000000 0.610851
#
# Coordination Sequence:
#
# PCOD8307433 Si02
#       7
#     8   8   8   8   8   8   8
#     4  11  23  42  66 100 140 182 238 291 345 432
#     4  11  22  44  69 103 139 184 239 289 361 424
#     4   9  22  40  69 104 143 182 233 301 360 412
#     4  11  23  46  67  97 146 182 235 294 350 422
#     4  12  24  44  72 101 138 188 240 291 360 424
#     4  12  26  47  71 101 144 193 237 301 360 427
#     4  10  22  42  69 104 138 181 233 296 356 428
#
# _framework density 21.683139000000001
#
# number of rings (size 3 to 8) (size 9 to 14) (size 15 to 20)
#    0.000    1.143    4.286    1.714    0.000    4.000 
#    5.143    1.429    0.000    0.000    0.000    0.000 
#    0.000    0.000    0.000    0.000    0.000    0.000 
#
# Total GULP energy -693894.304321 kJ/mol
# GULP energy per Si atom -12390.969720 kJ/mol
# Density = 2.163379 g / cm^3
# Si number density = 21.683139 Si / 1000 Ang^3
#
#
#
# Elastic Constant Matrix: (Units=GPa)
#
#
# Indices 1 2 3 4 5 6 
#
# 1 97.3926 30.6180 34.2926 0.0000 0.0000 0.0000
# 2 30.6180 97.3926 34.2926 0.0000 0.0000 0.0000
# 3 34.2926 34.2926 120.4819 0.0000 0.0000 0.0000
# 4 0.0000 0.0000 0.0000 20.5400 0.0000 0.0000
# 5 0.0000 0.0000 0.0000 0.0000 20.5400 0.0000
# 6 0.0000 0.0000 0.0000 0.0000 0.0000 24.5577
#
#
#
# Elastic Compliance Matrix: (Units=1/GPa)
#
#
# Indices 1 2 3 4 5 6 
#
# 1 0.012097 -0.002879 -0.002624 0.000000 0.000000 0.000000
# 2 -0.002879 0.012097 -0.002624 0.000000 0.000000 0.000000
# 3 -0.002624 -0.002624 0.009793 0.000000 0.000000 0.000000
# 4 0.000000 0.000000 0.000000 0.048686 0.000000 0.000000
# 5 0.000000 0.000000 0.000000 0.000000 0.048686 0.000000
# 6 0.000000 0.000000 0.000000 0.000000 0.000000 0.040720
#
#
# Mechanical properties :
#
#
# Convention : Reuss Voigt Hill
#
# Bulk Modulus (GPa) = 56.38815 57.07485 56.73150
# Shear Modulus (GPa) = 25.74105 27.53178 26.63641
#
# Velocity S-wave (km/s) = 3.44924 3.56720 3.50871
# Velocity P-wave (km/s) = 6.47495 6.58376 6.52958
#
# Compressibility (1/GPa) = 0.01773422
#
# Stress axis : x y z
#
# Youngs Moduli (GPa) = 82.66764 82.66764 102.10871
#
# Poissons Ratio (x) = 0.23801 0.26789
# Poissons Ratio (y) = 0.23801 0.26789
# Poissons Ratio (z) = 0.21688 0.21688
#
# Static dielectric constant tensor:
#      x y z
#    x 3.994700 0.000000 0.000000 
#    y 0.000000 3.994700 0.000000 
#    z 0.000000 0.000000 3.738750 
# 
# 
# High freq. dielectric constant tensor:
#      x y z
#    x 1.857050 0.000000 0.000000 
#    y 0.000000 1.857050 0.000000 
#    z 0.000000 0.000000 1.846130 
# 
# From -- ./inp_files/999.got.cif
#   From: 2010.03.12/outbox.cif.g09.slc.cpg/sg106_cif.got.tgz:999.got - 2010.04.14 01:48:02.
