data_PCOD8307781
_publ_section_title
;
Structure prediction by ZEFSAII (Michael W. Deem and Ramdas Pophale) SiO2 
 PCOD8307781
Probable space group: I 4 C M
;
_chemical_formula_sum "Si O2"
_cell_formula_units_Z 64
_cell_length_a 15.142708
_cell_length_b 15.142708
_cell_length_c 14.045437
_cell_angle_alpha 90.000000
_cell_angle_beta 90.000000
_cell_angle_gamma 90.000000
_cell_volume 3220.641255
_symmetry_space_group_name_H-M "I 4 C M"
_symmetry_group_IT_number 108
_symmetry_cell_setting 'tetragonal'
loop_
_space_group_symop_operation_xyz
x,y,z
-y,x,z
-x,-y,z
y,-x,z
-x,y,1/2+z
x,-y,1/2+z
-y,-x,1/2+z
y,x,1/2+z
1/2+x,1/2+y,1/2+z
1/2-y,1/2+x,1/2+z
1/2-x,1/2-y,1/2+z
1/2+y,1/2-x,1/2+z
1/2-x,1/2+y,z
1/2+x,1/2-y,z
1/2-y,1/2-x,z
1/2+y,1/2+x,z
loop_
_atom_site_type_symbol
_atom_site_label
_atom_site_fract_x
_atom_site_fract_y
_atom_site_fract_z
Si Si1 0.108397 0.246110 0.525920
Si Si2 0.397275 0.602725 0.382733
Si Si3 0.500001 0.857507 0.882732
Si Si4 0.608396 0.746110 0.239546
O O1 0.195287 0.304714 0.527875
O O2 0.137525 0.154037 0.476066
O O3 0.074778 0.226400 0.632733
O O4 0.029593 0.295831 0.470160
O O5 0.376469 0.500000 0.382732
O O6 0.345962 0.637526 0.289400
O O7 0.418682 0.918682 0.917862
O O8 0.470410 0.795829 0.795306
O O9 0.581319 0.918682 0.847600
O O10 0.695283 0.804718 0.237592
#
# Coordination Sequence:
#
# PCOD8307781 Si02
#       4
#    16  16  16  16
#     4  10  21  39  63  89 118 152 193 243 297 349
#     4  11  23  40  60  82 115 157 200 242 284 341
#     4   9  18  36  63  92 122 152 187 240 300 353
#     4  10  21  39  63  89 118 152 193 243 297 349
#
# _framework density 19.871818999999999
#
# number of rings (size 3 to 8) (size 9 to 14) (size 15 to 20)
#    0.000    2.000    2.500    0.750    0.000    3.000 
#    0.000    7.500    0.000    0.000    0.000    0.000 
#    0.000    0.000    0.000    0.000    0.000    0.000 
#
# Total GULP energy -396637.353534 kJ/mol
# GULP energy per Si atom -12394.917298 kJ/mol
# Density = 1.982659 g / cm^3
# Si number density = 19.871819 Si / 1000 Ang^3
#
#
#
# Elastic Constant Matrix: (Units=GPa)
#
#
# Indices 1 2 3 4 5 6 
#
# 1 115.4284 28.0284 75.9723 0.0000 0.0000 0.0007
# 2 28.0284 115.4284 75.9723 0.0000 0.0000 -0.0007
# 3 75.9723 75.9723 202.8762 0.0000 0.0000 0.0000
# 4 0.0000 0.0000 0.0000 32.7784 0.0000 0.0000
# 5 0.0000 0.0000 0.0000 0.0000 32.7784 0.0000
# 6 0.0007 -0.0007 0.0000 0.0000 0.0000 4.4351
#
#
#
# Elastic Compliance Matrix: (Units=1/GPa)
#
#
# Indices 1 2 3 4 5 6 
#
# 1 0.011497 0.000056 -0.004326 0.000000 0.000000 -0.000002
# 2 0.000056 0.011497 -0.004326 0.000000 0.000000 0.000002
# 3 -0.004326 -0.004326 0.008169 0.000000 0.000000 0.000000
# 4 0.000000 0.000000 0.000000 0.030508 0.000000 0.000000
# 5 0.000000 0.000000 0.000000 0.000000 0.030508 0.000000
# 6 -0.000002 0.000002 0.000000 0.000000 0.000000 0.225473
#
#
# Mechanical properties :
#
#
# Convention : Reuss Voigt Hill
#
# Bulk Modulus (GPa) = 71.58157 88.18655 79.88406
# Shear Modulus (GPa) = 14.72739 30.91571 22.82155
#
# Velocity S-wave (km/s) = 2.72530 3.94859 3.39254
# Velocity P-wave (km/s) = 6.78254 8.07852 7.45873
#
# Compressibility (1/GPa) = 0.01397008
#
# Stress axis : x y z
#
# Youngs Moduli (GPa) = 86.97652 86.97652 122.40896
#
# Poissons Ratio (x) = -0.00484 0.52958
# Poissons Ratio (y) = -0.00484 0.52958
# Poissons Ratio (z) = 0.37629 0.37629
#
# Static dielectric constant tensor:
#      x y z
#    x 3.696320 0.000000 0.000000 
#    y 0.000000 3.696320 0.000000 
#    z 0.000000 0.000000 3.826180 
# 
# 
# High freq. dielectric constant tensor:
#      x y z
#    x 1.781240 0.000000 0.000000 
#    y 0.000000 1.781240 0.000000 
#    z 0.000000 0.000000 1.762170 
# 
# From -- ./inp_files/1245.got.cif
#   From: 2010.03.12/outbox.cif.g09.slc.cpg/sg108_1_cif.got.tgz:1245.got - 2010.04.14 01:53:11.
