data_PCOD8307228
_publ_section_title
;
Structure prediction by ZEFSAII (Michael W. Deem and Ramdas Pophale) SiO2 
 PCOD8307228
Probable space group: P 42 M C
;
_chemical_formula_sum "Si O2"
_cell_formula_units_Z 40
_cell_length_a 9.174405
_cell_length_b 9.174405
_cell_length_c 25.669534
_cell_angle_alpha 90.000000
_cell_angle_beta 90.000000
_cell_angle_gamma 90.000000
_cell_volume 2160.597158
_symmetry_space_group_name_H-M "P 42 M C"
_symmetry_group_IT_number 105
_symmetry_cell_setting 'tetragonal'
loop_
_space_group_symop_operation_xyz
x,y,z
-y,x,1/2+z
-x,-y,z
y,-x,1/2+z
-x,y,z
x,-y,z
-y,-x,1/2+z
y,x,1/2+z
loop_
_atom_site_type_symbol
_atom_site_label
_atom_site_fract_x
_atom_site_fract_y
_atom_site_fract_z
Si Si1 0.838633 0.172856 0.635300
Si Si2 0.331378 0.669497 0.340537
Si Si3 0.164942 0.827542 0.251048
Si Si4 0.173164 0.334456 0.036263
Si Si5 0.829683 0.330549 0.444561
O O1 0.783996 0.218468 0.692864
O O2 0.726838 0.230376 0.591696
O O3 0.000000 0.237981 0.624095
O O4 0.849259 0.000000 0.633663
O O5 0.500000 0.705637 0.349798
O O6 0.304145 0.500000 0.330287
O O7 0.275882 0.755047 0.290584
O O8 0.243830 0.722861 0.391152
O O9 0.000000 0.771165 0.261150
O O10 0.170456 0.000000 0.257774
O O11 0.228233 0.500000 0.030734
O O12 0.000000 0.324876 0.032635
O O13 0.238996 0.236757 0.991167
O O14 0.797024 0.500000 0.454556
O O15 0.000000 0.297293 0.440714
#
# Coordination Sequence:
#
# PCOD8307228 Si02
#       5
#     8   8   8   8   8
#     4   8  15  30  51  74 102 135 170 209 251 296
#     4  10  21  36  53  74 102 135 170 210 257 307
#     4   9  18  33  54  79 104 132 169 211 254 301
#     4  10  20  33  52  80 109 136 169 210 257 306
#     4  10  21  37  56  76  99 133 176 216 257 307
#
# _framework density 18.513401000000002
#
# number of rings (size 3 to 8) (size 9 to 14) (size 15 to 20)
#    0.000    2.600    0.000    3.000    0.000    5.600 
#    0.000    3.000    0.000    1.200    0.000    0.000 
#    0.000    0.000    0.000    0.000    0.000    0.000 
#
# Total GULP energy -496004.739177 kJ/mol
# GULP energy per Si atom -12400.118479 kJ/mol
# Density = 1.847126 g / cm^3
# Si number density = 18.513401 Si / 1000 Ang^3
#
#
#
# Elastic Constant Matrix: (Units=GPa)
#
#
# Indices 1 2 3 4 5 6 
#
# 1 69.4050 33.3386 57.8619 0.0000 0.0000 0.0000
# 2 33.3386 69.4050 57.8619 0.0000 0.0000 0.0000
# 3 57.8619 57.8619 159.3426 0.0000 0.0000 0.0000
# 4 0.0000 0.0000 0.0000 -41.3005 0.0000 0.0000
# 5 0.0000 0.0000 0.0000 0.0000 -41.3005 0.0000
# 6 0.0000 0.0000 0.0000 0.0000 0.0000 27.0210
#
#
#
# Elastic Compliance Matrix: (Units=1/GPa)
#
#
# Indices 1 2 3 4 5 6 
#
# 1 0.022098 -0.005629 -0.005980 0.000000 0.000000 0.000000
# 2 -0.005629 0.022098 -0.005980 0.000000 0.000000 0.000000
# 3 -0.005980 -0.005980 0.010619 0.000000 0.000000 0.000000
# 4 0.000000 0.000000 0.000000 -0.024213 0.000000 0.000000
# 5 0.000000 0.000000 0.000000 0.000000 -0.024213 0.000000
# 6 0.000000 0.000000 0.000000 0.000000 0.000000 0.037008
#
#
# Mechanical properties :
#
#
# Convention : Reuss Voigt Hill
#
# Bulk Modulus (GPa) = 50.92837 66.25307 58.59072
# Shear Modulus (GPa) = 58.73977 -1.17665 28.78156
#
# Velocity S-wave (km/s) = 5.63889 -0.79809 3.94716
# Velocity P-wave (km/s) = 8.36450 5.91735 7.24499
#
# Compressibility (1/GPa) = 0.01963542
#
# Stress axis : x y z
#
# Youngs Moduli (GPa) = 45.25360 45.25360 94.17058
#
# Poissons Ratio (x) = 0.25473 0.56317
# Poissons Ratio (y) = 0.25473 0.56317
# Poissons Ratio (z) = 0.27063 0.27063
#
# Static dielectric constant tensor:
#      x y z
#    x 3.572980 0.000000 0.000000 
#    y 0.000000 3.572980 0.000000 
#    z 0.000000 0.000000 3.666100 
# 
# 
# High freq. dielectric constant tensor:
#      x y z
#    x 1.705530 0.000000 0.000000 
#    y 0.000000 1.705530 0.000000 
#    z 0.000000 0.000000 1.733490 
# 
# From -- ./inp_files/3909.got.cif
#   From: 2010.03.12/outbox.cif.g09.slc.cpg/sg105_2_cif.got.tgz:3909.got - 2010.04.14 01:45:32.
