data_PCOD8307561
_publ_section_title
;
Structure prediction by ZEFSAII (Michael W. Deem and Ramdas Pophale) SiO2 
 PCOD8307561
Probable space group: I 4 M M
;
_chemical_formula_sum "Si O2"
_cell_formula_units_Z 68
_cell_length_a 12.427568
_cell_length_b 12.427568
_cell_length_c 27.503214
_cell_angle_alpha 90.000000
_cell_angle_beta 90.000000
_cell_angle_gamma 90.000000
_cell_volume 4247.718660
_symmetry_space_group_name_H-M "I 4 M M"
_symmetry_group_IT_number 107
_symmetry_cell_setting 'tetragonal'
loop_
_space_group_symop_operation_xyz
x,y,z
-y,x,z
-x,-y,z
y,-x,z
-x,y,z
x,-y,z
-y,-x,z
y,x,z
1/2+x,1/2+y,1/2+z
1/2-y,1/2+x,1/2+z
1/2-x,1/2-y,1/2+z
1/2+y,1/2-x,1/2+z
1/2-x,1/2+y,1/2+z
1/2+x,1/2-y,1/2+z
1/2-y,1/2-x,1/2+z
1/2+y,1/2+x,1/2+z
loop_
_atom_site_type_symbol
_atom_site_label
_atom_site_fract_x
_atom_site_fract_y
_atom_site_fract_z
Si Si1 0.201523 0.623470 0.274710
Si Si2 0.876532 0.298480 0.977617
Si Si3 0.000000 0.619269 0.219213
Si Si4 0.880731 0.500000 0.033115
Si Si5 0.299629 0.874024 0.376165
Si Si6 0.500000 0.000000 0.126164
O O1 0.228425 0.500000 0.261766
O O2 0.309603 0.690398 0.265921
O O3 0.160730 0.631168 0.329771
O O4 0.109282 0.674081 0.238984
O O5 0.809599 0.190402 0.986400
O O6 0.868848 0.339283 0.922557
O O7 0.000000 0.271574 0.990565
O O8 0.825919 0.390718 0.013345
O O9 0.000000 0.607152 0.160222
O O10 0.000000 0.500000 0.243670
O O11 0.892848 0.500000 0.092106
O O12 0.000000 0.500000 0.008659
O O13 0.183878 0.816123 0.376172
O O14 0.276928 0.000000 0.376161
#
# Coordination Sequence:
#
# PCOD8307561 Si02
#       6
#    16  16   8   8  16   4
#     4  10  19  31  49  74 101 132 163 200 243 293
#     4  10  19  31  49  74 101 132 163 200 243 293
#     4   8  16  31  52  69  95 121 166 206 244 288
#     4   8  16  31  52  69  95 121 166 206 244 288
#     4  10  19  30  48  74 102 133 168 203 244 290
#     4   8  16  32  56  74  92 120 168 232 244 282
#
# _framework density 16.008592
#
# number of rings (size 3 to 8) (size 9 to 14) (size 15 to 20)
#    0.706    1.882    2.353    0.706    0.000    1.647 
#    0.000    1.176    0.000    4.941    0.000    0.000 
#    0.000    0.000    0.000    0.000    0.000    0.000 
#
# Total GULP energy -421338.338944 kJ/mol
# GULP energy per Si atom -12392.304087 kJ/mol
# Density = 1.597216 g / cm^3
# Si number density = 16.008592 Si / 1000 Ang^3
#
#
#
# Elastic Constant Matrix: (Units=GPa)
#
#
# Indices 1 2 3 4 5 6 
#
# 1 92.1486 47.3375 28.0956 0.0000 0.0000 -0.0011
# 2 47.3375 92.1486 28.0956 0.0000 0.0000 0.0011
# 3 28.0956 28.0956 108.2680 0.0000 0.0000 0.0000
# 4 0.0000 0.0000 0.0000 6.0315 0.0000 0.0000
# 5 0.0000 0.0000 0.0000 0.0000 6.0315 0.0000
# 6 -0.0011 0.0011 0.0000 0.0000 0.0000 9.1461
#
#
#
# Elastic Compliance Matrix: (Units=1/GPa)
#
#
# Indices 1 2 3 4 5 6 
#
# 1 0.015161 -0.007155 -0.002078 0.000000 0.000000 0.000003
# 2 -0.007155 0.015161 -0.002078 0.000000 0.000000 -0.000003
# 3 -0.002078 -0.002078 0.010315 0.000000 0.000000 0.000000
# 4 0.000000 0.000000 0.000000 0.165796 0.000000 0.000000
# 5 0.000000 0.000000 0.000000 0.000000 0.165796 0.000000
# 6 0.000003 -0.000003 0.000000 0.000000 0.000000 0.109337
#
#
# Mechanical properties :
#
#
# Convention : Reuss Voigt Hill
#
# Bulk Modulus (GPa) = 55.50474 55.51363 55.50919
# Shear Modulus (GPa) = 9.80025 16.84425 13.32225
#
# Velocity S-wave (km/s) = 2.47693 3.24728 2.88791
# Velocity P-wave (km/s) = 6.55189 6.98659 6.77273
#
# Compressibility (1/GPa) = 0.01801648
#
# Stress axis : x y z
#
# Youngs Moduli (GPa) = 65.95867 65.95867 96.94985
#
# Poissons Ratio (x) = 0.47193 0.20142
# Poissons Ratio (y) = 0.47193 0.20142
# Poissons Ratio (z) = 0.13704 0.13704
#
# Static dielectric constant tensor:
#      x y z
#    x 2.891460 0.000000 0.000000 
#    y 0.000000 2.891460 0.000000 
#    z 0.000000 0.000000 2.939330 
# 
# 
# High freq. dielectric constant tensor:
#      x y z
#    x 1.599940 0.000000 0.000000 
#    y 0.000000 1.599940 0.000000 
#    z 0.000000 0.000000 1.606130 
# 
# From -- ./inp_files/5962.got.cif
#   From: 2010.03.12/outbox.cif.g09.slc.cpg/sg107_3_cif.got.tgz:5962.got - 2010.04.14 01:49:11.
