data_PCOD8307483
_publ_section_title
;
Structure prediction by ZEFSAII (Michael W. Deem and Ramdas Pophale) SiO2 
 PCOD8307483
Probable space group: I 4 M M
;
_chemical_formula_sum "Si O2"
_cell_formula_units_Z 80
_cell_length_a 30.221339
_cell_length_b 30.221339
_cell_length_c 5.084786
_cell_angle_alpha 90.000000
_cell_angle_beta 90.000000
_cell_angle_gamma 90.000000
_cell_volume 4644.084195
_symmetry_space_group_name_H-M "I 4 M M"
_symmetry_group_IT_number 107
_symmetry_cell_setting 'tetragonal'
loop_
_space_group_symop_operation_xyz
x,y,z
-y,x,z
-x,-y,z
y,-x,z
-x,y,z
x,-y,z
-y,-x,z
y,x,z
1/2+x,1/2+y,1/2+z
1/2-y,1/2+x,1/2+z
1/2-x,1/2-y,1/2+z
1/2+y,1/2-x,1/2+z
1/2-x,1/2+y,1/2+z
1/2+x,1/2-y,1/2+z
1/2-y,1/2-x,1/2+z
1/2+y,1/2+x,1/2+z
loop_
_atom_site_type_symbol
_atom_site_label
_atom_site_fract_x
_atom_site_fract_y
_atom_site_fract_z
Si Si1 0.552185 0.246612 0.078520
Si Si2 0.449227 0.380228 0.576858
Si Si3 0.551215 0.191281 0.590233
Si Si4 0.948040 0.407313 0.141816
Si Si5 0.090113 0.160503 0.575464
O O1 0.500000 0.261211 0.067468
O O2 0.560208 0.210920 0.304748
O O3 0.585233 0.287546 0.134871
O O4 0.569940 0.224405 0.811142
O O5 0.500000 0.383588 0.644039
O O6 0.428622 0.428622 0.620444
O O7 0.441663 0.364589 0.279580
O O8 0.426752 0.346068 0.778593
O O9 0.500000 0.186334 0.655883
O O10 0.571708 0.142228 0.607118
O O11 0.939223 0.423425 0.437266
O O12 0.000000 0.409101 0.083401
O O13 0.140314 0.140314 0.604746
#
# Coordination Sequence:
#
# PCOD8307483 Si02
#       5
#    16  16  16  16  16
#     4  10  17  29  49  68  92 124 158 196 247 302
#     4  10  19  30  42  58  83 116 155 195 236 285
#     4   9  19  32  48  72  96 124 162 203 238 271
#     4  11  22  36  53  75 108 142 172 203 228 258
#     4  10  20  31  45  67  93 118 150 197 249 303
#
# _framework density 17.226215
#
# number of rings (size 3 to 8) (size 9 to 14) (size 15 to 20)
#    0.000    2.000    0.000    4.800    0.000    6.200 
#    0.000    0.000    0.000    3.600    0.000    0.000 
#    0.000   16.000    0.000    0.000    0.000    0.000 
#
# Total GULP energy -495922.807604 kJ/mol
# GULP energy per Si atom -12398.070190 kJ/mol
# Density = 1.718701 g / cm^3
# Si number density = 17.226215 Si / 1000 Ang^3
#
#
#
# Elastic Constant Matrix: (Units=GPa)
#
#
# Indices 1 2 3 4 5 6 
#
# 1 75.7121 29.0736 8.2964 0.0000 0.0000 0.0000
# 2 29.0736 75.7121 8.2964 0.0000 0.0000 0.0000
# 3 8.2964 8.2964 71.3185 0.0000 0.0000 0.0000
# 4 0.0000 0.0000 0.0000 22.4643 0.0000 0.0000
# 5 0.0000 0.0000 0.0000 0.0000 22.4643 0.0000
# 6 0.0000 0.0000 0.0000 0.0000 0.0000 12.7808
#
#
#
# Elastic Compliance Matrix: (Units=1/GPa)
#
#
# Indices 1 2 3 4 5 6 
#
# 1 0.015582 -0.005860 -0.001131 0.000000 0.000000 0.000000
# 2 -0.005860 0.015582 -0.001131 0.000000 0.000000 0.000000
# 3 -0.001131 -0.001131 0.014285 0.000000 0.000000 0.000000
# 4 0.000000 0.000000 0.000000 0.044515 0.000000 0.000000
# 5 0.000000 0.000000 0.000000 0.000000 0.044515 0.000000
# 6 0.000000 0.000000 0.000000 0.000000 0.000000 0.078242
#
#
# Mechanical properties :
#
#
# Convention : Reuss Voigt Hill
#
# Bulk Modulus (GPa) = 34.24008 34.89726 34.56867
# Shear Modulus (GPa) = 20.94687 23.34698 22.14692
#
# Velocity S-wave (km/s) = 3.49088 3.68546 3.58949
# Velocity P-wave (km/s) = 6.01400 6.19777 6.10658
#
# Compressibility (1/GPa) = 0.02920554
#
# Stress axis : x y z
#
# Youngs Moduli (GPa) = 64.17681 64.17681 70.00473
#
# Poissons Ratio (x) = 0.37605 0.07918
# Poissons Ratio (y) = 0.37605 0.07918
# Poissons Ratio (z) = 0.07258 0.07258
#
# Static dielectric constant tensor:
#      x y z
#    x 3.094460 0.000000 0.000000 
#    y 0.000000 3.094460 0.000000 
#    z 0.000000 0.000000 3.347200 
# 
# 
# High freq. dielectric constant tensor:
#      x y z
#    x 1.638380 0.000000 0.000000 
#    y 0.000000 1.638380 0.000000 
#    z 0.000000 0.000000 1.689330 
# 
# From -- ./inp_files/444.got.cif
#   From: 2010.03.12/outbox.cif.g09.slc.cpg/sg107_1_cif.got.tgz:444.got - 2010.04.14 01:49:11.
