data_PCOD8307712
_publ_section_title
;
Structure prediction by ZEFSAII (Michael W. Deem and Ramdas Pophale) SiO2 
 PCOD8307712
Probable space group: I 4 C M
;
_chemical_formula_sum "Si O2"
_cell_formula_units_Z 128
_cell_length_a 20.115799
_cell_length_b 20.115799
_cell_length_c 16.383390
_cell_angle_alpha 90.000000
_cell_angle_beta 90.000000
_cell_angle_gamma 90.000000
_cell_volume 6629.462899
_symmetry_space_group_name_H-M "I 4 C M"
_symmetry_group_IT_number 108
_symmetry_cell_setting 'tetragonal'
loop_
_space_group_symop_operation_xyz
x,y,z
-y,x,z
-x,-y,z
y,-x,z
-x,y,1/2+z
x,-y,1/2+z
-y,-x,1/2+z
y,x,1/2+z
1/2+x,1/2+y,1/2+z
1/2-y,1/2+x,1/2+z
1/2-x,1/2-y,1/2+z
1/2+y,1/2-x,1/2+z
1/2-x,1/2+y,z
1/2+x,1/2-y,z
1/2-y,1/2-x,z
1/2+y,1/2+x,z
loop_
_atom_site_type_symbol
_atom_site_label
_atom_site_fract_x
_atom_site_fract_y
_atom_site_fract_z
Si Si1 0.674678 0.283275 0.436730
Si Si2 0.641583 0.247432 0.667923
Si Si3 0.896361 0.778604 0.840994
Si Si4 0.402725 0.536187 0.589918
Si Si5 0.310626 0.919958 0.509743
Si Si6 0.181918 0.423347 0.986635
Si Si7 0.971722 0.099912 0.396612
Si Si8 0.633276 0.296175 0.085416
O O1 0.737348 0.237348 0.462869
O O2 0.688584 0.322145 0.352308
O O3 0.608871 0.236533 0.436216
O O4 0.667463 0.343020 0.501977
O O5 0.682560 0.182560 0.690275
O O6 0.595943 0.261072 0.746236
O O7 0.593214 0.231646 0.591981
O O8 0.694924 0.306438 0.649074
O O9 0.905144 0.715271 0.900098
O O10 0.955593 0.828782 0.860253
O O11 0.415300 0.461806 0.622691
O O12 0.399871 0.529531 0.493389
O O13 0.334191 0.568336 0.620916
O O14 0.381003 0.881003 0.511039
O O15 0.324071 0.997520 0.497540
O O16 0.108076 0.391925 0.987261
O O17 0.221604 0.389418 0.062673
O O18 0.045240 0.081153 0.364955
#
# Coordination Sequence:
#
# PCOD8307712 Si02
#       8
#    16  16  16  16  16  16  16  16
#     4   9  17  31  52  77 102 135 179 223 269 325
#     4  10  21  38  55  80 115 148 183 231 296 348
#     4  11  20  33  60  84 115 146 188 234 290 337
#     4   9  17  28  47  76 107 143 184 218 253 315
#     4   9  21  39  60  82 113 153 192 233 285 355
#     4  11  22  36  59  87 111 142 197 252 286 334
#     4   9  18  31  47  75 113 149 184 220 261 324
#     4  10  18  30  54  74 107 137 180 226 275 325
#
# _framework density 19.307749000000001
#
# number of rings (size 3 to 8) (size 9 to 14) (size 15 to 20)
#    0.000    2.250    2.500    4.500    5.250    0.250 
#    2.250    0.000    0.000    2.250    0.000    1.750 
#    0.000    0.000    0.000    0.000    0.000    0.000 
#
# Total GULP energy -793009.750608 kJ/mol
# GULP energy per Si atom -12390.777353 kJ/mol
# Density = 1.926380 g / cm^3
# Si number density = 19.307749 Si / 1000 Ang^3
#
#
#
# Elastic Constant Matrix: (Units=GPa)
#
#
# Indices 1 2 3 4 5 6 
#
# 1 97.2516 31.5687 19.3830 0.0000 0.0000 0.0002
# 2 31.5687 97.2516 19.3830 0.0000 0.0000 -0.0002
# 3 19.3830 19.3830 53.8143 0.0000 0.0000 0.0000
# 4 0.0000 0.0000 0.0000 12.3190 0.0000 0.0000
# 5 0.0000 0.0000 0.0000 0.0000 12.3190 0.0000
# 6 0.0002 -0.0002 0.0000 0.0000 0.0000 27.9249
#
#
#
# Elastic Compliance Matrix: (Units=1/GPa)
#
#
# Indices 1 2 3 4 5 6 
#
# 1 0.011966 -0.003259 -0.003136 0.000000 0.000000 0.000000
# 2 -0.003259 0.011966 -0.003136 0.000000 0.000000 0.000000
# 3 -0.003136 -0.003136 0.020841 0.000000 0.000000 0.000000
# 4 0.000000 0.000000 0.000000 0.081175 0.000000 0.000000
# 5 0.000000 0.000000 0.000000 0.000000 0.081175 0.000000
# 6 0.000000 0.000000 0.000000 0.000000 0.000000 0.035810
#
#
# Mechanical properties :
#
#
# Convention : Reuss Voigt Hill
#
# Bulk Modulus (GPa) = 38.89435 43.22075 41.05755
# Shear Modulus (GPa) = 18.47981 22.37811 20.42896
#
# Velocity S-wave (km/s) = 3.09709 3.40814 3.25633
# Velocity P-wave (km/s) = 5.74260 6.15800 5.95392
#
# Compressibility (1/GPa) = 0.02571067
#
# Stress axis : x y z
#
# Youngs Moduli (GPa) = 83.57326 83.57326 47.98137
#
# Poissons Ratio (x) = 0.27237 0.15047
# Poissons Ratio (y) = 0.27237 0.15047
# Poissons Ratio (z) = 0.26208 0.26208
#
# Static dielectric constant tensor:
#      x y z
#    x 3.592650 0.000000 0.000000 
#    y 0.000000 3.592650 0.000000 
#    z 0.000000 0.000000 3.183200 
# 
# 
# High freq. dielectric constant tensor:
#      x y z
#    x 1.744820 0.000000 0.000000 
#    y 0.000000 1.744820 0.000000 
#    z 0.000000 0.000000 1.708190 
# 
# From -- ./inp_files/2680.got.cif
#   From: 2010.03.12/outbox.cif.g09.slc.cpg/sg108_2_cif.got.tgz:2680.got - 2010.04.14 01:53:11.
