data_PCOD8307266
_publ_section_title
;
Structure prediction by ZEFSAII (Michael W. Deem and Ramdas Pophale) SiO2 
 PCOD8307266
Probable space group: P 42 M C
;
_chemical_formula_sum "Si O2"
_cell_formula_units_Z 48
_cell_length_a 8.989450
_cell_length_b 8.989450
_cell_length_c 31.127491
_cell_angle_alpha 90.000000
_cell_angle_beta 90.000000
_cell_angle_gamma 90.000000
_cell_volume 2515.419125
_symmetry_space_group_name_H-M "P 42 M C"
_symmetry_group_IT_number 105
_symmetry_cell_setting 'tetragonal'
loop_
_space_group_symop_operation_xyz
x,y,z
-y,x,1/2+z
-x,-y,z
y,-x,1/2+z
-x,y,z
x,-y,z
-y,-x,1/2+z
y,x,1/2+z
loop_
_atom_site_type_symbol
_atom_site_label
_atom_site_fract_x
_atom_site_fract_y
_atom_site_fract_z
Si Si1 0.172947 0.826085 0.334770
Si Si2 0.327923 0.325566 0.584649
Si Si3 0.176530 0.829677 0.005240
Si Si4 0.176813 0.332466 0.249667
Si Si5 0.176921 0.667575 0.919977
Si Si6 0.824830 0.171921 0.663758
O O1 0.238140 0.744096 0.292854
O O2 0.259982 0.762995 0.376058
O O3 0.000000 0.791089 0.341994
O O4 0.200577 0.000000 0.328026
O O5 0.500000 0.283500 0.590485
O O6 0.303478 0.500000 0.579658
O O7 0.267227 0.246750 0.542536
O O8 0.238283 0.269678 0.625561
O O9 0.000000 0.817772 0.009009
O O10 0.229448 0.000000 0.008985
O O11 0.234547 0.764125 0.960092
O O12 0.237945 0.500000 0.247201
O O13 0.233714 0.243751 0.208063
O O14 0.000000 0.327889 0.250795
O O15 0.238587 0.500000 0.924034
O O16 0.000000 0.668942 0.919351
O O17 0.000000 0.192647 0.666158
O O18 0.781300 0.000000 0.655982
#
# Coordination Sequence:
#
# PCOD8307266 Si02
#       6
#     8   8   8   8   8   8
#     4   9  16  28  48  73 100 130 166 209 254 302
#     4  11  24  39  54  76 108 143 176 213 262 318
#     4  10  20  35  57  83 107 135 176 222 265 312
#     4   9  17  30  50  76 104 134 170 213 260 309
#     4   9  17  30  50  76 104 134 170 213 260 309
#     4  10  20  35  57  83 107 135 176 222 265 312
#
# _framework density 19.082305000000002
#
# number of rings (size 3 to 8) (size 9 to 14) (size 15 to 20)
#    0.000    2.333    0.000    3.000    0.000    9.333 
#    0.000    1.667    0.000    6.500    0.000    0.000 
#    0.000    0.000    0.000    0.000    0.000    0.000 
#
# Total GULP energy -595294.150088 kJ/mol
# GULP energy per Si atom -12401.961460 kJ/mol
# Density = 1.903887 g / cm^3
# Si number density = 19.082305 Si / 1000 Ang^3
#
#
#
# Elastic Constant Matrix: (Units=GPa)
#
#
# Indices 1 2 3 4 5 6 
#
# 1 53.9126 22.3516 32.5983 0.0000 0.0000 0.0000
# 2 22.3516 53.9126 32.5983 0.0000 0.0000 0.0000
# 3 32.5983 32.5983 153.2342 0.0000 0.0000 0.0000
# 4 0.0000 0.0000 0.0000 -9.2550 0.0000 0.0000
# 5 0.0000 0.0000 0.0000 0.0000 -9.2550 0.0000
# 6 0.0000 0.0000 0.0000 0.0000 0.0000 19.4636
#
#
#
# Elastic Compliance Matrix: (Units=1/GPa)
#
#
# Indices 1 2 3 4 5 6 
#
# 1 0.023856 -0.007829 -0.003410 0.000000 0.000000 0.000000
# 2 -0.007829 0.023856 -0.003410 0.000000 0.000000 0.000000
# 3 -0.003410 -0.003410 0.007977 0.000000 0.000000 0.000000
# 4 0.000000 0.000000 0.000000 -0.108050 0.000000 0.000000
# 5 0.000000 0.000000 0.000000 0.000000 -0.108050 0.000000
# 6 0.000000 0.000000 0.000000 0.000000 0.000000 0.051378
#
#
# Mechanical properties :
#
#
# Convention : Reuss Voigt Hill
#
# Bulk Modulus (GPa) = 37.88937 48.46175 43.17556
# Shear Modulus (GPa) = -70.48227 11.75814 -29.36207
#
# Velocity S-wave (km/s) = -6.08409 2.48499 -3.92689
# Velocity P-wave (km/s) = 5.42733 5.80387 1.45412
#
# Compressibility (1/GPa) = 0.02639263
#
# Stress axis : x y z
#
# Youngs Moduli (GPa) = 41.91848 41.91848 125.36658
#
# Poissons Ratio (x) = 0.32817 0.42744
# Poissons Ratio (y) = 0.32817 0.42744
# Poissons Ratio (z) = 0.14292 0.14292
#
# Static dielectric constant tensor:
#      x y z
#    x 3.389030 0.000000 0.000000 
#    y 0.000000 3.389030 0.000000 
#    z 0.000000 0.000000 3.811780 
# 
# 
# High freq. dielectric constant tensor:
#      x y z
#    x 1.724910 0.000000 0.000000 
#    y 0.000000 1.724910 0.000000 
#    z 0.000000 0.000000 1.762560 
# 
# From -- ./inp_files/4680.got.cif
#   From: 2010.03.12/outbox.cif.g09.slc.cpg/sg105_3_cif.got.tgz:4680.got - 2010.04.14 01:45:32.
