data_PCOD8307253
_publ_section_title
;
Structure prediction by ZEFSAII (Michael W. Deem and Ramdas Pophale) SiO2 
 PCOD8307253
Probable space group: P 42 M C
;
_chemical_formula_sum "Si O2"
_cell_formula_units_Z 48
_cell_length_a 8.982916
_cell_length_b 8.982916
_cell_length_c 31.057231
_cell_angle_alpha 90.000000
_cell_angle_beta 90.000000
_cell_angle_gamma 90.000000
_cell_volume 2506.094304
_symmetry_space_group_name_H-M "P 42 M C"
_symmetry_group_IT_number 105
_symmetry_cell_setting 'tetragonal'
loop_
_space_group_symop_operation_xyz
x,y,z
-y,x,1/2+z
-x,-y,z
y,-x,1/2+z
-x,y,z
x,-y,z
-y,-x,1/2+z
y,x,1/2+z
loop_
_atom_site_type_symbol
_atom_site_label
_atom_site_fract_x
_atom_site_fract_y
_atom_site_fract_z
Si Si1 0.822912 0.334128 0.399720
Si Si2 0.673020 0.674042 0.221114
Si Si3 0.823270 0.168950 0.483667
Si Si4 0.828766 0.824431 0.642182
Si Si5 0.323278 0.165462 0.805973
Si Si6 0.326692 0.673290 0.062482
O O1 0.757544 0.500000 0.407706
O O2 0.764974 0.225620 0.437277
O O3 0.773297 0.269879 0.352826
O O4 0.000000 0.342402 0.399999
O O5 0.500000 0.707622 0.215453
O O6 0.708693 0.500000 0.214311
O O7 0.763586 0.769160 0.187074
O O8 0.723210 0.728721 0.268471
O O9 0.754958 0.272602 0.519910
O O10 0.000000 0.180617 0.486922
O O11 0.769075 0.000000 0.490138
O O12 0.733572 0.758372 0.603688
O O13 0.000000 0.777450 0.636302
O O14 0.809258 0.000000 0.641804
O O15 0.500000 0.155754 0.807912
O O16 0.258319 0.000000 0.796764
O O17 0.500000 0.705412 0.068990
O O18 0.292090 0.500000 0.057792
#
# Coordination Sequence:
#
# PCOD8307253 Si02
#       6
#     8   8   8   8   8   8
#     4   8  14  27  49  75 103 139 182 223 262 306
#     4  10  20  34  54  81 111 143 179 218 263 315
#     4  10  20  34  54  81 111 143 179 218 263 315
#     4  11  24  40  58  81 107 137 175 217 263 316
#     4   8  14  27  49  75 103 139 182 223 262 306
#     4  11  24  40  58  81 107 137 175 217 263 316
#
# _framework density 19.153310000000001
#
# number of rings (size 3 to 8) (size 9 to 14) (size 15 to 20)
#    0.000    2.333    0.000    4.000    0.000    8.667 
#    0.000    1.667    0.000    6.000    0.000    0.000 
#    0.000    0.000    0.000    0.000    0.000    0.000 
#
# Total GULP energy -595160.983863 kJ/mol
# GULP energy per Si atom -12399.187164 kJ/mol
# Density = 1.910972 g / cm^3
# Si number density = 19.153310 Si / 1000 Ang^3
#
#
#
# Elastic Constant Matrix: (Units=GPa)
#
#
# Indices 1 2 3 4 5 6 
#
# 1 43.5060 29.9828 24.5876 0.0000 0.0000 0.0000
# 2 29.9828 43.5060 24.5876 0.0000 0.0000 0.0000
# 3 24.5876 24.5876 131.0752 0.0000 0.0000 0.0000
# 4 0.0000 0.0000 0.0000 31.4840 0.0000 0.0000
# 5 0.0000 0.0000 0.0000 0.0000 31.4840 0.0000
# 6 0.0000 0.0000 0.0000 0.0000 0.0000 21.8817
#
#
#
# Elastic Compliance Matrix: (Units=1/GPa)
#
#
# Indices 1 2 3 4 5 6 
#
# 1 0.044754 -0.029193 -0.002919 0.000000 0.000000 0.000000
# 2 -0.029193 0.044754 -0.002919 0.000000 0.000000 0.000000
# 3 -0.002919 -0.002919 0.008724 0.000000 0.000000 0.000000
# 4 0.000000 0.000000 0.000000 0.031762 0.000000 0.000000
# 5 0.000000 0.000000 0.000000 0.000000 0.031762 0.000000
# 6 0.000000 0.000000 0.000000 0.000000 0.000000 0.045700
#
#
# Mechanical properties :
#
#
# Convention : Reuss Voigt Hill
#
# Bulk Modulus (GPa) = 35.49880 41.82262 38.66071
# Shear Modulus (GPa) = 17.42713 26.23187 21.82950
#
# Velocity S-wave (km/s) = 3.01969 3.70479 3.37964
# Velocity P-wave (km/s) = 5.54367 6.33906 5.95466
#
# Compressibility (1/GPa) = 0.02816997
#
# Stress axis : x y z
#
# Youngs Moduli (GPa) = 22.34440 22.34440 114.62231
#
# Poissons Ratio (x) = 0.65230 0.33458
# Poissons Ratio (y) = 0.65230 0.33458
# Poissons Ratio (z) = 0.06522 0.06522
#
# Static dielectric constant tensor:
#      x y z
#    x 3.405320 0.000000 0.000000 
#    y 0.000000 3.405320 0.000000 
#    z 0.000000 0.000000 4.029530 
# 
# 
# High freq. dielectric constant tensor:
#      x y z
#    x 1.727610 0.000000 0.000000 
#    y 0.000000 1.727610 0.000000 
#    z 0.000000 0.000000 1.767100 
# 
# From -- ./inp_files/4685.got.cif
#   From: 2010.03.12/outbox.cif.g09.slc.cpg/sg105_3_cif.got.tgz:4685.got - 2010.04.14 01:45:32.
