data_PCOD8307034
_publ_section_title
;
Structure prediction by ZEFSAII (Michael W. Deem and Ramdas Pophale) SiO2 
 PCOD8307034
Probable space group: P 4 N C 
;
_chemical_formula_sum "Si O2"
_cell_formula_units_Z 48
_cell_length_a 16.083670
_cell_length_b 16.083670
_cell_length_c 10.415757
_cell_angle_alpha 90.000000
_cell_angle_beta 90.000000
_cell_angle_gamma 90.000000
_cell_volume 2694.394274
_symmetry_space_group_name_H-M "P 4 N C "
_symmetry_group_IT_number 104
_symmetry_cell_setting 'tetragonal'
loop_
_space_group_symop_operation_xyz
x,y,z
-y,x,z
-x,-y,z
y,-x,z
1/2-x,1/2+y,1/2+z
1/2+x,1/2-y,1/2+z
1/2-y,1/2-x,1/2+z
1/2+y,1/2+x,1/2+z
loop_
_atom_site_type_symbol
_atom_site_label
_atom_site_fract_x
_atom_site_fract_y
_atom_site_fract_z
Si Si1 0.294572 0.933339 0.795340
Si Si2 0.138078 0.502121 0.548284
Si Si3 0.493958 0.131627 0.048284
Si Si4 0.621688 0.557100 0.898514
Si Si5 0.942900 0.878312 0.698054
Si Si6 0.205428 0.433339 0.801228
O O1 0.314427 0.993657 0.675935
O O2 0.198229 0.906876 0.781592
O O3 0.350572 0.850572 0.798284
O O4 0.306023 0.987407 0.923276
O O5 0.060668 0.440992 0.548284
O O6 0.193977 0.487407 0.673291
O O7 0.099754 0.595011 0.548284
O O8 0.506343 0.185572 0.920632
O O9 0.539701 0.608791 0.863125
O O10 0.698229 0.593124 0.814976
O O11 0.641850 0.567131 0.048284
O O12 0.039701 0.891209 0.733442
#
# Coordination Sequence:
#
# PCOD8307034 Si02
#       6
#     8   8   8   8   8   8
#     4  10  18  31  52  78 108 137 171 222 268 307
#     4   9  18  28  46  75 108 140 171 200 262 328
#     4   9  16  30  48  71 104 146 177 202 244 318
#     4   9  18  35  59  78  97 138 190 223 249 306
#     4   9  18  35  59  78  97 138 190 223 249 306
#     4  10  18  31  52  78 108 137 171 222 268 307
#
# _framework density 17.814764
#
# number of rings (size 3 to 8) (size 9 to 14) (size 15 to 20)
#    0.000    2.667    1.667    2.000    0.000    4.000 
#    0.000    5.000    0.000    2.000    0.000    0.000 
#    0.000    0.000    0.000    0.000    0.000    0.000 
#
# Total GULP energy -595090.271893 kJ/mol
# GULP energy per Si atom -12397.713998 kJ/mol
# Density = 1.777422 g / cm^3
# Si number density = 17.814764 Si / 1000 Ang^3
#
#
#
# Elastic Constant Matrix: (Units=GPa)
#
#
# Indices 1 2 3 4 5 6 
#
# 1 83.0290 24.8132 31.2233 0.0000 0.0000 0.0000
# 2 24.8132 83.0290 31.2233 0.0000 0.0000 0.0000
# 3 31.2233 31.2233 115.9576 0.0000 0.0000 0.0000
# 4 0.0000 0.0000 0.0000 23.5948 0.0000 0.0000
# 5 0.0000 0.0000 0.0000 0.0000 23.5948 0.0000
# 6 0.0000 0.0000 0.0000 0.0000 0.0000 13.9742
#
#
#
# Elastic Compliance Matrix: (Units=1/GPa)
#
#
# Indices 1 2 3 4 5 6 
#
# 1 0.014082 -0.003096 -0.002958 0.000000 0.000000 0.000000
# 2 -0.003096 0.014082 -0.002958 0.000000 0.000000 0.000000
# 3 -0.002958 -0.002958 0.010217 0.000000 0.000000 0.000000
# 4 0.000000 0.000000 0.000000 0.042382 0.000000 0.000000
# 5 0.000000 0.000000 0.000000 0.000000 0.042382 0.000000
# 6 0.000000 0.000000 0.000000 0.000000 0.000000 0.071560
#
#
# Mechanical properties :
#
#
# Convention : Reuss Voigt Hill
#
# Bulk Modulus (GPa) = 49.12563 50.72616 49.92589
# Shear Modulus (GPa) = 22.77759 25.21649 23.99704
#
# Velocity S-wave (km/s) = 3.57960 3.76637 3.67417
# Velocity P-wave (km/s) = 6.68733 6.88840 6.78861
#
# Compressibility (1/GPa) = 0.02035597
#
# Stress axis : x y z
#
# Youngs Moduli (GPa) = 71.01479 71.01479 97.87755
#
# Poissons Ratio (x) = 0.21985 0.28953
# Poissons Ratio (y) = 0.21985 0.28953
# Poissons Ratio (z) = 0.21007 0.21007
#
# Static dielectric constant tensor:
#      x y z
#    x 3.163850 0.000000 0.000000 
#    y 0.000000 3.163850 0.000000 
#    z 0.000000 0.000000 3.297240 
# 
# 
# High freq. dielectric constant tensor:
#      x y z
#    x 1.672090 0.000000 0.000000 
#    y 0.000000 1.672090 0.000000 
#    z 0.000000 0.000000 1.684530 
# 
# From -- ./inp_files/560.got.cif
#   From: 2010.03.12/outbox.cif.g09.slc.cpg/sg104_cif.got.tgz:560.got - 2010.04.14 01:44:05.
