data_PCOD8307043
_publ_section_title
;
Structure prediction by ZEFSAII (Michael W. Deem and Ramdas Pophale) SiO2 
 PCOD8307043
Probable space group: P 4 N C 
;
_chemical_formula_sum "Si O2"
_cell_formula_units_Z 56
_cell_length_a 14.972581
_cell_length_b 14.972581
_cell_length_c 11.282382
_cell_angle_alpha 90.000000
_cell_angle_beta 90.000000
_cell_angle_gamma 90.000000
_cell_volume 2529.263883
_symmetry_space_group_name_H-M "P 4 N C "
_symmetry_group_IT_number 104
_symmetry_cell_setting 'tetragonal'
loop_
_space_group_symop_operation_xyz
x,y,z
-y,x,z
-x,-y,z
y,-x,z
1/2-x,1/2+y,1/2+z
1/2+x,1/2-y,1/2+z
1/2-y,1/2-x,1/2+z
1/2+y,1/2+x,1/2+z
loop_
_atom_site_type_symbol
_atom_site_label
_atom_site_fract_x
_atom_site_fract_y
_atom_site_fract_z
Si Si1 0.903772 0.542753 0.252230
Si Si2 0.100199 0.733349 0.819861
Si Si3 0.096228 0.457247 0.994110
Si Si4 0.520646 0.639603 0.484605
Si Si5 0.373476 0.581551 0.123170
Si Si6 0.520646 0.639603 0.761736
Si Si7 0.899801 0.266651 0.426480
O O1 0.838192 0.458235 0.250536
O O2 0.888880 0.593092 0.123170
O O3 0.895549 0.604451 0.373170
O O4 0.000000 0.500000 0.253316
O O5 0.118880 0.819325 0.736751
O O6 0.191645 0.691645 0.873170
O O7 0.038604 0.764281 0.929460
O O8 0.000000 0.500000 0.993025
O O9 0.161808 0.541765 0.995804
O O10 0.426749 0.599573 0.441719
O O11 0.520986 0.650377 0.623170
O O12 0.377195 0.473080 0.123170
O O13 0.319325 0.618880 0.009590
O O14 0.426749 0.599573 0.804622
O O15 0.538604 0.735719 0.816880
#
# Coordination Sequence:
#
# PCOD8307043 Si02
#       7
#     8   8   8   8   8   8   8
#     4  10  20  38  61  91 131 187 235 267 344 450
#     4  12  23  38  71 101 137 178 236 298 347 422
#     4  10  20  38  61  91 131 187 235 267 344 450
#     4   9  20  41  68  95 128 175 228 280 352 419
#     4  11  26  50  75 100 142 197 243 290 366 442
#     4   9  20  41  68  95 128 175 228 280 352 419
#     4  12  23  38  71 101 137 178 236 298 347 422
#
# _framework density 22.140830000000001
#
# number of rings (size 3 to 8) (size 9 to 14) (size 15 to 20)
#    0.000    1.571    4.286    2.571    2.000    3.429 
#    0.000    5.714    0.000    0.000    0.000    0.000 
#    0.000    0.000    0.000    0.000    0.000    0.000 
#
# Total GULP energy -693733.908390 kJ/mol
# GULP energy per Si atom -12388.105507 kJ/mol
# Density = 2.209044 g / cm^3
# Si number density = 22.140830 Si / 1000 Ang^3
#
#
#
# Elastic Constant Matrix: (Units=GPa)
#
#
# Indices 1 2 3 4 5 6 
#
# 1 78.9424 24.6606 46.5551 0.0000 0.0000 0.0000
# 2 24.6606 78.9424 46.5551 0.0000 0.0000 0.0000
# 3 46.5551 46.5551 158.8098 0.0000 0.0000 0.0000
# 4 0.0000 0.0000 0.0000 -24.5180 0.0000 0.0000
# 5 0.0000 0.0000 0.0000 0.0000 -24.5180 0.0000
# 6 0.0000 0.0000 0.0000 0.0000 0.0000 35.6029
#
#
#
# Elastic Compliance Matrix: (Units=1/GPa)
#
#
# Indices 1 2 3 4 5 6 
#
# 1 0.015764 -0.002659 -0.003842 0.000000 0.000000 0.000000
# 2 -0.002659 0.015764 -0.003842 0.000000 0.000000 0.000000
# 3 -0.003842 -0.003842 0.008549 0.000000 0.000000 0.000000
# 4 0.000000 0.000000 0.000000 -0.040786 0.000000 0.000000
# 5 0.000000 0.000000 0.000000 0.000000 -0.040786 0.000000
# 6 0.000000 0.000000 0.000000 0.000000 0.000000 0.028088
#
#
# Mechanical properties :
#
#
# Convention : Reuss Voigt Hill
#
# Bulk Modulus (GPa) = 51.56722 61.35958 56.46340
# Shear Modulus (GPa) = 363.90413 10.57493 187.23953
#
# Velocity S-wave (km/s) = 12.83416 2.18783 9.20604
# Velocity P-wave (km/s) = 15.58724 5.84428 11.77110
#
# Compressibility (1/GPa) = 0.01939216
#
# Stress axis : x y z
#
# Youngs Moduli (GPa) = 63.43722 63.43722 116.96966
#
# Poissons Ratio (x) = 0.16866 0.44936
# Poissons Ratio (y) = 0.16866 0.44936
# Poissons Ratio (z) = 0.24371 0.24371
#
# Static dielectric constant tensor:
#      x y z
#    x 5.449310 0.000000 0.000000 
#    y 0.000000 5.449310 0.000000 
#    z 0.000000 0.000000 5.154020 
# 
# 
# High freq. dielectric constant tensor:
#      x y z
#    x 1.847030 0.000000 0.000000 
#    y 0.000000 1.847030 0.000000 
#    z 0.000000 0.000000 1.902640 
# 
# From -- ./inp_files/1038.got.cif
#   From: 2010.03.12/outbox.cif.g09.slc.cpg/sg104_cif.got.tgz:1038.got - 2010.04.14 01:44:05.
