data_PCOD8307621
_publ_section_title
;
Structure prediction by ZEFSAII (Michael W. Deem and Ramdas Pophale) SiO2 
 PCOD8307621
Probable space group: I 4 M M
;
_chemical_formula_sum "Si O2"
_cell_formula_units_Z 112
_cell_length_a 13.619501
_cell_length_b 13.619501
_cell_length_c 35.581518
_cell_angle_alpha 90.000000
_cell_angle_beta 90.000000
_cell_angle_gamma 90.000000
_cell_volume 6600.044506
_symmetry_space_group_name_H-M "I 4 M M"
_symmetry_group_IT_number 107
_symmetry_cell_setting 'tetragonal'
loop_
_space_group_symop_operation_xyz
x,y,z
-y,x,z
-x,-y,z
y,-x,z
-x,y,z
x,-y,z
-y,-x,z
y,x,z
1/2+x,1/2+y,1/2+z
1/2-y,1/2+x,1/2+z
1/2-x,1/2-y,1/2+z
1/2+y,1/2-x,1/2+z
1/2-x,1/2+y,1/2+z
1/2+x,1/2-y,1/2+z
1/2-y,1/2-x,1/2+z
1/2+y,1/2+x,1/2+z
loop_
_atom_site_type_symbol
_atom_site_label
_atom_site_fract_x
_atom_site_fract_y
_atom_site_fract_z
Si Si1 0.391715 0.116268 0.619750
Si Si2 0.612247 0.887308 0.330634
Si Si3 0.384960 0.774878 0.755350
Si Si4 0.769937 0.387632 0.050037
Si Si5 0.774594 0.384236 0.192624
Si Si6 0.773084 0.613015 0.965113
Si Si7 0.273293 0.885838 0.905240
O O1 0.500000 0.162986 0.624908
O O2 0.349915 0.152450 0.579616
O O3 0.321023 0.150765 0.653226
O O4 0.400458 0.000000 0.620480
O O5 0.500000 0.866569 0.318758
O O6 0.682025 0.860117 0.296154
O O7 0.643777 0.821069 0.365661
O O8 0.625687 0.000000 0.342705
O O9 0.500000 0.753821 0.750314
O O10 0.327144 0.672857 0.749772
O O11 0.351155 0.855319 0.725058
O O12 0.744630 0.500000 0.058653
O O13 0.668377 0.331624 0.055713
O O14 0.810983 0.373127 0.007873
O O15 0.754037 0.500000 0.194114
O O16 0.671255 0.328746 0.198333
O O17 0.749412 0.500000 0.956301
O O18 0.673122 0.673122 0.957643
O O19 0.859469 0.650930 0.938334
O O20 0.171784 0.828217 0.910400
O O21 0.248706 0.000000 0.907463
#
# Coordination Sequence:
#
# PCOD8307621 Si02
#       7
#    16  16  16  16  16  16  16
#     4   9  17  29  45  65  90 121 156 192 228 268
#     4   9  17  30  50  74  96 120 153 193 238 288
#     4  10  20  33  50  72  98 129 164 200 236 275
#     4   9  17  29  45  67  95 124 154 189 231 281
#     4  10  20  33  50  72  97 125 158 197 242 292
#     4   9  18  31  47  69  96 125 158 196 238 286
#     4  10  20  33  49  69  94 124 159 199 240 283
#
# _framework density 16.969583
#
# number of rings (size 3 to 8) (size 9 to 14) (size 15 to 20)
#    0.000    2.571    0.000    2.143    0.000    3.571 
#    0.000    2.857    0.000    2.571    0.000    4.000 
#    0.000    2.571    0.000    0.571    0.000    0.000 
#
# Total GULP energy -694415.160906 kJ/mol
# GULP energy per Si atom -12400.270730 kJ/mol
# Density = 1.693096 g / cm^3
# Si number density = 16.969583 Si / 1000 Ang^3
#
#
#
# Elastic Constant Matrix: (Units=GPa)
#
#
# Indices 1 2 3 4 5 6 
#
# 1 86.8689 39.8763 49.0362 0.0000 0.0000 0.0002
# 2 39.8763 86.8689 49.0362 0.0000 0.0000 -0.0002
# 3 49.0362 49.0362 109.0219 0.0000 0.0000 0.0000
# 4 0.0000 0.0000 0.0000 26.7649 0.0000 0.0000
# 5 0.0000 0.0000 0.0000 0.0000 26.7649 0.0000
# 6 0.0002 -0.0002 0.0000 0.0000 0.0000 15.9278
#
#
#
# Elastic Compliance Matrix: (Units=1/GPa)
#
#
# Indices 1 2 3 4 5 6 
#
# 1 0.016691 -0.004589 -0.005443 0.000000 0.000000 0.000000
# 2 -0.004589 0.016691 -0.005443 0.000000 0.000000 0.000000
# 3 -0.005443 -0.005443 0.014069 0.000000 0.000000 0.000000
# 4 0.000000 0.000000 0.000000 0.037362 0.000000 0.000000
# 5 0.000000 0.000000 0.000000 0.000000 0.037362 0.000000
# 6 0.000000 0.000000 0.000000 0.000000 0.000000 0.062783
#
#
# Mechanical properties :
#
#
# Convention : Reuss Voigt Hill
#
# Bulk Modulus (GPa) = 60.60717 62.07300 61.34008
# Shear Modulus (GPa) = 22.58261 23.54556 23.06409
#
# Velocity S-wave (km/s) = 3.65193 3.72898 3.69066
# Velocity P-wave (km/s) = 7.31948 7.42959 7.37474
#
# Compressibility (1/GPa) = 0.01649970
#
# Stress axis : x y z
#
# Youngs Moduli (GPa) = 59.91342 59.91342 71.07881
#
# Poissons Ratio (x) = 0.27495 0.38689
# Poissons Ratio (y) = 0.27495 0.38689
# Poissons Ratio (z) = 0.32611 0.32611
#
# Static dielectric constant tensor:
#      x y z
#    x 3.044130 0.000000 0.000000 
#    y 0.000000 3.044130 0.000000 
#    z 0.000000 0.000000 3.379380 
# 
# 
# High freq. dielectric constant tensor:
#      x y z
#    x 1.642430 0.000000 0.000000 
#    y 0.000000 1.642430 0.000000 
#    z 0.000000 0.000000 1.670250 
# 
# From -- ./inp_files/5788.got.cif
#   From: 2010.03.12/outbox.cif.g09.slc.cpg/sg107_3_cif.got.tgz:5788.got - 2010.04.14 01:49:11.
