data_PCOD8307582
_publ_section_title
;
Structure prediction by ZEFSAII (Michael W. Deem and Ramdas Pophale) SiO2 
 PCOD8307582
Probable space group: I 4 M M
;
_chemical_formula_sum "Si O2"
_cell_formula_units_Z 128
_cell_length_a 23.261085
_cell_length_b 23.261085
_cell_length_c 12.943826
_cell_angle_alpha 90.000000
_cell_angle_beta 90.000000
_cell_angle_gamma 90.000000
_cell_volume 7003.620460
_symmetry_space_group_name_H-M "I 4 M M"
_symmetry_group_IT_number 107
_symmetry_cell_setting 'tetragonal'
loop_
_space_group_symop_operation_xyz
x,y,z
-y,x,z
-x,-y,z
y,-x,z
-x,y,z
x,-y,z
-y,-x,z
y,x,z
1/2+x,1/2+y,1/2+z
1/2-y,1/2+x,1/2+z
1/2-x,1/2-y,1/2+z
1/2+y,1/2-x,1/2+z
1/2-x,1/2+y,1/2+z
1/2+x,1/2-y,1/2+z
1/2-y,1/2-x,1/2+z
1/2+y,1/2+x,1/2+z
loop_
_atom_site_type_symbol
_atom_site_label
_atom_site_fract_x
_atom_site_fract_y
_atom_site_fract_z
Si Si1 0.221245 0.126093 0.180240
Si Si2 0.564916 0.268673 0.898868
Si Si3 0.371930 0.721304 0.267239
Si Si4 0.623562 0.934362 0.028334
Si Si5 0.567326 0.342162 0.089606
Si Si6 0.935227 0.754542 0.974515
Si Si7 0.063715 0.640287 0.377274
Si Si8 0.152133 0.347670 0.699054
O O1 0.169360 0.169360 0.165979
O O2 0.217622 0.097045 0.292200
O O3 0.281116 0.159973 0.170435
O O4 0.218811 0.080529 0.086398
O O5 0.500000 0.288614 0.879170
O O6 0.567201 0.202019 0.934214
O O7 0.591567 0.303753 0.994634
O O8 0.308990 0.691011 0.265405
O O9 0.416489 0.685484 0.199066
O O10 0.393118 0.722278 0.385541
O O11 0.372038 0.784280 0.216359
O O12 0.618533 0.885414 0.115014
O O13 0.611461 0.000000 0.067162
O O14 0.685732 0.931524 0.975800
O O15 0.573936 0.914981 0.949376
O O16 0.500000 0.349955 0.083544
O O17 0.595233 0.404768 0.079802
O O18 0.000000 0.774186 0.949176
O O19 0.115577 0.642286 0.299673
O O20 0.000000 0.633838 0.326426
#
# Coordination Sequence:
#
# PCOD8307582 Si02
#       8
#    16  16  16  16  16  16  16  16
#     4  10  19  32  53  81 111 141 178 226 275 326
#     4   9  18  33  54  79 108 145 183 221 270 327
#     4  11  21  35  55  82 113 143 181 227 275 333
#     4  10  20  35  54  75 102 140 183 227 270 321
#     4  10  21  36  55  79 107 140 180 225 272 329
#     4  10  20  35  54  76 107 146 184 222 269 327
#     4  10  19  34  54  76 105 140 178 222 266 314
#     4  10  20  35  53  77 107 139 178 217 275 326
#
# _framework density 18.276261999999999
#
# number of rings (size 3 to 8) (size 9 to 14) (size 15 to 20)
#    0.000    2.000    1.250    3.000    0.000    3.375 
#    0.000    1.250    0.000    1.500    0.000    0.000 
#    0.000   10.250    0.000    0.000    0.000    0.000 
#
# Total GULP energy -793182.393825 kJ/mol
# GULP energy per Si atom -12393.474904 kJ/mol
# Density = 1.823466 g / cm^3
# Si number density = 18.276262 Si / 1000 Ang^3
#
#
#
# Elastic Constant Matrix: (Units=GPa)
#
#
# Indices 1 2 3 4 5 6 
#
# 1 91.5011 44.4161 31.5536 0.0000 0.0000 0.0001
# 2 44.4161 91.5011 31.5536 0.0000 0.0000 -0.0001
# 3 31.5536 31.5536 84.1762 0.0000 0.0000 0.0000
# 4 0.0000 0.0000 0.0000 0.2130 0.0000 0.0000
# 5 0.0000 0.0000 0.0000 0.0000 0.2130 0.0000
# 6 0.0001 -0.0001 0.0000 0.0000 0.0000 22.5431
#
#
#
# Elastic Compliance Matrix: (Units=1/GPa)
#
#
# Indices 1 2 3 4 5 6 
#
# 1 0.015073 -0.006165 -0.003339 0.000000 0.000000 0.000000
# 2 -0.006165 0.015073 -0.003339 0.000000 0.000000 0.000000
# 3 -0.003339 -0.003339 0.014383 0.000000 0.000000 0.000000
# 4 0.000000 0.000000 0.000000 4.693937 0.000000 0.000000
# 5 0.000000 0.000000 0.000000 0.000000 4.693937 0.000000
# 6 0.000000 0.000000 0.000000 0.000000 0.000000 0.044360
#
#
# Mechanical properties :
#
#
# Convention : Reuss Voigt Hill
#
# Bulk Modulus (GPa) = 53.07192 53.58054 53.32623
# Shear Modulus (GPa) = 0.52583 15.23751 7.88167
#
# Velocity S-wave (km/s) = 0.53697 2.89057 2.07891
# Velocity P-wave (km/s) = 5.43012 6.36563 5.91639
#
# Compressibility (1/GPa) = 0.01884236
#
# Stress axis : x y z
#
# Youngs Moduli (GPa) = 66.34389 66.34389 69.52566
#
# Poissons Ratio (x) = 0.40902 0.23215
# Poissons Ratio (y) = 0.40902 0.23215
# Poissons Ratio (z) = 0.22153 0.22153
#
# Static dielectric constant tensor:
#      x y z
#    x 3.516250 0.000000 0.000000 
#    y 0.000000 3.516250 0.000000 
#    z 0.000000 0.000000 3.454380 
# 
# 
# High freq. dielectric constant tensor:
#      x y z
#    x 1.701460 0.000000 0.000000 
#    y 0.000000 1.701460 0.000000 
#    z 0.000000 0.000000 1.713180 
# 
# From -- ./inp_files/2636.got.cif
#   From: 2010.03.12/outbox.cif.g09.slc.cpg/sg107_2_cif.got.tgz:2636.got - 2010.04.14 01:49:11.
