data_PCOD8307924
_publ_section_title
;
Structure prediction by ZEFSAII (Michael W. Deem and Ramdas Pophale) SiO2 
 PCOD8307924
Probable space group: I 41 M D
;
_chemical_formula_sum "Si O2"
_cell_formula_units_Z 80
_cell_length_a 12.424468
_cell_length_b 12.424468
_cell_length_c 28.255955
_cell_angle_alpha 90.000000
_cell_angle_beta 90.000000
_cell_angle_gamma 90.000000
_cell_volume 4361.798451
_symmetry_space_group_name_H-M "I 41 M D"
_symmetry_group_IT_number 109
_symmetry_cell_setting 'tetragonal'
loop_
_space_group_symop_operation_xyz
x,y,z
-y,1/2+x,1/4+z
-x,-y,z
y,1/2-x,1/4+z
-x,y,z
x,-y,z
-y,1/2-x,1/4+z
y,1/2+x,1/4+z
1/2+x,1/2+y,1/2+z
1/2-y,x,3/4+z
1/2-x,1/2-y,1/2+z
1/2+y,-x,3/4+z
1/2-x,1/2+y,1/2+z
1/2+x,1/2-y,1/2+z
1/2-y,-x,3/4+z
1/2+y,x,3/4+z
loop_
_atom_site_type_symbol
_atom_site_label
_atom_site_fract_x
_atom_site_fract_y
_atom_site_fract_z
Si Si1 0.500000 0.123837 0.371431
Si Si2 0.876845 0.124563 0.811518
Si Si3 0.625037 0.373891 0.819413
Si Si4 0.624054 0.500000 0.010961
Si Si5 0.224577 0.720221 0.742531
Si Si6 0.213859 0.259909 0.889703
O O1 0.500000 0.154629 0.316239
O O2 0.390266 0.164313 0.395332
O O3 0.500000 0.000000 0.381027
O O4 0.798946 0.171411 0.771444
O O5 0.827262 0.153912 0.862521
O O6 0.000000 0.167877 0.806797
O O7 0.874892 0.000000 0.804718
O O8 0.500000 0.334672 0.816890
O O9 0.629535 0.500000 0.829332
O O10 0.686958 0.350773 0.770127
O O11 0.687845 0.316024 0.862015
O O12 0.500000 0.500000 0.002974
O O13 0.663889 0.391169 0.986025
O O14 0.274153 0.745470 0.691368
#
# Coordination Sequence:
#
# PCOD8307924 Si02
#       6
#     8  16  16   8  16  16
#     4  11  20  34  58  84 120 150 176 232 302 351
#     4  10  20  37  56  80 115 151 187 232 290 347
#     4  10  22  40  59  81 115 156 194 234 280 337
#     4  11  20  36  58  84 120 154 182 232 300 353
#     4  11  22  36  57  86 118 148 193 238 289 344
#     4  11  22  37  57  88 117 147 192 238 290 345
#
# _framework density 18.341059999999999
#
# number of rings (size 3 to 8) (size 9 to 14) (size 15 to 20)
#    0.000    1.400    6.000    1.200    4.200    2.400 
#    0.000    0.000    0.000    9.600    0.000    0.000 
#    0.000    0.000    0.000    0.000    0.000    0.000 
#
# Total GULP energy -495852.758704 kJ/mol
# GULP energy per Si atom -12396.318968 kJ/mol
# Density = 1.829931 g / cm^3
# Si number density = 18.341060 Si / 1000 Ang^3
#
#
#
# Elastic Constant Matrix: (Units=GPa)
#
#
# Indices 1 2 3 4 5 6 
#
# 1 95.6835 10.4371 7.1208 0.0000 0.0000 0.0000
# 2 10.4371 95.6835 7.1208 0.0000 0.0000 0.0000
# 3 7.1208 7.1208 95.7461 0.0000 0.0000 0.0000
# 4 0.0000 0.0000 0.0000 15.5036 0.0000 0.0000
# 5 0.0000 0.0000 0.0000 0.0000 15.5036 0.0000
# 6 0.0000 0.0000 0.0000 0.0000 0.0000 23.7875
#
#
#
# Elastic Compliance Matrix: (Units=1/GPa)
#
#
# Indices 1 2 3 4 5 6 
#
# 1 0.010624 -0.001106 -0.000708 0.000000 0.000000 0.000000
# 2 -0.001106 0.010624 -0.000708 0.000000 0.000000 0.000000
# 3 -0.000708 -0.000708 0.010550 0.000000 0.000000 0.000000
# 4 0.000000 0.000000 0.000000 0.064501 0.000000 0.000000
# 5 0.000000 0.000000 0.000000 0.000000 0.064501 0.000000
# 6 0.000000 0.000000 0.000000 0.000000 0.000000 0.042039
#
#
# Mechanical properties :
#
#
# Convention : Reuss Voigt Hill
#
# Bulk Modulus (GPa) = 37.37686 37.38560 37.38123
# Shear Modulus (GPa) = 23.06253 28.45458 25.75855
#
# Velocity S-wave (km/s) = 3.54987 3.94307 3.75162
# Velocity P-wave (km/s) = 6.10124 6.41547 6.26033
#
# Compressibility (1/GPa) = 0.02675452
#
# Stress axis : x y z
#
# Youngs Moduli (GPa) = 94.12236 94.12235 94.79050
#
# Poissons Ratio (x) = 0.10412 0.06710
# Poissons Ratio (y) = 0.10412 0.06710
# Poissons Ratio (z) = 0.06663 0.06663
#
# Static dielectric constant tensor:
#      x y z
#    x 3.369420 0.000000 0.000000 
#    y 0.000000 3.369420 0.000000 
#    z 0.000000 0.000000 3.314870 
# 
# 
# High freq. dielectric constant tensor:
#      x y z
#    x 1.711870 0.000000 0.000000 
#    y 0.000000 1.711870 0.000000 
#    z 0.000000 0.000000 1.700850 
# 
# From -- ./inp_files/5516.got.cif
#   From: 2010.03.12/outbox.cif.g09.slc.cpg/sg109_3_cif.got.tgz:5516.got - 2010.04.14 01:55:16.
