data_PCOD8307437
_publ_section_title
;
Structure prediction by ZEFSAII (Michael W. Deem and Ramdas Pophale) SiO2 
 PCOD8307437
Probable space group: P 42 B C
;
_chemical_formula_sum "Si O2"
_cell_formula_units_Z 40
_cell_length_a 13.315879
_cell_length_b 13.315879
_cell_length_c 9.910792
_cell_angle_alpha 90.000000
_cell_angle_beta 90.000000
_cell_angle_gamma 90.000000
_cell_volume 1757.308630
_symmetry_space_group_name_H-M "P 42 B C"
_symmetry_group_IT_number 106
_symmetry_cell_setting 'tetragonal'
loop_
_space_group_symop_operation_xyz
x,y,z
-y,x,1/2+z
-x,-y,z
y,-x,1/2+z
1/2-x,1/2+y,z
1/2+x,1/2-y,z
1/2-y,1/2-x,1/2+z
1/2+y,1/2+x,1/2+z
loop_
_atom_site_type_symbol
_atom_site_label
_atom_site_fract_x
_atom_site_fract_y
_atom_site_fract_z
Si Si1 0.000000 0.500000 0.401420
Si Si2 0.160573 0.134843 0.000705
Si Si3 0.283091 0.010661 0.499064
Si Si4 0.010661 0.716909 0.303777
Si Si5 0.500000 0.500000 0.901420
Si Si6 0.839427 0.865157 0.302136
O O1 0.097539 0.498929 0.495781
O O2 0.998929 0.597539 0.307060
O O3 0.249169 0.105870 0.896050
O O4 0.096385 0.233102 0.955082
O O5 0.085200 0.040696 0.001150
O O6 0.206117 0.148082 0.151420
O O7 0.248467 0.034774 0.651420
O O8 0.249169 0.105870 0.406791
O O9 0.903615 0.766898 0.347759
O O10 0.540696 0.585200 0.801691
#
# Coordination Sequence:
#
# PCOD8307437 Si02
#       6
#     4   8   8   8   4   8
#     4  12  26  44  60  82 122 172 212 254 298 352
#     4   9  18  35  62  93 122 154 196 248 304 361
#     4  10  23  42  64  92 124 160 203 250 304 364
#     4  10  23  42  64  92 124 160 203 250 304 364
#     4   8  14  28  56  94 126 152 188 242 302 364
#     4   9  18  35  62  93 122 154 196 248 304 361
#
# _framework density 22.762081999999999
#
# number of rings (size 3 to 8) (size 9 to 14) (size 15 to 20)
#    0.000    2.400    0.000    1.200    0.000   14.400 
#    0.000    4.000    0.000    0.000    0.000    0.000 
#    0.000    0.000    0.000    0.000    0.000    0.000 
#
# Total GULP energy -495691.544692 kJ/mol
# GULP energy per Si atom -12392.288617 kJ/mol
# Density = 2.271027 g / cm^3
# Si number density = 22.762082 Si / 1000 Ang^3
#
#
#
# Elastic Constant Matrix: (Units=GPa)
#
#
# Indices 1 2 3 4 5 6 
#
# 1 125.4209 42.9696 47.1951 0.0000 0.0000 0.0000
# 2 42.9696 125.4209 47.1951 0.0000 0.0000 0.0000
# 3 47.1951 47.1951 113.9651 0.0000 0.0000 0.0000
# 4 0.0000 0.0000 0.0000 19.1405 0.0000 0.0000
# 5 0.0000 0.0000 0.0000 0.0000 19.1405 0.0000
# 6 0.0000 0.0000 0.0000 0.0000 0.0000 29.7986
#
#
#
# Elastic Compliance Matrix: (Units=1/GPa)
#
#
# Indices 1 2 3 4 5 6 
#
# 1 0.009931 -0.002197 -0.003203 0.000000 0.000000 0.000000
# 2 -0.002197 0.009931 -0.003203 0.000000 0.000000 0.000000
# 3 -0.003203 -0.003203 0.011427 0.000000 0.000000 0.000000
# 4 0.000000 0.000000 0.000000 0.052245 0.000000 0.000000
# 5 0.000000 0.000000 0.000000 0.000000 0.052245 0.000000
# 6 0.000000 0.000000 0.000000 0.000000 0.000000 0.033559
#
#
# Mechanical properties :
#
#
# Convention : Reuss Voigt Hill
#
# Bulk Modulus (GPa) = 71.00253 71.05851 71.03052
# Shear Modulus (GPa) = 26.14533 28.77906 27.46219
#
# Velocity S-wave (km/s) = 3.39283 3.55962 3.47722
# Velocity P-wave (km/s) = 6.82711 6.94120 6.88439
#
# Compressibility (1/GPa) = 0.01408401
#
# Stress axis : x y z
#
# Youngs Moduli (GPa) = 100.69373 100.69373 87.51022
#
# Poissons Ratio (x) = 0.22125 0.28027
# Poissons Ratio (y) = 0.22125 0.28027
# Poissons Ratio (z) = 0.32249 0.32249
#
# Static dielectric constant tensor:
#      x y z
#    x 4.081370 0.000000 0.000000 
#    y 0.000000 4.081370 0.000000 
#    z 0.000000 0.000000 3.810760 
# 
# 
# High freq. dielectric constant tensor:
#      x y z
#    x 1.893100 0.000000 0.000000 
#    y 0.000000 1.893100 0.000000 
#    z 0.000000 0.000000 1.882310 
# 
# From -- ./inp_files/415.got.cif
#   From: 2010.03.12/outbox.cif.g09.slc.cpg/sg106_cif.got.tgz:415.got - 2010.04.14 01:48:02.
