data_PCOD8307340
_publ_section_title
;
Structure prediction by ZEFSAII (Michael W. Deem and Ramdas Pophale) SiO2 
 PCOD8307340
Probable space group: P 42 M C
;
_chemical_formula_sum "Si O2"
_cell_formula_units_Z 56
_cell_length_a 15.184277
_cell_length_b 15.184277
_cell_length_c 12.132903
_cell_angle_alpha 90.000000
_cell_angle_beta 90.000000
_cell_angle_gamma 90.000000
_cell_volume 2797.389633
_symmetry_space_group_name_H-M "P 42 M C"
_symmetry_group_IT_number 105
_symmetry_cell_setting 'tetragonal'
loop_
_space_group_symop_operation_xyz
x,y,z
-y,x,1/2+z
-x,-y,z
y,-x,1/2+z
-x,y,z
x,-y,z
-y,-x,1/2+z
y,x,1/2+z
loop_
_atom_site_type_symbol
_atom_site_label
_atom_site_fract_x
_atom_site_fract_y
_atom_site_fract_z
Si Si1 0.732122 0.857835 0.395330
Si Si2 0.096352 0.599702 0.721214
Si Si3 0.399060 0.401012 0.172117
Si Si4 0.102152 0.270804 0.147910
Si Si5 0.097648 0.098285 0.774200
Si Si6 0.332725 0.754802 0.813239
Si Si7 0.230538 0.399298 0.546635
O O1 0.658664 0.912974 0.330820
O O2 0.714022 0.865169 0.524443
O O3 0.831348 0.891185 0.372257
O O4 0.718066 0.760193 0.351509
O O5 0.124155 0.500000 0.754947
O O6 0.164853 0.646297 0.635440
O O7 0.000000 0.598941 0.664814
O O8 0.500000 0.386170 0.214498
O O9 0.388910 0.500000 0.125183
O O10 0.329210 0.387790 0.270378
O O11 0.375669 0.332092 0.074803
O O12 0.114869 0.168014 0.177529
O O13 0.165105 0.329363 0.225969
O O14 0.000000 0.299818 0.162042
O O15 0.000000 0.107907 0.722425
O O16 0.110720 0.000000 0.824503
O O17 0.377044 0.794264 0.922297
O O18 0.210110 0.500000 0.564635
#
# Coordination Sequence:
#
# PCOD8307340 Si02
#       7
#     8   8   8   8   8   8   8
#     4  11  21  36  60  84 118 158 195 244 295 348
#     4  10  21  38  61  87 113 149 200 249 292 339
#     4  10  21  39  63  92 123 153 190 240 300 363
#     4  10  22  38  56  84 120 159 201 246 295 352
#     4   9  19  35  55  83 117 154 198 245 295 350
#     4  11  22  37  60  87 122 160 195 238 296 359
#     4  10  21  39  60  86 117 150 194 244 290 347
#
# _framework density 20.018663
#
# number of rings (size 3 to 8) (size 9 to 14) (size 15 to 20)
#    0.000    1.857    1.429    2.571    2.000    1.714 
#    0.000    5.714    0.000    3.000    0.000    0.000 
#    0.000    0.000    0.000    0.000    0.000    0.000 
#
# Total GULP energy -694137.559685 kJ/mol
# GULP energy per Si atom -12395.313566 kJ/mol
# Density = 1.997310 g / cm^3
# Si number density = 20.018663 Si / 1000 Ang^3
#
#
#
# Elastic Constant Matrix: (Units=GPa)
#
#
# Indices 1 2 3 4 5 6 
#
# 1 85.8867 57.5769 53.5540 0.0000 0.0000 0.0000
# 2 57.5769 85.8867 53.5540 0.0000 0.0000 0.0000
# 3 53.5540 53.5540 155.0117 0.0000 0.0000 0.0000
# 4 0.0000 0.0000 0.0000 19.5173 0.0000 0.0000
# 5 0.0000 0.0000 0.0000 0.0000 19.5173 0.0000
# 6 0.0000 0.0000 0.0000 0.0000 0.0000 16.9921
#
#
#
# Elastic Compliance Matrix: (Units=1/GPa)
#
#
# Indices 1 2 3 4 5 6 
#
# 1 0.022358 -0.012965 -0.003245 0.000000 0.000000 0.000000
# 2 -0.012965 0.022358 -0.003245 0.000000 0.000000 0.000000
# 3 -0.003245 -0.003245 0.008693 0.000000 0.000000 0.000000
# 4 0.000000 0.000000 0.000000 0.051237 0.000000 0.000000
# 5 0.000000 0.000000 0.000000 0.000000 0.051237 0.000000
# 6 0.000000 0.000000 0.000000 0.000000 0.000000 0.058851
#
#
# Mechanical properties :
#
#
# Convention : Reuss Voigt Hill
#
# Bulk Modulus (GPa) = 68.96979 72.90609 70.93794
# Shear Modulus (GPa) = 19.34398 22.01201 20.67800
#
# Velocity S-wave (km/s) = 3.11190 3.31958 3.21742
# Velocity P-wave (km/s) = 6.88763 7.15478 7.02248
#
# Compressibility (1/GPa) = 0.01449910
#
# Stress axis : x y z
#
# Youngs Moduli (GPa) = 44.72609 44.72609 115.02901
#
# Poissons Ratio (x) = 0.57988 0.37329
# Poissons Ratio (y) = 0.57988 0.37329
# Poissons Ratio (z) = 0.14515 0.14515
#
# Static dielectric constant tensor:
#      x y z
#    x 3.827180 0.000000 0.000000 
#    y 0.000000 3.827180 0.000000 
#    z 0.000000 0.000000 3.612400 
# 
# 
# High freq. dielectric constant tensor:
#      x y z
#    x 1.787830 0.000000 0.000000 
#    y 0.000000 1.787830 0.000000 
#    z 0.000000 0.000000 1.758540 
# 
# From -- ./inp_files/1930.got.cif
#   From: 2010.03.12/outbox.cif.g09.slc.cpg/sg105_1_cif.got.tgz:1930.got - 2010.04.14 01:45:32.
