data_PCOD8307456
_publ_section_title
;
Structure prediction by ZEFSAII (Michael W. Deem and Ramdas Pophale) SiO2 
 PCOD8307456
Probable space group: P 42 B C
;
_chemical_formula_sum "Si O2"
_cell_formula_units_Z 44
_cell_length_a 13.877819
_cell_length_b 13.877819
_cell_length_c 10.729986
_cell_angle_alpha 90.000000
_cell_angle_beta 90.000000
_cell_angle_gamma 90.000000
_cell_volume 2066.529424
_symmetry_space_group_name_H-M "P 42 B C"
_symmetry_group_IT_number 106
_symmetry_cell_setting 'tetragonal'
loop_
_space_group_symop_operation_xyz
x,y,z
-y,x,1/2+z
-x,-y,z
y,-x,1/2+z
1/2-x,1/2+y,z
1/2+x,1/2-y,z
1/2-y,1/2-x,1/2+z
1/2+y,1/2+x,1/2+z
loop_
_atom_site_type_symbol
_atom_site_label
_atom_site_fract_x
_atom_site_fract_y
_atom_site_fract_z
Si Si1 0.000000 0.000000 0.347641
Si Si2 0.128776 0.161483 0.955690
Si Si3 0.532101 0.139066 0.239907
Si Si4 0.532102 0.139066 0.955373
Si Si5 0.128776 0.161483 0.239591
Si Si6 0.162875 0.662875 0.347640
O O1 0.058718 0.071578 0.259481
O O2 0.928422 0.058718 0.435800
O O3 0.227517 0.146044 0.884255
O O4 0.076407 0.259015 0.913239
O O5 0.157510 0.168743 0.097640
O O6 0.563509 0.109498 0.097640
O O7 0.564708 0.064709 0.347640
O O8 0.576406 0.240985 0.282041
O O9 0.415653 0.144215 0.238870
O O10 0.415654 0.144216 0.956410
O O11 0.227517 0.146046 0.311027
#
# Coordination Sequence:
#
# PCOD8307456 Si02
#       6
#     4   8   8   8   8   8
#     4  12  22  48  68  98 132 180 230 292 342 412
#     4  11  24  42  68 101 135 176 226 280 342 409
#     4  11  25  45  69 101 138 178 227 278 339 407
#     4  11  25  45  69 101 138 178 227 278 339 407
#     4  11  24  42  68 101 135 176 226 280 342 409
#     4  12  23  44  68 101 136 178 224 284 340 407
#
# _framework density 21.291736
#
# number of rings (size 3 to 8) (size 9 to 14) (size 15 to 20)
#    0.000    0.727    5.455    2.182    0.000    4.364 
#    0.000    0.000    0.000    0.000    0.000    0.000 
#    0.000    0.000    0.000    0.000    0.000    0.000 
#
# Total GULP energy -545412.886774 kJ/mol
# GULP energy per Si atom -12395.747427 kJ/mol
# Density = 2.124328 g / cm^3
# Si number density = 21.291736 Si / 1000 Ang^3
#
#
#
# Elastic Constant Matrix: (Units=GPa)
#
#
# Indices 1 2 3 4 5 6 
#
# 1 119.2101 51.1249 29.8785 0.0000 0.0000 0.0000
# 2 51.1249 119.2101 29.8785 0.0000 0.0000 0.0000
# 3 29.8785 29.8785 84.5715 0.0000 0.0000 0.0000
# 4 0.0000 0.0000 0.0000 20.5080 0.0000 0.0000
# 5 0.0000 0.0000 0.0000 0.0000 20.5080 0.0000
# 6 0.0000 0.0000 0.0000 0.0000 0.0000 34.5821
#
#
#
# Elastic Compliance Matrix: (Units=1/GPa)
#
#
# Indices 1 2 3 4 5 6 
#
# 1 0.010694 -0.003993 -0.002368 0.000000 0.000000 0.000000
# 2 -0.003993 0.010694 -0.002368 0.000000 0.000000 0.000000
# 3 -0.002368 -0.002368 0.013497 0.000000 0.000000 0.000000
# 4 0.000000 0.000000 0.000000 0.048761 0.000000 0.000000
# 5 0.000000 0.000000 0.000000 0.000000 0.048761 0.000000
# 6 0.000000 0.000000 0.000000 0.000000 0.000000 0.028917
#
#
# Mechanical properties :
#
#
# Convention : Reuss Voigt Hill
#
# Bulk Modulus (GPa) = 57.37322 60.52841 58.95082
# Shear Modulus (GPa) = 27.08681 29.26028 28.17354
#
# Velocity S-wave (km/s) = 3.57063 3.71112 3.64155
# Velocity P-wave (km/s) = 6.63354 6.84493 6.74006
#
# Compressibility (1/GPa) = 0.01742973
#
# Stress axis : x y z
#
# Youngs Moduli (GPa) = 93.50667 93.50667 74.08949
#
# Poissons Ratio (x) = 0.37338 0.17541
# Poissons Ratio (y) = 0.37338 0.17541
# Poissons Ratio (z) = 0.22138 0.22138
#
# Static dielectric constant tensor:
#      x y z
#    x 4.051090 0.000000 0.000000 
#    y 0.000000 4.051090 0.000000 
#    z 0.000000 0.000000 3.862670 
# 
# 
# High freq. dielectric constant tensor:
#      x y z
#    x 1.852980 0.000000 0.000000 
#    y 0.000000 1.852980 0.000000 
#    z 0.000000 0.000000 1.820340 
# 
# From -- ./inp_files/889.got.cif
#   From: 2010.03.12/outbox.cif.g09.slc.cpg/sg106_cif.got.tgz:889.got - 2010.04.14 01:48:02.
