data_PCOD8307498
_publ_section_title
;
Structure prediction by ZEFSAII (Michael W. Deem and Ramdas Pophale) SiO2 
 PCOD8307498
Probable space group: I 4 M M
;
_chemical_formula_sum "Si O2"
_cell_formula_units_Z 96
_cell_length_a 19.434063
_cell_length_b 19.434063
_cell_length_c 15.020383
_cell_angle_alpha 90.000000
_cell_angle_beta 90.000000
_cell_angle_gamma 90.000000
_cell_volume 5672.940379
_symmetry_space_group_name_H-M "I 4 M M"
_symmetry_group_IT_number 107
_symmetry_cell_setting 'tetragonal'
loop_
_space_group_symop_operation_xyz
x,y,z
-y,x,z
-x,-y,z
y,-x,z
-x,y,z
x,-y,z
-y,-x,z
y,x,z
1/2+x,1/2+y,1/2+z
1/2-y,1/2+x,1/2+z
1/2-x,1/2-y,1/2+z
1/2+y,1/2-x,1/2+z
1/2-x,1/2+y,1/2+z
1/2+x,1/2-y,1/2+z
1/2-y,1/2-x,1/2+z
1/2+y,1/2+x,1/2+z
loop_
_atom_site_type_symbol
_atom_site_label
_atom_site_fract_x
_atom_site_fract_y
_atom_site_fract_z
Si Si1 0.721572 0.833979 0.158950
Si Si2 0.265060 0.621849 0.968986
Si Si3 0.423865 0.771871 0.156029
Si Si4 0.922283 0.189654 0.283027
Si Si5 0.577297 0.310591 0.329005
Si Si6 0.770455 0.341248 0.458492
O O1 0.760777 0.760777 0.173826
O O2 0.639253 0.824969 0.169182
O O3 0.746211 0.889464 0.230750
O O4 0.739234 0.863473 0.061324
O O5 0.314588 0.685413 0.991848
O O6 0.293386 0.576951 0.887776
O O7 0.189696 0.652911 0.944406
O O8 0.260352 0.575898 0.057166
O O9 0.500000 0.806475 0.170192
O O10 0.414236 0.710692 0.226452
O O11 0.879222 0.120779 0.262551
O O12 0.000000 0.177259 0.250946
O O13 0.500000 0.333033 0.350612
O O14 0.623969 0.376032 0.351028
O O15 0.595325 0.244973 0.392610
O O16 0.717195 0.282806 0.429455
#
# Coordination Sequence:
#
# PCOD8307498 Si02
#       6
#    16  16  16  16  16  16
#     4   9  17  31  50  69  91 120 156 196 236 278
#     4   9  16  28  47  69  94 121 149 183 226 277
#     4  10  18  28  46  71  96 120 150 191 233 273
#     4  10  20  32  48  70  95 125 158 191 228 272
#     4  10  19  29  42  62  90 123 157 191 228 271
#     4   8  15  28  46  66  85 110 148 194 236 270
#
# _framework density 16.922442
#
# number of rings (size 3 to 8) (size 9 to 14) (size 15 to 20)
#    0.000    2.667    0.000    4.000    0.000    3.667 
#    0.000    0.000    0.000    0.500    0.000    7.000 
#    0.000    4.000    0.000    0.000    0.000    0.000 
#
# Total GULP energy -594940.662654 kJ/mol
# GULP energy per Si atom -12394.597139 kJ/mol
# Density = 1.688393 g / cm^3
# Si number density = 16.922442 Si / 1000 Ang^3
#
#
#
# Elastic Constant Matrix: (Units=GPa)
#
#
# Indices 1 2 3 4 5 6 
#
# 1 93.3381 45.3211 36.5492 0.0000 0.0000 0.0001
# 2 45.3211 93.3381 36.5492 0.0000 0.0000 -0.0001
# 3 36.5492 36.5492 66.9882 0.0000 0.0000 0.0000
# 4 0.0000 0.0000 0.0000 17.8026 0.0000 0.0000
# 5 0.0000 0.0000 0.0000 0.0000 17.8026 0.0000
# 6 0.0001 -0.0001 0.0000 0.0000 0.0000 13.3404
#
#
#
# Elastic Compliance Matrix: (Units=1/GPa)
#
#
# Indices 1 2 3 4 5 6 
#
# 1 0.015475 -0.005351 -0.005524 0.000000 0.000000 0.000000
# 2 -0.005351 0.015475 -0.005524 0.000000 0.000000 0.000000
# 3 -0.005524 -0.005524 0.020956 0.000000 0.000000 0.000000
# 4 0.000000 0.000000 0.000000 0.056171 0.000000 0.000000
# 5 0.000000 0.000000 0.000000 0.000000 0.056171 0.000000
# 6 0.000000 0.000000 0.000000 0.000000 0.000000 0.074960
#
#
# Mechanical properties :
#
#
# Convention : Reuss Voigt Hill
#
# Bulk Modulus (GPa) = 52.33240 54.50039 53.41640
# Shear Modulus (GPa) = 17.96141 18.80546 18.38343
#
# Velocity S-wave (km/s) = 3.26144 3.33719 3.29953
# Velocity P-wave (km/s) = 6.72121 6.86477 6.79337
#
# Compressibility (1/GPa) = 0.01910862
#
# Stress axis : x y z
#
# Youngs Moduli (GPa) = 64.62062 64.62062 47.72016
#
# Poissons Ratio (x) = 0.34579 0.26359
# Poissons Ratio (y) = 0.34579 0.26359
# Poissons Ratio (z) = 0.35694 0.35694
#
# Static dielectric constant tensor:
#      x y z
#    x 3.004490 0.000000 0.000000 
#    y 0.000000 3.004490 0.000000 
#    z 0.000000 0.000000 3.325930 
# 
# 
# High freq. dielectric constant tensor:
#      x y z
#    x 1.624600 0.000000 0.000000 
#    y 0.000000 1.624600 0.000000 
#    z 0.000000 0.000000 1.670000 
# 
# From -- ./inp_files/3311.got.cif
#   From: 2010.03.12/outbox.cif.g09.slc.cpg/sg107_2_cif.got.tgz:3311.got - 2010.04.14 01:49:11.
