data_PCOD8307144
_publ_section_title
;
Structure prediction by ZEFSAII (Michael W. Deem and Ramdas Pophale) SiO2 
 PCOD8307144
Probable space group: P 42 M C
;
_chemical_formula_sum "Si O2"
_cell_formula_units_Z 48
_cell_length_a 8.143821
_cell_length_b 8.143821
_cell_length_c 34.173515
_cell_angle_alpha 90.000000
_cell_angle_beta 90.000000
_cell_angle_gamma 90.000000
_cell_volume 2266.449727
_symmetry_space_group_name_H-M "P 42 M C"
_symmetry_group_IT_number 105
_symmetry_cell_setting 'tetragonal'
loop_
_space_group_symop_operation_xyz
x,y,z
-y,x,1/2+z
-x,-y,z
y,-x,1/2+z
-x,y,z
x,-y,z
-y,-x,1/2+z
y,x,1/2+z
loop_
_atom_site_type_symbol
_atom_site_label
_atom_site_fract_x
_atom_site_fract_y
_atom_site_fract_z
Si Si1 0.195234 0.000000 0.059291
Si Si2 0.000000 0.304756 0.647932
Si Si3 0.691377 0.813690 0.938255
Si Si4 0.306719 0.819044 0.776165
Si Si5 0.679735 0.809420 0.515759
Si Si6 0.695316 0.316241 0.856756
Si Si7 0.684039 0.310796 0.693612
O O1 0.248896 0.000000 0.103701
O O2 0.270334 0.834198 0.039205
O O3 0.000000 0.000000 0.054917
O O4 0.168160 0.232718 0.667654
O O5 0.000000 0.500000 0.652236
O O6 0.500000 0.769809 0.939908
O O7 0.759251 0.784403 0.894390
O O8 0.727134 0.000000 0.950082
O O9 0.783367 0.699926 0.969365
O O10 0.500000 0.824163 0.782286
O O11 0.226875 0.751913 0.816360
O O12 0.263211 0.706932 0.738955
O O13 0.236260 0.000000 0.767926
O O14 0.500000 0.735474 0.528264
O O15 0.677226 0.000000 0.525290
O O16 0.500000 0.306370 0.854365
O O17 0.757958 0.500000 0.862185
O O18 0.500000 0.230839 0.686103
O O19 0.669511 0.500000 0.683080
#
# Coordination Sequence:
#
# PCOD8307144 Si02
#       7
#     4   4   8   8   8   8   8
#     4  10  22  40  58  80 108 140 178 224 280 336
#     4  10  22  38  58  84 112 140 176 226 278 334
#     4  10  19  31  51  80 112 145 185 233 283 335
#     4   9  16  27  46  73 104 139 181 224 267 319
#     4  10  21  38  59  80 106 145 187 226 278 343
#     4   9  16  26  43  71 107 145 184 228 277 328
#     4   9  18  34  55  78 106 142 178 215 271 336
#
# _framework density 21.178498999999999
#
# number of rings (size 3 to 8) (size 9 to 14) (size 15 to 20)
#    0.000    2.500    0.833    1.500    0.000    7.000 
#    0.000    0.000    1.833    0.000    0.000    0.000 
#    0.000    0.000    0.000    0.000    0.000    0.000 
#
# Total GULP energy -594802.036698 kJ/mol
# GULP energy per Si atom -12391.709098 kJ/mol
# Density = 2.113030 g / cm^3
# Si number density = 21.178499 Si / 1000 Ang^3
#
#
#
# Elastic Constant Matrix: (Units=GPa)
#
#
# Indices 1 2 3 4 5 6 
#
# 1 77.0193 23.5792 41.0780 0.0000 0.0000 0.0000
# 2 23.5792 77.0193 41.0780 0.0000 0.0000 0.0000
# 3 41.0780 41.0780 150.2385 0.0000 0.0000 0.0000
# 4 0.0000 0.0000 0.0000 19.6830 0.0000 0.0000
# 5 0.0000 0.0000 0.0000 0.0000 19.6830 0.0000
# 6 0.0000 0.0000 0.0000 0.0000 0.0000 9.4356
#
#
#
# Elastic Compliance Matrix: (Units=1/GPa)
#
#
# Indices 1 2 3 4 5 6 
#
# 1 0.015755 -0.002957 -0.003499 0.000000 0.000000 0.000000
# 2 -0.002957 0.015755 -0.003499 0.000000 0.000000 0.000000
# 3 -0.003499 -0.003499 0.008570 0.000000 0.000000 0.000000
# 4 0.000000 0.000000 0.000000 0.050805 0.000000 0.000000
# 5 0.000000 0.000000 0.000000 0.000000 0.050805 0.000000
# 6 0.000000 0.000000 0.000000 0.000000 0.000000 0.105981
#
#
# Mechanical properties :
#
#
# Convention : Reuss Voigt Hill
#
# Bulk Modulus (GPa) = 49.58098 57.30528 53.44313
# Shear Modulus (GPa) = 18.22777 22.99645 20.61211
#
# Velocity S-wave (km/s) = 2.93691 3.29878 3.12309
# Velocity P-wave (km/s) = 5.91290 6.45184 6.18824
#
# Compressibility (1/GPa) = 0.02016903
#
# Stress axis : x y z
#
# Youngs Moduli (GPa) = 63.47030 63.47030 116.69132
#
# Poissons Ratio (x) = 0.18769 0.40834
# Poissons Ratio (y) = 0.18769 0.40834
# Poissons Ratio (z) = 0.22210 0.22210
#
# Static dielectric constant tensor:
#      x y z
#    x 3.839150 0.000000 0.000000 
#    y 0.000000 3.839150 0.000000 
#    z 0.000000 0.000000 3.884350 
# 
# 
# High freq. dielectric constant tensor:
#      x y z
#    x 1.808650 0.000000 0.000000 
#    y 0.000000 1.808650 0.000000 
#    z 0.000000 0.000000 1.830390 
# 
# From -- ./inp_files/4808.got.cif
#   From: 2010.03.12/outbox.cif.g09.slc.cpg/sg105_3_cif.got.tgz:4808.got - 2010.04.14 01:45:32.
