data_PCOD8307642
_publ_section_title
;
Structure prediction by ZEFSAII (Michael W. Deem and Ramdas Pophale) SiO2 
 PCOD8307642
Probable space group: I 4 M M
;
_chemical_formula_sum "Si O2"
_cell_formula_units_Z 88
_cell_length_a 15.256918
_cell_length_b 15.256918
_cell_length_c 19.003364
_cell_angle_alpha 90.000000
_cell_angle_beta 90.000000
_cell_angle_gamma 90.000000
_cell_volume 4423.480441
_symmetry_space_group_name_H-M "I 4 M M"
_symmetry_group_IT_number 107
_symmetry_cell_setting 'tetragonal'
loop_
_space_group_symop_operation_xyz
x,y,z
-y,x,z
-x,-y,z
y,-x,z
-x,y,z
x,-y,z
-y,-x,z
y,x,z
1/2+x,1/2+y,1/2+z
1/2-y,1/2+x,1/2+z
1/2-x,1/2-y,1/2+z
1/2+y,1/2-x,1/2+z
1/2-x,1/2+y,1/2+z
1/2+x,1/2-y,1/2+z
1/2-y,1/2-x,1/2+z
1/2+y,1/2+x,1/2+z
loop_
_atom_site_type_symbol
_atom_site_label
_atom_site_fract_x
_atom_site_fract_y
_atom_site_fract_z
Si Si1 0.236768 0.098671 0.574230
Si Si2 0.500000 0.198600 0.452318
Si Si3 0.601510 0.256049 0.800300
Si Si4 0.899885 0.337225 0.439755
Si Si5 0.100627 0.351299 0.701295
Si Si6 0.000000 0.145811 0.046296
Si Si7 0.328313 0.000000 0.105465
O O1 0.146244 0.146244 0.563149
O O2 0.306868 0.134611 0.516764
O O3 0.261853 0.107631 0.656704
O O4 0.219182 0.000000 0.551952
O O5 0.412926 0.166723 0.411905
O O6 0.500000 0.303145 0.470346
O O7 0.500000 0.141395 0.524633
O O8 0.500000 0.268233 0.775405
O O9 0.658015 0.341986 0.779097
O O10 0.606811 0.242281 0.883962
O O11 0.643145 0.168567 0.765297
O O12 0.000000 0.372134 0.441695
O O13 0.128982 0.418056 0.641898
O O14 0.000000 0.366962 0.727639
O O15 0.086929 0.086929 0.052590
O O16 0.000000 0.220272 0.107890
#
# Coordination Sequence:
#
# PCOD8307642 Si02
#       7
#    16   8  16  16  16   8   8
#     4  10  20  35  57  83 113 149 190 238 287 340
#     4  10  20  34  60  87 112 148 188 246 297 350
#     4  11  25  42  60  86 119 158 196 238 291 354
#     4  10  21  36  57  86 116 147 189 242 295 351
#     4  11  22  38  60  86 117 150 189 242 298 346
#     4   9  20  36  53  82 122 160 199 239 288 351
#     4  10  20  34  58  87 112 148 185 234 292 347
#
# _framework density 19.893837000000001
#
# number of rings (size 3 to 8) (size 9 to 14) (size 15 to 20)
#    0.545    1.182    2.727    1.636    1.273    5.455 
#    0.000    0.000    0.000    3.273    0.000    0.000 
#    0.000    0.000    0.000    0.000    0.000    0.182 
#
# Total GULP energy -545144.323381 kJ/mol
# GULP energy per Si atom -12389.643713 kJ/mol
# Density = 1.984856 g / cm^3
# Si number density = 19.893837 Si / 1000 Ang^3
#
#
#
# Elastic Constant Matrix: (Units=GPa)
#
#
# Indices 1 2 3 4 5 6 
#
# 1 95.2456 68.1408 18.0536 0.0000 0.0000 -0.0012
# 2 68.1408 95.2456 18.0536 0.0000 0.0000 0.0012
# 3 18.0536 18.0536 63.2726 0.0000 0.0000 0.0000
# 4 0.0000 0.0000 0.0000 24.3091 0.0000 0.0000
# 5 0.0000 0.0000 0.0000 0.0000 24.3091 0.0000
# 6 -0.0012 0.0012 0.0000 0.0000 0.0000 18.0466
#
#
#
# Elastic Compliance Matrix: (Units=1/GPa)
#
#
# Indices 1 2 3 4 5 6 
#
# 1 0.021713 -0.015181 -0.001864 0.000000 0.000000 0.000002
# 2 -0.015181 0.021713 -0.001864 0.000000 0.000000 -0.000002
# 3 -0.001864 -0.001864 0.016868 0.000000 0.000000 0.000000
# 4 0.000000 0.000000 0.000000 0.041137 0.000000 0.000000
# 5 0.000000 0.000000 0.000000 0.000000 0.041137 0.000000
# 6 0.000002 -0.000002 0.000000 0.000000 0.000000 0.055412
#
#
# Mechanical properties :
#
#
# Convention : Reuss Voigt Hill
#
# Bulk Modulus (GPa) = 44.48896 51.36217 47.92556
# Shear Modulus (GPa) = 20.55162 23.30068 21.92615
#
# Velocity S-wave (km/s) = 3.21762 3.42607 3.32348
# Velocity P-wave (km/s) = 6.01796 6.44397 6.23460
#
# Compressibility (1/GPa) = 0.02247749
#
# Stress axis : x y z
#
# Youngs Moduli (GPa) = 46.05515 46.05515 59.28288
#
# Poissons Ratio (x) = 0.69915 0.11050
# Poissons Ratio (y) = 0.69915 0.11050
# Poissons Ratio (z) = 0.08584 0.08584
#
# Static dielectric constant tensor:
#      x y z
#    x 3.364330 0.000000 0.000000 
#    y 0.000000 3.364330 0.000000 
#    z 0.000000 0.000000 3.437190 
# 
# 
# High freq. dielectric constant tensor:
#      x y z
#    x 1.766200 0.000000 0.000000 
#    y 0.000000 1.766200 0.000000 
#    z 0.000000 0.000000 1.765420 
# 
# From -- ./inp_files/4704.got.cif
#   From: 2010.03.12/outbox.cif.g09.slc.cpg/sg107_3_cif.got.tgz:4704.got - 2010.04.14 01:49:11.
