data_PCOD8307704
_publ_section_title
;
Structure prediction by ZEFSAII (Michael W. Deem and Ramdas Pophale) SiO2 
 PCOD8307704
Probable space group: I 4 C M
;
_chemical_formula_sum "Si O2"
_cell_formula_units_Z 112
_cell_length_a 16.215838
_cell_length_b 16.215838
_cell_length_c 26.014943
_cell_angle_alpha 90.000000
_cell_angle_beta 90.000000
_cell_angle_gamma 90.000000
_cell_volume 6840.717766
_symmetry_space_group_name_H-M "I 4 C M"
_symmetry_group_IT_number 108
_symmetry_cell_setting 'tetragonal'
loop_
_space_group_symop_operation_xyz
x,y,z
-y,x,z
-x,-y,z
y,-x,z
-x,y,1/2+z
x,-y,1/2+z
-y,-x,1/2+z
y,x,1/2+z
1/2+x,1/2+y,1/2+z
1/2-y,1/2+x,1/2+z
1/2-x,1/2-y,1/2+z
1/2+y,1/2-x,1/2+z
1/2-x,1/2+y,z
1/2+x,1/2-y,z
1/2-y,1/2-x,z
1/2+y,1/2+x,z
loop_
_atom_site_type_symbol
_atom_site_label
_atom_site_fract_x
_atom_site_fract_y
_atom_site_fract_z
Si Si1 0.941123 0.119145 0.610870
Si Si2 0.929229 0.708658 0.952996
Si Si3 0.004488 0.633850 0.857208
Si Si4 0.133575 0.504065 0.050710
Si Si5 0.558876 0.380855 0.990547
Si Si6 0.495513 0.133850 0.244211
Si Si7 0.070774 0.291340 0.148423
O O1 0.931897 0.136700 0.550709
O O2 0.903208 0.195874 0.642565
O O3 0.037224 0.108742 0.625826
O O4 0.847406 0.652595 0.953553
O O5 0.981024 0.699845 0.900527
O O6 0.903209 0.804125 0.958854
O O7 0.990669 0.687465 0.999816
O O8 0.940337 0.559664 0.858935
O O9 0.095416 0.595416 0.867742
O O10 0.000000 0.676152 0.800709
O O11 0.096831 0.596831 0.050711
O O12 0.187467 0.490668 0.101604
O O13 0.059049 0.440952 0.050711
O O14 0.608742 0.462776 0.975591
O O15 0.559663 0.059663 0.242484
O O16 0.518979 0.199845 0.200893
O O17 0.404585 0.095416 0.233676
O O18 0.152598 0.347403 0.147865
#
# Coordination Sequence:
#
# PCOD8307704 Si02
#       7
#    16  16  16  16  16  16  16
#     4   9  18  33  50  64  86 124 162 186 214 269
#     4  10  17  27  46  69  94 118 145 189 235 269
#     4   8  14  25  42  65  93 126 159 184 217 275
#     4   9  16  24  36  61  96 124 139 164 222 286
#     4   9  18  33  50  64  86 124 162 186 214 269
#     4   8  14  25  42  65  93 126 159 184 217 275
#     4  10  17  27  46  69  94 118 145 189 235 269
#
# _framework density 16.372551000000001
#
# number of rings (size 3 to 8) (size 9 to 14) (size 15 to 20)
#    0.000    3.000    1.429    2.571    0.000    3.429 
#    0.000    2.857    0.000    1.714    0.000    8.000 
#    0.000    0.000    0.000    0.000    0.000    0.000 
#
# Total GULP energy -694095.533764 kJ/mol
# GULP energy per Si atom -12394.563103 kJ/mol
# Density = 1.633529 g / cm^3
# Si number density = 16.372551 Si / 1000 Ang^3
#
#
#
# Elastic Constant Matrix: (Units=GPa)
#
#
# Indices 1 2 3 4 5 6 
#
# 1 68.8233 16.6532 27.6582 0.0000 0.0000 0.0000
# 2 16.6532 68.8233 27.6582 0.0000 0.0000 0.0000
# 3 27.6582 27.6582 102.0658 0.0000 0.0000 0.0000
# 4 0.0000 0.0000 0.0000 15.1621 0.0000 0.0000
# 5 0.0000 0.0000 0.0000 0.0000 15.1621 0.0000
# 6 0.0000 0.0000 0.0000 0.0000 0.0000 11.1725
#
#
#
# Elastic Compliance Matrix: (Units=1/GPa)
#
#
# Indices 1 2 3 4 5 6 
#
# 1 0.016678 -0.002490 -0.003844 0.000000 0.000000 0.000000
# 2 -0.002490 0.016678 -0.003844 0.000000 0.000000 0.000000
# 3 -0.003844 -0.003844 0.011881 0.000000 0.000000 0.000000
# 4 0.000000 0.000000 0.000000 0.065954 0.000000 0.000000
# 5 0.000000 0.000000 0.000000 0.000000 0.065954 0.000000
# 6 0.000000 0.000000 0.000000 0.000000 0.000000 0.089506
#
#
# Mechanical properties :
#
#
# Convention : Reuss Voigt Hill
#
# Bulk Modulus (GPa) = 40.19701 42.62794 41.41248
# Shear Modulus (GPa) = 16.93190 19.48221 18.20705
#
# Velocity S-wave (km/s) = 3.21933 3.45328 3.33836
# Velocity P-wave (km/s) = 6.19867 6.48020 6.34100
#
# Compressibility (1/GPa) = 0.02487747
#
# Stress axis : x y z
#
# Youngs Moduli (GPa) = 59.96074 59.96074 84.16672
#
# Poissons Ratio (x) = 0.14933 0.32358
# Poissons Ratio (y) = 0.14933 0.32358
# Poissons Ratio (z) = 0.23052 0.23052
#
# Static dielectric constant tensor:
#      x y z
#    x 2.896610 0.000000 0.000000 
#    y 0.000000 2.896610 0.000000 
#    z 0.000000 0.000000 3.295300 
# 
# 
# High freq. dielectric constant tensor:
#      x y z
#    x 1.603990 0.000000 0.000000 
#    y 0.000000 1.603990 0.000000 
#    z 0.000000 0.000000 1.622200 
# 
# From -- ./inp_files/3253.got.cif
#   From: 2010.03.12/outbox.cif.g09.slc.cpg/sg108_2_cif.got.tgz:3253.got - 2010.04.14 01:53:11.
