data_PCOD8307231
_publ_section_title
;
Structure prediction by ZEFSAII (Michael W. Deem and Ramdas Pophale) SiO2 
 PCOD8307231
Probable space group: P 42 M C
;
_chemical_formula_sum "Si O2"
_cell_formula_units_Z 48
_cell_length_a 9.433438
_cell_length_b 9.433438
_cell_length_c 27.872861
_cell_angle_alpha 90.000000
_cell_angle_beta 90.000000
_cell_angle_gamma 90.000000
_cell_volume 2480.399002
_symmetry_space_group_name_H-M "P 42 M C"
_symmetry_group_IT_number 105
_symmetry_cell_setting 'tetragonal'
loop_
_space_group_symop_operation_xyz
x,y,z
-y,x,1/2+z
-x,-y,z
y,-x,1/2+z
-x,y,z
x,-y,z
-y,-x,1/2+z
y,x,1/2+z
loop_
_atom_site_type_symbol
_atom_site_label
_atom_site_fract_x
_atom_site_fract_y
_atom_site_fract_z
Si Si1 0.829974 0.500000 0.806370
Si Si2 0.743424 0.664311 0.260582
Si Si3 0.658008 0.000000 0.830916
Si Si4 0.673282 0.500000 0.907498
Si Si5 0.334300 0.658431 0.568502
Si Si6 0.157149 0.332440 0.154814
Si Si7 0.711285 0.834384 0.473622
Si Si8 0.155952 0.000000 0.924213
O O1 0.782781 0.368882 0.774373
O O2 0.736486 0.500000 0.854438
O O3 0.000000 0.500000 0.816512
O O4 0.688702 0.500000 0.261910
O O5 0.794570 0.707219 0.208009
O O6 0.865386 0.688119 0.298756
O O7 0.500000 0.000000 0.850398
O O8 0.746908 0.000000 0.878558
O O9 0.500000 0.500000 0.906946
O O10 0.735789 0.365492 0.934828
O O11 0.500000 0.638330 0.575371
O O12 0.267648 0.500000 0.560723
O O13 0.268742 0.731334 0.616287
O O14 0.307545 0.766500 0.525432
O O15 0.149586 0.500000 0.148947
O O16 0.000000 0.268584 0.145671
O O17 0.872656 0.820487 0.460174
O O18 0.659359 0.000000 0.473293
O O19 0.000000 0.000000 0.901704
#
# Coordination Sequence:
#
# PCOD8307231 Si02
#       8
#     4   8   4   4   8   8   8   4
#     4  12  26  40  56  84 122 164 202 240 303 368
#     4  10  20  37  61  88 118 150 196 250 303 359
#     4  10  20  36  60  90 116 146 192 250 299 360
#     4  12  24  40  62  90 122 158 206 260 305 366
#     4  10  20  33  55  90 123 154 199 252 304 358
#     4   9  17  32  57  87 116 148 192 246 306 362
#     4  11  22  39  61  86 123 163 204 250 305 365
#     4  10  24  40  58  86 118 160 204 242 291 360
#
# _framework density 19.351723
#
# number of rings (size 3 to 8) (size 9 to 14) (size 15 to 20)
#    0.000    1.667    1.667    3.500    1.167    5.333 
#    0.000    0.000    1.833    0.000    0.000    0.000 
#    0.000    0.000    0.000    0.000    0.000    0.000 
#
# Total GULP energy -594876.432054 kJ/mol
# GULP energy per Si atom -12393.259001 kJ/mol
# Density = 1.930768 g / cm^3
# Si number density = 19.351723 Si / 1000 Ang^3
#
#
#
# Elastic Constant Matrix: (Units=GPa)
#
#
# Indices 1 2 3 4 5 6 
#
# 1 115.2119 43.6041 35.9206 0.0000 0.0000 0.0000
# 2 43.6041 115.2119 35.9206 0.0000 0.0000 0.0000
# 3 35.9206 35.9206 103.0842 0.0000 0.0000 0.0000
# 4 0.0000 0.0000 0.0000 31.0030 0.0000 0.0000
# 5 0.0000 0.0000 0.0000 0.0000 31.0030 0.0000
# 6 0.0000 0.0000 0.0000 0.0000 0.0000 29.7165
#
#
#
# Elastic Compliance Matrix: (Units=1/GPa)
#
#
# Indices 1 2 3 4 5 6 
#
# 1 0.010720 -0.003245 -0.002605 0.000000 0.000000 0.000000
# 2 -0.003245 0.010720 -0.002605 0.000000 0.000000 0.000000
# 3 -0.002605 -0.002605 0.011516 0.000000 0.000000 0.000000
# 4 0.000000 0.000000 0.000000 0.032255 0.000000 0.000000
# 5 0.000000 0.000000 0.000000 0.000000 0.032255 0.000000
# 6 0.000000 0.000000 0.000000 0.000000 0.000000 0.033651
#
#
# Mechanical properties :
#
#
# Convention : Reuss Voigt Hill
#
# Bulk Modulus (GPa) = 62.31685 62.71096 62.51390
# Shear Modulus (GPa) = 32.59988 32.88203 32.74095
#
# Velocity S-wave (km/s) = 4.10884 4.12658 4.11772
# Velocity P-wave (km/s) = 7.40150 7.42840 7.41496
#
# Compressibility (1/GPa) = 0.01604703
#
# Stress axis : x y z
#
# Youngs Moduli (GPa) = 93.28454 93.28454 86.83532
#
# Poissons Ratio (x) = 0.30271 0.22618
# Poissons Ratio (y) = 0.30271 0.22618
# Poissons Ratio (z) = 0.24298 0.24298
#
# Static dielectric constant tensor:
#      x y z
#    x 3.559320 0.000000 0.000000 
#    y 0.000000 3.559320 0.000000 
#    z 0.000000 0.000000 3.680830 
# 
# 
# High freq. dielectric constant tensor:
#      x y z
#    x 1.744960 0.000000 0.000000 
#    y 0.000000 1.744960 0.000000 
#    z 0.000000 0.000000 1.768910 
# 
# From -- ./inp_files/4915.got.cif
#   From: 2010.03.12/outbox.cif.g09.slc.cpg/sg105_3_cif.got.tgz:4915.got - 2010.04.14 01:45:32.
