data_PCOD8307706
_publ_section_title
;
Structure prediction by ZEFSAII (Michael W. Deem and Ramdas Pophale) SiO2 
 PCOD8307706
Probable space group: I 4 C M
;
_chemical_formula_sum "Si O2"
_cell_formula_units_Z 96
_cell_length_a 32.465827
_cell_length_b 32.465827
_cell_length_c 5.221790
_cell_angle_alpha 90.000000
_cell_angle_beta 90.000000
_cell_angle_gamma 90.000000
_cell_volume 5503.922911
_symmetry_space_group_name_H-M "I 4 C M"
_symmetry_group_IT_number 108
_symmetry_cell_setting 'tetragonal'
loop_
_space_group_symop_operation_xyz
x,y,z
-y,x,z
-x,-y,z
y,-x,z
-x,y,1/2+z
x,-y,1/2+z
-y,-x,1/2+z
y,x,1/2+z
1/2+x,1/2+y,1/2+z
1/2-y,1/2+x,1/2+z
1/2-x,1/2-y,1/2+z
1/2+y,1/2-x,1/2+z
1/2-x,1/2+y,z
1/2+x,1/2-y,z
1/2-y,1/2-x,z
1/2+y,1/2+x,z
loop_
_atom_site_type_symbol
_atom_site_label
_atom_site_fract_x
_atom_site_fract_y
_atom_site_fract_z
Si Si1 0.789041 0.289041 0.356378
Si Si2 0.149945 0.226553 0.958790
Si Si3 0.019970 0.174774 0.940115
Si Si4 0.112019 0.735670 0.958162
Si Si5 0.515593 0.766211 0.932834
Si Si6 0.388717 0.356148 0.420937
Si Si7 0.674866 0.174866 0.356844
O O1 0.802244 0.241769 0.421041
O O2 0.816295 0.316295 0.557523
O O3 0.797876 0.297876 0.057521
O O4 0.122266 0.249484 0.744263
O O5 0.147869 0.177653 0.917495
O O6 0.134115 0.236260 0.244607
O O7 0.068696 0.168503 0.929934
O O8 0.998759 0.153471 0.693862
O O9 0.009506 0.223102 0.948089
O O10 0.063872 0.740037 0.914511
O O11 0.127531 0.688026 0.918028
O O12 0.498083 0.790978 0.687353
O O13 0.383960 0.385667 0.666887
#
# Coordination Sequence:
#
# PCOD8307706 Si02
#       7
#     8  16  16  16  16  16   8
#     4   8  16  28  46  65  84 120 172 208 230 262
#     4  10  18  32  48  65  92 128 164 203 239 273
#     4  10  19  34  53  72  93 123 153 187 233 285
#     4  10  17  30  49  71  95 125 166 202 242 282
#     4  10  18  27  44  69  92 120 157 196 234 280
#     4  12  24  36  50  74 104 129 155 193 246 295
#     4   8  16  26  44  69  94 122 158 207 242 275
#
# _framework density 17.442104
#
# number of rings (size 3 to 8) (size 9 to 14) (size 15 to 20)
#    0.000    2.000    0.000    7.000    0.000    0.000 
#    0.000    0.833    0.000    0.000    0.000    0.000 
#    0.000   23.333    0.000    0.000    0.000    2.500 
#
# Total GULP energy -594632.806679 kJ/mol
# GULP energy per Si atom -12388.183472 kJ/mol
# Density = 1.740240 g / cm^3
# Si number density = 17.442104 Si / 1000 Ang^3
#
#
#
# Elastic Constant Matrix: (Units=GPa)
#
#
# Indices 1 2 3 4 5 6 
#
# 1 50.2005 24.7385 15.8945 0.0000 0.0000 0.0000
# 2 24.7385 50.2005 15.8945 0.0000 0.0000 0.0000
# 3 15.8945 15.8945 139.9445 0.0000 0.0000 0.0000
# 4 0.0000 0.0000 0.0000 18.2027 0.0000 0.0000
# 5 0.0000 0.0000 0.0000 0.0000 18.2027 0.0000
# 6 0.0000 0.0000 0.0000 0.0000 0.0000 14.4946
#
#
#
# Elastic Compliance Matrix: (Units=1/GPa)
#
#
# Indices 1 2 3 4 5 6 
#
# 1 0.026647 -0.012627 -0.001592 0.000000 0.000000 0.000000
# 2 -0.012627 0.026647 -0.001592 0.000000 0.000000 0.000000
# 3 -0.001592 -0.001592 0.007507 0.000000 0.000000 0.000000
# 4 0.000000 0.000000 0.000000 0.054937 0.000000 0.000000
# 5 0.000000 0.000000 0.000000 0.000000 0.054937 0.000000
# 6 0.000000 0.000000 0.000000 0.000000 0.000000 0.068991
#
#
# Mechanical properties :
#
#
# Convention : Reuss Voigt Hill
#
# Bulk Modulus (GPa) = 34.27307 39.26672 36.76989
# Shear Modulus (GPa) = 17.79262 22.43455 20.11358
#
# Velocity S-wave (km/s) = 3.19736 3.59030 3.39951
# Velocity P-wave (km/s) = 5.77261 6.30464 6.04448
#
# Compressibility (1/GPa) = 0.02917743
#
# Stress axis : x y z
#
# Youngs Moduli (GPa) = 37.52786 37.52786 133.20204
#
# Poissons Ratio (x) = 0.47387 0.21210
# Poissons Ratio (y) = 0.47387 0.21210
# Poissons Ratio (z) = 0.05976 0.05976
#
# Static dielectric constant tensor:
#      x y z
#    x 3.023980 0.000000 0.000000 
#    y 0.000000 3.023980 0.000000 
#    z 0.000000 0.000000 5.101750 
# 
# 
# High freq. dielectric constant tensor:
#      x y z
#    x 1.629170 0.000000 0.000000 
#    y 0.000000 1.629170 0.000000 
#    z 0.000000 0.000000 1.721530 
# 
# From -- ./inp_files/198.got.cif
#   From: 2010.03.12/outbox.cif.g09.slc.cpg/sg108_1_cif.got.tgz:198.got - 2010.04.14 01:53:11.
