data_PCOD8307787
_publ_section_title
;
Structure prediction by ZEFSAII (Michael W. Deem and Ramdas Pophale) SiO2 
 PCOD8307787
Probable space group: I 4 C M
;
_chemical_formula_sum "Si O2"
_cell_formula_units_Z 80
_cell_length_a 13.029510
_cell_length_b 13.029510
_cell_length_c 21.839877
_cell_angle_alpha 90.000000
_cell_angle_beta 90.000000
_cell_angle_gamma 90.000000
_cell_volume 3707.715096
_symmetry_space_group_name_H-M "I 4 C M"
_symmetry_group_IT_number 108
_symmetry_cell_setting 'tetragonal'
loop_
_space_group_symop_operation_xyz
x,y,z
-y,x,z
-x,-y,z
y,-x,z
-x,y,1/2+z
x,-y,1/2+z
-y,-x,1/2+z
y,x,1/2+z
1/2+x,1/2+y,1/2+z
1/2-y,1/2+x,1/2+z
1/2-x,1/2-y,1/2+z
1/2+y,1/2-x,1/2+z
1/2-x,1/2+y,z
1/2+x,1/2-y,z
1/2-y,1/2-x,z
1/2+y,1/2+x,z
loop_
_atom_site_type_symbol
_atom_site_label
_atom_site_fract_x
_atom_site_fract_y
_atom_site_fract_z
Si Si1 0.215256 0.879056 0.251930
Si Si2 0.577072 0.241818 0.822055
Si Si3 0.741818 0.077072 0.070733
Si Si4 0.482399 0.330801 0.446394
Si Si5 0.784744 0.120944 0.640858
O O1 0.318200 0.818200 0.233316
O O2 0.162161 0.830325 0.312253
O O3 0.132949 0.867051 0.196394
O O4 0.247930 0.995098 0.266754
O O5 0.629706 0.129706 0.818936
O O6 0.524248 0.257260 0.887567
O O7 0.629706 0.129706 0.073852
O O8 0.830325 0.162161 0.080535
O O9 0.752070 0.995098 0.126035
O O10 0.757260 0.024248 0.005221
O O11 0.589961 0.388649 0.446394
O O12 0.681800 0.181800 0.659472
#
# Coordination Sequence:
#
# PCOD8307787 Si02
#       5
#    16  16  16  16  16
#     4  10  22  40  62  92 127 164 214 271 329 394
#     4  11  22  39  63  91 129 172 216 272 333 392
#     4  11  22  39  63  91 129 172 216 272 333 392
#     4  11  21  38  62  91 130 172 226 281 332 384
#     4  10  22  40  62  92 127 164 214 271 329 394
#
# _framework density 21.576630000000002
#
# number of rings (size 3 to 8) (size 9 to 14) (size 15 to 20)
#    0.000    1.400    4.000    1.800    0.000    1.600 
#    0.000    3.000    0.000    9.600    0.000    0.000 
#    0.000    0.000    0.000    0.000    0.000    0.000 
#
# Total GULP energy -495937.209444 kJ/mol
# GULP energy per Si atom -12398.430236 kJ/mol
# Density = 2.152752 g / cm^3
# Si number density = 21.576630 Si / 1000 Ang^3
#
#
#
# Elastic Constant Matrix: (Units=GPa)
#
#
# Indices 1 2 3 4 5 6 
#
# 1 106.0842 60.2001 41.6468 0.0000 0.0000 0.0000
# 2 60.2001 106.0842 41.6468 0.0000 0.0000 0.0000
# 3 41.6468 41.6468 115.7220 0.0000 0.0000 0.0000
# 4 0.0000 0.0000 0.0000 30.8243 0.0000 0.0000
# 5 0.0000 0.0000 0.0000 0.0000 30.8243 0.0000
# 6 0.0000 0.0000 0.0000 0.0000 0.0000 30.5242
#
#
#
# Elastic Compliance Matrix: (Units=1/GPa)
#
#
# Indices 1 2 3 4 5 6 
#
# 1 0.014565 -0.007229 -0.002640 0.000000 0.000000 0.000000
# 2 -0.007229 0.014565 -0.002640 0.000000 0.000000 0.000000
# 3 -0.002640 -0.002640 0.010542 0.000000 0.000000 0.000000
# 4 0.000000 0.000000 0.000000 0.032442 0.000000 0.000000
# 5 0.000000 0.000000 0.000000 0.000000 0.032442 0.000000
# 6 0.000000 0.000000 0.000000 0.000000 0.000000 0.032761
#
#
# Mechanical properties :
#
#
# Convention : Reuss Voigt Hill
#
# Bulk Modulus (GPa) = 68.24333 68.31975 68.28154
# Shear Modulus (GPa) = 29.90074 30.72769 30.31421
#
# Velocity S-wave (km/s) = 3.72666 3.77784 3.75234
# Velocity P-wave (km/s) = 7.08621 7.12474 7.10550
#
# Compressibility (1/GPa) = 0.01465345
#
# Stress axis : x y z
#
# Youngs Moduli (GPa) = 68.65697 68.65697 94.86066
#
# Poissons Ratio (x) = 0.49631 0.25046
# Poissons Ratio (y) = 0.49631 0.25046
# Poissons Ratio (z) = 0.18127 0.18127
#
# Static dielectric constant tensor:
#      x y z
#    x 3.679250 0.000000 0.000000 
#    y 0.000000 3.679250 0.000000 
#    z 0.000000 0.000000 3.843140 
# 
# 
# High freq. dielectric constant tensor:
#      x y z
#    x 1.830730 0.000000 0.000000 
#    y 0.000000 1.830730 0.000000 
#    z 0.000000 0.000000 1.860850 
# 
# From -- ./inp_files/2789.got.cif
#   From: 2010.03.12/outbox.cif.g09.slc.cpg/sg108_2_cif.got.tgz:2789.got - 2010.04.14 01:53:11.
