data_PCOD8307108
_publ_section_title
;
Structure prediction by ZEFSAII (Michael W. Deem and Ramdas Pophale) SiO2 
 PCOD8307108
Probable space group: P 42 M C
;
_chemical_formula_sum "Si O2"
_cell_formula_units_Z 48
_cell_length_a 18.989802
_cell_length_b 18.989802
_cell_length_c 10.432634
_cell_angle_alpha 90.000000
_cell_angle_beta 90.000000
_cell_angle_gamma 90.000000
_cell_volume 3762.139063
_symmetry_space_group_name_H-M "P 42 M C"
_symmetry_group_IT_number 105
_symmetry_cell_setting 'tetragonal'
loop_
_space_group_symop_operation_xyz
x,y,z
-y,x,1/2+z
-x,-y,z
y,-x,1/2+z
-x,y,z
x,-y,z
-y,-x,1/2+z
y,x,1/2+z
loop_
_atom_site_type_symbol
_atom_site_label
_atom_site_fract_x
_atom_site_fract_y
_atom_site_fract_z
Si Si1 0.076752 0.416211 0.081330
Si Si2 0.220956 0.583311 0.979905
Si Si3 0.310627 0.417248 0.226213
Si Si4 0.416689 0.220956 0.972522
Si Si5 0.583789 0.923248 0.871096
Si Si6 0.702490 0.416229 0.726213
O O1 0.080091 0.500000 0.083123
O O2 0.086342 0.388392 0.226213
O O3 0.000000 0.391580 0.027435
O O4 0.141091 0.386542 0.995055
O O5 0.217916 0.500000 0.972300
O O6 0.255072 0.612378 0.849650
O O7 0.266924 0.606081 0.101733
O O8 0.328248 0.500000 0.226213
O O9 0.266924 0.393919 0.350693
O O10 0.384246 0.375769 0.226213
O O11 0.500000 0.217916 0.980126
O O12 0.386542 0.141091 0.957372
O O13 0.387622 0.255072 0.102776
O O14 0.500000 0.919909 0.869303
O O15 0.608420 0.000000 0.924991
O O16 0.693464 0.500000 0.726213
#
# Coordination Sequence:
#
# PCOD8307108 Si02
#       6
#     8   8   8   8   8   8
#     4   8  12  20  37  57  71  85 107 132 162 209
#     4   9  16  27  39  53  70  87 109 142 184 224
#     4  10  18  29  43  51  61  89 127 159 190 224
#     4   9  16  27  39  53  70  87 109 142 184 224
#     4   8  12  20  37  57  71  85 107 132 162 209
#     4  10  20  29  37  51  71  91 115 155 200 230
#
# _framework density 12.758699999999999
#
# number of rings (size 3 to 8) (size 9 to 14) (size 15 to 20)
#    0.000    3.000    1.667    2.000    0.000    0.333 
#    0.000    0.833    0.000   11.000    0.000    0.000 
#    0.000    0.000    0.000    0.000    0.000    0.000 
#
# Total GULP energy -594723.188801 kJ/mol
# GULP energy per Si atom -12390.066433 kJ/mol
# Density = 1.272966 g / cm^3
# Si number density = 12.758700 Si / 1000 Ang^3
#
#
#
# Elastic Constant Matrix: (Units=GPa)
#
#
# Indices 1 2 3 4 5 6 
#
# 1 59.8551 31.6429 33.4440 0.0000 0.0000 0.0000
# 2 31.6429 59.8551 33.4440 0.0000 0.0000 0.0000
# 3 33.4440 33.4440 98.4070 0.0000 0.0000 0.0000
# 4 0.0000 0.0000 0.0000 10.7705 0.0000 0.0000
# 5 0.0000 0.0000 0.0000 0.0000 10.7705 0.0000
# 6 0.0000 0.0000 0.0000 0.0000 0.0000 1.5337
#
#
#
# Elastic Compliance Matrix: (Units=1/GPa)
#
#
# Indices 1 2 3 4 5 6 
#
# 1 0.024994 -0.010452 -0.004942 0.000000 0.000000 0.000000
# 2 -0.010452 0.024994 -0.004942 0.000000 0.000000 0.000000
# 3 -0.004942 -0.004942 0.013521 0.000000 0.000000 0.000000
# 4 0.000000 0.000000 0.000000 0.092846 0.000000 0.000000
# 5 0.000000 0.000000 0.000000 0.000000 0.092846 0.000000
# 6 0.000000 0.000000 0.000000 0.000000 0.000000 0.652025
#
#
# Mechanical properties :
#
#
# Convention : Reuss Voigt Hill
#
# Bulk Modulus (GPa) = 43.78940 46.13100 44.96020
# Shear Modulus (GPa) = 5.26587 12.58736 8.92662
#
# Velocity S-wave (km/s) = 2.03378 3.14438 2.64796
# Velocity P-wave (km/s) = 6.31749 7.02978 6.68313
#
# Compressibility (1/GPa) = 0.02283657
#
# Stress axis : x y z
#
# Youngs Moduli (GPa) = 40.00976 40.00976 73.95830
#
# Poissons Ratio (x) = 0.41817 0.36552
# Poissons Ratio (y) = 0.41817 0.36552
# Poissons Ratio (z) = 0.19774 0.19774
#
# Static dielectric constant tensor:
#      x y z
#    x 2.487880 0.000000 0.000000 
#    y 0.000000 2.487880 0.000000 
#    z 0.000000 0.000000 2.837140 
# 
# 
# High freq. dielectric constant tensor:
#      x y z
#    x 1.450310 0.000000 0.000000 
#    y 0.000000 1.450310 0.000000 
#    z 0.000000 0.000000 1.488190 
# 
# From -- ./inp_files/1113.got.cif
#   From: 2010.03.12/outbox.cif.g09.slc.cpg/sg105_1_cif.got.tgz:1113.got - 2010.04.14 01:45:32.
