data_PCOD8307920
_publ_section_title
;
Structure prediction by ZEFSAII (Michael W. Deem and Ramdas Pophale) SiO2 
 PCOD8307920
Probable space group: I 41 M D
;
_chemical_formula_sum "Si O2"
_cell_formula_units_Z 128
_cell_length_a 24.434087
_cell_length_b 24.434087
_cell_length_c 11.149504
_cell_angle_alpha 90.000000
_cell_angle_beta 90.000000
_cell_angle_gamma 90.000000
_cell_volume 6656.528250
_symmetry_space_group_name_H-M "I 41 M D"
_symmetry_group_IT_number 109
_symmetry_cell_setting 'tetragonal'
loop_
_space_group_symop_operation_xyz
x,y,z
-y,1/2+x,1/4+z
-x,-y,z
y,1/2-x,1/4+z
-x,y,z
x,-y,z
-y,1/2-x,1/4+z
y,1/2+x,1/4+z
1/2+x,1/2+y,1/2+z
1/2-y,x,3/4+z
1/2-x,1/2-y,1/2+z
1/2+y,-x,3/4+z
1/2-x,1/2+y,1/2+z
1/2+x,1/2-y,1/2+z
1/2-y,-x,3/4+z
1/2+y,x,3/4+z
loop_
_atom_site_type_symbol
_atom_site_label
_atom_site_fract_x
_atom_site_fract_y
_atom_site_fract_z
Si Si1 0.357257 0.647385 0.846200
Si Si2 0.751362 0.779840 0.343026
Si Si3 0.936567 0.343231 0.394095
Si Si4 0.848610 0.856238 0.610230
Si Si5 0.935368 0.238049 0.242793
Si Si6 0.762793 0.935829 0.721291
Si Si7 0.938154 0.561690 0.214696
Si Si8 0.337257 0.062476 0.550147
O O1 0.300132 0.677992 0.850602
O O2 0.348150 0.593461 0.769282
O O3 0.405189 0.684734 0.792424
O O4 0.372079 0.626626 0.979984
O O5 0.750060 0.741271 0.462661
O O6 0.693031 0.807567 0.342125
O O7 0.916601 0.290102 0.321070
O O8 0.922439 0.397616 0.320447
O O9 0.000000 0.338425 0.423458
O O10 0.817137 0.905961 0.674162
O O11 0.899792 0.833940 0.684744
O O12 0.000000 0.227431 0.250915
O O13 0.917216 0.249846 0.106632
O O14 0.709925 0.919890 0.642848
O O15 0.775430 0.000000 0.716155
O O16 0.932174 0.500000 0.265294
O O17 0.897227 0.571045 0.105533
O O18 0.000000 0.573046 0.168247
O O19 0.328432 0.000000 0.509596
#
# Coordination Sequence:
#
# PCOD8307920 Si02
#       8
#    16  16  16  16  16  16  16  16
#     4  11  23  39  56  81 117 151 191 238 285 346
#     4  10  22  38  55  80 113 150 192 232 292 350
#     4  10  20  36  58  83 112 150 191 231 286 347
#     4  11  23  39  56  81 117 151 191 238 285 346
#     4  10  22  39  61  88 116 151 195 243 296 351
#     4  10  22  39  61  88 116 151 195 243 296 351
#     4   9  18  34  58  86 114 144 184 238 290 338
#     4  10  20  36  58  83 112 150 191 231 286 347
#
# _framework density 19.229243
#
# number of rings (size 3 to 8) (size 9 to 14) (size 15 to 20)
#    0.000    1.875    0.000    4.500    1.750    4.000 
#    4.500    3.125    0.000    0.000    0.000    1.750 
#    0.000    0.000    0.000    0.000    0.000    0.000 
#
# Total GULP energy -793595.864614 kJ/mol
# GULP energy per Si atom -12399.935385 kJ/mol
# Density = 1.918548 g / cm^3
# Si number density = 19.229243 Si / 1000 Ang^3
#
#
#
# Elastic Constant Matrix: (Units=GPa)
#
#
# Indices 1 2 3 4 5 6 
#
# 1 63.6296 23.3921 38.1378 0.0000 0.0000 0.0000
# 2 23.3921 63.6296 38.1378 0.0000 0.0000 0.0000
# 3 38.1378 38.1378 133.0467 0.0000 0.0000 0.0000
# 4 0.0000 0.0000 0.0000 36.3060 0.0000 0.0000
# 5 0.0000 0.0000 0.0000 0.0000 36.3060 0.0000
# 6 0.0000 0.0000 0.0000 0.0000 0.0000 334.6053
#
#
#
# Elastic Compliance Matrix: (Units=1/GPa)
#
#
# Indices 1 2 3 4 5 6 
#
# 1 0.020100 -0.004753 -0.004399 0.000000 0.000000 0.000000
# 2 -0.004753 0.020100 -0.004399 0.000000 0.000000 0.000000
# 3 -0.004399 -0.004399 0.010038 0.000000 0.000000 0.000000
# 4 0.000000 0.000000 0.000000 0.027544 0.000000 0.000000
# 5 0.000000 0.000000 0.000000 0.000000 0.027544 0.000000
# 6 0.000000 0.000000 0.000000 0.000000 0.000000 0.002989
#
#
# Mechanical properties :
#
#
# Convention : Reuss Voigt Hill
#
# Bulk Modulus (GPa) = 43.22297 51.07124 47.14710
# Shear Modulus (GPa) = 34.93367 92.15269 63.54318
#
# Velocity S-wave (km/s) = 4.26689 6.93017 5.75472
# Velocity P-wave (km/s) = 6.84118 9.52119 8.29020
#
# Compressibility (1/GPa) = 0.02313585
#
# Stress axis : x y z
#
# Youngs Moduli (GPa) = 49.75133 49.75133 99.61849
#
# Poissons Ratio (x) = 0.23644 0.43826
# Poissons Ratio (y) = 0.23644 0.43826
# Poissons Ratio (z) = 0.21887 0.21887
#
# Static dielectric constant tensor:
#      x y z
#    x 3.496550 0.000000 0.000000 
#    y 0.000000 3.496550 0.000000 
#    z 0.000000 0.000000 4.015610 
# 
# 
# High freq. dielectric constant tensor:
#      x y z
#    x 1.749630 0.000000 0.000000 
#    y 0.000000 1.749630 0.000000 
#    z 0.000000 0.000000 1.753830 
# 
# From -- ./inp_files/2185.got.cif
#   From: 2010.03.12/outbox.cif.g09.slc.cpg/sg109_2_cif.got.tgz:2185.got - 2010.04.14 01:55:16.
