data_PCOD8307546
_publ_section_title
;
Structure prediction by ZEFSAII (Michael W. Deem and Ramdas Pophale) SiO2 
 PCOD8307546
Probable space group: I 4 M M
;
_chemical_formula_sum "Si O2"
_cell_formula_units_Z 112
_cell_length_a 13.638152
_cell_length_b 13.638152
_cell_length_c 35.941273
_cell_angle_alpha 90.000000
_cell_angle_beta 90.000000
_cell_angle_gamma 90.000000
_cell_volume 6685.047665
_symmetry_space_group_name_H-M "I 4 M M"
_symmetry_group_IT_number 107
_symmetry_cell_setting 'tetragonal'
loop_
_space_group_symop_operation_xyz
x,y,z
-y,x,z
-x,-y,z
y,-x,z
-x,y,z
x,-y,z
-y,-x,z
y,x,z
1/2+x,1/2+y,1/2+z
1/2-y,1/2+x,1/2+z
1/2-x,1/2-y,1/2+z
1/2+y,1/2-x,1/2+z
1/2-x,1/2+y,1/2+z
1/2+x,1/2-y,1/2+z
1/2-y,1/2-x,1/2+z
1/2+y,1/2+x,1/2+z
loop_
_atom_site_type_symbol
_atom_site_label
_atom_site_fract_x
_atom_site_fract_y
_atom_site_fract_z
Si Si1 0.887385 0.613699 0.320570
Si Si2 0.884126 0.724673 0.602414
Si Si3 0.115318 0.272379 0.747075
Si Si4 0.613641 0.888604 0.465585
Si Si5 0.390647 0.116039 0.675449
Si Si6 0.774856 0.615247 0.539853
Si Si7 0.270393 0.114965 0.392964
O O1 0.873243 0.500000 0.329332
O O2 0.824713 0.646396 0.285157
O O3 0.849581 0.670856 0.356688
O O4 0.000000 0.638134 0.311578
O O5 0.828194 0.828194 0.597935
O O6 0.849834 0.674790 0.640783
O O7 0.855039 0.650076 0.569724
O O8 0.000000 0.745523 0.601100
O O9 0.167532 0.167532 0.744561
O O10 0.152415 0.340749 0.713440
O O11 0.000000 0.252580 0.744605
O O12 0.500000 0.882678 0.455548
O O13 0.640634 0.818219 0.499560
O O14 0.670910 0.851392 0.429430
O O15 0.643111 0.000000 0.476073
O O16 0.500000 0.161825 0.672555
O O17 0.399209 0.000000 0.675600
O O18 0.754902 0.500000 0.544836
O O19 0.672482 0.672482 0.545271
O O20 0.164441 0.164441 0.393196
O O21 0.253392 0.000000 0.392471
#
# Coordination Sequence:
#
# PCOD8307546 Si02
#       7
#    16  16  16  16  16  16  16
#     4   9  17  30  48  68  88 112 147 192 237 273
#     4  10  20  33  50  73 100 129 161 196 236 284
#     4  10  19  30  45  66  93 123 153 186 227 277
#     4   9  17  30  49  71  92 116 150 192 236 280
#     4   9  17  30  48  68  90 118 153 192 230 266
#     4  10  20  33  50  72  97 126 160 198 240 284
#     4  10  19  30  45  65  91 121 151 185 225 272
#
# _framework density 16.753807999999999
#
# number of rings (size 3 to 8) (size 9 to 14) (size 15 to 20)
#    0.000    2.429    0.000    3.000    0.000    5.429 
#    0.000    0.000    0.000    2.571    0.000    2.000 
#    0.000   22.000    0.000    0.000    0.000    0.000 
#
# Total GULP energy -694449.840282 kJ/mol
# GULP energy per Si atom -12400.890005 kJ/mol
# Density = 1.671568 g / cm^3
# Si number density = 16.753808 Si / 1000 Ang^3
#
#
#
# Elastic Constant Matrix: (Units=GPa)
#
#
# Indices 1 2 3 4 5 6 
#
# 1 75.8354 46.5116 49.1562 0.0000 0.0000 0.0000
# 2 46.5116 75.8354 49.1562 0.0000 0.0000 0.0000
# 3 49.1562 49.1562 132.2091 0.0000 0.0000 0.0000
# 4 0.0000 0.0000 0.0000 21.5788 0.0000 0.0000
# 5 0.0000 0.0000 0.0000 0.0000 21.5788 0.0000
# 6 0.0000 0.0000 0.0000 0.0000 0.0000 23.6289
#
#
#
# Elastic Compliance Matrix: (Units=1/GPa)
#
#
# Indices 1 2 3 4 5 6 
#
# 1 0.022879 -0.011223 -0.004334 0.000000 0.000000 0.000000
# 2 -0.011223 0.022879 -0.004334 0.000000 0.000000 0.000000
# 3 -0.004334 -0.004334 0.010786 0.000000 0.000000 0.000000
# 4 0.000000 0.000000 0.000000 0.046342 0.000000 0.000000
# 5 0.000000 0.000000 0.000000 0.000000 0.046342 0.000000
# 6 0.000000 0.000000 0.000000 0.000000 0.000000 0.042321
#
#
# Mechanical properties :
#
#
# Convention : Reuss Voigt Hill
#
# Bulk Modulus (GPa) = 59.65445 63.72532 61.68989
# Shear Modulus (GPa) = 21.10439 22.62770 21.86604
#
# Velocity S-wave (km/s) = 3.55304 3.67904 3.61659
# Velocity P-wave (km/s) = 7.24679 7.49440 7.37163
#
# Compressibility (1/GPa) = 0.01676321
#
# Stress axis : x y z
#
# Youngs Moduli (GPa) = 43.70838 43.70838 92.70939
#
# Poissons Ratio (x) = 0.49054 0.40178
# Poissons Ratio (y) = 0.49054 0.40178
# Poissons Ratio (z) = 0.18942 0.18942
#
# Static dielectric constant tensor:
#      x y z
#    x 2.982890 0.000000 0.000000 
#    y 0.000000 2.982890 0.000000 
#    z 0.000000 0.000000 3.360260 
# 
# 
# High freq. dielectric constant tensor:
#      x y z
#    x 1.632650 0.000000 0.000000 
#    y 0.000000 1.632650 0.000000 
#    z 0.000000 0.000000 1.664760 
# 
# From -- ./inp_files/6157.got.cif
#   From: 2010.03.12/outbox.cif.g09.slc.cpg/sg107_4_cif.got.tgz:6157.got - 2010.04.14 01:49:11.
