data_PCOD8307737
_publ_section_title
;
Structure prediction by ZEFSAII (Michael W. Deem and Ramdas Pophale) SiO2 
 PCOD8307737
Probable space group: I 4 C M
;
_chemical_formula_sum "Si O2"
_cell_formula_units_Z 96
_cell_length_a 14.311161
_cell_length_b 14.311161
_cell_length_c 23.139972
_cell_angle_alpha 90.000000
_cell_angle_beta 90.000000
_cell_angle_gamma 90.000000
_cell_volume 4739.282142
_symmetry_space_group_name_H-M "I 4 C M"
_symmetry_group_IT_number 108
_symmetry_cell_setting 'tetragonal'
loop_
_space_group_symop_operation_xyz
x,y,z
-y,x,z
-x,-y,z
y,-x,z
-x,y,1/2+z
x,-y,1/2+z
-y,-x,1/2+z
y,x,1/2+z
1/2+x,1/2+y,1/2+z
1/2-y,1/2+x,1/2+z
1/2-x,1/2-y,1/2+z
1/2+y,1/2-x,1/2+z
1/2-x,1/2+y,z
1/2+x,1/2-y,z
1/2-y,1/2-x,z
1/2+y,1/2+x,z
loop_
_atom_site_type_symbol
_atom_site_label
_atom_site_fract_x
_atom_site_fract_y
_atom_site_fract_z
Si Si1 0.927346 0.572655 0.024540
Si Si2 0.830827 0.822259 0.536624
Si Si3 0.078846 0.578846 0.400454
Si Si4 0.498234 0.844874 0.711832
Si Si5 0.757457 0.502263 0.092130
Si Si6 0.425447 0.635215 0.418344
Si Si7 0.293620 0.949818 0.334232
O O1 0.856610 0.516093 0.063159
O O2 0.000000 0.500000 0.998774
O O3 0.886811 0.613190 0.964352
O O4 0.731200 0.768801 0.532655
O O5 0.814677 0.925928 0.561913
O O6 0.886726 0.815668 0.476223
O O7 0.896249 0.773515 0.583454
O O8 0.172352 0.539468 0.370969
O O9 0.000000 0.500000 0.395409
O O10 0.576415 0.923586 0.708320
O O11 0.513850 0.770458 0.660594
O O12 0.512321 0.781727 0.769059
O O13 0.396574 0.896574 0.710805
O O14 0.374626 0.536697 0.417296
O O15 0.406116 0.698921 0.361803
O O16 0.368792 0.868792 0.335963
#
# Coordination Sequence:
#
# PCOD8307737 Si02
#       7
#     8  16   8  16  16  16  16
#     4  11  20  36  62  97 130 167 221 290 349 400
#     4  12  24  42  66  98 135 173 225 281 344 413
#     4   9  18  32  58  95 128 156 201 260 333 391
#     4  10  19  38  66  95 134 174 221 279 346 409
#     4  12  24  40  64  97 135 180 226 278 345 415
#     4  11  24  44  65  87 129 176 218 265 335 412
#     4  10  20  39  64  95 127 169 215 272 333 399
#
# _framework density 20.256233000000002
#
# number of rings (size 3 to 8) (size 9 to 14) (size 15 to 20)
#    0.000    1.167    4.167    3.000    0.000    1.667 
#    4.500    0.000    0.000    0.000    0.000    0.000 
#    0.000    0.000    0.000    0.000    0.000    0.000 
#
# Total GULP energy -594969.927540 kJ/mol
# GULP energy per Si atom -12395.206824 kJ/mol
# Density = 2.021013 g / cm^3
# Si number density = 20.256233 Si / 1000 Ang^3
#
#
#
# Elastic Constant Matrix: (Units=GPa)
#
#
# Indices 1 2 3 4 5 6 
#
# 1 73.6790 7.2222 33.7202 0.0000 0.0000 -0.0002
# 2 7.2222 73.6790 33.7202 0.0000 0.0000 0.0002
# 3 33.7202 33.7202 169.6932 0.0000 0.0000 0.0000
# 4 0.0000 0.0000 0.0000 28.6122 0.0000 0.0000
# 5 0.0000 0.0000 0.0000 0.0000 28.6122 0.0000
# 6 -0.0002 0.0002 0.0000 0.0000 0.0000 23.4625
#
#
#
# Elastic Compliance Matrix: (Units=1/GPa)
#
#
# Indices 1 2 3 4 5 6 
#
# 1 0.014931 -0.000116 -0.002944 0.000000 0.000000 0.000000
# 2 -0.000116 0.014931 -0.002944 0.000000 0.000000 0.000000
# 3 -0.002944 -0.002944 0.007063 0.000000 0.000000 0.000000
# 4 0.000000 0.000000 0.000000 0.034950 0.000000 0.000000
# 5 0.000000 0.000000 0.000000 0.000000 0.034950 0.000000
# 6 0.000000 0.000000 0.000000 0.000000 0.000000 0.042621
#
#
# Mechanical properties :
#
#
# Convention : Reuss Voigt Hill
#
# Bulk Modulus (GPa) = 40.13313 51.81956 45.97634
# Shear Modulus (GPa) = 29.45327 32.29663 30.87495
#
# Velocity S-wave (km/s) = 3.81732 3.99733 3.90836
# Velocity P-wave (km/s) = 6.26777 6.85146 6.56610
#
# Compressibility (1/GPa) = 0.02491707
#
# Stress axis : x y z
#
# Youngs Moduli (GPa) = 66.97428 66.97428 141.58361
#
# Poissons Ratio (x) = 0.00779 0.41681
# Poissons Ratio (y) = 0.00779 0.41681
# Poissons Ratio (z) = 0.19717 0.19717
#
# Static dielectric constant tensor:
#      x y z
#    x 3.539700 0.000000 0.000000 
#    y 0.000000 3.539700 0.000000 
#    z 0.000000 0.000000 3.856630 
# 
# 
# High freq. dielectric constant tensor:
#      x y z
#    x 1.781170 0.000000 0.000000 
#    y 0.000000 1.781170 0.000000 
#    z 0.000000 0.000000 1.797810 
# 
# From -- ./inp_files/2925.got.cif
#   From: 2010.03.12/outbox.cif.g09.slc.cpg/sg108_2_cif.got.tgz:2925.got - 2010.04.14 01:53:11.
