data_PCOD8307216
_publ_section_title
;
Structure prediction by ZEFSAII (Michael W. Deem and Ramdas Pophale) SiO2 
 PCOD8307216
Probable space group: P 42 M C
;
_chemical_formula_sum "Si O2"
_cell_formula_units_Z 48
_cell_length_a 9.240802
_cell_length_b 9.240802
_cell_length_c 31.139260
_cell_angle_alpha 90.000000
_cell_angle_beta 90.000000
_cell_angle_gamma 90.000000
_cell_volume 2659.056818
_symmetry_space_group_name_H-M "P 42 M C"
_symmetry_group_IT_number 105
_symmetry_cell_setting 'tetragonal'
loop_
_space_group_symop_operation_xyz
x,y,z
-y,x,1/2+z
-x,-y,z
y,-x,1/2+z
-x,y,z
x,-y,z
-y,-x,1/2+z
y,x,1/2+z
loop_
_atom_site_type_symbol
_atom_site_label
_atom_site_fract_x
_atom_site_fract_y
_atom_site_fract_z
Si Si1 0.338100 0.672805 0.986140
Si Si2 0.327982 0.837603 0.566667
Si Si3 0.330016 0.331847 0.151004
Si Si4 0.170289 0.167484 0.725641
Si Si5 0.334654 0.830852 0.810664
Si Si6 0.660789 0.327634 0.392424
O O1 0.500000 0.733017 0.994297
O O2 0.342501 0.500000 0.987158
O O3 0.278370 0.722028 0.939178
O O4 0.234033 0.735133 0.023237
O O5 0.500000 0.839571 0.564461
O O6 0.276716 0.744285 0.607309
O O7 0.266022 0.000000 0.570856
O O8 0.500000 0.304683 0.146884
O O9 0.294810 0.500000 0.159715
O O10 0.266979 0.237564 0.189256
O O11 0.238114 0.218699 0.770630
O O12 0.000000 0.192864 0.727587
O O13 0.209055 0.000000 0.716351
O O14 0.500000 0.781581 0.802076
O O15 0.269522 0.759252 0.853698
O O16 0.324766 0.000000 0.818139
O O17 0.500000 0.265199 0.385165
O O18 0.657297 0.500000 0.392589
#
# Coordination Sequence:
#
# PCOD8307216 Si02
#       6
#     8   8   8   8   8   8
#     4   8  13  23  40  62  89 120 153 190 233 280
#     4   9  16  26  43  68  96 124 156 196 239 283
#     4  10  20  33  51  75  99 124 158 201 246 291
#     4  10  21  36  52  70  95 128 162 197 242 294
#     4   9  17  30  49  71  94 122 158 198 237 281
#     4   8  14  25  43  67  93 121 153 190 233 279
#
# _framework density 18.051514999999998
#
# number of rings (size 3 to 8) (size 9 to 14) (size 15 to 20)
#    0.000    3.000    0.000    2.500    0.000    4.667 
#    0.000    2.500    0.000    2.000    0.000    2.333 
#    0.000    0.000    0.000    0.000    0.000    0.000 
#
# Total GULP energy -595037.056301 kJ/mol
# GULP energy per Si atom -12396.605340 kJ/mol
# Density = 1.801043 g / cm^3
# Si number density = 18.051515 Si / 1000 Ang^3
#
#
#
# Elastic Constant Matrix: (Units=GPa)
#
#
# Indices 1 2 3 4 5 6 
#
# 1 65.8105 33.6309 66.0102 0.0000 0.0000 0.0000
# 2 33.6309 65.8105 66.0102 0.0000 0.0000 0.0000
# 3 66.0102 66.0102 192.9863 0.0000 0.0000 0.0000
# 4 0.0000 0.0000 0.0000 3.6364 0.0000 0.0000
# 5 0.0000 0.0000 0.0000 0.0000 3.6364 0.0000
# 6 0.0000 0.0000 0.0000 0.0000 0.0000 15.3368
#
#
#
# Elastic Compliance Matrix: (Units=1/GPa)
#
#
# Indices 1 2 3 4 5 6 
#
# 1 0.024749 -0.006327 -0.006301 0.000000 0.000000 0.000000
# 2 -0.006327 0.024749 -0.006301 0.000000 0.000000 0.000000
# 3 -0.006301 -0.006301 0.009492 0.000000 0.000000 0.000000
# 4 0.000000 0.000000 0.000000 0.275000 0.000000 0.000000
# 5 0.000000 0.000000 0.000000 0.000000 0.275000 0.000000
# 6 0.000000 0.000000 0.000000 0.000000 0.000000 0.065203
#
#
# Mechanical properties :
#
#
# Convention : Reuss Voigt Hill
#
# Bulk Modulus (GPa) = 47.32343 72.87890 60.10117
# Shear Modulus (GPa) = 6.95320 15.11898 11.03609
#
# Velocity S-wave (km/s) = 1.96475 2.89718 2.47526
# Velocity P-wave (km/s) = 5.60532 7.18693 6.44483
#
# Compressibility (1/GPa) = 0.02113118
#
# Stress axis : x y z
#
# Youngs Moduli (GPa) = 40.40643 40.40643 105.34977
#
# Poissons Ratio (x) = 0.25565 0.66381
# Poissons Ratio (y) = 0.25565 0.66381
# Poissons Ratio (z) = 0.25460 0.25460
#
# Static dielectric constant tensor:
#      x y z
#    x 3.139430 0.000000 0.000000 
#    y 0.000000 3.139430 0.000000 
#    z 0.000000 0.000000 3.702070 
# 
# 
# High freq. dielectric constant tensor:
#      x y z
#    x 1.667170 0.000000 0.000000 
#    y 0.000000 1.667170 0.000000 
#    z 0.000000 0.000000 1.718860 
# 
# From -- ./inp_files/4711.got.cif
#   From: 2010.03.12/outbox.cif.g09.slc.cpg/sg105_3_cif.got.tgz:4711.got - 2010.04.14 01:45:32.
