data_PCOD8307552
_publ_section_title
;
Structure prediction by ZEFSAII (Michael W. Deem and Ramdas Pophale) SiO2 
 PCOD8307552
Probable space group: I 4 M M
;
_chemical_formula_sum "Si O2"
_cell_formula_units_Z 112
_cell_length_a 13.660673
_cell_length_b 13.660673
_cell_length_c 35.434536
_cell_angle_alpha 90.000000
_cell_angle_beta 90.000000
_cell_angle_gamma 90.000000
_cell_volume 6612.580034
_symmetry_space_group_name_H-M "I 4 M M"
_symmetry_group_IT_number 107
_symmetry_cell_setting 'tetragonal'
loop_
_space_group_symop_operation_xyz
x,y,z
-y,x,z
-x,-y,z
y,-x,z
-x,y,z
x,-y,z
-y,-x,z
y,x,z
1/2+x,1/2+y,1/2+z
1/2-y,1/2+x,1/2+z
1/2-x,1/2-y,1/2+z
1/2+y,1/2-x,1/2+z
1/2-x,1/2+y,1/2+z
1/2+x,1/2-y,1/2+z
1/2-y,1/2-x,1/2+z
1/2+y,1/2+x,1/2+z
loop_
_atom_site_type_symbol
_atom_site_label
_atom_site_fract_x
_atom_site_fract_y
_atom_site_fract_z
Si Si1 0.229654 0.611998 0.243410
Si Si2 0.885073 0.271875 0.951123
Si Si3 0.770864 0.612449 0.156518
Si Si4 0.116023 0.390730 0.023565
Si Si5 0.614956 0.226284 0.597026
Si Si6 0.112021 0.386968 0.876477
Si Si7 0.114043 0.272596 0.301937
O O1 0.250414 0.500000 0.254113
O O2 0.329066 0.670935 0.252283
O O3 0.198054 0.623244 0.200006
O O4 0.140886 0.653285 0.268306
O O5 0.832652 0.167349 0.953129
O O6 0.855497 0.324905 0.912509
O O7 0.000000 0.251624 0.954039
O O8 0.847471 0.339368 0.985359
O O9 0.752835 0.500000 0.145416
O O10 0.670434 0.670434 0.147948
O O11 0.859657 0.656809 0.132325
O O12 0.161261 0.500000 0.025684
O O13 0.151377 0.328247 0.059329
O O14 0.000000 0.398037 0.023586
O O15 0.500000 0.248387 0.596749
O O16 0.670220 0.329781 0.600243
O O17 0.126410 0.500000 0.887054
O O18 0.178474 0.355818 0.841413
O O19 0.000000 0.365298 0.865456
O O20 0.170702 0.170702 0.297343
O O21 0.000000 0.249026 0.299818
#
# Coordination Sequence:
#
# PCOD8307552 Si02
#       7
#    16  16  16  16  16  16  16
#     4   9  18  32  50  73  99 125 155 192 235 285
#     4  10  19  30  45  66  94 126 157 189 226 272
#     4   9  18  32  50  73  99 126 157 194 237 284
#     4   9  17  30  48  68  89 115 150 192 235 275
#     4  10  20  33  49  70  97 128 162 199 238 282
#     4   9  17  30  49  71  92 116 150 193 240 285
#     4  10  20  33  49  69  94 124 159 199 240 283
#
# _framework density 16.937412999999999
#
# number of rings (size 3 to 8) (size 9 to 14) (size 15 to 20)
#    0.000    2.571    0.000    2.143    0.000    4.714 
#    0.000    2.857    0.000    2.571    0.000    6.000 
#    0.000   11.714    0.000    0.000    0.000    0.000 
#
# Total GULP energy -694489.104597 kJ/mol
# GULP energy per Si atom -12401.591154 kJ/mol
# Density = 1.689886 g / cm^3
# Si number density = 16.937413 Si / 1000 Ang^3
#
#
#
# Elastic Constant Matrix: (Units=GPa)
#
#
# Indices 1 2 3 4 5 6 
#
# 1 92.4843 46.4202 54.1320 0.0000 0.0000 -0.0001
# 2 46.4202 92.4843 54.1320 0.0000 0.0000 0.0001
# 3 54.1320 54.1320 106.6874 0.0000 0.0000 0.0000
# 4 0.0000 0.0000 0.0000 25.6358 0.0000 0.0000
# 5 0.0000 0.0000 0.0000 0.0000 25.6358 0.0000
# 6 -0.0001 0.0001 0.0000 0.0000 0.0000 17.4428
#
#
#
# Elastic Compliance Matrix: (Units=1/GPa)
#
#
# Indices 1 2 3 4 5 6 
#
# 1 0.016809 -0.004900 -0.006042 0.000000 0.000000 0.000000
# 2 -0.004900 0.016809 -0.006042 0.000000 0.000000 0.000000
# 3 -0.006042 -0.006042 0.015505 0.000000 0.000000 0.000000
# 4 0.000000 0.000000 0.000000 0.039008 0.000000 0.000000
# 5 0.000000 0.000000 0.000000 0.000000 0.039008 0.000000
# 6 0.000000 0.000000 0.000000 0.000000 0.000000 0.057330
#
#
# Mechanical properties :
#
#
# Convention : Reuss Voigt Hill
#
# Bulk Modulus (GPa) = 65.99433 66.78051 66.38742
# Shear Modulus (GPa) = 22.37248 22.87434 22.62341
#
# Velocity S-wave (km/s) = 3.63835 3.67893 3.65870
# Velocity P-wave (km/s) = 7.52983 7.58679 7.55837
#
# Compressibility (1/GPa) = 0.01515282
#
# Stress axis : x y z
#
# Youngs Moduli (GPa) = 59.49276 59.49276 64.49624
#
# Poissons Ratio (x) = 0.29152 0.38971
# Poissons Ratio (y) = 0.29152 0.38971
# Poissons Ratio (z) = 0.35947 0.35947
#
# Static dielectric constant tensor:
#      x y z
#    x 3.042960 0.000000 0.000000 
#    y 0.000000 3.042960 0.000000 
#    z 0.000000 0.000000 3.345520 
# 
# 
# High freq. dielectric constant tensor:
#      x y z
#    x 1.643000 0.000000 0.000000 
#    y 0.000000 1.643000 0.000000 
#    z 0.000000 0.000000 1.667630 
# 
# From -- ./inp_files/5782.got.cif
#   From: 2010.03.12/outbox.cif.g09.slc.cpg/sg107_3_cif.got.tgz:5782.got - 2010.04.14 01:49:11.
