data_PCOD8307338
_publ_section_title
;
Structure prediction by ZEFSAII (Michael W. Deem and Ramdas Pophale) SiO2 
 PCOD8307338
Probable space group: P 42 M C
;
_chemical_formula_sum "Si O2"
_cell_formula_units_Z 34
_cell_length_a 11.495767
_cell_length_b 11.495767
_cell_length_c 13.477414
_cell_angle_alpha 90.000000
_cell_angle_beta 90.000000
_cell_angle_gamma 90.000000
_cell_volume 1781.076095
_symmetry_space_group_name_H-M "P 42 M C"
_symmetry_group_IT_number 105
_symmetry_cell_setting 'tetragonal'
loop_
_space_group_symop_operation_xyz
x,y,z
-y,x,1/2+z
-x,-y,z
y,-x,1/2+z
-x,y,z
x,-y,z
-y,-x,1/2+z
y,x,1/2+z
loop_
_atom_site_type_symbol
_atom_site_label
_atom_site_fract_x
_atom_site_fract_y
_atom_site_fract_z
Si Si1 0.137173 0.682891 0.375000
Si Si2 0.500000 0.136106 0.250404
Si Si3 0.270880 0.500000 0.258498
Si Si4 0.500000 0.863894 0.035157
Si Si5 0.137173 0.317109 0.910561
Si Si6 0.500000 0.500000 0.892780
Si Si7 0.270880 0.500000 0.027063
O O1 0.194321 0.614925 0.282668
O O2 0.172327 0.613793 0.474680
O O3 0.188597 0.811403 0.392780
O O4 0.000000 0.692076 0.357046
O O5 0.500000 0.199222 0.142781
O O6 0.613793 0.172326 0.310881
O O7 0.500000 0.000000 0.234526
O O8 0.387785 0.500000 0.322840
O O9 0.302462 0.500000 0.142780
O O10 0.500000 0.000000 0.051034
O O11 0.000000 0.307924 0.928515
O O12 0.194321 0.385075 0.002893
O O13 0.387785 0.500000 0.962721
#
# Coordination Sequence:
#
# PCOD8307338 Si02
#       7
#     8   4   4   4   8   2   4
#     4  10  21  38  57  86 124 160 204 246 289 356
#     4   8  16  33  56  76 100 142 191 241 290 331
#     4  11  23  41  64  90 124 155 191 253 319 369
#     4   8  16  33  56  76 100 142 191 241 290 331
#     4  10  21  38  57  86 124 160 204 246 289 356
#     4  12  22  44  64  98 120 144 202 248 312 374
#     4  11  23  41  64  90 124 155 191 253 319 369
#
# _framework density 19.089582
#
# number of rings (size 3 to 8) (size 9 to 14) (size 15 to 20)
#    0.000    2.118    2.353    2.471    0.000    4.235 
#    0.000    0.000    0.000    0.000    0.000    9.882 
#    0.000    0.000    0.000    0.000    0.000    0.000 
#
# Total GULP energy -421459.058350 kJ/mol
# GULP energy per Si atom -12395.854657 kJ/mol
# Density = 1.904613 g / cm^3
# Si number density = 19.089582 Si / 1000 Ang^3
#
#
#
# Elastic Constant Matrix: (Units=GPa)
#
#
# Indices 1 2 3 4 5 6 
#
# 1 131.7690 62.8825 44.4722 0.0000 0.0000 0.0000
# 2 62.8825 131.7690 44.4722 0.0000 0.0000 0.0000
# 3 44.4722 44.4722 152.3796 0.0000 0.0000 0.0000
# 4 0.0000 0.0000 0.0000 13.8838 0.0000 0.0000
# 5 0.0000 0.0000 0.0000 0.0000 13.8838 0.0000
# 6 0.0000 0.0000 0.0000 0.0000 0.0000 37.5672
#
#
#
# Elastic Compliance Matrix: (Units=1/GPa)
#
#
# Indices 1 2 3 4 5 6 
#
# 1 0.010222 -0.004294 -0.001730 0.000000 0.000000 0.000000
# 2 -0.004294 0.010222 -0.001730 0.000000 0.000000 0.000000
# 3 -0.001730 -0.001730 0.007572 0.000000 0.000000 0.000000
# 4 0.000000 0.000000 0.000000 0.072026 0.000000 0.000000
# 5 0.000000 0.000000 0.000000 0.000000 0.072026 0.000000
# 6 0.000000 0.000000 0.000000 0.000000 0.000000 0.026619
#
#
# Mechanical properties :
#
#
# Convention : Reuss Voigt Hill
#
# Bulk Modulus (GPa) = 79.94904 79.95238 79.95071
# Shear Modulus (GPa) = 22.89722 30.67299 26.78511
#
# Velocity S-wave (km/s) = 3.46708 4.01283 3.74990
# Velocity P-wave (km/s) = 7.61574 7.96518 7.79242
#
# Compressibility (1/GPa) = 0.01250797
#
# Stress axis : x y z
#
# Youngs Moduli (GPa) = 97.82547 97.82547 132.05835
#
# Poissons Ratio (x) = 0.42010 0.22847
# Poissons Ratio (y) = 0.42010 0.22847
# Poissons Ratio (z) = 0.16925 0.16925
#
# Static dielectric constant tensor:
#      x y z
#    x 3.170190 0.000000 0.000000 
#    y 0.000000 3.170190 0.000000 
#    z 0.000000 0.000000 3.831370 
# 
# 
# High freq. dielectric constant tensor:
#      x y z
#    x 1.738560 0.000000 0.000000 
#    y 0.000000 1.738560 0.000000 
#    z 0.000000 0.000000 1.737550 
# 
# From -- ./inp_files/1712.got.cif
#   From: 2010.03.12/outbox.cif.g09.slc.cpg/sg105_1_cif.got.tgz:1712.got - 2010.04.14 01:45:32.
