data_PCOD8307522
_publ_section_title
;
Structure prediction by ZEFSAII (Michael W. Deem and Ramdas Pophale) SiO2 
 PCOD8307522
Probable space group: I 4 M M
;
_chemical_formula_sum "Si O2"
_cell_formula_units_Z 96
_cell_length_a 21.213340
_cell_length_b 21.213340
_cell_length_c 14.673424
_cell_angle_alpha 90.000000
_cell_angle_beta 90.000000
_cell_angle_gamma 90.000000
_cell_volume 6603.125817
_symmetry_space_group_name_H-M "I 4 M M"
_symmetry_group_IT_number 107
_symmetry_cell_setting 'tetragonal'
loop_
_space_group_symop_operation_xyz
x,y,z
-y,x,z
-x,-y,z
y,-x,z
-x,y,z
x,-y,z
-y,-x,z
y,x,z
1/2+x,1/2+y,1/2+z
1/2-y,1/2+x,1/2+z
1/2-x,1/2-y,1/2+z
1/2+y,1/2-x,1/2+z
1/2-x,1/2+y,1/2+z
1/2+x,1/2-y,1/2+z
1/2-y,1/2-x,1/2+z
1/2+y,1/2+x,1/2+z
loop_
_atom_site_type_symbol
_atom_site_label
_atom_site_fract_x
_atom_site_fract_y
_atom_site_fract_z
Si Si1 0.676146 0.570998 0.803200
Si Si2 0.217339 0.887604 0.493519
Si Si3 0.929002 0.176146 0.683835
Si Si4 0.817666 0.711430 0.993518
Si Si5 0.845138 0.260679 0.798914
Si Si6 0.239321 0.654863 0.688122
O O1 0.656296 0.500000 0.777921
O O2 0.614114 0.614114 0.796355
O O3 0.705680 0.570869 0.904144
O O4 0.730330 0.593091 0.733212
O O5 0.170692 0.829309 0.493523
O O6 0.205681 0.929134 0.582892
O O7 0.287715 0.858695 0.493518
O O8 0.885885 0.114116 0.690678
O O9 0.906910 0.230331 0.753824
O O10 0.000000 0.156295 0.709115
O O11 0.762346 0.762346 0.993516
O O12 0.860420 0.720258 0.903331
O O13 0.860420 0.720259 0.083704
O O14 0.789527 0.210474 0.794602
O O15 0.822624 0.322624 0.743518
O O16 0.289525 0.710476 0.692435
#
# Coordination Sequence:
#
# PCOD8307522 Si02
#       6
#    16  16  16  16  16  16
#     4  10  19  29  41  60  88 122 155 181 207 246
#     4   9  15  25  42  62  84 111 143 178 219 265
#     4  10  19  29  41  60  88 122 155 181 207 246
#     4   9  14  23  42  65  83 101 131 175 231 279
#     4   9  15  25  42  62  82 106 138 179 226 265
#     4   9  15  25  42  62  82 106 138 179 226 265
#
# _framework density 14.538569000000001
#
# number of rings (size 3 to 8) (size 9 to 14) (size 15 to 20)
#    0.000    2.667    3.333    0.500    0.000    0.333 
#    0.000    0.833    0.000    3.000    0.000    0.000 
#    0.000    7.333    0.000    3.000    0.000    0.333 
#
# Total GULP energy -594926.535123 kJ/mol
# GULP energy per Si atom -12394.302815 kJ/mol
# Density = 1.450548 g / cm^3
# Si number density = 14.538569 Si / 1000 Ang^3
#
#
#
# Elastic Constant Matrix: (Units=GPa)
#
#
# Indices 1 2 3 4 5 6 
#
# 1 54.0465 48.3387 38.7927 0.0000 0.0000 -0.0001
# 2 48.3387 54.0465 38.7927 0.0000 0.0000 0.0001
# 3 38.7927 38.7927 120.7697 0.0000 0.0000 0.0000
# 4 0.0000 0.0000 0.0000 12.3461 0.0000 0.0000
# 5 0.0000 0.0000 0.0000 0.0000 12.3461 0.0000
# 6 -0.0001 0.0001 0.0000 0.0000 0.0000 10.7630
#
#
#
# Elastic Compliance Matrix: (Units=1/GPa)
#
#
# Indices 1 2 3 4 5 6 
#
# 1 0.094053 -0.081144 -0.004147 0.000000 0.000000 0.000001
# 2 -0.081144 0.094053 -0.004147 0.000000 0.000000 -0.000001
# 3 -0.004147 -0.004147 0.010944 0.000000 0.000000 0.000000
# 4 0.000000 0.000000 0.000000 0.080997 0.000000 0.000000
# 5 0.000000 0.000000 0.000000 0.000000 0.080997 0.000000
# 6 0.000001 -0.000001 0.000000 0.000000 0.000000 0.092910
#
#
# Mechanical properties :
#
#
# Convention : Reuss Voigt Hill
#
# Bulk Modulus (GPa) = 49.56342 53.41234 51.48788
# Shear Modulus (GPa) = 7.81794 13.95362 10.88578
#
# Velocity S-wave (km/s) = 2.32143 3.10137 2.73930
# Velocity P-wave (km/s) = 6.43043 7.04576 6.74512
#
# Compressibility (1/GPa) = 0.02017617
#
# Stress axis : x y z
#
# Youngs Moduli (GPa) = 10.63231 10.63231 91.37335
#
# Poissons Ratio (x) = 0.86274 0.37889
# Poissons Ratio (y) = 0.86274 0.37889
# Poissons Ratio (z) = 0.04409 0.04409
#
# Static dielectric constant tensor:
#      x y z
#    x 2.513860 0.000000 0.000000 
#    y 0.000000 2.513860 0.000000 
#    z 0.000000 0.000000 3.202010 
# 
# 
# High freq. dielectric constant tensor:
#      x y z
#    x 1.516400 0.000000 0.000000 
#    y 0.000000 1.516400 0.000000 
#    z 0.000000 0.000000 1.571170 
# 
# From -- ./inp_files/3306.got.cif
#   From: 2010.03.12/outbox.cif.g09.slc.cpg/sg107_2_cif.got.tgz:3306.got - 2010.04.14 01:49:11.
