data_PCOD8307415
_publ_section_title
;
Structure prediction by ZEFSAII (Michael W. Deem and Ramdas Pophale) SiO2 
 PCOD8307415
Probable space group: P 42 B C
;
_chemical_formula_sum "Si O2"
_cell_formula_units_Z 52
_cell_length_a 17.159699
_cell_length_b 17.159699
_cell_length_c 8.831131
_cell_angle_alpha 90.000000
_cell_angle_beta 90.000000
_cell_angle_gamma 90.000000
_cell_volume 2600.373061
_symmetry_space_group_name_H-M "P 42 B C"
_symmetry_group_IT_number 106
_symmetry_cell_setting 'tetragonal'
loop_
_space_group_symop_operation_xyz
x,y,z
-y,x,1/2+z
-x,-y,z
y,-x,1/2+z
1/2-x,1/2+y,z
1/2+x,1/2-y,z
1/2-y,1/2-x,1/2+z
1/2+y,1/2+x,1/2+z
loop_
_atom_site_type_symbol
_atom_site_label
_atom_site_fract_x
_atom_site_fract_y
_atom_site_fract_z
Si Si1 0.853794 0.775906 0.470830
Si Si2 0.934432 0.870157 0.059503
Si Si3 0.500000 0.000000 0.874935
Si Si4 0.923058 0.223627 0.099887
Si Si5 0.352148 0.774451 0.146213
Si Si6 0.647270 0.496547 0.865650
Si Si7 0.998939 0.374989 0.125201
O O1 0.797513 0.838709 0.543868
O O2 0.841518 0.700610 0.574890
O O3 0.820044 0.754306 0.306986
O O4 0.944500 0.802946 0.472363
O O5 0.914553 0.947968 0.965789
O O6 0.865847 0.804603 0.047385
O O7 0.013990 0.827648 0.001359
O O8 0.949317 0.894820 0.236850
O O9 0.572605 0.976740 0.769461
O O10 0.522182 0.073351 0.979931
O O11 0.935390 0.203539 0.278964
O O12 0.928675 0.317202 0.078671
O O13 0.434174 0.815706 0.176488
#
# Coordination Sequence:
#
# PCOD8307415 Si02
#       7
#     8   8   4   8   8   8   8
#     4  11  22  40  61  94 121 169 204 262 313 373
#     4   8  19  41  62  87 125 162 205 254 311 372
#     4  10  22  36  70  90 118 164 202 254 322 356
#     4   9  22  40  62  86 134 153 207 261 302 379
#     4  10  22  40  66  88 127 164 213 250 316 377
#     4   9  20  43  58  91 122 161 213 252 309 376
#     4  10  20  43  60  91 124 158 205 255 306 375
#
# _framework density 19.997129999999999
#
# number of rings (size 3 to 8) (size 9 to 14) (size 15 to 20)
#    0.923    1.538    1.538    0.923    2.154    1.846 
#    8.308    0.000    0.000    0.000    0.000    0.000 
#    0.000    0.000    0.000    0.000    0.000    0.000 
#
# Total GULP energy -644204.464924 kJ/mol
# GULP energy per Si atom -12388.547402 kJ/mol
# Density = 1.995162 g / cm^3
# Si number density = 19.997130 Si / 1000 Ang^3
#
#
#
# Elastic Constant Matrix: (Units=GPa)
#
#
# Indices 1 2 3 4 5 6 
#
# 1 -1.3603 89.4234 31.5873 0.0000 0.0000 0.0000
# 2 89.4234 -1.3603 31.5873 0.0000 0.0000 0.0000
# 3 31.5873 31.5873 72.0494 0.0000 0.0000 0.0000
# 4 0.0000 0.0000 0.0000 29.5240 0.0000 0.0000
# 5 0.0000 0.0000 0.0000 0.0000 29.5240 0.0000
# 6 0.0000 0.0000 0.0000 0.0000 0.0000 24.6507
#
#
#
# Elastic Compliance Matrix: (Units=1/GPa)
#
#
# Indices 1 2 3 4 5 6 
#
# 1 0.002775 0.013790 -0.007262 0.000000 0.000000 0.000000
# 2 0.013790 0.002775 -0.007262 0.000000 0.000000 0.000000
# 3 -0.007262 -0.007262 0.020247 0.000000 0.000000 0.000000
# 4 0.000000 0.000000 0.000000 0.033871 0.000000 0.000000
# 5 0.000000 0.000000 0.000000 0.000000 0.033871 0.000000
# 6 0.000000 0.000000 0.000000 0.000000 0.000000 0.040567
#
#
# Mechanical properties :
#
#
# Convention : Reuss Voigt Hill
#
# Bulk Modulus (GPa) = 41.10451 41.61386 41.35919
# Shear Modulus (GPa) = 34.79846 11.18846 22.99346
#
# Velocity S-wave (km/s) = 4.17606 2.36795 3.39460
# Velocity P-wave (km/s) = 6.62212 5.32272 6.00765
#
# Compressibility (1/GPa) = 0.02432823
#
# Stress axis : x y z
#
# Youngs Moduli (GPa) = 360.34561 360.34561 49.38935
#
# Poissons Ratio (x) = -4.96928 0.35869
# Poissons Ratio (y) = -4.96928 0.35869
# Poissons Ratio (z) = 2.61700 2.61700
#
# Static dielectric constant tensor:
#      x y z
#    x 3.549260 0.000000 0.000000 
#    y 0.000000 3.549260 0.000000 
#    z 0.000000 0.000000 3.449710 
# 
# 
# High freq. dielectric constant tensor:
#      x y z
#    x 1.772660 0.000000 0.000000 
#    y 0.000000 1.772660 0.000000 
#    z 0.000000 0.000000 1.765790 
# 
# From -- ./inp_files/513.got.cif
#   From: 2010.03.12/outbox.cif.g09.slc.cpg/sg106_cif.got.tgz:513.got - 2010.04.14 01:48:02.
