data_PCOD8307716
_publ_section_title
;
Structure prediction by ZEFSAII (Michael W. Deem and Ramdas Pophale) SiO2 
 PCOD8307716
Probable space group: I 4 C M
;
_chemical_formula_sum "Si O2"
_cell_formula_units_Z 128
_cell_length_a 20.355326
_cell_length_b 20.355326
_cell_length_c 18.146550
_cell_angle_alpha 90.000000
_cell_angle_beta 90.000000
_cell_angle_gamma 90.000000
_cell_volume 7518.828762
_symmetry_space_group_name_H-M "I 4 C M"
_symmetry_group_IT_number 108
_symmetry_cell_setting 'tetragonal'
loop_
_space_group_symop_operation_xyz
x,y,z
-y,x,z
-x,-y,z
y,-x,z
-x,y,1/2+z
x,-y,1/2+z
-y,-x,1/2+z
y,x,1/2+z
1/2+x,1/2+y,1/2+z
1/2-y,1/2+x,1/2+z
1/2-x,1/2-y,1/2+z
1/2+y,1/2-x,1/2+z
1/2-x,1/2+y,z
1/2+x,1/2-y,z
1/2-y,1/2-x,z
1/2+y,1/2+x,z
loop_
_atom_site_type_symbol
_atom_site_label
_atom_site_fract_x
_atom_site_fract_y
_atom_site_fract_z
Si Si1 0.376970 0.229469 0.038800
Si Si2 0.168249 0.221115 0.005980
Si Si3 0.339625 0.728920 0.839951
Si Si4 0.140052 0.252681 0.265443
Si Si5 0.166840 0.560486 0.313587
Si Si6 0.545147 0.849658 0.145384
Si Si7 0.677104 0.069717 0.397377
Si Si8 0.702508 0.907268 0.618426
O O1 0.316910 0.183091 0.015644
O O2 0.346533 0.302824 0.041857
O O3 0.407454 0.209692 0.117955
O O4 0.430578 0.217784 0.974052
O O5 0.221569 0.278432 0.008598
O O6 0.104741 0.246152 0.051742
O O7 0.147351 0.204002 0.922939
O O8 0.280077 0.780077 0.840541
O O9 0.319716 0.668388 0.786043
O O10 0.406727 0.761154 0.810767
O O11 0.200931 0.299070 0.246626
O O12 0.100923 0.276987 0.335907
O O13 0.092741 0.253787 0.193795
O O14 0.114555 0.614555 0.339058
O O15 0.151338 0.533582 0.232524
O O16 0.161377 0.504547 0.374813
O O17 0.580650 0.919351 0.123201
O O18 0.474844 0.838175 0.107249
O O19 0.608176 0.108176 0.404235
O O20 0.649134 0.850867 0.621847
#
# Coordination Sequence:
#
# PCOD8307716 Si02
#       8
#    16  16  16  16  16  16  16  16
#     4   9  18  32  49  67  91 127 161 198 249 298
#     4   9  17  30  48  68  89 117 159 205 252 294
#     4   9  17  30  47  68  92 120 156 207 260 295
#     4   9  16  29  48  67  87 118 161 205 249 288
#     4  10  21  32  46  69  99 134 168 203 241 284
#     4  10  21  34  45  66 101 138 167 193 236 291
#     4  10  18  32  50  67  92 130 171 202 236 285
#     4  10  20  31  47  70  95 130 171 207 239 285
#
# _framework density 17.023928999999999
#
# number of rings (size 3 to 8) (size 9 to 14) (size 15 to 20)
#    0.000    2.500    2.500    0.000    3.500    0.500 
#    0.000    1.250    0.000    2.250    0.000    0.000 
#    0.000    1.000    2.000    0.000    0.000    0.000 
#
# Total GULP energy -793096.976933 kJ/mol
# GULP energy per Si atom -12392.140265 kJ/mol
# Density = 1.698518 g / cm^3
# Si number density = 17.023929 Si / 1000 Ang^3
#
#
#
# Elastic Constant Matrix: (Units=GPa)
#
#
# Indices 1 2 3 4 5 6 
#
# 1 51.4972 49.4579 21.9880 0.0000 0.0000 0.0002
# 2 49.4579 51.4972 21.9880 0.0000 0.0000 -0.0002
# 3 21.9880 21.9880 56.7115 0.0000 0.0000 0.0000
# 4 0.0000 0.0000 0.0000 21.4737 0.0000 0.0000
# 5 0.0000 0.0000 0.0000 0.0000 21.4737 0.0000
# 6 0.0002 -0.0002 0.0000 0.0000 0.0000 19.6969
#
#
#
# Elastic Compliance Matrix: (Units=1/GPa)
#
#
# Indices 1 2 3 4 5 6 
#
# 1 0.251133 -0.239214 -0.004621 0.000000 0.000000 -0.000005
# 2 -0.239214 0.251133 -0.004621 0.000000 0.000000 0.000005
# 3 -0.004621 -0.004621 0.021216 0.000000 0.000000 0.000000
# 4 0.000000 0.000000 0.000000 0.046569 0.000000 0.000000
# 5 0.000000 0.000000 0.000000 0.000000 0.046569 0.000000
# 6 -0.000005 0.000005 0.000000 0.000000 0.000000 0.050769
#
#
# Mechanical properties :
#
#
# Convention : Reuss Voigt Hill
#
# Bulk Modulus (GPa) = 37.63757 38.50819 38.07288
# Shear Modulus (GPa) = 4.26200 16.94701 10.60451
#
# Velocity S-wave (km/s) = 1.58397 3.15855 2.49854
# Velocity P-wave (km/s) = 5.04994 5.99759 5.54405
#
# Compressibility (1/GPa) = 0.02656920
#
# Stress axis : x y z
#
# Youngs Moduli (GPa) = 3.98196 3.98196 47.13358
#
# Poissons Ratio (x) = 0.95254 0.21780
# Poissons Ratio (y) = 0.95254 0.21780
# Poissons Ratio (z) = 0.01840 0.01840
#
# Static dielectric constant tensor:
#      x y z
#    x 3.041330 0.000000 0.000000 
#    y 0.000000 3.041330 0.000000 
#    z 0.000000 0.000000 3.335880 
# 
# 
# High freq. dielectric constant tensor:
#      x y z
#    x 1.621330 0.000000 0.000000 
#    y 0.000000 1.621330 0.000000 
#    z 0.000000 0.000000 1.669180 
# 
# From -- ./inp_files/2669.got.cif
#   From: 2010.03.12/outbox.cif.g09.slc.cpg/sg108_2_cif.got.tgz:2669.got - 2010.04.14 01:53:11.
