data_PCOD8307940
_publ_section_title
;
Structure prediction by ZEFSAII (Michael W. Deem and Ramdas Pophale) SiO2 
 PCOD8307940
Probable space group: I 41 M D
;
_chemical_formula_sum "Si O2"
_cell_formula_units_Z 72
_cell_length_a 15.570882
_cell_length_b 15.570882
_cell_length_c 16.937230
_cell_angle_alpha 90.000000
_cell_angle_beta 90.000000
_cell_angle_gamma 90.000000
_cell_volume 4106.471491
_symmetry_space_group_name_H-M "I 41 M D"
_symmetry_group_IT_number 109
_symmetry_cell_setting 'tetragonal'
loop_
_space_group_symop_operation_xyz
x,y,z
-y,1/2+x,1/4+z
-x,-y,z
y,1/2-x,1/4+z
-x,y,z
x,-y,z
-y,1/2-x,1/4+z
y,1/2+x,1/4+z
1/2+x,1/2+y,1/2+z
1/2-y,x,3/4+z
1/2-x,1/2-y,1/2+z
1/2+y,-x,3/4+z
1/2-x,1/2+y,1/2+z
1/2+x,1/2-y,1/2+z
1/2-y,-x,3/4+z
1/2+y,x,3/4+z
loop_
_atom_site_type_symbol
_atom_site_label
_atom_site_fract_x
_atom_site_fract_y
_atom_site_fract_z
Si Si1 0.179683 0.599257 0.082350
Si Si2 0.721333 0.784963 0.435877
Si Si3 0.000000 0.709616 0.315931
Si Si4 0.500000 0.101430 0.971688
Si Si5 0.902862 0.000000 0.911204
Si Si6 0.824684 0.662508 0.545161
O O1 0.202696 0.500000 0.071553
O O2 0.242265 0.636474 0.149243
O O3 0.081804 0.614222 0.106812
O O4 0.192389 0.646274 0.999703
O O5 0.779310 0.709515 0.472123
O O6 0.773436 0.835162 0.368602
O O7 0.000000 0.639771 0.384498
O O8 0.000000 0.662347 0.232841
O O9 0.916893 0.768295 0.323981
O O10 0.417865 0.131323 0.020312
O O11 0.500000 0.000000 0.961896
O O12 0.000000 0.000000 0.944508
#
# Coordination Sequence:
#
# PCOD8307940 Si02
#       6
#    16  16   8   8   8  16
#     4  10  22  38  60  88 116 153 192 242 290 348
#     4  10  22  40  60  84 114 158 198 238 293 346
#     4  12  21  39  58  88 122 153 192 244 290 362
#     4  12  25  38  61  92 120 156 197 249 305 352
#     4  10  21  38  59  90 122 147 189 244 296 348
#     4  11  22  39  59  84 118 156 198 241 289 358
#
# _framework density 17.533300000000001
#
# number of rings (size 3 to 8) (size 9 to 14) (size 15 to 20)
#    0.000    1.333    5.556    0.333    3.111    0.000 
#    0.000    0.000    0.000    0.000    0.000    0.000 
#    0.000    0.000    0.000    0.000    0.000    0.000 
#
# Total GULP energy -446559.626416 kJ/mol
# GULP energy per Si atom -12404.434067 kJ/mol
# Density = 1.749339 g / cm^3
# Si number density = 17.533300 Si / 1000 Ang^3
#
#
#
# Elastic Constant Matrix: (Units=GPa)
#
#
# Indices 1 2 3 4 5 6 
#
# 1 133.0030 73.3579 61.7033 0.0000 0.0000 0.0000
# 2 73.3579 133.0030 61.7033 0.0000 0.0000 0.0000
# 3 61.7033 61.7033 104.8888 0.0000 0.0000 0.0000
# 4 0.0000 0.0000 0.0000 29.2963 0.0000 0.0000
# 5 0.0000 0.0000 0.0000 0.0000 29.2963 0.0000
# 6 0.0000 0.0000 0.0000 0.0000 0.0000 28.7971
#
#
#
# Elastic Compliance Matrix: (Units=1/GPa)
#
#
# Indices 1 2 3 4 5 6 
#
# 1 0.012121 -0.004645 -0.004398 0.000000 0.000000 0.000000
# 2 -0.004645 0.012121 -0.004398 0.000000 0.000000 0.000000
# 3 -0.004398 -0.004398 0.014708 0.000000 0.000000 0.000000
# 4 0.000000 0.000000 0.000000 0.034134 0.000000 0.000000
# 5 0.000000 0.000000 0.000000 0.000000 0.034134 0.000000
# 6 0.000000 0.000000 0.000000 0.000000 0.000000 0.034726
#
#
# Mechanical properties :
#
#
# Convention : Reuss Voigt Hill
#
# Bulk Modulus (GPa) = 82.86033 84.93597 83.89815
# Shear Modulus (GPa) = 28.92722 29.08666 29.00694
#
# Velocity S-wave (km/s) = 4.06623 4.07742 4.07183
# Velocity P-wave (km/s) = 8.33109 8.40922 8.37025
#
# Compressibility (1/GPa) = 0.01206850
#
# Stress axis : x y z
#
# Youngs Moduli (GPa) = 82.50259 82.50260 67.98948
#
# Poissons Ratio (x) = 0.38322 0.29901
# Poissons Ratio (y) = 0.38322 0.29901
# Poissons Ratio (z) = 0.36283 0.36283
#
# Static dielectric constant tensor:
#      x y z
#    x 3.318490 0.000000 0.000000 
#    y 0.000000 3.318490 0.000000 
#    z 0.000000 0.000000 3.238580 
# 
# 
# High freq. dielectric constant tensor:
#      x y z
#    x 1.686700 0.000000 0.000000 
#    y 0.000000 1.686700 0.000000 
#    z 0.000000 0.000000 1.686010 
# 
# From -- ./inp_files/3067.got.cif
#   From: 2010.03.12/outbox.cif.g09.slc.cpg/sg109_2_cif.got.tgz:3067.got - 2010.04.14 01:55:16.
