data_PCOD8307859
_publ_section_title
;
Structure prediction by ZEFSAII (Michael W. Deem and Ramdas Pophale) SiO2 
 PCOD8307859
Probable space group: I 41 M D
;
_chemical_formula_sum "Si O2"
_cell_formula_units_Z 64
_cell_length_a 19.801643
_cell_length_b 19.801643
_cell_length_c 9.579533
_cell_angle_alpha 90.000000
_cell_angle_beta 90.000000
_cell_angle_gamma 90.000000
_cell_volume 3756.183414
_symmetry_space_group_name_H-M "I 41 M D"
_symmetry_group_IT_number 109
_symmetry_cell_setting 'tetragonal'
loop_
_space_group_symop_operation_xyz
x,y,z
-y,1/2+x,1/4+z
-x,-y,z
y,1/2-x,1/4+z
-x,y,z
x,-y,z
-y,1/2-x,1/4+z
y,1/2+x,1/4+z
1/2+x,1/2+y,1/2+z
1/2-y,x,3/4+z
1/2-x,1/2-y,1/2+z
1/2+y,-x,3/4+z
1/2-x,1/2+y,1/2+z
1/2+x,1/2-y,1/2+z
1/2-y,-x,3/4+z
1/2+y,x,3/4+z
loop_
_atom_site_type_symbol
_atom_site_label
_atom_site_fract_x
_atom_site_fract_y
_atom_site_fract_z
Si Si1 0.580000 0.000000 0.116290
Si Si2 0.360314 0.075277 0.576537
Si Si3 0.578757 0.124996 0.297992
Si Si4 0.244613 0.177756 0.549125
Si Si5 0.500000 0.421697 0.558817
O O1 0.604547 0.065799 0.197755
O O2 0.500000 0.000000 0.112276
O O3 0.612910 0.000000 0.961565
O O4 0.410499 0.102958 0.458098
O O5 0.302822 0.129491 0.608742
O O6 0.401138 0.067152 0.722006
O O7 0.332090 0.000000 0.534236
O O8 0.500000 0.143504 0.276932
O O9 0.626710 0.186088 0.252618
O O10 0.220394 0.230095 0.666642
O O11 0.500000 0.500000 0.584622
#
# Coordination Sequence:
#
# PCOD8307859 Si02
#       5
#     8  16  16  16   8
#     4   9  17  29  49  83 107 131 159 224 283 318
#     4   9  18  32  54  79 106 136 179 222 269 319
#     4  10  18  32  56  80 105 133 181 225 274 320
#     4  10  22  37  52  74 105 152 185 220 260 323
#     4   9  17  29  51  81 113 130 163 220 285 315
#
# _framework density 17.038571999999998
#
# number of rings (size 3 to 8) (size 9 to 14) (size 15 to 20)
#    0.750    1.750    1.250    1.500    0.000    2.000 
#    0.000    0.000    0.000    0.000    3.250    0.000 
#    0.000    0.000    0.000    0.000    0.000    0.000 
#
# Total GULP energy -396549.317925 kJ/mol
# GULP energy per Si atom -12392.166185 kJ/mol
# Density = 1.699979 g / cm^3
# Si number density = 17.038572 Si / 1000 Ang^3
#
#
#
# Elastic Constant Matrix: (Units=GPa)
#
#
# Indices 1 2 3 4 5 6 
#
# 1 96.2238 51.2786 51.8204 0.0000 0.0000 0.0000
# 2 51.2786 96.2238 51.8204 0.0000 0.0000 0.0000
# 3 51.8204 51.8204 112.7591 0.0000 0.0000 0.0000
# 4 0.0000 0.0000 0.0000 24.0087 0.0000 0.0000
# 5 0.0000 0.0000 0.0000 0.0000 24.0087 0.0000
# 6 0.0000 0.0000 0.0000 0.0000 0.0000 24.8568
#
#
#
# Elastic Compliance Matrix: (Units=1/GPa)
#
#
# Indices 1 2 3 4 5 6 
#
# 1 0.016131 -0.006118 -0.004602 0.000000 0.000000 0.000000
# 2 -0.006118 0.016131 -0.004602 0.000000 0.000000 0.000000
# 3 -0.004602 -0.004602 0.013098 0.000000 0.000000 0.000000
# 4 0.000000 0.000000 0.000000 0.041652 0.000000 0.000000
# 5 0.000000 0.000000 0.000000 0.000000 0.041652 0.000000
# 6 0.000000 0.000000 0.000000 0.000000 0.000000 0.040231
#
#
# Mechanical properties :
#
#
# Convention : Reuss Voigt Hill
#
# Bulk Modulus (GPa) = 67.94737 68.33838 68.14288
# Shear Modulus (GPa) = 24.45680 24.59399 24.52539
#
# Velocity S-wave (km/s) = 3.79275 3.80337 3.79806
# Velocity P-wave (km/s) = 7.69058 7.71250 7.70155
#
# Compressibility (1/GPa) = 0.01471727
#
# Stress axis : x y z
#
# Youngs Moduli (GPa) = 61.99229 61.99229 76.34812
#
# Poissons Ratio (x) = 0.37929 0.35132
# Poissons Ratio (y) = 0.37929 0.35132
# Poissons Ratio (z) = 0.28526 0.28526
#
# Static dielectric constant tensor:
#      x y z
#    x 3.157530 0.000000 0.000000 
#    y 0.000000 3.157530 0.000000 
#    z 0.000000 0.000000 3.229330 
# 
# 
# High freq. dielectric constant tensor:
#      x y z
#    x 1.652360 0.000000 0.000000 
#    y 0.000000 1.652360 0.000000 
#    z 0.000000 0.000000 1.653580 
# 
# From -- ./inp_files/1211.got.cif
#   From: 2010.03.12/outbox.cif.g09.slc.cpg/sg109_1_cif.got.tgz:1211.got - 2010.04.14 01:55:16.
