data_PCOD8307902
_publ_section_title
;
Structure prediction by ZEFSAII (Michael W. Deem and Ramdas Pophale) SiO2 
 PCOD8307902
Probable space group: I 41 M D
;
_chemical_formula_sum "Si O2"
_cell_formula_units_Z 96
_cell_length_a 14.612976
_cell_length_b 14.612976
_cell_length_c 27.600544
_cell_angle_alpha 90.000000
_cell_angle_beta 90.000000
_cell_angle_gamma 90.000000
_cell_volume 5893.794430
_symmetry_space_group_name_H-M "I 41 M D"
_symmetry_group_IT_number 109
_symmetry_cell_setting 'tetragonal'
loop_
_space_group_symop_operation_xyz
x,y,z
-y,1/2+x,1/4+z
-x,-y,z
y,1/2-x,1/4+z
-x,y,z
x,-y,z
-y,1/2-x,1/4+z
y,1/2+x,1/4+z
1/2+x,1/2+y,1/2+z
1/2-y,x,3/4+z
1/2-x,1/2-y,1/2+z
1/2+y,-x,3/4+z
1/2-x,1/2+y,1/2+z
1/2+x,1/2-y,1/2+z
1/2-y,-x,3/4+z
1/2+y,x,3/4+z
loop_
_atom_site_type_symbol
_atom_site_label
_atom_site_fract_x
_atom_site_fract_y
_atom_site_fract_z
Si Si1 0.500000 0.106894 0.050620
Si Si2 0.000000 0.893106 0.075796
Si Si3 0.394807 0.191439 0.680306
Si Si4 0.000000 0.891396 0.968923
Si Si5 0.823399 0.308501 0.361613
Si Si6 0.605193 0.308561 0.946110
Si Si7 0.323399 0.308501 0.764803
Si Si8 0.500000 0.108604 0.157493
O O1 0.408178 0.133535 0.022599
O O2 0.500000 0.153025 0.103848
O O3 0.500000 0.000000 0.056900
O O4 0.091822 0.866465 0.103817
O O5 0.000000 0.846975 0.022568
O O6 0.000000 0.000000 0.069516
O O7 0.500000 0.191564 0.662733
O O8 0.327636 0.227028 0.638122
O O9 0.389518 0.251901 0.729255
O O10 0.358222 0.089612 0.690589
O O11 0.000000 0.000000 0.973582
O O12 0.889518 0.251901 0.397161
O O13 0.807607 0.250000 0.313208
O O14 0.500000 0.308437 0.963683
O O15 0.641779 0.410388 0.935827
O O16 0.672364 0.272973 0.988294
O O17 0.500000 0.000000 0.152835
#
# Coordination Sequence:
#
# PCOD8307902 Si02
#       8
#     8   8  16   8  16  16  16   8
#     4  11  20  32  50  72 103 143 173 204 254 304
#     4  11  20  32  50  72 103 143 173 204 254 304
#     4  10  20  34  50  74 102 135 171 210 251 299
#     4   9  18  32  53  71  96 133 174 212 250 300
#     4  11  21  33  50  75 107 134 169 210 253 304
#     4  10  20  34  50  74 102 135 171 210 251 299
#     4  11  21  33  50  75 107 134 169 210 253 304
#     4   9  18  32  53  71  96 133 174 212 250 300
#
# _framework density 16.288319000000001
#
# number of rings (size 3 to 8) (size 9 to 14) (size 15 to 20)
#    0.000    1.667    5.000    1.000    0.000    1.333 
#    0.000    0.833    0.000    0.000    0.000    0.000 
#    0.000    3.333    0.000    0.000    0.000    0.000 
#
# Total GULP energy -595065.686569 kJ/mol
# GULP energy per Si atom -12397.201804 kJ/mol
# Density = 1.625125 g / cm^3
# Si number density = 16.288319 Si / 1000 Ang^3
#
#
#
# Elastic Constant Matrix: (Units=GPa)
#
#
# Indices 1 2 3 4 5 6 
#
# 1 97.3521 22.6046 32.5384 0.0000 0.0000 0.0000
# 2 22.6046 97.3521 32.5384 0.0000 0.0000 0.0000
# 3 32.5384 32.5384 82.8782 0.0000 0.0000 0.0000
# 4 0.0000 0.0000 0.0000 25.4378 0.0000 0.0000
# 5 0.0000 0.0000 0.0000 0.0000 25.4378 0.0000
# 6 0.0000 0.0000 0.0000 0.0000 0.0000 14.3660
#
#
#
# Elastic Compliance Matrix: (Units=1/GPa)
#
#
# Indices 1 2 3 4 5 6 
#
# 1 0.011985 -0.001393 -0.004159 0.000000 0.000000 0.000000
# 2 -0.001393 0.011985 -0.004159 0.000000 0.000000 0.000000
# 3 -0.004159 -0.004159 0.015331 0.000000 0.000000 0.000000
# 4 0.000000 0.000000 0.000000 0.039312 0.000000 0.000000
# 5 0.000000 0.000000 0.000000 0.000000 0.039312 0.000000
# 6 0.000000 0.000000 0.000000 0.000000 0.000000 0.069609
#
#
# Mechanical properties :
#
#
# Convention : Reuss Voigt Hill
#
# Bulk Modulus (GPa) = 50.29779 50.32723 50.31251
# Shear Modulus (GPa) = 23.41023 25.70839 24.55931
#
# Velocity S-wave (km/s) = 3.79521 3.97713 3.88724
# Velocity P-wave (km/s) = 7.08177 7.21491 7.14865
#
# Compressibility (1/GPa) = 0.01988159
#
# Stress axis : x y z
#
# Youngs Moduli (GPa) = 83.43490 83.43490 65.22609
#
# Poissons Ratio (x) = 0.11622 0.27125
# Poissons Ratio (y) = 0.11622 0.27125
# Poissons Ratio (z) = 0.34697 0.34697
#
# Static dielectric constant tensor:
#      x y z
#    x 3.162440 0.000000 0.000000 
#    y 0.000000 3.162440 0.000000 
#    z 0.000000 0.000000 3.207570 
# 
# 
# High freq. dielectric constant tensor:
#      x y z
#    x 1.614760 0.000000 0.000000 
#    y 0.000000 1.614760 0.000000 
#    z 0.000000 0.000000 1.627860 
# 
# From -- ./inp_files/4441.got.cif
#   From: 2010.03.12/outbox.cif.g09.slc.cpg/sg109_3_cif.got.tgz:4441.got - 2010.04.14 01:55:16.
