data_PCOD8307761
_publ_section_title
;
Structure prediction by ZEFSAII (Michael W. Deem and Ramdas Pophale) SiO2 
 PCOD8307761
Probable space group: I 4 C M
;
_chemical_formula_sum "Si O2"
_cell_formula_units_Z 96
_cell_length_a 21.049073
_cell_length_b 21.049073
_cell_length_c 11.675536
_cell_angle_alpha 90.000000
_cell_angle_beta 90.000000
_cell_angle_gamma 90.000000
_cell_volume 5173.003543
_symmetry_space_group_name_H-M "I 4 C M"
_symmetry_group_IT_number 108
_symmetry_cell_setting 'tetragonal'
loop_
_space_group_symop_operation_xyz
x,y,z
-y,x,z
-x,-y,z
y,-x,z
-x,y,1/2+z
x,-y,1/2+z
-y,-x,1/2+z
y,x,1/2+z
1/2+x,1/2+y,1/2+z
1/2-y,1/2+x,1/2+z
1/2-x,1/2-y,1/2+z
1/2+y,1/2-x,1/2+z
1/2-x,1/2+y,z
1/2+x,1/2-y,z
1/2-y,1/2-x,z
1/2+y,1/2+x,z
loop_
_atom_site_type_symbol
_atom_site_label
_atom_site_fract_x
_atom_site_fract_y
_atom_site_fract_z
Si Si1 0.771561 0.100230 0.411120
Si Si2 0.218518 0.023966 0.523779
Si Si3 0.675169 0.724141 0.142213
Si Si4 0.377709 0.778719 0.171546
Si Si5 0.842317 0.100864 0.837188
Si Si6 0.397514 0.484206 0.665520
O O1 0.759664 0.143951 0.520722
O O2 0.724819 0.120406 0.309124
O O3 0.844301 0.106070 0.364349
O O4 0.750978 0.027889 0.439677
O O5 0.268987 0.052234 0.615641
O O6 0.194269 0.084490 0.452883
O O7 0.162804 0.982443 0.583171
O O8 0.714143 0.785858 0.184885
O O9 0.722350 0.665618 0.122541
O O10 0.623707 0.706901 0.239206
O O11 0.347072 0.847072 0.138446
O O12 0.875476 0.034778 0.794228
O O13 0.447575 0.428050 0.641553
#
# Coordination Sequence:
#
# PCOD8307761 Si02
#       6
#    16  16  16  16  16  16
#     4  11  21  35  57  80 113 149 194 235 284 342
#     4  12  21  35  56  79 112 149 190 238 289 334
#     4  10  20  37  58  81 110 148 195 244 295 346
#     4  10  22  38  57  82 112 149 191 239 292 345
#     4  11  21  36  52  80 110 152 195 242 283 333
#     4  11  22  35  50  75 111 157 205 236 268 319
#
# _framework density 18.557886
#
# number of rings (size 3 to 8) (size 9 to 14) (size 15 to 20)
#    0.000    1.167    3.333    5.500    0.000    1.333 
#    0.000    1.667    0.000    0.000    0.000    0.000 
#    0.000    5.333    0.000    0.000    0.000    0.000 
#
# Total GULP energy -594883.394808 kJ/mol
# GULP energy per Si atom -12393.404058 kJ/mol
# Density = 1.851565 g / cm^3
# Si number density = 18.557886 Si / 1000 Ang^3
#
#
#
# Elastic Constant Matrix: (Units=GPa)
#
#
# Indices 1 2 3 4 5 6 
#
# 1 66.2969 43.7474 31.0078 0.0000 0.0000 -0.0002
# 2 43.7474 66.2969 31.0078 0.0000 0.0000 0.0002
# 3 31.0078 31.0078 87.8490 0.0000 0.0000 0.0000
# 4 0.0000 0.0000 0.0000 23.6447 0.0000 0.0000
# 5 0.0000 0.0000 0.0000 0.0000 23.6447 0.0000
# 6 -0.0002 0.0002 0.0000 0.0000 0.0000 19.7129
#
#
#
# Elastic Compliance Matrix: (Units=1/GPa)
#
#
# Indices 1 2 3 4 5 6 
#
# 1 0.027845 -0.016502 -0.004004 0.000000 0.000000 0.000000
# 2 -0.016502 0.027845 -0.004004 0.000000 0.000000 0.000000
# 3 -0.004004 -0.004004 0.014210 0.000000 0.000000 0.000000
# 4 0.000000 0.000000 0.000000 0.042293 0.000000 0.000000
# 5 0.000000 0.000000 0.000000 0.000000 0.042293 0.000000
# 6 0.000000 0.000000 0.000000 0.000000 0.000000 0.050728
#
#
# Mechanical properties :
#
#
# Convention : Reuss Voigt Hill
#
# Bulk Modulus (GPa) = 47.88981 47.99653 47.94317
# Shear Modulus (GPa) = 19.14292 21.04578 20.09435
#
# Velocity S-wave (km/s) = 3.21522 3.37124 3.29415
# Velocity P-wave (km/s) = 6.29644 6.40882 6.35288
#
# Compressibility (1/GPa) = 0.02088127
#
# Stress axis : x y z
#
# Youngs Moduli (GPa) = 35.91281 35.91281 70.37455
#
# Poissons Ratio (x) = 0.59262 0.28178
# Poissons Ratio (y) = 0.59262 0.28178
# Poissons Ratio (z) = 0.14379 0.14379
#
# Static dielectric constant tensor:
#      x y z
#    x 3.225000 0.000000 0.000000 
#    y 0.000000 3.225000 0.000000 
#    z 0.000000 0.000000 3.498420 
# 
# 
# High freq. dielectric constant tensor:
#      x y z
#    x 1.688930 0.000000 0.000000 
#    y 0.000000 1.688930 0.000000 
#    z 0.000000 0.000000 1.736880 
# 
# From -- ./inp_files/1467.got.cif
#   From: 2010.03.12/outbox.cif.g09.slc.cpg/sg108_1_cif.got.tgz:1467.got - 2010.04.14 01:53:11.
