data_PCOD8307270
_publ_section_title
;
Structure prediction by ZEFSAII (Michael W. Deem and Ramdas Pophale) SiO2 
 PCOD8307270
Probable space group: P 42 M C
;
_chemical_formula_sum "Si O2"
_cell_formula_units_Z 48
_cell_length_a 8.137067
_cell_length_b 8.137067
_cell_length_c 33.763805
_cell_angle_alpha 90.000000
_cell_angle_beta 90.000000
_cell_angle_gamma 90.000000
_cell_volume 2235.564308
_symmetry_space_group_name_H-M "P 42 M C"
_symmetry_group_IT_number 105
_symmetry_cell_setting 'tetragonal'
loop_
_space_group_symop_operation_xyz
x,y,z
-y,x,1/2+z
-x,-y,z
y,-x,1/2+z
-x,y,z
x,-y,z
-y,-x,1/2+z
y,x,1/2+z
loop_
_atom_site_type_symbol
_atom_site_label
_atom_site_fract_x
_atom_site_fract_y
_atom_site_fract_z
Si Si1 0.686568 0.191719 0.497390
Si Si2 0.314923 0.811498 0.916691
Si Si3 0.500000 0.304630 0.793854
Si Si4 0.180247 0.809890 0.659622
Si Si5 0.804739 0.500000 0.204114
Si Si6 0.690059 0.180340 0.338528
Si Si7 0.310280 0.687656 0.080983
O O1 0.500000 0.248525 0.488889
O O2 0.796867 0.242067 0.460441
O O3 0.756214 0.279646 0.536791
O O4 0.698468 0.000000 0.504910
O O5 0.500000 0.742203 0.915953
O O6 0.206629 0.710409 0.885509
O O7 0.309818 0.000000 0.903740
O O8 0.500000 0.500000 0.797902
O O9 0.500000 0.249230 0.749052
O O10 0.334640 0.230465 0.814613
O O11 0.334591 0.729998 0.683510
O O12 0.205613 0.788687 0.612704
O O13 0.000000 0.733629 0.671285
O O14 0.174912 0.000000 0.670156
O O15 0.000000 0.500000 0.199805
O O16 0.500000 0.173735 0.328001
O O17 0.766939 0.000000 0.327152
O O18 0.500000 0.700991 0.091916
O O19 0.246557 0.500000 0.083095
#
# Coordination Sequence:
#
# PCOD8307270 Si02
#       7
#     8   8   4   8   4   8   8
#     4  10  21  36  56  82 113 154 201 246 294 351
#     4  11  23  37  55  82 117 155 197 246 300 354
#     4  10  22  40  62  90 120 152 192 244 298 354
#     4  10  21  38  61  87 116 156 199 240 294 356
#     4  10  22  40  62  88 122 156 194 244 294 360
#     4  10  21  39  63  88 115 153 198 241 295 362
#     4  10  20  35  57  84 114 151 196 245 298 353
#
# _framework density 21.471086
#
# number of rings (size 3 to 8) (size 9 to 14) (size 15 to 20)
#    0.000    1.833    1.667    2.000    0.000    8.000 
#    0.000    0.000    0.000    0.000    0.000    0.000 
#    0.000    0.000    0.000    0.000    0.000    0.000 
#
# Total GULP energy -595104.972953 kJ/mol
# GULP energy per Si atom -12398.020270 kJ/mol
# Density = 2.142222 g / cm^3
# Si number density = 21.471086 Si / 1000 Ang^3
#
#
#
# Elastic Constant Matrix: (Units=GPa)
#
#
# Indices 1 2 3 4 5 6 
#
# 1 92.5151 24.7244 38.7257 0.0000 0.0000 0.0000
# 2 24.7244 92.5151 38.7257 0.0000 0.0000 0.0000
# 3 38.7257 38.7257 138.6673 0.0000 0.0000 0.0000
# 4 0.0000 0.0000 0.0000 24.5980 0.0000 0.0000
# 5 0.0000 0.0000 0.0000 0.0000 24.5980 0.0000
# 6 0.0000 0.0000 0.0000 0.0000 0.0000 15.0594
#
#
#
# Elastic Compliance Matrix: (Units=1/GPa)
#
#
# Indices 1 2 3 4 5 6 
#
# 1 0.012605 -0.002146 -0.002921 0.000000 0.000000 0.000000
# 2 -0.002146 0.012605 -0.002921 0.000000 0.000000 0.000000
# 3 -0.002921 -0.002921 0.008843 0.000000 0.000000 0.000000
# 4 0.000000 0.000000 0.000000 0.040654 0.000000 0.000000
# 5 0.000000 0.000000 0.000000 0.000000 0.040654 0.000000
# 6 0.000000 0.000000 0.000000 0.000000 0.000000 0.066404
#
#
# Mechanical properties :
#
#
# Convention : Reuss Voigt Hill
#
# Bulk Modulus (GPa) = 55.31713 58.67214 56.99463
# Shear Modulus (GPa) = 24.53795 27.61921 26.07858
#
# Velocity S-wave (km/s) = 3.38425 3.59046 3.48888
# Velocity P-wave (km/s) = 6.41018 6.67637 6.54463
#
# Compressibility (1/GPa) = 0.01807758
#
# Stress axis : x y z
#
# Youngs Moduli (GPa) = 79.33201 79.33201 113.08414
#
# Poissons Ratio (x) = 0.17025 0.33031
# Poissons Ratio (y) = 0.17025 0.33031
# Poissons Ratio (z) = 0.23172 0.23172
#
# Static dielectric constant tensor:
#      x y z
#    x 4.029640 0.000000 0.000000 
#    y 0.000000 4.029640 0.000000 
#    z 0.000000 0.000000 3.781400 
# 
# 
# High freq. dielectric constant tensor:
#      x y z
#    x 1.835450 0.000000 0.000000 
#    y 0.000000 1.835450 0.000000 
#    z 0.000000 0.000000 1.836700 
# 
# From -- ./inp_files/4729.got.cif
#   From: 2010.03.12/outbox.cif.g09.slc.cpg/sg105_3_cif.got.tgz:4729.got - 2010.04.14 01:45:32.
