data_PCOD8307773
_publ_section_title
;
Structure prediction by ZEFSAII (Michael W. Deem and Ramdas Pophale) SiO2 
 PCOD8307773
Probable space group: I 4 C M
;
_chemical_formula_sum "Si O2"
_cell_formula_units_Z 96
_cell_length_a 18.930244
_cell_length_b 18.930244
_cell_length_c 14.713866
_cell_angle_alpha 90.000000
_cell_angle_beta 90.000000
_cell_angle_gamma 90.000000
_cell_volume 5272.774766
_symmetry_space_group_name_H-M "I 4 C M"
_symmetry_group_IT_number 108
_symmetry_cell_setting 'tetragonal'
loop_
_space_group_symop_operation_xyz
x,y,z
-y,x,z
-x,-y,z
y,-x,z
-x,y,1/2+z
x,-y,1/2+z
-y,-x,1/2+z
y,x,1/2+z
1/2+x,1/2+y,1/2+z
1/2-y,1/2+x,1/2+z
1/2-x,1/2-y,1/2+z
1/2+y,1/2-x,1/2+z
1/2-x,1/2+y,z
1/2+x,1/2-y,z
1/2-y,1/2-x,z
1/2+y,1/2+x,z
loop_
_atom_site_type_symbol
_atom_site_label
_atom_site_fract_x
_atom_site_fract_y
_atom_site_fract_z
Si Si1 0.503213 0.115713 0.883750
Si Si2 0.430438 0.668160 0.187005
Si Si3 0.169401 0.446560 0.560692
Si Si4 0.446555 0.830596 0.206815
Si Si5 0.831838 0.069559 0.580502
Si Si6 0.894350 0.049297 0.383754
O O1 0.447621 0.052380 0.883746
O O2 0.491305 0.167369 0.799268
O O3 0.582057 0.082057 0.883751
O O4 0.491303 0.167366 0.968234
O O5 0.423929 0.752095 0.180085
O O6 0.363783 0.636214 0.133755
O O7 0.499999 0.640471 0.133753
O O8 0.430044 0.647812 0.293018
O O9 0.124169 0.375832 0.554254
O O10 0.136311 0.500006 0.633751
O O11 0.247903 0.423935 0.587422
O O12 0.375826 0.875826 0.213264
O O13 0.852187 0.069955 0.474490
O O14 0.966218 0.092937 0.383755
#
# Coordination Sequence:
#
# PCOD8307773 Si02
#       6
#    16  16  16  16  16  16
#     4   9  17  32  56  82 109 142 186 240 286 333
#     4  11  22  37  56  83 117 149 191 239 286 344
#     4  10  21  36  57  84 115 152 192 236 287 345
#     4  10  21  36  57  84 115 152 192 236 287 345
#     4  11  22  37  56  83 117 149 191 239 286 344
#     4  11  21  34  59  84 107 144 186 233 286 340
#
# _framework density 18.206733
#
# number of rings (size 3 to 8) (size 9 to 14) (size 15 to 20)
#    0.000    1.667    3.333    2.000    0.000    2.667 
#    0.000    0.000    0.000    0.000    0.000    0.000 
#    0.000    0.000    0.000    0.000    0.000    0.000 
#
# Total GULP energy -595230.528245 kJ/mol
# GULP energy per Si atom -12400.636005 kJ/mol
# Density = 1.816529 g / cm^3
# Si number density = 18.206733 Si / 1000 Ang^3
#
#
#
# Elastic Constant Matrix: (Units=GPa)
#
#
# Indices 1 2 3 4 5 6 
#
# 1 80.0401 42.5679 37.9195 0.0000 0.0000 0.0000
# 2 42.5679 80.0401 37.9195 0.0000 0.0000 0.0000
# 3 37.9195 37.9195 155.6755 0.0000 0.0000 0.0000
# 4 0.0000 0.0000 0.0000 29.3609 0.0000 0.0000
# 5 0.0000 0.0000 0.0000 0.0000 29.3609 0.0000
# 6 0.0000 0.0000 0.0000 0.0000 0.0000 25.0493
#
#
#
# Elastic Compliance Matrix: (Units=1/GPa)
#
#
# Indices 1 2 3 4 5 6 
#
# 1 0.018145 -0.008542 -0.002339 0.000000 0.000000 0.000000
# 2 -0.008542 0.018145 -0.002339 0.000000 0.000000 0.000000
# 3 -0.002339 -0.002339 0.007563 0.000000 0.000000 0.000000
# 4 0.000000 0.000000 0.000000 0.034059 0.000000 0.000000
# 5 0.000000 0.000000 0.000000 0.000000 0.034059 0.000000
# 6 0.000000 0.000000 0.000000 0.000000 0.000000 0.039921
#
#
# Mechanical properties :
#
#
# Convention : Reuss Voigt Hill
#
# Bulk Modulus (GPa) = 57.42959 61.39659 59.41309
# Shear Modulus (GPa) = 27.15389 29.91080 28.53235
#
# Velocity S-wave (km/s) = 3.86608 4.05760 3.96300
# Velocity P-wave (km/s) = 7.17916 7.46641 7.32419
#
# Compressibility (1/GPa) = 0.01741263
#
# Stress axis : x y z
#
# Youngs Moduli (GPa) = 55.11254 55.11254 132.22051
#
# Poissons Ratio (x) = 0.47076 0.30927
# Poissons Ratio (y) = 0.47076 0.30927
# Poissons Ratio (z) = 0.12891 0.12891
#
# Static dielectric constant tensor:
#      x y z
#    x 3.186370 0.000000 0.000000 
#    y 0.000000 3.186370 0.000000 
#    z 0.000000 0.000000 3.665840 
# 
# 
# High freq. dielectric constant tensor:
#      x y z
#    x 1.695000 0.000000 0.000000 
#    y 0.000000 1.695000 0.000000 
#    z 0.000000 0.000000 1.729340 
# 
# From -- ./inp_files/1466.got.cif
#   From: 2010.03.12/outbox.cif.g09.slc.cpg/sg108_1_cif.got.tgz:1466.got - 2010.04.14 01:53:11.
