data_PCOD8307157
_publ_section_title
;
Structure prediction by ZEFSAII (Michael W. Deem and Ramdas Pophale) SiO2 
 PCOD8307157
Probable space group: P 42 M C
;
_chemical_formula_sum "Si O2"
_cell_formula_units_Z 48
_cell_length_a 8.140968
_cell_length_b 8.140968
_cell_length_c 34.363908
_cell_angle_alpha 90.000000
_cell_angle_beta 90.000000
_cell_angle_gamma 90.000000
_cell_volume 2277.480373
_symmetry_space_group_name_H-M "P 42 M C"
_symmetry_group_IT_number 105
_symmetry_cell_setting 'tetragonal'
loop_
_space_group_symop_operation_xyz
x,y,z
-y,x,1/2+z
-x,-y,z
y,-x,1/2+z
-x,y,z
x,-y,z
-y,-x,1/2+z
y,x,1/2+z
loop_
_atom_site_type_symbol
_atom_site_label
_atom_site_fract_x
_atom_site_fract_y
_atom_site_fract_z
Si Si1 0.311139 0.818293 0.144330
Si Si2 0.690122 0.185267 0.482452
Si Si3 0.687695 0.814883 0.721900
Si Si4 0.808491 0.818170 0.064228
Si Si5 0.195765 0.500000 0.349326
Si Si6 0.693243 0.500000 0.437071
Si Si7 0.817088 0.195416 0.802181
O O1 0.500000 0.835702 0.136265
O O2 0.285862 0.709370 0.182471
O O3 0.237625 0.732700 0.105415
O O4 0.232087 0.000000 0.150608
O O5 0.500000 0.170154 0.473128
O O6 0.713446 0.247295 0.526890
O O7 0.768119 0.330289 0.455495
O O8 0.767909 0.000000 0.475224
O O9 0.500000 0.807157 0.735554
O O10 0.792852 0.741321 0.757790
O O11 0.743170 0.000000 0.712850
O O12 0.000000 0.835851 0.062204
O O13 0.726660 0.000000 0.062437
O O14 0.267536 0.500000 0.392028
O O15 0.263084 0.332337 0.328829
O O16 0.000000 0.500000 0.350010
O O17 0.500000 0.500000 0.444995
O O18 0.000000 0.253132 0.816571
O O19 0.806375 0.000000 0.802073
#
# Coordination Sequence:
#
# PCOD8307157 Si02
#       7
#     8   8   8   8   4   4   8
#     4  10  21  34  48  73 109 145 180 221 270 326
#     4   9  19  36  56  77 104 140 182 224 269 333
#     4  10  19  33  54  78 104 138 184 230 270 323
#     4   9  18  33  53  77 105 137 178 227 274 322
#     4  10  20  36  56  84 112 136 180 228 268 336
#     4  10  22  38  56  80 110 144 178 220 282 336
#     4   9  17  32  56  82 109 141 176 224 281 329
#
# _framework density 21.075921000000001
#
# number of rings (size 3 to 8) (size 9 to 14) (size 15 to 20)
#    0.000    2.500    0.833    1.000    1.167    4.000 
#    0.000    2.500    0.000    1.000    0.000    0.000 
#    0.000    0.000    0.000    0.000    0.000    0.000 
#
# Total GULP energy -594734.737356 kJ/mol
# GULP energy per Si atom -12390.307028 kJ/mol
# Density = 2.102795 g / cm^3
# Si number density = 21.075921 Si / 1000 Ang^3
#
#
#
# Elastic Constant Matrix: (Units=GPa)
#
#
# Indices 1 2 3 4 5 6 
#
# 1 68.6571 21.4944 42.8184 0.0000 0.0000 0.0000
# 2 21.4944 68.6571 42.8184 0.0000 0.0000 0.0000
# 3 42.8184 42.8184 159.5459 0.0000 0.0000 0.0000
# 4 0.0000 0.0000 0.0000 28.5448 0.0000 0.0000
# 5 0.0000 0.0000 0.0000 0.0000 28.5448 0.0000
# 6 0.0000 0.0000 0.0000 0.0000 0.0000 12.0976
#
#
#
# Elastic Compliance Matrix: (Units=1/GPa)
#
#
# Indices 1 2 3 4 5 6 
#
# 1 0.018046 -0.003158 -0.003996 0.000000 0.000000 0.000000
# 2 -0.003158 0.018046 -0.003996 0.000000 0.000000 0.000000
# 3 -0.003996 -0.003996 0.008412 0.000000 0.000000 0.000000
# 4 0.000000 0.000000 0.000000 0.035033 0.000000 0.000000
# 5 0.000000 0.000000 0.000000 0.000000 0.035033 0.000000
# 6 0.000000 0.000000 0.000000 0.000000 0.000000 0.082661
#
#
# Mechanical properties :
#
#
# Convention : Reuss Voigt Hill
#
# Bulk Modulus (GPa) = 45.03293 56.79138 50.91215
# Shear Modulus (GPa) = 22.03331 26.48606 24.25968
#
# Velocity S-wave (km/s) = 3.23681 3.54884 3.39641
# Velocity P-wave (km/s) = 5.94833 6.61793 6.29204
#
# Compressibility (1/GPa) = 0.02220597
#
# Stress axis : x y z
#
# Youngs Moduli (GPa) = 55.41537 55.41537 118.87184
#
# Poissons Ratio (x) = 0.17498 0.47496
# Poissons Ratio (y) = 0.17498 0.47496
# Poissons Ratio (z) = 0.22142 0.22142
#
# Static dielectric constant tensor:
#      x y z
#    x 3.905340 0.000000 0.000000 
#    y 0.000000 3.905340 0.000000 
#    z 0.000000 0.000000 3.835460 
# 
# 
# High freq. dielectric constant tensor:
#      x y z
#    x 1.806590 0.000000 0.000000 
#    y 0.000000 1.806590 0.000000 
#    z 0.000000 0.000000 1.825930 
# 
# From -- ./inp_files/4726.got.cif
#   From: 2010.03.12/outbox.cif.g09.slc.cpg/sg105_3_cif.got.tgz:4726.got - 2010.04.14 01:45:32.
