data_PCOD8307574
_publ_section_title
;
Structure prediction by ZEFSAII (Michael W. Deem and Ramdas Pophale) SiO2 
 PCOD8307574
Probable space group: I 4 M M
;
_chemical_formula_sum "Si O2"
_cell_formula_units_Z 96
_cell_length_a 20.836860
_cell_length_b 20.836860
_cell_length_c 12.314528
_cell_angle_alpha 90.000000
_cell_angle_beta 90.000000
_cell_angle_gamma 90.000000
_cell_volume 5346.656927
_symmetry_space_group_name_H-M "I 4 M M"
_symmetry_group_IT_number 107
_symmetry_cell_setting 'tetragonal'
loop_
_space_group_symop_operation_xyz
x,y,z
-y,x,z
-x,-y,z
y,-x,z
-x,y,z
x,-y,z
-y,-x,z
y,x,z
1/2+x,1/2+y,1/2+z
1/2-y,1/2+x,1/2+z
1/2-x,1/2-y,1/2+z
1/2+y,1/2-x,1/2+z
1/2-x,1/2+y,1/2+z
1/2+x,1/2-y,1/2+z
1/2-y,1/2-x,1/2+z
1/2+y,1/2+x,1/2+z
loop_
_atom_site_type_symbol
_atom_site_label
_atom_site_fract_x
_atom_site_fract_y
_atom_site_fract_z
Si Si1 0.177615 0.072214 0.450380
Si Si2 0.200110 0.388683 0.080270
Si Si3 0.345228 0.243208 0.524380
Si Si4 0.325585 0.880301 0.820916
Si Si5 0.863399 0.240403 0.258070
Si Si6 0.427626 0.071049 0.962527
O O1 0.122314 0.122314 0.487646
O O2 0.240476 0.075257 0.526163
O O3 0.199053 0.085809 0.326540
O O4 0.149875 0.000000 0.456484
O O5 0.206068 0.402392 0.208799
O O6 0.205699 0.313363 0.052997
O O7 0.128712 0.410829 0.044781
O O8 0.307545 0.307545 0.495518
O O9 0.387373 0.226286 0.418697
O O10 0.388745 0.252195 0.633538
O O11 0.352622 0.807922 0.817026
O O12 0.385317 0.925040 0.853027
O O13 0.794419 0.205582 0.254459
O O14 0.500000 0.079225 0.923418
O O15 0.417086 0.000000 0.016065
#
# Coordination Sequence:
#
# PCOD8307574 Si02
#       6
#    16  16  16  16  16  16
#     4  11  22  37  58  82 109 142 184 229 279 333
#     4  10  20  33  52  77 106 143 178 221 268 325
#     4   9  16  29  50  77 107 135 171 216 266 319
#     4  10  19  31  51  77 105 138 175 222 259 314
#     4   9  17  30  51  78 105 136 172 212 265 321
#     4  10  21  35  49  68  99 142 187 225 264 312
#
# _framework density 17.955145000000002
#
# number of rings (size 3 to 8) (size 9 to 14) (size 15 to 20)
#    0.000    2.167    3.333    1.500    0.000    4.167 
#    0.000    8.333    0.000    0.000    0.000    0.000 
#    0.000    0.000    0.000    4.333    0.000    0.000 
#
# Total GULP energy -594860.382560 kJ/mol
# GULP energy per Si atom -12392.924637 kJ/mol
# Density = 1.791428 g / cm^3
# Si number density = 17.955145 Si / 1000 Ang^3
#
#
#
# Elastic Constant Matrix: (Units=GPa)
#
#
# Indices 1 2 3 4 5 6 
#
# 1 86.9851 38.8538 37.8780 0.0000 0.0000 -0.0002
# 2 38.8538 86.9851 37.8780 0.0000 0.0000 0.0002
# 3 37.8780 37.8780 136.1237 0.0000 0.0000 0.0000
# 4 0.0000 0.0000 0.0000 13.0607 0.0000 0.0000
# 5 0.0000 0.0000 0.0000 0.0000 13.0607 0.0000
# 6 -0.0002 0.0002 0.0000 0.0000 0.0000 20.6113
#
#
#
# Elastic Compliance Matrix: (Units=1/GPa)
#
#
# Indices 1 2 3 4 5 6 
#
# 1 0.015161 -0.005615 -0.002656 0.000000 0.000000 0.000000
# 2 -0.005615 0.015161 -0.002656 0.000000 0.000000 0.000000
# 3 -0.002656 -0.002656 0.008825 0.000000 0.000000 0.000000
# 4 0.000000 0.000000 0.000000 0.076566 0.000000 0.000000
# 5 0.000000 0.000000 0.000000 0.000000 0.076566 0.000000
# 6 0.000000 0.000000 0.000000 0.000000 0.000000 0.048517
#
#
# Mechanical properties :
#
#
# Convention : Reuss Voigt Hill
#
# Bulk Modulus (GPa) = 57.83316 59.92373 58.87844
# Shear Modulus (GPa) = 18.62791 22.37880 20.50336
#
# Velocity S-wave (km/s) = 3.22447 3.53423 3.38290
# Velocity P-wave (km/s) = 6.79284 7.07820 6.93699
#
# Compressibility (1/GPa) = 0.01729112
#
# Stress axis : x y z
#
# Youngs Moduli (GPa) = 65.95823 65.95823 113.32075
#
# Poissons Ratio (x) = 0.37038 0.30100
# Poissons Ratio (y) = 0.37038 0.30100
# Poissons Ratio (z) = 0.17520 0.17520
#
# Static dielectric constant tensor:
#      x y z
#    x 3.181910 0.000000 0.000000 
#    y 0.000000 3.181910 0.000000 
#    z 0.000000 0.000000 3.495500 
# 
# 
# High freq. dielectric constant tensor:
#      x y z
#    x 1.671480 0.000000 0.000000 
#    y 0.000000 1.671480 0.000000 
#    z 0.000000 0.000000 1.701020 
# 
# From -- ./inp_files/2458.got.cif
#   From: 2010.03.12/outbox.cif.g09.slc.cpg/sg107_2_cif.got.tgz:2458.got - 2010.04.14 01:49:11.
