data_PCOD8307741
_publ_section_title
;
Structure prediction by ZEFSAII (Michael W. Deem and Ramdas Pophale) SiO2 
 PCOD8307741
Probable space group: I 4 C M
;
_chemical_formula_sum "Si O2"
_cell_formula_units_Z 96
_cell_length_a 24.366071
_cell_length_b 24.366071
_cell_length_c 9.065016
_cell_angle_alpha 90.000000
_cell_angle_beta 90.000000
_cell_angle_gamma 90.000000
_cell_volume 5381.949095
_symmetry_space_group_name_H-M "I 4 C M"
_symmetry_group_IT_number 108
_symmetry_cell_setting 'tetragonal'
loop_
_space_group_symop_operation_xyz
x,y,z
-y,x,z
-x,-y,z
y,-x,z
-x,y,1/2+z
x,-y,1/2+z
-y,-x,1/2+z
y,x,1/2+z
1/2+x,1/2+y,1/2+z
1/2-y,1/2+x,1/2+z
1/2-x,1/2-y,1/2+z
1/2+y,1/2-x,1/2+z
1/2-x,1/2+y,z
1/2+x,1/2-y,z
1/2-y,1/2-x,z
1/2+y,1/2+x,z
loop_
_atom_site_type_symbol
_atom_site_label
_atom_site_fract_x
_atom_site_fract_y
_atom_site_fract_z
Si Si1 0.946622 0.748217 0.658980
Si Si2 0.051466 0.877285 0.487590
Si Si3 0.877285 0.051466 0.662004
Si Si4 0.743635 0.335335 0.655478
Si Si5 0.053377 0.251783 0.990614
Si Si6 0.664667 0.743633 0.994117
O O1 0.953772 0.812718 0.670227
O O2 0.943209 0.723165 0.824797
O O3 0.891094 0.735315 0.570102
O O4 0.999999 0.723218 0.574795
O O5 0.106745 0.893255 0.574798
O O6 0.053362 0.902917 0.324797
O O7 0.046227 0.812718 0.479367
O O8 1.000000 0.902859 0.574797
O O9 0.793927 0.293927 0.645266
O O10 0.764686 0.391097 0.579498
O O11 0.690464 0.309538 0.574796
O O12 0.727009 0.347185 0.824798
O O13 0.706076 0.793925 0.004329
#
# Coordination Sequence:
#
# PCOD8307741 Si02
#       6
#    16  16  16  16  16  16
#     4  10  20  33  50  70  94 124 157 195 238 287
#     4  10  20  32  45  61  81 108 144 186 230 274
#     4  10  20  32  45  61  81 108 144 186 230 274
#     4  10  20  33  50  73 101 132 166 204 246 293
#     4  10  20  33  50  70  94 124 157 195 238 287
#     4  10  20  33  50  73 101 132 166 204 246 293
#
# _framework density 17.837403999999999
#
# number of rings (size 3 to 8) (size 9 to 14) (size 15 to 20)
#    0.000    2.000    0.000    4.000    0.000    9.000 
#    0.000    1.667    0.000    0.000    0.000    0.000 
#    0.000    0.667    0.000    7.000    0.000    3.000 
#
# Total GULP energy -595130.421031 kJ/mol
# GULP energy per Si atom -12398.550438 kJ/mol
# Density = 1.779681 g / cm^3
# Si number density = 17.837404 Si / 1000 Ang^3
#
#
#
# Elastic Constant Matrix: (Units=GPa)
#
#
# Indices 1 2 3 4 5 6 
#
# 1 58.7957 -1.2460 34.3371 0.0000 0.0000 -0.0002
# 2 -1.2460 58.7957 34.3371 0.0000 0.0000 0.0002
# 3 34.3371 34.3371 173.1170 0.0000 0.0000 0.0000
# 4 0.0000 0.0000 0.0000 21.5240 0.0000 0.0000
# 5 0.0000 0.0000 0.0000 0.0000 21.5240 0.0000
# 6 -0.0002 0.0002 0.0000 0.0000 0.0000 14.1439
#
#
#
# Elastic Compliance Matrix: (Units=1/GPa)
#
#
# Indices 1 2 3 4 5 6 
#
# 1 0.019710 0.003055 -0.004515 0.000000 0.000000 0.000000
# 2 0.003055 0.019710 -0.004515 0.000000 0.000000 0.000000
# 3 -0.004515 -0.004515 0.007568 0.000000 0.000000 0.000000
# 4 0.000000 0.000000 0.000000 0.046460 0.000000 0.000000
# 5 0.000000 0.000000 0.000000 0.000000 0.046460 0.000000
# 6 0.000000 0.000000 0.000000 0.000000 0.000000 0.070702
#
#
# Mechanical properties :
#
#
# Convention : Reuss Voigt Hill
#
# Bulk Modulus (GPa) = 28.54258 47.28495 37.91377
# Shear Modulus (GPa) = 21.34579 26.32375 23.83477
#
# Velocity S-wave (km/s) = 3.46307 3.84573 3.65941
# Velocity P-wave (km/s) = 5.65922 6.80338 6.25750
#
# Compressibility (1/GPa) = 0.03503538
#
# Stress axis : x y z
#
# Youngs Moduli (GPa) = 50.73643 50.73643 132.14243
#
# Poissons Ratio (x) = -0.15498 0.59665
# Poissons Ratio (y) = -0.15498 0.59665
# Poissons Ratio (z) = 0.22909 0.22909
#
# Static dielectric constant tensor:
#      x y z
#    x 3.062050 0.000000 0.000000 
#    y 0.000000 3.062050 0.000000 
#    z 0.000000 0.000000 3.871780 
# 
# 
# High freq. dielectric constant tensor:
#      x y z
#    x 1.658150 0.000000 0.000000 
#    y 0.000000 1.658150 0.000000 
#    z 0.000000 0.000000 1.718690 
# 
# From -- ./inp_files/759.got.cif
#   From: 2010.03.12/outbox.cif.g09.slc.cpg/sg108_1_cif.got.tgz:759.got - 2010.04.14 01:53:11.
