data_PCOD8307254
_publ_section_title
;
Structure prediction by ZEFSAII (Michael W. Deem and Ramdas Pophale) SiO2 
 PCOD8307254
Probable space group: P 42 M C
;
_chemical_formula_sum "Si O2"
_cell_formula_units_Z 40
_cell_length_a 8.056181
_cell_length_b 8.056181
_cell_length_c 28.843882
_cell_angle_alpha 90.000000
_cell_angle_beta 90.000000
_cell_angle_gamma 90.000000
_cell_volume 1872.027138
_symmetry_space_group_name_H-M "P 42 M C"
_symmetry_group_IT_number 105
_symmetry_cell_setting 'tetragonal'
loop_
_space_group_symop_operation_xyz
x,y,z
-y,x,1/2+z
-x,-y,z
y,-x,1/2+z
-x,y,z
x,-y,z
-y,-x,1/2+z
y,x,1/2+z
loop_
_atom_site_type_symbol
_atom_site_label
_atom_site_fract_x
_atom_site_fract_y
_atom_site_fract_z
Si Si1 0.189549 0.694826 0.990590
Si Si2 0.681267 0.307696 0.296672
Si Si3 0.191525 0.805551 0.391256
Si Si4 0.197345 0.000000 0.638369
Si Si5 0.192590 0.318698 0.585003
Si Si6 0.000000 0.303181 0.243784
O O1 0.203803 0.500000 0.997142
O O2 0.262961 0.747854 0.940864
O O3 0.000000 0.756912 0.994699
O O4 0.295057 0.782932 0.030272
O O5 0.500000 0.230751 0.282842
O O6 0.677228 0.500000 0.284638
O O7 0.705882 0.285187 0.351433
O O8 0.834276 0.225693 0.267971
O O9 0.000000 0.762098 0.384360
O O10 0.228130 0.000000 0.387715
O O11 0.273473 0.834648 0.613717
O O12 0.253116 0.000000 0.690851
O O13 0.000000 0.000000 0.633821
O O14 0.268834 0.500000 0.599123
O O15 0.000000 0.322136 0.596532
O O16 0.000000 0.500000 0.250027
#
# Coordination Sequence:
#
# PCOD8307254 Si02
#       6
#     8   8   8   4   8   4
#     4  10  20  34  54  82 117 155 194 239 293 350
#     4  10  21  38  59  83 115 154 196 245 297 356
#     4  10  20  34  56  85 117 156 199 241 293 352
#     4  10  22  40  62  86 116 150 192 250 300 357
#     4  10  21  38  60  85 114 152 195 240 297 360
#     4  10  22  40  60  84 114 152 196 242 302 363
#
# _framework density 21.36721
#
# number of rings (size 3 to 8) (size 9 to 14) (size 15 to 20)
#    0.000    2.000    2.000    1.200    0.000    5.600 
#    0.000    0.000    0.000    0.000    0.000    0.000 
#    0.000    0.000    0.000    0.000    0.000    0.000 
#
# Total GULP energy -495890.228542 kJ/mol
# GULP energy per Si atom -12397.255714 kJ/mol
# Density = 2.131858 g / cm^3
# Si number density = 21.367210 Si / 1000 Ang^3
#
#
#
# Elastic Constant Matrix: (Units=GPa)
#
#
# Indices 1 2 3 4 5 6 
#
# 1 93.4849 28.5499 43.0678 0.0000 0.0000 0.0000
# 2 28.5499 93.4849 43.0678 0.0000 0.0000 0.0000
# 3 43.0678 43.0678 149.0520 0.0000 0.0000 0.0000
# 4 0.0000 0.0000 0.0000 6.7217 0.0000 0.0000
# 5 0.0000 0.0000 0.0000 0.0000 6.7217 0.0000
# 6 0.0000 0.0000 0.0000 0.0000 0.0000 12.6375
#
#
#
# Elastic Compliance Matrix: (Units=1/GPa)
#
#
# Indices 1 2 3 4 5 6 
#
# 1 0.012847 -0.002553 -0.002974 0.000000 0.000000 0.000000
# 2 -0.002553 0.012847 -0.002974 0.000000 0.000000 0.000000
# 3 -0.002974 -0.002974 0.008428 0.000000 0.000000 0.000000
# 4 0.000000 0.000000 0.000000 0.148772 0.000000 0.000000
# 5 0.000000 0.000000 0.000000 0.000000 0.148772 0.000000
# 6 0.000000 0.000000 0.000000 0.000000 0.000000 0.079130
#
#
# Mechanical properties :
#
#
# Convention : Reuss Voigt Hill
#
# Bulk Modulus (GPa) = 58.41772 62.82142 60.61957
# Shear Modulus (GPa) = 11.53388 19.97193 15.75290
#
# Velocity S-wave (km/s) = 2.32587 3.06060 2.71817
# Velocity P-wave (km/s) = 5.88321 6.47722 6.18735
#
# Compressibility (1/GPa) = 0.01711810
#
# Stress axis : x y z
#
# Youngs Moduli (GPa) = 77.83990 77.83990 118.65350
#
# Poissons Ratio (x) = 0.19874 0.35291
# Poissons Ratio (y) = 0.19874 0.35291
# Poissons Ratio (z) = 0.23152 0.23152
#
# Static dielectric constant tensor:
#      x y z
#    x 4.020750 0.000000 0.000000 
#    y 0.000000 4.020750 0.000000 
#    z 0.000000 0.000000 3.822700 
# 
# 
# High freq. dielectric constant tensor:
#      x y z
#    x 1.830850 0.000000 0.000000 
#    y 0.000000 1.830850 0.000000 
#    z 0.000000 0.000000 1.832290 
# 
# From -- ./inp_files/4303.got.cif
#   From: 2010.03.12/outbox.cif.g09.slc.cpg/sg105_3_cif.got.tgz:4303.got - 2010.04.14 01:45:32.
