data_PCOD8307263
_publ_section_title
;
Structure prediction by ZEFSAII (Michael W. Deem and Ramdas Pophale) SiO2 
 PCOD8307263
Probable space group: P 42 M C
;
_chemical_formula_sum "Si O2"
_cell_formula_units_Z 48
_cell_length_a 8.244514
_cell_length_b 8.244514
_cell_length_c 33.956580
_cell_angle_alpha 90.000000
_cell_angle_beta 90.000000
_cell_angle_gamma 90.000000
_cell_volume 2308.097033
_symmetry_space_group_name_H-M "P 42 M C"
_symmetry_group_IT_number 105
_symmetry_cell_setting 'tetragonal'
loop_
_space_group_symop_operation_xyz
x,y,z
-y,x,1/2+z
-x,-y,z
y,-x,1/2+z
-x,y,z
x,-y,z
-y,-x,1/2+z
y,x,1/2+z
loop_
_atom_site_type_symbol
_atom_site_label
_atom_site_fract_x
_atom_site_fract_y
_atom_site_fract_z
Si Si1 0.807564 0.819557 0.147020
Si Si2 0.675193 0.812780 0.567411
Si Si3 0.310006 0.320858 0.224133
Si Si4 0.000000 0.693445 0.767553
Si Si5 0.000000 0.309460 0.857059
Si Si6 0.316654 0.192457 0.902901
Si Si7 0.682218 0.811937 0.990295
O O1 0.740256 0.783209 0.102898
O O2 0.728823 0.696473 0.177950
O O3 0.000000 0.803801 0.149247
O O4 0.749807 0.000000 0.158029
O O5 0.500000 0.726626 0.568420
O O6 0.746918 0.799118 0.523850
O O7 0.655573 0.000000 0.576621
O O8 0.500000 0.320045 0.231150
O O9 0.242909 0.500000 0.237818
O O10 0.234779 0.165945 0.247732
O O11 0.000000 0.500000 0.764040
O O12 0.000000 0.753538 0.812415
O O13 0.831176 0.250569 0.875948
O O14 0.000000 0.500000 0.859321
O O15 0.500000 0.249352 0.889117
O O16 0.283623 0.262869 0.946965
O O17 0.315978 0.000000 0.903627
O O18 0.500000 0.772010 0.003692
O O19 0.713943 0.000000 0.986573
#
# Coordination Sequence:
#
# PCOD8307263 Si02
#       7
#     8   8   8   4   4   8   8
#     4  10  20  35  55  79 109 147 190 234 285 342
#     4  10  21  34  49  75 111 146 182 228 280 337
#     4  10  20  36  60  84 108 146 191 234 286 345
#     4   9  20  39  57  83 119 149 187 237 287 353
#     4  11  23  37  61  93 121 153 195 245 307 369
#     4   9  20  40  62  85 117 157 200 246 297 358
#     4   9  19  36  56  77 103 141 189 234 278 331
#
# _framework density 20.796351000000001
#
# number of rings (size 3 to 8) (size 9 to 14) (size 15 to 20)
#    0.000    2.333    0.833    2.250    1.167    4.667 
#    0.000    5.000    0.000    0.000    0.000    0.000 
#    0.000    0.000    0.000    0.000    0.000    0.000 
#
# Total GULP energy -594698.752293 kJ/mol
# GULP energy per Si atom -12389.557339 kJ/mol
# Density = 2.074902 g / cm^3
# Si number density = 20.796351 Si / 1000 Ang^3
#
#
#
# Elastic Constant Matrix: (Units=GPa)
#
#
# Indices 1 2 3 4 5 6 
#
# 1 97.3708 25.8757 44.7831 0.0000 0.0000 0.0000
# 2 25.8757 97.3708 44.7831 0.0000 0.0000 0.0000
# 3 44.7831 44.7831 147.7440 0.0000 0.0000 0.0000
# 4 0.0000 0.0000 0.0000 27.4164 0.0000 0.0000
# 5 0.0000 0.0000 0.0000 0.0000 27.4164 0.0000
# 6 0.0000 0.0000 0.0000 0.0000 0.0000 19.0053
#
#
#
# Elastic Compliance Matrix: (Units=1/GPa)
#
#
# Indices 1 2 3 4 5 6 
#
# 1 0.012197 -0.001790 -0.003154 0.000000 0.000000 0.000000
# 2 -0.001790 0.012197 -0.003154 0.000000 0.000000 0.000000
# 3 -0.003154 -0.003154 0.008681 0.000000 0.000000 0.000000
# 4 0.000000 0.000000 0.000000 0.036475 0.000000 0.000000
# 5 0.000000 0.000000 0.000000 0.000000 0.036475 0.000000
# 6 0.000000 0.000000 0.000000 0.000000 0.000000 0.052617
#
#
# Mechanical properties :
#
#
# Convention : Reuss Voigt Hill
#
# Bulk Modulus (GPa) = 59.25607 63.70772 61.48190
# Shear Modulus (GPa) = 27.70657 29.90386 28.80521
#
# Velocity S-wave (km/s) = 3.65400 3.79613 3.72574
# Velocity P-wave (km/s) = 6.80865 7.06503 6.93802
#
# Compressibility (1/GPa) = 0.01687591
#
# Stress axis : x y z
#
# Youngs Moduli (GPa) = 81.99056 81.99056 115.19906
#
# Poissons Ratio (x) = 0.14680 0.36336
# Poissons Ratio (y) = 0.14680 0.36336
# Poissons Ratio (z) = 0.25862 0.25862
#
# Static dielectric constant tensor:
#      x y z
#    x 3.362130 0.000000 0.000000 
#    y 0.000000 3.362130 0.000000 
#    z 0.000000 0.000000 3.690590 
# 
# 
# High freq. dielectric constant tensor:
#      x y z
#    x 1.804480 0.000000 0.000000 
#    y 0.000000 1.804480 0.000000 
#    z 0.000000 0.000000 1.813690 
# 
# From -- ./inp_files/4872.got.cif
#   From: 2010.03.12/outbox.cif.g09.slc.cpg/sg105_3_cif.got.tgz:4872.got - 2010.04.14 01:45:32.
