data_PCOD8307350
_publ_section_title
;
Structure prediction by ZEFSAII (Michael W. Deem and Ramdas Pophale) SiO2 
 PCOD8307350
Probable space group: P 42 M C
;
_chemical_formula_sum "Si O2"
_cell_formula_units_Z 48
_cell_length_a 8.228085
_cell_length_b 8.228085
_cell_length_c 33.910700
_cell_angle_alpha 90.000000
_cell_angle_beta 90.000000
_cell_angle_gamma 90.000000
_cell_volume 2295.801281
_symmetry_space_group_name_H-M "P 42 M C"
_symmetry_group_IT_number 105
_symmetry_cell_setting 'tetragonal'
loop_
_space_group_symop_operation_xyz
x,y,z
-y,x,1/2+z
-x,-y,z
y,-x,1/2+z
-x,y,z
x,-y,z
-y,-x,1/2+z
y,x,1/2+z
loop_
_atom_site_type_symbol
_atom_site_label
_atom_site_fract_x
_atom_site_fract_y
_atom_site_fract_z
Si Si1 0.683023 0.692891 0.000000
Si Si2 0.813414 0.183110 0.078890
Si Si3 0.321168 0.690969 0.414638
Si Si4 0.320013 0.687279 0.654870
Si Si5 0.000000 0.688663 0.786733
Si Si6 0.186391 0.684788 0.332244
Si Si7 0.000000 0.188356 0.698655
O O1 0.500000 0.758330 0.006553
O O2 0.686634 0.500000 0.002035
O O3 0.754257 0.747312 0.956901
O O4 0.796400 0.766157 0.033558
O O5 0.711406 0.298385 0.107904
O O6 0.000000 0.197778 0.091306
O O7 0.750500 0.000000 0.084520
O O8 0.500000 0.765218 0.405446
O O9 0.339127 0.500000 0.420238
O O10 0.204153 0.733491 0.378263
O O11 0.500000 0.758735 0.666808
O O12 0.320694 0.500000 0.665322
O O13 0.167321 0.761700 0.677641
O O14 0.169663 0.737075 0.807277
O O15 0.000000 0.754194 0.743044
O O16 0.000000 0.500000 0.784581
O O17 0.260281 0.500000 0.324622
O O18 0.000000 0.678504 0.320780
O O19 0.000000 0.000000 0.698310
#
# Coordination Sequence:
#
# PCOD8307350 Si02
#       7
#     8   8   8   8   4   8   4
#     4   9  18  33  54  81 113 154 206 260 311 368
#     4  11  23  37  54  82 121 164 209 259 315 370
#     4   8  15  31  55  82 115 157 207 258 309 370
#     4  11  24  43  69  97 125 164 211 256 309 376
#     4  12  26  44  68  96 128 168 212 260 312 378
#     4  10  21  39  64  94 128 166 209 261 322 385
#     4  12  26  46  70  98 132 164 202 258 320 378
#
# _framework density 20.907731999999999
#
# number of rings (size 3 to 8) (size 9 to 14) (size 15 to 20)
#    0.000    1.833    0.833    4.500    0.000    7.000 
#    1.500    1.667    0.000    0.000    0.000    0.000 
#    0.000    0.000    0.000    0.000    0.000    0.000 
#
# Total GULP energy -594771.234825 kJ/mol
# GULP energy per Si atom -12391.067392 kJ/mol
# Density = 2.086015 g / cm^3
# Si number density = 20.907732 Si / 1000 Ang^3
#
#
#
# Elastic Constant Matrix: (Units=GPa)
#
#
# Indices 1 2 3 4 5 6 
#
# 1 111.4138 52.1289 59.0114 0.0000 0.0000 0.0000
# 2 52.1289 111.4138 59.0114 0.0000 0.0000 0.0000
# 3 59.0114 59.0114 145.3925 0.0000 0.0000 0.0000
# 4 0.0000 0.0000 0.0000 31.2635 0.0000 0.0000
# 5 0.0000 0.0000 0.0000 0.0000 31.2635 0.0000
# 6 0.0000 0.0000 0.0000 0.0000 0.0000 20.9052
#
#
#
# Elastic Compliance Matrix: (Units=1/GPa)
#
#
# Indices 1 2 3 4 5 6 
#
# 1 0.012758 -0.004110 -0.003510 0.000000 0.000000 0.000000
# 2 -0.004110 0.012758 -0.003510 0.000000 0.000000 0.000000
# 3 -0.003510 -0.003510 0.009727 0.000000 0.000000 0.000000
# 4 0.000000 0.000000 0.000000 0.031986 0.000000 0.000000
# 5 0.000000 0.000000 0.000000 0.000000 0.031986 0.000000
# 6 0.000000 0.000000 0.000000 0.000000 0.000000 0.047835
#
#
# Mechanical properties :
#
#
# Convention : Reuss Voigt Hill
#
# Bulk Modulus (GPa) = 77.02508 78.72486 77.87497
# Shear Modulus (GPa) = 28.79572 29.89097 29.34335
#
# Velocity S-wave (km/s) = 3.71519 3.78519 3.75035
# Velocity P-wave (km/s) = 7.43801 7.53915 7.48875
#
# Compressibility (1/GPa) = 0.01298278
#
# Stress axis : x y z
#
# Youngs Moduli (GPa) = 78.38454 78.38454 102.80614
#
# Poissons Ratio (x) = 0.32217 0.36083
# Poissons Ratio (y) = 0.32217 0.36083
# Poissons Ratio (z) = 0.27512 0.27512
#
# Static dielectric constant tensor:
#      x y z
#    x 3.447180 0.000000 0.000000 
#    y 0.000000 3.447180 0.000000 
#    z 0.000000 0.000000 4.069520 
# 
# 
# High freq. dielectric constant tensor:
#      x y z
#    x 1.812850 0.000000 0.000000 
#    y 0.000000 1.812850 0.000000 
#    z 0.000000 0.000000 1.823550 
# 
# From -- ./inp_files/4818.got.cif
#   From: 2010.03.12/outbox.cif.g09.slc.cpg/sg105_3_cif.got.tgz:4818.got - 2010.04.14 01:45:32.
