data_PCOD8307006
_publ_section_title
;
Structure prediction by ZEFSAII (Michael W. Deem and Ramdas Pophale) SiO2 
 PCOD8307006
Probable space group: P 4 C C
;
_chemical_formula_sum "Si O2"
_cell_formula_units_Z 64
_cell_length_a 13.976805
_cell_length_b 13.976805
_cell_length_c 19.195304
_cell_angle_alpha 90.000000
_cell_angle_beta 90.000000
_cell_angle_gamma 90.000000
_cell_volume 3749.823329
_symmetry_space_group_name_H-M "P 4 C C"
_symmetry_group_IT_number 103
_symmetry_cell_setting 'tetragonal'
loop_
_space_group_symop_operation_xyz
x,y,z
-y,x,z
-x,-y,z
y,-x,z
-x,y,1/2+z
x,-y,1/2+z
-y,-x,1/2+z
y,x,1/2+z
loop_
_atom_site_type_symbol
_atom_site_label
_atom_site_fract_x
_atom_site_fract_y
_atom_site_fract_z
Si Si1 0.558983 0.353995 0.744080
Si Si2 0.741709 0.398600 0.537778
Si Si3 0.898600 0.241709 0.106399
Si Si4 0.353995 0.441017 0.900096
Si Si5 0.741709 0.601400 0.606399
Si Si6 0.146005 0.058983 0.244080
Si Si7 0.146005 0.941017 0.900096
Si Si8 0.241709 0.101400 0.537778
O O1 0.622126 0.448182 0.732442
O O2 0.575408 0.313769 0.822088
O O3 0.590855 0.273882 0.689222
O O4 0.726118 0.409145 0.454954
O O5 0.762753 0.500000 0.572088
O O6 0.647051 0.352949 0.572088
O O7 0.833389 0.333389 0.551904
O O8 0.833389 0.333389 0.092272
O O9 0.909145 0.226118 0.189222
O O10 0.852949 0.147051 0.072088
O O11 1.000000 0.262753 0.072088
O O12 0.448182 0.377874 0.911734
O O13 0.186230 0.075408 0.322088
O O14 0.051818 0.122126 0.232442
O O15 0.051818 0.877874 0.911734
O O16 0.226118 0.909145 0.954954
#
# Coordination Sequence:
#
# PCOD8307006 Si02
#       8
#     8   8   8   8   8   8   8   8
#     4   9  17  31  54  82 108 137 176 223 273 320
#     4  11  22  35  55  81 107 143 184 222 269 321
#     4  11  22  35  55  81 107 143 184 222 269 321
#     4   9  17  31  54  82 108 137 176 223 273 320
#     4  11  22  35  55  81 107 143 184 222 269 321
#     4   9  17  31  54  82 108 137 176 223 273 320
#     4   9  17  31  54  82 108 137 176 223 273 320
#     4  11  22  35  55  81 107 143 184 222 269 321
#
# _framework density 17.067471000000001
#
# number of rings (size 3 to 8) (size 9 to 14) (size 15 to 20)
#    0.000    2.000    5.000    1.500    0.000    2.000 
#    0.000    0.000    0.000    1.500    0.000    3.500 
#    0.000    0.000    0.000    0.000    0.000    0.000 
#
# Total GULP energy -793661.408973 kJ/mol
# GULP energy per Si atom -12400.959515 kJ/mol
# Density = 1.702862 g / cm^3
# Si number density = 17.067471 Si / 1000 Ang^3
#
#
#
# Elastic Constant Matrix: (Units=GPa)
#
#
# Indices 1 2 3 4 5 6 
#
# 1 77.1811 33.2180 41.4243 0.0000 0.0000 0.0000
# 2 33.2180 77.1811 41.4243 0.0000 0.0000 0.0000
# 3 41.4243 41.4243 135.5754 0.0000 0.0000 0.0000
# 4 0.0000 0.0000 0.0000 24.8691 0.0000 0.0000
# 5 0.0000 0.0000 0.0000 0.0000 24.8691 0.0000
# 6 0.0000 0.0000 0.0000 0.0000 0.0000 10.6640
#
#
#
# Elastic Compliance Matrix: (Units=1/GPa)
#
#
# Indices 1 2 3 4 5 6 
#
# 1 0.017250 -0.005497 -0.003591 0.000000 0.000000 0.000000
# 2 -0.005497 0.017250 -0.003591 0.000000 0.000000 0.000000
# 3 -0.003591 -0.003591 0.009570 0.000000 0.000000 0.000000
# 4 0.000000 0.000000 0.000000 0.040211 0.000000 0.000000
# 5 0.000000 0.000000 0.000000 0.000000 0.040211 0.000000
# 6 0.000000 0.000000 0.000000 0.000000 0.000000 0.093774
#
#
# Mechanical properties :
#
#
# Convention : Reuss Voigt Hill
#
# Bulk Modulus (GPa) = 53.44131 58.00784 55.72458
# Shear Modulus (GPa) = 20.01123 23.67182 21.84152
#
# Velocity S-wave (km/s) = 3.42786 3.72822 3.58119
# Velocity P-wave (km/s) = 6.85906 7.25217 7.05836
#
# Compressibility (1/GPa) = 0.01871212
#
# Stress axis : x y z
#
# Youngs Moduli (GPa) = 57.97219 57.97219 104.48874
#
# Poissons Ratio (x) = 0.31866 0.37522
# Poissons Ratio (y) = 0.31866 0.37522
# Poissons Ratio (z) = 0.20818 0.20818
#
# Static dielectric constant tensor:
#      x y z
#    x 2.909980 0.000000 0.000000 
#    y 0.000000 2.909980 0.000000 
#    z 0.000000 0.000000 3.375970 
# 
# 
# High freq. dielectric constant tensor:
#      x y z
#    x 1.636340 0.000000 0.000000 
#    y 0.000000 1.636340 0.000000 
#    z 0.000000 0.000000 1.677800 
# 
# From -- ./inp_files/1112.got.cif
#   From: 2010.03.12/outbox.cif.g09.slc.cpg/sg103_cif.got.tgz:1112.got - 2010.04.14 01:42:52.
