data_PCOD8307562
_publ_section_title
;
Structure prediction by ZEFSAII (Michael W. Deem and Ramdas Pophale) SiO2 
 PCOD8307562
Probable space group: I 4 M M
;
_chemical_formula_sum "Si O2"
_cell_formula_units_Z 96
_cell_length_a 19.533404
_cell_length_b 19.533404
_cell_length_c 14.110099
_cell_angle_alpha 90.000000
_cell_angle_beta 90.000000
_cell_angle_gamma 90.000000
_cell_volume 5383.762905
_symmetry_space_group_name_H-M "I 4 M M"
_symmetry_group_IT_number 107
_symmetry_cell_setting 'tetragonal'
loop_
_space_group_symop_operation_xyz
x,y,z
-y,x,z
-x,-y,z
y,-x,z
-x,y,z
x,-y,z
-y,-x,z
y,x,z
1/2+x,1/2+y,1/2+z
1/2-y,1/2+x,1/2+z
1/2-x,1/2-y,1/2+z
1/2+y,1/2-x,1/2+z
1/2-x,1/2+y,1/2+z
1/2+x,1/2-y,1/2+z
1/2-y,1/2-x,1/2+z
1/2+y,1/2+x,1/2+z
loop_
_atom_site_type_symbol
_atom_site_label
_atom_site_fract_x
_atom_site_fract_y
_atom_site_fract_z
Si Si1 0.210603 0.676581 0.153400
Si Si2 0.288158 0.826594 0.873829
Si Si3 0.315457 0.576316 0.061570
Si Si4 0.318461 0.425738 0.697457
Si Si5 0.078259 0.283728 0.041751
Si Si6 0.258165 0.923184 0.375994
O O1 0.249656 0.750345 0.138009
O O2 0.210279 0.655818 0.263509
O O3 0.251401 0.615406 0.105373
O O4 0.134591 0.675871 0.106499
O O5 0.235607 0.764394 0.897352
O O6 0.269774 0.894017 0.935559
O O7 0.365243 0.810684 0.910868
O O8 0.318976 0.500000 0.104249
O O9 0.386219 0.613782 0.086516
O O10 0.305380 0.573957 0.948159
O O11 0.332933 0.500000 0.739998
O O12 0.390119 0.390119 0.694894
O O13 0.289630 0.427759 0.591741
O O14 0.265937 0.392757 0.773575
O O15 0.000000 0.316356 0.040312
O O16 0.291549 0.000000 0.367850
#
# Coordination Sequence:
#
# PCOD8307562 Si02
#       6
#    16  16  16  16  16  16
#     4  10  20  34  56  81 104 140 186 230 273 326
#     4  11  20  33  57  80 106 144 186 228 274 327
#     4  10  20  34  53  79 109 140 177 221 272 330
#     4  10  19  31  48  74 108 142 177 217 266 327
#     4  11  22  34  52  80 110 139 177 230 283 328
#     4  10  19  30  50  80 109 139 176 223 276 325
#
# _framework density 17.831394
#
# number of rings (size 3 to 8) (size 9 to 14) (size 15 to 20)
#    0.000    1.667    3.333    3.000    0.000    1.000 
#    0.000    0.000    0.000    5.000    0.000    2.333 
#    0.000    4.000    0.000    0.000    0.000    0.000 
#
# Total GULP energy -594635.202399 kJ/mol
# GULP energy per Si atom -12388.233383 kJ/mol
# Density = 1.779081 g / cm^3
# Si number density = 17.831394 Si / 1000 Ang^3
#
#
#
# Elastic Constant Matrix: (Units=GPa)
#
#
# Indices 1 2 3 4 5 6 
#
# 1 99.7469 45.5700 38.6133 0.0000 0.0000 -0.0001
# 2 45.5700 99.7469 38.6133 0.0000 0.0000 0.0001
# 3 38.6133 38.6133 107.1594 0.0000 0.0000 0.0000
# 4 0.0000 0.0000 0.0000 22.6818 0.0000 0.0000
# 5 0.0000 0.0000 0.0000 0.0000 22.6818 0.0000
# 6 -0.0001 0.0001 0.0000 0.0000 0.0000 15.5574
#
#
#
# Elastic Compliance Matrix: (Units=1/GPa)
#
#
# Indices 1 2 3 4 5 6 
#
# 1 0.013485 -0.004973 -0.003067 0.000000 0.000000 0.000000
# 2 -0.004973 0.013485 -0.003067 0.000000 0.000000 0.000000
# 3 -0.003067 -0.003067 0.011542 0.000000 0.000000 0.000000
# 4 0.000000 0.000000 0.000000 0.044088 0.000000 0.000000
# 5 0.000000 0.000000 0.000000 0.000000 0.044088 0.000000
# 6 0.000000 0.000000 0.000000 0.000000 0.000000 0.064278
#
#
# Mechanical properties :
#
#
# Convention : Reuss Voigt Hill
#
# Bulk Modulus (GPa) = 61.36048 61.36071 61.36059
# Shear Modulus (GPa) = 22.87146 24.44130 23.65638
#
# Velocity S-wave (km/s) = 3.58530 3.70630 3.64630
# Velocity P-wave (km/s) = 7.18508 7.26649 7.22590
#
# Compressibility (1/GPa) = 0.01629713
#
# Stress axis : x y z
#
# Youngs Moduli (GPa) = 74.15796 74.15796 86.63894
#
# Poissons Ratio (x) = 0.36881 0.26572
# Poissons Ratio (y) = 0.36881 0.26572
# Poissons Ratio (z) = 0.22744 0.22744
#
# Static dielectric constant tensor:
#      x y z
#    x 3.278570 0.000000 0.000000 
#    y 0.000000 3.278570 0.000000 
#    z 0.000000 0.000000 3.468020 
# 
# 
# High freq. dielectric constant tensor:
#      x y z
#    x 1.671100 0.000000 0.000000 
#    y 0.000000 1.671100 0.000000 
#    z 0.000000 0.000000 1.703250 
# 
# From -- ./inp_files/2455.got.cif
#   From: 2010.03.12/outbox.cif.g09.slc.cpg/sg107_2_cif.got.tgz:2455.got - 2010.04.14 01:49:11.
