data_PCOD8307372
_publ_section_title
;
Structure prediction by ZEFSAII (Michael W. Deem and Ramdas Pophale) SiO2 
 PCOD8307372
Probable space group: P 42 M C
;
_chemical_formula_sum "Si O2"
_cell_formula_units_Z 24
_cell_length_a 10.957183
_cell_length_b 10.957183
_cell_length_c 9.605360
_cell_angle_alpha 90.000000
_cell_angle_beta 90.000000
_cell_angle_gamma 90.000000
_cell_volume 1153.218170
_symmetry_space_group_name_H-M "P 42 M C"
_symmetry_group_IT_number 105
_symmetry_cell_setting 'tetragonal'
loop_
_space_group_symop_operation_xyz
x,y,z
-y,x,1/2+z
-x,-y,z
y,-x,1/2+z
-x,y,z
x,-y,z
-y,-x,1/2+z
y,x,1/2+z
loop_
_atom_site_type_symbol
_atom_site_label
_atom_site_fract_x
_atom_site_fract_y
_atom_site_fract_z
Si Si1 0.000000 0.870142 0.129390
Si Si2 0.000000 0.359669 0.336378
Si Si3 0.194946 0.754813 0.520440
Si Si4 0.141913 0.357927 0.802936
O O1 0.882748 0.875712 0.029796
O O2 0.000000 0.744584 0.218002
O O3 0.000000 0.000000 0.215310
O O4 0.881347 0.343281 0.432289
O O5 0.000000 0.500000 0.277111
O O6 0.322290 0.785567 0.443370
O O7 0.214836 0.704428 0.675678
O O8 0.150410 0.500000 0.783658
O O9 0.000000 0.315161 0.805968
#
# Coordination Sequence:
#
# PCOD8307372 Si02
#       4
#     4   4   8   8
#     4  12  24  37  68 108 139 167 227 292 352 400
#     4  12  26  41  64  98 139 183 221 270 354 428
#     4  12  23  41  66  98 137 176 220 283 342 412
#     4  11  24  43  66  98 138 182 225 278 349 423
#
# _framework density 20.811326999999999
#
# number of rings (size 3 to 8) (size 9 to 14) (size 15 to 20)
#    0.000    0.333    8.333    1.000    2.333    1.333 
#    0.000    0.000    0.000    8.000    0.000    0.000 
#    0.000    0.000    0.000    0.000    0.000    0.000 
#
# Total GULP energy -297424.210114 kJ/mol
# GULP energy per Si atom -12392.675421 kJ/mol
# Density = 2.076396 g / cm^3
# Si number density = 20.811327 Si / 1000 Ang^3
#
#
#
# Elastic Constant Matrix: (Units=GPa)
#
#
# Indices 1 2 3 4 5 6 
#
# 1 122.8404 24.6098 45.0110 0.0000 0.0000 0.0000
# 2 24.6098 122.8404 45.0110 0.0000 0.0000 0.0000
# 3 45.0110 45.0110 95.4725 0.0000 0.0000 0.0000
# 4 0.0000 0.0000 0.0000 30.8168 0.0000 0.0000
# 5 0.0000 0.0000 0.0000 0.0000 30.8168 0.0000
# 6 0.0000 0.0000 0.0000 0.0000 0.0000 18.3447
#
#
#
# Elastic Compliance Matrix: (Units=1/GPa)
#
#
# Indices 1 2 3 4 5 6 
#
# 1 0.009852 -0.000329 -0.004490 0.000000 0.000000 0.000000
# 2 -0.000329 0.009852 -0.004490 0.000000 0.000000 0.000000
# 3 -0.004490 -0.004490 0.014708 0.000000 0.000000 0.000000
# 4 0.000000 0.000000 0.000000 0.032450 0.000000 0.000000
# 5 0.000000 0.000000 0.000000 0.000000 0.032450 0.000000
# 6 0.000000 0.000000 0.000000 0.000000 0.000000 0.054512
#
#
# Mechanical properties :
#
#
# Convention : Reuss Voigt Hill
#
# Bulk Modulus (GPa) = 63.31156 63.37967 63.34562
# Shear Modulus (GPa) = 28.13687 31.09709 29.61698
#
# Velocity S-wave (km/s) = 3.68094 3.86973 3.77652
# Velocity P-wave (km/s) = 6.96803 7.10542 7.03706
#
# Compressibility (1/GPa) = 0.01579490
#
# Stress axis : x y z
#
# Youngs Moduli (GPa) = 101.50666 101.50666 67.99216
#
# Poissons Ratio (x) = 0.03335 0.30526
# Poissons Ratio (y) = 0.03335 0.30526
# Poissons Ratio (z) = 0.45573 0.45573
#
# Static dielectric constant tensor:
#      x y z
#    x 3.722030 0.000000 0.000000 
#    y 0.000000 3.722030 0.000000 
#    z 0.000000 0.000000 3.800040 
# 
# 
# High freq. dielectric constant tensor:
#      x y z
#    x 1.801000 0.000000 0.000000 
#    y 0.000000 1.801000 0.000000 
#    z 0.000000 0.000000 1.817930 
# 
# From -- ./inp_files/567.got.cif
#   From: 2010.03.12/outbox.cif.g09.slc.cpg/sg105_1_cif.got.tgz:567.got - 2010.04.14 01:45:32.
