data_PCOD8307894
_publ_section_title
;
Structure prediction by ZEFSAII (Michael W. Deem and Ramdas Pophale) SiO2 
 PCOD8307894
Probable space group: I 41 M D
;
_chemical_formula_sum "Si O2"
_cell_formula_units_Z 48
_cell_length_a 9.393524
_cell_length_b 9.393524
_cell_length_c 30.727847
_cell_angle_alpha 90.000000
_cell_angle_beta 90.000000
_cell_angle_gamma 90.000000
_cell_volume 2711.372771
_symmetry_space_group_name_H-M "I 41 M D"
_symmetry_group_IT_number 109
_symmetry_cell_setting 'tetragonal'
loop_
_space_group_symop_operation_xyz
x,y,z
-y,1/2+x,1/4+z
-x,-y,z
y,1/2-x,1/4+z
-x,y,z
x,-y,z
-y,1/2-x,1/4+z
y,1/2+x,1/4+z
1/2+x,1/2+y,1/2+z
1/2-y,x,3/4+z
1/2-x,1/2-y,1/2+z
1/2+y,-x,3/4+z
1/2-x,1/2+y,1/2+z
1/2+x,1/2-y,1/2+z
1/2-y,-x,3/4+z
1/2+y,x,3/4+z
loop_
_atom_site_type_symbol
_atom_site_label
_atom_site_fract_x
_atom_site_fract_y
_atom_site_fract_z
Si Si1 0.336091 0.666919 0.824680
Si Si2 0.168850 0.157172 0.227393
Si Si3 0.664021 0.331912 0.396427
O O1 0.500000 0.711779 0.831764
O O2 0.316550 0.500000 0.833778
O O3 0.284319 0.704820 0.775731
O O4 0.237766 0.756984 0.856112
O O5 0.225386 0.267316 0.191396
O O6 0.000000 0.149488 0.226750
O O7 0.230568 0.000000 0.216654
O O8 0.500000 0.288368 0.397320
O O9 0.685682 0.500000 0.391446
#
# Coordination Sequence:
#
# PCOD8307894 Si02
#       3
#    16  16  16
#     4   9  18  33  53  75  97 125 165 207 244 287
#     4   8  15  30  51  72  94 124 165 208 243 280
#     4  10  20  32  48  74 105 132 160 197 243 294
#
# _framework density 17.703208
#
# number of rings (size 3 to 8) (size 9 to 14) (size 15 to 20)
#    0.000    3.000    0.000    3.000    0.000    4.000 
#    0.000    5.000    0.000    2.000    0.000    0.000 
#    0.000    0.000    0.000    0.000    0.000    0.000 
#
# Total GULP energy -297521.664986 kJ/mol
# GULP energy per Si atom -12396.736041 kJ/mol
# Density = 1.766291 g / cm^3
# Si number density = 17.703208 Si / 1000 Ang^3
#
#
#
# Elastic Constant Matrix: (Units=GPa)
#
#
# Indices 1 2 3 4 5 6 
#
# 1 80.8072 49.4160 75.5990 0.0000 0.0000 0.0000
# 2 49.4160 80.8072 75.5990 0.0000 0.0000 0.0000
# 3 75.5990 75.5990 169.6222 0.0000 0.0000 0.0000
# 4 0.0000 0.0000 0.0000 30.3647 0.0000 0.0000
# 5 0.0000 0.0000 0.0000 0.0000 30.3647 0.0000
# 6 0.0000 0.0000 0.0000 0.0000 0.0000 25.1010
#
#
#
# Elastic Compliance Matrix: (Units=1/GPa)
#
#
# Indices 1 2 3 4 5 6 
#
# 1 0.023885 -0.007971 -0.007093 0.000000 0.000000 0.000000
# 2 -0.007971 0.023885 -0.007093 0.000000 0.000000 0.000000
# 3 -0.007093 -0.007093 0.012218 0.000000 0.000000 0.000000
# 4 0.000000 0.000000 0.000000 0.032933 0.000000 0.000000
# 5 0.000000 0.000000 0.000000 0.000000 0.032933 0.000000
# 6 0.000000 0.000000 0.000000 0.000000 0.000000 0.039839
#
#
# Mechanical properties :
#
#
# Convention : Reuss Voigt Hill
#
# Bulk Modulus (GPa) = 63.79494 81.38497 72.58995
# Shear Modulus (GPa) = 23.23073 25.87424 24.55248
#
# Velocity S-wave (km/s) = 3.62641 3.82718 3.72814
# Velocity P-wave (km/s) = 7.32451 8.09947 7.72172
#
# Compressibility (1/GPa) = 0.01567522
#
# Stress axis : x y z
#
# Youngs Moduli (GPa) = 41.86673 41.86675 81.84653
#
# Poissons Ratio (x) = 0.33371 0.58053
# Poissons Ratio (y) = 0.33371 0.58053
# Poissons Ratio (z) = 0.29696 0.29696
#
# Static dielectric constant tensor:
#      x y z
#    x 3.138210 0.000000 0.000000 
#    y 0.000000 3.138210 0.000000 
#    z 0.000000 0.000000 3.567930 
# 
# 
# High freq. dielectric constant tensor:
#      x y z
#    x 1.663870 0.000000 0.000000 
#    y 0.000000 1.663870 0.000000 
#    z 0.000000 0.000000 1.700440 
# 
# From -- ./inp_files/3475.got.cif
#   From: 2010.03.12/outbox.cif.g09.slc.cpg/sg109_2_cif.got.tgz:3475.got - 2010.04.14 01:55:16.
