data_PCOD8307396
_publ_section_title
;
Structure prediction by ZEFSAII (Michael W. Deem and Ramdas Pophale) SiO2 
 PCOD8307396
Probable space group: P 42 B C
;
_chemical_formula_sum "Si O2"
_cell_formula_units_Z 48
_cell_length_a 12.821466
_cell_length_b 12.821466
_cell_length_c 16.486998
_cell_angle_alpha 90.000000
_cell_angle_beta 90.000000
_cell_angle_gamma 90.000000
_cell_volume 2710.297443
_symmetry_space_group_name_H-M "P 42 B C"
_symmetry_group_IT_number 106
_symmetry_cell_setting 'tetragonal'
loop_
_space_group_symop_operation_xyz
x,y,z
-y,x,1/2+z
-x,-y,z
y,-x,1/2+z
1/2-x,1/2+y,z
1/2+x,1/2-y,z
1/2-y,1/2-x,1/2+z
1/2+y,1/2+x,1/2+z
loop_
_atom_site_type_symbol
_atom_site_label
_atom_site_fract_x
_atom_site_fract_y
_atom_site_fract_z
Si Si1 0.762652 0.920264 0.365720
Si Si2 0.541320 0.608011 0.562030
Si Si3 0.261825 0.389736 0.468215
Si Si4 0.891989 0.041318 0.244011
Si Si5 0.762654 0.079735 0.940322
Si Si6 0.110265 0.761827 0.337826
O O1 0.795153 0.991096 0.290297
O O2 0.857345 0.857347 0.403023
O O3 0.675107 0.843992 0.329396
O O4 0.724513 0.995592 0.438829
O O5 0.500000 0.500000 0.523362
O O6 0.668773 0.608248 0.551632
O O7 0.500001 0.616536 0.653021
O O8 0.491099 0.704847 0.515744
O O9 0.156005 0.324893 0.476644
O O10 0.340207 0.340207 0.403021
O O11 0.891750 0.168770 0.254409
O O12 0.000000 0.000000 0.282679
O O13 0.724517 0.004408 0.867211
#
# Coordination Sequence:
#
# PCOD8307396 Si02
#       6
#     8   8   8   8   8   8
#     4  10  18  33  52  74 104 132 178 222 266 321
#     4  10  19  32  53  77 106 140 177 223 267 319
#     4   9  19  31  52  78  98 138 175 217 270 312
#     4  10  19  32  53  77 106 140 177 223 267 319
#     4  10  18  33  52  74 104 132 178 222 266 321
#     4   9  19  31  52  78  98 138 175 217 270 312
#
# _framework density 17.710232999999999
#
# number of rings (size 3 to 8) (size 9 to 14) (size 15 to 20)
#    0.000    2.333    3.333    0.000    0.000    2.000 
#    0.000    0.000    0.000    0.000    0.000    2.333 
#    0.000    0.000    0.000    0.000    0.000    0.000 
#
# Total GULP energy -594711.644981 kJ/mol
# GULP energy per Si atom -12389.825937 kJ/mol
# Density = 1.766992 g / cm^3
# Si number density = 17.710233 Si / 1000 Ang^3
#
#
#
# Elastic Constant Matrix: (Units=GPa)
#
#
# Indices 1 2 3 4 5 6 
#
# 1 100.6589 70.2705 41.3368 0.0000 0.0000 0.0000
# 2 70.2705 100.6589 41.3368 0.0000 0.0000 0.0000
# 3 41.3368 41.3368 78.8334 0.0000 0.0000 0.0000
# 4 0.0000 0.0000 0.0000 19.1610 0.0000 0.0000
# 5 0.0000 0.0000 0.0000 0.0000 19.1610 0.0000
# 6 0.0000 0.0000 0.0000 0.0000 0.0000 30.2488
#
#
#
# Elastic Compliance Matrix: (Units=1/GPa)
#
#
# Indices 1 2 3 4 5 6 
#
# 1 0.020373 -0.012534 -0.004110 0.000000 0.000000 0.000000
# 2 -0.012534 0.020373 -0.004110 0.000000 0.000000 0.000000
# 3 -0.004110 -0.004110 0.016995 0.000000 0.000000 0.000000
# 4 0.000000 0.000000 0.000000 0.052189 0.000000 0.000000
# 5 0.000000 0.000000 0.000000 0.000000 0.052189 0.000000
# 6 0.000000 0.000000 0.000000 0.000000 0.000000 0.033059
#
#
# Mechanical properties :
#
#
# Convention : Reuss Voigt Hill
#
# Bulk Modulus (GPa) = 61.60820 65.11547 63.36184
# Shear Modulus (GPa) = 20.65278 22.19465 21.42372
#
# Velocity S-wave (km/s) = 3.41860 3.54391 3.48182
# Velocity P-wave (km/s) = 7.10244 7.32070 7.21240
#
# Compressibility (1/GPa) = 0.01623160
#
# Stress axis : x y z
#
# Youngs Moduli (GPa) = 49.08513 49.08513 58.83999
#
# Poissons Ratio (x) = 0.61526 0.24184
# Poissons Ratio (y) = 0.61526 0.24184
# Poissons Ratio (z) = 0.20174 0.20174
#
# Static dielectric constant tensor:
#      x y z
#    x 3.336420 0.000000 0.000000 
#    y 0.000000 3.336420 0.000000 
#    z 0.000000 0.000000 3.036660 
# 
# 
# High freq. dielectric constant tensor:
#      x y z
#    x 1.682080 0.000000 0.000000 
#    y 0.000000 1.682080 0.000000 
#    z 0.000000 0.000000 1.657690 
# 
# From -- ./inp_files/1431.got.cif
#   From: 2010.03.12/outbox.cif.g09.slc.cpg/sg106_cif.got.tgz:1431.got - 2010.04.14 01:48:02.
