data_PCOD8307002
_publ_section_title
;
Structure prediction by ZEFSAII (Michael W. Deem and Ramdas Pophale) SiO2 
 PCOD8307002
Probable space group: P 4 C C
;
_chemical_formula_sum "Si O2"
_cell_formula_units_Z 56
_cell_length_a 14.237780
_cell_length_b 14.237780
_cell_length_c 12.146813
_cell_angle_alpha 90.000000
_cell_angle_beta 90.000000
_cell_angle_gamma 90.000000
_cell_volume 2462.333658
_symmetry_space_group_name_H-M "P 4 C C"
_symmetry_group_IT_number 103
_symmetry_cell_setting 'tetragonal'
loop_
_space_group_symop_operation_xyz
x,y,z
-y,x,z
-x,-y,z
y,-x,z
-x,y,1/2+z
x,-y,1/2+z
-y,-x,1/2+z
y,x,1/2+z
loop_
_atom_site_type_symbol
_atom_site_label
_atom_site_fract_x
_atom_site_fract_y
_atom_site_fract_z
Si Si1 0.516756 0.346863 0.795080
Si Si2 0.254258 0.185439 0.034585
Si Si3 0.092201 0.125387 0.158298
Si Si4 0.460759 0.828532 0.177273
Si Si5 0.384338 0.224858 0.456320
Si Si6 0.709877 0.103000 0.307468
Si Si7 0.355525 0.897448 0.746528
O O1 0.602489 0.417835 0.783689
O O2 0.516236 0.269643 0.698259
O O3 0.535799 0.296719 0.912873
O O4 0.140528 0.173198 0.050623
O O5 0.300737 0.153814 0.148385
O O6 0.278136 0.293844 0.007549
O O7 0.291970 0.117695 0.938113
O O8 0.127958 0.185264 0.263967
O O9 0.980431 0.129923 0.158727
O O10 0.367774 0.829451 0.252630
O O11 0.534964 0.909315 0.211106
O O12 0.433874 0.838663 0.049411
O O13 0.345170 0.162065 0.357569
O O14 0.686364 0.998410 0.270460
#
# Coordination Sequence:
#
# PCOD8307002 Si02
#       7
#     8   8   8   8   8   8   8
#     4  10  24  45  71 108 147 188 246 308 374 454
#     4  12  26  45  81 107 155 205 260 328 394 464
#     4  11  25  47  72 110 152 201 267 325 387 462
#     4  11  26  46  75 108 151 195 252 316 392 472
#     4  11  26  45  77 107 150 200 257 313 390 462
#     4  12  26  48  75 108 153 205 258 320 394 470
#     4  11  28  48  72 115 151 204 258 321 388 466
#
# _framework density 22.742653000000001
#
# number of rings (size 3 to 8) (size 9 to 14) (size 15 to 20)
#    0.000    0.857    2.857    2.143   14.000    0.000 
#    0.000    2.857    0.000    0.000    0.000    0.000 
#    0.000    0.000    0.000    0.000    0.000    0.000 
#
# Total GULP energy -694189.098748 kJ/mol
# GULP energy per Si atom -12396.233906 kJ/mol
# Density = 2.269089 g / cm^3
# Si number density = 22.742653 Si / 1000 Ang^3
#
#
#
# Elastic Constant Matrix: (Units=GPa)
#
#
# Indices 1 2 3 4 5 6 
#
# 1 113.2877 30.2694 52.4075 0.0000 0.0000 0.0000
# 2 30.2694 113.2877 52.4075 0.0000 0.0000 0.0000
# 3 52.4075 52.4075 170.4160 0.0000 0.0000 0.0000
# 4 0.0000 0.0000 0.0000 36.9724 0.0000 0.0000
# 5 0.0000 0.0000 0.0000 0.0000 36.9724 0.0000
# 6 0.0000 0.0000 0.0000 0.0000 0.0000 31.2223
#
#
#
# Elastic Compliance Matrix: (Units=1/GPa)
#
#
# Indices 1 2 3 4 5 6 
#
# 1 0.010514 -0.001531 -0.002762 0.000000 0.000000 0.000000
# 2 -0.001531 0.010514 -0.002762 0.000000 0.000000 0.000000
# 3 -0.002762 -0.002762 0.007567 0.000000 0.000000 0.000000
# 4 0.000000 0.000000 0.000000 0.027047 0.000000 0.000000
# 5 0.000000 0.000000 0.000000 0.000000 0.027047 0.000000
# 6 0.000000 0.000000 0.000000 0.000000 0.000000 0.032028
#
#
# Mechanical properties :
#
#
# Convention : Reuss Voigt Hill
#
# Bulk Modulus (GPa) = 69.04712 74.12888 71.58800
# Shear Modulus (GPa) = 37.40879 38.49388 37.95134
#
# Velocity S-wave (km/s) = 4.06010 4.11857 4.08944
# Velocity P-wave (km/s) = 7.23915 7.43520 7.33783
#
# Compressibility (1/GPa) = 0.01448286
#
# Stress axis : x y z
#
# Youngs Moduli (GPa) = 95.10966 95.10966 132.15185
#
# Poissons Ratio (x) = 0.14565 0.36506
# Poissons Ratio (y) = 0.14565 0.36506
# Poissons Ratio (z) = 0.26274 0.26274
#
# Static dielectric constant tensor:
#      x y z
#    x 4.349600 0.000000 0.000000 
#    y 0.000000 4.349600 0.000000 
#    z 0.000000 0.000000 4.042300 
# 
# 
# High freq. dielectric constant tensor:
#      x y z
#    x 1.907450 0.000000 0.000000 
#    y 0.000000 1.907450 0.000000 
#    z 0.000000 0.000000 1.891080 
# 
# From -- ./inp_files/666.got.cif
#   From: 2010.03.12/outbox.cif.g09.slc.cpg/sg103_cif.got.tgz:666.got - 2010.04.14 01:42:52.
