data_PCOD8307402
_publ_section_title
;
Structure prediction by ZEFSAII (Michael W. Deem and Ramdas Pophale) SiO2 
 PCOD8307402
Probable space group: P 42 B C
;
_chemical_formula_sum "Si O2"
_cell_formula_units_Z 52
_cell_length_a 17.823211
_cell_length_b 17.823211
_cell_length_c 8.770437
_cell_angle_alpha 90.000000
_cell_angle_beta 90.000000
_cell_angle_gamma 90.000000
_cell_volume 2786.077098
_symmetry_space_group_name_H-M "P 42 B C"
_symmetry_group_IT_number 106
_symmetry_cell_setting 'tetragonal'
loop_
_space_group_symop_operation_xyz
x,y,z
-y,x,1/2+z
-x,-y,z
y,-x,1/2+z
1/2-x,1/2+y,z
1/2+x,1/2-y,z
1/2-y,1/2-x,1/2+z
1/2+y,1/2+x,1/2+z
loop_
_atom_site_type_symbol
_atom_site_label
_atom_site_fract_x
_atom_site_fract_y
_atom_site_fract_z
Si Si1 0.887953 0.499937 0.938290
Si Si2 0.608083 0.380852 0.424029
Si Si3 0.000000 0.000000 0.508002
Si Si4 0.000063 0.612047 0.077714
Si Si5 0.880852 0.108083 0.591975
Si Si6 0.272744 0.498750 0.079409
Si Si7 0.501250 0.272744 0.936595
O O1 0.899200 0.499920 0.758002
O O2 0.926023 0.573977 0.008002
O O3 0.801080 0.500155 0.978669
O O4 0.925738 0.425738 0.008002
O O5 0.543715 0.442880 0.398654
O O6 0.623542 0.343984 0.258002
O O7 0.578217 0.318180 0.541560
O O8 0.682066 0.425268 0.482555
O O9 0.057120 0.956285 0.617350
O O10 0.999845 0.698920 0.037334
O O11 0.818180 0.078217 0.474443
O O12 0.925268 0.182066 0.533449
O O13 0.253874 0.497772 0.258002
#
# Coordination Sequence:
#
# PCOD8307402 Si02
#       7
#     8   8   4   8   8   8   8
#     4  11  22  39  62  83 105 134 175 222 268 318
#     4   9  17  29  48  75 108 145 181 218 261 310
#     4   8  14  24  44  70 102 140 184 222 254 304
#     4  11  22  39  62  83 105 134 175 222 268 318
#     4   9  17  29  48  75 108 145 181 218 261 310
#     4  10  20  34  53  80 113 145 181 221 264 315
#     4  10  20  34  53  80 113 145 181 221 264 315
#
# _framework density 18.664235999999999
#
# number of rings (size 3 to 8) (size 9 to 14) (size 15 to 20)
#    0.000    2.154    0.000    5.077    0.000    8.615 
#    0.000    1.538    0.000    7.385    0.000    0.000 
#    0.000    0.000    0.000    0.000    0.000    0.000 
#
# Total GULP energy -644466.509449 kJ/mol
# GULP energy per Si atom -12393.586720 kJ/mol
# Density = 1.862176 g / cm^3
# Si number density = 18.664236 Si / 1000 Ang^3
#
#
#
# Elastic Constant Matrix: (Units=GPa)
#
#
# Indices 1 2 3 4 5 6 
#
# 1 106.2914 41.7976 42.4244 0.0000 0.0000 0.0000
# 2 41.7976 106.2914 42.4244 0.0000 0.0000 0.0000
# 3 42.4244 42.4244 127.2131 0.0000 0.0000 0.0000
# 4 0.0000 0.0000 0.0000 27.3853 0.0000 0.0000
# 5 0.0000 0.0000 0.0000 0.0000 27.3853 0.0000
# 6 0.0000 0.0000 0.0000 0.0000 0.0000 14.4594
#
#
#
# Elastic Compliance Matrix: (Units=1/GPa)
#
#
# Indices 1 2 3 4 5 6 
#
# 1 0.011927 -0.003579 -0.002784 0.000000 0.000000 0.000000
# 2 -0.003579 0.011927 -0.002784 0.000000 0.000000 0.000000
# 3 -0.002784 -0.002784 0.009718 0.000000 0.000000 0.000000
# 4 0.000000 0.000000 0.000000 0.036516 0.000000 0.000000
# 5 0.000000 0.000000 0.000000 0.000000 0.036516 0.000000
# 6 0.000000 0.000000 0.000000 0.000000 0.000000 0.069159
#
#
# Mechanical properties :
#
#
# Convention : Reuss Voigt Hill
#
# Bulk Modulus (GPa) = 65.45552 65.89872 65.67712
# Shear Modulus (GPa) = 25.10700 28.05595 26.58147
#
# Velocity S-wave (km/s) = 3.67167 3.88131 3.77794
# Velocity P-wave (km/s) = 7.28842 7.44783 7.36856
#
# Compressibility (1/GPa) = 0.01527755
#
# Stress axis : x y z
#
# Youngs Moduli (GPa) = 83.84645 83.84645 102.90571
#
# Poissons Ratio (x) = 0.30007 0.28648
# Poissons Ratio (y) = 0.30007 0.28648
# Poissons Ratio (z) = 0.23342 0.23342
#
# Static dielectric constant tensor:
#      x y z
#    x 3.342610 0.000000 0.000000 
#    y 0.000000 3.342610 0.000000 
#    z 0.000000 0.000000 3.359570 
# 
# 
# High freq. dielectric constant tensor:
#      x y z
#    x 1.709670 0.000000 0.000000 
#    y 0.000000 1.709670 0.000000 
#    z 0.000000 0.000000 1.734090 
# 
# From -- ./inp_files/510.got.cif
#   From: 2010.03.12/outbox.cif.g09.slc.cpg/sg106_cif.got.tgz:510.got - 2010.04.14 01:48:02.
