data_PCOD8307092
_publ_section_title
;
Structure prediction by ZEFSAII (Michael W. Deem and Ramdas Pophale) SiO2 
 PCOD8307092
Probable space group: P 4 N C 
;
_chemical_formula_sum "Si O2"
_cell_formula_units_Z 40
_cell_length_a 10.950132
_cell_length_b 10.950132
_cell_length_c 15.227475
_cell_angle_alpha 90.000000
_cell_angle_beta 90.000000
_cell_angle_gamma 90.000000
_cell_volume 1825.856341
_symmetry_space_group_name_H-M "P 4 N C "
_symmetry_group_IT_number 104
_symmetry_cell_setting 'tetragonal'
loop_
_space_group_symop_operation_xyz
x,y,z
-y,x,z
-x,-y,z
y,-x,z
1/2-x,1/2+y,1/2+z
1/2+x,1/2-y,1/2+z
1/2-y,1/2-x,1/2+z
1/2+y,1/2+x,1/2+z
loop_
_atom_site_type_symbol
_atom_site_label
_atom_site_fract_x
_atom_site_fract_y
_atom_site_fract_z
Si Si1 0.333933 0.607763 0.435610
Si Si2 0.359962 0.000038 0.535366
Si Si3 0.242431 0.231757 0.285658
Si Si4 0.359962 0.000038 0.335850
Si Si5 0.757570 0.768245 0.585560
O O1 0.330910 0.464281 0.435610
O O2 0.272031 0.640594 0.342585
O O3 0.272031 0.640593 0.528635
O O4 0.369733 0.047890 0.435608
O O5 0.263199 0.085447 0.587895
O O6 0.500000 0.000000 0.574569
O O7 0.290829 0.871089 0.535172
O O8 0.263201 0.085449 0.283321
O O9 0.227151 0.272854 0.185609
O O10 0.128910 0.290829 0.336044
O O11 0.500000 0.000000 0.296647
#
# Coordination Sequence:
#
# PCOD8307092 Si02
#       5
#     8   8   8   8   8
#     4  11  24  46  70  95 136 184 236 285 332 411
#     4  11  24  47  73  98 141 185 229 290 346 409
#     4  12  27  42  70 106 138 181 235 281 348 415
#     4  11  24  47  73  98 141 185 229 290 346 409
#     4  12  27  42  70 106 138 181 235 281 348 415
#
# _framework density 21.907530000000001
#
# number of rings (size 3 to 8) (size 9 to 14) (size 15 to 20)
#    0.000    0.600    4.000    2.400   11.200    0.800 
#    0.000    2.000    0.000    0.000    0.000    0.000 
#    0.000    0.000    0.000    0.000    0.000    0.000 
#
# Total GULP energy -495608.419804 kJ/mol
# GULP energy per Si atom -12390.210495 kJ/mol
# Density = 2.185767 g / cm^3
# Si number density = 21.907530 Si / 1000 Ang^3
#
#
#
# Elastic Constant Matrix: (Units=GPa)
#
#
# Indices 1 2 3 4 5 6 
#
# 1 110.1079 16.8483 8.3839 0.0000 0.0000 0.0000
# 2 16.8483 110.1079 8.3839 0.0000 0.0000 0.0000
# 3 8.3839 8.3839 119.0786 0.0000 0.0000 0.0000
# 4 0.0000 0.0000 0.0000 17.0653 0.0000 0.0000
# 5 0.0000 0.0000 0.0000 0.0000 17.0653 0.0000
# 6 0.0000 0.0000 0.0000 0.0000 0.0000 50.3143
#
#
#
# Elastic Compliance Matrix: (Units=1/GPa)
#
#
# Indices 1 2 3 4 5 6 
#
# 1 0.009337 -0.001386 -0.000560 0.000000 0.000000 0.000000
# 2 -0.001386 0.009337 -0.000560 0.000000 0.000000 0.000000
# 3 -0.000560 -0.000560 0.008477 0.000000 0.000000 0.000000
# 4 0.000000 0.000000 0.000000 0.058599 0.000000 0.000000
# 5 0.000000 0.000000 0.000000 0.000000 0.058599 0.000000
# 6 0.000000 0.000000 0.000000 0.000000 0.000000 0.019875
#
#
# Mechanical properties :
#
#
# Convention : Reuss Voigt Hill
#
# Bulk Modulus (GPa) = 45.16944 45.16961 45.16953
# Shear Modulus (GPa) = 28.31048 37.26752 32.78900
#
# Velocity S-wave (km/s) = 3.59872 4.12895 3.87292
# Velocity P-wave (km/s) = 6.15879 6.58741 6.37670
#
# Compressibility (1/GPa) = 0.02213886
#
# Stress axis : x y z
#
# Youngs Moduli (GPa) = 107.10406 107.10406 117.97134
#
# Poissons Ratio (x) = 0.14845 0.06604
# Poissons Ratio (y) = 0.14845 0.06604
# Poissons Ratio (z) = 0.05995 0.05995
#
# Static dielectric constant tensor:
#      x y z
#    x 3.974830 0.000000 0.000000 
#    y 0.000000 3.974830 0.000000 
#    z 0.000000 0.000000 3.873040 
# 
# 
# High freq. dielectric constant tensor:
#      x y z
#    x 1.868250 0.000000 0.000000 
#    y 0.000000 1.868250 0.000000 
#    z 0.000000 0.000000 1.859200 
# 
# From -- ./inp_files/1202.got.cif
#   From: 2010.03.12/outbox.cif.g09.slc.cpg/sg104_cif.got.tgz:1202.got - 2010.04.14 01:44:05.
