data_PCOD8307767
_publ_section_title
;
Structure prediction by ZEFSAII (Michael W. Deem and Ramdas Pophale) SiO2 
 PCOD8307767
Probable space group: I 4 C M
;
_chemical_formula_sum "Si O2"
_cell_formula_units_Z 128
_cell_length_a 19.345795
_cell_length_b 19.345795
_cell_length_c 19.797371
_cell_angle_alpha 90.000000
_cell_angle_beta 90.000000
_cell_angle_gamma 90.000000
_cell_volume 7409.359798
_symmetry_space_group_name_H-M "I 4 C M"
_symmetry_group_IT_number 108
_symmetry_cell_setting 'tetragonal'
loop_
_space_group_symop_operation_xyz
x,y,z
-y,x,z
-x,-y,z
y,-x,z
-x,y,1/2+z
x,-y,1/2+z
-y,-x,1/2+z
y,x,1/2+z
1/2+x,1/2+y,1/2+z
1/2-y,1/2+x,1/2+z
1/2-x,1/2-y,1/2+z
1/2+y,1/2-x,1/2+z
1/2-x,1/2+y,z
1/2+x,1/2-y,z
1/2-y,1/2-x,z
1/2+y,1/2+x,z
loop_
_atom_site_type_symbol
_atom_site_label
_atom_site_fract_x
_atom_site_fract_y
_atom_site_fract_z
Si Si1 0.671286 0.943128 0.586490
Si Si2 0.496250 0.887611 0.461838
Si Si3 0.443125 0.828713 0.687810
Si Si4 0.170898 0.070213 0.600748
Si Si5 0.046523 0.103988 0.962325
Si Si6 0.170896 0.929785 0.673553
Si Si7 0.103988 0.046523 0.311976
Si Si8 0.387611 0.003751 0.812460
O O1 0.624675 0.875326 0.586945
O O2 0.672332 0.981193 0.513509
O O3 0.747346 0.920501 0.609278
O O4 0.639972 0.000003 0.637149
O O5 0.552237 0.947764 0.464404
O O6 0.492875 0.854326 0.387149
O O7 0.421734 0.921734 0.480159
O O8 0.375321 0.875321 0.687358
O O9 0.420498 0.752653 0.665023
O O10 0.481193 0.827668 0.760790
O O11 0.155925 0.070350 0.520715
O O12 0.134369 0.134368 0.637151
O O13 0.144884 0.999999 0.637150
O O14 0.060715 0.135147 0.887151
O O15 0.965807 0.089586 0.971061
O O16 0.155925 0.929649 0.753586
O O17 0.034193 0.089586 0.303240
O O18 0.447764 0.947764 0.809894
O O19 0.421734 0.078267 0.794138
#
# Coordination Sequence:
#
# PCOD8307767 Si02
#       8
#    16  16  16  16  16  16  16  16
#     4  10  21  34  50  75 103 136 177 217 261 310
#     4   8  14  27  49  74  97 124 162 210 261 305
#     4  10  21  34  50  75 103 136 177 217 261 310
#     4  11  21  33  52  75 103 139 173 212 261 312
#     4   9  17  30  51  78 102 127 163 207 254 302
#     4  11  21  33  52  75 103 139 173 212 261 312
#     4   9  17  30  51  78 102 127 163 207 254 302
#     4   8  14  27  49  74  97 124 162 210 261 305
#
# _framework density 17.275447
#
# number of rings (size 3 to 8) (size 9 to 14) (size 15 to 20)
#    0.000    2.500    2.500    2.250    0.000    3.000 
#    0.000    0.000    0.000    0.000    0.000    0.000 
#    0.000    0.000    0.000    0.000    0.000    0.000 
#
# Total GULP energy -793304.712513 kJ/mol
# GULP energy per Si atom -12395.386133 kJ/mol
# Density = 1.723613 g / cm^3
# Si number density = 17.275447 Si / 1000 Ang^3
#
#
#
# Elastic Constant Matrix: (Units=GPa)
#
#
# Indices 1 2 3 4 5 6 
#
# 1 60.9242 37.0484 38.6839 0.0000 0.0000 -0.0001
# 2 37.0484 60.9242 38.6839 0.0000 0.0000 0.0001
# 3 38.6839 38.6839 126.4778 0.0000 0.0000 0.0000
# 4 0.0000 0.0000 0.0000 24.1199 0.0000 0.0000
# 5 0.0000 0.0000 0.0000 0.0000 24.1199 0.0000
# 6 -0.0001 0.0001 0.0000 0.0000 0.0000 19.8978
#
#
#
# Elastic Compliance Matrix: (Units=1/GPa)
#
#
# Indices 1 2 3 4 5 6 
#
# 1 0.027670 -0.014213 -0.004116 0.000000 0.000000 0.000000
# 2 -0.014213 0.027670 -0.004116 0.000000 0.000000 0.000000
# 3 -0.004116 -0.004116 0.010424 0.000000 0.000000 0.000000
# 4 0.000000 0.000000 0.000000 0.041460 0.000000 0.000000
# 5 0.000000 0.000000 0.000000 0.000000 0.041460 0.000000
# 6 0.000000 0.000000 0.000000 0.000000 0.000000 0.050257
#
#
# Mechanical properties :
#
#
# Convention : Reuss Voigt Hill
#
# Bulk Modulus (GPa) = 47.90432 53.01762 50.46097
# Shear Modulus (GPa) = 19.93706 22.55486 21.24596
#
# Velocity S-wave (km/s) = 3.40084 3.61723 3.51071
# Velocity P-wave (km/s) = 6.57350 6.94277 6.76066
#
# Compressibility (1/GPa) = 0.02087495
#
# Stress axis : x y z
#
# Youngs Moduli (GPa) = 36.13974 36.13975 95.92953
#
# Poissons Ratio (x) = 0.51366 0.39484
# Poissons Ratio (y) = 0.51366 0.39484
# Poissons Ratio (z) = 0.14875 0.14875
#
# Static dielectric constant tensor:
#      x y z
#    x 2.917370 0.000000 0.000000 
#    y 0.000000 2.917370 0.000000 
#    z 0.000000 0.000000 3.613810 
# 
# 
# High freq. dielectric constant tensor:
#      x y z
#    x 1.639280 0.000000 0.000000 
#    y 0.000000 1.639280 0.000000 
#    z 0.000000 0.000000 1.688520 
# 
# From -- ./inp_files/2652.got.cif
#   From: 2010.03.12/outbox.cif.g09.slc.cpg/sg108_2_cif.got.tgz:2652.got - 2010.04.14 01:53:11.
