data_PCOD8307999
_publ_section_title
;
Structure prediction by ZEFSAII (Michael W. Deem and Ramdas Pophale) SiO2 
 PCOD8307999
Probable space group: I 41 C D
;
_chemical_formula_sum "Si O2"
_cell_formula_units_Z 88
_cell_length_a 12.241274
_cell_length_b 12.241274
_cell_length_c 30.414997
_cell_angle_alpha 90.000000
_cell_angle_beta 90.000000
_cell_angle_gamma 90.000000
_cell_volume 4557.650472
_symmetry_space_group_name_H-M "I 41 C D"
_symmetry_group_IT_number 110
_symmetry_cell_setting 'tetragonal'
loop_
_space_group_symop_operation_xyz
x,y,z
-y,1/2+x,1/4+z
-x,-y,z
y,1/2-x,1/4+z
-x,y,1/2+z
x,-y,1/2+z
1/2-y,-x,1/4+z
1/2+y,x,1/4+z
1/2+x,1/2+y,1/2+z
1/2-y,x,3/4+z
1/2-x,1/2-y,1/2+z
1/2+y,-x,3/4+z
1/2-x,1/2+y,z
1/2+x,1/2-y,z
-y,1/2-x,3/4+z
y,1/2+x,3/4+z
loop_
_atom_site_type_symbol
_atom_site_label
_atom_site_fract_x
_atom_site_fract_y
_atom_site_fract_z
Si Si1 0.098291 0.571183 0.665110
Si Si2 0.438704 0.157305 0.431347
Si Si3 0.428817 0.098291 0.847990
Si Si4 0.938704 0.157305 0.831753
Si Si5 0.000000 0.500000 0.506550
Si Si6 0.462248 0.750000 0.631550
O O1 0.212248 0.565672 0.691452
O O2 0.124408 0.536304 0.614656
O O3 0.000000 0.500000 0.686436
O O4 0.045390 0.690642 0.664822
O O5 0.536304 0.124408 0.398444
O O6 0.326558 0.117784 0.409409
O O7 0.458522 0.101124 0.477795
O O8 0.434328 0.212248 0.821648
O O9 0.500000 0.000000 0.826664
O O10 0.309358 0.045390 0.848278
O O11 0.826558 0.117784 0.853691
O O12 0.958522 0.101124 0.785305
#
# Coordination Sequence:
#
# PCOD8307999 Si02
#       6
#    16  16  16  16   8  16
#     4   9  18  35  59  87 113 163 204 243 283 404
#     4  10  20  34  62  87 124 152 209 250 320 361
#     4   9  18  35  59  87 113 163 204 243 283 404
#     4  10  20  34  62  87 124 152 209 250 320 361
#     4  12  20  40  56 100 116 166 204 292 316 368
#     4  10  16  34  58  90 114 166 204 244 304 404
#
# _framework density 19.308195000000001
#
# number of rings (size 3 to 8) (size 9 to 14) (size 15 to 20)
#    0.000    2.182    5.455    1.091    0.000    0.000 
#    0.000    1.818    0.000    6.545    0.000    0.000 
#    0.000    0.000    0.000    0.000    0.000    0.000 
#
# Total GULP energy -545243.668956 kJ/mol
# GULP energy per Si atom -12391.901567 kJ/mol
# Density = 1.926425 g / cm^3
# Si number density = 19.308195 Si / 1000 Ang^3
#
#
#
# Elastic Constant Matrix: (Units=GPa)
#
#
# Indices 1 2 3 4 5 6 
#
# 1 156.9097 54.9249 39.9786 0.0000 0.0000 0.0000
# 2 54.9249 156.9097 39.9786 0.0000 0.0000 0.0000
# 3 39.9786 39.9786 82.9734 0.0000 0.0000 0.0000
# 4 0.0000 0.0000 0.0000 26.5336 0.0000 0.0000
# 5 0.0000 0.0000 0.0000 0.0000 26.5336 0.0000
# 6 0.0000 0.0000 0.0000 0.0000 0.0000 23.4709
#
#
#
# Elastic Compliance Matrix: (Units=1/GPa)
#
#
# Indices 1 2 3 4 5 6 
#
# 1 0.007788 -0.002018 -0.002780 0.000000 0.000000 0.000000
# 2 -0.002018 0.007788 -0.002780 0.000000 0.000000 0.000000
# 3 -0.002780 -0.002780 0.014731 0.000000 0.000000 0.000000
# 4 0.000000 0.000000 0.000000 0.037688 0.000000 0.000000
# 5 0.000000 0.000000 0.000000 0.000000 0.037688 0.000000
# 6 0.000000 0.000000 0.000000 0.000000 0.000000 0.042606
#
#
# Mechanical properties :
#
#
# Convention : Reuss Voigt Hill
#
# Bulk Modulus (GPa) = 66.00385 74.06188 70.03287
# Shear Modulus (GPa) = 29.67452 32.76835 31.22144
#
# Velocity S-wave (km/s) = 3.92457 4.12408 4.02556
# Velocity P-wave (km/s) = 7.40236 7.81783 7.61293
#
# Compressibility (1/GPa) = 0.01515063
#
# Stress axis : x y z
#
# Youngs Moduli (GPa) = 128.40755 128.40754 67.88347
#
# Poissons Ratio (x) = 0.25908 0.18873
# Poissons Ratio (y) = 0.25908 0.18873
# Poissons Ratio (z) = 0.35699 0.35699
#
# Static dielectric constant tensor:
#      x y z
#    x 3.810620 0.000000 0.000000 
#    y 0.000000 3.810620 0.000000 
#    z 0.000000 0.000000 2.963590 
# 
# 
# High freq. dielectric constant tensor:
#      x y z
#    x 1.768750 0.000000 0.000000 
#    y 0.000000 1.768750 0.000000 
#    z 0.000000 0.000000 1.691620 
# 
# From -- ./inp_files/3147.got.cif
#   From: 2010.03.12/outbox.cif.g09.slc.cpg/sg110_2_cif.got.tgz:3147.got - 2010.04.14 01:58:01.
