data_PCOD8307586
_publ_section_title
;
Structure prediction by ZEFSAII (Michael W. Deem and Ramdas Pophale) SiO2 
 PCOD8307586
Probable space group: I 4 M M
;
_chemical_formula_sum "Si O2"
_cell_formula_units_Z 64
_cell_length_a 15.795039
_cell_length_b 15.795039
_cell_length_c 13.216519
_cell_angle_alpha 90.000000
_cell_angle_beta 90.000000
_cell_angle_gamma 90.000000
_cell_volume 3297.300206
_symmetry_space_group_name_H-M "I 4 M M"
_symmetry_group_IT_number 107
_symmetry_cell_setting 'tetragonal'
loop_
_space_group_symop_operation_xyz
x,y,z
-y,x,z
-x,-y,z
y,-x,z
-x,y,z
x,-y,z
-y,-x,z
y,x,z
1/2+x,1/2+y,1/2+z
1/2-y,1/2+x,1/2+z
1/2-x,1/2-y,1/2+z
1/2+y,1/2-x,1/2+z
1/2-x,1/2+y,1/2+z
1/2+x,1/2-y,1/2+z
1/2-y,1/2-x,1/2+z
1/2+y,1/2+x,1/2+z
loop_
_atom_site_type_symbol
_atom_site_label
_atom_site_fract_x
_atom_site_fract_y
_atom_site_fract_z
Si Si1 0.905711 0.234665 0.892060
Si Si2 0.166525 0.407050 0.817583
Si Si3 0.147896 0.284545 0.106941
Si Si4 0.405906 0.730051 0.008915
O O1 0.834152 0.165849 0.858115
O O2 0.892624 0.325313 0.836461
O O3 0.000000 0.202163 0.862835
O O4 0.904232 0.246514 0.012994
O O5 0.122720 0.500000 0.838957
O O6 0.197989 0.411613 0.702087
O O7 0.248107 0.399052 0.890065
O O8 0.220205 0.220205 0.141989
O O9 0.190169 0.372489 0.072343
O O10 0.500000 0.710675 0.045198
O O11 0.353154 0.646847 0.032402
#
# Coordination Sequence:
#
# PCOD8307586 Si02
#       4
#    16  16  16  16
#     4  10  21  36  54  78 107 139 176 215 256 307
#     4  10  19  33  55  79 103 133 170 214 264 314
#     4   9  17  32  53  75 101 133 169 213 264 312
#     4   9  18  31  48  73 103 136 175 214 255 308
#
# _framework density 19.409818000000001
#
# number of rings (size 3 to 8) (size 9 to 14) (size 15 to 20)
#    0.000    2.500    0.000    4.500    0.000    2.000 
#    0.000    0.000    0.000    4.500    0.000    7.000 
#    0.000    0.000    0.000    0.000    0.000    0.000 
#
# Total GULP energy -396555.454091 kJ/mol
# GULP energy per Si atom -12392.357940 kJ/mol
# Density = 1.936564 g / cm^3
# Si number density = 19.409818 Si / 1000 Ang^3
#
#
#
# Elastic Constant Matrix: (Units=GPa)
#
#
# Indices 1 2 3 4 5 6 
#
# 1 119.7456 48.0813 11.1031 0.0000 0.0000 0.0009
# 2 48.0813 119.7456 11.1031 0.0000 0.0000 -0.0009
# 3 11.1031 11.1031 66.4340 0.0000 0.0000 0.0000
# 4 0.0000 0.0000 0.0000 15.7135 0.0000 0.0000
# 5 0.0000 0.0000 0.0000 0.0000 15.7135 0.0000
# 6 0.0009 -0.0009 0.0000 0.0000 0.0000 13.2281
#
#
#
# Elastic Compliance Matrix: (Units=1/GPa)
#
#
# Indices 1 2 3 4 5 6 
#
# 1 0.010024 -0.003930 -0.001018 0.000000 0.000000 -0.000001
# 2 -0.003930 0.010024 -0.001018 0.000000 0.000000 0.000001
# 3 -0.001018 -0.001018 0.015393 0.000000 0.000000 0.000000
# 4 0.000000 0.000000 0.000000 0.063640 0.000000 0.000000
# 5 0.000000 0.000000 0.000000 0.000000 0.063640 0.000000
# 6 -0.000001 0.000001 0.000000 0.000000 0.000000 0.075597
#
#
# Mechanical properties :
#
#
# Convention : Reuss Voigt Hill
#
# Bulk Modulus (GPa) = 42.54234 49.61115 46.07675
# Shear Modulus (GPa) = 19.37344 24.64019 22.00681
#
# Velocity S-wave (km/s) = 3.16274 3.56683 3.37084
# Velocity P-wave (km/s) = 5.94161 6.52521 6.24024
#
# Compressibility (1/GPa) = 0.02350599
#
# Stress axis : x y z
#
# Youngs Moduli (GPa) = 99.76444 99.76444 64.96485
#
# Poissons Ratio (x) = 0.39211 0.06616
# Poissons Ratio (y) = 0.39211 0.06616
# Poissons Ratio (z) = 0.10160 0.10160
#
# Static dielectric constant tensor:
#      x y z
#    x 3.445800 0.000000 0.000000 
#    y 0.000000 3.445800 0.000000 
#    z 0.000000 0.000000 3.524680 
# 
# 
# High freq. dielectric constant tensor:
#      x y z
#    x 1.740220 0.000000 0.000000 
#    y 0.000000 1.740220 0.000000 
#    z 0.000000 0.000000 1.756460 
# 
# From -- ./inp_files/2126.got.cif
#   From: 2010.03.12/outbox.cif.g09.slc.cpg/sg107_2_cif.got.tgz:2126.got - 2010.04.14 01:49:11.
