data_PCOD8307626
_publ_section_title
;
Structure prediction by ZEFSAII (Michael W. Deem and Ramdas Pophale) SiO2 
 PCOD8307626
Probable space group: I 4 M M
;
_chemical_formula_sum "Si O2"
_cell_formula_units_Z 80
_cell_length_a 13.501653
_cell_length_b 13.501653
_cell_length_c 25.629416
_cell_angle_alpha 90.000000
_cell_angle_beta 90.000000
_cell_angle_gamma 90.000000
_cell_volume 4672.105002
_symmetry_space_group_name_H-M "I 4 M M"
_symmetry_group_IT_number 107
_symmetry_cell_setting 'tetragonal'
loop_
_space_group_symop_operation_xyz
x,y,z
-y,x,z
-x,-y,z
y,-x,z
-x,y,z
x,-y,z
-y,-x,z
y,x,z
1/2+x,1/2+y,1/2+z
1/2-y,1/2+x,1/2+z
1/2-x,1/2-y,1/2+z
1/2+y,1/2-x,1/2+z
1/2-x,1/2+y,1/2+z
1/2+x,1/2-y,1/2+z
1/2-y,1/2-x,1/2+z
1/2+y,1/2+x,1/2+z
loop_
_atom_site_type_symbol
_atom_site_label
_atom_site_fract_x
_atom_site_fract_y
_atom_site_fract_z
Si Si1 0.883020 0.276006 0.442170
Si Si2 0.611155 0.883690 0.339607
Si Si3 0.115819 0.279033 0.033126
Si Si4 0.886778 0.729273 0.739581
Si Si5 0.276520 0.884569 0.622594
O O1 0.828699 0.171302 0.451724
O O2 0.848938 0.317922 0.386178
O O3 0.850165 0.355322 0.485295
O O4 0.000000 0.258039 0.445826
O O5 0.500000 0.844008 0.350505
O O6 0.652344 0.845286 0.284052
O O7 0.610271 0.000000 0.335897
O O8 0.176018 0.176018 0.030582
O O9 0.139115 0.338589 0.086060
O O10 0.000000 0.253775 0.030877
O O11 0.833070 0.833070 0.745691
O O12 0.869447 0.684201 0.681824
O O13 0.000000 0.754419 0.748755
O O14 0.172310 0.827691 0.613393
O O15 0.258750 0.000000 0.609554
#
# Coordination Sequence:
#
# PCOD8307626 Si02
#       5
#    16  16  16  16  16
#     4  10  20  33  50  72  97 126 159 194 234 279
#     4   9  17  29  46  68  92 120 157 198 238 279
#     4  10  21  36  53  73  96 122 154 192 234 281
#     4   9  17  29  45  66  94 125 156 192 232 275
#     4   9  18  31  47  70  98 128 162 197 235 279
#
# _framework density 17.122902
#
# number of rings (size 3 to 8) (size 9 to 14) (size 15 to 20)
#    0.000    2.600    0.000    1.800    0.000    4.000 
#    0.000    4.000    0.000    3.600    0.000    2.800 
#    0.000    4.800    0.000    0.000    0.000    0.000 
#
# Total GULP energy -495898.409860 kJ/mol
# GULP energy per Si atom -12397.460247 kJ/mol
# Density = 1.708393 g / cm^3
# Si number density = 17.122902 Si / 1000 Ang^3
#
#
#
# Elastic Constant Matrix: (Units=GPa)
#
#
# Indices 1 2 3 4 5 6 
#
# 1 83.4641 39.1736 47.4536 0.0000 0.0000 -0.0001
# 2 39.1736 83.4641 47.4536 0.0000 0.0000 0.0001
# 3 47.4536 47.4536 126.6778 0.0000 0.0000 0.0000
# 4 0.0000 0.0000 0.0000 25.9750 0.0000 0.0000
# 5 0.0000 0.0000 0.0000 0.0000 25.9750 0.0000
# 6 -0.0001 0.0001 0.0000 0.0000 0.0000 17.6497
#
#
#
# Elastic Compliance Matrix: (Units=1/GPa)
#
#
# Indices 1 2 3 4 5 6 
#
# 1 0.017031 -0.005548 -0.004302 0.000000 0.000000 0.000000
# 2 -0.005548 0.017031 -0.004302 0.000000 0.000000 0.000000
# 3 -0.004302 -0.004302 0.011117 0.000000 0.000000 0.000000
# 4 0.000000 0.000000 0.000000 0.038498 0.000000 0.000000
# 5 0.000000 0.000000 0.000000 0.000000 0.038498 0.000000
# 6 0.000000 0.000000 0.000000 0.000000 0.000000 0.056658
#
#
# Mechanical properties :
#
#
# Convention : Reuss Voigt Hill
#
# Bulk Modulus (GPa) = 59.25364 62.41858 60.83611
# Shear Modulus (GPa) = 23.50068 24.55498 24.02783
#
# Velocity S-wave (km/s) = 3.70871 3.79098 3.75007
# Velocity P-wave (km/s) = 7.28144 7.46287 7.37272
#
# Compressibility (1/GPa) = 0.01687660
#
# Stress axis : x y z
#
# Youngs Moduli (GPa) = 58.71787 58.71787 89.95428
#
# Poissons Ratio (x) = 0.32574 0.38694
# Poissons Ratio (y) = 0.32574 0.38694
# Poissons Ratio (z) = 0.25258 0.25258
#
# Static dielectric constant tensor:
#      x y z
#    x 3.073030 0.000000 0.000000 
#    y 0.000000 3.073030 0.000000 
#    z 0.000000 0.000000 3.575690 
# 
# 
# High freq. dielectric constant tensor:
#      x y z
#    x 1.648170 0.000000 0.000000 
#    y 0.000000 1.648170 0.000000 
#    z 0.000000 0.000000 1.681990 
# 
# From -- ./inp_files/4609.got.cif
#   From: 2010.03.12/outbox.cif.g09.slc.cpg/sg107_3_cif.got.tgz:4609.got - 2010.04.14 01:49:11.
