data_PCOD8307233
_publ_section_title
;
Structure prediction by ZEFSAII (Michael W. Deem and Ramdas Pophale) SiO2 
 PCOD8307233
Probable space group: P 42 M C
;
_chemical_formula_sum "Si O2"
_cell_formula_units_Z 34
_cell_length_a 7.823670
_cell_length_b 7.823670
_cell_length_c 26.525120
_cell_angle_alpha 90.000000
_cell_angle_beta 90.000000
_cell_angle_gamma 90.000000
_cell_volume 1623.597616
_symmetry_space_group_name_H-M "P 42 M C"
_symmetry_group_IT_number 105
_symmetry_cell_setting 'tetragonal'
loop_
_space_group_symop_operation_xyz
x,y,z
-y,x,1/2+z
-x,-y,z
y,-x,1/2+z
-x,y,z
x,-y,z
-y,-x,1/2+z
y,x,1/2+z
loop_
_atom_site_type_symbol
_atom_site_label
_atom_site_fract_x
_atom_site_fract_y
_atom_site_fract_z
Si Si1 0.500000 0.702497 0.396960
Si Si2 0.186908 0.000000 0.551089
Si Si3 0.803486 0.193414 0.715130
Si Si4 0.688877 0.306272 0.112772
Si Si5 0.000000 0.500000 0.976077
Si Si6 0.299336 0.806995 0.823892
O O1 0.500000 0.500000 0.411468
O O2 0.500000 0.822868 0.445522
O O3 0.671944 0.752673 0.366734
O O4 0.193894 0.833175 0.586430
O O5 0.329686 0.000000 0.508873
O O6 0.000000 0.000000 0.525115
O O7 0.700925 0.300107 0.673553
O O8 0.776571 0.264733 0.771495
O O9 0.000000 0.205063 0.700130
O O10 0.734478 0.000000 0.714066
O O11 0.500000 0.242487 0.096416
O O12 0.716470 0.500000 0.095028
O O13 0.500000 0.812901 0.817928
O O14 0.230114 0.000000 0.836540
#
# Coordination Sequence:
#
# PCOD8307233 Si02
#       6
#     4   4   8   8   2   8
#     4  10  24  44  68  96 130 166 224 288 328 399
#     4  12  26  48  72  98 134 172 226 292 342 405
#     4  10  20  33  55  92 135 177 220 263 323 400
#     4  11  23  40  65  95 134 180 223 275 335 407
#     4  12  28  48  72 100 124 180 228 284 356 390
#     4   9  19  37  60  88 127 174 215 266 328 395
#
# _framework density 20.94115
#
# number of rings (size 3 to 8) (size 9 to 14) (size 15 to 20)
#    0.000    1.647    2.353    1.412    3.294    4.706 
#    0.000    0.000    0.000    0.000    0.000    0.000 
#    0.000    0.000    0.000    0.000    0.000    0.000 
#
# Total GULP energy -421554.312329 kJ/mol
# GULP energy per Si atom -12398.656245 kJ/mol
# Density = 2.089349 g / cm^3
# Si number density = 20.941150 Si / 1000 Ang^3
#
#
#
# Elastic Constant Matrix: (Units=GPa)
#
#
# Indices 1 2 3 4 5 6 
#
# 1 113.4623 45.3915 55.4218 0.0000 0.0000 0.0000
# 2 45.3915 113.4623 55.4218 0.0000 0.0000 0.0000
# 3 55.4218 55.4218 113.5137 0.0000 0.0000 0.0000
# 4 0.0000 0.0000 0.0000 14.5639 0.0000 0.0000
# 5 0.0000 0.0000 0.0000 0.0000 14.5639 0.0000
# 6 0.0000 0.0000 0.0000 0.0000 0.0000 2.3274
#
#
#
# Elastic Compliance Matrix: (Units=1/GPa)
#
#
# Indices 1 2 3 4 5 6 
#
# 1 0.012119 -0.002571 -0.004662 0.000000 0.000000 0.000000
# 2 -0.002571 0.012119 -0.004662 0.000000 0.000000 0.000000
# 3 -0.004662 -0.004662 0.013361 0.000000 0.000000 0.000000
# 4 0.000000 0.000000 0.000000 0.068663 0.000000 0.000000
# 5 0.000000 0.000000 0.000000 0.000000 0.068663 0.000000
# 6 0.000000 0.000000 0.000000 0.000000 0.000000 0.429669
#
#
# Mechanical properties :
#
#
# Convention : Reuss Voigt Hill
#
# Bulk Modulus (GPa) = 72.40782 72.54538 72.47660
# Shear Modulus (GPa) = 7.89905 18.57124 13.23515
#
# Velocity S-wave (km/s) = 1.94428 2.98120 2.51672
# Velocity P-wave (km/s) = 6.30017 6.82406 6.56734
#
# Compressibility (1/GPa) = 0.01381066
#
# Stress axis : x y z
#
# Youngs Moduli (GPa) = 82.51354 82.51354 74.84204
#
# Poissons Ratio (x) = 0.21217 0.34889
# Poissons Ratio (y) = 0.21217 0.34889
# Poissons Ratio (z) = 0.38465 0.38465
#
# Static dielectric constant tensor:
#      x y z
#    x 3.959130 0.000000 0.000000 
#    y 0.000000 3.959130 0.000000 
#    z 0.000000 0.000000 3.577950 
# 
# 
# High freq. dielectric constant tensor:
#      x y z
#    x 1.825140 0.000000 0.000000 
#    y 0.000000 1.825140 0.000000 
#    z 0.000000 0.000000 1.797410 
# 
# From -- ./inp_files/3491.got.cif
#   From: 2010.03.12/outbox.cif.g09.slc.cpg/sg105_2_cif.got.tgz:3491.got - 2010.04.14 01:45:32.
