data_PCOD8307763
_publ_section_title
;
Structure prediction by ZEFSAII (Michael W. Deem and Ramdas Pophale) SiO2 
 PCOD8307763
Probable space group: I 4 C M
;
_chemical_formula_sum "Si O2"
_cell_formula_units_Z 96
_cell_length_a 22.010804
_cell_length_b 22.010804
_cell_length_c 9.416583
_cell_angle_alpha 90.000000
_cell_angle_beta 90.000000
_cell_angle_gamma 90.000000
_cell_volume 4562.103689
_symmetry_space_group_name_H-M "I 4 C M"
_symmetry_group_IT_number 108
_symmetry_cell_setting 'tetragonal'
loop_
_space_group_symop_operation_xyz
x,y,z
-y,x,z
-x,-y,z
y,-x,z
-x,y,1/2+z
x,-y,1/2+z
-y,-x,1/2+z
y,x,1/2+z
1/2+x,1/2+y,1/2+z
1/2-y,1/2+x,1/2+z
1/2-x,1/2-y,1/2+z
1/2+y,1/2-x,1/2+z
1/2-x,1/2+y,z
1/2+x,1/2-y,z
1/2-y,1/2-x,z
1/2+y,1/2+x,z
loop_
_atom_site_type_symbol
_atom_site_label
_atom_site_fract_x
_atom_site_fract_y
_atom_site_fract_z
Si Si1 0.518021 0.331361 0.337800
Si Si2 0.332286 0.928812 0.168725
Si Si3 0.094851 0.970332 0.612220
Si Si4 0.839223 0.241343 0.022150
Si Si5 0.790619 0.532186 0.466594
Si Si6 0.637621 0.286133 0.208823
O O1 0.462430 0.357407 0.242527
O O2 0.540397 0.376935 0.459063
O O3 0.495814 0.267922 0.405734
O O4 0.575229 0.321829 0.234199
O O5 0.395999 0.895999 0.134097
O O6 0.332606 0.947937 0.334613
O O7 0.278074 0.880976 0.136642
O O8 0.327601 0.989139 0.072395
O O9 0.039908 0.925247 0.630752
O O10 0.792194 0.292194 0.074637
O O11 0.827243 0.179672 0.109040
O O12 0.907741 0.265730 0.048119
O O13 0.828370 0.226938 0.856828
#
# Coordination Sequence:
#
# PCOD8307763 Si02
#       6
#    16  16  16  16  16  16
#     4  10  21  38  57  84 123 157 219 270 305 372
#     4  10  21  43  68  93 131 168 211 260 320 393
#     4  11  23  38  55  79 116 175 220 267 304 348
#     4  10  20  39  63  92 127 159 205 254 317 385
#     4  10  22  40  64  97 123 167 207 266 327 383
#     4  10  22  37  61  94 123 170 202 263 315 375
#
# _framework density 21.042925
#
# number of rings (size 3 to 8) (size 9 to 14) (size 15 to 20)
#    0.000    2.167    0.000    6.000    4.667    2.667 
#   12.000    3.333    0.000    4.000    0.000    0.000 
#    0.000    0.000    0.000    0.000    0.000    0.000 
#
# Total GULP energy -595099.196572 kJ/mol
# GULP energy per Si atom -12397.899929 kJ/mol
# Density = 2.099503 g / cm^3
# Si number density = 21.042925 Si / 1000 Ang^3
#
#
#
# Elastic Constant Matrix: (Units=GPa)
#
#
# Indices 1 2 3 4 5 6 
#
# 1 75.8152 37.8288 33.9439 0.0000 0.0000 0.0000
# 2 37.8288 75.8152 33.9439 0.0000 0.0000 0.0000
# 3 33.9439 33.9439 73.9087 0.0000 0.0000 0.0000
# 4 0.0000 0.0000 0.0000 26.7116 0.0000 0.0000
# 5 0.0000 0.0000 0.0000 0.0000 26.7116 0.0000
# 6 0.0000 0.0000 0.0000 0.0000 0.0000 36.4207
#
#
#
# Elastic Compliance Matrix: (Units=1/GPa)
#
#
# Indices 1 2 3 4 5 6 
#
# 1 0.019226 -0.007099 -0.005569 0.000000 0.000000 0.000000
# 2 -0.007099 0.019226 -0.005569 0.000000 0.000000 0.000000
# 3 -0.005569 -0.005569 0.018646 0.000000 0.000000 0.000000
# 4 0.000000 0.000000 0.000000 0.037437 0.000000 0.000000
# 5 0.000000 0.000000 0.000000 0.000000 0.037437 0.000000
# 6 0.000000 0.000000 0.000000 0.000000 0.000000 0.027457
#
#
# Mechanical properties :
#
#
# Convention : Reuss Voigt Hill
#
# Bulk Modulus (GPa) = 48.49316 48.55247 48.52281
# Shear Modulus (GPa) = 24.65758 25.95698 25.30728
#
# Velocity S-wave (km/s) = 3.42683 3.51597 3.47169
# Velocity P-wave (km/s) = 6.22515 6.29332 6.25933
#
# Compressibility (1/GPa) = 0.02062146
#
# Stress axis : x y z
#
# Youngs Moduli (GPa) = 52.01359 52.01359 53.63158
#
# Poissons Ratio (x) = 0.36927 0.29869
# Poissons Ratio (y) = 0.36927 0.29869
# Poissons Ratio (z) = 0.28967 0.28967
#
# Static dielectric constant tensor:
#      x y z
#    x 3.740910 0.000000 0.000000 
#    y 0.000000 3.740910 0.000000 
#    z 0.000000 0.000000 3.770690 
# 
# 
# High freq. dielectric constant tensor:
#      x y z
#    x 1.812340 0.000000 0.000000 
#    y 0.000000 1.812340 0.000000 
#    z 0.000000 0.000000 1.821540 
# 
# From -- ./inp_files/763.got.cif
#   From: 2010.03.12/outbox.cif.g09.slc.cpg/sg108_1_cif.got.tgz:763.got - 2010.04.14 01:53:11.
