data_PCOD8307869
_publ_section_title
;
Structure prediction by ZEFSAII (Michael W. Deem and Ramdas Pophale) SiO2 
 PCOD8307869
Probable space group: I 41 M D
;
_chemical_formula_sum "Si O2"
_cell_formula_units_Z 64
_cell_length_a 16.536307
_cell_length_b 16.536307
_cell_length_c 13.136652
_cell_angle_alpha 90.000000
_cell_angle_beta 90.000000
_cell_angle_gamma 90.000000
_cell_volume 3592.210254
_symmetry_space_group_name_H-M "I 41 M D"
_symmetry_group_IT_number 109
_symmetry_cell_setting 'tetragonal'
loop_
_space_group_symop_operation_xyz
x,y,z
-y,1/2+x,1/4+z
-x,-y,z
y,1/2-x,1/4+z
-x,y,z
x,-y,z
-y,1/2-x,1/4+z
y,1/2+x,1/4+z
1/2+x,1/2+y,1/2+z
1/2-y,x,3/4+z
1/2-x,1/2-y,1/2+z
1/2+y,-x,3/4+z
1/2-x,1/2+y,1/2+z
1/2+x,1/2-y,1/2+z
1/2-y,-x,3/4+z
1/2+y,x,3/4+z
loop_
_atom_site_type_symbol
_atom_site_label
_atom_site_fract_x
_atom_site_fract_y
_atom_site_fract_z
Si Si1 0.291755 0.907980 0.147790
Si Si2 0.709794 0.842674 0.934687
Si Si3 0.791757 0.907980 0.524527
Si Si4 0.157326 0.290207 0.987630
O O1 0.200607 0.875963 0.163761
O O2 0.357500 0.857501 0.211158
O O3 0.297496 0.000000 0.184845
O O4 0.307164 0.904149 0.026259
O O5 0.750001 0.887660 0.836158
O O6 0.770721 0.770721 0.961158
O O7 0.700608 0.875964 0.508556
O O8 0.807166 0.904148 0.646058
O O9 0.797499 0.000000 0.487473
#
# Coordination Sequence:
#
# PCOD8307869 Si02
#       4
#    16  16  16  16
#     4  10  19  30  47  70  95 123 153 188 233 281
#     4   8  16  32  50  67  88 117 158 200 230 266
#     4  10  19  30  47  70  95 123 153 188 233 281
#     4   8  16  32  50  67  88 117 158 200 230 266
#
# _framework density 17.816329
#
# number of rings (size 3 to 8) (size 9 to 14) (size 15 to 20)
#    0.000    3.000    0.000    4.500    0.000    5.500 
#    0.000    0.000    0.000    0.000    0.000    0.000 
#    0.000    0.000    0.000    0.000    0.000    0.000 
#
# Total GULP energy -396459.597840 kJ/mol
# GULP energy per Si atom -12389.362433 kJ/mol
# Density = 1.777578 g / cm^3
# Si number density = 17.816329 Si / 1000 Ang^3
#
#
#
# Elastic Constant Matrix: (Units=GPa)
#
#
# Indices 1 2 3 4 5 6 
#
# 1 43.0344 21.3880 12.1709 0.0000 0.0000 0.0000
# 2 21.3880 43.0344 12.1709 0.0000 0.0000 0.0000
# 3 12.1709 12.1709 116.8139 0.0000 0.0000 0.0000
# 4 0.0000 0.0000 0.0000 14.5292 0.0000 0.0000
# 5 0.0000 0.0000 0.0000 0.0000 14.5292 0.0000
# 6 0.0000 0.0000 0.0000 0.0000 0.0000 9.6537
#
#
#
# Elastic Compliance Matrix: (Units=1/GPa)
#
#
# Indices 1 2 3 4 5 6 
#
# 1 0.031178 -0.015019 -0.001684 0.000000 0.000000 0.000000
# 2 -0.015019 0.031178 -0.001684 0.000000 0.000000 0.000000
# 3 -0.001684 -0.001684 0.008911 0.000000 0.000000 0.000000
# 4 0.000000 0.000000 0.000000 0.068827 0.000000 0.000000
# 5 0.000000 0.000000 0.000000 0.000000 0.068827 0.000000
# 6 0.000000 0.000000 0.000000 0.000000 0.000000 0.103587
#
#
# Mechanical properties :
#
#
# Convention : Reuss Voigt Hill
#
# Bulk Modulus (GPa) = 28.99010 32.70468 30.84739
# Shear Modulus (GPa) = 13.85889 18.21928 16.03908
#
# Velocity S-wave (km/s) = 2.79207 3.20131 3.00367
# Velocity P-wave (km/s) = 5.16732 5.66224 5.42043
#
# Compressibility (1/GPa) = 0.03449453
#
# Stress axis : x y z
#
# Youngs Moduli (GPa) = 32.07406 32.07406 112.21521
#
# Poissons Ratio (x) = 0.48173 0.18892
# Poissons Ratio (y) = 0.48173 0.18892
# Poissons Ratio (z) = 0.05400 0.05400
#
# Static dielectric constant tensor:
#      x y z
#    x 2.921200 0.000000 0.000000 
#    y 0.000000 2.921200 0.000000 
#    z 0.000000 0.000000 4.055800 
# 
# 
# High freq. dielectric constant tensor:
#      x y z
#    x 1.653670 0.000000 0.000000 
#    y 0.000000 1.653670 0.000000 
#    z 0.000000 0.000000 1.713810 
# 
# From -- ./inp_files/1851.got.cif
#   From: 2010.03.12/outbox.cif.g09.slc.cpg/sg109_1_cif.got.tgz:1851.got - 2010.04.14 01:55:16.
