data_PCOD8307803
_publ_section_title
;
Structure prediction by ZEFSAII (Michael W. Deem and Ramdas Pophale) SiO2 
 PCOD8307803
Probable space group: I 4 C M
;
_chemical_formula_sum "Si O2"
_cell_formula_units_Z 96
_cell_length_a 15.484248
_cell_length_b 15.484248
_cell_length_c 20.282598
_cell_angle_alpha 90.000000
_cell_angle_beta 90.000000
_cell_angle_gamma 90.000000
_cell_volume 4862.994966
_symmetry_space_group_name_H-M "I 4 C M"
_symmetry_group_IT_number 108
_symmetry_cell_setting 'tetragonal'
loop_
_space_group_symop_operation_xyz
x,y,z
-y,x,z
-x,-y,z
y,-x,z
-x,y,1/2+z
x,-y,1/2+z
-y,-x,1/2+z
y,x,1/2+z
1/2+x,1/2+y,1/2+z
1/2-y,1/2+x,1/2+z
1/2-x,1/2-y,1/2+z
1/2+y,1/2-x,1/2+z
1/2-x,1/2+y,z
1/2+x,1/2-y,z
1/2-y,1/2-x,z
1/2+y,1/2+x,z
loop_
_atom_site_type_symbol
_atom_site_label
_atom_site_fract_x
_atom_site_fract_y
_atom_site_fract_z
Si Si1 0.665557 0.303005 0.230670
Si Si2 0.137975 0.493617 0.822511
Si Si3 0.242919 0.885188 0.615394
Si Si4 0.968201 0.669628 0.180008
Si Si5 0.879737 0.766949 0.370887
Si Si6 0.621553 0.423860 0.994484
O O1 0.753988 0.253988 0.244972
O O2 0.687328 0.384566 0.184004
O O3 0.601833 0.244076 0.188159
O O4 0.628749 0.324019 0.303588
O O5 0.070841 0.570841 0.818675
O O6 0.164749 0.475389 0.747063
O O7 0.216591 0.527794 0.867226
O O8 0.093645 0.406356 0.852100
O O9 0.297501 0.797501 0.605152
O O10 0.176153 0.892610 0.556410
O O11 0.306929 0.967484 0.619898
O O12 0.921004 0.578997 0.163080
O O13 0.800634 0.699367 0.379846
O O14 0.885207 0.832790 0.430279
O O15 0.617605 0.527041 0.995561
#
# Coordination Sequence:
#
# PCOD8307803 Si02
#       6
#    16  16  16  16  16  16
#     4   8  17  33  55  84 113 142 176 214 261 323
#     4   8  14  27  50  81 115 144 168 207 272 338
#     4  11  21  35  58  84 110 142 182 227 274 327
#     4   9  17  31  52  80 114 144 173 219 278 334
#     4   9  18  36  60  85 113 142 178 225 272 325
#     4  11  25  43  57  72 103 149 193 230 273 321
#
# _framework density 19.740921
#
# number of rings (size 3 to 8) (size 9 to 14) (size 15 to 20)
#    0.000    2.667    0.000    4.000    0.000    3.667 
#    0.000    5.000    0.000    4.000    0.000    0.000 
#    0.000    0.000    0.000    0.000    0.000    0.000 
#
# Total GULP energy -594768.120245 kJ/mol
# GULP energy per Si atom -12391.002505 kJ/mol
# Density = 1.969599 g / cm^3
# Si number density = 19.740921 Si / 1000 Ang^3
#
#
#
# Elastic Constant Matrix: (Units=GPa)
#
#
# Indices 1 2 3 4 5 6 
#
# 1 80.0987 40.5119 57.2358 0.0000 0.0000 0.0001
# 2 40.5119 80.0987 57.2358 0.0000 0.0000 -0.0001
# 3 57.2358 57.2358 127.6144 0.0000 0.0000 0.0000
# 4 0.0000 0.0000 0.0000 14.2584 0.0000 0.0000
# 5 0.0000 0.0000 0.0000 0.0000 14.2584 0.0000
# 6 0.0001 -0.0001 0.0000 0.0000 0.0000 26.1193
#
#
#
# Elastic Compliance Matrix: (Units=1/GPa)
#
#
# Indices 1 2 3 4 5 6 
#
# 1 0.019849 -0.005412 -0.006475 0.000000 0.000000 0.000000
# 2 -0.005412 0.019849 -0.006475 0.000000 0.000000 0.000000
# 3 -0.006475 -0.006475 0.013644 0.000000 0.000000 0.000000
# 4 0.000000 0.000000 0.000000 0.070134 0.000000 0.000000
# 5 0.000000 0.000000 0.000000 0.000000 0.070134 0.000000
# 6 0.000000 0.000000 0.000000 0.000000 0.000000 0.038286
#
#
# Mechanical properties :
#
#
# Convention : Reuss Voigt Hill
#
# Bulk Modulus (GPa) = 60.17703 66.41988 63.29845
# Shear Modulus (GPa) = 18.23766 19.78246 19.01006
#
# Velocity S-wave (km/s) = 3.04279 3.16904 3.10655
# Velocity P-wave (km/s) = 6.54938 6.86362 6.70834
#
# Compressibility (1/GPa) = 0.01661764
#
# Stress axis : x y z
#
# Youngs Moduli (GPa) = 50.38120 50.38120 73.29180
#
# Poissons Ratio (x) = 0.27268 0.47455
# Poissons Ratio (y) = 0.27268 0.47455
# Poissons Ratio (z) = 0.32621 0.32621
#
# Static dielectric constant tensor:
#      x y z
#    x 3.587560 0.000000 0.000000 
#    y 0.000000 3.587560 0.000000 
#    z 0.000000 0.000000 3.476250 
# 
# 
# High freq. dielectric constant tensor:
#      x y z
#    x 1.763630 0.000000 0.000000 
#    y 0.000000 1.763630 0.000000 
#    z 0.000000 0.000000 1.746920 
# 
# From -- ./inp_files/2463.got.cif
#   From: 2010.03.12/outbox.cif.g09.slc.cpg/sg108_2_cif.got.tgz:2463.got - 2010.04.14 01:53:11.
