data_PCOD8307832
_publ_section_title
;
Structure prediction by ZEFSAII (Michael W. Deem and Ramdas Pophale) SiO2 
 PCOD8307832
Probable space group: I 41 M D
;
_chemical_formula_sum "Si O2"
_cell_formula_units_Z 96
_cell_length_a 18.704851
_cell_length_b 18.704851
_cell_length_c 17.758692
_cell_angle_alpha 90.000000
_cell_angle_beta 90.000000
_cell_angle_gamma 90.000000
_cell_volume 6213.259337
_symmetry_space_group_name_H-M "I 41 M D"
_symmetry_group_IT_number 109
_symmetry_cell_setting 'tetragonal'
loop_
_space_group_symop_operation_xyz
x,y,z
-y,1/2+x,1/4+z
-x,-y,z
y,1/2-x,1/4+z
-x,y,z
x,-y,z
-y,1/2-x,1/4+z
y,1/2+x,1/4+z
1/2+x,1/2+y,1/2+z
1/2-y,x,3/4+z
1/2-x,1/2-y,1/2+z
1/2+y,-x,3/4+z
1/2-x,1/2+y,1/2+z
1/2+x,1/2-y,1/2+z
1/2-y,-x,3/4+z
1/2+y,x,3/4+z
loop_
_atom_site_type_symbol
_atom_site_label
_atom_site_fract_x
_atom_site_fract_y
_atom_site_fract_z
Si Si1 0.417051 0.917872 0.600080
Si Si2 0.353744 0.853744 0.747928
Si Si3 0.308560 0.169298 0.982274
Si Si4 0.308560 0.669298 0.263582
Si Si5 0.779144 0.250000 0.622928
Si Si6 0.082949 0.082128 0.145777
O O1 0.500000 0.901250 0.610509
O O2 0.377772 0.899977 0.677286
O O3 0.387875 0.869608 0.531548
O O4 0.402940 0.000000 0.578875
O O5 0.367776 0.769539 0.734130
O O6 0.269539 0.867776 0.761727
O O7 0.399977 0.877772 0.818571
O O8 0.306991 0.229743 0.917508
O O9 0.369608 0.112125 0.964309
O O10 0.326659 0.205514 0.063262
O O11 0.326659 0.705514 0.182595
O O12 0.306991 0.729743 0.328348
O O13 0.000000 0.098750 0.135348
O O14 0.097060 0.000000 0.166981
#
# Coordination Sequence:
#
# PCOD8307832 Si02
#       6
#    16  16  16  16  16  16
#     4  11  22  32  44  71 109 136 159 197 243 294
#     4  10  18  33  52  72  94 134 168 199 234 296
#     4  10  16  33  50  74  92 124 165 201 244 280
#     4  10  16  33  50  74  92 124 165 201 244 280
#     4   8  16  30  54  70  92 114 160 216 232 268
#     4  11  22  32  44  71 109 136 159 197 243 294
#
# _framework density 15.450827
#
# number of rings (size 3 to 8) (size 9 to 14) (size 15 to 20)
#    0.000    2.333    6.667    1.000    0.000    5.333 
#    0.000    0.833    0.000    0.000    0.000    0.000 
#    0.000   10.667    0.000    0.000    0.000    0.000 
#
# Total GULP energy -595014.177206 kJ/mol
# GULP energy per Si atom -12396.128692 kJ/mol
# Density = 1.541566 g / cm^3
# Si number density = 15.450827 Si / 1000 Ang^3
#
#
#
# Elastic Constant Matrix: (Units=GPa)
#
#
# Indices 1 2 3 4 5 6 
#
# 1 85.5883 52.1697 41.2827 0.0000 0.0000 0.0000
# 2 52.1697 85.5883 41.2827 0.0000 0.0000 0.0000
# 3 41.2827 41.2827 100.2473 0.0000 0.0000 0.0000
# 4 0.0000 0.0000 0.0000 15.2267 0.0000 0.0000
# 5 0.0000 0.0000 0.0000 0.0000 15.2267 0.0000
# 6 0.0000 0.0000 0.0000 0.0000 0.0000 29.2726
#
#
#
# Elastic Compliance Matrix: (Units=1/GPa)
#
#
# Indices 1 2 3 4 5 6 
#
# 1 0.019781 -0.010143 -0.003969 0.000000 0.000000 0.000000
# 2 -0.010143 0.019781 -0.003969 0.000000 0.000000 0.000000
# 3 -0.003969 -0.003969 0.013244 0.000000 0.000000 0.000000
# 4 0.000000 0.000000 0.000000 0.065674 0.000000 0.000000
# 5 0.000000 0.000000 0.000000 0.000000 0.065674 0.000000
# 6 0.000000 0.000000 0.000000 0.000000 0.000000 0.034162
#
#
# Mechanical properties :
#
#
# Convention : Reuss Voigt Hill
#
# Bulk Modulus (GPa) = 60.08110 60.09936 60.09023
# Shear Modulus (GPa) = 19.22894 21.05780 20.14337
#
# Velocity S-wave (km/s) = 3.53161 3.69574 3.61461
# Velocity P-wave (km/s) = 7.45651 7.56260 7.50974
#
# Compressibility (1/GPa) = 0.01664417
#
# Stress axis : x y z
#
# Youngs Moduli (GPa) = 50.55426 50.55426 75.50448
#
# Poissons Ratio (x) = 0.51276 0.29968
# Poissons Ratio (y) = 0.51276 0.29968
# Poissons Ratio (z) = 0.20065 0.20065
#
# Static dielectric constant tensor:
#      x y z
#    x 2.825950 0.000000 0.000000 
#    y 0.000000 2.825950 0.000000 
#    z 0.000000 0.000000 3.105990 
# 
# 
# High freq. dielectric constant tensor:
#      x y z
#    x 1.573890 0.000000 0.000000 
#    y 0.000000 1.573890 0.000000 
#    z 0.000000 0.000000 1.599000 
# 
# From -- ./inp_files/3138.got.cif
#   From: 2010.03.12/outbox.cif.g09.slc.cpg/sg109_2_cif.got.tgz:3138.got - 2010.04.14 01:55:16.
