data_PCOD8307715
_publ_section_title
;
Structure prediction by ZEFSAII (Michael W. Deem and Ramdas Pophale) SiO2 
 PCOD8307715
Probable space group: I 4 C M
;
_chemical_formula_sum "Si O2"
_cell_formula_units_Z 96
_cell_length_a 15.068517
_cell_length_b 15.068517
_cell_length_c 20.599992
_cell_angle_alpha 90.000000
_cell_angle_beta 90.000000
_cell_angle_gamma 90.000000
_cell_volume 4677.438398
_symmetry_space_group_name_H-M "I 4 C M"
_symmetry_group_IT_number 108
_symmetry_cell_setting 'tetragonal'
loop_
_space_group_symop_operation_xyz
x,y,z
-y,x,z
-x,-y,z
y,-x,z
-x,y,1/2+z
x,-y,1/2+z
-y,-x,1/2+z
y,x,1/2+z
1/2+x,1/2+y,1/2+z
1/2-y,1/2+x,1/2+z
1/2-x,1/2-y,1/2+z
1/2+y,1/2-x,1/2+z
1/2-x,1/2+y,z
1/2+x,1/2-y,z
1/2-y,1/2-x,z
1/2+y,1/2+x,z
loop_
_atom_site_type_symbol
_atom_site_label
_atom_site_fract_x
_atom_site_fract_y
_atom_site_fract_z
Si Si1 0.736700 0.998505 0.829610
Si Si2 0.179706 0.170075 0.292827
Si Si3 0.140591 0.495578 0.195754
Si Si4 0.618833 0.413772 0.162096
Si Si5 0.080770 0.270713 0.579233
Si Si6 0.857504 0.497148 0.463751
O O1 0.791403 0.089413 0.839795
O O2 0.676044 0.983890 0.891887
O O3 0.800302 0.914834 0.820249
O O4 0.674945 0.011542 0.767672
O O5 0.249409 0.250592 0.294868
O O6 0.173785 0.131834 0.220179
O O7 0.106252 0.393749 0.189158
O O8 0.212339 0.516200 0.140922
O O9 0.059259 0.559259 0.182170
O O10 0.621798 0.520055 0.166802
O O11 0.668928 0.388193 0.093889
O O12 0.166573 0.333427 0.575364
O O13 0.019188 0.279205 0.515201
O O14 0.896662 0.396662 0.470920
O O15 0.936743 0.563258 0.480330
#
# Coordination Sequence:
#
# PCOD8307715 Si02
#       6
#    16  16  16  16  16  16
#     4  12  24  39  61  92 129 171 221 271 333 401
#     4  12  23  39  65  95 129 168 216 275 332 396
#     4  10  18  31  56  88 118 151 200 264 326 386
#     4  11  22  40  64  91 128 170 213 262 321 390
#     4  10  20  38  62  91 124 161 210 268 332 400
#     4  10  21  40  64  92 131 174 219 281 349 406
#
# _framework density 20.524052999999999
#
# number of rings (size 3 to 8) (size 9 to 14) (size 15 to 20)
#    0.000    1.167    3.333    4.000    0.000    3.667 
#    3.000    2.500    0.000    0.000    0.000    0.000 
#    0.000    0.000    0.000    0.000    0.000    0.000 
#
# Total GULP energy -594999.318820 kJ/mol
# GULP energy per Si atom -12395.819142 kJ/mol
# Density = 2.047734 g / cm^3
# Si number density = 20.524053 Si / 1000 Ang^3
#
#
#
# Elastic Constant Matrix: (Units=GPa)
#
#
# Indices 1 2 3 4 5 6 
#
# 1 92.5216 32.1269 18.4210 0.0000 0.0000 0.0002
# 2 32.1269 92.5216 18.4210 0.0000 0.0000 -0.0002
# 3 18.4210 18.4210 101.6797 0.0000 0.0000 0.0000
# 4 0.0000 0.0000 0.0000 25.4070 0.0000 0.0000
# 5 0.0000 0.0000 0.0000 0.0000 25.4070 0.0000
# 6 0.0002 -0.0002 0.0000 0.0000 0.0000 18.3026
#
#
#
# Elastic Compliance Matrix: (Units=1/GPa)
#
#
# Indices 1 2 3 4 5 6 
#
# 1 0.012517 -0.004041 -0.001536 0.000000 0.000000 0.000000
# 2 -0.004041 0.012517 -0.001536 0.000000 0.000000 0.000000
# 3 -0.001536 -0.001536 0.010391 0.000000 0.000000 0.000000
# 4 0.000000 0.000000 0.000000 0.039359 0.000000 0.000000
# 5 0.000000 0.000000 0.000000 0.000000 0.039359 0.000000
# 6 0.000000 0.000000 0.000000 0.000000 0.000000 0.054637
#
#
# Mechanical properties :
#
#
# Convention : Reuss Voigt Hill
#
# Bulk Modulus (GPa) = 47.16646 47.18453 47.17550
# Shear Modulus (GPa) = 26.30585 28.34027 27.32306
#
# Velocity S-wave (km/s) = 3.58398 3.71999 3.65262
# Velocity P-wave (km/s) = 6.33699 6.44134 6.38938
#
# Compressibility (1/GPa) = 0.02120151
#
# Stress axis : x y z
#
# Youngs Moduli (GPa) = 79.89075 79.89075 96.23502
#
# Poissons Ratio (x) = 0.32281 0.14778
# Poissons Ratio (y) = 0.32281 0.14778
# Poissons Ratio (z) = 0.12268 0.12268
#
# Static dielectric constant tensor:
#      x y z
#    x 3.991280 0.000000 0.000000 
#    y 0.000000 3.991280 0.000000 
#    z 0.000000 0.000000 3.650400 
# 
# 
# High freq. dielectric constant tensor:
#      x y z
#    x 1.806530 0.000000 0.000000 
#    y 0.000000 1.806530 0.000000 
#    z 0.000000 0.000000 1.784770 
# 
# From -- ./inp_files/2911.got.cif
#   From: 2010.03.12/outbox.cif.g09.slc.cpg/sg108_2_cif.got.tgz:2911.got - 2010.04.14 01:53:11.
