data_PCOD8307454
_publ_section_title
;
Structure prediction by ZEFSAII (Michael W. Deem and Ramdas Pophale) SiO2 
 PCOD8307454
Probable space group: P 42 B C
;
_chemical_formula_sum "Si O2"
_cell_formula_units_Z 64
_cell_length_a 11.501959
_cell_length_b 11.501959
_cell_length_c 23.731661
_cell_angle_alpha 90.000000
_cell_angle_beta 90.000000
_cell_angle_gamma 90.000000
_cell_volume 3139.581536
_symmetry_space_group_name_H-M "P 42 B C"
_symmetry_group_IT_number 106
_symmetry_cell_setting 'tetragonal'
loop_
_space_group_symop_operation_xyz
x,y,z
-y,x,1/2+z
-x,-y,z
y,-x,1/2+z
1/2-x,1/2+y,z
1/2+x,1/2-y,z
1/2-y,1/2-x,1/2+z
1/2+y,1/2+x,1/2+z
loop_
_atom_site_type_symbol
_atom_site_label
_atom_site_fract_x
_atom_site_fract_y
_atom_site_fract_z
Si Si1 0.095351 0.902761 0.315920
Si Si2 0.097240 0.095351 0.945698
Si Si3 0.966883 0.315166 0.520926
Si Si4 0.533500 0.188282 0.746945
Si Si5 0.811718 0.533500 0.514672
Si Si6 0.313839 0.490291 0.133213
Si Si7 0.686161 0.509709 0.628404
Si Si8 0.684834 0.966883 0.740692
O O1 0.104120 0.866642 0.380809
O O2 0.219024 0.952858 0.296627
O O3 0.057223 0.791815 0.280858
O O4 0.000000 0.000000 0.304997
O O5 0.208185 0.057222 0.980759
O O6 0.047142 0.219024 0.964991
O O7 0.000000 0.000000 0.956621
O O8 0.859844 0.403021 0.514436
O O9 0.973529 0.277687 0.585837
O O10 0.087051 0.374305 0.502880
O O11 0.560495 0.246808 0.686920
O O12 0.403021 0.140156 0.747182
O O13 0.625695 0.087051 0.758737
O O14 0.753192 0.560495 0.574698
O O15 0.389388 0.601973 0.152126
O O16 0.398027 0.389388 0.109492
O O17 0.777687 0.473529 0.675780
#
# Coordination Sequence:
#
# PCOD8307454 Si02
#       8
#     8   8   8   8   8   8   8   8
#     4  11  26  46  69  95 131 177 224 275 332 391
#     4  11  26  46  69  95 131 177 224 275 332 391
#     4  11  25  43  67 100 134 173 222 274 332 396
#     4  11  25  43  67 100 134 173 222 274 332 396
#     4  11  25  43  67 100 134 173 222 274 332 396
#     4  11  22  37  66 102 138 171 215 268 338 400
#     4  11  22  37  66 102 138 171 215 268 338 400
#     4  11  25  43  67 100 134 173 222 274 332 396
#
# _framework density 20.384884
#
# number of rings (size 3 to 8) (size 9 to 14) (size 15 to 20)
#    0.000    1.000    2.500    3.000    7.000    6.000 
#    0.000    2.500    0.000    0.000    0.000    0.000 
#    0.000    0.000    0.000    0.000    0.000    0.000 
#
# Total GULP energy -794088.413625 kJ/mol
# GULP energy per Si atom -12407.631463 kJ/mol
# Density = 2.033849 g / cm^3
# Si number density = 20.384884 Si / 1000 Ang^3
#
#
#
# Elastic Constant Matrix: (Units=GPa)
#
#
# Indices 1 2 3 4 5 6 
#
# 1 81.5605 16.4916 23.3766 0.0000 0.0000 0.0000
# 2 16.4916 81.5605 23.3766 0.0000 0.0000 0.0000
# 3 23.3766 23.3766 69.0074 0.0000 0.0000 0.0000
# 4 0.0000 0.0000 0.0000 4.3429 0.0000 0.0000
# 5 0.0000 0.0000 0.0000 0.0000 4.3429 0.0000
# 6 0.0000 0.0000 0.0000 0.0000 0.0000 25.0680
#
#
#
# Elastic Compliance Matrix: (Units=1/GPa)
#
#
# Indices 1 2 3 4 5 6 
#
# 1 0.013766 -0.001602 -0.004120 0.000000 0.000000 0.000000
# 2 -0.001602 0.013766 -0.004120 0.000000 0.000000 0.000000
# 3 -0.004120 -0.004120 0.017283 0.000000 0.000000 0.000000
# 4 0.000000 0.000000 0.000000 0.230262 0.000000 0.000000
# 5 0.000000 0.000000 0.000000 0.000000 0.230262 0.000000
# 6 0.000000 0.000000 0.000000 0.000000 0.000000 0.039892
#
#
# Mechanical properties :
#
#
# Convention : Reuss Voigt Hill
#
# Bulk Modulus (GPa) = 39.79635 39.84643 39.82139
# Shear Modulus (GPa) = 8.72155 18.00965 13.36560
#
# Velocity S-wave (km/s) = 2.07068 2.97556 2.56337
# Velocity P-wave (km/s) = 5.02810 5.60311 5.32337
#
# Compressibility (1/GPa) = 0.02512793
#
# Stress axis : x y z
#
# Youngs Moduli (GPa) = 72.64358 72.64358 57.86099
#
# Poissons Ratio (x) = 0.11641 0.23841
# Poissons Ratio (y) = 0.11641 0.23841
# Poissons Ratio (z) = 0.29932 0.29932
#
# Static dielectric constant tensor:
#      x y z
#    x 3.929630 0.000000 0.000000 
#    y 0.000000 3.929630 0.000000 
#    z 0.000000 0.000000 3.638470 
# 
# 
# High freq. dielectric constant tensor:
#      x y z
#    x 1.812880 0.000000 0.000000 
#    y 0.000000 1.812880 0.000000 
#    z 0.000000 0.000000 1.789120 
# 
# From -- ./inp_files/1749.got.cif
#   From: 2010.03.12/outbox.cif.g09.slc.cpg/sg106_cif.got.tgz:1749.got - 2010.04.14 01:48:02.
