data_PCOD8307238
_publ_section_title
;
Structure prediction by ZEFSAII (Michael W. Deem and Ramdas Pophale) SiO2 
 PCOD8307238
Probable space group: P 42 M C
;
_chemical_formula_sum "Si O2"
_cell_formula_units_Z 56
_cell_length_a 15.077182
_cell_length_b 15.077182
_cell_length_c 13.570603
_cell_angle_alpha 90.000000
_cell_angle_beta 90.000000
_cell_angle_gamma 90.000000
_cell_volume 3084.888704
_symmetry_space_group_name_H-M "P 42 M C"
_symmetry_group_IT_number 105
_symmetry_cell_setting 'tetragonal'
loop_
_space_group_symop_operation_xyz
x,y,z
-y,x,1/2+z
-x,-y,z
y,-x,1/2+z
-x,y,z
x,-y,z
-y,-x,1/2+z
y,x,1/2+z
loop_
_atom_site_type_symbol
_atom_site_label
_atom_site_fract_x
_atom_site_fract_y
_atom_site_fract_z
Si Si1 0.601848 0.254028 0.962980
Si Si2 0.601200 0.898800 0.813757
Si Si3 0.898152 0.754028 0.164534
Si Si4 0.901451 0.232040 0.743389
Si Si5 0.899846 0.691272 0.949438
Si Si6 0.267960 0.598549 0.884125
Si Si7 0.600154 0.191272 0.178077
O O1 0.500000 0.280477 0.946116
O O2 0.625401 0.163336 0.905989
O O3 0.660661 0.333492 0.923789
O O4 0.623571 0.241436 0.077516
O O5 0.500000 0.883891 0.778729
O O6 0.663336 0.874599 0.721526
O O7 0.616109 0.000000 0.848786
O O8 0.839339 0.833492 0.203725
O O9 0.000000 0.780477 0.181398
O O10 0.876429 0.741436 0.049999
O O11 0.891188 0.237124 0.861652
O O12 0.886878 0.329465 0.696093
O O13 0.000000 0.201124 0.714271
O O14 0.829465 0.613122 0.931421
O O15 0.000000 0.651294 0.953355
O O16 0.298876 0.500000 0.913244
O O17 0.262876 0.608812 0.765863
O O18 0.500000 0.151294 0.174159
#
# Coordination Sequence:
#
# PCOD8307238 Si02
#       7
#     8   8   8   8   8   8   8
#     4  10  20  35  54  75 105 138 166 206 255 302
#     4   9  18  32  52  78 102 129 170 214 256 301
#     4  10  20  35  54  75 105 138 166 206 255 302
#     4  10  20  34  53  76 103 135 171 208 247 300
#     4   9  19  35  53  74 101 133 169 212 258 296
#     4  10  20  34  53  76 103 135 171 208 247 300
#     4   9  19  35  53  74 101 133 169 212 258 296
#
# _framework density 18.153005
#
# number of rings (size 3 to 8) (size 9 to 14) (size 15 to 20)
#    0.000    2.429    0.000    2.571    0.000    2.286 
#    0.000   10.000    0.000    5.143    0.000    0.000 
#    0.000    0.000    0.000    0.000    0.000    0.000 
#
# Total GULP energy -694370.831173 kJ/mol
# GULP energy per Si atom -12399.479128 kJ/mol
# Density = 1.811169 g / cm^3
# Si number density = 18.153005 Si / 1000 Ang^3
#
#
#
# Elastic Constant Matrix: (Units=GPa)
#
#
# Indices 1 2 3 4 5 6 
#
# 1 112.2558 76.8306 70.3319 0.0000 0.0000 0.0000
# 2 76.8306 112.2558 70.3319 0.0000 0.0000 0.0000
# 3 70.3319 70.3319 137.5221 0.0000 0.0000 0.0000
# 4 0.0000 0.0000 0.0000 21.6659 0.0000 0.0000
# 5 0.0000 0.0000 0.0000 0.0000 21.6659 0.0000
# 6 0.0000 0.0000 0.0000 0.0000 0.0000 21.6383
#
#
#
# Elastic Compliance Matrix: (Units=1/GPa)
#
#
# Indices 1 2 3 4 5 6 
#
# 1 0.018382 -0.009846 -0.004366 0.000000 0.000000 0.000000
# 2 -0.009846 0.018382 -0.004366 0.000000 0.000000 0.000000
# 3 -0.004366 -0.004366 0.011737 0.000000 0.000000 0.000000
# 4 0.000000 0.000000 0.000000 0.046155 0.000000 0.000000
# 5 0.000000 0.000000 0.000000 0.000000 0.046155 0.000000
# 6 0.000000 0.000000 0.000000 0.000000 0.000000 0.046214
#
#
# Mechanical properties :
#
#
# Convention : Reuss Voigt Hill
#
# Bulk Modulus (GPa) = 88.12984 88.55802 88.34393
# Shear Modulus (GPa) = 21.93329 22.62998 22.28164
#
# Velocity S-wave (km/s) = 3.47975 3.53459 3.50728
# Velocity P-wave (km/s) = 8.04976 8.09616 8.07300
#
# Compressibility (1/GPa) = 0.01134689
#
# Stress axis : x y z
#
# Youngs Moduli (GPa) = 54.39998 54.39998 85.20132
#
# Poissons Ratio (x) = 0.53563 0.37196
# Poissons Ratio (y) = 0.53563 0.37196
# Poissons Ratio (z) = 0.23749 0.23749
#
# Static dielectric constant tensor:
#      x y z
#    x 3.294410 0.000000 0.000000 
#    y 0.000000 3.294410 0.000000 
#    z 0.000000 0.000000 3.515720 
# 
# 
# High freq. dielectric constant tensor:
#      x y z
#    x 1.696510 0.000000 0.000000 
#    y 0.000000 1.696510 0.000000 
#    z 0.000000 0.000000 1.712630 
# 
# From -- ./inp_files/1939.got.cif
#   From: 2010.03.12/outbox.cif.g09.slc.cpg/sg105_1_cif.got.tgz:1939.got - 2010.04.14 01:45:32.
