data_PCOD8307736
_publ_section_title
;
Structure prediction by ZEFSAII (Michael W. Deem and Ramdas Pophale) SiO2 
 PCOD8307736
Probable space group: I 4 C M
;
_chemical_formula_sum "Si O2"
_cell_formula_units_Z 112
_cell_length_a 14.054085
_cell_length_b 14.054085
_cell_length_c 29.739021
_cell_angle_alpha 90.000000
_cell_angle_beta 90.000000
_cell_angle_gamma 90.000000
_cell_volume 5873.971287
_symmetry_space_group_name_H-M "I 4 C M"
_symmetry_group_IT_number 108
_symmetry_cell_setting 'tetragonal'
loop_
_space_group_symop_operation_xyz
x,y,z
-y,x,z
-x,-y,z
y,-x,z
-x,y,1/2+z
x,-y,1/2+z
-y,-x,1/2+z
y,x,1/2+z
1/2+x,1/2+y,1/2+z
1/2-y,1/2+x,1/2+z
1/2-x,1/2-y,1/2+z
1/2+y,1/2-x,1/2+z
1/2-x,1/2+y,z
1/2+x,1/2-y,z
1/2-y,1/2-x,z
1/2+y,1/2+x,z
loop_
_atom_site_type_symbol
_atom_site_label
_atom_site_fract_x
_atom_site_fract_y
_atom_site_fract_z
Si Si1 0.419964 0.080037 0.107221
Si Si2 0.711162 0.055196 0.062991
Si Si3 0.079874 0.579874 0.206969
Si Si4 0.977982 0.155089 0.908884
Si Si5 0.565369 0.222610 0.224984
Si Si6 0.956562 0.853154 0.305274
Si Si7 0.052619 0.853412 0.638550
Si Si8 0.342129 0.998007 0.966230
O O1 0.456307 0.174081 0.083161
O O2 0.391161 0.108840 0.156911
O O3 0.500000 0.000000 0.103809
O O4 0.642319 0.142319 0.074059
O O5 0.808888 0.075858 0.089288
O O6 0.717125 0.037387 0.009696
O O7 0.174276 0.538966 0.230215
O O8 0.000000 0.500000 0.205459
O O9 0.959375 0.178967 0.856873
O O10 0.079666 0.106115 0.921119
O O11 0.971851 0.258736 0.931925
O O12 0.644435 0.144435 0.217700
O O13 0.580976 0.271777 0.272660
O O14 0.574513 0.287217 0.181032
O O15 0.062619 0.884491 0.293907
O O16 0.943054 0.879851 0.642129
O O17 0.410188 0.910188 0.949430
O O18 0.410550 0.089451 0.975790
#
# Coordination Sequence:
#
# PCOD8307736 Si02
#       8
#     8  16   8  16  16  16  16  16
#     4   9  14  30  58  76 101 142 178 220 269 325
#     4  10  19  37  59  82 109 145 191 231 276 337
#     4   9  18  32  54  78 109 144 174 222 279 319
#     4   9  20  40  64  85 112 156 201 241 293 356
#     4  11  21  37  57  84 113 144 186 231 279 338
#     4   9  19  40  62  80 110 150 187 230 288 342
#     4  11  24  40  54  76 116 157 189 231 283 330
#     4  10  21  37  60  90 122 155 190 239 306 364
#
# _framework density 19.067170000000001
#
# number of rings (size 3 to 8) (size 9 to 14) (size 15 to 20)
#    0.000    2.143    2.143    2.143    0.000    3.429 
#   10.286    4.286    0.000    0.000    0.000    0.000 
#    0.000    0.000    0.000    0.000    0.000    0.000 
#
# Total GULP energy -693800.023217 kJ/mol
# GULP energy per Si atom -12389.286129 kJ/mol
# Density = 1.902377 g / cm^3
# Si number density = 19.067170 Si / 1000 Ang^3
#
#
#
# Elastic Constant Matrix: (Units=GPa)
#
#
# Indices 1 2 3 4 5 6 
#
# 1 81.4587 26.1999 38.3038 0.0000 0.0000 -0.0001
# 2 26.1999 81.4587 38.3038 0.0000 0.0000 0.0001
# 3 38.3038 38.3038 84.2481 0.0000 0.0000 0.0000
# 4 0.0000 0.0000 0.0000 29.3517 0.0000 0.0000
# 5 0.0000 0.0000 0.0000 0.0000 29.3517 0.0000
# 6 -0.0001 0.0001 0.0000 0.0000 0.0000 7.3911
#
#
#
# Elastic Compliance Matrix: (Units=1/GPa)
#
#
# Indices 1 2 3 4 5 6 
#
# 1 0.015914 -0.002183 -0.006243 0.000000 0.000000 0.000000
# 2 -0.002183 0.015914 -0.006243 0.000000 0.000000 0.000000
# 3 -0.006243 -0.006243 0.017546 0.000000 0.000000 0.000000
# 4 0.000000 0.000000 0.000000 0.034070 0.000000 0.000000
# 5 0.000000 0.000000 0.000000 0.000000 0.034070 0.000000
# 6 0.000000 0.000000 0.000000 0.000000 0.000000 0.135298
#
#
# Mechanical properties :
#
#
# Convention : Reuss Voigt Hill
#
# Bulk Modulus (GPa) = 49.90801 50.30895 50.10848
# Shear Modulus (GPa) = 17.31141 22.84276 20.07708
#
# Velocity S-wave (km/s) = 3.01644 3.46499 3.24846
# Velocity P-wave (km/s) = 6.19383 6.51541 6.35665
#
# Compressibility (1/GPa) = 0.02003686
#
# Stress axis : x y z
#
# Youngs Moduli (GPa) = 62.83871 62.83871 56.99198
#
# Poissons Ratio (x) = 0.13717 0.35579
# Poissons Ratio (y) = 0.13717 0.35579
# Poissons Ratio (z) = 0.39229 0.39229
#
# Static dielectric constant tensor:
#      x y z
#    x 3.575220 0.000000 0.000000 
#    y 0.000000 3.575220 0.000000 
#    z 0.000000 0.000000 3.426950 
# 
# 
# High freq. dielectric constant tensor:
#      x y z
#    x 1.737660 0.000000 0.000000 
#    y 0.000000 1.737660 0.000000 
#    z 0.000000 0.000000 1.738510 
# 
# From -- ./inp_files/3423.got.cif
#   From: 2010.03.12/outbox.cif.g09.slc.cpg/sg108_2_cif.got.tgz:3423.got - 2010.04.14 01:53:11.
