data_PCOD8307549
_publ_section_title
;
Structure prediction by ZEFSAII (Michael W. Deem and Ramdas Pophale) SiO2 
 PCOD8307549
Probable space group: I 4 M M
;
_chemical_formula_sum "Si O2"
_cell_formula_units_Z 96
_cell_length_a 13.770614
_cell_length_b 13.770614
_cell_length_c 30.964574
_cell_angle_alpha 90.000000
_cell_angle_beta 90.000000
_cell_angle_gamma 90.000000
_cell_volume 5871.806282
_symmetry_space_group_name_H-M "I 4 M M"
_symmetry_group_IT_number 107
_symmetry_cell_setting 'tetragonal'
loop_
_space_group_symop_operation_xyz
x,y,z
-y,x,z
-x,-y,z
y,-x,z
-x,y,z
x,-y,z
-y,-x,z
y,x,z
1/2+x,1/2+y,1/2+z
1/2-y,1/2+x,1/2+z
1/2-x,1/2-y,1/2+z
1/2+y,1/2-x,1/2+z
1/2-x,1/2+y,1/2+z
1/2+x,1/2-y,1/2+z
1/2-y,1/2-x,1/2+z
1/2+y,1/2+x,1/2+z
loop_
_atom_site_type_symbol
_atom_site_label
_atom_site_fract_x
_atom_site_fract_y
_atom_site_fract_z
Si Si1 0.729671 0.113950 0.633630
Si Si2 0.615040 0.891510 0.884963
Si Si3 0.386050 0.229670 0.802931
Si Si4 0.385204 0.228433 0.968281
Si Si5 0.615040 0.108490 0.051599
Si Si6 0.611402 0.888596 0.718280
O O1 0.832799 0.167202 0.631745
O O2 0.662545 0.151475 0.594547
O O3 0.676299 0.141678 0.677825
O O4 0.750809 0.000000 0.629884
O O5 0.500000 0.899327 0.884479
O O6 0.651474 0.837455 0.842014
O O7 0.649188 0.832306 0.926780
O O8 0.659989 0.000000 0.886303
O O9 0.500000 0.250808 0.806676
O O10 0.332796 0.332796 0.804815
O O11 0.358320 0.176294 0.758737
O O12 0.500000 0.249012 0.968280
O O13 0.332309 0.332309 0.968281
O O14 0.350815 0.167694 0.009781
O O15 0.500000 0.100671 0.052085
O O16 0.659989 0.000000 0.050258
O O17 0.500000 0.871326 0.705088
O O18 0.628655 0.000000 0.731472
#
# Coordination Sequence:
#
# PCOD8307549 Si02
#       6
#    16  16  16  16  16  16
#     4  10  19  30  45  66  93 122 150 181 219 269
#     4   9  17  30  47  65  86 114 149 190 230 260
#     4  10  19  30  45  66  93 122 150 181 219 269
#     4  10  19  30  45  67  96 126 153 181 216 265
#     4   9  17  30  47  65  86 114 149 190 230 260
#     4   9  17  30  48  68  89 115 150 194 236 263
#
# _framework density 16.349312999999999
#
# number of rings (size 3 to 8) (size 9 to 14) (size 15 to 20)
#    0.000    2.500    0.000    3.000    0.000    6.500 
#    0.000    0.000    0.000    6.000    0.000    0.000 
#    0.000   48.667    0.000    0.000    0.000    0.000 
#
# Total GULP energy -595220.517910 kJ/mol
# GULP energy per Si atom -12400.427456 kJ/mol
# Density = 1.631210 g / cm^3
# Si number density = 16.349313 Si / 1000 Ang^3
#
#
#
# Elastic Constant Matrix: (Units=GPa)
#
#
# Indices 1 2 3 4 5 6 
#
# 1 78.5032 51.6227 53.7130 0.0000 0.0000 -0.0003
# 2 51.6227 78.5032 53.7130 0.0000 0.0000 0.0003
# 3 53.7130 53.7130 143.4355 0.0000 0.0000 0.0000
# 4 0.0000 0.0000 0.0000 15.6026 0.0000 0.0000
# 5 0.0000 0.0000 0.0000 0.0000 15.6026 0.0000
# 6 -0.0003 0.0003 0.0000 0.0000 0.0000 21.4219
#
#
#
# Elastic Compliance Matrix: (Units=1/GPa)
#
#
# Indices 1 2 3 4 5 6 
#
# 1 0.024163 -0.013039 -0.004166 0.000000 0.000000 0.000000
# 2 -0.013039 0.024163 -0.004166 0.000000 0.000000 0.000000
# 3 -0.004166 -0.004166 0.010092 0.000000 0.000000 0.000000
# 4 0.000000 0.000000 0.000000 0.064092 0.000000 0.000000
# 5 0.000000 0.000000 0.000000 0.000000 0.064092 0.000000
# 6 0.000000 0.000000 0.000000 0.000000 0.000000 0.046681
#
#
# Mechanical properties :
#
#
# Convention : Reuss Voigt Hill
#
# Bulk Modulus (GPa) = 63.78842 68.72660 66.25751
# Shear Modulus (GPa) = 17.77790 19.95163 18.86477
#
# Velocity S-wave (km/s) = 3.30112 3.49712 3.40053
# Velocity P-wave (km/s) = 7.32329 7.64422 7.48547
#
# Compressibility (1/GPa) = 0.01567683
#
# Stress axis : x y z
#
# Youngs Moduli (GPa) = 41.38601 41.38601 99.09249
#
# Poissons Ratio (x) = 0.53963 0.41278
# Poissons Ratio (y) = 0.53963 0.41278
# Poissons Ratio (z) = 0.17240 0.17240
#
# Static dielectric constant tensor:
#      x y z
#    x 2.906180 0.000000 0.000000 
#    y 0.000000 2.906180 0.000000 
#    z 0.000000 0.000000 3.326650 
# 
# 
# High freq. dielectric constant tensor:
#      x y z
#    x 1.607510 0.000000 0.000000 
#    y 0.000000 1.607510 0.000000 
#    z 0.000000 0.000000 1.651430 
# 
# From -- ./inp_files/6097.got.cif
#   From: 2010.03.12/outbox.cif.g09.slc.cpg/sg107_4_cif.got.tgz:6097.got - 2010.04.14 01:49:11.
