data_PCOD8307221
_publ_section_title
;
Structure prediction by ZEFSAII (Michael W. Deem and Ramdas Pophale) SiO2 
 PCOD8307221
Probable space group: P 42 M C
;
_chemical_formula_sum "Si O2"
_cell_formula_units_Z 48
_cell_length_a 9.139876
_cell_length_b 9.139876
_cell_length_c 30.478864
_cell_angle_alpha 90.000000
_cell_angle_beta 90.000000
_cell_angle_gamma 90.000000
_cell_volume 2546.123020
_symmetry_space_group_name_H-M "P 42 M C"
_symmetry_group_IT_number 105
_symmetry_cell_setting 'tetragonal'
loop_
_space_group_symop_operation_xyz
x,y,z
-y,x,1/2+z
-x,-y,z
y,-x,1/2+z
-x,y,z
x,-y,z
-y,-x,1/2+z
y,x,1/2+z
loop_
_atom_site_type_symbol
_atom_site_label
_atom_site_fract_x
_atom_site_fract_y
_atom_site_fract_z
Si Si1 0.172768 0.666799 0.234830
Si Si2 0.669522 0.834079 0.160409
Si Si3 0.169611 0.332201 0.559330
Si Si4 0.828916 0.670799 0.406203
Si Si5 0.825924 0.165001 0.319717
Si Si6 0.831244 0.327681 0.984817
O O1 0.220664 0.500000 0.241700
O O2 0.237915 0.724435 0.189631
O O3 0.235834 0.758255 0.275947
O O4 0.000000 0.682877 0.231864
O O5 0.500000 0.814665 0.171704
O O6 0.699476 0.794774 0.109943
O O7 0.719387 0.000000 0.170091
O O8 0.207219 0.500000 0.547453
O O9 0.268977 0.223296 0.531501
O O10 0.000000 0.301511 0.549076
O O11 0.795734 0.500000 0.401964
O O12 0.769581 0.748063 0.362224
O O13 0.743501 0.734958 0.447081
O O14 0.000000 0.701399 0.413302
O O15 0.000000 0.167418 0.318758
O O16 0.765082 0.000000 0.321648
O O17 0.808878 0.500000 0.983557
O O18 0.000000 0.283751 0.978244
#
# Coordination Sequence:
#
# PCOD8307221 Si02
#       6
#     8   8   8   8   8   8
#     4  10  20  33  51  78 111 143 176 216 261 311
#     4   9  19  36  56  78 105 137 175 219 264 311
#     4   9  19  37  59  80 102 133 176 221 263 311
#     4  10  20  35  57  82 106 135 174 218 263 314
#     4   9  17  31  53  79 106 138 176 218 264 312
#     4  11  24  38  52  76 110 142 173 213 261 312
#
# _framework density 18.852191000000001
#
# number of rings (size 3 to 8) (size 9 to 14) (size 15 to 20)
#    0.000    2.333    0.000    3.500    0.000    9.333 
#    0.000    5.833    0.000    5.000    0.000    0.000 
#    0.000    0.000    0.000    0.000    0.000    0.000 
#
# Total GULP energy -595333.346122 kJ/mol
# GULP energy per Si atom -12402.778044 kJ/mol
# Density = 1.880928 g / cm^3
# Si number density = 18.852191 Si / 1000 Ang^3
#
#
#
# Elastic Constant Matrix: (Units=GPa)
#
#
# Indices 1 2 3 4 5 6 
#
# 1 86.9818 55.8126 59.1343 0.0000 0.0000 0.0000
# 2 55.8126 86.9818 59.1343 0.0000 0.0000 0.0000
# 3 59.1343 59.1343 124.3010 0.0000 0.0000 0.0000
# 4 0.0000 0.0000 0.0000 13.1967 0.0000 0.0000
# 5 0.0000 0.0000 0.0000 0.0000 13.1967 0.0000
# 6 0.0000 0.0000 0.0000 0.0000 0.0000 27.8627
#
#
#
# Elastic Compliance Matrix: (Units=1/GPa)
#
#
# Indices 1 2 3 4 5 6 
#
# 1 0.021820 -0.010263 -0.005498 0.000000 0.000000 0.000000
# 2 -0.010263 0.021820 -0.005498 0.000000 0.000000 0.000000
# 3 -0.005498 -0.005498 0.013276 0.000000 0.000000 0.000000
# 4 0.000000 0.000000 0.000000 0.075776 0.000000 0.000000
# 5 0.000000 0.000000 0.000000 0.000000 0.075776 0.000000
# 6 0.000000 0.000000 0.000000 0.000000 0.000000 0.035890
#
#
# Mechanical properties :
#
#
# Convention : Reuss Voigt Hill
#
# Bulk Modulus (GPa) = 69.45509 71.82525 70.64017
# Shear Modulus (GPa) = 17.14230 19.13012 18.13621
#
# Velocity S-wave (km/s) = 3.01873 3.18896 3.10501
# Velocity P-wave (km/s) = 7.00516 7.19313 7.09977
#
# Compressibility (1/GPa) = 0.01439779
#
# Stress axis : x y z
#
# Youngs Moduli (GPa) = 45.82982 45.82982 75.32337
#
# Poissons Ratio (x) = 0.47036 0.41412
# Poissons Ratio (y) = 0.47036 0.41412
# Poissons Ratio (z) = 0.25197 0.25197
#
# Static dielectric constant tensor:
#      x y z
#    x 3.374310 0.000000 0.000000 
#    y 0.000000 3.374310 0.000000 
#    z 0.000000 0.000000 3.553570 
# 
# 
# High freq. dielectric constant tensor:
#      x y z
#    x 1.723520 0.000000 0.000000 
#    y 0.000000 1.723520 0.000000 
#    z 0.000000 0.000000 1.747160 
# 
# From -- ./inp_files/4663.got.cif
#   From: 2010.03.12/outbox.cif.g09.slc.cpg/sg105_3_cif.got.tgz:4663.got - 2010.04.14 01:45:32.
