data_PCOD8307625
_publ_section_title
;
Structure prediction by ZEFSAII (Michael W. Deem and Ramdas Pophale) SiO2 
 PCOD8307625
Probable space group: I 4 M M
;
_chemical_formula_sum "Si O2"
_cell_formula_units_Z 96
_cell_length_a 14.953159
_cell_length_b 14.953159
_cell_length_c 24.369717
_cell_angle_alpha 90.000000
_cell_angle_beta 90.000000
_cell_angle_gamma 90.000000
_cell_volume 5448.994737
_symmetry_space_group_name_H-M "I 4 M M"
_symmetry_group_IT_number 107
_symmetry_cell_setting 'tetragonal'
loop_
_space_group_symop_operation_xyz
x,y,z
-y,x,z
-x,-y,z
y,-x,z
-x,y,z
x,-y,z
-y,-x,z
y,x,z
1/2+x,1/2+y,1/2+z
1/2-y,1/2+x,1/2+z
1/2-x,1/2-y,1/2+z
1/2+y,1/2-x,1/2+z
1/2-x,1/2+y,1/2+z
1/2+x,1/2-y,1/2+z
1/2-y,1/2-x,1/2+z
1/2+y,1/2+x,1/2+z
loop_
_atom_site_type_symbol
_atom_site_label
_atom_site_fract_x
_atom_site_fract_y
_atom_site_fract_z
Si Si1 0.741942 0.599983 0.592210
Si Si2 0.599982 0.741942 0.930561
Si Si3 0.500000 0.899008 0.197375
Si Si4 0.170978 0.311008 0.323766
Si Si5 0.670979 0.188992 0.699005
Si Si6 0.000000 0.399008 0.825397
Si Si7 0.101522 0.601522 0.511386
O O1 0.710961 0.500000 0.578516
O O2 0.665473 0.665473 0.569737
O O3 0.754500 0.609129 0.657761
O O4 0.834785 0.624402 0.562394
O O5 0.500000 0.710962 0.944256
O O6 0.665472 0.665472 0.953033
O O7 0.609127 0.754500 0.865011
O O8 0.624403 0.834784 0.960377
O O9 0.585588 0.838777 0.181050
O O10 0.500000 0.915701 0.261386
O O11 0.500000 0.000000 0.169970
O O12 0.273704 0.273704 0.329079
O O13 0.136275 0.296711 0.261386
O O14 0.161222 0.414412 0.341722
O O15 0.773706 0.226295 0.693693
O O16 0.000000 0.500000 0.852801
O O17 0.116013 0.500000 0.490541
O O18 0.000000 0.616016 0.532230
#
# Coordination Sequence:
#
# PCOD8307625 Si02
#       7
#    16  16   8  16  16   8  16
#     4  10  20  33  50  71  98 131 164 199 239 288
#     4  10  20  33  50  71  98 131 164 199 239 288
#     4   9  16  26  44  69  93 121 161 202 235 277
#     4   9  18  31  47  71 102 131 159 197 246 294
#     4   9  18  31  47  71 102 131 159 197 246 294
#     4   9  16  26  44  69  93 121 161 202 235 277
#     4   9  19  34  52  74  97 121 154 200 252 297
#
# _framework density 17.617927999999999
#
# number of rings (size 3 to 8) (size 9 to 14) (size 15 to 20)
#    0.000    2.667    0.000    1.500    2.333    2.333 
#    0.000    0.000    0.000    0.500    0.000    8.167 
#    0.000    0.000    0.000    0.000    0.000    0.000 
#
# Total GULP energy -594749.377114 kJ/mol
# GULP energy per Si atom -12390.612023 kJ/mol
# Density = 1.757783 g / cm^3
# Si number density = 17.617928 Si / 1000 Ang^3
#
#
#
# Elastic Constant Matrix: (Units=GPa)
#
#
# Indices 1 2 3 4 5 6 
#
# 1 117.1585 85.6512 35.5370 0.0000 0.0000 0.0001
# 2 85.6512 117.1585 35.5370 0.0000 0.0000 -0.0001
# 3 35.5370 35.5370 70.0322 0.0000 0.0000 0.0000
# 4 0.0000 0.0000 0.0000 19.6512 0.0000 0.0000
# 5 0.0000 0.0000 0.0000 0.0000 19.6512 0.0000
# 6 0.0001 -0.0001 0.0000 0.0000 0.0000 31.2925
#
#
#
# Elastic Compliance Matrix: (Units=1/GPa)
#
#
# Indices 1 2 3 4 5 6 
#
# 1 0.018868 -0.012871 -0.003043 0.000000 0.000000 0.000000
# 2 -0.012871 0.018868 -0.003043 0.000000 0.000000 0.000000
# 3 -0.003043 -0.003043 0.017368 0.000000 0.000000 0.000000
# 4 0.000000 0.000000 0.000000 0.050887 0.000000 0.000000
# 5 0.000000 0.000000 0.000000 0.000000 0.050887 0.000000
# 6 0.000000 0.000000 0.000000 0.000000 0.000000 0.031957
#
#
# Mechanical properties :
#
#
# Convention : Reuss Voigt Hill
#
# Bulk Modulus (GPa) = 58.17604 68.64438 63.41021
# Shear Modulus (GPa) = 21.50733 23.96060 22.73396
#
# Velocity S-wave (km/s) = 3.49773 3.69184 3.59609
# Velocity P-wave (km/s) = 7.02886 7.56441 7.30154
#
# Compressibility (1/GPa) = 0.01718921
#
# Stress axis : x y z
#
# Youngs Moduli (GPa) = 52.99996 52.99996 57.57841
#
# Poissons Ratio (x) = 0.68215 0.17522
# Poissons Ratio (y) = 0.68215 0.17522
# Poissons Ratio (z) = 0.16129 0.16129
#
# Static dielectric constant tensor:
#      x y z
#    x 3.348820 0.000000 0.000000 
#    y 0.000000 3.348820 0.000000 
#    z 0.000000 0.000000 3.210990 
# 
# 
# High freq. dielectric constant tensor:
#      x y z
#    x 1.668920 0.000000 0.000000 
#    y 0.000000 1.668920 0.000000 
#    z 0.000000 0.000000 1.678210 
# 
# From -- ./inp_files/5256.got.cif
#   From: 2010.03.12/outbox.cif.g09.slc.cpg/sg107_3_cif.got.tgz:5256.got - 2010.04.14 01:49:11.
