data_PCOD8307568
_publ_section_title
;
Structure prediction by ZEFSAII (Michael W. Deem and Ramdas Pophale) SiO2 
 PCOD8307568
Probable space group: I 4 M M
;
_chemical_formula_sum "Si O2"
_cell_formula_units_Z 112
_cell_length_a 15.539851
_cell_length_b 15.539851
_cell_length_c 24.149909
_cell_angle_alpha 90.000000
_cell_angle_beta 90.000000
_cell_angle_gamma 90.000000
_cell_volume 5831.888329
_symmetry_space_group_name_H-M "I 4 M M"
_symmetry_group_IT_number 107
_symmetry_cell_setting 'tetragonal'
loop_
_space_group_symop_operation_xyz
x,y,z
-y,x,z
-x,-y,z
y,-x,z
-x,y,z
x,-y,z
-y,-x,z
y,x,z
1/2+x,1/2+y,1/2+z
1/2-y,1/2+x,1/2+z
1/2-x,1/2-y,1/2+z
1/2+y,1/2-x,1/2+z
1/2-x,1/2+y,1/2+z
1/2+x,1/2-y,1/2+z
1/2-y,1/2-x,1/2+z
1/2+y,1/2+x,1/2+z
loop_
_atom_site_type_symbol
_atom_site_label
_atom_site_fract_x
_atom_site_fract_y
_atom_site_fract_z
Si Si1 0.903115 0.355486 0.847940
Si Si2 0.095257 0.231923 0.527326
Si Si3 0.738666 0.597664 0.655539
Si Si4 0.906274 0.664042 0.048665
Si Si5 0.906166 0.769169 0.398240
Si Si6 0.595822 0.099771 0.226712
Si Si7 0.270516 0.592217 0.441548
O O1 0.823932 0.412920 0.869211
O O2 0.892891 0.343185 0.782110
O O3 0.892972 0.264556 0.879454
O O4 0.000000 0.393641 0.860705
O O5 0.164556 0.164556 0.552147
O O6 0.101580 0.324892 0.557444
O O7 0.113218 0.244827 0.462605
O O8 0.000000 0.194988 0.538445
O O9 0.712664 0.500000 0.672836
O O10 0.662066 0.662066 0.673374
O O11 0.754178 0.603092 0.589656
O O12 0.829267 0.625304 0.683903
O O13 0.000000 0.619081 0.060882
O O14 0.904684 0.693323 0.985215
O O15 0.832693 0.832693 0.372986
O O16 0.000000 0.812936 0.390122
O O17 0.500000 0.116818 0.201072
O O18 0.604040 0.000000 0.244098
O O19 0.317411 0.500000 0.444280
O O20 0.336052 0.663949 0.459336
#
# Coordination Sequence:
#
# PCOD8307568 Si02
#       7
#    16  16  16  16  16  16  16
#     4  10  19  32  53  78 101 131 171 218 268 316
#     4  10  20  33  50  73 104 141 179 220 265 315
#     4  10  21  36  56  81 110 145 181 219 265 320
#     4  10  20  35  54  78 108 140 176 223 273 319
#     4  10  20  32  48  71 101 138 175 213 258 311
#     4   9  19  36  55  75 102 134 172 222 274 319
#     4  10  19  31  49  73 103 138 172 211 260 314
#
# _framework density 19.204757000000001
#
# number of rings (size 3 to 8) (size 9 to 14) (size 15 to 20)
#    0.000    2.143    1.429    2.143    0.000    3.429 
#    0.000    4.286    0.000    2.571    0.000    2.000 
#    0.000    0.286    0.000    0.286    0.000    0.143 
#
# Total GULP energy -693797.227344 kJ/mol
# GULP energy per Si atom -12389.236203 kJ/mol
# Density = 1.916105 g / cm^3
# Si number density = 19.204757 Si / 1000 Ang^3
#
#
#
# Elastic Constant Matrix: (Units=GPa)
#
#
# Indices 1 2 3 4 5 6 
#
# 1 110.6841 69.2778 26.5274 0.0000 0.0000 0.0007
# 2 69.2778 110.6841 26.5274 0.0000 0.0000 -0.0007
# 3 26.5274 26.5274 55.0444 0.0000 0.0000 0.0000
# 4 0.0000 0.0000 0.0000 20.1000 0.0000 0.0000
# 5 0.0000 0.0000 0.0000 0.0000 20.1000 0.0000
# 6 0.0007 -0.0007 0.0000 0.0000 0.0000 19.4707
#
#
#
# Elastic Compliance Matrix: (Units=1/GPa)
#
#
# Indices 1 2 3 4 5 6 
#
# 1 0.015314 -0.008837 -0.003121 0.000000 0.000000 -0.000001
# 2 -0.008837 0.015314 -0.003121 0.000000 0.000000 0.000001
# 3 -0.003121 -0.003121 0.021176 0.000000 0.000000 0.000000
# 4 0.000000 0.000000 0.000000 0.049751 0.000000 0.000000
# 5 0.000000 0.000000 0.000000 0.000000 0.049751 0.000000
# 6 -0.000001 0.000001 0.000000 0.000000 0.000000 0.051359
#
#
# Mechanical properties :
#
#
# Convention : Reuss Voigt Hill
#
# Bulk Modulus (GPa) = 46.20223 57.89754 52.04989
# Shear Modulus (GPa) = 20.82989 22.20614 21.51801
#
# Velocity S-wave (km/s) = 3.29693 3.40411 3.35095
# Velocity P-wave (km/s) = 6.21313 6.75748 6.49101
#
# Compressibility (1/GPa) = 0.02164398
#
# Stress axis : x y z
#
# Youngs Moduli (GPa) = 65.30004 65.30004 47.22378
#
# Poissons Ratio (x) = 0.57705 0.14741
# Poissons Ratio (y) = 0.57705 0.14741
# Poissons Ratio (z) = 0.20383 0.20383
#
# Static dielectric constant tensor:
#      x y z
#    x 3.493280 0.000000 0.000000 
#    y 0.000000 3.493280 0.000000 
#    z 0.000000 0.000000 3.329740 
# 
# 
# High freq. dielectric constant tensor:
#      x y z
#    x 1.736470 0.000000 0.000000 
#    y 0.000000 1.736470 0.000000 
#    z 0.000000 0.000000 1.725950 
# 
# From -- ./inp_files/5335.got.cif
#   From: 2010.03.12/outbox.cif.g09.slc.cpg/sg107_3_cif.got.tgz:5335.got - 2010.04.14 01:49:11.
