data_PCOD8307932
_publ_section_title
;
Structure prediction by ZEFSAII (Michael W. Deem and Ramdas Pophale) SiO2 
 PCOD8307932
Probable space group: I 41 M D
;
_chemical_formula_sum "Si O2"
_cell_formula_units_Z 52
_cell_length_a 10.504887
_cell_length_b 10.504887
_cell_length_c 22.902469
_cell_angle_alpha 90.000000
_cell_angle_beta 90.000000
_cell_angle_gamma 90.000000
_cell_volume 2527.348166
_symmetry_space_group_name_H-M "I 41 M D"
_symmetry_group_IT_number 109
_symmetry_cell_setting 'tetragonal'
loop_
_space_group_symop_operation_xyz
x,y,z
-y,1/2+x,1/4+z
-x,-y,z
y,1/2-x,1/4+z
-x,y,z
x,-y,z
-y,1/2-x,1/4+z
y,1/2+x,1/4+z
1/2+x,1/2+y,1/2+z
1/2-y,x,3/4+z
1/2-x,1/2-y,1/2+z
1/2+y,-x,3/4+z
1/2-x,1/2+y,1/2+z
1/2+x,1/2-y,1/2+z
1/2-y,-x,3/4+z
1/2+y,x,3/4+z
loop_
_atom_site_type_symbol
_atom_site_label
_atom_site_fract_x
_atom_site_fract_y
_atom_site_fract_z
Si Si1 0.500000 0.000000 0.849370
Si Si2 0.295416 0.000000 0.749525
Si Si3 0.250930 0.267396 0.050779
Si Si4 0.142062 0.500000 0.739814
Si Si5 0.854580 0.500000 0.118531
Si Si6 0.500000 0.733294 0.865184
O O1 0.380252 0.000000 0.807186
O O2 0.500000 0.877433 0.891181
O O3 0.218507 0.867972 0.755829
O O4 0.367679 0.000000 0.688362
O O5 0.374842 0.291094 0.012914
O O6 0.224909 0.374523 0.099972
O O7 0.278687 0.127347 0.076614
O O8 0.138075 0.500000 0.669243
O O9 0.000000 0.500000 0.763600
O O10 0.000000 0.500000 0.093765
#
# Coordination Sequence:
#
# PCOD8307932 Si02
#       6
#     4   8  16   8   8   8
#     4   8  18  38  64 100 124 148 216 274 302 376
#     4  10  20  40  67  97 124 165 215 267 313 369
#     4  11  24  44  66  99 129 167 220 266 319 391
#     4  12  26  44  62  94 134 173 210 264 329 400
#     4  12  22  41  69  97 131 176 209 265 326 378
#     4  10  24  43  69  91 132 169 216 269 325 370
#
# _framework density 20.574925
#
# number of rings (size 3 to 8) (size 9 to 14) (size 15 to 20)
#    0.000    1.231    3.846    1.846    2.154    1.231 
#    0.000    1.538    0.000    0.000    0.000    0.000 
#    0.000    0.000    0.000    0.000    0.000    0.000 
#
# Total GULP energy -322151.345541 kJ/mol
# GULP energy per Si atom -12390.436367 kJ/mol
# Density = 2.052810 g / cm^3
# Si number density = 20.574925 Si / 1000 Ang^3
#
#
#
# Elastic Constant Matrix: (Units=GPa)
#
#
# Indices 1 2 3 4 5 6 
#
# 1 155.1860 44.0478 42.4070 0.0000 0.0000 0.0000
# 2 44.0478 155.1860 42.4070 0.0000 0.0000 0.0000
# 3 42.4070 42.4070 81.7763 0.0000 0.0000 0.0000
# 4 0.0000 0.0000 0.0000 14.6913 0.0000 0.0000
# 5 0.0000 0.0000 0.0000 0.0000 14.6913 0.0000
# 6 0.0000 0.0000 0.0000 0.0000 0.0000 30.1249
#
#
#
# Elastic Compliance Matrix: (Units=1/GPa)
#
#
# Indices 1 2 3 4 5 6 
#
# 1 0.007719 -0.001278 -0.003340 0.000000 0.000000 0.000000
# 2 -0.001278 0.007719 -0.003340 0.000000 0.000000 0.000000
# 3 -0.003340 -0.003340 0.015693 0.000000 0.000000 0.000000
# 4 0.000000 0.000000 0.000000 0.068068 0.000000 0.000000
# 5 0.000000 0.000000 0.000000 0.000000 0.068068 0.000000
# 6 0.000000 0.000000 0.000000 0.000000 0.000000 0.033195
#
#
# Mechanical properties :
#
#
# Convention : Reuss Voigt Hill
#
# Bulk Modulus (GPa) = 65.72789 72.20798 68.96794
# Shear Modulus (GPa) = 22.57836 29.45393 26.01615
#
# Velocity S-wave (km/s) = 3.31626 3.78768 3.55978
# Velocity P-wave (km/s) = 6.83216 7.36886 7.10558
#
# Compressibility (1/GPa) = 0.01521424
#
# Stress axis : x y z
#
# Youngs Moduli (GPa) = 129.54242 129.54242 63.72365
#
# Poissons Ratio (x) = 0.16560 0.21285
# Poissons Ratio (y) = 0.16560 0.21285
# Poissons Ratio (z) = 0.43270 0.43270
#
# Static dielectric constant tensor:
#      x y z
#    x 4.037800 0.000000 0.000000 
#    y 0.000000 4.037800 0.000000 
#    z 0.000000 0.000000 3.348120 
# 
# 
# High freq. dielectric constant tensor:
#      x y z
#    x 1.817500 0.000000 0.000000 
#    y 0.000000 1.817500 0.000000 
#    z 0.000000 0.000000 1.784040 
# 
# From -- ./inp_files/3579.got.cif
#   From: 2010.03.12/outbox.cif.g09.slc.cpg/sg109_2_cif.got.tgz:3579.got - 2010.04.14 01:55:16.
