data_PCOD8307371
_publ_section_title
;
Structure prediction by ZEFSAII (Michael W. Deem and Ramdas Pophale) SiO2 
 PCOD8307371
Probable space group: P 42 M C
;
_chemical_formula_sum "Si O2"
_cell_formula_units_Z 34
_cell_length_a 11.844900
_cell_length_b 11.844900
_cell_length_c 11.879057
_cell_angle_alpha 90.000000
_cell_angle_beta 90.000000
_cell_angle_gamma 90.000000
_cell_volume 1666.651369
_symmetry_space_group_name_H-M "P 42 M C"
_symmetry_group_IT_number 105
_symmetry_cell_setting 'tetragonal'
loop_
_space_group_symop_operation_xyz
x,y,z
-y,x,1/2+z
-x,-y,z
y,-x,1/2+z
-x,y,z
x,-y,z
-y,-x,1/2+z
y,x,1/2+z
loop_
_atom_site_type_symbol
_atom_site_label
_atom_site_fract_x
_atom_site_fract_y
_atom_site_fract_z
Si Si1 0.500000 0.500000 0.486310
Si Si2 0.132476 0.709661 0.984704
Si Si3 0.258007 0.500000 0.871292
Si Si4 0.500000 0.740294 0.101815
Si Si5 0.620904 0.131364 0.718072
Si Si6 0.133495 0.317596 0.459214
O O1 0.500000 0.388463 0.408734
O O2 0.390216 0.500000 0.565907
O O3 0.159462 0.705309 0.118167
O O4 0.185520 0.832042 0.959181
O O5 0.000000 0.706584 0.956839
O O6 0.193295 0.610162 0.916914
O O7 0.252211 0.500000 0.736311
O O8 0.389096 0.803842 0.055112
O O9 0.500000 0.174343 0.673769
O O10 0.619776 0.000000 0.743217
O O11 0.644118 0.185819 0.839078
O O12 0.000000 0.331462 0.474115
#
# Coordination Sequence:
#
# PCOD8307371 Si02
#       6
#     2   8   4   4   8   8
#     4  12  26  48  68  98 128 170 220 264 322 400
#     4  11  24  42  66  95 130 174 219 266 319 384
#     4  12  26  44  68 100 135 168 210 271 342 393
#     4  12  26  44  68 100 135 168 210 271 342 393
#     4   9  18  38  65  87 114 165 224 256 296 376
#     4  11  24  42  66  95 130 174 219 266 319 384
#
# _framework density 20.400185
#
# number of rings (size 3 to 8) (size 9 to 14) (size 15 to 20)
#    0.000    1.176    4.706    1.059    3.294    2.353 
#    4.235    0.000    0.000    4.235    0.000    0.000 
#    0.000    0.000    0.000    0.000    0.000    0.000 
#
# Total GULP energy -421247.467767 kJ/mol
# GULP energy per Si atom -12389.631405 kJ/mol
# Density = 2.035375 g / cm^3
# Si number density = 20.400185 Si / 1000 Ang^3
#
#
#
# Elastic Constant Matrix: (Units=GPa)
#
#
# Indices 1 2 3 4 5 6 
#
# 1 117.9442 43.8837 40.6874 0.0000 0.0000 0.0000
# 2 43.8837 117.9442 40.6874 0.0000 0.0000 0.0000
# 3 40.6874 40.6874 144.9316 0.0000 0.0000 0.0000
# 4 0.0000 0.0000 0.0000 19.1036 0.0000 0.0000
# 5 0.0000 0.0000 0.0000 0.0000 19.1036 0.0000
# 6 0.0000 0.0000 0.0000 0.0000 0.0000 36.1865
#
#
#
# Elastic Compliance Matrix: (Units=1/GPa)
#
#
# Indices 1 2 3 4 5 6 
#
# 1 0.010349 -0.003154 -0.002020 0.000000 0.000000 0.000000
# 2 -0.003154 0.010349 -0.002020 0.000000 0.000000 0.000000
# 3 -0.002020 -0.002020 0.008034 0.000000 0.000000 0.000000
# 4 0.000000 0.000000 0.000000 0.052346 0.000000 0.000000
# 5 0.000000 0.000000 0.000000 0.000000 0.052346 0.000000
# 6 0.000000 0.000000 0.000000 0.000000 0.000000 0.027635
#
#
# Mechanical properties :
#
#
# Convention : Reuss Voigt Hill
#
# Bulk Modulus (GPa) = 69.71325 70.14857 69.93091
# Shear Modulus (GPa) = 27.74279 31.91616 29.82948
#
# Velocity S-wave (km/s) = 3.69172 3.95967 3.82804
# Velocity P-wave (km/s) = 7.24008 7.44085 7.34115
#
# Compressibility (1/GPa) = 0.01434448
#
# Stress axis : x y z
#
# Youngs Moduli (GPa) = 96.62955 96.62955 124.47203
#
# Poissons Ratio (x) = 0.30474 0.25142
# Poissons Ratio (y) = 0.30474 0.25142
# Poissons Ratio (z) = 0.19518 0.19518
#
# Static dielectric constant tensor:
#      x y z
#    x 3.736750 0.000000 0.000000 
#    y 0.000000 3.736750 0.000000 
#    z 0.000000 0.000000 3.939120 
# 
# 
# High freq. dielectric constant tensor:
#      x y z
#    x 1.795430 0.000000 0.000000 
#    y 0.000000 1.795430 0.000000 
#    z 0.000000 0.000000 1.811160 
# 
# From -- ./inp_files/1640.got.cif
#   From: 2010.03.12/outbox.cif.g09.slc.cpg/sg105_1_cif.got.tgz:1640.got - 2010.04.14 01:45:32.
