data_PCOD8307634
_publ_section_title
;
Structure prediction by ZEFSAII (Michael W. Deem and Ramdas Pophale) SiO2 
 PCOD8307634
Probable space group: I 4 M M
;
_chemical_formula_sum "Si O2"
_cell_formula_units_Z 72
_cell_length_a 12.223065
_cell_length_b 12.223065
_cell_length_c 27.906844
_cell_angle_alpha 90.000000
_cell_angle_beta 90.000000
_cell_angle_gamma 90.000000
_cell_volume 4169.375088
_symmetry_space_group_name_H-M "I 4 M M"
_symmetry_group_IT_number 107
_symmetry_cell_setting 'tetragonal'
loop_
_space_group_symop_operation_xyz
x,y,z
-y,x,z
-x,-y,z
y,-x,z
-x,y,z
x,-y,z
-y,-x,z
y,x,z
1/2+x,1/2+y,1/2+z
1/2-y,1/2+x,1/2+z
1/2-x,1/2-y,1/2+z
1/2+y,1/2-x,1/2+z
1/2-x,1/2+y,1/2+z
1/2+x,1/2-y,1/2+z
1/2-y,1/2-x,1/2+z
1/2+y,1/2+x,1/2+z
loop_
_atom_site_type_symbol
_atom_site_label
_atom_site_fract_x
_atom_site_fract_y
_atom_site_fract_z
Si Si1 0.625262 0.202144 0.350010
Si Si2 0.376714 0.800905 0.243093
Si Si3 0.812733 0.000000 0.092142
Si Si4 0.793580 0.619353 0.945965
Si Si5 0.500000 0.126409 0.672831
Si Si6 0.500000 0.873812 0.511516
O O1 0.500000 0.215975 0.363132
O O2 0.677192 0.322809 0.352656
O O3 0.644545 0.152472 0.296868
O O4 0.680110 0.124334 0.389362
O O5 0.500000 0.755864 0.239908
O O6 0.298860 0.701141 0.229683
O O7 0.355780 0.895138 0.205407
O O8 0.891353 0.108648 0.092213
O O9 0.727097 0.000000 0.136005
O O10 0.726876 0.000000 0.048481
O O11 0.746555 0.500000 0.956632
O O12 0.702810 0.702810 0.962896
O O13 0.897630 0.644371 0.977771
O O14 0.500000 0.000000 0.651606
O O15 0.500000 0.000000 0.533127
#
# Coordination Sequence:
#
# PCOD8307634 Si02
#       6
#    16  16   8  16   8   8
#     4   9  17  29  46  71 102 137 174 214 259 307
#     4   9  18  31  49  73 101 134 173 216 261 307
#     4  11  23  38  58  80 107 141 174 218 270 321
#     4  10  20  33  51  74 102 136 173 213 258 306
#     4  10  20  35  54  79 103 137 177 218 261 307
#     4  10  20  37  58  81 103 133 171 220 267 309
#
# _framework density 17.268774000000001
#
# number of rings (size 3 to 8) (size 9 to 14) (size 15 to 20)
#    0.000    2.333    1.111    1.667    1.556    0.667 
#    0.000    2.222    0.000    0.000    0.000    0.000 
#    0.000   16.000    0.000    0.000    0.000    0.000 
#
# Total GULP energy -446020.547817 kJ/mol
# GULP energy per Si atom -12389.459662 kJ/mol
# Density = 1.722947 g / cm^3
# Si number density = 17.268774 Si / 1000 Ang^3
#
#
#
# Elastic Constant Matrix: (Units=GPa)
#
#
# Indices 1 2 3 4 5 6 
#
# 1 75.2668 126.5265 54.9030 0.0000 0.0000 -0.0371
# 2 126.5265 75.2668 54.9030 0.0000 0.0000 0.0371
# 3 54.9030 54.9030 87.2090 0.0000 0.0000 0.0000
# 4 0.0000 0.0000 0.0000 24.4356 0.0000 0.0000
# 5 0.0000 0.0000 0.0000 0.0000 24.4356 0.0000
# 6 -0.0371 0.0371 0.0000 0.0000 0.0000 26.2040
#
#
#
# Elastic Compliance Matrix: (Units=1/GPa)
#
#
# Indices 1 2 3 4 5 6 
#
# 1 -0.005985 0.013523 -0.004745 0.000000 0.000000 -0.000028
# 2 0.013523 -0.005985 -0.004745 0.000000 0.000000 0.000028
# 3 -0.004745 -0.004745 0.017442 0.000000 0.000000 0.000000
# 4 0.000000 0.000000 0.000000 0.040924 0.000000 0.000000
# 5 0.000000 0.000000 0.000000 0.000000 0.040924 0.000000
# 6 -0.000028 0.000028 0.000000 0.000000 0.000000 0.038162
#
#
# Mechanical properties :
#
#
# Convention : Reuss Voigt Hill
#
# Bulk Modulus (GPa) = 73.87973 78.93420 76.40696
# Shear Modulus (GPa) = 41.00759 15.10903 28.05831
#
# Velocity S-wave (km/s) = 4.87834 2.96114 4.03525
# Velocity P-wave (km/s) = 8.63748 7.58285 8.12729
#
# Compressibility (1/GPa) = 0.01353551
#
# Stress axis : x y z
#
# Youngs Moduli (GPa) = -167.07563 -167.07565 57.33344
#
# Poissons Ratio (x) = 2.25939 0.27208
# Poissons Ratio (y) = 2.25939 0.27208
# Poissons Ratio (z) = -0.79286 -0.79286
#
# Static dielectric constant tensor:
#      x y z
#    x 3.310620 0.000000 0.000000 
#    y 0.000000 3.310620 0.000000 
#    z 0.000000 0.000000 3.302500 
# 
# 
# High freq. dielectric constant tensor:
#      x y z
#    x 1.668610 0.000000 0.000000 
#    y 0.000000 1.668610 0.000000 
#    z 0.000000 0.000000 1.665000 
# 
# From -- ./inp_files/5588.got.cif
#   From: 2010.03.12/outbox.cif.g09.slc.cpg/sg107_3_cif.got.tgz:5588.got - 2010.04.14 01:49:11.
