data_PCOD8307267
_publ_section_title
;
Structure prediction by ZEFSAII (Michael W. Deem and Ramdas Pophale) SiO2 
 PCOD8307267
Probable space group: P 42 M C
;
_chemical_formula_sum "Si O2"
_cell_formula_units_Z 32
_cell_length_a 8.336065
_cell_length_b 8.336065
_cell_length_c 23.599487
_cell_angle_alpha 90.000000
_cell_angle_beta 90.000000
_cell_angle_gamma 90.000000
_cell_volume 1639.927872
_symmetry_space_group_name_H-M "P 42 M C"
_symmetry_group_IT_number 105
_symmetry_cell_setting 'tetragonal'
loop_
_space_group_symop_operation_xyz
x,y,z
-y,x,1/2+z
-x,-y,z
y,-x,1/2+z
-x,y,z
x,-y,z
-y,-x,1/2+z
y,x,1/2+z
loop_
_atom_site_type_symbol
_atom_site_label
_atom_site_fract_x
_atom_site_fract_y
_atom_site_fract_z
Si Si1 0.812066 0.000000 0.619360
Si Si2 0.179235 0.685389 0.415508
Si Si3 0.807987 0.000000 0.746828
Si Si4 0.186979 0.321974 0.807949
Si Si5 0.322532 0.178093 0.522506
O O1 0.741685 0.000000 0.682658
O O2 0.754795 0.160495 0.585523
O O3 0.000000 0.000000 0.622875
O O4 0.191873 0.500000 0.400443
O O5 0.300614 0.780273 0.374885
O O6 0.220647 0.708706 0.481603
O O7 0.000000 0.750590 0.404909
O O8 0.739377 0.165380 0.775411
O O9 0.000000 0.000000 0.750451
O O10 0.255985 0.500000 0.789756
O O11 0.000000 0.324968 0.795964
O O12 0.500000 0.251252 0.528999
O O13 0.328127 0.000000 0.494791
#
# Coordination Sequence:
#
# PCOD8307267 Si02
#       5
#     4   8   4   8   8
#     4   9  17  33  57  79 103 143 183 228 279 324
#     4  11  22  34  51  80 114 146 182 230 288 343
#     4   9  18  35  57  83 113 145 191 242 283 338
#     4  10  20  35  57  83 110 147 189 234 291 350
#     4   9  19  34  53  78 103 139 182 221 268 330
#
# _framework density 19.513055000000001
#
# number of rings (size 3 to 8) (size 9 to 14) (size 15 to 20)
#    0.750    1.500    1.250    2.250    0.000    5.000 
#    0.000    3.750    0.000    4.500    0.000    0.000 
#    0.000    0.000    0.000    0.000    0.000    0.000 
#
# Total GULP energy -396429.653198 kJ/mol
# GULP energy per Si atom -12388.426662 kJ/mol
# Density = 1.946864 g / cm^3
# Si number density = 19.513055 Si / 1000 Ang^3
#
#
#
# Elastic Constant Matrix: (Units=GPa)
#
#
# Indices 1 2 3 4 5 6 
#
# 1 86.0913 23.3442 34.9589 0.0000 0.0000 0.0000
# 2 23.3442 86.0913 34.9589 0.0000 0.0000 0.0000
# 3 34.9589 34.9589 127.8154 0.0000 0.0000 0.0000
# 4 0.0000 0.0000 0.0000 12.1289 0.0000 0.0000
# 5 0.0000 0.0000 0.0000 0.0000 12.1289 0.0000
# 6 0.0000 0.0000 0.0000 0.0000 0.0000 14.1688
#
#
#
# Elastic Compliance Matrix: (Units=1/GPa)
#
#
# Indices 1 2 3 4 5 6 
#
# 1 0.013505 -0.002432 -0.003029 0.000000 0.000000 0.000000
# 2 -0.002432 0.013505 -0.003029 0.000000 0.000000 0.000000
# 3 -0.003029 -0.003029 0.009480 0.000000 0.000000 0.000000
# 4 0.000000 0.000000 0.000000 0.082447 0.000000 0.000000
# 5 0.000000 0.000000 0.000000 0.000000 0.082447 0.000000
# 6 0.000000 0.000000 0.000000 0.000000 0.000000 0.070578
#
#
# Mechanical properties :
#
#
# Convention : Reuss Voigt Hill
#
# Bulk Modulus (GPa) = 51.25099 54.05802 52.65450
# Shear Modulus (GPa) = 16.92363 21.46774 19.19568
#
# Velocity S-wave (km/s) = 2.94819 3.32048 3.13986
# Velocity P-wave (km/s) = 6.15720 6.51648 6.33938
#
# Compressibility (1/GPa) = 0.01951182
#
# Stress axis : x y z
#
# Youngs Moduli (GPa) = 74.04753 74.04753 105.48029
#
# Poissons Ratio (x) = 0.18009 0.31945
# Poissons Ratio (y) = 0.18009 0.31945
# Poissons Ratio (z) = 0.22425 0.22425
#
# Static dielectric constant tensor:
#      x y z
#    x 3.479740 0.000000 0.000000 
#    y 0.000000 3.479740 0.000000 
#    z 0.000000 0.000000 3.548130 
# 
# 
# High freq. dielectric constant tensor:
#      x y z
#    x 1.744860 0.000000 0.000000 
#    y 0.000000 1.744860 0.000000 
#    z 0.000000 0.000000 1.746140 
# 
# From -- ./inp_files/3861.got.cif
#   From: 2010.03.12/outbox.cif.g09.slc.cpg/sg105_2_cif.got.tgz:3861.got - 2010.04.14 01:45:32.
