data_PCOD8307588
_publ_section_title
;
Structure prediction by ZEFSAII (Michael W. Deem and Ramdas Pophale) SiO2 
 PCOD8307588
Probable space group: I 4 M M
;
_chemical_formula_sum "Si O2"
_cell_formula_units_Z 72
_cell_length_a 13.431448
_cell_length_b 13.431448
_cell_length_c 24.103501
_cell_angle_alpha 90.000000
_cell_angle_beta 90.000000
_cell_angle_gamma 90.000000
_cell_volume 4348.363062
_symmetry_space_group_name_H-M "I 4 M M"
_symmetry_group_IT_number 107
_symmetry_cell_setting 'tetragonal'
loop_
_space_group_symop_operation_xyz
x,y,z
-y,x,z
-x,-y,z
y,-x,z
-x,y,z
x,-y,z
-y,-x,z
y,x,z
1/2+x,1/2+y,1/2+z
1/2-y,1/2+x,1/2+z
1/2-x,1/2-y,1/2+z
1/2+y,1/2-x,1/2+z
1/2-x,1/2+y,1/2+z
1/2+x,1/2-y,1/2+z
1/2-y,1/2-x,1/2+z
1/2+y,1/2+x,1/2+z
loop_
_atom_site_type_symbol
_atom_site_label
_atom_site_fract_x
_atom_site_fract_y
_atom_site_fract_z
Si Si1 0.384017 0.885592 0.029560
Si Si2 0.271125 0.883638 0.234224
Si Si3 0.742920 0.257081 0.832451
Si Si4 0.615018 0.615018 0.380769
Si Si5 0.885399 0.279343 0.643268
Si Si6 0.738549 0.738549 0.454658
O O1 0.500000 0.875501 0.015495
O O2 0.360575 0.850844 0.091739
O O3 0.348793 0.000000 0.022898
O O4 0.327007 0.813090 0.987809
O O5 0.170398 0.829603 0.211483
O O6 0.285975 0.853269 0.299152
O O7 0.363655 0.843613 0.198380
O O8 0.258885 0.000000 0.227985
O O9 0.828208 0.171793 0.830983
O O10 0.716571 0.283430 0.896515
O O11 0.500000 0.639348 0.375692
O O12 0.655309 0.655309 0.440059
O O13 0.820834 0.179167 0.640414
O O14 0.000000 0.246138 0.643512
#
# Coordination Sequence:
#
# PCOD8307588 Si02
#       6
#    16  16   8   8  16   8
#     4  10  20  34  56  83 110 143 181 226 276 319
#     4   9  19  37  56  77 105 137 175 223 270 319
#     4   8  21  33  50  80 105 137 181 219 261 324
#     4   9  18  34  52  71 102 141 179 224 271 312
#     4  10  20  36  56  82 110 141 178 221 272 324
#     4  10  19  35  53  78 108 146 184 223 263 320
#
# _framework density 16.557953999999999
#
# number of rings (size 3 to 8) (size 9 to 14) (size 15 to 20)
#    1.333    1.222    1.111    1.333    0.000    3.556 
#    0.000    0.000    0.000    0.333    0.000    0.000 
#    0.000    0.000    0.000    0.000    0.000    0.000 
#
# Total GULP energy -446085.172696 kJ/mol
# GULP energy per Si atom -12391.254797 kJ/mol
# Density = 1.652027 g / cm^3
# Si number density = 16.557954 Si / 1000 Ang^3
#
#
#
# Elastic Constant Matrix: (Units=GPa)
#
#
# Indices 1 2 3 4 5 6 
#
# 1 81.4089 59.2065 42.9679 0.0000 0.0000 -0.0002
# 2 59.2065 81.4089 42.9679 0.0000 0.0000 0.0002
# 3 42.9679 42.9679 111.4031 0.0000 0.0000 0.0000
# 4 0.0000 0.0000 0.0000 26.1289 0.0000 0.0000
# 5 0.0000 0.0000 0.0000 0.0000 26.1289 0.0000
# 6 -0.0002 0.0002 0.0000 0.0000 0.0000 20.9905
#
#
#
# Elastic Compliance Matrix: (Units=1/GPa)
#
#
# Indices 1 2 3 4 5 6 
#
# 1 0.027173 -0.017868 -0.003589 0.000000 0.000000 0.000000
# 2 -0.017868 0.027173 -0.003589 0.000000 0.000000 0.000000
# 3 -0.003589 -0.003589 0.011745 0.000000 0.000000 0.000000
# 4 0.000000 0.000000 0.000000 0.038272 0.000000 0.000000
# 5 0.000000 0.000000 0.000000 0.000000 0.038272 0.000000
# 6 0.000000 0.000000 0.000000 0.000000 0.000000 0.047641
#
#
# Mechanical properties :
#
#
# Convention : Reuss Voigt Hill
#
# Bulk Modulus (GPa) = 62.50330 62.72281 62.61306
# Shear Modulus (GPa) = 20.35016 23.25489 21.80253
#
# Velocity S-wave (km/s) = 3.50955 3.75167 3.63263
# Velocity P-wave (km/s) = 7.36565 7.53191 7.44924
#
# Compressibility (1/GPa) = 0.01599916
#
# Stress axis : x y z
#
# Youngs Moduli (GPa) = 36.80180 36.80180 85.14367
#
# Poissons Ratio (x) = 0.65756 0.30557
# Poissons Ratio (y) = 0.65756 0.30557
# Poissons Ratio (z) = 0.13208 0.13208
#
# Static dielectric constant tensor:
#      x y z
#    x 2.979560 0.000000 0.000000 
#    y 0.000000 2.979560 0.000000 
#    z 0.000000 0.000000 3.115720 
# 
# 
# High freq. dielectric constant tensor:
#      x y z
#    x 1.631970 0.000000 0.000000 
#    y 0.000000 1.631970 0.000000 
#    z 0.000000 0.000000 1.638120 
# 
# From -- ./inp_files/5590.got.cif
#   From: 2010.03.12/outbox.cif.g09.slc.cpg/sg107_3_cif.got.tgz:5590.got - 2010.04.14 01:49:11.
