data_PCOD8307669
_publ_section_title
;
Structure prediction by ZEFSAII (Michael W. Deem and Ramdas Pophale) SiO2 
 PCOD8307669
Probable space group: I 4 M M
;
_chemical_formula_sum "Si O2"
_cell_formula_units_Z 96
_cell_length_a 23.496628
_cell_length_b 23.496628
_cell_length_c 9.540903
_cell_angle_alpha 90.000000
_cell_angle_beta 90.000000
_cell_angle_gamma 90.000000
_cell_volume 5267.451710
_symmetry_space_group_name_H-M "I 4 M M"
_symmetry_group_IT_number 107
_symmetry_cell_setting 'tetragonal'
loop_
_space_group_symop_operation_xyz
x,y,z
-y,x,z
-x,-y,z
y,-x,z
-x,y,z
x,-y,z
-y,-x,z
y,x,z
1/2+x,1/2+y,1/2+z
1/2-y,1/2+x,1/2+z
1/2-x,1/2-y,1/2+z
1/2+y,1/2-x,1/2+z
1/2-x,1/2+y,1/2+z
1/2+x,1/2-y,1/2+z
1/2-y,1/2-x,1/2+z
1/2+y,1/2+x,1/2+z
loop_
_atom_site_type_symbol
_atom_site_label
_atom_site_fract_x
_atom_site_fract_y
_atom_site_fract_z
Si Si1 0.266250 0.066081 0.856070
Si Si2 0.066037 0.731907 0.184683
Si Si3 0.435068 0.657002 0.180781
Si Si4 0.380861 0.119212 0.295148
Si Si5 0.565361 0.936012 0.046063
Si Si6 0.934921 0.157656 0.358859
O O1 0.207934 0.083873 0.781730
O O2 0.313972 0.105634 0.784243
O O3 0.280780 0.000000 0.827324
O O4 0.260849 0.078341 0.020775
O O5 0.106306 0.683139 0.247947
O O6 0.083232 0.789902 0.261576
O O7 0.000000 0.716390 0.213114
O O8 0.500000 0.639377 0.209562
O O9 0.397627 0.602374 0.218298
O O10 0.426453 0.676301 0.020034
O O11 0.391364 0.101249 0.455500
O O12 0.425882 0.082348 0.206082
O O13 0.500000 0.933095 0.004456
O O14 0.589299 0.000000 0.025036
O O15 0.896245 0.103756 0.319683
O O16 0.000000 0.139716 0.329681
#
# Coordination Sequence:
#
# PCOD8307669 Si02
#       6
#    16  16  16  16  16  16
#     4  10  21  37  55  78 110 149 191 232 275 326
#     4  10  21  37  55  78 110 149 191 232 275 326
#     4   9  19  36  60  89 117 144 176 218 271 332
#     4  12  22  35  53  76 108 148 190 232 280 331
#     4  11  22  34  50  74 105 140 184 240 293 336
#     4   9  19  36  60  89 117 144 176 218 271 332
#
# _framework density 18.225131999999999
#
# number of rings (size 3 to 8) (size 9 to 14) (size 15 to 20)
#    0.000    1.833    1.667    3.000    2.333    2.333 
#    0.000    2.500    0.000    0.000    0.000    4.667 
#    0.000    0.000    0.000    0.000    0.000    0.000 
#
# Total GULP energy -595348.000909 kJ/mol
# GULP energy per Si atom -12403.083352 kJ/mol
# Density = 1.818365 g / cm^3
# Si number density = 18.225132 Si / 1000 Ang^3
#
#
#
# Elastic Constant Matrix: (Units=GPa)
#
#
# Indices 1 2 3 4 5 6 
#
# 1 117.6124 78.0912 53.6995 0.0000 0.0000 -0.0008
# 2 78.0912 117.6124 53.6995 0.0000 0.0000 0.0008
# 3 53.6995 53.6995 77.8714 0.0000 0.0000 0.0000
# 4 0.0000 0.0000 0.0000 30.4521 0.0000 0.0000
# 5 0.0000 0.0000 0.0000 0.0000 30.4521 0.0000
# 6 -0.0008 0.0008 0.0000 0.0000 0.0000 32.9440
#
#
#
# Elastic Compliance Matrix: (Units=1/GPa)
#
#
# Indices 1 2 3 4 5 6 
#
# 1 0.016762 -0.008541 -0.005669 0.000000 0.000000 0.000001
# 2 -0.008541 0.016762 -0.005669 0.000000 0.000000 -0.000001
# 3 -0.005669 -0.005669 0.020660 0.000000 0.000000 0.000000
# 4 0.000000 0.000000 0.000000 0.032838 0.000000 0.000000
# 5 0.000000 0.000000 0.000000 0.000000 0.032838 0.000000
# 6 0.000001 -0.000001 0.000000 0.000000 0.000000 0.030355
#
#
# Mechanical properties :
#
#
# Convention : Reuss Voigt Hill
#
# Bulk Modulus (GPa) = 69.31983 76.00851 72.66417
# Shear Modulus (GPa) = 25.66969 27.27671 26.47320
#
# Velocity S-wave (km/s) = 3.75704 3.87286 3.81539
# Velocity P-wave (km/s) = 7.54575 7.86095 7.70496
#
# Compressibility (1/GPa) = 0.01442589
#
# Stress axis : x y z
#
# Youngs Moduli (GPa) = 59.65923 59.65923 48.40198
#
# Poissons Ratio (x) = 0.50955 0.27439
# Poissons Ratio (y) = 0.50955 0.27439
# Poissons Ratio (z) = 0.33821 0.33821
#
# Static dielectric constant tensor:
#      x y z
#    x 3.246960 0.000000 0.000000 
#    y 0.000000 3.246960 0.000000 
#    z 0.000000 0.000000 3.433170 
# 
# 
# High freq. dielectric constant tensor:
#      x y z
#    x 1.694640 0.000000 0.000000 
#    y 0.000000 1.694640 0.000000 
#    z 0.000000 0.000000 1.716830 
# 
# From -- ./inp_files/1502.got.cif
#   From: 2010.03.12/outbox.cif.g09.slc.cpg/sg107_1_cif.got.tgz:1502.got - 2010.04.14 01:49:11.
