data_PCOD8307822
_publ_section_title
;
Structure prediction by ZEFSAII (Michael W. Deem and Ramdas Pophale) SiO2 
 PCOD8307822
Probable space group: I 4 C M
;
_chemical_formula_sum "Si O2"
_cell_formula_units_Z 80
_cell_length_a 11.681198
_cell_length_b 11.681198
_cell_length_c 28.880615
_cell_angle_alpha 90.000000
_cell_angle_beta 90.000000
_cell_angle_gamma 90.000000
_cell_volume 3940.771085
_symmetry_space_group_name_H-M "I 4 C M"
_symmetry_group_IT_number 108
_symmetry_cell_setting 'tetragonal'
loop_
_space_group_symop_operation_xyz
x,y,z
-y,x,z
-x,-y,z
y,-x,z
-x,y,1/2+z
x,-y,1/2+z
-y,-x,1/2+z
y,x,1/2+z
1/2+x,1/2+y,1/2+z
1/2-y,1/2+x,1/2+z
1/2-x,1/2-y,1/2+z
1/2+y,1/2-x,1/2+z
1/2-x,1/2+y,z
1/2+x,1/2-y,z
1/2-y,1/2-x,z
1/2+y,1/2+x,z
loop_
_atom_site_type_symbol
_atom_site_label
_atom_site_fract_x
_atom_site_fract_y
_atom_site_fract_z
Si Si1 0.095534 0.404467 0.761791
Si Si2 0.595534 0.095534 0.657038
Si Si3 0.183408 0.025307 0.317406
Si Si4 0.474692 0.683408 0.601421
Si Si5 0.504966 0.186585 0.011064
Si Si6 0.004966 0.686585 0.907763
O O1 0.128423 0.371578 0.709414
O O2 0.043738 0.294688 0.786815
O O3 0.000000 0.500000 0.763374
O O4 0.543738 0.205312 0.632012
O O5 0.500000 0.000000 0.655454
O O6 0.213335 0.023342 0.371811
O O7 0.096562 0.127361 0.305456
O O8 0.372638 0.596562 0.613371
O O9 0.476656 0.713337 0.547017
O O10 0.411353 0.088648 0.015894
O O11 0.629652 0.129652 0.020985
O O12 0.500002 0.239508 0.959413
O O13 0.911353 0.588648 0.902931
O O14 0.129652 0.629652 0.897844
#
# Coordination Sequence:
#
# PCOD8307822 Si02
#       6
#     8   8  16  16  16  16
#     4  11  26  46  72  96 121 167 217 265 327 392
#     4  11  26  46  72  96 121 167 217 265 327 392
#     4  11  25  42  64  97 134 168 210 269 323 380
#     4  11  25  42  64  97 134 168 210 269 323 380
#     4   9  18  34  60  93 130 172 215 259 312 380
#     4   9  18  34  60  93 130 172 215 259 312 380
#
# _framework density 20.300594
#
# number of rings (size 3 to 8) (size 9 to 14) (size 15 to 20)
#    0.000    1.800    2.000    2.400    5.600    3.200 
#    0.000    8.000    0.000    0.000    0.000    0.000 
#    0.000    0.000    0.000    0.000    0.000    0.000 
#
# Total GULP energy -496039.260541 kJ/mol
# GULP energy per Si atom -12400.981514 kJ/mol
# Density = 2.025439 g / cm^3
# Si number density = 20.300594 Si / 1000 Ang^3
#
#
#
# Elastic Constant Matrix: (Units=GPa)
#
#
# Indices 1 2 3 4 5 6 
#
# 1 96.2673 31.1393 50.8661 0.0000 0.0000 0.0000
# 2 31.1393 96.2673 50.8661 0.0000 0.0000 0.0000
# 3 50.8661 50.8661 129.6846 0.0000 0.0000 0.0000
# 4 0.0000 0.0000 0.0000 6.1231 0.0000 0.0000
# 5 0.0000 0.0000 0.0000 0.0000 6.1231 0.0000
# 6 0.0000 0.0000 0.0000 0.0000 0.0000 20.2261
#
#
#
# Elastic Compliance Matrix: (Units=1/GPa)
#
#
# Indices 1 2 3 4 5 6 
#
# 1 0.013391 -0.001963 -0.004482 0.000000 0.000000 0.000000
# 2 -0.001963 0.013391 -0.004482 0.000000 0.000000 0.000000
# 3 -0.004482 -0.004482 0.011227 0.000000 0.000000 0.000000
# 4 0.000000 0.000000 0.000000 0.163316 0.000000 0.000000
# 5 0.000000 0.000000 0.000000 0.000000 0.163316 0.000000
# 6 0.000000 0.000000 0.000000 0.000000 0.000000 0.049441
#
#
# Mechanical properties :
#
#
# Convention : Reuss Voigt Hill
#
# Bulk Modulus (GPa) = 61.90533 65.32913 63.61723
# Shear Modulus (GPa) = 11.32957 19.11763 15.22360
#
# Velocity S-wave (km/s) = 2.36496 3.07209 2.74142
# Velocity P-wave (km/s) = 6.16587 6.69585 6.43631
#
# Compressibility (1/GPa) = 0.01615370
#
# Stress axis : x y z
#
# Youngs Moduli (GPa) = 74.67588 74.67587 89.06883
#
# Poissons Ratio (x) = 0.14660 0.39924
# Poissons Ratio (y) = 0.14660 0.39924
# Poissons Ratio (z) = 0.33473 0.33473
#
# Static dielectric constant tensor:
#      x y z
#    x 3.665680 0.000000 0.000000 
#    y 0.000000 3.665680 0.000000 
#    z 0.000000 0.000000 4.059350 
# 
# 
# High freq. dielectric constant tensor:
#      x y z
#    x 1.791340 0.000000 0.000000 
#    y 0.000000 1.791340 0.000000 
#    z 0.000000 0.000000 1.794920 
# 
# From -- ./inp_files/3440.got.cif
#   From: 2010.03.12/outbox.cif.g09.slc.cpg/sg108_2_cif.got.tgz:3440.got - 2010.04.14 01:53:11.
