data_PCOD8307202
_publ_section_title
;
Structure prediction by ZEFSAII (Michael W. Deem and Ramdas Pophale) SiO2 
 PCOD8307202
Probable space group: P 42 M C
;
_chemical_formula_sum "Si O2"
_cell_formula_units_Z 34
_cell_length_a 7.921215
_cell_length_b 7.921215
_cell_length_c 26.969993
_cell_angle_alpha 90.000000
_cell_angle_beta 90.000000
_cell_angle_gamma 90.000000
_cell_volume 1692.249662
_symmetry_space_group_name_H-M "P 42 M C"
_symmetry_group_IT_number 105
_symmetry_cell_setting 'tetragonal'
loop_
_space_group_symop_operation_xyz
x,y,z
-y,x,1/2+z
-x,-y,z
y,-x,1/2+z
-x,y,z
x,-y,z
-y,-x,1/2+z
y,x,1/2+z
loop_
_atom_site_type_symbol
_atom_site_label
_atom_site_fract_x
_atom_site_fract_y
_atom_site_fract_z
Si Si1 0.688438 0.808018 0.006860
Si Si2 0.692804 0.313562 0.401732
Si Si3 0.500000 0.000000 0.251502
Si Si4 0.694862 0.186727 0.607474
Si Si5 0.311798 0.000000 0.346097
Si Si6 0.500000 0.298054 0.174689
O O1 0.500000 0.751705 0.022861
O O2 0.807040 0.784370 0.054284
O O3 0.694283 0.000000 0.989584
O O4 0.747805 0.702856 0.958945
O O5 0.500000 0.333490 0.385707
O O6 0.780148 0.500000 0.395646
O O7 0.779712 0.171359 0.366101
O O8 0.330898 0.000000 0.286188
O O9 0.500000 0.823440 0.222133
O O10 0.500000 0.216043 0.597032
O O11 0.756867 0.332478 0.644619
O O12 0.730997 0.000000 0.630358
O O13 0.500000 0.000000 0.370664
O O14 0.500000 0.500000 0.188402
#
# Coordination Sequence:
#
# PCOD8307202 Si02
#       6
#     8   8   2   8   4   4
#     4  10  20  32  50  80 119 160 194 230 289 357
#     4   9  17  31  52  75 107 146 182 232 281 339
#     4  10  22  38  64  90 110 148 206 262 304 340
#     4  10  21  36  55  81 114 155 197 240 292 364
#     4   8  18  34  53  84 105 132 193 249 282 333
#     4  10  22  40  62  86 120 156 196 260 308 353
#
# _framework density 20.091598999999999
#
# number of rings (size 3 to 8) (size 9 to 14) (size 15 to 20)
#    0.353    2.118    1.176    0.706    3.294    2.353 
#    0.000    0.000    0.000    2.824    0.000    6.588 
#    0.000    0.000    0.000    0.000    0.000    0.000 
#
# Total GULP energy -421242.314684 kJ/mol
# GULP energy per Si atom -12389.479844 kJ/mol
# Density = 2.004587 g / cm^3
# Si number density = 20.091599 Si / 1000 Ang^3
#
#
#
# Elastic Constant Matrix: (Units=GPa)
#
#
# Indices 1 2 3 4 5 6 
#
# 1 87.7969 29.5392 49.8821 0.0000 0.0000 0.0000
# 2 29.5392 87.7969 49.8821 0.0000 0.0000 0.0000
# 3 49.8821 49.8821 126.8623 0.0000 0.0000 0.0000
# 4 0.0000 0.0000 0.0000 1.6858 0.0000 0.0000
# 5 0.0000 0.0000 0.0000 0.0000 1.6858 0.0000
# 6 0.0000 0.0000 0.0000 0.0000 0.0000 10.0958
#
#
#
# Elastic Compliance Matrix: (Units=1/GPa)
#
#
# Indices 1 2 3 4 5 6 
#
# 1 0.014984 -0.002181 -0.005034 0.000000 0.000000 0.000000
# 2 -0.002181 0.014984 -0.005034 0.000000 0.000000 0.000000
# 3 -0.005034 -0.005034 0.011841 0.000000 0.000000 0.000000
# 4 0.000000 0.000000 0.000000 0.593198 0.000000 0.000000
# 5 0.000000 0.000000 0.000000 0.000000 0.593198 0.000000
# 6 0.000000 0.000000 0.000000 0.000000 0.000000 0.099052
#
#
# Mechanical properties :
#
#
# Convention : Reuss Voigt Hill
#
# Bulk Modulus (GPa) = 57.76805 62.34035 60.05420
# Shear Modulus (GPa) = 3.68317 14.23697 8.96007
#
# Velocity S-wave (km/s) = 1.35542 2.66485 2.11407
# Velocity P-wave (km/s) = 5.59145 6.36899 5.99284
#
# Compressibility (1/GPa) = 0.01731061
#
# Stress axis : x y z
#
# Youngs Moduli (GPa) = 66.73843 66.73843 84.45034
#
# Poissons Ratio (x) = 0.14557 0.42512
# Poissons Ratio (y) = 0.14557 0.42512
# Poissons Ratio (z) = 0.33596 0.33596
#
# Static dielectric constant tensor:
#      x y z
#    x 3.699940 0.000000 0.000000 
#    y 0.000000 3.699940 0.000000 
#    z 0.000000 0.000000 3.312250 
# 
# 
# High freq. dielectric constant tensor:
#      x y z
#    x 1.775160 0.000000 0.000000 
#    y 0.000000 1.775160 0.000000 
#    z 0.000000 0.000000 1.753810 
# 
# From -- ./inp_files/3537.got.cif
#   From: 2010.03.12/outbox.cif.g09.slc.cpg/sg105_2_cif.got.tgz:3537.got - 2010.04.14 01:45:32.
