data_PCOD8307967
_publ_section_title
;
Structure prediction by ZEFSAII (Michael W. Deem and Ramdas Pophale) SiO2 
 PCOD8307967
Probable space group: I 41 M D
;
_chemical_formula_sum "Si O2"
_cell_formula_units_Z 96
_cell_length_a 22.620439
_cell_length_b 22.620439
_cell_length_c 8.689257
_cell_angle_alpha 90.000000
_cell_angle_beta 90.000000
_cell_angle_gamma 90.000000
_cell_volume 4446.156043
_symmetry_space_group_name_H-M "I 41 M D"
_symmetry_group_IT_number 109
_symmetry_cell_setting 'tetragonal'
loop_
_space_group_symop_operation_xyz
x,y,z
-y,1/2+x,1/4+z
-x,-y,z
y,1/2-x,1/4+z
-x,y,z
x,-y,z
-y,1/2-x,1/4+z
y,1/2+x,1/4+z
1/2+x,1/2+y,1/2+z
1/2-y,x,3/4+z
1/2-x,1/2-y,1/2+z
1/2+y,-x,3/4+z
1/2-x,1/2+y,1/2+z
1/2+x,1/2-y,1/2+z
1/2-y,-x,3/4+z
1/2+y,x,3/4+z
loop_
_atom_site_type_symbol
_atom_site_label
_atom_site_fract_x
_atom_site_fract_y
_atom_site_fract_z
Si Si1 0.248334 0.137726 0.293550
Si Si2 0.934025 0.566923 0.162222
Si Si3 0.568626 0.154931 0.206213
Si Si4 0.720551 0.853821 0.967115
Si Si5 0.142385 0.336141 0.003001
Si Si6 0.881334 0.433273 0.476369
O O1 0.206414 0.083253 0.336029
O O2 0.212759 0.196829 0.240703
O O3 0.292563 0.152298 0.433634
O O4 0.278440 0.116371 0.137017
O O5 0.922685 0.500000 0.104018
O O6 0.882839 0.607002 0.089889
O O7 0.932587 0.568598 0.347892
O O8 0.000000 0.587918 0.111929
O O9 0.500000 0.147463 0.235188
O O10 0.598546 0.176474 0.363386
O O11 0.595044 0.094326 0.136728
O O12 0.781024 0.853769 0.870738
O O13 0.671765 0.896673 0.891903
O O14 0.861058 0.500000 0.512025
#
# Coordination Sequence:
#
# PCOD8307967 Si02
#       6
#    16  16  16  16  16  16
#     4  11  25  43  64  96 133 176 221 272 339 406
#     4  10  23  44  70 100 137 183 229 278 343 414
#     4  11  25  43  65  99 133 172 224 279 338 397
#     4  11  26  42  66  98 135 177 224 278 336 408
#     4  12  25  43  70  99 135 179 227 284 340 400
#     4  10  22  44  69  98 135 179 227 274 340 412
#
# _framework density 21.591684999999998
#
# number of rings (size 3 to 8) (size 9 to 14) (size 15 to 20)
#    0.000    1.167    3.333    3.000    7.000    4.333 
#    0.000    0.000    0.000    0.000    0.000    0.000 
#    0.000    0.000    0.000    0.000    0.000    0.000 
#
# Total GULP energy -594879.899744 kJ/mol
# GULP energy per Si atom -12393.331245 kJ/mol
# Density = 2.154254 g / cm^3
# Si number density = 21.591685 Si / 1000 Ang^3
#
#
#
# Elastic Constant Matrix: (Units=GPa)
#
#
# Indices 1 2 3 4 5 6 
#
# 1 129.6769 68.5834 27.9899 0.0000 0.0000 0.0000
# 2 68.5834 129.6769 27.9899 0.0000 0.0000 0.0000
# 3 27.9899 27.9899 77.5322 0.0000 0.0000 0.0000
# 4 0.0000 0.0000 0.0000 28.7990 0.0000 0.0000
# 5 0.0000 0.0000 0.0000 0.0000 28.7990 0.0000
# 6 0.0000 0.0000 0.0000 0.0000 0.0000 20.7109
#
#
#
# Elastic Compliance Matrix: (Units=1/GPa)
#
#
# Indices 1 2 3 4 5 6 
#
# 1 0.010992 -0.005376 -0.002028 0.000000 0.000000 0.000000
# 2 -0.005376 0.010992 -0.002028 0.000000 0.000000 0.000000
# 3 -0.002028 -0.002028 0.014362 0.000000 0.000000 0.000000
# 4 0.000000 0.000000 0.000000 0.034723 0.000000 0.000000
# 5 0.000000 0.000000 0.000000 0.000000 0.034723 0.000000
# 6 0.000000 0.000000 0.000000 0.000000 0.000000 0.048284
#
#
# Mechanical properties :
#
#
# Convention : Reuss Voigt Hill
#
# Bulk Modulus (GPa) = 57.19420 65.11248 61.15334
# Shear Modulus (GPa) = 27.96930 29.81665 28.89297
#
# Velocity S-wave (km/s) = 3.60303 3.72012 3.66205
# Velocity P-wave (km/s) = 6.62236 6.97669 6.80183
#
# Compressibility (1/GPa) = 0.01748429
#
# Stress axis : x y z
#
# Youngs Moduli (GPa) = 90.97230 90.97230 69.62914
#
# Poissons Ratio (x) = 0.48907 0.14118
# Poissons Ratio (y) = 0.48907 0.14118
# Poissons Ratio (z) = 0.18445 0.18445
#
# Static dielectric constant tensor:
#      x y z
#    x 3.955510 0.000000 0.000000 
#    y 0.000000 3.955510 0.000000 
#    z 0.000000 0.000000 4.106020 
# 
# 
# High freq. dielectric constant tensor:
#      x y z
#    x 1.847850 0.000000 0.000000 
#    y 0.000000 1.847850 0.000000 
#    z 0.000000 0.000000 1.857930 
# 
# From -- ./inp_files/1402.got.cif
#   From: 2010.03.12/outbox.cif.g09.slc.cpg/sg109_1_cif.got.tgz:1402.got - 2010.04.14 01:55:16.
