data_PCOD8307476
_publ_section_title
;
Structure prediction by ZEFSAII (Michael W. Deem and Ramdas Pophale) SiO2 
 PCOD8307476
Probable space group: I 4 M M
;
_chemical_formula_sum "Si O2"
_cell_formula_units_Z 128
_cell_length_a 17.960435
_cell_length_b 17.960435
_cell_length_c 26.946722
_cell_angle_alpha 90.000000
_cell_angle_beta 90.000000
_cell_angle_gamma 90.000000
_cell_volume 8692.398816
_symmetry_space_group_name_H-M "I 4 M M"
_symmetry_group_IT_number 107
_symmetry_cell_setting 'tetragonal'
loop_
_space_group_symop_operation_xyz
x,y,z
-y,x,z
-x,-y,z
y,-x,z
-x,y,z
x,-y,z
-y,-x,z
y,x,z
1/2+x,1/2+y,1/2+z
1/2-y,1/2+x,1/2+z
1/2-x,1/2-y,1/2+z
1/2+y,1/2-x,1/2+z
1/2-x,1/2+y,1/2+z
1/2+x,1/2-y,1/2+z
1/2-y,1/2-x,1/2+z
1/2+y,1/2+x,1/2+z
loop_
_atom_site_type_symbol
_atom_site_label
_atom_site_fract_x
_atom_site_fract_y
_atom_site_fract_z
Si Si1 0.587237 0.294401 0.252930
Si Si2 0.705600 0.587238 0.659528
Si Si3 0.914389 0.723008 0.857187
Si Si4 0.582665 0.086651 0.109375
Si Si5 0.276993 0.085610 0.055272
Si Si6 0.586651 0.082665 0.303083
Si Si7 0.354258 0.145743 0.206229
Si Si8 0.088487 0.204309 0.956229
O O1 0.500000 0.298180 0.238081
O O2 0.626805 0.373196 0.240831
O O3 0.596754 0.279408 0.311524
O O4 0.630446 0.230631 0.222297
O O5 0.701820 0.500000 0.674377
O O6 0.626806 0.626806 0.671628
O O7 0.720592 0.596753 0.600935
O O8 0.769370 0.630446 0.690161
O O9 0.880696 0.641921 0.842713
O O10 0.878313 0.753503 0.907783
O O11 0.000000 0.711943 0.869842
O O12 0.500000 0.098074 0.087811
O O13 0.641920 0.119304 0.069746
O O14 0.589860 0.128778 0.161315
O O15 0.601143 0.000000 0.119700
O O16 0.288058 0.000000 0.042616
O O17 0.246497 0.121687 0.004676
O O18 0.500000 0.101142 0.292759
O O19 0.628778 0.089861 0.251144
O O20 0.598075 0.000000 0.324648
O O21 0.121036 0.121036 0.956229
O O22 0.000000 0.195914 0.956229
#
# Coordination Sequence:
#
# PCOD8307476 Si02
#       8
#    16  16  16  16  16  16  16  16
#     4  10  19  30  43  60  83 110 140 172 206 246
#     4  10  19  30  43  60  83 110 140 172 206 246
#     4   8  16  28  40  56  77 100 128 163 200 237
#     4   9  15  24  40  61  83 106 131 159 194 239
#     4   8  16  28  40  56  77 100 128 163 200 237
#     4   9  15  24  40  61  83 106 131 159 194 239
#     4  10  17  27  42  62  84 107 134 168 207 240
#     4  10  18  29  43  55  71  97 129 167 208 244
#
# _framework density 14.72551
#
# number of rings (size 3 to 8) (size 9 to 14) (size 15 to 20)
#    0.000    2.750    0.000    4.875    0.000    1.375 
#    0.000    0.625    0.000    8.250    0.000    0.000 
#    0.000    0.000    0.000    0.000    0.000    0.000 
#
# Total GULP energy -793095.798590 kJ/mol
# GULP energy per Si atom -12392.121853 kJ/mol
# Density = 1.469199 g / cm^3
# Si number density = 14.725510 Si / 1000 Ang^3
#
#
#
# Elastic Constant Matrix: (Units=GPa)
#
#
# Indices 1 2 3 4 5 6 
#
# 1 72.3838 47.3439 34.4395 0.0000 0.0000 0.0001
# 2 47.3439 72.3838 34.4395 0.0000 0.0000 -0.0001
# 3 34.4395 34.4395 87.6479 0.0000 0.0000 0.0000
# 4 0.0000 0.0000 0.0000 13.7429 0.0000 0.0000
# 5 0.0000 0.0000 0.0000 0.0000 13.7429 0.0000
# 6 0.0001 -0.0001 0.0000 0.0000 0.0000 21.2775
#
#
#
# Elastic Compliance Matrix: (Units=1/GPa)
#
#
# Indices 1 2 3 4 5 6 
#
# 1 0.025364 -0.014572 -0.004240 0.000000 0.000000 0.000000
# 2 -0.014572 0.025364 -0.004240 0.000000 0.000000 0.000000
# 3 -0.004240 -0.004240 0.014742 0.000000 0.000000 0.000000
# 4 0.000000 0.000000 0.000000 0.072765 0.000000 0.000000
# 5 0.000000 0.000000 0.000000 0.000000 0.072765 0.000000
# 6 0.000000 0.000000 0.000000 0.000000 0.000000 0.046998
#
#
# Mechanical properties :
#
#
# Convention : Reuss Voigt Hill
#
# Bulk Modulus (GPa) = 51.64340 51.65127 51.64733
# Shear Modulus (GPa) = 16.10008 17.49886 16.79947
#
# Velocity S-wave (km/s) = 3.31017 3.45096 3.38130
# Velocity P-wave (km/s) = 7.05382 7.14360 7.09886
#
# Compressibility (1/GPa) = 0.01936356
#
# Stress axis : x y z
#
# Youngs Moduli (GPa) = 39.42594 39.42594 67.83496
#
# Poissons Ratio (x) = 0.57452 0.28765
# Poissons Ratio (y) = 0.57452 0.28765
# Poissons Ratio (z) = 0.16718 0.16718
#
# Static dielectric constant tensor:
#      x y z
#    x 2.763040 0.000000 0.000000 
#    y 0.000000 2.763040 0.000000 
#    z 0.000000 0.000000 2.993110 
# 
# 
# High freq. dielectric constant tensor:
#      x y z
#    x 1.547910 0.000000 0.000000 
#    y 0.000000 1.547910 0.000000 
#    z 0.000000 0.000000 1.553040 
# 
# From -- ./inp_files/5490.got.cif
#   From: 2010.03.12/outbox.cif.g09.slc.cpg/sg107_3_cif.got.tgz:5490.got - 2010.04.14 01:49:11.
