data_PCOD8307726
_publ_section_title
;
Structure prediction by ZEFSAII (Michael W. Deem and Ramdas Pophale) SiO2 
 PCOD8307726
Probable space group: I 4 C M
;
_chemical_formula_sum "Si O2"
_cell_formula_units_Z 96
_cell_length_a 15.063471
_cell_length_b 15.063471
_cell_length_c 23.425184
_cell_angle_alpha 90.000000
_cell_angle_beta 90.000000
_cell_angle_gamma 90.000000
_cell_volume 5315.365366
_symmetry_space_group_name_H-M "I 4 C M"
_symmetry_group_IT_number 108
_symmetry_cell_setting 'tetragonal'
loop_
_space_group_symop_operation_xyz
x,y,z
-y,x,z
-x,-y,z
y,-x,z
-x,y,1/2+z
x,-y,1/2+z
-y,-x,1/2+z
y,x,1/2+z
1/2+x,1/2+y,1/2+z
1/2-y,1/2+x,1/2+z
1/2-x,1/2-y,1/2+z
1/2+y,1/2-x,1/2+z
1/2-x,1/2+y,z
1/2+x,1/2-y,z
1/2-y,1/2-x,z
1/2+y,1/2+x,z
loop_
_atom_site_type_symbol
_atom_site_label
_atom_site_fract_x
_atom_site_fract_y
_atom_site_fract_z
Si Si1 0.178833 0.172656 0.762030
Si Si2 0.088112 0.269439 0.666013
Si Si3 0.989196 0.855818 0.946486
Si Si4 0.855818 0.010805 0.577572
Si Si5 0.679582 0.967983 0.762029
Si Si6 0.730560 0.088110 0.858046
O O1 0.252641 0.247360 0.762031
O O2 0.120997 0.186370 0.704700
O O3 0.221916 0.075624 0.762030
O O4 0.120993 0.186370 0.819358
O O5 0.170357 0.329644 0.643063
O O6 0.028082 0.232879 0.614096
O O7 0.026859 0.331779 0.705490
O O8 0.906170 0.919624 0.932266
O O9 0.971919 0.767120 0.909962
O O10 0.000001 0.826961 0.012029
O O11 0.919625 0.093831 0.591792
O O12 0.604263 0.895738 0.762027
O O13 0.668219 0.026857 0.818569
O O14 0.670356 0.170356 0.880995
#
# Coordination Sequence:
#
# PCOD8307726 Si02
#       6
#    16  16  16  16  16  16
#     4   8  16  29  46  70  96 123 156 195 236 281
#     4  10  19  31  48  72 101 127 158 200 241 287
#     4   9  18  34  54  73  95 125 162 203 244 283
#     4   9  18  34  54  73  95 125 162 203 244 283
#     4  10  19  32  50  70  97 133 165 194 238 292
#     4  10  19  31  48  72 101 127 158 200 241 287
#
# _framework density 18.060846999999999
#
# number of rings (size 3 to 8) (size 9 to 14) (size 15 to 20)
#    0.000    2.667    0.000    4.500    0.000    1.333 
#    0.000    5.000    0.000    8.000    0.000    0.000 
#    0.000    0.000    0.000    0.000    0.000    0.000 
#
# Total GULP energy -594920.602763 kJ/mol
# GULP energy per Si atom -12394.179224 kJ/mol
# Density = 1.801974 g / cm^3
# Si number density = 18.060847 Si / 1000 Ang^3
#
#
#
# Elastic Constant Matrix: (Units=GPa)
#
#
# Indices 1 2 3 4 5 6 
#
# 1 67.8444 26.8270 44.2215 0.0000 0.0000 -0.0006
# 2 26.8270 67.8444 44.2215 0.0000 0.0000 0.0006
# 3 44.2215 44.2215 109.9239 0.0000 0.0000 0.0000
# 4 0.0000 0.0000 0.0000 18.4603 0.0000 0.0000
# 5 0.0000 0.0000 0.0000 0.0000 18.4603 0.0000
# 6 -0.0006 0.0006 0.0000 0.0000 0.0000 33.1443
#
#
#
# Elastic Compliance Matrix: (Units=1/GPa)
#
#
# Indices 1 2 3 4 5 6 
#
# 1 0.020651 -0.003728 -0.006808 0.000000 0.000000 0.000000
# 2 -0.003728 0.020651 -0.006808 0.000000 0.000000 0.000000
# 3 -0.006808 -0.006808 0.014575 0.000000 0.000000 0.000000
# 4 0.000000 0.000000 0.000000 0.054170 0.000000 0.000000
# 5 0.000000 0.000000 0.000000 0.000000 0.054170 0.000000
# 6 0.000000 0.000000 0.000000 0.000000 0.000000 0.030171
#
#
# Mechanical properties :
#
#
# Convention : Reuss Voigt Hill
#
# Bulk Modulus (GPa) = 47.19480 52.90588 50.05034
# Shear Modulus (GPa) = 21.17382 22.70251 21.93817
#
# Velocity S-wave (km/s) = 3.42769 3.54927 3.48901
# Velocity P-wave (km/s) = 6.46940 6.79361 6.63349
#
# Compressibility (1/GPa) = 0.02118877
#
# Stress axis : x y z
#
# Youngs Moduli (GPa) = 48.42290 48.42290 68.61178
#
# Poissons Ratio (x) = 0.18054 0.46710
# Poissons Ratio (y) = 0.18054 0.46710
# Poissons Ratio (z) = 0.32966 0.32966
#
# Static dielectric constant tensor:
#      x y z
#    x 3.262500 0.000000 0.000000 
#    y 0.000000 3.262500 0.000000 
#    z 0.000000 0.000000 3.173780 
# 
# 
# High freq. dielectric constant tensor:
#      x y z
#    x 1.688650 0.000000 0.000000 
#    y 0.000000 1.688650 0.000000 
#    z 0.000000 0.000000 1.687500 
# 
# From -- ./inp_files/2900.got.cif
#   From: 2010.03.12/outbox.cif.g09.slc.cpg/sg108_2_cif.got.tgz:2900.got - 2010.04.14 01:53:11.
