data_PCOD8307339
_publ_section_title
;
Structure prediction by ZEFSAII (Michael W. Deem and Ramdas Pophale) SiO2 
 PCOD8307339
Probable space group: P 42 M C
;
_chemical_formula_sum "Si O2"
_cell_formula_units_Z 40
_cell_length_a 8.055983
_cell_length_b 8.055983
_cell_length_c 29.251395
_cell_angle_alpha 90.000000
_cell_angle_beta 90.000000
_cell_angle_gamma 90.000000
_cell_volume 1898.382250
_symmetry_space_group_name_H-M "P 42 M C"
_symmetry_group_IT_number 105
_symmetry_cell_setting 'tetragonal'
loop_
_space_group_symop_operation_xyz
x,y,z
-y,x,1/2+z
-x,-y,z
y,-x,1/2+z
-x,y,z
x,-y,z
-y,-x,1/2+z
y,x,1/2+z
loop_
_atom_site_type_symbol
_atom_site_label
_atom_site_fract_x
_atom_site_fract_y
_atom_site_fract_z
Si Si1 0.689749 0.187253 0.609210
Si Si2 0.685225 0.802549 0.417732
Si Si3 0.182953 0.197335 0.322714
Si Si4 0.500000 0.809475 0.165690
Si Si5 0.816847 0.804470 0.512497
Si Si6 0.198877 0.500000 0.766967
O O1 0.500000 0.180954 0.623152
O O2 0.771701 0.329620 0.639466
O O3 0.704895 0.240935 0.556186
O O4 0.767249 0.000000 0.616983
O O5 0.500000 0.738785 0.408898
O O6 0.795386 0.740938 0.375086
O O7 0.747940 0.724152 0.465678
O O8 0.689683 0.000000 0.420969
O O9 0.332547 0.267993 0.291457
O O10 0.000000 0.258381 0.305660
O O11 0.190774 0.000000 0.321387
O O12 0.500000 0.724866 0.215736
O O13 0.500000 0.000000 0.176261
O O14 0.000000 0.733215 0.522035
O O15 0.821948 0.000000 0.505680
O O16 0.000000 0.500000 0.768888
#
# Coordination Sequence:
#
# PCOD8307339 Si02
#       6
#     8   8   8   4   8   4
#     4  10  21  38  58  80 110 146 189 243 296 351
#     4   9  14  21  36  61  98 142 185 227 273 330
#     4   9  15  24  39  60  93 137 181 228 283 343
#     4  11  23  37  57  81 111 149 191 239 299 360
#     4   9  16  26  43  71 106 143 183 226 279 342
#     4   9  18  31  43  65  99 137 179 229 285 348
#
# _framework density 21.070571000000001
#
# number of rings (size 3 to 8) (size 9 to 14) (size 15 to 20)
#    0.000    2.600    1.000    2.100    0.000    6.800 
#    0.000    2.000    0.000    0.000    0.000    0.000 
#    6.000    0.000    2.400    0.000    0.800    0.800 
#
# Total GULP energy -495606.297071 kJ/mol
# GULP energy per Si atom -12390.157427 kJ/mol
# Density = 2.102261 g / cm^3
# Si number density = 21.070571 Si / 1000 Ang^3
#
#
#
# Elastic Constant Matrix: (Units=GPa)
#
#
# Indices 1 2 3 4 5 6 
#
# 1 86.0710 17.6519 45.2457 0.0000 0.0000 0.0000
# 2 17.6519 86.0710 45.2457 0.0000 0.0000 0.0000
# 3 45.2457 45.2457 162.3471 0.0000 0.0000 0.0000
# 4 0.0000 0.0000 0.0000 -3.6887 0.0000 0.0000
# 5 0.0000 0.0000 0.0000 0.0000 -3.6887 0.0000
# 6 0.0000 0.0000 0.0000 0.0000 0.0000 10.9564
#
#
#
# Elastic Compliance Matrix: (Units=1/GPa)
#
#
# Indices 1 2 3 4 5 6 
#
# 1 0.013677 -0.000939 -0.003550 0.000000 0.000000 0.000000
# 2 -0.000939 0.013677 -0.003550 0.000000 0.000000 0.000000
# 3 -0.003550 -0.003550 0.008138 0.000000 0.000000 0.000000
# 4 0.000000 0.000000 0.000000 -0.271101 0.000000 0.000000
# 5 0.000000 0.000000 0.000000 0.000000 -0.271101 0.000000
# 6 0.000000 0.000000 0.000000 0.000000 0.000000 0.091271
#
#
# Mechanical properties :
#
#
# Convention : Reuss Voigt Hill
#
# Bulk Modulus (GPa) = 51.50768 61.19729 56.35248
# Shear Modulus (GPa) = -12.72626 15.80553 1.53963
#
# Velocity S-wave (km/s) = -2.46027 2.74181 0.85574
# Velocity P-wave (km/s) = 4.05312 6.25543 5.27059
#
# Compressibility (1/GPa) = 0.01941458
#
# Stress axis : x y z
#
# Youngs Moduli (GPa) = 73.11507 73.11507 122.87330
#
# Poissons Ratio (x) = 0.06864 0.43622
# Poissons Ratio (y) = 0.06864 0.43622
# Poissons Ratio (z) = 0.25957 0.25957
#
# Static dielectric constant tensor:
#      x y z
#    x 3.639060 0.000000 0.000000 
#    y 0.000000 3.639060 0.000000 
#    z 0.000000 0.000000 3.969610 
# 
# 
# High freq. dielectric constant tensor:
#      x y z
#    x 1.797200 0.000000 0.000000 
#    y 0.000000 1.797200 0.000000 
#    z 0.000000 0.000000 1.828150 
# 
# From -- ./inp_files/4242.got.cif
#   From: 2010.03.12/outbox.cif.g09.slc.cpg/sg105_3_cif.got.tgz:4242.got - 2010.04.14 01:45:32.
