data_PCOD8307847
_publ_section_title
;
Structure prediction by ZEFSAII (Michael W. Deem and Ramdas Pophale) SiO2 
 PCOD8307847
Probable space group: I 41 M D
;
_chemical_formula_sum "Si O2"
_cell_formula_units_Z 128
_cell_length_a 21.537272
_cell_length_b 21.537272
_cell_length_c 16.450240
_cell_angle_alpha 90.000000
_cell_angle_beta 90.000000
_cell_angle_gamma 90.000000
_cell_volume 7630.511027
_symmetry_space_group_name_H-M "I 41 M D"
_symmetry_group_IT_number 109
_symmetry_cell_setting 'tetragonal'
loop_
_space_group_symop_operation_xyz
x,y,z
-y,1/2+x,1/4+z
-x,-y,z
y,1/2-x,1/4+z
-x,y,z
x,-y,z
-y,1/2-x,1/4+z
y,1/2+x,1/4+z
1/2+x,1/2+y,1/2+z
1/2-y,x,3/4+z
1/2-x,1/2-y,1/2+z
1/2+y,-x,3/4+z
1/2-x,1/2+y,1/2+z
1/2+x,1/2-y,1/2+z
1/2-y,-x,3/4+z
1/2+y,x,3/4+z
loop_
_atom_site_type_symbol
_atom_site_label
_atom_site_fract_x
_atom_site_fract_y
_atom_site_fract_z
Si Si1 0.288379 0.566956 0.223900
Si Si2 0.297917 0.179576 0.486905
Si Si3 0.817388 0.431516 0.101203
Si Si4 0.764836 0.066111 0.911429
Si Si5 0.398988 0.570438 0.455445
Si Si6 0.166430 0.165947 0.196045
Si Si7 0.930258 0.927610 0.134537
Si Si8 0.719473 0.269698 0.844464
O O1 0.318175 0.500000 0.193413
O O2 0.323754 0.630871 0.204160
O O3 0.220608 0.573627 0.184795
O O4 0.286025 0.563060 0.319569
O O5 0.288429 0.115354 0.535103
O O6 0.255728 0.186514 0.407686
O O7 0.279073 0.236208 0.546785
O O8 0.812763 0.500000 0.062225
O O9 0.888190 0.419003 0.128290
O O10 0.825089 0.074690 0.967631
O O11 0.723316 0.124848 0.921467
O O12 0.732020 0.000000 0.934053
O O13 0.420613 0.500000 0.436551
O O14 0.428081 0.594016 0.540396
O O15 0.124039 0.104753 0.187592
O O16 0.227680 0.166827 0.138852
O O17 0.186946 0.178608 0.288364
O O18 0.000000 0.912273 0.167068
O O19 0.915808 0.000000 0.141134
#
# Coordination Sequence:
#
# PCOD8307847 Si02
#       8
#    16  16  16  16  16  16  16  16
#     4  10  19  30  46  70  99 134 169 198 234 286
#     4  11  19  36  49  71 101 132 166 207 246 302
#     4  11  21  31  49  71  97 134 170 203 243 289
#     4  10  18  27  47  74 105 140 166 194 230 282
#     4  10  19  30  44  71 108 139 166 193 231 287
#     4  11  19  33  49  73  98 125 170 206 246 295
#     4  10  21  35  50  69 100 138 166 197 243 297
#     4  10  22  31  52  72  96 131 163 207 258 288
#
# _framework density 16.774761999999999
#
# number of rings (size 3 to 8) (size 9 to 14) (size 15 to 20)
#    0.000    1.625    3.750    2.250    1.750    1.750 
#    0.000    1.250    0.000    0.000    0.000    0.000 
#    0.000    0.000    0.000    0.000    0.000    0.000 
#
# Total GULP energy -792876.306943 kJ/mol
# GULP energy per Si atom -12388.692296 kJ/mol
# Density = 1.673658 g / cm^3
# Si number density = 16.774762 Si / 1000 Ang^3
#
#
#
# Elastic Constant Matrix: (Units=GPa)
#
#
# Indices 1 2 3 4 5 6 
#
# 1 64.2237 49.4390 32.5664 0.0000 0.0000 0.0000
# 2 49.4390 64.2237 32.5664 0.0000 0.0000 0.0000
# 3 32.5664 32.5664 52.3776 0.0000 0.0000 0.0000
# 4 0.0000 0.0000 0.0000 22.7974 0.0000 0.0000
# 5 0.0000 0.0000 0.0000 0.0000 22.7974 0.0000
# 6 0.0000 0.0000 0.0000 0.0000 0.0000 22.5025
#
#
#
# Elastic Compliance Matrix: (Units=1/GPa)
#
#
# Indices 1 2 3 4 5 6 
#
# 1 0.040653 -0.026985 -0.008498 0.000000 0.000000 0.000000
# 2 -0.026985 0.040653 -0.008498 0.000000 0.000000 0.000000
# 3 -0.008498 -0.008498 0.029660 0.000000 0.000000 0.000000
# 4 0.000000 0.000000 0.000000 0.043865 0.000000 0.000000
# 5 0.000000 0.000000 0.000000 0.000000 0.043865 0.000000
# 6 0.000000 0.000000 0.000000 0.000000 0.000000 0.044440
#
#
# Mechanical properties :
#
#
# Convention : Reuss Voigt Hill
#
# Bulk Modulus (GPa) = 43.47292 45.55207 44.51249
# Shear Modulus (GPa) = 14.75957 18.03632 16.39795
#
# Velocity S-wave (km/s) = 2.96947 3.28259 3.12995
# Velocity P-wave (km/s) = 6.14239 6.44835 6.29723
#
# Compressibility (1/GPa) = 0.02300283
#
# Stress axis : x y z
#
# Youngs Moduli (GPa) = 24.59870 24.59870 33.71589
#
# Poissons Ratio (x) = 0.66379 0.28652
# Poissons Ratio (y) = 0.66379 0.28652
# Poissons Ratio (z) = 0.20904 0.20904
#
# Static dielectric constant tensor:
#      x y z
#    x 3.902620 0.000000 0.000000 
#    y 0.000000 3.902620 0.000000 
#    z 0.000000 0.000000 3.128840 
# 
# 
# High freq. dielectric constant tensor:
#      x y z
#    x 1.642200 0.000000 0.000000 
#    y 0.000000 1.642200 0.000000 
#    z 0.000000 0.000000 1.614320 
# 
# From -- ./inp_files/3316.got.cif
#   From: 2010.03.12/outbox.cif.g09.slc.cpg/sg109_2_cif.got.tgz:3316.got - 2010.04.14 01:55:16.
