data_PCOD8307528
_publ_section_title
;
Structure prediction by ZEFSAII (Michael W. Deem and Ramdas Pophale) SiO2 
 PCOD8307528
Probable space group: I 4 M M
;
_chemical_formula_sum "Si O2"
_cell_formula_units_Z 112
_cell_length_a 13.864907
_cell_length_b 13.864907
_cell_length_c 35.807227
_cell_angle_alpha 90.000000
_cell_angle_beta 90.000000
_cell_angle_gamma 90.000000
_cell_volume 6883.425418
_symmetry_space_group_name_H-M "I 4 M M"
_symmetry_group_IT_number 107
_symmetry_cell_setting 'tetragonal'
loop_
_space_group_symop_operation_xyz
x,y,z
-y,x,z
-x,-y,z
y,-x,z
-x,y,z
x,-y,z
-y,-x,z
y,x,z
1/2+x,1/2+y,1/2+z
1/2-y,1/2+x,1/2+z
1/2-x,1/2-y,1/2+z
1/2+y,1/2-x,1/2+z
1/2-x,1/2+y,1/2+z
1/2+x,1/2-y,1/2+z
1/2-y,1/2-x,1/2+z
1/2+y,1/2+x,1/2+z
loop_
_atom_site_type_symbol
_atom_site_label
_atom_site_fract_x
_atom_site_fract_y
_atom_site_fract_z
Si Si1 0.114461 0.607579 0.840760
Si Si2 0.885699 0.392505 0.758050
Si Si3 0.769162 0.611768 0.631662
Si Si4 0.889952 0.265051 0.046525
Si Si5 0.229855 0.385767 0.188319
Si Si6 0.267287 0.114097 0.909486
Si Si7 0.885705 0.393308 0.979345
O O1 0.154529 0.500000 0.848782
O O2 0.147944 0.641712 0.799376
O O3 0.152776 0.680400 0.872078
O O4 0.000000 0.604468 0.842839
O O5 0.844499 0.500000 0.749659
O O6 0.849660 0.316713 0.727285
O O7 0.000000 0.397805 0.756460
O O8 0.751710 0.500000 0.642179
O O9 0.669694 0.669694 0.639323
O O10 0.802488 0.622688 0.588748
O O11 0.856296 0.655846 0.655683
O O12 0.833178 0.166823 0.039616
O O13 0.000000 0.239411 0.037371
O O14 0.851047 0.346799 0.018400
O O15 0.248119 0.500000 0.186882
O O16 0.332248 0.332248 0.183364
O O17 0.162635 0.162635 0.911787
O O18 0.330297 0.149829 0.944496
O O19 0.251257 0.000000 0.909396
O O20 0.839901 0.500000 0.976474
O O21 0.000000 0.401146 0.978290
#
# Coordination Sequence:
#
# PCOD8307528 Si02
#       7
#    16  16  16  16  16  16  16
#     4   8  14  26  44  64  85 110 142 180 219 257
#     4   8  14  26  45  66  85 108 141 181 224 267
#     4   9  18  31  47  69  95 122 153 187 224 270
#     4   9  17  29  45  67  95 122 146 173 208 257
#     4  10  20  32  46  65  90 121 157 195 233 274
#     4  10  19  29  42  61  87 118 149 181 218 265
#     4   9  17  29  44  61  82 110 145 184 222 255
#
# _framework density 16.270968
#
# number of rings (size 3 to 8) (size 9 to 14) (size 15 to 20)
#    0.000    3.000    0.000    2.143    0.000    4.286 
#    0.000    2.857    0.000    2.571    0.000    4.000 
#    0.000   13.429    0.000   10.571    0.000    0.857 
#
# Total GULP energy -694126.212220 kJ/mol
# GULP energy per Si atom -12395.110932 kJ/mol
# Density = 1.623393 g / cm^3
# Si number density = 16.270968 Si / 1000 Ang^3
#
#
#
# Elastic Constant Matrix: (Units=GPa)
#
#
# Indices 1 2 3 4 5 6 
#
# 1 75.9781 39.3695 49.8991 0.0000 0.0000 -0.0003
# 2 39.3695 75.9781 49.8991 0.0000 0.0000 0.0003
# 3 49.8991 49.8991 118.4128 0.0000 0.0000 0.0000
# 4 0.0000 0.0000 0.0000 22.1656 0.0000 0.0000
# 5 0.0000 0.0000 0.0000 0.0000 22.1656 0.0000
# 6 -0.0003 0.0003 0.0000 0.0000 0.0000 11.8854
#
#
#
# Elastic Compliance Matrix: (Units=1/GPa)
#
#
# Indices 1 2 3 4 5 6 
#
# 1 0.020480 -0.006836 -0.005750 0.000000 0.000000 0.000001
# 2 -0.006836 0.020480 -0.005750 0.000000 0.000000 -0.000001
# 3 -0.005750 -0.005750 0.013291 0.000000 0.000000 0.000000
# 4 0.000000 0.000000 0.000000 0.045115 0.000000 0.000000
# 5 0.000000 0.000000 0.000000 0.000000 0.045115 0.000000
# 6 0.000001 -0.000001 0.000000 0.000000 0.000000 0.084137
#
#
# Mechanical properties :
#
#
# Convention : Reuss Voigt Hill
#
# Bulk Modulus (GPa) = 56.88146 60.96716 58.92431
# Shear Modulus (GPa) = 18.44011 19.99005 19.21508
#
# Velocity S-wave (km/s) = 3.37012 3.50890 3.44021
# Velocity P-wave (km/s) = 7.08367 7.34628 7.21617
#
# Compressibility (1/GPa) = 0.01758042
#
# Stress axis : x y z
#
# Youngs Moduli (GPa) = 48.82824 48.82824 75.24022
#
# Poissons Ratio (x) = 0.33379 0.43260
# Poissons Ratio (y) = 0.33379 0.43260
# Poissons Ratio (z) = 0.28074 0.28074
#
# Static dielectric constant tensor:
#      x y z
#    x 2.875620 0.000000 0.000000 
#    y 0.000000 2.875620 0.000000 
#    z 0.000000 0.000000 3.444460 
# 
# 
# High freq. dielectric constant tensor:
#      x y z
#    x 1.598560 0.000000 0.000000 
#    y 0.000000 1.598560 0.000000 
#    z 0.000000 0.000000 1.645460 
# 
# From -- ./inp_files/6190.got.cif
#   From: 2010.03.12/outbox.cif.g09.slc.cpg/sg107_4_cif.got.tgz:6190.got - 2010.04.14 01:49:11.
