data_PCOD8307096
_publ_section_title
;
Structure prediction by ZEFSAII (Michael W. Deem and Ramdas Pophale) SiO2 
 PCOD8307096
Probable space group: P 4 N C 
;
_chemical_formula_sum "Si O2"
_cell_formula_units_Z 40
_cell_length_a 8.607460
_cell_length_b 8.607460
_cell_length_c 27.602660
_cell_angle_alpha 90.000000
_cell_angle_beta 90.000000
_cell_angle_gamma 90.000000
_cell_volume 2045.036022
_symmetry_space_group_name_H-M "P 4 N C "
_symmetry_group_IT_number 104
_symmetry_cell_setting 'tetragonal'
loop_
_space_group_symop_operation_xyz
x,y,z
-y,x,z
-x,-y,z
y,-x,z
1/2-x,1/2+y,1/2+z
1/2+x,1/2-y,1/2+z
1/2-y,1/2-x,1/2+z
1/2+y,1/2+x,1/2+z
loop_
_atom_site_type_symbol
_atom_site_label
_atom_site_fract_x
_atom_site_fract_y
_atom_site_fract_z
Si Si1 0.933006 0.244398 0.895470
Si Si2 0.433006 0.744398 0.036238
Si Si3 0.428953 0.255122 0.284894
Si Si4 0.571047 0.255122 0.146814
Si Si5 0.500000 0.000000 0.215854
Si Si6 0.500000 0.000000 0.465854
O O1 0.914482 0.300939 0.840239
O O2 0.899197 0.385813 0.931769
O O3 0.812074 0.107899 0.905451
O O4 0.312074 0.607899 0.026257
O O5 0.414482 0.800940 0.091469
O O6 0.399197 0.885813 0.999940
O O7 0.604985 0.311180 0.273976
O O8 0.392487 0.108909 0.250187
O O9 0.688820 0.395015 0.157732
O O10 0.607513 0.108909 0.181521
#
# Coordination Sequence:
#
# PCOD8307096 Si02
#       6
#     8   8   8   8   4   4
#     4   9  19  34  49  69 100 133 162 195 238 288
#     4   9  19  34  49  69 100 133 162 195 238 288
#     4   9  19  35  51  69  97 131 164 197 236 287
#     4   9  19  35  51  69  97 131 164 197 236 287
#     4  12  18  26  52  80  88 110 162 214 244 268
#     4  12  18  28  52  82 100 120 162 208 244 274
#
# _framework density 19.559557000000002
#
# number of rings (size 3 to 8) (size 9 to 14) (size 15 to 20)
#    0.000    2.400    0.000    6.000    0.000    1.600 
#    0.000    0.000    0.000    9.600    0.000   33.600 
#    0.000    0.000    0.000    0.000    0.000    0.000 
#
# Total GULP energy -495900.079756 kJ/mol
# GULP energy per Si atom -12397.501994 kJ/mol
# Density = 1.951504 g / cm^3
# Si number density = 19.559557 Si / 1000 Ang^3
#
#
#
# Elastic Constant Matrix: (Units=GPa)
#
#
# Indices 1 2 3 4 5 6 
#
# 1 64.7399 -3.0381 39.3056 0.0000 0.0000 0.0000
# 2 -3.0381 64.7399 39.3056 0.0000 0.0000 0.0000
# 3 39.3056 39.3056 111.7133 0.0000 0.0000 0.0000
# 4 0.0000 0.0000 0.0000 30.7425 0.0000 0.0000
# 5 0.0000 0.0000 0.0000 0.0000 30.7425 0.0000
# 6 0.0000 0.0000 0.0000 0.0000 0.0000 12.4317
#
#
#
# Elastic Compliance Matrix: (Units=1/GPa)
#
#
# Indices 1 2 3 4 5 6 
#
# 1 0.022064 0.007310 -0.010335 0.000000 0.000000 0.000000
# 2 0.007310 0.022064 -0.010335 0.000000 0.000000 0.000000
# 3 -0.010335 -0.010335 0.016224 0.000000 0.000000 0.000000
# 4 0.000000 0.000000 0.000000 0.032528 0.000000 0.000000
# 5 0.000000 0.000000 0.000000 0.000000 0.032528 0.000000
# 6 0.000000 0.000000 0.000000 0.000000 0.000000 0.080439
#
#
# Mechanical properties :
#
#
# Convention : Reuss Voigt Hill
#
# Bulk Modulus (GPa) = 29.73319 43.59324 36.66322
# Shear Modulus (GPa) = 20.51029 25.82468 23.16748
#
# Velocity S-wave (km/s) = 3.24173 3.63755 3.44533
# Velocity P-wave (km/s) = 5.40797 6.32283 5.88321
#
# Compressibility (1/GPa) = 0.03363244
#
# Stress axis : x y z
#
# Youngs Moduli (GPa) = 45.32204 45.32204 61.63610
#
# Poissons Ratio (x) = -0.33132 0.63702
# Poissons Ratio (y) = -0.33132 0.63702
# Poissons Ratio (z) = 0.46841 0.46841
#
# Static dielectric constant tensor:
#      x y z
#    x 3.264050 0.000000 0.000000 
#    y 0.000000 3.264050 0.000000 
#    z 0.000000 0.000000 3.780160 
# 
# 
# High freq. dielectric constant tensor:
#      x y z
#    x 1.731240 0.000000 0.000000 
#    y 0.000000 1.731240 0.000000 
#    z 0.000000 0.000000 1.790880 
# 
# From -- ./inp_files/1856.got.cif
#   From: 2010.03.12/outbox.cif.g09.slc.cpg/sg104_cif.got.tgz:1856.got - 2010.04.14 01:44:05.
