data_PCOD8307702
_publ_section_title
;
Structure prediction by ZEFSAII (Michael W. Deem and Ramdas Pophale) SiO2 
 PCOD8307702
Probable space group: I 4 M M
;
_chemical_formula_sum "Si O2"
_cell_formula_units_Z 80
_cell_length_a 12.785640
_cell_length_b 12.785640
_cell_length_c 28.957397
_cell_angle_alpha 90.000000
_cell_angle_beta 90.000000
_cell_angle_gamma 90.000000
_cell_volume 4733.740693
_symmetry_space_group_name_H-M "I 4 M M"
_symmetry_group_IT_number 107
_symmetry_cell_setting 'tetragonal'
loop_
_space_group_symop_operation_xyz
x,y,z
-y,x,z
-x,-y,z
y,-x,z
-x,y,z
x,-y,z
-y,-x,z
y,x,z
1/2+x,1/2+y,1/2+z
1/2-y,1/2+x,1/2+z
1/2-x,1/2-y,1/2+z
1/2+y,1/2-x,1/2+z
1/2-x,1/2+y,1/2+z
1/2+x,1/2-y,1/2+z
1/2-y,1/2-x,1/2+z
1/2+y,1/2+x,1/2+z
loop_
_atom_site_type_symbol
_atom_site_label
_atom_site_fract_x
_atom_site_fract_y
_atom_site_fract_z
Si Si1 0.375971 0.000000 0.599411
Si Si2 0.877378 0.294850 0.153310
Si Si3 0.716644 0.115708 0.836939
Si Si4 0.622622 0.205152 0.441191
Si Si5 0.283358 0.115708 0.257561
Si Si6 0.000000 0.375971 0.495090
O O1 0.336272 0.105893 0.624117
O O2 0.500000 0.000000 0.600947
O O3 0.332963 0.000000 0.547250
O O4 0.807659 0.192342 0.140888
O O5 0.859680 0.328052 0.206631
O O6 0.000000 0.269093 0.143147
O O7 0.814316 0.185685 0.823605
O O8 0.671951 0.140322 0.887870
O O9 0.628873 0.128873 0.797250
O O10 0.761204 0.000000 0.835826
O O11 0.500000 0.230908 0.451353
O O12 0.692341 0.307660 0.453614
O O13 0.663728 0.105893 0.470383
O O14 0.185685 0.185685 0.270894
O O15 0.238798 0.000000 0.258675
O O16 0.000000 0.500000 0.493554
#
# Coordination Sequence:
#
# PCOD8307702 Si02
#       6
#     8  16  16  16  16   8
#     4   9  18  32  50  71  97 129 163 198 239 293
#     4   9  18  32  50  73 100 128 163 205 248 296
#     4   9  18  30  45  68  96 127 161 198 241 287
#     4   9  18  32  50  73 100 128 163 205 248 296
#     4   9  18  30  45  68  96 127 161 198 241 287
#     4   9  18  32  50  71  97 129 163 198 239 293
#
# _framework density 16.899954000000001
#
# number of rings (size 3 to 8) (size 9 to 14) (size 15 to 20)
#    0.000    3.000    0.000    0.000    2.800    2.000 
#    0.000    4.000    0.000    0.600    0.000    7.000 
#    0.000    0.000    0.000    0.000    0.000    0.000 
#
# Total GULP energy -495706.208932 kJ/mol
# GULP energy per Si atom -12392.655223 kJ/mol
# Density = 1.686149 g / cm^3
# Si number density = 16.899954 Si / 1000 Ang^3
#
#
#
# Elastic Constant Matrix: (Units=GPa)
#
#
# Indices 1 2 3 4 5 6 
#
# 1 87.1917 43.9154 53.2411 0.0000 0.0000 0.0003
# 2 43.9154 87.1917 53.2411 0.0000 0.0000 -0.0003
# 3 53.2411 53.2411 112.6774 0.0000 0.0000 0.0000
# 4 0.0000 0.0000 0.0000 23.0657 0.0000 0.0000
# 5 0.0000 0.0000 0.0000 0.0000 23.0657 0.0000
# 6 0.0003 -0.0003 0.0000 0.0000 0.0000 17.1819
#
#
#
# Elastic Compliance Matrix: (Units=1/GPa)
#
#
# Indices 1 2 3 4 5 6 
#
# 1 0.017742 -0.005365 -0.005848 0.000000 0.000000 0.000000
# 2 -0.005365 0.017742 -0.005848 0.000000 0.000000 0.000000
# 3 -0.005848 -0.005848 0.014402 0.000000 0.000000 0.000000
# 4 0.000000 0.000000 0.000000 0.043355 0.000000 0.000000
# 5 0.000000 0.000000 0.000000 0.000000 0.043354 0.000000
# 6 0.000000 0.000000 0.000000 0.000000 0.000000 0.058201
#
#
# Mechanical properties :
#
#
# Convention : Reuss Voigt Hill
#
# Bulk Modulus (GPa) = 63.44066 65.31732 64.37899
# Shear Modulus (GPa) = 21.35166 21.77353 21.56260
#
# Velocity S-wave (km/s) = 3.55831 3.59329 3.57584
# Velocity P-wave (km/s) = 7.38258 7.47990 7.43140
#
# Compressibility (1/GPa) = 0.01576276
#
# Stress axis : x y z
#
# Youngs Moduli (GPa) = 56.36251 56.36250 69.43628
#
# Poissons Ratio (x) = 0.30239 0.40609
# Poissons Ratio (y) = 0.30239 0.40609
# Poissons Ratio (z) = 0.32963 0.32963
#
# Static dielectric constant tensor:
#      x y z
#    x 3.081860 0.000000 0.000000 
#    y 0.000000 3.081860 0.000000 
#    z 0.000000 0.000000 3.430750 
# 
# 
# High freq. dielectric constant tensor:
#      x y z
#    x 1.634690 0.000000 0.000000 
#    y 0.000000 1.634690 0.000000 
#    z 0.000000 0.000000 1.659890 
# 
# From -- ./inp_files/5976.got.cif
#   From: 2010.03.12/outbox.cif.g09.slc.cpg/sg107_3_cif.got.tgz:5976.got - 2010.04.14 01:49:11.
