data_PCOD8307158
_publ_section_title
;
Structure prediction by ZEFSAII (Michael W. Deem and Ramdas Pophale) SiO2 
 PCOD8307158
Probable space group: P 42 M C
;
_chemical_formula_sum "Si O2"
_cell_formula_units_Z 48
_cell_length_a 8.281662
_cell_length_b 8.281662
_cell_length_c 33.853890
_cell_angle_alpha 90.000000
_cell_angle_beta 90.000000
_cell_angle_gamma 90.000000
_cell_volume 2321.900377
_symmetry_space_group_name_H-M "P 42 M C"
_symmetry_group_IT_number 105
_symmetry_cell_setting 'tetragonal'
loop_
_space_group_symop_operation_xyz
x,y,z
-y,x,1/2+z
-x,-y,z
y,-x,1/2+z
-x,y,z
x,-y,z
-y,-x,1/2+z
y,x,1/2+z
loop_
_atom_site_type_symbol
_atom_site_label
_atom_site_fract_x
_atom_site_fract_y
_atom_site_fract_z
Si Si1 0.178036 0.685548 0.977390
Si Si2 0.500000 0.189951 0.687687
Si Si3 0.181707 0.691719 0.642835
Si Si4 0.815168 0.316072 0.554647
Si Si5 0.811581 0.325439 0.400716
Si Si6 0.807910 0.178671 0.322006
Si Si7 0.191956 0.500000 0.277474
O O1 0.186704 0.500000 0.965926
O O2 0.285078 0.779842 0.946142
O O3 0.000000 0.756203 0.972803
O O4 0.228386 0.705214 0.022744
O O5 0.668327 0.249531 0.668882
O O6 0.500000 0.252152 0.732473
O O7 0.500000 0.000000 0.684888
O O8 0.181474 0.500000 0.642032
O O9 0.209886 0.758663 0.598353
O O10 0.000000 0.748789 0.657394
O O11 0.759176 0.500000 0.555421
O O12 0.000000 0.298842 0.541301
O O13 0.732870 0.500000 0.391907
O O14 0.747611 0.200194 0.367586
O O15 0.000000 0.338695 0.394589
O O16 0.740745 0.332696 0.297004
O O17 0.000000 0.177896 0.318842
O O18 0.744132 0.000000 0.307737
O O19 0.000000 0.500000 0.280863
#
# Coordination Sequence:
#
# PCOD8307158 Si02
#       7
#     8   4   8   8   8   8   4
#     4  11  24  36  47  73 113 149 181 222 275 339
#     4  11  23  35  57  91 127 157 189 243 309 371
#     4   9  20  40  63  85 113 154 203 249 294 355
#     4   9  19  37  59  80 101 134 186 239 282 328
#     4  10  19  33  55  80 105 136 184 238 280 330
#     4   9  16  29  52  78 107 145 185 230 285 342
#     4   9  18  33  49  79 119 149 185 231 285 357
#
# _framework density 20.672719000000001
#
# number of rings (size 3 to 8) (size 9 to 14) (size 15 to 20)
#    0.000    2.333    0.833    2.750    1.167    6.333 
#    0.000    3.333    0.000    2.000    0.000    2.333 
#    0.000    0.000    0.000    0.000    0.000    0.000 
#
# Total GULP energy -594661.555303 kJ/mol
# GULP energy per Si atom -12388.782402 kJ/mol
# Density = 2.062567 g / cm^3
# Si number density = 20.672719 Si / 1000 Ang^3
#
#
#
# Elastic Constant Matrix: (Units=GPa)
#
#
# Indices 1 2 3 4 5 6 
#
# 1 93.2606 29.9953 48.2153 0.0000 0.0000 0.0000
# 2 29.9953 93.2606 48.2153 0.0000 0.0000 0.0000
# 3 48.2153 48.2153 138.0383 0.0000 0.0000 0.0000
# 4 0.0000 0.0000 0.0000 13.7472 0.0000 0.0000
# 5 0.0000 0.0000 0.0000 0.0000 13.7472 0.0000
# 6 0.0000 0.0000 0.0000 0.0000 0.0000 22.0651
#
#
#
# Elastic Compliance Matrix: (Units=1/GPa)
#
#
# Indices 1 2 3 4 5 6 
#
# 1 0.013485 -0.002321 -0.003899 0.000000 0.000000 0.000000
# 2 -0.002321 0.013485 -0.003899 0.000000 0.000000 0.000000
# 3 -0.003899 -0.003899 0.009968 0.000000 0.000000 0.000000
# 4 0.000000 0.000000 0.000000 0.072742 0.000000 0.000000
# 5 0.000000 0.000000 0.000000 0.000000 0.072742 0.000000
# 6 0.000000 0.000000 0.000000 0.000000 0.000000 0.045320
#
#
# Mechanical properties :
#
#
# Convention : Reuss Voigt Hill
#
# Bulk Modulus (GPa) = 59.88535 64.15681 62.02108
# Shear Modulus (GPa) = 19.72002 23.12083 21.42042
#
# Velocity S-wave (km/s) = 3.09190 3.34791 3.22245
# Velocity P-wave (km/s) = 6.46356 6.78576 6.62662
#
# Compressibility (1/GPa) = 0.01669858
#
# Stress axis : x y z
#
# Youngs Moduli (GPa) = 74.15524 74.15524 100.31662
#
# Poissons Ratio (x) = 0.17213 0.39118
# Poissons Ratio (y) = 0.17213 0.39118
# Poissons Ratio (z) = 0.28916 0.28916
#
# Static dielectric constant tensor:
#      x y z
#    x 3.303910 0.000000 0.000000 
#    y 0.000000 3.303910 0.000000 
#    z 0.000000 0.000000 3.887850 
# 
# 
# High freq. dielectric constant tensor:
#      x y z
#    x 1.795720 0.000000 0.000000 
#    y 0.000000 1.795720 0.000000 
#    z 0.000000 0.000000 1.808090 
# 
# From -- ./inp_files/4803.got.cif
#   From: 2010.03.12/outbox.cif.g09.slc.cpg/sg105_3_cif.got.tgz:4803.got - 2010.04.14 01:45:32.
