data_PCOD8307252
_publ_section_title
;
Structure prediction by ZEFSAII (Michael W. Deem and Ramdas Pophale) SiO2 
 PCOD8307252
Probable space group: P 42 M C
;
_chemical_formula_sum "Si O2"
_cell_formula_units_Z 48
_cell_length_a 8.130799
_cell_length_b 8.130799
_cell_length_c 34.074383
_cell_angle_alpha 90.000000
_cell_angle_beta 90.000000
_cell_angle_gamma 90.000000
_cell_volume 2252.653793
_symmetry_space_group_name_H-M "P 42 M C"
_symmetry_group_IT_number 105
_symmetry_cell_setting 'tetragonal'
loop_
_space_group_symop_operation_xyz
x,y,z
-y,x,1/2+z
-x,-y,z
y,-x,1/2+z
-x,y,z
x,-y,z
-y,-x,1/2+z
y,x,1/2+z
loop_
_atom_site_type_symbol
_atom_site_label
_atom_site_fract_x
_atom_site_fract_y
_atom_site_fract_z
Si Si1 0.195453 0.818241 0.586100
Si Si2 0.686982 0.186644 0.340830
Si Si3 0.310305 0.820706 0.764399
Si Si4 0.196080 0.500000 0.633718
Si Si5 0.500000 0.306705 0.222090
Si Si6 0.195884 0.683375 0.505285
Si Si7 0.816502 0.695051 0.420159
O O1 0.261971 0.666654 0.612488
O O2 0.258281 0.795768 0.541256
O O3 0.000000 0.812420 0.587097
O O4 0.256639 0.000000 0.600718
O O5 0.500000 0.210502 0.327621
O O6 0.797657 0.292712 0.311284
O O7 0.700401 0.242546 0.385729
O O8 0.744949 0.000000 0.336966
O O9 0.500000 0.826593 0.753329
O O10 0.227338 0.666728 0.741120
O O11 0.232642 0.000000 0.752763
O O12 0.272086 0.500000 0.676445
O O13 0.000000 0.500000 0.635419
O O14 0.500000 0.500000 0.230933
O O15 0.266581 0.500000 0.512028
O O16 0.252598 0.755150 0.462781
O O17 0.000000 0.674605 0.504753
O O18 0.819915 0.500000 0.420903
O O19 0.000000 0.764495 0.412763
#
# Coordination Sequence:
#
# PCOD8307252 Si02
#       7
#     8   8   8   4   4   8   8
#     4   9  16  27  47  76 108 144 182 223 280 339
#     4  11  23  36  51  75 110 148 184 225 277 332
#     4  10  21  39  63  85 105 138 185 230 277 341
#     4  10  20  34  54  80 112 142 178 230 276 336
#     4  10  22  40  60  84 112 142 178 226 284 342
#     4   8  13  25  45  70 103 138 175 225 276 322
#     4   9  18  31  50  77 106 139 182 230 276 324
#
# _framework density 21.308198999999998
#
# number of rings (size 3 to 8) (size 9 to 14) (size 15 to 20)
#    0.000    2.500    1.667    2.000    0.000    5.667 
#    0.000    1.667    0.000    1.000    0.000    0.000 
#    0.000    0.000    0.000    0.000    0.000    0.000 
#
# Total GULP energy -594778.313789 kJ/mol
# GULP energy per Si atom -12391.214871 kJ/mol
# Density = 2.125970 g / cm^3
# Si number density = 21.308199 Si / 1000 Ang^3
#
#
#
# Elastic Constant Matrix: (Units=GPa)
#
#
# Indices 1 2 3 4 5 6 
#
# 1 78.2377 23.3381 42.1233 0.0000 0.0000 0.0000
# 2 23.3381 78.2377 42.1233 0.0000 0.0000 0.0000
# 3 42.1233 42.1233 141.4444 0.0000 0.0000 0.0000
# 4 0.0000 0.0000 0.0000 24.5508 0.0000 0.0000
# 5 0.0000 0.0000 0.0000 0.0000 24.5508 0.0000
# 6 0.0000 0.0000 0.0000 0.0000 0.0000 11.0891
#
#
#
# Elastic Compliance Matrix: (Units=1/GPa)
#
#
# Indices 1 2 3 4 5 6 
#
# 1 0.015645 -0.002570 -0.003894 0.000000 0.000000 0.000000
# 2 -0.002570 0.015645 -0.003894 0.000000 0.000000 0.000000
# 3 -0.003894 -0.003894 0.009389 0.000000 0.000000 0.000000
# 4 0.000000 0.000000 0.000000 0.040732 0.000000 0.000000
# 5 0.000000 0.000000 0.000000 0.000000 0.040732 0.000000
# 6 0.000000 0.000000 0.000000 0.000000 0.000000 0.090179
#
#
# Mechanical properties :
#
#
# Convention : Reuss Voigt Hill
#
# Bulk Modulus (GPa) = 50.09269 57.00993 53.55131
# Shear Modulus (GPa) = 20.86026 24.72715 22.79371
#
# Velocity S-wave (km/s) = 3.13226 3.41024 3.27420
# Velocity P-wave (km/s) = 6.05319 6.50533 6.28333
#
# Compressibility (1/GPa) = 0.01996299
#
# Stress axis : x y z
#
# Youngs Moduli (GPa) = 63.91966 63.91966 106.50753
#
# Poissons Ratio (x) = 0.16430 0.41470
# Poissons Ratio (y) = 0.16430 0.41470
# Poissons Ratio (z) = 0.24888 0.24888
#
# Static dielectric constant tensor:
#      x y z
#    x 4.162560 0.000000 0.000000 
#    y 0.000000 4.162560 0.000000 
#    z 0.000000 0.000000 4.046130 
# 
# 
# High freq. dielectric constant tensor:
#      x y z
#    x 1.810200 0.000000 0.000000 
#    y 0.000000 1.810200 0.000000 
#    z 0.000000 0.000000 1.836900 
# 
# From -- ./inp_files/4813.got.cif
#   From: 2010.03.12/outbox.cif.g09.slc.cpg/sg105_3_cif.got.tgz:4813.got - 2010.04.14 01:45:32.
