data_PCOD8307306
_publ_section_title
;
Structure prediction by ZEFSAII (Michael W. Deem and Ramdas Pophale) SiO2 
 PCOD8307306
Probable space group: P 42 M C
;
_chemical_formula_sum "Si O2"
_cell_formula_units_Z 48
_cell_length_a 9.467079
_cell_length_b 9.467079
_cell_length_c 30.658019
_cell_angle_alpha 90.000000
_cell_angle_beta 90.000000
_cell_angle_gamma 90.000000
_cell_volume 2747.742881
_symmetry_space_group_name_H-M "P 42 M C"
_symmetry_group_IT_number 105
_symmetry_cell_setting 'tetragonal'
loop_
_space_group_symop_operation_xyz
x,y,z
-y,x,1/2+z
-x,-y,z
y,-x,1/2+z
-x,y,z
x,-y,z
-y,-x,1/2+z
y,x,1/2+z
loop_
_atom_site_type_symbol
_atom_site_label
_atom_site_fract_x
_atom_site_fract_y
_atom_site_fract_z
Si Si1 0.836485 0.663764 0.332800
Si Si2 0.332344 0.155933 0.496100
Si Si3 0.665243 0.164003 0.593740
Si Si4 0.165271 0.664293 0.664177
Si Si5 0.164008 0.162584 0.748574
Si Si6 0.664020 0.335834 0.415961
O O1 0.805132 0.500000 0.323725
O O2 0.786529 0.749412 0.290562
O O3 0.747768 0.720094 0.373899
O O4 0.000000 0.691513 0.343067
O O5 0.500000 0.152463 0.494900
O O6 0.286390 0.203637 0.544548
O O7 0.273992 0.260881 0.459145
O O8 0.272196 0.000000 0.486122
O O9 0.500000 0.193165 0.600673
O O10 0.752148 0.266349 0.624559
O O11 0.699727 0.000000 0.603595
O O12 0.204746 0.500000 0.667632
O O13 0.213119 0.740549 0.708573
O O14 0.000000 0.687440 0.655913
O O15 0.000000 0.183755 0.759239
O O16 0.198366 0.000000 0.736869
O O17 0.500000 0.300634 0.408631
O O18 0.691213 0.500000 0.423160
#
# Coordination Sequence:
#
# PCOD8307306 Si02
#       6
#     8   8   8   8   8   8
#     4   9  18  32  48  67  93 123 154 191 235 281
#     4   8  15  29  48  70  95 122 155 195 234 274
#     4   9  18  33  53  75  98 127 165 205 243 287
#     4  10  21  35  50  72 102 131 160 198 245 295
#     4   9  18  33  51  68  89 122 160 195 235 284
#     4   9  17  29  46  68  93 122 154 187 228 278
#
# _framework density 17.468883999999999
#
# number of rings (size 3 to 8) (size 9 to 14) (size 15 to 20)
#    0.000    3.000    0.000    1.500    0.000    4.000 
#    0.000    4.167    0.000    3.000    0.000    0.000 
#    0.000    0.000    0.000    0.000    0.000    0.000 
#
# Total GULP energy -595163.536995 kJ/mol
# GULP energy per Si atom -12399.240354 kJ/mol
# Density = 1.742912 g / cm^3
# Si number density = 17.468884 Si / 1000 Ang^3
#
#
#
# Elastic Constant Matrix: (Units=GPa)
#
#
# Indices 1 2 3 4 5 6 
#
# 1 67.6539 43.6918 78.4429 0.0000 0.0000 0.0000
# 2 43.6918 67.6539 78.4429 0.0000 0.0000 0.0000
# 3 78.4429 78.4429 183.3733 0.0000 0.0000 0.0000
# 4 0.0000 0.0000 0.0000 32.6328 0.0000 0.0000
# 5 0.0000 0.0000 0.0000 0.0000 32.6328 0.0000
# 6 0.0000 0.0000 0.0000 0.0000 0.0000 22.4206
#
#
#
# Elastic Compliance Matrix: (Units=1/GPa)
#
#
# Indices 1 2 3 4 5 6 
#
# 1 0.032170 -0.009563 -0.009671 0.000000 0.000000 0.000000
# 2 -0.009563 0.032170 -0.009671 0.000000 0.000000 0.000000
# 3 -0.009671 -0.009671 0.013727 0.000000 0.000000 0.000000
# 4 0.000000 0.000000 0.000000 0.030644 0.000000 0.000000
# 5 0.000000 0.000000 0.000000 0.000000 0.030644 0.000000
# 6 0.000000 0.000000 0.000000 0.000000 0.000000 0.044602
#
#
# Mechanical properties :
#
#
# Convention : Reuss Voigt Hill
#
# Bulk Modulus (GPa) = 49.36234 79.98180 64.67207
# Shear Modulus (GPa) = 20.11925 25.41082 22.76503
#
# Velocity S-wave (km/s) = 3.39738 3.81810 3.61387
# Velocity P-wave (km/s) = 6.61122 8.08220 7.38343
#
# Compressibility (1/GPa) = 0.02025836
#
# Stress axis : x y z
#
# Youngs Moduli (GPa) = 31.08502 31.08502 72.84755
#
# Poissons Ratio (x) = 0.29725 0.70450
# Poissons Ratio (y) = 0.29725 0.70450
# Poissons Ratio (z) = 0.30062 0.30062
#
# Static dielectric constant tensor:
#      x y z
#    x 3.179310 0.000000 0.000000 
#    y 0.000000 3.179310 0.000000 
#    z 0.000000 0.000000 3.453740 
# 
# 
# High freq. dielectric constant tensor:
#      x y z
#    x 1.662250 0.000000 0.000000 
#    y 0.000000 1.662250 0.000000 
#    z 0.000000 0.000000 1.685380 
# 
# From -- ./inp_files/4688.got.cif
#   From: 2010.03.12/outbox.cif.g09.slc.cpg/sg105_3_cif.got.tgz:4688.got - 2010.04.14 01:45:32.
