data_PCOD8307536
_publ_section_title
;
Structure prediction by ZEFSAII (Michael W. Deem and Ramdas Pophale) SiO2 
 PCOD8307536
Probable space group: I 4 M M
;
_chemical_formula_sum "Si O2"
_cell_formula_units_Z 112
_cell_length_a 17.793949
_cell_length_b 17.793949
_cell_length_c 20.043696
_cell_angle_alpha 90.000000
_cell_angle_beta 90.000000
_cell_angle_gamma 90.000000
_cell_volume 6346.327650
_symmetry_space_group_name_H-M "I 4 M M"
_symmetry_group_IT_number 107
_symmetry_cell_setting 'tetragonal'
loop_
_space_group_symop_operation_xyz
x,y,z
-y,x,z
-x,-y,z
y,-x,z
-x,y,z
x,-y,z
-y,-x,z
y,x,z
1/2+x,1/2+y,1/2+z
1/2-y,1/2+x,1/2+z
1/2-x,1/2-y,1/2+z
1/2+y,1/2-x,1/2+z
1/2-x,1/2+y,1/2+z
1/2+x,1/2-y,1/2+z
1/2-y,1/2-x,1/2+z
1/2+y,1/2+x,1/2+z
loop_
_atom_site_type_symbol
_atom_site_label
_atom_site_fract_x
_atom_site_fract_y
_atom_site_fract_z
Si Si1 0.085460 0.583792 0.739970
Si Si2 0.915683 0.202527 0.985554
Si Si3 0.180640 0.302572 0.483926
Si Si4 0.727988 0.155510 0.710251
Si Si5 0.793675 0.912846 0.583612
Si Si6 0.583316 0.300527 0.331363
Si Si7 0.915044 0.585786 0.897685
O O1 0.104575 0.500000 0.715417
O O2 0.145119 0.638371 0.702287
O O3 0.093678 0.589846 0.818811
O O4 0.000000 0.605286 0.719490
O O5 0.880446 0.119555 0.995703
O O6 0.863865 0.265418 0.021110
O O7 0.913870 0.226944 0.907629
O O8 0.000000 0.201664 0.014384
O O9 0.235097 0.235097 0.455059
O O10 0.123494 0.271182 0.538378
O O11 0.133770 0.346438 0.427692
O O12 0.758870 0.241131 0.698407
O O13 0.771410 0.099713 0.660401
O O14 0.744312 0.131356 0.786245
O O15 0.873376 0.873376 0.568134
O O16 0.801955 0.000000 0.566662
O O17 0.500000 0.302186 0.302953
O O18 0.615380 0.384621 0.325873
O O19 0.906632 0.500000 0.922340
O O20 0.000000 0.614753 0.917486
#
# Coordination Sequence:
#
# PCOD8307536 Si02
#       7
#    16  16  16  16  16  16  16
#     4   9  17  29  46  68  94 122 148 178 219 265
#     4   9  17  28  43  65  92 121 152 185 222 265
#     4  10  19  30  44  62  86 115 149 190 231 266
#     4  10  19  31  47  66  90 119 150 183 219 260
#     4  10  21  35  50  67  88 117 149 182 220 258
#     4   9  16  25  40  63  90 121 152 181 216 258
#     4   9  17  29  46  67  90 117 148 183 223 266
#
# _framework density 17.648001000000001
#
# number of rings (size 3 to 8) (size 9 to 14) (size 15 to 20)
#    0.000    2.571    0.000    3.857    0.000    4.429 
#    0.000    2.857    0.000    6.000    0.000    0.000 
#    0.000    0.286    0.000    3.143    0.000    0.000 
#
# Total GULP energy -693837.864089 kJ/mol
# GULP energy per Si atom -12389.961859 kJ/mol
# Density = 1.760783 g / cm^3
# Si number density = 17.648001 Si / 1000 Ang^3
#
#
#
# Elastic Constant Matrix: (Units=GPa)
#
#
# Indices 1 2 3 4 5 6 
#
# 1 128.8932 70.1141 24.7857 0.0000 0.0000 -0.0001
# 2 70.1141 128.8932 24.7857 0.0000 0.0000 0.0001
# 3 24.7857 24.7857 18.3774 0.0000 0.0000 0.0000
# 4 0.0000 0.0000 0.0000 18.2901 0.0000 0.0000
# 5 0.0000 0.0000 0.0000 0.0000 18.2901 0.0000
# 6 -0.0001 0.0001 0.0000 0.0000 0.0000 30.0412
#
#
#
# Elastic Compliance Matrix: (Units=1/GPa)
#
#
# Indices 1 2 3 4 5 6 
#
# 1 0.012290 -0.004723 -0.010206 0.000000 0.000000 0.000000
# 2 -0.004723 0.012290 -0.010206 0.000000 0.000000 0.000000
# 3 -0.010206 -0.010206 0.081944 0.000000 0.000000 0.000000
# 4 0.000000 0.000000 0.000000 0.054674 0.000000 0.000000
# 5 0.000000 0.000000 0.000000 0.000000 0.054674 0.000000
# 6 0.000000 0.000000 0.000000 0.000000 0.000000 0.033288
#
#
# Mechanical properties :
#
#
# Convention : Reuss Voigt Hill
#
# Bulk Modulus (GPa) = 17.77621 57.28163 37.52892
# Shear Modulus (GPa) = 15.71432 23.75617 19.73524
#
# Velocity S-wave (km/s) = 2.98725 3.67292 3.34768
# Velocity P-wave (km/s) = 4.68964 7.10742 6.02113
#
# Compressibility (1/GPa) = 0.05625496
#
# Stress axis : x y z
#
# Youngs Moduli (GPa) = 81.36696 81.36695 12.20345
#
# Poissons Ratio (x) = 0.38428 0.12455
# Poissons Ratio (y) = 0.38428 0.12455
# Poissons Ratio (z) = 0.83042 0.83042
#
# Static dielectric constant tensor:
#      x y z
#    x 3.463660 0.000000 0.000000 
#    y 0.000000 3.463660 0.000000 
#    z 0.000000 0.000000 2.933800 
# 
# 
# High freq. dielectric constant tensor:
#      x y z
#    x 1.682780 0.000000 0.000000 
#    y 0.000000 1.682780 0.000000 
#    z 0.000000 0.000000 1.644020 
# 
# From -- ./inp_files/4914.got.cif
#   From: 2010.03.12/outbox.cif.g09.slc.cpg/sg107_3_cif.got.tgz:4914.got - 2010.04.14 01:49:11.
