data_PCOD8307050
_publ_section_title
;
Structure prediction by ZEFSAII (Michael W. Deem and Ramdas Pophale) SiO2 
 PCOD8307050
Probable space group: P 4 N C 
;
_chemical_formula_sum "Si O2"
_cell_formula_units_Z 56
_cell_length_a 11.412049
_cell_length_b 11.412049
_cell_length_c 20.957012
_cell_angle_alpha 90.000000
_cell_angle_beta 90.000000
_cell_angle_gamma 90.000000
_cell_volume 2729.333574
_symmetry_space_group_name_H-M "P 4 N C "
_symmetry_group_IT_number 104
_symmetry_cell_setting 'tetragonal'
loop_
_space_group_symop_operation_xyz
x,y,z
-y,x,z
-x,-y,z
y,-x,z
1/2-x,1/2+y,1/2+z
1/2+x,1/2-y,1/2+z
1/2-y,1/2-x,1/2+z
1/2+y,1/2+x,1/2+z
loop_
_atom_site_type_symbol
_atom_site_label
_atom_site_fract_x
_atom_site_fract_y
_atom_site_fract_z
Si Si1 0.657164 0.728134 0.758780
Si Si2 0.120527 0.140706 0.789354
Si Si3 0.732795 0.114547 0.916473
Si Si4 0.295091 0.125105 0.993343
Si Si5 0.033541 0.244572 0.345540
Si Si6 0.428793 0.321981 0.621306
Si Si7 0.177852 0.042213 0.475852
O O1 0.789862 0.773983 0.753873
O O2 0.572200 0.806465 0.804762
O O3 0.663904 0.600695 0.793066
O O4 0.599033 0.731638 0.689761
O O5 0.115584 0.161098 0.865622
O O6 0.987793 0.162740 0.767712
O O7 0.776493 0.202466 0.970960
O O8 0.615760 0.160537 0.881044
O O9 0.706310 0.988129 0.947474
O O10 0.422641 0.188799 0.993858
O O11 0.271619 0.095927 0.066514
O O12 0.964685 0.168663 0.398807
O O13 0.564312 0.350079 0.613127
O O14 0.085867 0.140229 0.502083
#
# Coordination Sequence:
#
# PCOD8307050 Si02
#       7
#     8   8   8   8   8   8   8
#     4  11  22  40  64  99 131 165 214 272 330 394
#     4  10  21  39  63  91 124 168 215 264 326 390
#     4  11  22  37  61  95 133 167 204 267 332 389
#     4  12  23  41  61  95 135 171 216 261 327 403
#     4  11  21  38  62  98 132 161 207 275 339 385
#     4  11  23  40  66  95 130 176 218 265 322 400
#     4  11  22  39  62  92 126 169 214 271 336 388
#
# _framework density 20.517828999999999
#
# number of rings (size 3 to 8) (size 9 to 14) (size 15 to 20)
#    0.000    1.000    7.143    0.857    0.000    1.143 
#    2.571    1.429    0.000    3.429    0.000    0.000 
#    0.000    0.000    0.000    0.000    0.000    0.000 
#
# Total GULP energy -693818.998419 kJ/mol
# GULP energy per Si atom -12389.624972 kJ/mol
# Density = 2.047113 g / cm^3
# Si number density = 20.517829 Si / 1000 Ang^3
#
#
#
# Elastic Constant Matrix: (Units=GPa)
#
#
# Indices 1 2 3 4 5 6 
#
# 1 89.4663 40.8524 33.6474 0.0000 0.0000 0.0000
# 2 40.8524 89.4663 33.6474 0.0000 0.0000 0.0000
# 3 33.6474 33.6474 97.9492 0.0000 0.0000 0.0000
# 4 0.0000 0.0000 0.0000 24.4967 0.0000 0.0000
# 5 0.0000 0.0000 0.0000 0.0000 24.4967 0.0000
# 6 0.0000 0.0000 0.0000 0.0000 0.0000 35.9675
#
#
#
# Elastic Compliance Matrix: (Units=1/GPa)
#
#
# Indices 1 2 3 4 5 6 
#
# 1 0.014949 -0.005621 -0.003204 0.000000 0.000000 0.000000
# 2 -0.005621 0.014949 -0.003204 0.000000 0.000000 0.000000
# 3 -0.003204 -0.003204 0.012411 0.000000 0.000000 0.000000
# 4 0.000000 0.000000 0.000000 0.040822 0.000000 0.000000
# 5 0.000000 0.000000 0.000000 0.000000 0.040822 0.000000
# 6 0.000000 0.000000 0.000000 0.000000 0.000000 0.027803
#
#
# Mechanical properties :
#
#
# Convention : Reuss Voigt Hill
#
# Bulk Modulus (GPa) = 54.79543 54.79732 54.79638
# Shear Modulus (GPa) = 27.48781 28.24117 27.86449
#
# Velocity S-wave (km/s) = 3.66417 3.71404 3.68919
# Velocity P-wave (km/s) = 6.68324 6.71992 6.70160
#
# Compressibility (1/GPa) = 0.01824970
#
# Stress axis : x y z
#
# Youngs Moduli (GPa) = 66.89302 66.89302 80.57414
#
# Poissons Ratio (x) = 0.37601 0.25819
# Poissons Ratio (y) = 0.37601 0.25819
# Poissons Ratio (z) = 0.21435 0.21435
#
# Static dielectric constant tensor:
#      x y z
#    x 3.712310 0.000000 0.000000 
#    y 0.000000 3.712310 0.000000 
#    z 0.000000 0.000000 3.479860 
# 
# 
# High freq. dielectric constant tensor:
#      x y z
#    x 1.800320 0.000000 0.000000 
#    y 0.000000 1.800320 0.000000 
#    z 0.000000 0.000000 1.775010 
# 
# From -- ./inp_files/1644.got.cif
#   From: 2010.03.12/outbox.cif.g09.slc.cpg/sg104_cif.got.tgz:1644.got - 2010.04.14 01:44:05.
