data_PCOD8307734
_publ_section_title
;
Structure prediction by ZEFSAII (Michael W. Deem and Ramdas Pophale) SiO2 
 PCOD8307734
Probable space group: I 4 C M
;
_chemical_formula_sum "Si O2"
_cell_formula_units_Z 128
_cell_length_a 21.928214
_cell_length_b 21.928214
_cell_length_c 13.226558
_cell_angle_alpha 90.000000
_cell_angle_beta 90.000000
_cell_angle_gamma 90.000000
_cell_volume 6359.945037
_symmetry_space_group_name_H-M "I 4 C M"
_symmetry_group_IT_number 108
_symmetry_cell_setting 'tetragonal'
loop_
_space_group_symop_operation_xyz
x,y,z
-y,x,z
-x,-y,z
y,-x,z
-x,y,1/2+z
x,-y,1/2+z
-y,-x,1/2+z
y,x,1/2+z
1/2+x,1/2+y,1/2+z
1/2-y,1/2+x,1/2+z
1/2-x,1/2-y,1/2+z
1/2+y,1/2-x,1/2+z
1/2-x,1/2+y,z
1/2+x,1/2-y,z
1/2-y,1/2-x,z
1/2+y,1/2+x,z
loop_
_atom_site_type_symbol
_atom_site_label
_atom_site_fract_x
_atom_site_fract_y
_atom_site_fract_z
Si Si1 0.566708 0.575627 0.807080
Si Si2 0.511058 0.808304 0.701865
Si Si3 0.862771 0.739064 0.274834
Si Si4 0.378997 0.349863 0.629255
Si Si5 0.996569 0.596012 0.538154
Si Si6 0.670671 0.932112 0.388387
Si Si7 0.904549 0.181085 0.948542
Si Si8 0.225354 0.029188 0.519172
O O1 0.494391 0.585268 0.814894
O O2 0.593340 0.598837 0.701279
O O3 0.596965 0.614524 0.896634
O O4 0.575069 0.798732 0.758796
O O5 0.511881 0.872160 0.643862
O O6 0.453131 0.809157 0.777130
O O7 0.500487 0.755598 0.619751
O O8 0.805137 0.694864 0.269146
O O9 0.855114 0.790381 0.188405
O O10 0.864224 0.771351 0.384237
O O11 0.324108 0.377945 0.562051
O O12 0.432769 0.333100 0.551875
O O13 0.037342 0.537342 0.532827
O O14 0.010509 0.636351 0.439609
O O15 0.925785 0.574216 0.534243
O O16 0.629686 0.870315 0.386710
O O17 0.730533 0.923333 0.458309
O O18 0.973710 0.205804 0.947595
#
# Coordination Sequence:
#
# PCOD8307734 Si02
#       8
#    16  16  16  16  16  16  16  16
#     4  10  21  37  62  98 128 151 187 236 298 376
#     4  10  19  36  56  80 109 155 191 254 304 364
#     4  10  22  39  59  83 113 159 213 253 299 350
#     4  10  22  38  62  85 120 160 196 244 297 362
#     4   9  18  30  48  78 110 141 185 238 299 369
#     4  10  20  36  56  84 117 154 199 254 310 364
#     4  11  21  40  61  90 118 163 195 246 301 357
#     4  10  21  38  60  86 116 155 202 246 300 372
#
# _framework density 20.125959999999999
#
# number of rings (size 3 to 8) (size 9 to 14) (size 15 to 20)
#    0.000    2.000    1.250    2.250    0.000    4.500 
#    4.500    3.125    0.000    0.000    0.000    0.000 
#    0.000    0.000    0.000    0.000    0.000    0.000 
#
# Total GULP energy -793421.903182 kJ/mol
# GULP energy per Si atom -12397.217237 kJ/mol
# Density = 2.008015 g / cm^3
# Si number density = 20.125960 Si / 1000 Ang^3
#
#
#
# Elastic Constant Matrix: (Units=GPa)
#
#
# Indices 1 2 3 4 5 6 
#
# 1 54.5927 20.9500 26.3810 0.0000 0.0000 -0.0001
# 2 20.9500 54.5927 26.3810 0.0000 0.0000 0.0001
# 3 26.3810 26.3810 93.5959 0.0000 0.0000 0.0000
# 4 0.0000 0.0000 0.0000 27.5887 0.0000 0.0000
# 5 0.0000 0.0000 0.0000 0.0000 27.5887 0.0000
# 6 -0.0001 0.0001 0.0000 0.0000 0.0000 31.0431
#
#
#
# Elastic Compliance Matrix: (Units=1/GPa)
#
#
# Indices 1 2 3 4 5 6 
#
# 1 0.023103 -0.006621 -0.004646 0.000000 0.000000 0.000000
# 2 -0.006621 0.023103 -0.004646 0.000000 0.000000 0.000000
# 3 -0.004646 -0.004646 0.013303 0.000000 0.000000 0.000000
# 4 0.000000 0.000000 0.000000 0.036247 0.000000 0.000000
# 5 0.000000 0.000000 0.000000 0.000000 0.036247 0.000000
# 6 0.000000 0.000000 0.000000 0.000000 0.000000 0.032213
#
#
# Mechanical properties :
#
#
# Convention : Reuss Voigt Hill
#
# Bulk Modulus (GPa) = 36.12081 38.91169 37.51625
# Shear Modulus (GPa) = 24.35826 25.84873 25.10350
#
# Velocity S-wave (km/s) = 3.48270 3.58767 3.53557
# Velocity P-wave (km/s) = 5.84453 6.04466 5.94544
#
# Compressibility (1/GPa) = 0.02768487
#
# Stress axis : x y z
#
# Youngs Moduli (GPa) = 43.28404 43.28404 75.17038
#
# Poissons Ratio (x) = 0.28658 0.34922
# Poissons Ratio (y) = 0.28658 0.34922
# Poissons Ratio (z) = 0.20109 0.20109
#
# Static dielectric constant tensor:
#      x y z
#    x 3.534560 0.000000 0.000000 
#    y 0.000000 3.534560 0.000000 
#    z 0.000000 0.000000 3.721720 
# 
# 
# High freq. dielectric constant tensor:
#      x y z
#    x 1.776360 0.000000 0.000000 
#    y 0.000000 1.776360 0.000000 
#    z 0.000000 0.000000 1.795250 
# 
# From -- ./inp_files/1614.got.cif
#   From: 2010.03.12/outbox.cif.g09.slc.cpg/sg108_1_cif.got.tgz:1614.got - 2010.04.14 01:53:11.
