data_PCOD8307899
_publ_section_title
;
Structure prediction by ZEFSAII (Michael W. Deem and Ramdas Pophale) SiO2 
 PCOD8307899
Probable space group: I 41 M D
;
_chemical_formula_sum "Si O2"
_cell_formula_units_Z 112
_cell_length_a 15.235401
_cell_length_b 15.235401
_cell_length_c 22.231420
_cell_angle_alpha 90.000000
_cell_angle_beta 90.000000
_cell_angle_gamma 90.000000
_cell_volume 5160.300379
_symmetry_space_group_name_H-M "I 41 M D"
_symmetry_group_IT_number 109
_symmetry_cell_setting 'tetragonal'
loop_
_space_group_symop_operation_xyz
x,y,z
-y,1/2+x,1/4+z
-x,-y,z
y,1/2-x,1/4+z
-x,y,z
x,-y,z
-y,1/2-x,1/4+z
y,1/2+x,1/4+z
1/2+x,1/2+y,1/2+z
1/2-y,x,3/4+z
1/2-x,1/2-y,1/2+z
1/2+y,-x,3/4+z
1/2-x,1/2+y,1/2+z
1/2+x,1/2-y,1/2+z
1/2-y,-x,3/4+z
1/2+y,x,3/4+z
loop_
_atom_site_type_symbol
_atom_site_label
_atom_site_fract_x
_atom_site_fract_y
_atom_site_fract_z
Si Si1 0.841256 0.690119 0.940810
Si Si2 0.596946 0.627911 0.434864
Si Si3 0.202454 0.098504 0.050763
Si Si4 0.098734 0.098288 0.804197
Si Si5 0.180657 0.737275 0.495713
Si Si6 0.600991 0.903676 0.914178
Si Si7 0.101768 0.396837 0.820216
O O1 0.912713 0.767121 0.939528
O O2 0.744748 0.734139 0.940594
O O3 0.862065 0.624095 0.886882
O O4 0.840085 0.644705 0.006106
O O5 0.500000 0.585885 0.439652
O O6 0.657448 0.587622 0.485948
O O7 0.641752 0.604575 0.370444
O O8 0.132291 0.132695 0.099465
O O9 0.239815 0.000000 0.067350
O O10 0.274194 0.176547 0.047223
O O11 0.000000 0.133133 0.810985
O O12 0.102335 0.000000 0.778683
O O13 0.112564 0.670184 0.465424
O O14 0.140654 0.827225 0.522910
O O15 0.500000 0.922901 0.909483
O O16 0.646264 0.000000 0.927683
O O17 0.101187 0.500000 0.812427
O O18 0.000000 0.362561 0.810667
#
# Coordination Sequence:
#
# PCOD8307899 Si02
#       7
#    16  16  16  16  16  16  16
#     4  11  22  36  56  83 116 154 195 242 300 367
#     4  10  20  33  52  81 118 157 194 234 284 347
#     4  10  21  37  59  88 123 162 203 250 306 370
#     4  10  20  34  53  77 108 148 193 239 285 341
#     4  11  23  40  60  89 123 159 202 258 315 375
#     4  10  21  39  64  90 119 160 209 261 317 378
#     4  11  24  42  64  88 117 157 206 261 320 381
#
# _framework density 21.704163999999999
#
# number of rings (size 3 to 8) (size 9 to 14) (size 15 to 20)
#    0.000    1.571    0.000    5.143    0.000    8.286 
#    0.000    7.143    0.000    0.000    0.000    6.000 
#    0.000    0.000    0.000    0.000    0.000    0.000 
#
# Total GULP energy -693805.408680 kJ/mol
# GULP energy per Si atom -12389.382298 kJ/mol
# Density = 2.165476 g / cm^3
# Si number density = 21.704164 Si / 1000 Ang^3
#
#
#
# Elastic Constant Matrix: (Units=GPa)
#
#
# Indices 1 2 3 4 5 6 
#
# 1 99.3054 33.5234 36.0936 0.0000 0.0000 0.0000
# 2 33.5234 99.3054 36.0936 0.0000 0.0000 0.0000
# 3 36.0936 36.0936 112.4045 0.0000 0.0000 0.0000
# 4 0.0000 0.0000 0.0000 31.8557 0.0000 0.0000
# 5 0.0000 0.0000 0.0000 0.0000 31.8557 0.0000
# 6 0.0000 0.0000 0.0000 0.0000 0.0000 21.0289
#
#
#
# Elastic Compliance Matrix: (Units=1/GPa)
#
#
# Indices 1 2 3 4 5 6 
#
# 1 0.012161 -0.003041 -0.002928 0.000000 0.000000 0.000000
# 2 -0.003041 0.012161 -0.002928 0.000000 0.000000 0.000000
# 3 -0.002928 -0.002928 0.010777 0.000000 0.000000 0.000000
# 4 0.000000 0.000000 0.000000 0.031392 0.000000 0.000000
# 5 0.000000 0.000000 0.000000 0.000000 0.031392 0.000000
# 6 0.000000 0.000000 0.000000 0.000000 0.000000 0.047554
#
#
# Mechanical properties :
#
#
# Convention : Reuss Voigt Hill
#
# Bulk Modulus (GPa) = 57.79267 58.04852 57.92059
# Shear Modulus (GPa) = 29.58600 30.63504 30.11052
#
# Velocity S-wave (km/s) = 3.69609 3.76105 3.72871
# Velocity P-wave (km/s) = 6.70075 6.75752 6.72919
#
# Compressibility (1/GPa) = 0.01730323
#
# Stress axis : x y z
#
# Youngs Moduli (GPa) = 82.23097 82.23097 92.78900
#
# Poissons Ratio (x) = 0.25005 0.27173
# Poissons Ratio (y) = 0.25005 0.27173
# Poissons Ratio (z) = 0.24081 0.24081
#
# Static dielectric constant tensor:
#      x y z
#    x 4.030780 0.000000 0.000000 
#    y 0.000000 4.030780 0.000000 
#    z 0.000000 0.000000 3.774630 
# 
# 
# High freq. dielectric constant tensor:
#      x y z
#    x 1.853990 0.000000 0.000000 
#    y 0.000000 1.853990 0.000000 
#    z 0.000000 0.000000 1.844330 
# 
# From -- ./inp_files/4459.got.cif
#   From: 2010.03.12/outbox.cif.g09.slc.cpg/sg109_3_cif.got.tgz:4459.got - 2010.04.14 01:55:16.
