data_PCOD8307234
_publ_section_title
;
Structure prediction by ZEFSAII (Michael W. Deem and Ramdas Pophale) SiO2 
 PCOD8307234
Probable space group: P 42 M C
;
_chemical_formula_sum "Si O2"
_cell_formula_units_Z 48
_cell_length_a 9.431157
_cell_length_b 9.431157
_cell_length_c 27.760380
_cell_angle_alpha 90.000000
_cell_angle_beta 90.000000
_cell_angle_gamma 90.000000
_cell_volume 2469.194812
_symmetry_space_group_name_H-M "P 42 M C"
_symmetry_group_IT_number 105
_symmetry_cell_setting 'tetragonal'
loop_
_space_group_symop_operation_xyz
x,y,z
-y,x,1/2+z
-x,-y,z
y,-x,1/2+z
-x,y,z
x,-y,z
-y,-x,1/2+z
y,x,1/2+z
loop_
_atom_site_type_symbol
_atom_site_label
_atom_site_fract_x
_atom_site_fract_y
_atom_site_fract_z
Si Si1 0.658336 0.667488 0.336600
Si Si2 0.347504 0.500000 0.093864
Si Si3 0.226474 0.337385 0.656823
Si Si4 0.000000 0.656861 0.500737
Si Si5 0.718675 0.338605 0.443758
Si Si6 0.332030 0.834273 0.745718
Si Si7 0.000000 0.828564 0.596670
Si Si8 0.831908 0.500000 0.002613
O O1 0.500000 0.729256 0.326572
O O2 0.650814 0.500000 0.334833
O O3 0.711815 0.717101 0.389009
O O4 0.771995 0.718984 0.297102
O O5 0.500000 0.500000 0.065638
O O6 0.341890 0.628486 0.129555
O O7 0.215940 0.500000 0.058023
O O8 0.168598 0.500000 0.664099
O O9 0.245039 0.258555 0.707510
O O10 0.132857 0.237287 0.623513
O O11 0.874626 0.671235 0.463364
O O12 0.000000 0.777913 0.541144
O O13 0.000000 0.500000 0.525849
O O14 0.658671 0.500000 0.447290
O O15 0.636112 0.229814 0.476905
O O16 0.500000 0.814897 0.737786
O O17 0.289934 0.000000 0.742489
O O18 0.000000 0.000000 0.598266
O O19 0.000000 0.500000 0.000858
#
# Coordination Sequence:
#
# PCOD8307234 Si02
#       8
#     8   4   8   4   8   8   4   4
#     4   9  17  31  55  84 115 155 198 244 301 362
#     4  10  22  38  62  90 120 158 202 252 309 364
#     4  11  22  40  63  88 121 161 207 257 305 367
#     4  10  22  38  60  88 116 152 200 254 307 370
#     4  10  20  37  60  85 117 153 199 253 304 362
#     4  10  20  33  56  92 128 158 196 253 313 366
#     4  12  26  42  60  86 122 166 208 250 305 376
#     4  12  24  36  56  86 120 158 200 248 297 364
#
# _framework density 19.439533999999998
#
# number of rings (size 3 to 8) (size 9 to 14) (size 15 to 20)
#    0.000    1.667    1.667    3.500    1.167    6.667 
#    0.000    0.000    1.833    0.000    0.000    0.000 
#    0.000    0.000    0.000    0.000    0.000    0.000 
#
# Total GULP energy -594925.758000 kJ/mol
# GULP energy per Si atom -12394.286625 kJ/mol
# Density = 1.939529 g / cm^3
# Si number density = 19.439534 Si / 1000 Ang^3
#
#
#
# Elastic Constant Matrix: (Units=GPa)
#
#
# Indices 1 2 3 4 5 6 
#
# 1 113.7065 36.3577 37.5128 0.0000 0.0000 0.0000
# 2 36.3577 113.7065 37.5128 0.0000 0.0000 0.0000
# 3 37.5128 37.5128 114.1281 0.0000 0.0000 0.0000
# 4 0.0000 0.0000 0.0000 69.2427 0.0000 0.0000
# 5 0.0000 0.0000 0.0000 0.0000 69.2427 0.0000
# 6 0.0000 0.0000 0.0000 0.0000 0.0000 24.1068
#
#
#
# Elastic Compliance Matrix: (Units=1/GPa)
#
#
# Indices 1 2 3 4 5 6 
#
# 1 0.010451 -0.002477 -0.002621 0.000000 0.000000 0.000000
# 2 -0.002477 0.010451 -0.002621 0.000000 0.000000 0.000000
# 3 -0.002621 -0.002621 0.010485 0.000000 0.000000 0.000000
# 4 0.000000 0.000000 0.000000 0.014442 0.000000 0.000000
# 5 0.000000 0.000000 0.000000 0.000000 0.014442 0.000000
# 6 0.000000 0.000000 0.000000 0.000000 0.000000 0.041482
#
#
# Mechanical properties :
#
#
# Convention : Reuss Voigt Hill
#
# Bulk Modulus (GPa) = 62.69845 62.70087 62.69966
# Shear Modulus (GPa) = 40.81345 47.86230 44.33788
#
# Velocity S-wave (km/s) = 4.58701 4.96735 4.78096
# Velocity P-wave (km/s) = 7.77028 8.07612 7.92468
#
# Compressibility (1/GPa) = 0.01594936
#
# Stress axis : x y z
#
# Youngs Moduli (GPa) = 95.68146 95.68146 95.37331
#
# Poissons Ratio (x) = 0.23701 0.24998
# Poissons Ratio (y) = 0.23701 0.24998
# Poissons Ratio (z) = 0.25079 0.25079
#
# Static dielectric constant tensor:
#      x y z
#    x 3.576920 0.000000 0.000000 
#    y 0.000000 3.576920 0.000000 
#    z 0.000000 0.000000 3.755110 
# 
# 
# High freq. dielectric constant tensor:
#      x y z
#    x 1.748150 0.000000 0.000000 
#    y 0.000000 1.748150 0.000000 
#    z 0.000000 0.000000 1.769510 
# 
# From -- ./inp_files/4890.got.cif
#   From: 2010.03.12/outbox.cif.g09.slc.cpg/sg105_3_cif.got.tgz:4890.got - 2010.04.14 01:45:32.
