data_PCOD8307903
_publ_section_title
;
Structure prediction by ZEFSAII (Michael W. Deem and Ramdas Pophale) SiO2 
 PCOD8307903
Probable space group: I 41 M D
;
_chemical_formula_sum "Si O2"
_cell_formula_units_Z 48
_cell_length_a 7.772094
_cell_length_b 7.772094
_cell_length_c 38.226966
_cell_angle_alpha 90.000000
_cell_angle_beta 90.000000
_cell_angle_gamma 90.000000
_cell_volume 2309.116898
_symmetry_space_group_name_H-M "I 41 M D"
_symmetry_group_IT_number 109
_symmetry_cell_setting 'tetragonal'
loop_
_space_group_symop_operation_xyz
x,y,z
-y,1/2+x,1/4+z
-x,-y,z
y,1/2-x,1/4+z
-x,y,z
x,-y,z
-y,1/2-x,1/4+z
y,1/2+x,1/4+z
1/2+x,1/2+y,1/2+z
1/2-y,x,3/4+z
1/2-x,1/2-y,1/2+z
1/2+y,-x,3/4+z
1/2-x,1/2+y,1/2+z
1/2+x,1/2-y,1/2+z
1/2-y,-x,3/4+z
1/2+y,x,3/4+z
loop_
_atom_site_type_symbol
_atom_site_label
_atom_site_fract_x
_atom_site_fract_y
_atom_site_fract_z
Si Si1 0.500000 0.797330 0.168200
Si Si2 0.702670 0.000000 0.498562
Si Si3 0.309716 0.796106 0.794229
Si Si4 0.809716 0.796106 0.122534
O O1 0.500000 0.750000 0.208381
O O2 0.671224 0.719435 0.149919
O O3 0.500000 0.000000 0.162839
O O4 0.780565 0.171224 0.516844
O O5 0.500000 0.000000 0.503923
O O6 0.500000 0.717917 0.786267
O O7 0.248041 0.748041 0.833381
O O8 0.321224 0.000000 0.791105
O O9 0.000000 0.717917 0.130496
O O10 0.821224 0.000000 0.125658
#
# Coordination Sequence:
#
# PCOD8307903 Si02
#       4
#     8   8  16  16
#     4  10  20  34  50  74 110 138 168 218 274 320
#     4  10  20  34  50  74 110 138 168 218 274 320
#     4   8  15  31  54  74  96 134 179 218 260 313
#     4   8  15  31  54  74  96 134 179 218 260 313
#
# _framework density 20.787165000000002
#
# number of rings (size 3 to 8) (size 9 to 14) (size 15 to 20)
#    0.000    3.333    0.000    2.000    0.000    1.333 
#    6.000    0.000    0.000    0.000    0.000    0.000 
#    0.000    0.000    0.000    0.000    0.000    0.000 
#
# Total GULP energy -297414.379118 kJ/mol
# GULP energy per Si atom -12392.265797 kJ/mol
# Density = 2.073985 g / cm^3
# Si number density = 20.787165 Si / 1000 Ang^3
#
#
#
# Elastic Constant Matrix: (Units=GPa)
#
#
# Indices 1 2 3 4 5 6 
#
# 1 87.2077 27.0186 66.3016 0.0000 0.0000 0.0000
# 2 27.0186 87.2077 66.3016 0.0000 0.0000 0.0000
# 3 66.3016 66.3016 192.1364 0.0000 0.0000 0.0000
# 4 0.0000 0.0000 0.0000 33.8849 0.0000 0.0000
# 5 0.0000 0.0000 0.0000 0.0000 33.8849 0.0000
# 6 0.0000 0.0000 0.0000 0.0000 0.0000 5.7324
#
#
#
# Elastic Compliance Matrix: (Units=1/GPa)
#
#
# Indices 1 2 3 4 5 6 
#
# 1 0.015610 -0.001004 -0.005040 0.000000 0.000000 0.000000
# 2 -0.001004 0.015610 -0.005040 0.000000 0.000000 0.000000
# 3 -0.005040 -0.005040 0.008683 0.000000 0.000000 0.000000
# 4 0.000000 0.000000 0.000000 0.029512 0.000000 0.000000
# 5 0.000000 0.000000 0.000000 0.000000 0.029512 0.000000
# 6 0.000000 0.000000 0.000000 0.000000 0.000000 0.174447
#
#
# Mechanical properties :
#
#
# Convention : Reuss Voigt Hill
#
# Bulk Modulus (GPa) = 56.38933 76.19948 66.29440
# Shear Modulus (GPa) = 16.58632 28.49578 22.54105
#
# Velocity S-wave (km/s) = 2.82780 3.70650 3.29655
# Velocity P-wave (km/s) = 6.15206 7.41984 6.81549
#
# Compressibility (1/GPa) = 0.01773385
#
# Stress axis : x y z
#
# Youngs Moduli (GPa) = 64.06225 64.06225 115.16807
#
# Poissons Ratio (x) = 0.06435 0.58044
# Poissons Ratio (y) = 0.06435 0.58044
# Poissons Ratio (z) = 0.32287 0.32287
#
# Static dielectric constant tensor:
#      x y z
#    x 4.605680 0.000000 0.000000 
#    y 0.000000 4.605680 0.000000 
#    z 0.000000 0.000000 5.705870 
# 
# 
# High freq. dielectric constant tensor:
#      x y z
#    x 1.794550 0.000000 0.000000 
#    y 0.000000 1.794550 0.000000 
#    z 0.000000 0.000000 1.803240 
# 
# From -- ./inp_files/5256.got.cif
#   From: 2010.03.12/outbox.cif.g09.slc.cpg/sg109_3_cif.got.tgz:5256.got - 2010.04.14 01:55:16.
