data_PCOD8307827
_publ_section_title
;
Structure prediction by ZEFSAII (Michael W. Deem and Ramdas Pophale) SiO2 
 PCOD8307827
Probable space group: I 41 M D
;
_chemical_formula_sum "Si O2"
_cell_formula_units_Z 112
_cell_length_a 22.540506
_cell_length_b 22.540506
_cell_length_c 15.197820
_cell_angle_alpha 90.000000
_cell_angle_beta 90.000000
_cell_angle_gamma 90.000000
_cell_volume 7721.623441
_symmetry_space_group_name_H-M "I 41 M D"
_symmetry_group_IT_number 109
_symmetry_cell_setting 'tetragonal'
loop_
_space_group_symop_operation_xyz
x,y,z
-y,1/2+x,1/4+z
-x,-y,z
y,1/2-x,1/4+z
-x,y,z
x,-y,z
-y,1/2-x,1/4+z
y,1/2+x,1/4+z
1/2+x,1/2+y,1/2+z
1/2-y,x,3/4+z
1/2-x,1/2-y,1/2+z
1/2+y,-x,3/4+z
1/2-x,1/2+y,1/2+z
1/2+x,1/2-y,1/2+z
1/2-y,-x,3/4+z
1/2+y,x,3/4+z
loop_
_atom_site_type_symbol
_atom_site_label
_atom_site_fract_x
_atom_site_fract_y
_atom_site_fract_z
Si Si1 0.932766 0.067545 0.408430
Si Si2 0.264191 0.836774 0.547545
Si Si3 0.566945 0.837710 0.027448
Si Si4 0.068382 0.233521 0.653228
Si Si5 0.843796 0.715432 0.401423
Si Si6 0.669294 0.869274 0.255363
Si Si7 0.789606 0.713989 0.221627
O O1 0.905695 0.070736 0.309691
O O2 0.892116 0.106517 0.471641
O O3 0.000000 0.091257 0.404424
O O4 0.930099 0.000000 0.443555
O O5 0.282031 0.894019 0.490478
O O6 0.193011 0.835546 0.555719
O O7 0.289121 0.777667 0.503728
O O8 0.293841 0.836473 0.645261
O O9 0.500000 0.819832 0.000390
O O10 0.587160 0.797226 0.111467
O O11 0.608441 0.829429 0.942918
O O12 0.081301 0.186954 0.576411
O O13 0.000000 0.231354 0.681216
O O14 0.863104 0.782862 0.425701
O O15 0.839659 0.704198 0.296522
O O16 0.779858 0.698685 0.437749
#
# Coordination Sequence:
#
# PCOD8307827 Si02
#       7
#    16  16  16  16  16  16  16
#     4  10  19  29  42  62  88 116 143 169 205 255
#     4  10  16  26  41  61  85 112 138 176 209 253
#     4   9  17  28  42  62  87 114 141 171 212 258
#     4  10  18  27  41  62  87 116 143 171 211 255
#     4   9  17  27  43  62  85 112 141 177 211 253
#     4  10  17  27  43  61  88 112 139 174 208 255
#     4   9  17  26  41  63  83 111 144 175 214 246
#
# _framework density 14.504721999999999
#
# number of rings (size 3 to 8) (size 9 to 14) (size 15 to 20)
#    0.000    2.429    2.857    1.286    4.000    0.571 
#    0.000    0.000    0.000    0.857    0.000    4.000 
#    0.000    0.000    0.000    0.000    0.000    0.000 
#
# Total GULP energy -693948.951903 kJ/mol
# GULP energy per Si atom -12391.945570 kJ/mol
# Density = 1.447171 g / cm^3
# Si number density = 14.504722 Si / 1000 Ang^3
#
#
#
# Elastic Constant Matrix: (Units=GPa)
#
#
# Indices 1 2 3 4 5 6 
#
# 1 58.7442 18.9159 41.3263 0.0000 0.0000 0.0000
# 2 18.9159 58.7442 41.3263 0.0000 0.0000 0.0000
# 3 41.3263 41.3263 106.7157 0.0000 0.0000 0.0000
# 4 0.0000 0.0000 0.0000 21.6928 0.0000 0.0000
# 5 0.0000 0.0000 0.0000 0.0000 21.6928 0.0000
# 6 0.0000 0.0000 0.0000 0.0000 0.0000 14.9836
#
#
#
# Elastic Compliance Matrix: (Units=1/GPa)
#
#
# Indices 1 2 3 4 5 6 
#
# 1 0.023506 -0.001602 -0.008483 0.000000 0.000000 0.000000
# 2 -0.001602 0.023506 -0.008483 0.000000 0.000000 0.000000
# 3 -0.008483 -0.008483 0.015941 0.000000 0.000000 0.000000
# 4 0.000000 0.000000 0.000000 0.046098 0.000000 0.000000
# 5 0.000000 0.000000 0.000000 0.000000 0.046098 0.000000
# 6 0.000000 0.000000 0.000000 0.000000 0.000000 0.066740
#
#
# Mechanical properties :
#
#
# Convention : Reuss Voigt Hill
#
# Bulk Modulus (GPa) = 38.73095 47.48235 43.10665
# Shear Modulus (GPa) = 18.68251 19.84952 19.26602
#
# Velocity S-wave (km/s) = 3.59281 3.70332 3.64848
# Velocity P-wave (km/s) = 6.63108 7.14793 6.89435
#
# Compressibility (1/GPa) = 0.02581914
#
# Stress axis : x y z
#
# Youngs Moduli (GPa) = 42.54189 42.54189 62.73264
#
# Poissons Ratio (x) = 0.06813 0.53214
# Poissons Ratio (y) = 0.06813 0.53214
# Poissons Ratio (z) = 0.36087 0.36087
#
# Static dielectric constant tensor:
#      x y z
#    x 2.736400 0.000000 0.000000 
#    y 0.000000 2.736400 0.000000 
#    z 0.000000 0.000000 2.852730 
# 
# 
# High freq. dielectric constant tensor:
#      x y z
#    x 1.539160 0.000000 0.000000 
#    y 0.000000 1.539160 0.000000 
#    z 0.000000 0.000000 1.536990 
# 
# From -- ./inp_files/3268.got.cif
#   From: 2010.03.12/outbox.cif.g09.slc.cpg/sg109_2_cif.got.tgz:3268.got - 2010.04.14 01:55:16.
