data_PCOD8307580
_publ_section_title
;
Structure prediction by ZEFSAII (Michael W. Deem and Ramdas Pophale) SiO2 
 PCOD8307580
Probable space group: I 4 M M
;
_chemical_formula_sum "Si O2"
_cell_formula_units_Z 112
_cell_length_a 24.695674
_cell_length_b 24.695674
_cell_length_c 10.425216
_cell_angle_alpha 90.000000
_cell_angle_beta 90.000000
_cell_angle_gamma 90.000000
_cell_volume 6358.092310
_symmetry_space_group_name_H-M "I 4 M M"
_symmetry_group_IT_number 107
_symmetry_cell_setting 'tetragonal'
loop_
_space_group_symop_operation_xyz
x,y,z
-y,x,z
-x,-y,z
y,-x,z
-x,y,z
x,-y,z
-y,-x,z
y,x,z
1/2+x,1/2+y,1/2+z
1/2-y,1/2+x,1/2+z
1/2-x,1/2-y,1/2+z
1/2+y,1/2-x,1/2+z
1/2-x,1/2+y,1/2+z
1/2+x,1/2-y,1/2+z
1/2-y,1/2-x,1/2+z
1/2+y,1/2+x,1/2+z
loop_
_atom_site_type_symbol
_atom_site_label
_atom_site_fract_x
_atom_site_fract_y
_atom_site_fract_z
Si Si1 0.939363 0.146518 0.154060
Si Si2 0.756368 0.439020 0.261612
Si Si3 0.938949 0.373164 0.829172
Si Si4 0.563461 0.232514 0.714712
Si Si5 0.061171 0.300065 0.499268
Si Si6 0.899272 0.374312 0.097542
Si Si7 0.939501 0.144752 0.852506
O O1 0.897734 0.102267 0.213883
O O2 0.917708 0.206941 0.181822
O O3 0.000000 0.138325 0.212656
O O4 0.942125 0.138303 0.003530
O O5 0.755640 0.500000 0.316011
O O6 0.812646 0.413066 0.313832
O O7 0.753114 0.437799 0.106635
O O8 0.702325 0.411133 0.317004
O O9 0.905501 0.412806 0.732011
O O10 0.000000 0.373818 0.776932
O O11 0.938415 0.390784 0.978396
O O12 0.500000 0.224093 0.685626
O O13 0.596405 0.189808 0.626677
O O14 0.577597 0.224060 0.863318
O O15 0.107502 0.341496 0.543265
O O16 0.000000 0.325567 0.494582
O O17 0.902817 0.097184 0.792670
O O18 0.000000 0.140077 0.793189
#
# Coordination Sequence:
#
# PCOD8307580 Si02
#       7
#    16  16  16  16  16  16  16
#     4   9  18  32  52  79 108 136 168 209 257 310
#     4   8  15  29  47  67  92 122 164 209 246 290
#     4  10  20  32  50  72  96 129 170 218 262 308
#     4  10  19  32  53  76 100 134 178 218 257 312
#     4   9  18  32  50  73  99 130 171 219 264 310
#     4  11  18  32  51  76  98 131 175 217 267 316
#     4   9  16  27  45  71 101 131 162 199 247 301
#
# _framework density 17.615345999999999
#
# number of rings (size 3 to 8) (size 9 to 14) (size 15 to 20)
#    0.000    2.571    1.429    2.571    0.000    2.571 
#    0.000    2.143    0.000   14.571    0.000    0.000 
#    0.000    5.714    0.000    0.000    0.000    0.000 
#
# Total GULP energy -693749.712969 kJ/mol
# GULP energy per Si atom -12388.387732 kJ/mol
# Density = 1.757525 g / cm^3
# Si number density = 17.615346 Si / 1000 Ang^3
#
#
#
# Elastic Constant Matrix: (Units=GPa)
#
#
# Indices 1 2 3 4 5 6 
#
# 1 82.9359 56.1522 23.8518 0.0000 0.0000 -0.0012
# 2 56.1522 82.9359 23.8518 0.0000 0.0000 0.0012
# 3 23.8518 23.8518 84.0406 0.0000 0.0000 0.0000
# 4 0.0000 0.0000 0.0000 19.6255 0.0000 0.0000
# 5 0.0000 0.0000 0.0000 0.0000 19.6255 0.0000
# 6 -0.0012 0.0012 0.0000 0.0000 0.0000 19.7943
#
#
#
# Elastic Compliance Matrix: (Units=1/GPa)
#
#
# Indices 1 2 3 4 5 6 
#
# 1 0.022651 -0.014686 -0.002261 0.000000 0.000000 0.000002
# 2 -0.014686 0.022651 -0.002261 0.000000 0.000000 -0.000002
# 3 -0.002261 -0.002261 0.013182 0.000000 0.000000 0.000000
# 4 0.000000 0.000000 0.000000 0.050954 0.000000 0.000000
# 5 0.000000 0.000000 0.000000 0.000000 0.050954 0.000000
# 6 0.000002 -0.000002 0.000000 0.000000 0.000000 0.050520
#
#
# Mechanical properties :
#
#
# Convention : Reuss Voigt Hill
#
# Bulk Modulus (GPa) = 49.82584 50.84709 50.33646
# Shear Modulus (GPa) = 19.53015 21.54619 20.53817
#
# Velocity S-wave (km/s) = 3.33333 3.50115 3.41827
# Velocity P-wave (km/s) = 6.56975 6.72844 6.64957
#
# Compressibility (1/GPa) = 0.02006991
#
# Stress axis : x y z
#
# Youngs Moduli (GPa) = 44.14893 44.14893 75.86005
#
# Poissons Ratio (x) = 0.64835 0.17149
# Poissons Ratio (y) = 0.64835 0.17149
# Poissons Ratio (z) = 0.09980 0.09980
#
# Static dielectric constant tensor:
#      x y z
#    x 3.287190 0.000000 0.000000 
#    y 0.000000 3.287190 0.000000 
#    z 0.000000 0.000000 3.421360 
# 
# 
# High freq. dielectric constant tensor:
#      x y z
#    x 1.655910 0.000000 0.000000 
#    y 0.000000 1.655910 0.000000 
#    z 0.000000 0.000000 1.684060 
# 
# From -- ./inp_files/2604.got.cif
#   From: 2010.03.12/outbox.cif.g09.slc.cpg/sg107_2_cif.got.tgz:2604.got - 2010.04.14 01:49:11.
