data_PCOD8307731
_publ_section_title
;
Structure prediction by ZEFSAII (Michael W. Deem and Ramdas Pophale) SiO2 
 PCOD8307731
Probable space group: I 4 C M
;
_chemical_formula_sum "Si O2"
_cell_formula_units_Z 128
_cell_length_a 25.188601
_cell_length_b 25.188601
_cell_length_c 10.628416
_cell_angle_alpha 90.000000
_cell_angle_beta 90.000000
_cell_angle_gamma 90.000000
_cell_volume 6743.364551
_symmetry_space_group_name_H-M "I 4 C M"
_symmetry_group_IT_number 108
_symmetry_cell_setting 'tetragonal'
loop_
_space_group_symop_operation_xyz
x,y,z
-y,x,z
-x,-y,z
y,-x,z
-x,y,1/2+z
x,-y,1/2+z
-y,-x,1/2+z
y,x,1/2+z
1/2+x,1/2+y,1/2+z
1/2-y,1/2+x,1/2+z
1/2-x,1/2-y,1/2+z
1/2+y,1/2-x,1/2+z
1/2-x,1/2+y,z
1/2+x,1/2-y,z
1/2-y,1/2-x,z
1/2+y,1/2+x,z
loop_
_atom_site_type_symbol
_atom_site_label
_atom_site_fract_x
_atom_site_fract_y
_atom_site_fract_z
Si Si1 0.835775 0.162555 0.019780
Si Si2 0.999924 0.586844 0.584311
Si Si3 0.052887 0.162669 0.925875
Si Si4 0.808804 0.223049 0.264925
Si Si5 0.312984 0.451641 0.561029
Si Si6 0.472949 0.416510 0.227367
Si Si7 0.868548 0.542480 0.835138
Si Si8 0.757891 0.418549 0.259481
O O1 0.810392 0.179541 0.153166
O O2 0.894675 0.184972 0.994787
O O3 0.841988 0.098340 0.032035
O O4 0.801653 0.184861 0.903843
O O5 0.051084 0.551084 0.610300
O O6 0.007869 0.622713 0.460480
O O7 0.948743 0.551258 0.556267
O O8 0.991821 0.621619 0.709386
O O9 0.037839 0.104993 0.868735
O O10 0.080809 0.200964 0.826786
O O11 0.999532 0.192916 0.964751
O O12 0.752536 0.252536 0.259791
O O13 0.855601 0.266107 0.236228
O O14 0.367813 0.461529 0.635576
O O15 0.256452 0.452665 0.635642
O O16 0.533813 0.433967 0.206274
O O17 0.906359 0.593642 0.835695
O O18 0.807325 0.559129 0.836278
#
# Coordination Sequence:
#
# PCOD8307731 Si02
#       8
#    16  16  16  16  16  16  16  16
#     4  10  21  36  58  85 108 140 192 226 280 337
#     4   9  18  32  54  82 108 140 180 221 268 324
#     4  10  20  34  52  76 108 146 184 232 273 329
#     4  10  20  38  60  82 108 139 185 238 283 326
#     4  10  20  34  52  76 108 146 184 232 273 329
#     4  10  20  33  51  77 110 149 190 229 276 329
#     4  10  19  33  54  77 109 143 178 224 268 324
#     4   9  21  33  50  78 103 146 183 218 277 337
#
# _framework density 18.981622000000002
#
# number of rings (size 3 to 8) (size 9 to 14) (size 15 to 20)
#    0.000    2.250    0.000    3.375    1.750    3.500 
#    0.000    1.250    0.000    0.000    0.000    0.000 
#    0.000    0.000    0.000    0.000    0.000    0.000 
#
# Total GULP energy -792990.174963 kJ/mol
# GULP energy per Si atom -12390.471484 kJ/mol
# Density = 1.893842 g / cm^3
# Si number density = 18.981622 Si / 1000 Ang^3
#
#
#
# Elastic Constant Matrix: (Units=GPa)
#
#
# Indices 1 2 3 4 5 6 
#
# 1 71.3313 6.2765 17.9212 0.0000 0.0000 -0.0004
# 2 6.2765 71.3313 17.9212 0.0000 0.0000 0.0004
# 3 17.9212 17.9212 77.2052 0.0000 0.0000 0.0000
# 4 0.0000 0.0000 0.0000 25.6803 0.0000 0.0000
# 5 0.0000 0.0000 0.0000 0.0000 25.6803 0.0000
# 6 -0.0004 0.0004 0.0000 0.0000 0.0000 22.6834
#
#
#
# Elastic Compliance Matrix: (Units=1/GPa)
#
#
# Indices 1 2 3 4 5 6 
#
# 1 0.014902 -0.000470 -0.003350 0.000000 0.000000 0.000000
# 2 -0.000470 0.014902 -0.003350 0.000000 0.000000 0.000000
# 3 -0.003350 -0.003350 0.014508 0.000000 0.000000 0.000000
# 4 0.000000 0.000000 0.000000 0.038940 0.000000 0.000000
# 5 0.000000 0.000000 0.000000 0.000000 0.038940 0.000000
# 6 0.000000 0.000000 0.000000 0.000000 0.000000 0.044085
#
#
# Mechanical properties :
#
#
# Convention : Reuss Voigt Hill
#
# Bulk Modulus (GPa) = 33.36412 33.78948 33.57680
# Shear Modulus (GPa) = 26.23183 26.65874 26.44529
#
# Velocity S-wave (km/s) = 3.72150 3.75167 3.73662
# Velocity P-wave (km/s) = 6.00678 6.05033 6.02859
#
# Compressibility (1/GPa) = 0.02997232
#
# Stress axis : x y z
#
# Youngs Moduli (GPa) = 67.10469 67.10469 68.92851
#
# Poissons Ratio (x) = 0.03151 0.23092
# Poissons Ratio (y) = 0.03151 0.23092
# Poissons Ratio (z) = 0.22481 0.22481
#
# Static dielectric constant tensor:
#      x y z
#    x 3.460290 0.000000 0.000000 
#    y 0.000000 3.460290 0.000000 
#    z 0.000000 0.000000 3.538290 
# 
# 
# High freq. dielectric constant tensor:
#      x y z
#    x 1.734860 0.000000 0.000000 
#    y 0.000000 1.734860 0.000000 
#    z 0.000000 0.000000 1.734580 
# 
# From -- ./inp_files/1615.got.cif
#   From: 2010.03.12/outbox.cif.g09.slc.cpg/sg108_1_cif.got.tgz:1615.got - 2010.04.14 01:53:11.
