data_PCOD8307213
_publ_section_title
;
Structure prediction by ZEFSAII (Michael W. Deem and Ramdas Pophale) SiO2 
 PCOD8307213
Probable space group: P 42 M C
;
_chemical_formula_sum "Si O2"
_cell_formula_units_Z 48
_cell_length_a 9.334320
_cell_length_b 9.334320
_cell_length_c 30.900880
_cell_angle_alpha 90.000000
_cell_angle_beta 90.000000
_cell_angle_gamma 90.000000
_cell_volume 2692.379147
_symmetry_space_group_name_H-M "P 42 M C"
_symmetry_group_IT_number 105
_symmetry_cell_setting 'tetragonal'
loop_
_space_group_symop_operation_xyz
x,y,z
-y,x,1/2+z
-x,-y,z
y,-x,1/2+z
-x,y,z
x,-y,z
-y,-x,1/2+z
y,x,1/2+z
loop_
_atom_site_type_symbol
_atom_site_label
_atom_site_fract_x
_atom_site_fract_y
_atom_site_fract_z
Si Si1 0.341167 0.670004 0.468640
Si Si2 0.338569 0.330812 0.064235
Si Si3 0.161431 0.830813 0.635012
Si Si4 0.330889 0.165742 0.886754
Si Si5 0.841167 0.170004 0.230607
Si Si6 0.169111 0.665743 0.812494
O O1 0.500000 0.731588 0.457806
O O2 0.350606 0.500000 0.469568
O O3 0.290052 0.720627 0.516291
O O4 0.228753 0.722571 0.432682
O O5 0.500000 0.272911 0.070517
O O6 0.334917 0.500000 0.069958
O O7 0.237697 0.262303 0.099624
O O8 0.220626 0.790052 0.682957
O O9 0.000000 0.772914 0.628731
O O10 0.165086 0.000000 0.629290
O O11 0.500000 0.187640 0.880672
O O12 0.250001 0.250000 0.849624
O O13 0.287334 0.000000 0.884995
O O14 0.728753 0.222570 0.266565
O O15 0.000000 0.231589 0.241441
O O16 0.850607 0.000000 0.229679
O O17 0.212664 0.500000 0.814252
O O18 0.000000 0.687642 0.818576
#
# Coordination Sequence:
#
# PCOD8307213 Si02
#       6
#     8   8   8   8   8   8
#     4   8  15  30  50  69  93 127 163 199 240 285
#     4   9  18  32  50  73  99 127 161 199 240 288
#     4   9  18  32  50  73  99 127 161 199 240 288
#     4  10  20  33  51  75 100 127 162 202 244 292
#     4   8  15  30  50  69  93 127 163 199 240 285
#     4  10  20  33  51  75 100 127 162 202 244 292
#
# _framework density 17.828098000000001
#
# number of rings (size 3 to 8) (size 9 to 14) (size 15 to 20)
#    0.000    3.000    0.000    3.000    0.000    4.000 
#    0.000    5.000    0.000    2.000    0.000    0.000 
#    0.000    0.000    0.000    0.000    0.000    0.000 
#
# Total GULP energy -594997.194112 kJ/mol
# GULP energy per Si atom -12395.774877 kJ/mol
# Density = 1.778752 g / cm^3
# Si number density = 17.828098 Si / 1000 Ang^3
#
#
#
# Elastic Constant Matrix: (Units=GPa)
#
#
# Indices 1 2 3 4 5 6 
#
# 1 64.3222 35.5581 67.2943 0.0000 0.0000 0.0000
# 2 35.5581 64.3222 67.2943 0.0000 0.0000 0.0000
# 3 67.2943 67.2943 178.7507 0.0000 0.0000 0.0000
# 4 0.0000 0.0000 0.0000 32.6059 0.0000 0.0000
# 5 0.0000 0.0000 0.0000 0.0000 32.6059 0.0000
# 6 0.0000 0.0000 0.0000 0.0000 0.0000 25.8804
#
#
#
# Elastic Compliance Matrix: (Units=1/GPa)
#
#
# Indices 1 2 3 4 5 6 
#
# 1 0.027543 -0.007223 -0.007650 0.000000 0.000000 0.000000
# 2 -0.007223 0.027543 -0.007650 0.000000 0.000000 0.000000
# 3 -0.007650 -0.007650 0.011354 0.000000 0.000000 0.000000
# 4 0.000000 0.000000 0.000000 0.030669 0.000000 0.000000
# 5 0.000000 0.000000 0.000000 0.000000 0.030669 0.000000
# 6 0.000000 0.000000 0.000000 0.000000 0.000000 0.038639
#
#
# Mechanical properties :
#
#
# Convention : Reuss Voigt Hill
#
# Bulk Modulus (GPa) = 46.73974 71.96539 59.35256
# Shear Modulus (GPa) = 22.87333 27.36833 25.12083
#
# Velocity S-wave (km/s) = 3.58578 3.92232 3.75782
# Velocity P-wave (km/s) = 6.58920 7.80811 7.22441
#
# Compressibility (1/GPa) = 0.02139507
#
# Stress axis : x y z
#
# Youngs Moduli (GPa) = 36.30689 36.30689 88.07169
#
# Poissons Ratio (x) = 0.26223 0.67375
# Poissons Ratio (y) = 0.26223 0.67375
# Poissons Ratio (z) = 0.27775 0.27775
#
# Static dielectric constant tensor:
#      x y z
#    x 2.989490 0.000000 0.000000 
#    y 0.000000 2.989490 0.000000 
#    z 0.000000 0.000000 3.680130 
# 
# 
# High freq. dielectric constant tensor:
#      x y z
#    x 1.669280 0.000000 0.000000 
#    y 0.000000 1.669280 0.000000 
#    z 0.000000 0.000000 1.706700 
# 
# From -- ./inp_files/4713.got.cif
#   From: 2010.03.12/outbox.cif.g09.slc.cpg/sg105_3_cif.got.tgz:4713.got - 2010.04.14 01:45:32.
