data_PCOD8307355
_publ_section_title
;
Structure prediction by ZEFSAII (Michael W. Deem and Ramdas Pophale) SiO2 
 PCOD8307355
Probable space group: P 42 M C
;
_chemical_formula_sum "Si O2"
_cell_formula_units_Z 48
_cell_length_a 9.466754
_cell_length_b 9.466754
_cell_length_c 27.804839
_cell_angle_alpha 90.000000
_cell_angle_beta 90.000000
_cell_angle_gamma 90.000000
_cell_volume 2491.853858
_symmetry_space_group_name_H-M "P 42 M C"
_symmetry_group_IT_number 105
_symmetry_cell_setting 'tetragonal'
loop_
_space_group_symop_operation_xyz
x,y,z
-y,x,1/2+z
-x,-y,z
y,-x,1/2+z
-x,y,z
x,-y,z
-y,-x,1/2+z
y,x,1/2+z
loop_
_atom_site_type_symbol
_atom_site_label
_atom_site_fract_x
_atom_site_fract_y
_atom_site_fract_z
Si Si1 0.724802 0.663775 0.341880
Si Si2 0.171586 0.500000 0.782585
Si Si3 0.844782 0.000000 0.689046
Si Si4 0.834141 0.339336 0.039192
Si Si5 0.500000 0.671290 0.180946
Si Si6 0.000000 0.654376 0.281413
Si Si7 0.840868 0.334190 0.929389
Si Si8 0.835356 0.269253 0.624516
O O1 0.669636 0.500000 0.342260
O O2 0.632484 0.774241 0.312192
O O3 0.872127 0.676898 0.316618
O O4 0.739569 0.723283 0.396000
O O5 0.249130 0.500000 0.731602
O O6 0.000000 0.500000 0.777010
O O7 0.751113 0.000000 0.735612
O O8 0.819023 0.129885 0.654864
O O9 0.000000 0.000000 0.711019
O O10 0.785306 0.500000 0.051272
O O11 0.752329 0.223282 0.070760
O O12 0.000000 0.326009 0.048570
O O13 0.798198 0.302189 0.984179
O O14 0.500000 0.500000 0.187325
O O15 0.631070 0.725310 0.150816
O O16 0.000000 0.500000 0.258255
O O17 0.837186 0.500000 0.919007
O O18 0.000000 0.277682 0.918870
O O19 0.000000 0.321341 0.622625
#
# Coordination Sequence:
#
# PCOD8307355 Si02
#       8
#     8   4   4   8   4   4   8   8
#     4  11  22  39  61  87 121 162 206 253 306 368
#     4  12  24  40  64  92 122 162 206 256 313 370
#     4  10  22  38  62  90 118 156 202 244 299 368
#     4   9  18  35  60  87 115 155 203 253 305 364
#     4  12  26  42  60  90 126 164 210 260 307 374
#     4  10  24  40  56  84 124 158 198 250 297 364
#     4   9  18  35  59  86 115 152 201 254 305 361
#     4  11  22  40  62  89 125 162 202 254 313 374
#
# _framework density 19.262768000000001
#
# number of rings (size 3 to 8) (size 9 to 14) (size 15 to 20)
#    0.000    1.667    1.667    4.500    0.000    5.333 
#    3.000    0.000    0.000    0.000    0.000    0.000 
#    0.000    0.000    0.000    0.000    0.000    0.000 
#
# Total GULP energy -594860.540830 kJ/mol
# GULP energy per Si atom -12392.927934 kJ/mol
# Density = 1.921893 g / cm^3
# Si number density = 19.262768 Si / 1000 Ang^3
#
#
#
# Elastic Constant Matrix: (Units=GPa)
#
#
# Indices 1 2 3 4 5 6 
#
# 1 119.4696 54.9644 61.3995 0.0000 0.0000 0.0000
# 2 54.9644 119.4696 61.3995 0.0000 0.0000 0.0000
# 3 61.3995 61.3995 144.0808 0.0000 0.0000 0.0000
# 4 0.0000 0.0000 0.0000 59.6252 0.0000 0.0000
# 5 0.0000 0.0000 0.0000 0.0000 59.6252 0.0000
# 6 0.0000 0.0000 0.0000 0.0000 0.0000 24.8808
#
#
#
# Elastic Compliance Matrix: (Units=1/GPa)
#
#
# Indices 1 2 3 4 5 6 
#
# 1 0.011846 -0.003656 -0.003490 0.000000 0.000000 0.000000
# 2 -0.003656 0.011846 -0.003490 0.000000 0.000000 0.000000
# 3 -0.003490 -0.003490 0.009915 0.000000 0.000000 0.000000
# 4 0.000000 0.000000 0.000000 0.016771 0.000000 0.000000
# 5 0.000000 0.000000 0.000000 0.000000 0.016771 0.000000
# 6 0.000000 0.000000 0.000000 0.000000 0.000000 0.040192
#
#
# Mechanical properties :
#
#
# Convention : Reuss Voigt Hill
#
# Bulk Modulus (GPa) = 81.07365 82.06073 81.56719
# Shear Modulus (GPa) = 37.67145 42.51001 40.09073
#
# Velocity S-wave (km/s) = 4.42708 4.70281 4.56703
# Velocity P-wave (km/s) = 8.26509 8.49598 8.38133
#
# Compressibility (1/GPa) = 0.01233446
#
# Stress axis : x y z
#
# Youngs Moduli (GPa) = 84.41528 84.41528 100.85646
#
# Poissons Ratio (x) = 0.30866 0.35199
# Poissons Ratio (y) = 0.30866 0.35199
# Poissons Ratio (z) = 0.29461 0.29461
#
# Static dielectric constant tensor:
#      x y z
#    x 3.604680 0.000000 0.000000 
#    y 0.000000 3.604680 0.000000 
#    z 0.000000 0.000000 3.760930 
# 
# 
# High freq. dielectric constant tensor:
#      x y z
#    x 1.747710 0.000000 0.000000 
#    y 0.000000 1.747710 0.000000 
#    z 0.000000 0.000000 1.764560 
# 
# From -- ./inp_files/4920.got.cif
#   From: 2010.03.12/outbox.cif.g09.slc.cpg/sg105_3_cif.got.tgz:4920.got - 2010.04.14 01:45:32.
