data_PCOD8307632
_publ_section_title
;
Structure prediction by ZEFSAII (Michael W. Deem and Ramdas Pophale) SiO2 
 PCOD8307632
Probable space group: I 4 M M
;
_chemical_formula_sum "Si O2"
_cell_formula_units_Z 128
_cell_length_a 23.467184
_cell_length_b 23.467184
_cell_length_c 12.996122
_cell_angle_alpha 90.000000
_cell_angle_beta 90.000000
_cell_angle_gamma 90.000000
_cell_volume 7157.077775
_symmetry_space_group_name_H-M "I 4 M M"
_symmetry_group_IT_number 107
_symmetry_cell_setting 'tetragonal'
loop_
_space_group_symop_operation_xyz
x,y,z
-y,x,z
-x,-y,z
y,-x,z
-x,y,z
x,-y,z
-y,-x,z
y,x,z
1/2+x,1/2+y,1/2+z
1/2-y,1/2+x,1/2+z
1/2-x,1/2-y,1/2+z
1/2+y,1/2-x,1/2+z
1/2-x,1/2+y,1/2+z
1/2+x,1/2-y,1/2+z
1/2-y,1/2-x,1/2+z
1/2+y,1/2+x,1/2+z
loop_
_atom_site_type_symbol
_atom_site_label
_atom_site_fract_x
_atom_site_fract_y
_atom_site_fract_z
Si Si1 0.252887 0.435913 0.541670
Si Si2 0.658851 0.433761 0.905499
Si Si3 0.865708 0.228503 0.242622
Si Si4 0.064425 0.156239 0.637579
Si Si5 0.064598 0.436814 0.397061
Si Si6 0.252789 0.566087 0.311556
Si Si7 0.938304 0.374056 0.094958
Si Si8 0.638746 0.143567 0.272940
O O1 0.271676 0.500000 0.572272
O O2 0.276513 0.393448 0.629062
O O3 0.276290 0.420638 0.427129
O O4 0.184689 0.430993 0.531923
O O5 0.648132 0.500000 0.881427
O O6 0.599118 0.400883 0.889060
O O7 0.706056 0.409847 0.827641
O O8 0.681430 0.424367 0.022659
O O9 0.807586 0.192415 0.243220
O O10 0.850881 0.293035 0.273953
O O11 0.100745 0.100745 0.658498
O O12 0.079534 0.200646 0.725981
O O13 0.000000 0.135696 0.646982
O O14 0.081388 0.500000 0.352164
O O15 0.072292 0.438750 0.519482
O O16 0.103266 0.384301 0.362500
O O17 0.000000 0.422771 0.369035
O O18 0.232218 0.500000 0.306484
O O19 0.204304 0.610306 0.282203
O O20 0.885711 0.383076 0.169356
O O21 0.000000 0.371991 0.153522
#
# Coordination Sequence:
#
# PCOD8307632 Si02
#       8
#    16  16  16  16  16  16  16  16
#     4   9  17  34  58  76  98 137 182 225 270 320
#     4   9  18  35  57  82 114 143 175 222 272 330
#     4  10  22  37  53  79 109 141 185 231 275 323
#     4   9  19  35  56  83 110 139 173 212 265 324
#     4  10  20  33  50  75 106 137 175 223 268 312
#     4  10  20  35  56  79 106 142 183 225 267 320
#     4   9  18  33  50  72 100 133 176 222 267 316
#     4  11  21  34  54  73 104 142 179 218 269 322
#
# _framework density 17.884394
#
# number of rings (size 3 to 8) (size 9 to 14) (size 15 to 20)
#    0.000    2.375    1.250    1.125    0.000    4.750 
#    0.000    3.750    0.000    0.000    0.000    0.000 
#    0.000    3.000    0.000    0.000    0.000    0.000 
#
# Total GULP energy -793175.842188 kJ/mol
# GULP energy per Si atom -12393.372534 kJ/mol
# Density = 1.784369 g / cm^3
# Si number density = 17.884394 Si / 1000 Ang^3
#
#
#
# Elastic Constant Matrix: (Units=GPa)
#
#
# Indices 1 2 3 4 5 6 
#
# 1 99.2734 67.0247 59.7653 0.0000 0.0000 -0.0003
# 2 67.0247 99.2734 59.7653 0.0000 0.0000 0.0003
# 3 59.7653 59.7653 116.7079 0.0000 0.0000 0.0000
# 4 0.0000 0.0000 0.0000 35.7281 0.0000 0.0000
# 5 0.0000 0.0000 0.0000 0.0000 35.7281 0.0000
# 6 -0.0003 0.0003 0.0000 0.0000 0.0000 41.7172
#
#
#
# Elastic Compliance Matrix: (Units=1/GPa)
#
#
# Indices 1 2 3 4 5 6 
#
# 1 0.020262 -0.010747 -0.004873 0.000000 0.000000 0.000000
# 2 -0.010747 0.020262 -0.004873 0.000000 0.000000 0.000000
# 3 -0.004873 -0.004873 0.013559 0.000000 0.000000 0.000000
# 4 0.000000 0.000000 0.000000 0.027989 0.000000 0.000000
# 5 0.000000 0.000000 0.000000 0.000000 0.027989 0.000000
# 6 0.000000 0.000000 0.000000 0.000000 0.000000 0.023971
#
#
# Mechanical properties :
#
#
# Convention : Reuss Voigt Hill
#
# Bulk Modulus (GPa) = 76.34180 76.48501 76.41340
# Shear Modulus (GPa) = 27.87303 31.21464 29.54384
#
# Velocity S-wave (km/s) = 3.95208 4.18228 4.06881
# Velocity P-wave (km/s) = 7.97522 8.13518 8.05560
#
# Compressibility (1/GPa) = 0.01309898
#
# Stress axis : x y z
#
# Youngs Moduli (GPa) = 49.35244 49.35244 73.75024
#
# Poissons Ratio (x) = 0.53037 0.35939
# Poissons Ratio (y) = 0.53037 0.35939
# Poissons Ratio (z) = 0.24050 0.24050
#
# Static dielectric constant tensor:
#      x y z
#    x 3.188940 0.000000 0.000000 
#    y 0.000000 3.188940 0.000000 
#    z 0.000000 0.000000 3.454310 
# 
# 
# High freq. dielectric constant tensor:
#      x y z
#    x 1.683230 0.000000 0.000000 
#    y 0.000000 1.683230 0.000000 
#    z 0.000000 0.000000 1.699860 
# 
# From -- ./inp_files/2692.got.cif
#   From: 2010.03.12/outbox.cif.g09.slc.cpg/sg107_2_cif.got.tgz:2692.got - 2010.04.14 01:49:11.
