data_PCOD8307684
_publ_section_title
;
Structure prediction by ZEFSAII (Michael W. Deem and Ramdas Pophale) SiO2 
 PCOD8307684
Probable space group: I 4 M M
;
_chemical_formula_sum "Si O2"
_cell_formula_units_Z 112
_cell_length_a 14.465779
_cell_length_b 14.465779
_cell_length_c 36.072517
_cell_angle_alpha 90.000000
_cell_angle_beta 90.000000
_cell_angle_gamma 90.000000
_cell_volume 7548.490252
_symmetry_space_group_name_H-M "I 4 M M"
_symmetry_group_IT_number 107
_symmetry_cell_setting 'tetragonal'
loop_
_space_group_symop_operation_xyz
x,y,z
-y,x,z
-x,-y,z
y,-x,z
-x,y,z
x,-y,z
-y,-x,z
y,x,z
1/2+x,1/2+y,1/2+z
1/2-y,1/2+x,1/2+z
1/2-x,1/2-y,1/2+z
1/2+y,1/2-x,1/2+z
1/2-x,1/2+y,1/2+z
1/2+x,1/2-y,1/2+z
1/2-y,1/2-x,1/2+z
1/2+y,1/2+x,1/2+z
loop_
_atom_site_type_symbol
_atom_site_label
_atom_site_fract_x
_atom_site_fract_y
_atom_site_fract_z
Si Si1 0.393766 0.893568 0.646610
Si Si2 0.396840 0.890750 0.436712
Si Si3 0.392128 0.759782 0.711550
Si Si4 0.242818 0.606714 0.999050
Si Si5 0.891392 0.738187 0.372479
Si Si6 0.245031 0.394302 0.083440
Si Si7 0.895741 0.748320 0.291921
O O1 0.500000 0.873740 0.637212
O O2 0.359673 0.835832 0.682035
O O3 0.337430 0.862938 0.610332
O O4 0.376699 0.000000 0.656639
O O5 0.500000 0.846509 0.436860
O O6 0.341957 0.859313 0.473533
O O7 0.340738 0.856770 0.400599
O O8 0.406208 0.000000 0.435939
O O9 0.500000 0.734887 0.706241
O O10 0.333367 0.666633 0.705524
O O11 0.373521 0.804157 0.752946
O O12 0.268256 0.500000 0.990842
O O13 0.333991 0.666010 0.989902
O O14 0.210675 0.621060 0.041401
O O15 0.831257 0.831257 0.378746
O O16 0.874436 0.695392 0.330790
O O17 0.000000 0.762209 0.378996
O O18 0.273158 0.500000 0.090333
O O19 0.335627 0.335627 0.092501
O O20 0.844494 0.844494 0.292179
O O21 0.000000 0.779931 0.291760
#
# Coordination Sequence:
#
# PCOD8307684 Si02
#       7
#    16  16  16  16  16  16  16
#     4   9  17  28  41  57  77 103 136 170 200 229
#     4   9  17  28  40  54  75 104 134 160 186 217
#     4   9  16  26  40  57  78 103 130 162 199 237
#     4   9  17  28  42  61  83 105 129 157 190 231
#     4   9  16  26  40  58  81 106 131 160 193 232
#     4   9  17  28  42  60  81 104 129 158 193 233
#     4   8  14  23  35  53  76 102 130 158 191 231
#
# _framework density 14.837403
#
# number of rings (size 3 to 8) (size 9 to 14) (size 15 to 20)
#    0.000    3.143    0.000    0.857    0.000    1.286 
#    0.000    7.857    0.000    6.857    0.000    0.000 
#    0.000    4.571    0.000   10.571    0.000   34.000 
#
# Total GULP energy -693793.699900 kJ/mol
# GULP energy per Si atom -12389.173213 kJ/mol
# Density = 1.480363 g / cm^3
# Si number density = 14.837403 Si / 1000 Ang^3
#
#
#
# Elastic Constant Matrix: (Units=GPa)
#
#
# Indices 1 2 3 4 5 6 
#
# 1 63.7692 36.6022 57.8305 0.0000 0.0000 -0.0002
# 2 36.6022 63.7692 57.8305 0.0000 0.0000 0.0002
# 3 57.8305 57.8305 137.2655 0.0000 0.0000 0.0000
# 4 0.0000 0.0000 0.0000 22.5856 0.0000 0.0000
# 5 0.0000 0.0000 0.0000 0.0000 22.5856 0.0000
# 6 -0.0002 0.0002 0.0000 0.0000 0.0000 13.7291
#
#
#
# Elastic Compliance Matrix: (Units=1/GPa)
#
#
# Indices 1 2 3 4 5 6 
#
# 1 0.028087 -0.008723 -0.008158 0.000000 0.000000 0.000001
# 2 -0.008723 0.028087 -0.008158 0.000000 0.000000 -0.000001
# 3 -0.008158 -0.008158 0.014159 0.000000 0.000000 0.000000
# 4 0.000000 0.000000 0.000000 0.044276 0.000000 0.000000
# 5 0.000000 0.000000 0.000000 0.000000 0.044276 0.000000
# 6 0.000001 -0.000001 0.000000 0.000000 0.000000 0.072838
#
#
# Mechanical properties :
#
#
# Convention : Reuss Voigt Hill
#
# Bulk Modulus (GPa) = 49.37161 63.25894 56.31527
# Shear Modulus (GPa) = 17.32791 19.28274 18.30533
#
# Velocity S-wave (km/s) = 3.42109 3.60891 3.51626
# Velocity P-wave (km/s) = 6.99661 7.75197 7.38395
#
# Compressibility (1/GPa) = 0.02025456
#
# Stress axis : x y z
#
# Youngs Moduli (GPa) = 35.60420 35.60420 70.62553
#
# Poissons Ratio (x) = 0.31057 0.57617
# Poissons Ratio (y) = 0.31057 0.57617
# Poissons Ratio (z) = 0.29046 0.29046
#
# Static dielectric constant tensor:
#      x y z
#    x 2.736430 0.000000 0.000000 
#    y 0.000000 2.736430 0.000000 
#    z 0.000000 0.000000 3.310260 
# 
# 
# High freq. dielectric constant tensor:
#      x y z
#    x 1.541220 0.000000 0.000000 
#    y 0.000000 1.541220 0.000000 
#    z 0.000000 0.000000 1.590220 
# 
# From -- ./inp_files/6176.got.cif
#   From: 2010.03.12/outbox.cif.g09.slc.cpg/sg107_4_cif.got.tgz:6176.got - 2010.04.14 01:49:11.
