data_PCOD8307829
_publ_section_title
;
Structure prediction by ZEFSAII (Michael W. Deem and Ramdas Pophale) SiO2 
 PCOD8307829
Probable space group: I 41 M D
;
_chemical_formula_sum "Si O2"
_cell_formula_units_Z 96
_cell_length_a 23.822162
_cell_length_b 23.822162
_cell_length_c 11.261724
_cell_angle_alpha 90.000000
_cell_angle_beta 90.000000
_cell_angle_gamma 90.000000
_cell_volume 6390.976593
_symmetry_space_group_name_H-M "I 41 M D"
_symmetry_group_IT_number 109
_symmetry_cell_setting 'tetragonal'
loop_
_space_group_symop_operation_xyz
x,y,z
-y,1/2+x,1/4+z
-x,-y,z
y,1/2-x,1/4+z
-x,y,z
x,-y,z
-y,1/2-x,1/4+z
y,1/2+x,1/4+z
1/2+x,1/2+y,1/2+z
1/2-y,x,3/4+z
1/2-x,1/2-y,1/2+z
1/2+y,-x,3/4+z
1/2-x,1/2+y,1/2+z
1/2+x,1/2-y,1/2+z
1/2-y,-x,3/4+z
1/2+y,x,3/4+z
loop_
_atom_site_type_symbol
_atom_site_label
_atom_site_fract_x
_atom_site_fract_y
_atom_site_fract_z
Si Si1 0.139579 0.732599 0.861600
Si Si2 0.436975 0.188388 0.551271
Si Si3 0.360421 0.732599 0.850720
Si Si4 0.436975 0.688388 0.661050
Si Si5 0.164854 0.750000 0.606160
Si Si6 0.647421 0.647421 0.481160
O O1 0.126802 0.734399 0.720184
O O2 0.199007 0.705030 0.891467
O O3 0.142080 0.794941 0.911158
O O4 0.091793 0.694170 0.922141
O O5 0.500000 0.165104 0.536032
O O6 0.436842 0.250000 0.606160
O O7 0.403311 0.144757 0.635714
O O8 0.408207 0.694170 0.790179
O O9 0.300993 0.705030 0.820853
O O10 0.357920 0.794941 0.801162
O O11 0.373198 0.734399 0.992137
O O12 0.500000 0.665104 0.676288
O O13 0.403311 0.644757 0.576606
#
# Coordination Sequence:
#
# PCOD8307829 Si02
#       6
#    16  16  16  16  16  16
#     4  10  17  26  41  65  94 120 153 193 232 284
#     4   9  18  29  43  63  90 122 152 186 237 289
#     4  10  17  26  41  65  94 120 153 193 232 284
#     4   9  18  29  43  63  90 122 152 186 237 289
#     4  10  18  24  41  70  93 120 154 194 230 284
#     4  10  16  28  44  61  86 122 150 190 234 274
#
# _framework density 15.021179
#
# number of rings (size 3 to 8) (size 9 to 14) (size 15 to 20)
#    0.000    2.333    3.333    2.000    2.333    0.000 
#    0.000    0.833    0.000    0.500    0.000    0.000 
#    0.000    0.000    0.000    0.000    0.000    0.000 
#
# Total GULP energy -594927.373386 kJ/mol
# GULP energy per Si atom -12394.320279 kJ/mol
# Density = 1.498699 g / cm^3
# Si number density = 15.021179 Si / 1000 Ang^3
#
#
#
# Elastic Constant Matrix: (Units=GPa)
#
#
# Indices 1 2 3 4 5 6 
#
# 1 84.8693 30.7843 46.4308 0.0000 0.0000 0.0000
# 2 30.7843 84.8693 46.4308 0.0000 0.0000 0.0000
# 3 46.4308 46.4308 128.3753 0.0000 0.0000 0.0000
# 4 0.0000 0.0000 0.0000 15.1140 0.0000 0.0000
# 5 0.0000 0.0000 0.0000 0.0000 15.1140 0.0000
# 6 0.0000 0.0000 0.0000 0.0000 0.0000 9.9783
#
#
#
# Elastic Compliance Matrix: (Units=1/GPa)
#
#
# Indices 1 2 3 4 5 6 
#
# 1 0.015337 -0.003152 -0.004407 0.000000 0.000000 0.000000
# 2 -0.003152 0.015337 -0.004407 0.000000 0.000000 0.000000
# 3 -0.004407 -0.004407 0.010978 0.000000 0.000000 0.000000
# 4 0.000000 0.000000 0.000000 0.066164 0.000000 0.000000
# 5 0.000000 0.000000 0.000000 0.000000 0.066164 0.000000
# 6 0.000000 0.000000 0.000000 0.000000 0.000000 0.100218
#
#
# Mechanical properties :
#
#
# Convention : Reuss Voigt Hill
#
# Bulk Modulus (GPa) = 56.43544 60.60064 58.51804
# Shear Modulus (GPa) = 16.44537 19.67245 18.05891
#
# Velocity S-wave (km/s) = 3.31238 3.62283 3.47108
# Velocity P-wave (km/s) = 7.23058 7.61124 7.42335
#
# Compressibility (1/GPa) = 0.01771936
#
# Stress axis : x y z
#
# Youngs Moduli (GPa) = 65.20065 65.20065 91.09461
#
# Poissons Ratio (x) = 0.20552 0.40147
# Poissons Ratio (y) = 0.20552 0.40147
# Poissons Ratio (z) = 0.28735 0.28735
#
# Static dielectric constant tensor:
#      x y z
#    x 2.774310 0.000000 0.000000 
#    y 0.000000 2.774310 0.000000 
#    z 0.000000 0.000000 3.254030 
# 
# 
# High freq. dielectric constant tensor:
#      x y z
#    x 1.540930 0.000000 0.000000 
#    y 0.000000 1.540930 0.000000 
#    z 0.000000 0.000000 1.589680 
# 
# From -- ./inp_files/2044.got.cif
#   From: 2010.03.12/outbox.cif.g09.slc.cpg/sg109_2_cif.got.tgz:2044.got - 2010.04.14 01:55:16.
