data_PCOD8307360
_publ_section_title
;
Structure prediction by ZEFSAII (Michael W. Deem and Ramdas Pophale) SiO2 
 PCOD8307360
Probable space group: P 42 M C
;
_chemical_formula_sum "Si O2"
_cell_formula_units_Z 56
_cell_length_a 14.946660
_cell_length_b 14.946660
_cell_length_c 11.967724
_cell_angle_alpha 90.000000
_cell_angle_beta 90.000000
_cell_angle_gamma 90.000000
_cell_volume 2673.621198
_symmetry_space_group_name_H-M "P 42 M C"
_symmetry_group_IT_number 105
_symmetry_cell_setting 'tetragonal'
loop_
_space_group_symop_operation_xyz
x,y,z
-y,x,1/2+z
-x,-y,z
y,-x,1/2+z
-x,y,z
x,-y,z
-y,-x,1/2+z
y,x,1/2+z
loop_
_atom_site_type_symbol
_atom_site_label
_atom_site_fract_x
_atom_site_fract_y
_atom_site_fract_z
Si Si1 0.847538 0.735338 0.280650
Si Si2 0.403194 0.225451 0.415901
Si Si3 0.394080 0.894080 0.980117
Si Si4 0.600966 0.599351 0.535965
Si Si5 0.347538 0.235338 0.179584
Si Si6 0.274549 0.096805 0.544333
Si Si7 0.099351 0.899034 0.424268
O O1 0.854065 0.657164 0.372749
O O2 0.750000 0.749999 0.230116
O O3 0.907091 0.705091 0.175702
O O4 0.882790 0.829853 0.325075
O O5 0.500000 0.198802 0.466017
O O6 0.382931 0.330562 0.435724
O O7 0.407091 0.205090 0.284532
O O8 0.327726 0.172274 0.480117
O O9 0.500000 0.874970 0.967818
O O10 0.374970 0.000000 0.992416
O O11 0.354065 0.842836 0.087485
O O12 0.500000 0.608436 0.584253
O O13 0.617037 0.500000 0.486850
O O14 0.670148 0.617208 0.635159
O O15 0.169438 0.117069 0.524511
O O16 0.301198 0.000000 0.494216
O O17 0.000000 0.882962 0.473383
O O18 0.108435 0.000000 0.375981
#
# Coordination Sequence:
#
# PCOD8307360 Si02
#       7
#     8   8   8   8   8   8   8
#     4  12  23  41  69  94 129 173 217 273 328 387
#     4  11  23  40  62  93 129 167 214 265 322 387
#     4  11  26  46  68 100 140 183 230 276 332 405
#     4  10  22  41  64  94 132 170 212 268 333 398
#     4  12  23  41  69  94 129 173 217 273 328 387
#     4  11  23  40  62  93 129 167 214 265 322 387
#     4  10  22  41  64  94 132 170 212 268 333 398
#
# _framework density 20.945376
#
# number of rings (size 3 to 8) (size 9 to 14) (size 15 to 20)
#    0.000    1.000    2.857    4.286    0.000    3.714 
#    0.000    2.857    0.000    0.000    0.000    0.000 
#    0.000    0.000    0.000    0.000    0.000    0.000 
#
# Total GULP energy -694195.041976 kJ/mol
# GULP energy per Si atom -12396.340035 kJ/mol
# Density = 2.089770 g / cm^3
# Si number density = 20.945376 Si / 1000 Ang^3
#
#
#
# Elastic Constant Matrix: (Units=GPa)
#
#
# Indices 1 2 3 4 5 6 
#
# 1 144.3379 75.4293 61.8306 0.0000 0.0000 0.0000
# 2 75.4293 144.3379 61.8306 0.0000 0.0000 0.0000
# 3 61.8306 61.8306 147.8804 0.0000 0.0000 0.0000
# 4 0.0000 0.0000 0.0000 24.4063 0.0000 0.0000
# 5 0.0000 0.0000 0.0000 0.0000 24.4063 0.0000
# 6 0.0000 0.0000 0.0000 0.0000 0.0000 31.6062
#
#
#
# Elastic Compliance Matrix: (Units=1/GPa)
#
#
# Indices 1 2 3 4 5 6 
#
# 1 0.010231 -0.004281 -0.002488 0.000000 0.000000 0.000000
# 2 -0.004281 0.010231 -0.002488 0.000000 0.000000 0.000000
# 3 -0.002488 -0.002488 0.008843 0.000000 0.000000 0.000000
# 4 0.000000 0.000000 0.000000 0.040973 0.000000 0.000000
# 5 0.000000 0.000000 0.000000 0.000000 0.040973 0.000000
# 6 0.000000 0.000000 0.000000 0.000000 0.000000 0.031639
#
#
# Mechanical properties :
#
#
# Convention : Reuss Voigt Hill
#
# Bulk Modulus (GPa) = 92.66477 92.74856 92.70666
# Shear Modulus (GPa) = 30.30295 31.91482 31.10889
#
# Velocity S-wave (km/s) = 3.80776 3.90772 3.85806
# Velocity P-wave (km/s) = 7.97930 8.04597 8.01270
#
# Compressibility (1/GPa) = 0.01079159
#
# Stress axis : x y z
#
# Youngs Moduli (GPa) = 97.74152 97.74152 113.08890
#
# Poissons Ratio (x) = 0.41842 0.28135
# Poissons Ratio (y) = 0.41842 0.28135
# Poissons Ratio (z) = 0.24316 0.24316
#
# Static dielectric constant tensor:
#      x y z
#    x 4.099050 0.000000 0.000000 
#    y 0.000000 4.099050 0.000000 
#    z 0.000000 0.000000 3.922940 
# 
# 
# High freq. dielectric constant tensor:
#      x y z
#    x 1.836870 0.000000 0.000000 
#    y 0.000000 1.836870 0.000000 
#    z 0.000000 0.000000 1.805590 
# 
# From -- ./inp_files/1953.got.cif
#   From: 2010.03.12/outbox.cif.g09.slc.cpg/sg105_1_cif.got.tgz:1953.got - 2010.04.14 01:45:32.
