data_PCOD8307709
_publ_section_title
;
Structure prediction by ZEFSAII (Michael W. Deem and Ramdas Pophale) SiO2 
 PCOD8307709
Probable space group: I 4 C M
;
_chemical_formula_sum "Si O2"
_cell_formula_units_Z 112
_cell_length_a 15.251169
_cell_length_b 15.251169
_cell_length_c 25.919167
_cell_angle_alpha 90.000000
_cell_angle_beta 90.000000
_cell_angle_gamma 90.000000
_cell_volume 6028.750446
_symmetry_space_group_name_H-M "I 4 C M"
_symmetry_group_IT_number 108
_symmetry_cell_setting 'tetragonal'
loop_
_space_group_symop_operation_xyz
x,y,z
-y,x,z
-x,-y,z
y,-x,z
-x,y,1/2+z
x,-y,1/2+z
-y,-x,1/2+z
y,x,1/2+z
1/2+x,1/2+y,1/2+z
1/2-y,1/2+x,1/2+z
1/2-x,1/2-y,1/2+z
1/2+y,1/2-x,1/2+z
1/2-x,1/2+y,z
1/2+x,1/2-y,z
1/2-y,1/2-x,z
1/2+y,1/2+x,z
loop_
_atom_site_type_symbol
_atom_site_label
_atom_site_fract_x
_atom_site_fract_y
_atom_site_fract_z
Si Si1 0.417252 0.380266 0.762950
Si Si2 0.272145 0.918142 0.327240
Si Si3 0.004226 0.639407 0.531864
Si Si4 0.996412 0.643603 0.918662
Si Si5 0.500234 0.139045 0.231468
Si Si6 0.745024 0.019966 0.630744
Si Si7 0.338389 0.311237 0.660339
O O1 0.522642 0.379864 0.758792
O O2 0.392599 0.330175 0.816802
O O3 0.372969 0.321321 0.718538
O O4 0.331453 0.831453 0.331536
O O5 0.280335 0.979742 0.377643
O O6 0.295761 0.977932 0.277708
O O7 0.941484 0.558517 0.522096
O O8 0.009178 0.687458 0.475858
O O9 0.100056 0.600056 0.547276
O O10 0.963571 0.698274 0.576427
O O11 0.072031 0.572031 0.913900
O O12 0.903541 0.596460 0.905677
O O13 0.426601 0.073400 0.252973
O O14 0.463902 0.184188 0.180238
O O15 0.587424 0.087424 0.214427
O O16 0.778917 0.920861 0.627226
O O17 0.818196 0.094737 0.635105
O O18 0.256813 0.243188 0.658072
#
# Coordination Sequence:
#
# PCOD8307709 Si02
#       7
#    16  16  16  16  16  16  16
#     4  11  22  38  56  77 109 154 195 228 270 335
#     4  10  18  32  54  81 110 139 179 232 287 343
#     4   9  17  32  55  82 113 148 189 243 306 361
#     4   8  15  29  53  83 113 147 184 232 299 361
#     4  10  18  28  46  75 109 138 170 223 286 340
#     4  12  23  35  53  80 113 151 193 236 282 349
#     4  12  23  37  57  82 114 152 190 235 289 344
#
# _framework density 18.577649000000001
#
# number of rings (size 3 to 8) (size 9 to 14) (size 15 to 20)
#    0.000    1.714    2.857    4.286    0.000    3.143 
#    0.000    2.143    3.143    0.000    0.000    0.000 
#    0.000    0.000    0.000    0.000    0.000    0.000 
#
# Total GULP energy -693965.528305 kJ/mol
# GULP energy per Si atom -12392.241577 kJ/mol
# Density = 1.853537 g / cm^3
# Si number density = 18.577649 Si / 1000 Ang^3
#
#
#
# Elastic Constant Matrix: (Units=GPa)
#
#
# Indices 1 2 3 4 5 6 
#
# 1 76.3638 25.1107 29.4102 0.0000 0.0000 -0.0004
# 2 25.1107 76.3638 29.4102 0.0000 0.0000 0.0004
# 3 29.4102 29.4102 109.0650 0.0000 0.0000 0.0000
# 4 0.0000 0.0000 0.0000 18.6449 0.0000 0.0000
# 5 0.0000 0.0000 0.0000 0.0000 18.6449 0.0000
# 6 -0.0004 0.0004 0.0000 0.0000 0.0000 22.2364
#
#
#
# Elastic Compliance Matrix: (Units=1/GPa)
#
#
# Indices 1 2 3 4 5 6 
#
# 1 0.015596 -0.003915 -0.003150 0.000000 0.000000 0.000000
# 2 -0.003915 0.015596 -0.003150 0.000000 0.000000 0.000000
# 3 -0.003150 -0.003150 0.010868 0.000000 0.000000 0.000000
# 4 0.000000 0.000000 0.000000 0.053634 0.000000 0.000000
# 5 0.000000 0.000000 0.000000 0.000000 0.053634 0.000000
# 6 0.000000 0.000000 0.000000 0.000000 0.000000 0.044971
#
#
# Mechanical properties :
#
#
# Convention : Reuss Voigt Hill
#
# Bulk Modulus (GPa) = 46.23304 47.73942 46.98623
# Shear Modulus (GPa) = 22.52886 23.76268 23.14577
#
# Velocity S-wave (km/s) = 3.48614 3.58033 3.53355
# Velocity P-wave (km/s) = 6.41441 6.54559 6.48033
#
# Compressibility (1/GPa) = 0.02162955
#
# Stress axis : x y z
#
# Youngs Moduli (GPa) = 64.12013 64.12013 92.01720
#
# Poissons Ratio (x) = 0.25105 0.28983
# Poissons Ratio (y) = 0.25105 0.28983
# Poissons Ratio (z) = 0.20196 0.20196
#
# Static dielectric constant tensor:
#      x y z
#    x 3.405960 0.000000 0.000000 
#    y 0.000000 3.405960 0.000000 
#    z 0.000000 0.000000 3.464370 
# 
# 
# High freq. dielectric constant tensor:
#      x y z
#    x 1.709330 0.000000 0.000000 
#    y 0.000000 1.709330 0.000000 
#    z 0.000000 0.000000 1.707980 
# 
# From -- ./inp_files/3224.got.cif
#   From: 2010.03.12/outbox.cif.g09.slc.cpg/sg108_2_cif.got.tgz:3224.got - 2010.04.14 01:53:11.
