data_PCOD8307286
_publ_section_title
;
Structure prediction by ZEFSAII (Michael W. Deem and Ramdas Pophale) SiO2 
 PCOD8307286
Probable space group: P 42 M C
;
_chemical_formula_sum "Si O2"
_cell_formula_units_Z 48
_cell_length_a 8.287138
_cell_length_b 8.287138
_cell_length_c 33.922595
_cell_angle_alpha 90.000000
_cell_angle_beta 90.000000
_cell_angle_gamma 90.000000
_cell_volume 2329.690395
_symmetry_space_group_name_H-M "P 42 M C"
_symmetry_group_IT_number 105
_symmetry_cell_setting 'tetragonal'
loop_
_space_group_symop_operation_xyz
x,y,z
-y,x,1/2+z
-x,-y,z
y,-x,1/2+z
-x,y,z
x,-y,z
-y,-x,1/2+z
y,x,1/2+z
loop_
_atom_site_type_symbol
_atom_site_label
_atom_site_fract_x
_atom_site_fract_y
_atom_site_fract_z
Si Si1 0.180150 0.314272 0.395420
Si Si2 0.813841 0.327232 0.818301
Si Si3 0.691597 0.681351 0.662786
Si Si4 0.810152 0.000000 0.618120
Si Si5 0.808099 0.000000 0.528691
Si Si6 0.319124 0.192504 0.983463
Si Si7 0.684057 0.817864 0.742704
O O1 0.179159 0.500000 0.383033
O O2 0.278463 0.219024 0.362988
O O3 0.256791 0.291783 0.438904
O O4 0.000000 0.243371 0.395590
O O5 0.728118 0.500000 0.810153
O O6 0.763272 0.199843 0.785335
O O7 0.000000 0.350138 0.813728
O O8 0.500000 0.691468 0.662188
O O9 0.748092 0.500000 0.648674
O O10 0.755806 0.705975 0.707720
O O11 0.753125 0.830281 0.636597
O O12 0.746545 0.000000 0.573380
O O13 0.000000 0.000000 0.620086
O O14 0.741424 0.167410 0.509099
O O15 0.000000 0.000000 0.525582
O O16 0.500000 0.250061 0.998320
O O17 0.320354 0.000000 0.983282
O O18 0.500000 0.773342 0.749072
O O19 0.709170 0.000000 0.728041
#
# Coordination Sequence:
#
# PCOD8307286 Si02
#       7
#     8   8   8   4   4   8   8
#     4   9  18  33  54  79 103 134 183 236 281 327
#     4  11  24  36  47  73 113 150 183 223 276 340
#     4  10  21  40  65  87 113 156 204 246 294 358
#     4  11  23  37  57  91 129 157 191 245 309 371
#     4   9  18  31  51  81 115 153 187 227 295 361
#     4   8  15  29  50  77 108 142 185 235 283 343
#     4  10  20  37  61  83 104 137 188 242 286 337
#
# _framework density 20.603597000000001
#
# number of rings (size 3 to 8) (size 9 to 14) (size 15 to 20)
#    0.000    2.333    0.833    2.750    1.167    6.333 
#    0.000    1.667    0.000    2.000    0.000    0.000 
#    0.000    0.000    0.000    0.000    0.000    0.000 
#
# Total GULP energy -594659.389865 kJ/mol
# GULP energy per Si atom -12388.737289 kJ/mol
# Density = 2.055670 g / cm^3
# Si number density = 20.603597 Si / 1000 Ang^3
#
#
#
# Elastic Constant Matrix: (Units=GPa)
#
#
# Indices 1 2 3 4 5 6 
#
# 1 83.7265 38.2733 53.3534 0.0000 0.0000 0.0000
# 2 38.2733 83.7265 53.3534 0.0000 0.0000 0.0000
# 3 53.3534 53.3534 138.2576 0.0000 0.0000 0.0000
# 4 0.0000 0.0000 0.0000 36.8758 0.0000 0.0000
# 5 0.0000 0.0000 0.0000 0.0000 36.8758 0.0000
# 6 0.0000 0.0000 0.0000 0.0000 0.0000 17.3805
#
#
#
# Elastic Compliance Matrix: (Units=1/GPa)
#
#
# Indices 1 2 3 4 5 6 
#
# 1 0.017187 -0.004814 -0.004775 0.000000 0.000000 0.000000
# 2 -0.004814 0.017187 -0.004775 0.000000 0.000000 0.000000
# 3 -0.004775 -0.004775 0.010918 0.000000 0.000000 0.000000
# 4 0.000000 0.000000 0.000000 0.027118 0.000000 0.000000
# 5 0.000000 0.000000 0.000000 0.000000 0.027118 0.000000
# 6 0.000000 0.000000 0.000000 0.000000 0.000000 0.057536
#
#
# Mechanical properties :
#
#
# Convention : Reuss Voigt Hill
#
# Bulk Modulus (GPa) = 60.36813 66.18562 63.27687
# Shear Modulus (GPa) = 26.13537 28.94177 27.53857
#
# Velocity S-wave (km/s) = 3.56544 3.75199 3.65991
# Velocity P-wave (km/s) = 6.80539 7.13884 6.97410
#
# Compressibility (1/GPa) = 0.01656503
#
# Stress axis : x y z
#
# Youngs Moduli (GPa) = 58.18427 58.18427 91.59222
#
# Poissons Ratio (x) = 0.28009 0.43732
# Poissons Ratio (y) = 0.28009 0.43732
# Poissons Ratio (z) = 0.27781 0.27781
#
# Static dielectric constant tensor:
#      x y z
#    x 3.597950 0.000000 0.000000 
#    y 0.000000 3.597950 0.000000 
#    z 0.000000 0.000000 3.834290 
# 
# 
# High freq. dielectric constant tensor:
#      x y z
#    x 1.793950 0.000000 0.000000 
#    y 0.000000 1.793950 0.000000 
#    z 0.000000 0.000000 1.804650 
# 
# From -- ./inp_files/4748.got.cif
#   From: 2010.03.12/outbox.cif.g09.slc.cpg/sg105_3_cif.got.tgz:4748.got - 2010.04.14 01:45:32.
