data_PCOD8307823
_publ_section_title
;
Structure prediction by ZEFSAII (Michael W. Deem and Ramdas Pophale) SiO2 
 PCOD8307823
Probable space group: I 4 C M
;
_chemical_formula_sum "Si O2"
_cell_formula_units_Z 96
_cell_length_a 19.338655
_cell_length_b 19.338655
_cell_length_c 17.370083
_cell_angle_alpha 90.000000
_cell_angle_beta 90.000000
_cell_angle_gamma 90.000000
_cell_volume 6496.125777
_symmetry_space_group_name_H-M "I 4 C M"
_symmetry_group_IT_number 108
_symmetry_cell_setting 'tetragonal'
loop_
_space_group_symop_operation_xyz
x,y,z
-y,x,z
-x,-y,z
y,-x,z
-x,y,1/2+z
x,-y,1/2+z
-y,-x,1/2+z
y,x,1/2+z
1/2+x,1/2+y,1/2+z
1/2-y,1/2+x,1/2+z
1/2-x,1/2-y,1/2+z
1/2+y,1/2-x,1/2+z
1/2-x,1/2+y,z
1/2+x,1/2-y,z
1/2-y,1/2-x,z
1/2+y,1/2+x,z
loop_
_atom_site_type_symbol
_atom_site_label
_atom_site_fract_x
_atom_site_fract_y
_atom_site_fract_z
Si Si1 0.805575 0.420081 0.467120
Si Si2 0.546577 0.159555 0.733334
Si Si3 0.860174 0.755155 0.823726
Si Si4 0.159554 0.546576 0.874583
Si Si5 0.860175 0.244846 0.784192
Si Si6 0.420082 0.194425 0.640797
O O1 0.874305 0.374305 0.455799
O O2 0.745602 0.394538 0.408810
O O3 0.825032 0.499383 0.448615
O O4 0.777060 0.415016 0.553959
O O5 0.601313 0.101313 0.709623
O O6 0.584547 0.230382 0.759981
O O7 0.500001 0.131834 0.803958
O O8 0.499384 0.174970 0.659302
O O9 0.796841 0.703160 0.823652
O O10 0.832163 0.832164 0.803959
O O11 0.101311 0.601311 0.898293
O O12 0.230382 0.584546 0.847937
O O13 0.796841 0.296841 0.784269
O O14 0.894537 0.245604 0.699108
O O15 0.374308 0.125693 0.652117
#
# Coordination Sequence:
#
# PCOD8307823 Si02
#       6
#    16  16  16  16  16  16
#     4   9  17  27  38  55  81 109 133 160 195 231
#     4   9  16  25  38  56  78 105 135 163 189 224
#     4   8  14  26  42  56  72 100 137 169 196 230
#     4   9  16  25  38  56  78 105 135 163 189 224
#     4   8  14  26  42  56  72 100 137 169 196 230
#     4   9  17  27  38  55  81 109 133 160 195 231
#
# _framework density 14.778039
#
# number of rings (size 3 to 8) (size 9 to 14) (size 15 to 20)
#    0.000    3.333    0.000    3.000    0.000    3.000 
#    0.000    3.333    0.000    6.000    0.000    0.000 
#    0.000   54.000    0.000   27.000    0.000    3.000 
#
# Total GULP energy -594878.458524 kJ/mol
# GULP energy per Si atom -12393.301219 kJ/mol
# Density = 1.474440 g / cm^3
# Si number density = 14.778039 Si / 1000 Ang^3
#
#
#
# Elastic Constant Matrix: (Units=GPa)
#
#
# Indices 1 2 3 4 5 6 
#
# 1 56.4293 49.5014 42.3802 0.0000 0.0000 0.0000
# 2 49.5014 56.4293 42.3802 0.0000 0.0000 0.0000
# 3 42.3802 42.3802 92.6133 0.0000 0.0000 0.0000
# 4 0.0000 0.0000 0.0000 14.9441 0.0000 0.0000
# 5 0.0000 0.0000 0.0000 0.0000 14.9441 0.0000
# 6 0.0000 0.0000 0.0000 0.0000 0.0000 24.7672
#
#
#
# Elastic Compliance Matrix: (Units=1/GPa)
#
#
# Indices 1 2 3 4 5 6 
#
# 1 0.079619 -0.064725 -0.006815 0.000000 0.000000 0.000000
# 2 -0.064725 0.079619 -0.006815 0.000000 0.000000 0.000000
# 3 -0.006815 -0.006815 0.017035 0.000000 0.000000 0.000000
# 4 0.000000 0.000000 0.000000 0.066916 0.000000 0.000000
# 5 0.000000 0.000000 0.000000 0.000000 0.066916 0.000000
# 6 0.000000 0.000000 0.000000 0.000000 0.000000 0.040376
#
#
# Mechanical properties :
#
#
# Convention : Reuss Voigt Hill
#
# Bulk Modulus (GPa) = 51.12307 52.66618 51.89462
# Shear Modulus (GPa) = 9.73306 15.67842 12.70574
#
# Velocity S-wave (km/s) = 2.56914 3.26072 2.93537
# Velocity P-wave (km/s) = 6.59315 7.06342 6.83233
#
# Compressibility (1/GPa) = 0.01956064
#
# Stress axis : x y z
#
# Youngs Moduli (GPa) = 12.55984 12.55984 58.70275
#
# Poissons Ratio (x) = 0.81294 0.40007
# Poissons Ratio (y) = 0.81294 0.40007
# Poissons Ratio (z) = 0.08560 0.08560
#
# Static dielectric constant tensor:
#      x y z
#    x 2.921060 0.000000 0.000000 
#    y 0.000000 2.921060 0.000000 
#    z 0.000000 0.000000 2.861740 
# 
# 
# High freq. dielectric constant tensor:
#      x y z
#    x 1.539600 0.000000 0.000000 
#    y 0.000000 1.539600 0.000000 
#    z 0.000000 0.000000 1.558290 
# 
# From -- ./inp_files/2607.got.cif
#   From: 2010.03.12/outbox.cif.g09.slc.cpg/sg108_2_cif.got.tgz:2607.got - 2010.04.14 01:53:11.
