data_PCOD8307655
_publ_section_title
;
Structure prediction by ZEFSAII (Michael W. Deem and Ramdas Pophale) SiO2 
 PCOD8307655
Probable space group: I 4 M M
;
_chemical_formula_sum "Si O2"
_cell_formula_units_Z 64
_cell_length_a 17.776202
_cell_length_b 17.776202
_cell_length_c 10.956519
_cell_angle_alpha 90.000000
_cell_angle_beta 90.000000
_cell_angle_gamma 90.000000
_cell_volume 3462.187226
_symmetry_space_group_name_H-M "I 4 M M"
_symmetry_group_IT_number 107
_symmetry_cell_setting 'tetragonal'
loop_
_space_group_symop_operation_xyz
x,y,z
-y,x,z
-x,-y,z
y,-x,z
-x,y,z
x,-y,z
-y,-x,z
y,x,z
1/2+x,1/2+y,1/2+z
1/2-y,1/2+x,1/2+z
1/2-x,1/2-y,1/2+z
1/2+y,1/2-x,1/2+z
1/2-x,1/2+y,1/2+z
1/2+x,1/2-y,1/2+z
1/2-y,1/2-x,1/2+z
1/2+y,1/2+x,1/2+z
loop_
_atom_site_type_symbol
_atom_site_label
_atom_site_fract_x
_atom_site_fract_y
_atom_site_fract_z
Si Si1 0.787073 0.412491 0.705670
Si Si2 0.915511 0.207604 0.953312
Si Si3 0.708538 0.708538 0.104535
Si Si4 0.709114 0.709114 0.829654
Si Si5 0.795675 0.414314 0.210005
O O1 0.798205 0.500000 0.732028
O O2 0.748180 0.393773 0.577899
O O3 0.731467 0.378408 0.810524
O O4 0.869079 0.373956 0.701624
O O5 0.862070 0.137931 0.925060
O O6 0.908305 0.270086 0.849467
O O7 0.000000 0.175297 0.959525
O O8 0.748751 0.748751 0.219013
O O9 0.620785 0.730207 0.121982
O O10 0.733832 0.733832 0.967089
O O11 0.809373 0.500000 0.168627
#
# Coordination Sequence:
#
# PCOD8307655 Si02
#       5
#    16  16   8   8  16
#     4  10  22  36  58  85 116 151 192 236 286 341
#     4  10  20  37  59  87 115 148 192 242 286 340
#     4  10  22  36  60  85 110 147 193 238 282 332
#     4  10  22  36  60  85 110 147 193 238 282 332
#     4  10  22  36  58  85 116 151 192 236 286 341
#
# _framework density 18.485423000000001
#
# number of rings (size 3 to 8) (size 9 to 14) (size 15 to 20)
#    0.000    2.000    2.500    0.000   14.000    1.750 
#    0.000    0.000    0.000    5.250    0.000    1.750 
#    0.000    0.000    0.000    0.000    0.000    0.000 
#
# Total GULP energy -396563.593875 kJ/mol
# GULP energy per Si atom -12392.612309 kJ/mol
# Density = 1.844335 g / cm^3
# Si number density = 18.485423 Si / 1000 Ang^3
#
#
#
# Elastic Constant Matrix: (Units=GPa)
#
#
# Indices 1 2 3 4 5 6 
#
# 1 113.8263 75.2523 23.6071 0.0000 0.0000 0.0014
# 2 75.2523 113.8263 23.6071 0.0000 0.0000 -0.0014
# 3 23.6071 23.6071 97.4026 0.0000 0.0000 0.0000
# 4 0.0000 0.0000 0.0000 24.4384 0.0000 0.0000
# 5 0.0000 0.0000 0.0000 0.0000 24.4384 0.0000
# 6 0.0014 -0.0014 0.0000 0.0000 0.0000 24.8186
#
#
#
# Elastic Compliance Matrix: (Units=1/GPa)
#
#
# Indices 1 2 3 4 5 6 
#
# 1 0.015777 -0.010147 -0.001364 0.000000 0.000000 -0.000001
# 2 -0.010147 0.015777 -0.001364 0.000000 0.000000 0.000001
# 3 -0.001364 -0.001364 0.010928 0.000000 0.000000 0.000000
# 4 0.000000 0.000000 0.000000 0.040919 0.000000 0.000000
# 5 0.000000 0.000000 0.000000 0.000000 0.040919 0.000000
# 6 -0.000001 0.000001 0.000000 0.000000 0.000000 0.040292
#
#
# Mechanical properties :
#
#
# Convention : Reuss Voigt Hill
#
# Bulk Modulus (GPa) = 59.77482 63.33199 61.55341
# Shear Modulus (GPa) = 25.51785 28.24500 26.88143
#
# Velocity S-wave (km/s) = 3.71945 3.91315 3.81753
# Velocity P-wave (km/s) = 7.13107 7.39945 7.26650
#
# Compressibility (1/GPa) = 0.01672945
#
# Stress axis : x y z
#
# Youngs Moduli (GPa) = 63.38397 63.38397 91.50773
#
# Poissons Ratio (x) = 0.64318 0.12485
# Poissons Ratio (y) = 0.64318 0.12485
# Poissons Ratio (z) = 0.08648 0.08648
#
# Static dielectric constant tensor:
#      x y z
#    x 3.707020 0.000000 0.000000 
#    y 0.000000 3.707020 0.000000 
#    z 0.000000 0.000000 3.508000 
# 
# 
# High freq. dielectric constant tensor:
#      x y z
#    x 1.710450 0.000000 0.000000 
#    y 0.000000 1.710450 0.000000 
#    z 0.000000 0.000000 1.723810 
# 
# From -- ./inp_files/2166.got.cif
#   From: 2010.03.12/outbox.cif.g09.slc.cpg/sg107_2_cif.got.tgz:2166.got - 2010.04.14 01:49:11.
