data_PCOD8307282
_publ_section_title
;
Structure prediction by ZEFSAII (Michael W. Deem and Ramdas Pophale) SiO2 
 PCOD8307282
Probable space group: P 42 M C
;
_chemical_formula_sum "Si O2"
_cell_formula_units_Z 48
_cell_length_a 8.148309
_cell_length_b 8.148309
_cell_length_c 33.630919
_cell_angle_alpha 90.000000
_cell_angle_beta 90.000000
_cell_angle_gamma 90.000000
_cell_volume 2232.922834
_symmetry_space_group_name_H-M "P 42 M C"
_symmetry_group_IT_number 105
_symmetry_cell_setting 'tetragonal'
loop_
_space_group_symop_operation_xyz
x,y,z
-y,x,1/2+z
-x,-y,z
y,-x,1/2+z
-x,y,z
x,-y,z
-y,-x,1/2+z
y,x,1/2+z
loop_
_atom_site_type_symbol
_atom_site_label
_atom_site_fract_x
_atom_site_fract_y
_atom_site_fract_z
Si Si1 0.311297 0.316610 0.105670
Si Si2 0.000000 0.813869 0.735445
Si Si3 0.810515 0.320883 0.442638
Si Si4 0.000000 0.310930 0.649471
Si Si5 0.185540 0.314502 0.021610
Si Si6 0.185772 0.194274 0.860487
Si Si7 0.310180 0.315178 0.281315
O O1 0.500000 0.330931 0.117481
O O2 0.230636 0.500000 0.112978
O O3 0.296540 0.266670 0.059327
O O4 0.229953 0.168904 0.131774
O O5 0.167737 0.786804 0.759996
O O6 0.000000 0.700234 0.696809
O O7 0.000000 0.000000 0.720836
O O8 0.727202 0.500000 0.447262
O O9 0.794380 0.220690 0.483241
O O10 0.735348 0.228330 0.404369
O O11 0.000000 0.341991 0.433574
O O12 0.000000 0.500000 0.636228
O O13 0.219801 0.500000 0.008340
O O14 0.000000 0.286384 0.035493
O O15 0.303081 0.280597 0.828509
O O16 0.000000 0.244115 0.850678
O O17 0.210342 0.000000 0.857668
O O18 0.500000 0.291424 0.271178
O O19 0.254315 0.500000 0.267712
#
# Coordination Sequence:
#
# PCOD8307282 Si02
#       7
#     8   4   8   4   8   8   8
#     4   9  19  37  60  86 118 157 199 248 305 364
#     4  12  26  44  66  96 130 164 206 258 316 376
#     4  10  21  35  53  80 115 156 203 251 299 359
#     4  10  22  40  64  92 122 158 204 252 306 378
#     4  10  21  36  54  79 113 153 198 249 305 360
#     4  10  20  36  59  87 120 159 203 254 312 370
#     4  11  24  42  66  94 125 165 209 255 312 376
#
# _framework density 21.496490000000001
#
# number of rings (size 3 to 8) (size 9 to 14) (size 15 to 20)
#    0.000    1.833    0.833    2.750    1.167    6.000 
#    0.000    1.667    0.000    0.000    0.000    0.000 
#    0.000    0.000    0.000    0.000    0.000    0.000 
#
# Total GULP energy -594980.779494 kJ/mol
# GULP energy per Si atom -12395.432906 kJ/mol
# Density = 2.144756 g / cm^3
# Si number density = 21.496490 Si / 1000 Ang^3
#
#
#
# Elastic Constant Matrix: (Units=GPa)
#
#
# Indices 1 2 3 4 5 6 
#
# 1 83.3156 30.0200 29.3098 0.0000 0.0000 0.0000
# 2 30.0200 83.3156 29.3098 0.0000 0.0000 0.0000
# 3 29.3098 29.3098 117.6267 0.0000 0.0000 0.0000
# 4 0.0000 0.0000 0.0000 30.3387 0.0000 0.0000
# 5 0.0000 0.0000 0.0000 0.0000 30.3387 0.0000
# 6 0.0000 0.0000 0.0000 0.0000 0.0000 19.4936
#
#
#
# Elastic Compliance Matrix: (Units=1/GPa)
#
#
# Indices 1 2 3 4 5 6 
#
# 1 0.014446 -0.004317 -0.002524 0.000000 0.000000 0.000000
# 2 -0.004317 0.014446 -0.002524 0.000000 0.000000 0.000000
# 3 -0.002524 -0.002524 0.009759 0.000000 0.000000 0.000000
# 4 0.000000 0.000000 0.000000 0.032961 0.000000 0.000000
# 5 0.000000 0.000000 0.000000 0.000000 0.032961 0.000000
# 6 0.000000 0.000000 0.000000 0.000000 0.000000 0.051299
#
#
# Mechanical properties :
#
#
# Convention : Reuss Voigt Hill
#
# Bulk Modulus (GPa) = 50.19743 51.28191 50.73967
# Shear Modulus (GPa) = 27.58726 29.07539 28.33133
#
# Velocity S-wave (km/s) = 3.58626 3.68171 3.63430
# Velocity P-wave (km/s) = 6.36792 6.47928 6.42384
#
# Compressibility (1/GPa) = 0.01992134
#
# Stress axis : x y z
#
# Youngs Moduli (GPa) = 69.22321 69.22321 102.46706
#
# Poissons Ratio (x) = 0.29886 0.25861
# Poissons Ratio (y) = 0.29886 0.25861
# Poissons Ratio (z) = 0.17471 0.17471
#
# Static dielectric constant tensor:
#      x y z
#    x 3.931980 0.000000 0.000000 
#    y 0.000000 3.931980 0.000000 
#    z 0.000000 0.000000 3.690940 
# 
# 
# High freq. dielectric constant tensor:
#      x y z
#    x 1.837630 0.000000 0.000000 
#    y 0.000000 1.837630 0.000000 
#    z 0.000000 0.000000 1.838490 
# 
# From -- ./inp_files/4771.got.cif
#   From: 2010.03.12/outbox.cif.g09.slc.cpg/sg105_3_cif.got.tgz:4771.got - 2010.04.14 01:45:32.
