data_PCOD8307518
_publ_section_title
;
Structure prediction by ZEFSAII (Michael W. Deem and Ramdas Pophale) SiO2 
 PCOD8307518
Probable space group: I 4 M M
;
_chemical_formula_sum "Si O2"
_cell_formula_units_Z 112
_cell_length_a 21.774411
_cell_length_b 21.774411
_cell_length_c 13.671565
_cell_angle_alpha 90.000000
_cell_angle_beta 90.000000
_cell_angle_gamma 90.000000
_cell_volume 6482.030406
_symmetry_space_group_name_H-M "I 4 M M"
_symmetry_group_IT_number 107
_symmetry_cell_setting 'tetragonal'
loop_
_space_group_symop_operation_xyz
x,y,z
-y,x,z
-x,-y,z
y,-x,z
-x,y,z
x,-y,z
-y,-x,z
y,x,z
1/2+x,1/2+y,1/2+z
1/2-y,1/2+x,1/2+z
1/2-x,1/2-y,1/2+z
1/2+y,1/2-x,1/2+z
1/2-x,1/2+y,1/2+z
1/2+x,1/2-y,1/2+z
1/2-y,1/2-x,1/2+z
1/2+y,1/2+x,1/2+z
loop_
_atom_site_type_symbol
_atom_site_label
_atom_site_fract_x
_atom_site_fract_y
_atom_site_fract_z
Si Si1 0.878179 0.341525 0.934720
Si Si2 0.431413 0.172723 0.236585
Si Si3 0.247084 0.652428 0.814483
Si Si4 0.927446 0.430191 0.590623
Si Si5 0.265902 0.830021 0.091939
Si Si6 0.072001 0.828337 0.441171
Si Si7 0.135310 0.768938 0.619174
O O1 0.930134 0.333450 0.853035
O O2 0.813674 0.347956 0.879196
O O3 0.896146 0.402428 0.994215
O O4 0.880292 0.282707 0.009109
O O5 0.500000 0.182244 0.199810
O O6 0.405647 0.111110 0.183282
O O7 0.395516 0.234789 0.209728
O O8 0.282445 0.717556 0.827492
O O9 0.228562 0.642735 0.701174
O O10 0.291082 0.596657 0.847052
O O11 0.901792 0.500000 0.602509
O O12 0.000000 0.432546 0.580408
O O13 0.197737 0.802264 0.076053
O O14 0.316367 0.777412 0.070266
O O15 0.106027 0.893974 0.447914
O O16 0.085856 0.788409 0.537929
O O17 0.000000 0.840240 0.430291
O O18 0.171379 0.828622 0.659768
#
# Coordination Sequence:
#
# PCOD8307518 Si02
#       7
#    16  16  16  16  16  16  16
#     4  12  19  32  51  75  97 128 165 210 255 300
#     4  11  22  35  52  73 102 136 172 212 256 308
#     4  10  19  32  52  78 105 133 166 206 256 311
#     4  10  22  38  50  63  91 133 178 218 253 293
#     4  10  19  32  51  76 104 130 160 204 260 311
#     4  10  20  34  53  78 107 138 174 214 258 314
#     4  10  18  32  55  78 101 130 167 212 259 310
#
# _framework density 17.278537
#
# number of rings (size 3 to 8) (size 9 to 14) (size 15 to 20)
#    0.000    1.571    4.286    1.286    0.000    3.000 
#    0.000    4.286    0.000    0.000    0.000    0.000 
#    0.000    0.000    0.000    0.000    0.000    3.857 
#
# Total GULP energy -694135.098581 kJ/mol
# GULP energy per Si atom -12395.269618 kJ/mol
# Density = 1.723921 g / cm^3
# Si number density = 17.278537 Si / 1000 Ang^3
#
#
#
# Elastic Constant Matrix: (Units=GPa)
#
#
# Indices 1 2 3 4 5 6 
#
# 1 78.3487 32.4599 44.2826 0.0000 0.0000 0.0000
# 2 32.4599 78.3487 44.2826 0.0000 0.0000 0.0000
# 3 44.2826 44.2826 127.3810 0.0000 0.0000 0.0000
# 4 0.0000 0.0000 0.0000 21.2482 0.0000 0.0000
# 5 0.0000 0.0000 0.0000 0.0000 21.2482 0.0000
# 6 0.0000 0.0000 0.0000 0.0000 0.0000 22.3715
#
#
#
# Elastic Compliance Matrix: (Units=1/GPa)
#
#
# Indices 1 2 3 4 5 6 
#
# 1 0.017144 -0.004647 -0.004344 0.000000 0.000000 0.000000
# 2 -0.004647 0.017144 -0.004344 0.000000 0.000000 0.000000
# 3 -0.004344 -0.004344 0.010871 0.000000 0.000000 0.000000
# 4 0.000000 0.000000 0.000000 0.047063 0.000000 0.000000
# 5 0.000000 0.000000 0.000000 0.000000 0.047063 0.000000
# 6 0.000000 0.000000 0.000000 0.000000 0.000000 0.044700
#
#
# Mechanical properties :
#
#
# Convention : Reuss Voigt Hill
#
# Bulk Modulus (GPa) = 54.09151 58.45875 56.27513
# Shear Modulus (GPa) = 23.06061 23.84380 23.45221
#
# Velocity S-wave (km/s) = 3.65723 3.71882 3.68816
# Velocity P-wave (km/s) = 7.01480 7.23506 7.12578
#
# Compressibility (1/GPa) = 0.01848719
#
# Stress axis : x y z
#
# Youngs Moduli (GPa) = 58.32827 58.32827 91.98746
#
# Poissons Ratio (x) = 0.27108 0.39963
# Poissons Ratio (y) = 0.27108 0.39963
# Poissons Ratio (z) = 0.25340 0.25340
#
# Static dielectric constant tensor:
#      x y z
#    x 3.200170 0.000000 0.000000 
#    y 0.000000 3.200170 0.000000 
#    z 0.000000 0.000000 3.313170 
# 
# 
# High freq. dielectric constant tensor:
#      x y z
#    x 1.652210 0.000000 0.000000 
#    y 0.000000 1.652210 0.000000 
#    z 0.000000 0.000000 1.670880 
# 
# From -- ./inp_files/2610.got.cif
#   From: 2010.03.12/outbox.cif.g09.slc.cpg/sg107_2_cif.got.tgz:2610.got - 2010.04.14 01:49:11.
