data_PCOD8307867
_publ_section_title
;
Structure prediction by ZEFSAII (Michael W. Deem and Ramdas Pophale) SiO2 
 PCOD8307867
Probable space group: I 41 M D
;
_chemical_formula_sum "Si O2"
_cell_formula_units_Z 128
_cell_length_a 21.929501
_cell_length_b 21.929501
_cell_length_c 16.814421
_cell_angle_alpha 90.000000
_cell_angle_beta 90.000000
_cell_angle_gamma 90.000000
_cell_volume 8086.105739
_symmetry_space_group_name_H-M "I 41 M D"
_symmetry_group_IT_number 109
_symmetry_cell_setting 'tetragonal'
loop_
_space_group_symop_operation_xyz
x,y,z
-y,1/2+x,1/4+z
-x,-y,z
y,1/2-x,1/4+z
-x,y,z
x,-y,z
-y,1/2-x,1/4+z
y,1/2+x,1/4+z
1/2+x,1/2+y,1/2+z
1/2-y,x,3/4+z
1/2-x,1/2-y,1/2+z
1/2+y,-x,3/4+z
1/2-x,1/2+y,1/2+z
1/2+x,1/2-y,1/2+z
1/2-y,-x,3/4+z
1/2+y,x,3/4+z
loop_
_atom_site_type_symbol
_atom_site_label
_atom_site_fract_x
_atom_site_fract_y
_atom_site_fract_z
Si Si1 0.652331 0.069536 0.842220
Si Si2 0.773486 0.855990 0.876141
Si Si3 0.264278 0.749330 0.505239
Si Si4 0.691289 0.432503 0.801882
Si Si5 0.568697 0.251519 0.883119
Si Si6 0.345155 0.571024 0.493320
Si Si7 0.432793 0.065486 0.991655
Si Si8 0.314901 0.810446 0.137444
O O1 0.709442 0.110110 0.867094
O O2 0.612746 0.097999 0.770252
O O3 0.613527 0.070351 0.920984
O O4 0.670754 0.000000 0.818775
O O5 0.783983 0.825247 0.788725
O O6 0.777724 0.801798 0.940272
O O7 0.823229 0.905717 0.905749
O O8 0.217651 0.800993 0.473888
O O9 0.236128 0.714766 0.579419
O O10 0.712241 0.500000 0.830022
O O11 0.710989 0.419828 0.711461
O O12 0.618302 0.424412 0.806207
O O13 0.714896 0.381444 0.862559
O O14 0.500000 0.278305 0.882065
O O15 0.579666 0.209937 0.805988
O O16 0.615882 0.308050 0.885849
O O17 0.364458 0.500000 0.487164
O O18 0.500000 0.072131 0.952998
O O19 0.425318 0.000000 0.035307
#
# Coordination Sequence:
#
# PCOD8307867 Si02
#       8
#    16  16  16  16  16  16  16  16
#     4  11  20  30  46  68  96 132 167 197 231 284
#     4  11  19  34  45  70  96 124 163 205 251 284
#     4  10  20  29  51  68  94 122 159 206 239 291
#     4  10  19  31  46  65  97 126 156 198 235 277
#     4  10  19  29  43  68 100 130 158 194 232 281
#     4  11  20  31  47  68 100 134 167 202 240 288
#     4   9  17  27  39  60  94 134 165 185 214 263
#     4  11  18  32  47  70  90 125 163 194 243 283
#
# _framework density 15.829623
#
# number of rings (size 3 to 8) (size 9 to 14) (size 15 to 20)
#    0.000    1.625    5.000    2.250    0.000    1.250 
#    0.000    0.000    0.000    0.750    0.000    0.000 
#    0.000    0.000    0.000    0.000    0.000    0.000 
#
# Total GULP energy -792911.940087 kJ/mol
# GULP energy per Si atom -12389.249064 kJ/mol
# Density = 1.579359 g / cm^3
# Si number density = 15.829623 Si / 1000 Ang^3
#
#
#
# Elastic Constant Matrix: (Units=GPa)
#
#
# Indices 1 2 3 4 5 6 
#
# 1 49.7763 13.3036 28.0434 0.0000 0.0000 0.0000
# 2 13.3036 49.7763 28.0434 0.0000 0.0000 0.0000
# 3 28.0434 28.0434 47.3306 0.0000 0.0000 0.0000
# 4 0.0000 0.0000 0.0000 20.7528 0.0000 0.0000
# 5 0.0000 0.0000 0.0000 0.0000 20.7528 0.0000
# 6 0.0000 0.0000 0.0000 0.0000 0.0000 14.4465
#
#
#
# Elastic Compliance Matrix: (Units=1/GPa)
#
#
# Indices 1 2 3 4 5 6 
#
# 1 0.030460 0.003042 -0.019850 0.000000 0.000000 0.000000
# 2 0.003042 0.030460 -0.019850 0.000000 0.000000 0.000000
# 3 -0.019850 -0.019850 0.044651 0.000000 0.000000 0.000000
# 4 0.000000 0.000000 0.000000 0.048186 0.000000 0.000000
# 5 0.000000 0.000000 0.000000 0.000000 0.048186 0.000000
# 6 0.000000 0.000000 0.000000 0.000000 0.000000 0.069221
#
#
# Mechanical properties :
#
#
# Convention : Reuss Voigt Hill
#
# Bulk Modulus (GPa) = 31.00337 31.74045 31.37191
# Shear Modulus (GPa) = 14.07532 16.35662 15.21597
#
# Velocity S-wave (km/s) = 2.98514 3.21797 3.10374
# Velocity P-wave (km/s) = 5.61334 5.82254 5.71890
#
# Compressibility (1/GPa) = 0.03225456
#
# Stress axis : x y z
#
# Youngs Moduli (GPa) = 32.82981 32.82981 22.39616
#
# Poissons Ratio (x) = -0.09988 0.44457
# Poissons Ratio (y) = -0.09988 0.44457
# Poissons Ratio (z) = 0.65168 0.65168
#
# Static dielectric constant tensor:
#      x y z
#    x 3.291720 0.000000 0.000000 
#    y 0.000000 3.291720 0.000000 
#    z 0.000000 0.000000 2.960310 
# 
# 
# High freq. dielectric constant tensor:
#      x y z
#    x 1.602570 0.000000 0.000000 
#    y 0.000000 1.602570 0.000000 
#    z 0.000000 0.000000 1.565600 
# 
# From -- ./inp_files/3301.got.cif
#   From: 2010.03.12/outbox.cif.g09.slc.cpg/sg109_2_cif.got.tgz:3301.got - 2010.04.14 01:55:16.
