data_PCOD8307095
_publ_section_title
;
Structure prediction by ZEFSAII (Michael W. Deem and Ramdas Pophale) SiO2 
 PCOD8307095
Probable space group: P 4 N C 
;
_chemical_formula_sum "Si O2"
_cell_formula_units_Z 56
_cell_length_a 11.170990
_cell_length_b 11.170990
_cell_length_c 20.656083
_cell_angle_alpha 90.000000
_cell_angle_beta 90.000000
_cell_angle_gamma 90.000000
_cell_volume 2577.693617
_symmetry_space_group_name_H-M "P 4 N C "
_symmetry_group_IT_number 104
_symmetry_cell_setting 'tetragonal'
loop_
_space_group_symop_operation_xyz
x,y,z
-y,x,z
-x,-y,z
y,-x,z
1/2-x,1/2+y,1/2+z
1/2+x,1/2-y,1/2+z
1/2-y,1/2-x,1/2+z
1/2+y,1/2+x,1/2+z
loop_
_atom_site_type_symbol
_atom_site_label
_atom_site_fract_x
_atom_site_fract_y
_atom_site_fract_z
Si Si1 0.563981 0.873325 0.930830
Si Si2 0.683088 0.443684 0.445932
Si Si3 0.436019 0.126675 0.705343
Si Si4 0.188234 0.041330 0.538334
Si Si5 0.541330 0.688234 0.597839
Si Si6 0.699571 0.495934 0.818086
Si Si7 0.056316 0.816912 0.690240
O O1 0.699695 0.900160 0.908054
O O2 0.501354 0.784261 0.880655
O O3 0.500000 0.000000 0.935455
O O4 0.563951 0.811427 0.001085
O O5 0.646949 0.577930 0.426033
O O6 0.711382 0.446268 0.522006
O O7 0.436050 0.188573 0.635088
O O8 0.498646 0.215739 0.755517
O O9 0.300305 0.099841 0.728118
O O10 0.500000 0.000000 0.700718
O O11 0.211382 0.053732 0.614166
O O12 0.089748 0.140096 0.518589
O O13 0.410251 0.640096 0.617583
O O14 0.620772 0.615731 0.818086
O O15 0.922070 0.853051 0.710139
#
# Coordination Sequence:
#
# PCOD8307095 Si02
#       7
#     8   8   8   8   8   8   8
#     4  12  25  39  64  98 126 160 212 270 319 368
#     4   9  21  40  61  92 133 174 206 244 311 386
#     4  12  25  39  64  98 126 160 212 270 319 368
#     4   9  19  38  63  92 130 173 213 253 306 368
#     4   9  19  38  63  92 130 173 213 253 306 368
#     4  11  27  50  72  89 116 162 216 273 331 378
#     4   9  21  40  61  92 133 174 206 244 311 386
#
# _framework density 21.724845999999999
#
# number of rings (size 3 to 8) (size 9 to 14) (size 15 to 20)
#    0.000    1.857    0.000    4.714    8.000    4.571 
#    0.000    0.000    0.000    1.714    0.000    0.000 
#    0.000    0.000    0.000    0.000    0.000    0.000 
#
# Total GULP energy -694438.337653 kJ/mol
# GULP energy per Si atom -12400.684601 kJ/mol
# Density = 2.167540 g / cm^3
# Si number density = 21.724846 Si / 1000 Ang^3
#
#
#
# Elastic Constant Matrix: (Units=GPa)
#
#
# Indices 1 2 3 4 5 6 
#
# 1 150.6700 3.0167 -0.9278 0.0000 0.0000 0.0000
# 2 3.0167 150.6700 -0.9278 0.0000 0.0000 0.0000
# 3 -0.9278 -0.9278 14.6020 0.0000 0.0000 0.0000
# 4 0.0000 0.0000 0.0000 22.8045 0.0000 0.0000
# 5 0.0000 0.0000 0.0000 0.0000 22.8045 0.0000
# 6 0.0000 0.0000 0.0000 0.0000 0.0000 24.7545
#
#
#
# Elastic Compliance Matrix: (Units=1/GPa)
#
#
# Indices 1 2 3 4 5 6 
#
# 1 0.006642 -0.000130 0.000414 0.000000 0.000000 0.000000
# 2 -0.000130 0.006642 0.000414 0.000000 0.000000 0.000000
# 3 0.000414 0.000414 0.068536 0.000000 0.000000 0.000000
# 4 0.000000 0.000000 0.000000 0.043851 0.000000 0.000000
# 5 0.000000 0.000000 0.000000 0.000000 0.043851 0.000000
# 6 0.000000 0.000000 0.000000 0.000000 0.000000 0.040397
#
#
# Mechanical properties :
#
#
# Convention : Reuss Voigt Hill
#
# Bulk Modulus (GPa) = 12.01713 35.36271 23.68992
# Shear Modulus (GPa) = 21.16281 35.05807 28.11044
#
# Velocity S-wave (km/s) = 3.12449 4.02149 3.60103
# Velocity P-wave (km/s) = 4.30814 6.15435 5.31207
#
# Compressibility (1/GPa) = 0.08321455
#
# Stress axis : x y z
#
# Youngs Moduli (GPa) = 150.55293 150.55293 14.59084
#
# Poissons Ratio (x) = 0.01964 -0.00604
# Poissons Ratio (y) = 0.01964 -0.00604
# Poissons Ratio (z) = -0.06229 -0.06229
#
# Static dielectric constant tensor:
#      x y z
#    x 4.045060 0.000000 0.000000 
#    y 0.000000 4.045060 0.000000 
#    z 0.000000 0.000000 3.561990 
# 
# 
# High freq. dielectric constant tensor:
#      x y z
#    x 1.863250 0.000000 0.000000 
#    y 0.000000 1.863250 0.000000 
#    z 0.000000 0.000000 1.828720 
# 
# From -- ./inp_files/1638.got.cif
#   From: 2010.03.12/outbox.cif.g09.slc.cpg/sg104_cif.got.tgz:1638.got - 2010.04.14 01:44:05.
