data_PCOD8307170
_publ_section_title
;
Structure prediction by ZEFSAII (Michael W. Deem and Ramdas Pophale) SiO2 
 PCOD8307170
Probable space group: P 42 M C
;
_chemical_formula_sum "Si O2"
_cell_formula_units_Z 48
_cell_length_a 9.729639
_cell_length_b 9.729639
_cell_length_c 27.695687
_cell_angle_alpha 90.000000
_cell_angle_beta 90.000000
_cell_angle_gamma 90.000000
_cell_volume 2621.836446
_symmetry_space_group_name_H-M "P 42 M C"
_symmetry_group_IT_number 105
_symmetry_cell_setting 'tetragonal'
loop_
_space_group_symop_operation_xyz
x,y,z
-y,x,1/2+z
-x,-y,z
y,-x,1/2+z
-x,y,z
x,-y,z
-y,-x,1/2+z
y,x,1/2+z
loop_
_atom_site_type_symbol
_atom_site_label
_atom_site_fract_x
_atom_site_fract_y
_atom_site_fract_z
Si Si1 0.833729 0.500000 0.806370
Si Si2 0.749476 0.660013 0.270683
Si Si3 0.656264 0.000000 0.841057
Si Si4 0.838671 0.500000 0.915274
Si Si5 0.337088 0.655871 0.579998
Si Si6 0.152223 0.337913 0.164354
Si Si7 0.726362 0.841017 0.488888
Si Si8 0.153771 0.000000 0.933440
O O1 0.768414 0.369505 0.780492
O O2 0.777778 0.500000 0.861480
O O3 0.000000 0.500000 0.801791
O O4 0.700385 0.500000 0.272300
O O5 0.805930 0.699944 0.218388
O O6 0.866590 0.688274 0.309657
O O7 0.746904 0.000000 0.888432
O O8 0.500000 0.000000 0.858592
O O9 0.789061 0.368405 0.945054
O O10 0.000000 0.500000 0.908966
O O11 0.500000 0.649054 0.582198
O O12 0.277396 0.500000 0.578488
O O13 0.277414 0.735346 0.626968
O O14 0.291795 0.741636 0.533777
O O15 0.145486 0.500000 0.157894
O O16 0.000000 0.276348 0.153606
O O17 0.876937 0.821041 0.469549
O O18 0.692887 0.000000 0.503289
O O19 0.000000 0.000000 0.911882
#
# Coordination Sequence:
#
# PCOD8307170 Si02
#       8
#     4   8   4   4   8   8   8   4
#     4  11  23  37  55  83 119 157 191 229 288 345
#     4  10  20  36  58  84 114 148 192 238 287 345
#     4  10  20  36  58  86 116 146 190 244 287 340
#     4   9  18  33  55  77 105 147 189 227 268 329
#     4  10  20  32  52  85 113 138 180 236 290 336
#     4   9  17  32  56  82 107 141 185 233 282 335
#     4  10  19  35  56  78 108 145 190 231 276 330
#     4  10  22  36  56  84 114 154 194 230 277 338
#
# _framework density 18.307777000000002
#
# number of rings (size 3 to 8) (size 9 to 14) (size 15 to 20)
#    0.000    2.167    1.667    1.750    1.167    3.333 
#    0.000    1.667    1.833    0.000    0.000    0.000 
#    0.000    0.000    0.000    0.000    0.000    0.000 
#
# Total GULP energy -595037.748022 kJ/mol
# GULP energy per Si atom -12396.619750 kJ/mol
# Density = 1.826611 g / cm^3
# Si number density = 18.307777 Si / 1000 Ang^3
#
#
#
# Elastic Constant Matrix: (Units=GPa)
#
#
# Indices 1 2 3 4 5 6 
#
# 1 98.3185 37.5954 36.1710 0.0000 0.0000 0.0000
# 2 37.5954 98.3185 36.1710 0.0000 0.0000 0.0000
# 3 36.1710 36.1710 98.1183 0.0000 0.0000 0.0000
# 4 0.0000 0.0000 0.0000 -75.1584 0.0000 0.0000
# 5 0.0000 0.0000 0.0000 0.0000 -75.1584 0.0000
# 6 0.0000 0.0000 0.0000 0.0000 0.0000 67.0012
#
#
#
# Elastic Compliance Matrix: (Units=1/GPa)
#
#
# Indices 1 2 3 4 5 6 
#
# 1 0.012811 -0.003657 -0.003374 0.000000 0.000000 0.000000
# 2 -0.003657 0.012811 -0.003374 0.000000 0.000000 0.000000
# 3 -0.003374 -0.003374 0.012680 0.000000 0.000000 0.000000
# 4 0.000000 0.000000 0.000000 -0.013305 0.000000 0.000000
# 5 0.000000 0.000000 0.000000 0.000000 -0.013305 0.000000
# 6 0.000000 0.000000 0.000000 0.000000 0.000000 0.014925
#
#
# Mechanical properties :
#
#
# Convention : Reuss Voigt Hill
#
# Bulk Modulus (GPa) = 57.17799 57.18112 57.17955
# Shear Modulus (GPa) = 93.88178 -4.34191 44.76994
#
# Velocity S-wave (km/s) = 7.16876 -1.54168 4.95047
# Velocity P-wave (km/s) = 9.99103 5.30396 7.99852
#
# Compressibility (1/GPa) = 0.01748925
#
# Stress axis : x y z
#
# Youngs Moduli (GPa) = 78.05820 78.05820 78.86583
#
# Poissons Ratio (x) = 0.28548 0.26613
# Poissons Ratio (y) = 0.28548 0.26613
# Poissons Ratio (z) = 0.26341 0.26341
#
# Static dielectric constant tensor:
#      x y z
#    x 4.709610 0.000000 0.000000 
#    y 0.000000 4.709610 0.000000 
#    z 0.000000 0.000000 3.495370 
# 
# 
# High freq. dielectric constant tensor:
#      x y z
#    x 1.697700 0.000000 0.000000 
#    y 0.000000 1.697700 0.000000 
#    z 0.000000 0.000000 1.722210 
# 
# From -- ./inp_files/4882.got.cif
#   From: 2010.03.12/outbox.cif.g09.slc.cpg/sg105_3_cif.got.tgz:4882.got - 2010.04.14 01:45:32.
