data_PCOD8307668
_publ_section_title
;
Structure prediction by ZEFSAII (Michael W. Deem and Ramdas Pophale) SiO2 
 PCOD8307668
Probable space group: I 4 M M
;
_chemical_formula_sum "Si O2"
_cell_formula_units_Z 112
_cell_length_a 31.009664
_cell_length_b 31.009664
_cell_length_c 5.438536
_cell_angle_alpha 90.000000
_cell_angle_beta 90.000000
_cell_angle_gamma 90.000000
_cell_volume 5229.692201
_symmetry_space_group_name_H-M "I 4 M M"
_symmetry_group_IT_number 107
_symmetry_cell_setting 'tetragonal'
loop_
_space_group_symop_operation_xyz
x,y,z
-y,x,z
-x,-y,z
y,-x,z
-x,y,z
x,-y,z
-y,-x,z
y,x,z
1/2+x,1/2+y,1/2+z
1/2-y,1/2+x,1/2+z
1/2-x,1/2-y,1/2+z
1/2+y,1/2-x,1/2+z
1/2-x,1/2+y,1/2+z
1/2+x,1/2-y,1/2+z
1/2-y,1/2-x,1/2+z
1/2+y,1/2+x,1/2+z
loop_
_atom_site_type_symbol
_atom_site_label
_atom_site_fract_x
_atom_site_fract_y
_atom_site_fract_z
Si Si1 0.324473 0.609220 0.996690
Si Si2 0.952497 0.201747 0.114451
Si Si3 0.549715 0.914248 0.206244
Si Si4 0.231679 0.696666 0.563097
Si Si5 0.112939 0.750771 0.836555
Si Si6 0.156589 0.620809 0.212802
Si Si7 0.882027 0.951057 0.816147
O O1 0.352132 0.647869 0.872475
O O2 0.292817 0.583244 0.821116
O O3 0.291640 0.631795 0.185840
O O4 0.358307 0.574507 0.100939
O O5 0.000000 0.216252 0.199220
O O6 0.935830 0.235149 0.908820
O O7 0.952861 0.151453 0.040647
O O8 0.500000 0.900957 0.207298
O O9 0.559220 0.941041 0.455603
O O10 0.576903 0.870410 0.205638
O O11 0.273232 0.726769 0.569923
O O12 0.202839 0.705332 0.804683
O O13 0.245919 0.646645 0.563518
O O14 0.108429 0.706680 0.684035
O O15 0.150390 0.644007 0.479152
O O16 0.925741 0.925741 0.894449
O O17 0.893786 0.000000 0.733012
#
# Coordination Sequence:
#
# PCOD8307668 Si02
#       7
#    16  16  16  16  16  16  16
#     4  10  21  36  58  85 114 152 196 252 312 368
#     4  10  22  38  57  83 116 154 200 254 309 368
#     4  10  21  38  61  92 125 159 202 253 309 370
#     4  10  22  38  58  88 125 158 196 251 310 366
#     4  11  23  37  61  84 116 155 208 251 298 367
#     4  10  23  41  64  88 127 170 209 251 314 374
#     4   9  18  34  54  79 111 146 186 237 298 367
#
# _framework density 21.416173000000001
#
# number of rings (size 3 to 8) (size 9 to 14) (size 15 to 20)
#    0.000    2.000    0.000    2.571    4.000    3.857 
#    0.000    0.000    0.000    0.000    0.000    2.000 
#    0.000    0.000    0.000    0.000    0.000    0.000 
#
# Total GULP energy -693981.870279 kJ/mol
# GULP energy per Si atom -12392.533398 kJ/mol
# Density = 2.136743 g / cm^3
# Si number density = 21.416173 Si / 1000 Ang^3
#
#
#
# Elastic Constant Matrix: (Units=GPa)
#
#
# Indices 1 2 3 4 5 6 
#
# 1 125.8243 69.7037 33.8257 0.0000 0.0000 0.0010
# 2 69.7037 125.8243 33.8257 0.0000 0.0000 -0.0010
# 3 33.8257 33.8257 96.5127 0.0000 0.0000 0.0000
# 4 0.0000 0.0000 0.0000 21.6297 0.0000 0.0000
# 5 0.0000 0.0000 0.0000 0.0000 21.6297 0.0000
# 6 0.0010 -0.0010 0.0000 0.0000 0.0000 14.8189
#
#
#
# Elastic Compliance Matrix: (Units=1/GPa)
#
#
# Indices 1 2 3 4 5 6 
#
# 1 0.011819 -0.005999 -0.002040 0.000000 0.000000 -0.000001
# 2 -0.005999 0.011819 -0.002040 0.000000 0.000000 0.000001
# 3 -0.002040 -0.002040 0.011791 0.000000 0.000000 0.000000
# 4 0.000000 0.000000 0.000000 0.046233 0.000000 0.000000
# 5 0.000000 0.000000 0.000000 0.000000 0.046233 0.000000
# 6 -0.000001 0.000001 0.000000 0.000000 0.000000 0.067481
#
#
# Mechanical properties :
#
#
# Convention : Reuss Voigt Hill
#
# Bulk Modulus (GPa) = 65.47892 69.20794 67.34343
# Shear Modulus (GPa) = 22.66286 25.66942 24.16614
#
# Velocity S-wave (km/s) = 3.25655 3.46584 3.36282
# Velocity P-wave (km/s) = 6.69186 6.95715 6.82579
#
# Compressibility (1/GPa) = 0.01527209
#
# Stress axis : x y z
#
# Youngs Moduli (GPa) = 84.60632 84.60632 84.80919
#
# Poissons Ratio (x) = 0.50758 0.17300
# Poissons Ratio (y) = 0.50758 0.17300
# Poissons Ratio (z) = 0.17258 0.17258
#
# Static dielectric constant tensor:
#      x y z
#    x 3.866520 0.000000 0.000000 
#    y 0.000000 3.866520 0.000000 
#    z 0.000000 0.000000 3.937340 
# 
# 
# High freq. dielectric constant tensor:
#      x y z
#    x 1.842530 0.000000 0.000000 
#    y 0.000000 1.842530 0.000000 
#    z 0.000000 0.000000 1.831690 
# 
# From -- ./inp_files/589.got.cif
#   From: 2010.03.12/outbox.cif.g09.slc.cpg/sg107_1_cif.got.tgz:589.got - 2010.04.14 01:49:11.
