data_PCOD8307460
_publ_section_title
;
Structure prediction by ZEFSAII (Michael W. Deem and Ramdas Pophale) SiO2 
 PCOD8307460
Probable space group: P 42 B C
;
_chemical_formula_sum "Si O2"
_cell_formula_units_Z 48
_cell_length_a 8.951413
_cell_length_b 8.951413
_cell_length_c 25.520354
_cell_angle_alpha 90.000000
_cell_angle_beta 90.000000
_cell_angle_gamma 90.000000
_cell_volume 2044.889686
_symmetry_space_group_name_H-M "P 42 B C"
_symmetry_group_IT_number 106
_symmetry_cell_setting 'tetragonal'
loop_
_space_group_symop_operation_xyz
x,y,z
-y,x,1/2+z
-x,-y,z
y,-x,1/2+z
1/2-x,1/2+y,z
1/2+x,1/2-y,z
1/2-y,1/2-x,1/2+z
1/2+y,1/2+x,1/2+z
loop_
_atom_site_type_symbol
_atom_site_label
_atom_site_fract_x
_atom_site_fract_y
_atom_site_fract_z
Si Si1 0.887832 0.866537 0.227420
Si Si2 0.127086 0.878386 0.499642
Si Si3 0.081849 0.648900 0.405954
Si Si4 0.150215 0.581585 0.669043
Si Si5 0.921395 0.346087 0.055804
Si Si6 0.614038 0.366159 0.347120
O O1 0.748730 0.879116 0.188801
O O2 0.832388 0.857002 0.287170
O O3 0.986116 0.723045 0.214981
O O4 0.000000 0.000000 0.216998
O O5 0.112834 0.785154 0.446080
O O6 0.129135 0.753754 0.544407
O O7 0.269825 0.987022 0.507729
O O8 0.000000 0.000000 0.505981
O O9 0.240870 0.602380 0.382236
O O10 0.000000 0.500000 0.429663
O O11 0.968634 0.712127 0.362063
O O12 0.238952 0.579949 0.612697
O O13 0.000000 0.500000 0.655751
O O14 0.000000 0.500000 0.063719
O O15 0.500000 0.500000 0.356767
#
# Coordination Sequence:
#
# PCOD8307460 Si02
#       6
#     8   8   8   8   8   8
#     4  11  24  43  72 107 147 193 246 299 374 450
#     4  12  28  47  71 101 141 187 249 306 377 449
#     4  12  28  46  73 106 147 195 256 315 386 456
#     4  11  24  43  70 105 144 187 242 306 377 448
#     4  11  26  46  71 104 142 189 243 309 379 451
#     4  11  26  47  71 107 150 197 248 311 377 458
#
# _framework density 23.473151000000001
#
# number of rings (size 3 to 8) (size 9 to 14) (size 15 to 20)
#    0.000    0.667    0.000    6.000    9.333   10.667 
#    0.000    0.000    0.000    0.000    0.000    0.000 
#    0.000    0.000    0.000    0.000    0.000    0.000 
#
# Total GULP energy -594823.064443 kJ/mol
# GULP energy per Si atom -12392.147176 kJ/mol
# Density = 2.341973 g / cm^3
# Si number density = 23.473151 Si / 1000 Ang^3
#
#
#
# Elastic Constant Matrix: (Units=GPa)
#
#
# Indices 1 2 3 4 5 6 
#
# 1 142.9088 49.6822 64.5634 0.0000 0.0000 0.0000
# 2 49.6822 142.9088 64.5634 0.0000 0.0000 0.0000
# 3 64.5634 64.5634 110.1115 0.0000 0.0000 0.0000
# 4 0.0000 0.0000 0.0000 38.7120 0.0000 0.0000
# 5 0.0000 0.0000 0.0000 0.0000 38.7120 0.0000
# 6 0.0000 0.0000 0.0000 0.0000 0.0000 41.7788
#
#
#
# Elastic Compliance Matrix: (Units=1/GPa)
#
#
# Indices 1 2 3 4 5 6 
#
# 1 0.009641 -0.001085 -0.005017 0.000000 0.000000 0.000000
# 2 -0.001085 0.009641 -0.005017 0.000000 0.000000 0.000000
# 3 -0.005017 -0.005017 0.014965 0.000000 0.000000 0.000000
# 4 0.000000 0.000000 0.000000 0.025832 0.000000 0.000000
# 5 0.000000 0.000000 0.000000 0.000000 0.025832 0.000000
# 6 0.000000 0.000000 0.000000 0.000000 0.000000 0.023936
#
#
# Mechanical properties :
#
#
# Convention : Reuss Voigt Hill
#
# Bulk Modulus (GPa) = 83.26595 83.72745 83.49670
# Shear Modulus (GPa) = 36.74114 38.31523 37.52818
#
# Velocity S-wave (km/s) = 3.96060 4.04456 4.00280
# Velocity P-wave (km/s) = 7.51432 7.58671 7.55060
#
# Compressibility (1/GPa) = 0.01200971
#
# Stress axis : x y z
#
# Youngs Moduli (GPa) = 103.72113 103.72113 66.82354
#
# Poissons Ratio (x) = 0.11257 0.33524
# Poissons Ratio (y) = 0.11257 0.33524
# Poissons Ratio (z) = 0.52034 0.52034
#
# Static dielectric constant tensor:
#      x y z
#    x 4.602210 0.000000 0.000000 
#    y 0.000000 4.602210 0.000000 
#    z 0.000000 0.000000 4.441360 
# 
# 
# High freq. dielectric constant tensor:
#      x y z
#    x 1.937990 0.000000 0.000000 
#    y 0.000000 1.937990 0.000000 
#    z 0.000000 0.000000 1.943790 
# 
# From -- ./inp_files/1783.got.cif
#   From: 2010.03.12/outbox.cif.g09.slc.cpg/sg106_cif.got.tgz:1783.got - 2010.04.14 01:48:02.
