data_PCOD8307037
_publ_section_title
;
Structure prediction by ZEFSAII (Michael W. Deem and Ramdas Pophale) SiO2 
 PCOD8307037
Probable space group: P 4 N C 
;
_chemical_formula_sum "Si O2"
_cell_formula_units_Z 64
_cell_length_a 17.010121
_cell_length_b 17.010121
_cell_length_c 10.894581
_cell_angle_alpha 90.000000
_cell_angle_beta 90.000000
_cell_angle_gamma 90.000000
_cell_volume 3152.284003
_symmetry_space_group_name_H-M "P 4 N C "
_symmetry_group_IT_number 104
_symmetry_cell_setting 'tetragonal'
loop_
_space_group_symop_operation_xyz
x,y,z
-y,x,z
-x,-y,z
y,-x,z
1/2-x,1/2+y,1/2+z
1/2+x,1/2-y,1/2+z
1/2-y,1/2-x,1/2+z
1/2+y,1/2+x,1/2+z
loop_
_atom_site_type_symbol
_atom_site_label
_atom_site_fract_x
_atom_site_fract_y
_atom_site_fract_z
Si Si1 0.749920 0.973681 0.297960
Si Si2 0.200860 0.560294 0.171341
Si Si3 0.029332 0.615861 0.115931
Si Si4 0.668825 0.758732 0.959046
Si Si5 0.368083 0.794332 0.901362
Si Si6 0.626498 0.474750 0.605963
Si Si7 0.266394 0.079878 0.942125
Si Si8 0.603211 0.139535 0.153595
O O1 0.736356 0.041876 0.398631
O O2 0.696479 0.993476 0.182789
O O3 0.721361 0.889773 0.347848
O O4 0.838461 0.969668 0.244419
O O5 0.107787 0.578258 0.169099
O O6 0.242996 0.580068 0.297568
O O7 0.204034 0.466092 0.156006
O O8 0.252698 0.610791 0.075690
O O9 0.949349 0.565307 0.136893
O O10 0.041399 0.647878 0.976533
O O11 0.716020 0.682797 0.916439
O O12 0.729432 0.829234 0.986670
O O13 0.348472 0.843021 0.775783
O O14 0.351045 0.845489 0.024462
O O15 0.591602 0.561156 0.588443
O O16 0.691558 0.461604 0.501468
#
# Coordination Sequence:
#
# PCOD8307037 Si02
#       8
#     8   8   8   8   8   8   8   8
#     4  10  19  41  61  91 124 164 216 269 318 394
#     4  11  21  39  60  90 125 171 211 254 328 403
#     4   9  20  35  60  88 125 162 206 255 318 389
#     4  11  23  39  63  87 129 168 212 262 333 391
#     4  11  25  39  62  95 130 170 222 277 328 394
#     4  10  22  41  67  95 126 168 223 283 333 379
#     4  10  22  37  61  91 124 165 213 262 324 395
#     4  11  23  39  60  94 131 166 215 272 327 389
#
# _framework density 20.30274
#
# number of rings (size 3 to 8) (size 9 to 14) (size 15 to 20)
#    0.000    1.625    2.500    1.875    1.750    4.000 
#    0.000    2.500    0.000    0.000    0.000    0.000 
#    0.000    0.000    0.000    0.000    0.000    0.000 
#
# Total GULP energy -792908.588913 kJ/mol
# GULP energy per Si atom -12389.196702 kJ/mol
# Density = 2.025653 g / cm^3
# Si number density = 20.302740 Si / 1000 Ang^3
#
#
#
# Elastic Constant Matrix: (Units=GPa)
#
#
# Indices 1 2 3 4 5 6 
#
# 1 75.6814 29.4467 30.4442 0.0000 0.0000 0.0000
# 2 29.4467 75.6814 30.4442 0.0000 0.0000 0.0000
# 3 30.4442 30.4442 134.2882 0.0000 0.0000 0.0000
# 4 0.0000 0.0000 0.0000 25.3007 0.0000 0.0000
# 5 0.0000 0.0000 0.0000 0.0000 25.3007 0.0000
# 6 0.0000 0.0000 0.0000 0.0000 0.0000 29.7609
#
#
#
# Elastic Compliance Matrix: (Units=1/GPa)
#
#
# Indices 1 2 3 4 5 6 
#
# 1 0.016289 -0.005339 -0.002482 0.000000 0.000000 0.000000
# 2 -0.005339 0.016289 -0.002482 0.000000 0.000000 0.000000
# 3 -0.002482 -0.002482 0.008572 0.000000 0.000000 0.000000
# 4 0.000000 0.000000 0.000000 0.039525 0.000000 0.000000
# 5 0.000000 0.000000 0.000000 0.000000 0.039525 0.000000
# 6 0.000000 0.000000 0.000000 0.000000 0.000000 0.033601
#
#
# Mechanical properties :
#
#
# Convention : Reuss Voigt Hill
#
# Bulk Modulus (GPa) = 48.67971 51.81347 50.24659
# Shear Modulus (GPa) = 27.58511 29.09355 28.33933
#
# Velocity S-wave (km/s) = 3.69004 3.78959 3.74014
# Velocity P-wave (km/s) = 6.49493 6.68759 6.59196
#
# Compressibility (1/GPa) = 0.02054244
#
# Stress axis : x y z
#
# Youngs Moduli (GPa) = 61.38970 61.38970 116.65548
#
# Poissons Ratio (x) = 0.32778 0.28959
# Poissons Ratio (y) = 0.32778 0.28959
# Poissons Ratio (z) = 0.15240 0.15240
#
# Static dielectric constant tensor:
#      x y z
#    x 3.612400 0.000000 0.000000 
#    y 0.000000 3.612400 0.000000 
#    z 0.000000 0.000000 3.728430 
# 
# 
# High freq. dielectric constant tensor:
#      x y z
#    x 1.783490 0.000000 0.000000 
#    y 0.000000 1.783490 0.000000 
#    z 0.000000 0.000000 1.797950 
# 
# From -- ./inp_files/1078.got.cif
#   From: 2010.03.12/outbox.cif.g09.slc.cpg/sg104_cif.got.tgz:1078.got - 2010.04.14 01:44:05.
