data_PCOD8307675
_publ_section_title
;
Structure prediction by ZEFSAII (Michael W. Deem and Ramdas Pophale) SiO2 
 PCOD8307675
Probable space group: I 4 M M
;
_chemical_formula_sum "Si O2"
_cell_formula_units_Z 56
_cell_length_a 17.977198
_cell_length_b 17.977198
_cell_length_c 9.858667
_cell_angle_alpha 90.000000
_cell_angle_beta 90.000000
_cell_angle_gamma 90.000000
_cell_volume 3186.120530
_symmetry_space_group_name_H-M "I 4 M M"
_symmetry_group_IT_number 107
_symmetry_cell_setting 'tetragonal'
loop_
_space_group_symop_operation_xyz
x,y,z
-y,x,z
-x,-y,z
y,-x,z
-x,y,z
x,-y,z
-y,-x,z
y,x,z
1/2+x,1/2+y,1/2+z
1/2-y,1/2+x,1/2+z
1/2-x,1/2-y,1/2+z
1/2+y,1/2-x,1/2+z
1/2-x,1/2+y,1/2+z
1/2+x,1/2-y,1/2+z
1/2-y,1/2-x,1/2+z
1/2+y,1/2+x,1/2+z
loop_
_atom_site_type_symbol
_atom_site_label
_atom_site_fract_x
_atom_site_fract_y
_atom_site_fract_z
Si Si1 0.085924 0.413860 0.960570
Si Si2 0.324509 0.675492 0.122745
Si Si3 0.191531 0.191531 0.321984
Si Si4 0.085500 0.914501 0.437587
Si Si5 0.849798 0.668521 0.712285
O O1 0.112005 0.500000 0.949966
O O2 0.096552 0.372564 0.817685
O O3 0.000000 0.410069 0.002668
O O4 0.134735 0.368652 0.066859
O O5 0.290506 0.709494 0.981004
O O6 0.257828 0.637016 0.207814
O O7 0.386270 0.613731 0.085751
O O8 0.128055 0.128055 0.316449
O O9 0.263124 0.157094 0.247508
O O10 0.000000 0.895803 0.423417
#
# Coordination Sequence:
#
# PCOD8307675 Si02
#       5
#    16   8   8   8  16
#     4  11  23  36  53  81 116 152 186 221 269 330
#     4   9  20  35  56  80 106 139 186 232 278 330
#     4   9  20  35  56  80 106 139 186 232 278 330
#     4   9  18  34  54  80 110 138 178 233 286 336
#     4  11  20  37  56  78 110 149 184 233 270 324
#
# _framework density 17.576233999999999
#
# number of rings (size 3 to 8) (size 9 to 14) (size 15 to 20)
#    0.857    1.000    2.857    1.714    0.000    9.143 
#    0.000    0.000    0.000    0.000    0.000    0.000 
#    0.000    6.857    0.000    0.000    0.000    0.000 
#
# Total GULP energy -347054.079219 kJ/mol
# GULP energy per Si atom -12394.788544 kJ/mol
# Density = 1.753623 g / cm^3
# Si number density = 17.576234 Si / 1000 Ang^3
#
#
#
# Elastic Constant Matrix: (Units=GPa)
#
#
# Indices 1 2 3 4 5 6 
#
# 1 10.5753 115.4154 10.2873 0.0000 0.0000 0.0076
# 2 115.4154 10.5753 10.2873 0.0000 0.0000 -0.0076
# 3 10.2873 10.2873 50.8140 0.0000 0.0000 0.0000
# 4 0.0000 0.0000 0.0000 20.4810 0.0000 0.0000
# 5 0.0000 0.0000 0.0000 0.0000 20.4810 0.0000
# 6 0.0076 -0.0076 0.0000 0.0000 0.0000 31.5219
#
#
#
# Elastic Compliance Matrix: (Units=1/GPa)
#
#
# Indices 1 2 3 4 5 6 
#
# 1 -0.000665 0.008873 -0.001662 0.000000 0.000000 0.000002
# 2 0.008873 -0.000665 -0.001662 0.000000 0.000000 -0.000002
# 3 -0.001662 -0.001662 0.020352 0.000000 0.000000 0.000000
# 4 0.000000 0.000000 0.000000 0.048826 0.000000 0.000000
# 5 0.000000 0.000000 0.000000 0.000000 0.048826 0.000000
# 6 0.000002 -0.000002 0.000000 0.000000 0.000000 0.031724
#
#
# Mechanical properties :
#
#
# Convention : Reuss Voigt Hill
#
# Bulk Modulus (GPa) = 33.19810 38.21607 35.70709
# Shear Modulus (GPa) = 33.93527 10.22841 22.08184
#
# Velocity S-wave (km/s) = 4.39879 2.41497 3.54834
# Velocity P-wave (km/s) = 6.68792 5.43750 6.09486
#
# Compressibility (1/GPa) = 0.03012220
#
# Stress axis : x y z
#
# Youngs Moduli (GPa) = -1503.91668 -1503.91668 49.13402
#
# Poissons Ratio (x) = 13.34486 0.08165
# Poissons Ratio (y) = 13.34486 0.08165
# Poissons Ratio (z) = -2.49922 -2.49922
#
# Static dielectric constant tensor:
#      x y z
#    x 3.212500 0.000000 0.000000 
#    y 0.000000 3.212500 0.000000 
#    z 0.000000 0.000000 3.162450 
# 
# 
# High freq. dielectric constant tensor:
#      x y z
#    x 1.679830 0.000000 0.000000 
#    y 0.000000 1.679830 0.000000 
#    z 0.000000 0.000000 1.668310 
# 
# From -- ./inp_files/2098.got.cif
#   From: 2010.03.12/outbox.cif.g09.slc.cpg/sg107_2_cif.got.tgz:2098.got - 2010.04.14 01:49:11.
