data_PCOD8307101
_publ_section_title
;
Structure prediction by ZEFSAII (Michael W. Deem and Ramdas Pophale) SiO2 
 PCOD8307101
Probable space group: P 42 M C
;
_chemical_formula_sum "Si O2"
_cell_formula_units_Z 48
_cell_length_a 27.572335
_cell_length_b 27.572335
_cell_length_c 5.260302
_cell_angle_alpha 90.000000
_cell_angle_beta 90.000000
_cell_angle_gamma 90.000000
_cell_volume 3999.058628
_symmetry_space_group_name_H-M "P 42 M C"
_symmetry_group_IT_number 105
_symmetry_cell_setting 'tetragonal'
loop_
_space_group_symop_operation_xyz
x,y,z
-y,x,1/2+z
-x,-y,z
y,-x,1/2+z
-x,y,z
x,-y,z
-y,-x,1/2+z
y,x,1/2+z
loop_
_atom_site_type_symbol
_atom_site_label
_atom_site_fract_x
_atom_site_fract_y
_atom_site_fract_z
Si Si1 0.764714 0.944055 0.230640
Si Si2 0.611768 0.057660 0.700672
Si Si3 0.185239 0.779851 0.241458
Si Si4 0.445985 0.942742 0.199638
Si Si5 0.282876 0.094371 0.736947
Si Si6 0.884267 0.139104 0.713757
O O1 0.744735 0.932309 0.508562
O O2 0.813451 0.915415 0.175142
O O3 0.777331 0.000000 0.216109
O O4 0.727111 0.930398 0.009195
O O5 0.580976 0.073507 0.455601
O O6 0.660322 0.089225 0.687533
O O7 0.623384 0.000000 0.701339
O O8 0.582962 0.074456 0.950989
O O9 0.219465 0.780508 0.491662
O O10 0.151019 0.732376 0.241571
O O11 0.150967 0.827074 0.248709
O O12 0.500000 0.919836 0.196350
O O13 0.450465 0.000000 0.193997
O O14 0.889996 0.102811 0.472813
#
# Coordination Sequence:
#
# PCOD8307101 Si02
#       6
#     8   8   8   8   8   8
#     4  12  21  28  40  58  77  95 112 134 170 204
#     4  10  19  28  38  57  77  91 112 143 177 202
#     4  10  16  29  44  53  66  99 124 133 153 201
#     4   9  17  30  44  53  67  95 124 142 159 195
#     4  12  20  30  41  56  80 100 110 140 176 206
#     4  10  16  30  43  52  67  94 118 136 148 195
#
# _framework density 12.002824
#
# number of rings (size 3 to 8) (size 9 to 14) (size 15 to 20)
#    0.000    1.500    6.667    3.000    0.000    3.333 
#    0.000    0.000    0.000    0.000    0.000    0.000 
#    0.000    2.000    0.000    0.000    0.000    0.000 
#
# Total GULP energy -594983.108996 kJ/mol
# GULP energy per Si atom -12395.481437 kJ/mol
# Density = 1.197550 g / cm^3
# Si number density = 12.002824 Si / 1000 Ang^3
#
#
#
# Elastic Constant Matrix: (Units=GPa)
#
#
# Indices 1 2 3 4 5 6 
#
# 1 39.4703 34.9271 15.1803 0.0000 0.0000 0.0000
# 2 34.9271 39.4703 15.1803 0.0000 0.0000 0.0000
# 3 15.1803 15.1803 96.5403 0.0000 0.0000 0.0000
# 4 0.0000 0.0000 0.0000 10.7855 0.0000 0.0000
# 5 0.0000 0.0000 0.0000 0.0000 10.7855 0.0000
# 6 0.0000 0.0000 0.0000 0.0000 0.0000 4.0114
#
#
#
# Elastic Compliance Matrix: (Units=1/GPa)
#
#
# Indices 1 2 3 4 5 6 
#
# 1 0.117235 -0.102872 -0.002258 0.000000 0.000000 0.000000
# 2 -0.102872 0.117235 -0.002258 0.000000 0.000000 0.000000
# 3 -0.002258 -0.002258 0.011069 0.000000 0.000000 0.000000
# 4 0.000000 0.000000 0.000000 0.092717 0.000000 0.000000
# 5 0.000000 0.000000 0.000000 0.000000 0.092717 0.000000
# 6 0.000000 0.000000 0.000000 0.000000 0.000000 0.249288
#
#
# Mechanical properties :
#
#
# Convention : Reuss Voigt Hill
#
# Bulk Modulus (GPa) = 32.50903 34.00626 33.25764
# Shear Modulus (GPa) = 5.52308 12.46272 8.99290
#
# Velocity S-wave (km/s) = 2.14743 3.22579 2.74018
# Velocity P-wave (km/s) = 5.76991 6.50136 6.14653
#
# Compressibility (1/GPa) = 0.03076068
#
# Stress axis : x y z
#
# Youngs Moduli (GPa) = 8.52985 8.52985 90.34539
#
# Poissons Ratio (x) = 0.87749 0.20404
# Poissons Ratio (y) = 0.87749 0.20404
# Poissons Ratio (z) = 0.01926 0.01926
#
# Static dielectric constant tensor:
#      x y z
#    x 2.274140 0.000000 0.000000 
#    y 0.000000 2.274140 0.000000 
#    z 0.000000 0.000000 3.421820 
# 
# 
# High freq. dielectric constant tensor:
#      x y z
#    x 1.412470 0.000000 0.000000 
#    y 0.000000 1.412470 0.000000 
#    z 0.000000 0.000000 1.491520 
# 
# From -- ./inp_files/301.got.cif
#   From: 2010.03.12/outbox.cif.g09.slc.cpg/sg105_1_cif.got.tgz:301.got - 2010.04.14 01:45:32.
