data_PCOD8307725
_publ_section_title
;
Structure prediction by ZEFSAII (Michael W. Deem and Ramdas Pophale) SiO2 
 PCOD8307725
Probable space group: I 4 C M
;
_chemical_formula_sum "Si O2"
_cell_formula_units_Z 128
_cell_length_a 20.235757
_cell_length_b 20.235757
_cell_length_c 17.458430
_cell_angle_alpha 90.000000
_cell_angle_beta 90.000000
_cell_angle_gamma 90.000000
_cell_volume 7148.980247
_symmetry_space_group_name_H-M "I 4 C M"
_symmetry_group_IT_number 108
_symmetry_cell_setting 'tetragonal'
loop_
_space_group_symop_operation_xyz
x,y,z
-y,x,z
-x,-y,z
y,-x,z
-x,y,1/2+z
x,-y,1/2+z
-y,-x,1/2+z
y,x,1/2+z
1/2+x,1/2+y,1/2+z
1/2-y,1/2+x,1/2+z
1/2-x,1/2-y,1/2+z
1/2+y,1/2-x,1/2+z
1/2-x,1/2+y,z
1/2+x,1/2-y,z
1/2-y,1/2-x,z
1/2+y,1/2+x,z
loop_
_atom_site_type_symbol
_atom_site_label
_atom_site_fract_x
_atom_site_fract_y
_atom_site_fract_z
Si Si1 0.627138 0.233001 0.596740
Si Si2 0.825652 0.785977 0.349562
Si Si3 0.733002 0.872862 0.431734
Si Si4 0.464264 0.141715 0.177087
Si Si5 0.586249 0.196056 0.439641
Si Si6 0.535736 0.858286 0.351388
Si Si7 0.913750 0.303943 0.588833
Si Si8 0.214023 0.174349 0.678911
O O1 0.691982 0.191982 0.573681
O O2 0.589505 0.199822 0.668382
O O3 0.578313 0.232558 0.522504
O O4 0.652283 0.305351 0.623827
O O5 0.766676 0.733325 0.348232
O O6 0.805351 0.847717 0.404646
O O7 0.893146 0.752614 0.379308
O O8 0.839416 0.812584 0.264237
O O9 0.691982 0.808019 0.454792
O O10 0.699822 0.910495 0.360093
O O11 0.732560 0.921687 0.505970
O O12 0.428681 0.071320 0.157822
O O13 0.491023 0.141100 0.264238
O O14 0.522221 0.156041 0.116916
O O15 0.642639 0.142639 0.448077
O O16 0.522220 0.156041 0.411559
O O17 0.571321 0.928680 0.370653
O O18 0.857362 0.357362 0.580394
O O19 0.893143 0.247387 0.649167
O O20 0.266674 0.233327 0.680242
#
# Coordination Sequence:
#
# PCOD8307725 Si02
#       8
#    16  16  16  16  16  16  16  16
#     4   9  17  30  46  63  85 116 153 192 236 284
#     4   9  16  27  45  67  89 113 145 190 244 296
#     4   9  17  30  46  63  85 116 153 192 236 284
#     4  10  20  32  45  62  88 124 162 196 232 280
#     4  10  19  30  45  66  91 119 155 199 244 289
#     4  10  20  32  45  62  88 124 162 196 232 280
#     4  10  19  30  45  66  91 119 155 199 244 289
#     4   9  16  27  45  67  89 113 145 190 244 296
#
# _framework density 17.904651999999999
#
# number of rings (size 3 to 8) (size 9 to 14) (size 15 to 20)
#    0.000    2.500    0.000    3.000    0.000    8.000 
#    0.000    1.250    0.000    4.500    0.000    0.000 
#    0.000    1.000    0.000   10.000    0.000    7.500 
#
# Total GULP energy -792932.700898 kJ/mol
# GULP energy per Si atom -12389.573452 kJ/mol
# Density = 1.786390 g / cm^3
# Si number density = 17.904652 Si / 1000 Ang^3
#
#
#
# Elastic Constant Matrix: (Units=GPa)
#
#
# Indices 1 2 3 4 5 6 
#
# 1 37.7642 37.7702 38.8960 0.0000 0.0000 0.0000
# 2 37.7702 37.7642 38.8960 0.0000 0.0000 0.0000
# 3 38.8960 38.8960 128.9084 0.0000 0.0000 0.0000
# 4 0.0000 0.0000 0.0000 26.4457 0.0000 0.0000
# 5 0.0000 0.0000 0.0000 0.0000 26.4457 0.0000
# 6 0.0000 0.0000 0.0000 0.0000 0.0000 28.8789
#
#
#
# Elastic Compliance Matrix: (Units=1/GPa)
#
#
# Indices 1 2 3 4 5 6 
#
# 1 -83.190505 83.209713 -0.005796 0.000000 0.000000 0.000031
# 2 83.209713-83.190505 -0.005796 0.000000 0.000000 -0.000031
# 3 -0.005796 -0.005796 0.011255 0.000000 0.000000 0.000000
# 4 0.000000 0.000000 0.000000 0.037813 0.000000 0.000000
# 5 0.000000 0.000000 0.000000 0.000000 0.037813 0.000000
# 6 0.000031 -0.000031 0.000000 0.000000 0.000000 0.034627
#
#
# Mechanical properties :
#
#
# Convention : Reuss Voigt Hill
#
# Bulk Modulus (GPa) = 37.75287 48.39570 43.07429
# Shear Modulus (GPa) = -0.01503 22.27903 11.13200
#
# Velocity S-wave (km/s) = -0.09172 3.53131 2.49617
# Velocity P-wave (km/s) = 4.59566 6.61175 5.69365
#
# Compressibility (1/GPa) = 0.02648805
#
# Stress axis : x y z
#
# Youngs Moduli (GPa) = -0.01202 -0.01202 88.84981
#
# Poissons Ratio (x) = 1.00023 0.51494
# Poissons Ratio (y) = 1.00023 0.51495
# Poissons Ratio (z) = -0.00007 -0.00007
#
# Static dielectric constant tensor:
#      x y z
#    x 3.099740 0.000000 0.000000 
#    y 0.000000 3.099740 0.000000 
#    z 0.000000 0.000000 3.597100 
# 
# 
# High freq. dielectric constant tensor:
#      x y z
#    x 1.651890 0.000000 0.000000 
#    y 0.000000 1.651890 0.000000 
#    z 0.000000 0.000000 1.714450 
# 
# From -- ./inp_files/2692.got.cif
#   From: 2010.03.12/outbox.cif.g09.slc.cpg/sg108_2_cif.got.tgz:2692.got - 2010.04.14 01:53:11.
