data_PCOD8307054
_publ_section_title
;
Structure prediction by ZEFSAII (Michael W. Deem and Ramdas Pophale) SiO2 
 PCOD8307054
Probable space group: P 4 N C 
;
_chemical_formula_sum "Si O2"
_cell_formula_units_Z 32
_cell_length_a 8.197777
_cell_length_b 8.197777
_cell_length_c 23.107418
_cell_angle_alpha 90.000000
_cell_angle_beta 90.000000
_cell_angle_gamma 90.000000
_cell_volume 1552.900469
_symmetry_space_group_name_H-M "P 4 N C "
_symmetry_group_IT_number 104
_symmetry_cell_setting 'tetragonal'
loop_
_space_group_symop_operation_xyz
x,y,z
-y,x,z
-x,-y,z
y,-x,z
1/2-x,1/2+y,1/2+z
1/2+x,1/2-y,1/2+z
1/2-y,1/2-x,1/2+z
1/2+y,1/2+x,1/2+z
loop_
_atom_site_type_symbol
_atom_site_label
_atom_site_fract_x
_atom_site_fract_y
_atom_site_fract_z
Si Si1 0.500000 0.000000 0.905160
Si Si2 0.238172 0.427716 0.809006
Si Si3 0.500000 0.000000 0.212867
Si Si4 0.415297 0.244646 0.993095
Si Si5 0.754464 0.419914 0.122701
O O1 0.602208 0.125502 0.865255
O O2 0.376913 0.102160 0.946888
O O3 0.385421 0.300771 0.809700
O O4 0.126330 0.398365 0.752543
O O5 0.613523 0.888042 0.171774
O O6 0.602684 0.298200 0.982857
O O7 0.394691 0.174401 0.058078
O O8 0.701250 0.605983 0.131565
#
# Coordination Sequence:
#
# PCOD8307054 Si02
#       5
#     4   8   4   8   8
#     4  11  19  30  54  74  91 125 176 216 242 285
#     4  10  22  37  51  71 100 134 172 212 253 297
#     4  11  19  32  56  80  99 131 172 210 246 291
#     4   9  18  33  53  77 105 135 165 199 244 301
#     4   9  18  32  51  78 109 135 161 199 247 298
#
# _framework density 20.606601999999999
#
# number of rings (size 3 to 8) (size 9 to 14) (size 15 to 20)
#    0.000    2.250    0.000    5.250    0.000    2.000 
#    0.000    0.000    0.000   33.000    0.000   21.000 
#    0.000    0.000    0.000    0.000    0.000    0.000 
#
# Total GULP energy -396668.991025 kJ/mol
# GULP energy per Si atom -12395.905970 kJ/mol
# Density = 2.055970 g / cm^3
# Si number density = 20.606602 Si / 1000 Ang^3
#
#
#
# Elastic Constant Matrix: (Units=GPa)
#
#
# Indices 1 2 3 4 5 6 
#
# 1 59.8373 -1.5299 31.6678 0.0000 0.0000 0.0000
# 2 -1.5299 59.8373 31.6678 0.0000 0.0000 0.0000
# 3 31.6678 31.6678 150.5303 0.0000 0.0000 0.0000
# 4 0.0000 0.0000 0.0000 28.6492 0.0000 0.0000
# 5 0.0000 0.0000 0.0000 0.0000 28.6492 0.0000
# 6 0.0000 0.0000 0.0000 0.0000 0.0000 15.2597
#
#
#
# Elastic Compliance Matrix: (Units=1/GPa)
#
#
# Indices 1 2 3 4 5 6 
#
# 1 0.019263 0.002968 -0.004677 0.000000 0.000000 0.000000
# 2 0.002968 0.019263 -0.004677 0.000000 0.000000 0.000000
# 3 -0.004677 -0.004677 0.008611 0.000000 0.000000 0.000000
# 4 0.000000 0.000000 0.000000 0.034905 0.000000 0.000000
# 5 0.000000 0.000000 0.000000 0.000000 0.034905 0.000000
# 6 0.000000 0.000000 0.000000 0.000000 0.000000 0.065532
#
#
# Mechanical properties :
#
#
# Convention : Reuss Voigt Hill
#
# Bulk Modulus (GPa) = 29.09940 43.75738 36.42839
# Shear Modulus (GPa) = 24.18902 28.40492 26.29697
#
# Velocity S-wave (km/s) = 3.42986 3.71676 3.57619
# Velocity P-wave (km/s) = 5.46236 6.30078 5.89649
#
# Compressibility (1/GPa) = 0.03436498
#
# Stress axis : x y z
#
# Youngs Moduli (GPa) = 51.91317 51.91317 116.13160
#
# Poissons Ratio (x) = -0.15406 0.54312
# Poissons Ratio (y) = -0.15406 0.54312
# Poissons Ratio (z) = 0.24278 0.24278
#
# Static dielectric constant tensor:
#      x y z
#    x 3.469200 0.000000 0.000000 
#    y 0.000000 3.469200 0.000000 
#    z 0.000000 0.000000 4.048540 
# 
# 
# High freq. dielectric constant tensor:
#      x y z
#    x 1.777690 0.000000 0.000000 
#    y 0.000000 1.777690 0.000000 
#    z 0.000000 0.000000 1.836050 
# 
# From -- ./inp_files/1530.got.cif
#   From: 2010.03.12/outbox.cif.g09.slc.cpg/sg104_cif.got.tgz:1530.got - 2010.04.14 01:44:05.
