data_PCOD8307514
_publ_section_title
;
Structure prediction by ZEFSAII (Michael W. Deem and Ramdas Pophale) SiO2 
 PCOD8307514
Probable space group: I 4 M M
;
_chemical_formula_sum "Si O2"
_cell_formula_units_Z 112
_cell_length_a 15.713908
_cell_length_b 15.713908
_cell_length_c 23.818602
_cell_angle_alpha 90.000000
_cell_angle_beta 90.000000
_cell_angle_gamma 90.000000
_cell_volume 5881.453665
_symmetry_space_group_name_H-M "I 4 M M"
_symmetry_group_IT_number 107
_symmetry_cell_setting 'tetragonal'
loop_
_space_group_symop_operation_xyz
x,y,z
-y,x,z
-x,-y,z
y,-x,z
-x,y,z
x,-y,z
-y,-x,z
y,x,z
1/2+x,1/2+y,1/2+z
1/2-y,1/2+x,1/2+z
1/2-x,1/2-y,1/2+z
1/2+y,1/2-x,1/2+z
1/2-x,1/2+y,1/2+z
1/2+x,1/2-y,1/2+z
1/2-y,1/2-x,1/2+z
1/2+y,1/2+x,1/2+z
loop_
_atom_site_type_symbol
_atom_site_label
_atom_site_fract_x
_atom_site_fract_y
_atom_site_fract_z
Si Si1 0.596329 0.262978 0.231100
Si Si2 0.844797 0.710833 0.401149
Si Si3 0.276183 0.594325 0.469974
Si Si4 0.095131 0.235447 0.098288
Si Si5 0.095681 0.402732 0.302695
Si Si6 0.228779 0.090699 0.514740
Si Si7 0.406377 0.166396 0.123094
O O1 0.500000 0.292265 0.247619
O O2 0.663855 0.336146 0.249688
O O3 0.618081 0.170978 0.258732
O O4 0.602233 0.247796 0.164305
O O5 0.794382 0.794382 0.378044
O O6 0.776761 0.646183 0.425516
O O7 0.898115 0.664590 0.353159
O O8 0.907172 0.736352 0.451489
O O9 0.275182 0.500000 0.447353
O O10 0.373283 0.626718 0.470127
O O11 0.240414 0.604809 0.532847
O O12 0.164515 0.164515 0.117118
O O13 0.105983 0.324316 0.132483
O O14 0.000000 0.199899 0.110482
O O15 0.105691 0.500000 0.324477
O O16 0.000000 0.391349 0.276504
O O17 0.166071 0.166071 0.528635
O O18 0.304894 0.097365 0.558771
O O19 0.181804 0.000000 0.521798
O O20 0.500000 0.122463 0.134536
#
# Coordination Sequence:
#
# PCOD8307514 Si02
#       7
#    16  16  16  16  16  16  16
#     4  10  21  37  58  82 109 142 179 221 270 325
#     4  10  18  31  52  73  98 132 172 215 259 313
#     4   9  17  28  44  67  96 132 171 213 260 310
#     4  10  19  32  50  73 105 142 180 222 266 314
#     4  10  21  36  53  74 103 137 174 220 270 319
#     4  10  19  31  49  73 101 133 167 206 256 313
#     4  10  20  35  55  78 107 141 177 220 269 320
#
# _framework density 19.042911
#
# number of rings (size 3 to 8) (size 9 to 14) (size 15 to 20)
#    0.000    2.143    1.429    2.571    0.000    1.429 
#    0.000    2.857    0.000    2.571    0.000    2.000 
#    0.000    2.571    0.000    0.286    0.000    0.143 
#
# Total GULP energy -693815.496922 kJ/mol
# GULP energy per Si atom -12389.562445 kJ/mol
# Density = 1.899957 g / cm^3
# Si number density = 19.042911 Si / 1000 Ang^3
#
#
#
# Elastic Constant Matrix: (Units=GPa)
#
#
# Indices 1 2 3 4 5 6 
#
# 1 106.8147 54.6147 24.8052 0.0000 0.0000 0.0002
# 2 54.6147 106.8147 24.8052 0.0000 0.0000 -0.0002
# 3 24.8052 24.8052 40.3350 0.0000 0.0000 0.0000
# 4 0.0000 0.0000 0.0000 21.7999 0.0000 0.0000
# 5 0.0000 0.0000 0.0000 0.0000 21.7999 0.0000
# 6 0.0002 -0.0002 0.0000 0.0000 0.0000 14.3226
#
#
#
# Elastic Compliance Matrix: (Units=1/GPa)
#
#
# Indices 1 2 3 4 5 6 
#
# 1 0.013398 -0.005759 -0.004697 0.000000 0.000000 0.000000
# 2 -0.005759 0.013398 -0.004697 0.000000 0.000000 0.000000
# 3 -0.004697 -0.004697 0.030570 0.000000 0.000000 0.000000
# 4 0.000000 0.000000 0.000000 0.045872 0.000000 0.000000
# 5 0.000000 0.000000 0.000000 0.000000 0.045872 0.000000
# 6 0.000000 0.000000 0.000000 0.000000 0.000000 0.069820
#
#
# Mechanical properties :
#
#
# Convention : Reuss Voigt Hill
#
# Bulk Modulus (GPa) = 36.95908 51.37939 44.16924
# Shear Modulus (GPa) = 19.36066 21.56711 20.46389
#
# Velocity S-wave (km/s) = 3.19201 3.36899 3.28170
# Velocity P-wave (km/s) = 5.74767 6.49407 6.13223
#
# Compressibility (1/GPa) = 0.02705695
#
# Stress axis : x y z
#
# Youngs Moduli (GPa) = 74.63979 74.63979 32.71192
#
# Poissons Ratio (x) = 0.42988 0.15366
# Poissons Ratio (y) = 0.42988 0.15366
# Poissons Ratio (z) = 0.35061 0.35061
#
# Static dielectric constant tensor:
#      x y z
#    x 3.586400 0.000000 0.000000 
#    y 0.000000 3.586400 0.000000 
#    z 0.000000 0.000000 3.359800 
# 
# 
# High freq. dielectric constant tensor:
#      x y z
#    x 1.735510 0.000000 0.000000 
#    y 0.000000 1.735510 0.000000 
#    z 0.000000 0.000000 1.720310 
# 
# From -- ./inp_files/5331.got.cif
#   From: 2010.03.12/outbox.cif.g09.slc.cpg/sg107_3_cif.got.tgz:5331.got - 2010.04.14 01:49:11.
