data_PCOD8307883
_publ_section_title
;
Structure prediction by ZEFSAII (Michael W. Deem and Ramdas Pophale) SiO2 
 PCOD8307883
Probable space group: I 41 M D
;
_chemical_formula_sum "Si O2"
_cell_formula_units_Z 96
_cell_length_a 26.307237
_cell_length_b 26.307237
_cell_length_c 7.505507
_cell_angle_alpha 90.000000
_cell_angle_beta 90.000000
_cell_angle_gamma 90.000000
_cell_volume 5194.341623
_symmetry_space_group_name_H-M "I 41 M D"
_symmetry_group_IT_number 109
_symmetry_cell_setting 'tetragonal'
loop_
_space_group_symop_operation_xyz
x,y,z
-y,1/2+x,1/4+z
-x,-y,z
y,1/2-x,1/4+z
-x,y,z
x,-y,z
-y,1/2-x,1/4+z
y,1/2+x,1/4+z
1/2+x,1/2+y,1/2+z
1/2-y,x,3/4+z
1/2-x,1/2-y,1/2+z
1/2+y,-x,3/4+z
1/2-x,1/2+y,1/2+z
1/2+x,1/2-y,1/2+z
1/2-y,-x,3/4+z
1/2+y,x,3/4+z
loop_
_atom_site_type_symbol
_atom_site_label
_atom_site_fract_x
_atom_site_fract_y
_atom_site_fract_z
Si Si1 0.208180 0.797214 0.964320
Si Si2 0.298725 0.941114 0.685166
Si Si3 0.166116 0.871788 0.429365
Si Si4 0.441533 0.815920 0.512269
Si Si5 0.221663 0.632791 0.899047
Si Si6 0.637082 0.381591 0.557416
O O1 0.265714 0.797598 0.896430
O O2 0.173773 0.774964 0.806953
O O3 0.189441 0.852953 0.010251
O O4 0.244885 0.930683 0.788892
O O5 0.294006 0.921893 0.481100
O O6 0.346421 0.911651 0.769462
O O7 0.312871 0.000000 0.685376
O O8 0.163141 0.907935 0.599583
O O9 0.220827 0.869950 0.332215
O O10 0.148019 0.815489 0.488242
O O11 0.131756 0.894182 0.268031
O O12 0.500000 0.823128 0.460241
O O13 0.430820 0.853427 0.681778
#
# Coordination Sequence:
#
# PCOD8307883 Si02
#       6
#    16  16  16  16  16  16
#     4  11  21  30  44  73 116 153 180 216 266 332
#     4   9  19  38  59  79 114 153 187 232 286 336
#     4  11  22  34  54  84 115 150 187 229 274 343
#     4  10  21  41  59  80 115 151 190 235 281 337
#     4  10  19  34  49  78 115 150 186 222 273 330
#     4  11  22  35  57  81 111 144 192 234 280 331
#
# _framework density 18.481648
#
# number of rings (size 3 to 8) (size 9 to 14) (size 15 to 20)
#    0.000    1.667    5.000    2.000    7.000    0.667 
#    0.000    0.833    0.000    0.500    0.000    0.000 
#    0.000    0.000    0.000    0.000    0.000    0.000 
#
# Total GULP energy -594714.881979 kJ/mol
# GULP energy per Si atom -12389.893375 kJ/mol
# Density = 1.843958 g / cm^3
# Si number density = 18.481648 Si / 1000 Ang^3
#
#
#
# Elastic Constant Matrix: (Units=GPa)
#
#
# Indices 1 2 3 4 5 6 
#
# 1 66.3446 32.0287 30.0693 0.0000 0.0000 0.0000
# 2 32.0287 66.3446 30.0693 0.0000 0.0000 0.0000
# 3 30.0693 30.0693 91.7534 0.0000 0.0000 0.0000
# 4 0.0000 0.0000 0.0000 12.7646 0.0000 0.0000
# 5 0.0000 0.0000 0.0000 0.0000 12.7646 0.0000
# 6 0.0000 0.0000 0.0000 0.0000 0.0000 21.6128
#
#
#
# Elastic Compliance Matrix: (Units=1/GPa)
#
#
# Indices 1 2 3 4 5 6 
#
# 1 0.020927 -0.008214 -0.004166 0.000000 0.000000 0.000000
# 2 -0.008214 0.020927 -0.004166 0.000000 0.000000 0.000000
# 3 -0.004166 -0.004166 0.013629 0.000000 0.000000 0.000000
# 4 0.000000 0.000000 0.000000 0.078342 0.000000 0.000000
# 5 0.000000 0.000000 0.000000 0.000000 0.078342 0.000000
# 6 0.000000 0.000000 0.000000 0.000000 0.000000 0.046269
#
#
# Mechanical properties :
#
#
# Convention : Reuss Voigt Hill
#
# Bulk Modulus (GPa) = 44.66354 45.41968 45.04161
# Shear Modulus (GPa) = 16.72291 18.24674 17.48483
#
# Velocity S-wave (km/s) = 3.01132 3.14553 3.07915
# Velocity P-wave (km/s) = 6.02574 6.14991 6.08814
#
# Compressibility (1/GPa) = 0.02238963
#
# Stress axis : x y z
#
# Youngs Moduli (GPa) = 47.78605 47.78605 73.37103
#
# Poissons Ratio (x) = 0.39253 0.30567
# Poissons Ratio (y) = 0.39253 0.30567
# Poissons Ratio (z) = 0.19908 0.19908
#
# Static dielectric constant tensor:
#      x y z
#    x 3.269400 0.000000 0.000000 
#    y 0.000000 3.269400 0.000000 
#    z 0.000000 0.000000 3.566190 
# 
# 
# High freq. dielectric constant tensor:
#      x y z
#    x 1.691140 0.000000 0.000000 
#    y 0.000000 1.691140 0.000000 
#    z 0.000000 0.000000 1.718930 
# 
# From -- ./inp_files/1511.got.cif
#   From: 2010.03.12/outbox.cif.g09.slc.cpg/sg109_1_cif.got.tgz:1511.got - 2010.04.14 01:55:16.
