data_PCOD8307346
_publ_section_title
;
Structure prediction by ZEFSAII (Michael W. Deem and Ramdas Pophale) SiO2 
 PCOD8307346
Probable space group: P 42 M C
;
_chemical_formula_sum "Si O2"
_cell_formula_units_Z 40
_cell_length_a 8.065609
_cell_length_b 8.065609
_cell_length_c 29.287272
_cell_angle_alpha 90.000000
_cell_angle_beta 90.000000
_cell_angle_gamma 90.000000
_cell_volume 1905.255614
_symmetry_space_group_name_H-M "P 42 M C"
_symmetry_group_IT_number 105
_symmetry_cell_setting 'tetragonal'
loop_
_space_group_symop_operation_xyz
x,y,z
-y,x,1/2+z
-x,-y,z
y,-x,1/2+z
-x,y,z
x,-y,z
-y,-x,1/2+z
y,x,1/2+z
loop_
_atom_site_type_symbol
_atom_site_label
_atom_site_fract_x
_atom_site_fract_y
_atom_site_fract_z
Si Si1 0.185311 0.806673 0.250000
Si Si2 0.500000 0.300916 0.597589
Si Si3 0.805514 0.315672 0.344100
Si Si4 0.500000 0.309515 0.496233
Si Si5 0.691112 0.185024 0.152506
Si Si6 0.188926 0.811996 0.939742
O O1 0.275402 0.734053 0.295507
O O2 0.290384 0.761276 0.205318
O O3 0.000000 0.734028 0.243040
O O4 0.176824 0.000000 0.258135
O O5 0.500000 0.500000 0.600889
O O6 0.500000 0.226309 0.546338
O O7 0.331644 0.230336 0.621587
O O8 0.749820 0.500000 0.357400
O O9 0.753532 0.202446 0.386966
O O10 0.000000 0.298508 0.336305
O O11 0.500000 0.500000 0.506433
O O12 0.329209 0.270956 0.470355
O O13 0.500000 0.169679 0.140335
O O14 0.772704 0.000000 0.144071
O O15 0.000000 0.819737 0.954249
O O16 0.266533 0.000000 0.946335
#
# Coordination Sequence:
#
# PCOD8307346 Si02
#       6
#     8   4   8   4   8   8
#     4   9  17  30  49  75 107 142 181 225 275 331
#     4   9  20  37  57  79 107 143 183 233 289 342
#     4   9  17  30  51  79 109 144 187 229 275 338
#     4  11  23  39  61  89 115 145 197 255 299 352
#     4   9  18  34  54  76 106 143 183 226 278 344
#     4  10  21  39  61  83 115 157 193 237 300 361
#
# _framework density 20.994558999999999
#
# number of rings (size 3 to 8) (size 9 to 14) (size 15 to 20)
#    0.000    2.600    0.000    1.500    1.400    4.400 
#    1.800    4.000    0.000    2.400    0.000    0.000 
#    0.000    0.000    0.000    0.000    0.000    0.000 
#
# Total GULP energy -495553.064987 kJ/mol
# GULP energy per Si atom -12388.826625 kJ/mol
# Density = 2.094677 g / cm^3
# Si number density = 20.994559 Si / 1000 Ang^3
#
#
#
# Elastic Constant Matrix: (Units=GPa)
#
#
# Indices 1 2 3 4 5 6 
#
# 1 67.5876 23.0118 46.7885 0.0000 0.0000 0.0000
# 2 23.0118 67.5876 46.7885 0.0000 0.0000 0.0000
# 3 46.7885 46.7885 161.1641 0.0000 0.0000 0.0000
# 4 0.0000 0.0000 0.0000 -89.2261 0.0000 0.0000
# 5 0.0000 0.0000 0.0000 0.0000 -89.2261 0.0000
# 6 0.0000 0.0000 0.0000 0.0000 0.0000 16.5452
#
#
#
# Elastic Compliance Matrix: (Units=1/GPa)
#
#
# Indices 1 2 3 4 5 6 
#
# 1 0.019099 -0.003334 -0.004577 0.000000 0.000000 0.000000
# 2 -0.003334 0.019099 -0.004577 0.000000 0.000000 0.000000
# 3 -0.004577 -0.004577 0.008862 0.000000 0.000000 0.000000
# 4 0.000000 0.000000 0.000000 -0.011207 0.000000 0.000000
# 5 0.000000 0.000000 0.000000 0.000000 -0.011207 0.000000
# 6 0.000000 0.000000 0.000000 0.000000 0.000000 0.060441
#
#
# Mechanical properties :
#
#
# Convention : Reuss Voigt Hill
#
# Bulk Modulus (GPa) = 45.28009 58.83521 52.05765
# Shear Modulus (GPa) = 42.58076 -20.39802 11.09137
#
# Velocity S-wave (km/s) = 4.50842 -3.12041 2.30097
# Velocity P-wave (km/s) = 6.97965 3.88616 5.64879
#
# Compressibility (1/GPa) = 0.02208476
#
# Stress axis : x y z
#
# Youngs Moduli (GPa) = 52.35813 52.35813 112.83792
#
# Poissons Ratio (x) = 0.17459 0.51643
# Poissons Ratio (y) = 0.17459 0.51643
# Poissons Ratio (z) = 0.23963 0.23963
#
# Static dielectric constant tensor:
#      x y z
#    x 3.781070 0.000000 0.000000 
#    y 0.000000 3.781070 0.000000 
#    z 0.000000 0.000000 3.906250 
# 
# 
# High freq. dielectric constant tensor:
#      x y z
#    x 1.803360 0.000000 0.000000 
#    y 0.000000 1.803360 0.000000 
#    z 0.000000 0.000000 1.824540 
# 
# From -- ./inp_files/4282.got.cif
#   From: 2010.03.12/outbox.cif.g09.slc.cpg/sg105_3_cif.got.tgz:4282.got - 2010.04.14 01:45:32.
