data_PCOD8307281
_publ_section_title
;
Structure prediction by ZEFSAII (Michael W. Deem and Ramdas Pophale) SiO2 
 PCOD8307281
Probable space group: P 42 M C
;
_chemical_formula_sum "Si O2"
_cell_formula_units_Z 48
_cell_length_a 8.188628
_cell_length_b 8.188628
_cell_length_c 34.244669
_cell_angle_alpha 90.000000
_cell_angle_beta 90.000000
_cell_angle_gamma 90.000000
_cell_volume 2296.229314
_symmetry_space_group_name_H-M "P 42 M C"
_symmetry_group_IT_number 105
_symmetry_cell_setting 'tetragonal'
loop_
_space_group_symop_operation_xyz
x,y,z
-y,x,1/2+z
-x,-y,z
y,-x,1/2+z
-x,y,z
x,-y,z
-y,-x,1/2+z
y,x,1/2+z
loop_
_atom_site_type_symbol
_atom_site_label
_atom_site_fract_x
_atom_site_fract_y
_atom_site_fract_z
Si Si1 0.810353 0.183694 0.383360
Si Si2 0.193392 0.180851 0.620498
Si Si3 0.808862 0.682199 0.963607
Si Si4 0.308124 0.500000 0.666394
Si Si5 0.500000 0.305051 0.254991
Si Si6 0.816975 0.688937 0.299980
Si Si7 0.188532 0.322180 0.541474
O O1 0.727565 0.267479 0.421426
O O2 0.769632 0.289485 0.345288
O O3 0.000000 0.181138 0.392581
O O4 0.744800 0.000000 0.375906
O O5 0.249392 0.331571 0.647051
O O6 0.260612 0.209558 0.576212
O O7 0.000000 0.176555 0.621592
O O8 0.259112 0.000000 0.634006
O O9 0.757254 0.500000 0.974946
O O10 0.000000 0.705508 0.958815
O O11 0.751826 0.796009 0.998579
O O12 0.500000 0.500000 0.665310
O O13 0.243322 0.500000 0.710640
O O14 0.500000 0.500000 0.258981
O O15 0.332254 0.234402 0.274663
O O16 0.829488 0.500000 0.289978
O O17 0.000000 0.766968 0.291575
O O18 0.274352 0.500000 0.543174
O O19 0.000000 0.343958 0.550533
#
# Coordination Sequence:
#
# PCOD8307281 Si02
#       7
#     8   8   8   4   4   8   8
#     4   9  18  33  52  75 106 142 183 231 281 336
#     4  10  21  40  65  88 116 157 200 244 299 362
#     4  10  21  34  49  75 111 147 184 228 280 340
#     4  11  23  39  61  91 125 155 195 249 303 367
#     4   9  20  37  57  83 113 149 187 231 291 353
#     4   9  18  34  56  79 105 142 188 233 278 342
#     4  10  20  36  58  80 106 144 192 239 282 339
#
# _framework density 20.903838
#
# number of rings (size 3 to 8) (size 9 to 14) (size 15 to 20)
#    0.000    2.333    0.833    1.250    1.167    4.333 
#    0.000    5.000    0.000    2.000    0.000    0.000 
#    0.000    0.000    0.000    0.000    0.000    0.000 
#
# Total GULP energy -594744.355462 kJ/mol
# GULP energy per Si atom -12390.507405 kJ/mol
# Density = 2.085626 g / cm^3
# Si number density = 20.903838 Si / 1000 Ang^3
#
#
#
# Elastic Constant Matrix: (Units=GPa)
#
#
# Indices 1 2 3 4 5 6 
#
# 1 72.6438 37.6736 51.2100 0.0000 0.0000 0.0000
# 2 37.6736 72.6438 51.2100 0.0000 0.0000 0.0000
# 3 51.2100 51.2100 157.3166 0.0000 0.0000 0.0000
# 4 0.0000 0.0000 0.0000 25.2091 0.0000 0.0000
# 5 0.0000 0.0000 0.0000 0.0000 25.2091 0.0000
# 6 0.0000 0.0000 0.0000 0.0000 0.0000 16.7461
#
#
#
# Elastic Compliance Matrix: (Units=1/GPa)
#
#
# Indices 1 2 3 4 5 6 
#
# 1 0.020793 -0.007803 -0.004229 0.000000 0.000000 0.000000
# 2 -0.007803 0.020793 -0.004229 0.000000 0.000000 0.000000
# 3 -0.004229 -0.004229 0.009110 0.000000 0.000000 0.000000
# 4 0.000000 0.000000 0.000000 0.039668 0.000000 0.000000
# 5 0.000000 0.000000 0.000000 0.000000 0.039668 0.000000
# 6 0.000000 0.000000 0.000000 0.000000 0.000000 0.059715
#
#
# Mechanical properties :
#
#
# Convention : Reuss Voigt Hill
#
# Bulk Modulus (GPa) = 55.01702 64.75459 59.88581
# Shear Modulus (GPa) = 21.89840 24.26689 23.08265
#
# Velocity S-wave (km/s) = 3.24014 3.41087 3.32660
# Velocity P-wave (km/s) = 6.35407 6.82324 6.59283
#
# Compressibility (1/GPa) = 0.01817619
#
# Stress axis : x y z
#
# Youngs Moduli (GPa) = 48.09239 48.09239 109.77269
#
# Poissons Ratio (x) = 0.37524 0.46421
# Poissons Ratio (y) = 0.37524 0.46421
# Poissons Ratio (z) = 0.20337 0.20337
#
# Static dielectric constant tensor:
#      x y z
#    x 3.838340 0.000000 0.000000 
#    y 0.000000 3.838340 0.000000 
#    z 0.000000 0.000000 3.854890 
# 
# 
# High freq. dielectric constant tensor:
#      x y z
#    x 1.806630 0.000000 0.000000 
#    y 0.000000 1.806630 0.000000 
#    z 0.000000 0.000000 1.818950 
# 
# From -- ./inp_files/4834.got.cif
#   From: 2010.03.12/outbox.cif.g09.slc.cpg/sg105_3_cif.got.tgz:4834.got - 2010.04.14 01:45:32.
