data_PCOD8307520
_publ_section_title
;
Structure prediction by ZEFSAII (Michael W. Deem and Ramdas Pophale) SiO2 
 PCOD8307520
Probable space group: I 4 M M
;
_chemical_formula_sum "Si O2"
_cell_formula_units_Z 88
_cell_length_a 18.271114
_cell_length_b 18.271114
_cell_length_c 14.843482
_cell_angle_alpha 90.000000
_cell_angle_beta 90.000000
_cell_angle_gamma 90.000000
_cell_volume 4955.253134
_symmetry_space_group_name_H-M "I 4 M M"
_symmetry_group_IT_number 107
_symmetry_cell_setting 'tetragonal'
loop_
_space_group_symop_operation_xyz
x,y,z
-y,x,z
-x,-y,z
y,-x,z
-x,y,z
x,-y,z
-y,-x,z
y,x,z
1/2+x,1/2+y,1/2+z
1/2-y,1/2+x,1/2+z
1/2-x,1/2-y,1/2+z
1/2+y,1/2-x,1/2+z
1/2-x,1/2+y,1/2+z
1/2+x,1/2-y,1/2+z
1/2-y,1/2-x,1/2+z
1/2+y,1/2+x,1/2+z
loop_
_atom_site_type_symbol
_atom_site_label
_atom_site_fract_x
_atom_site_fract_y
_atom_site_fract_z
Si Si1 0.581010 0.581010 0.257990
Si Si2 0.918316 0.585025 0.797825
Si Si3 0.081168 0.918833 0.545244
Si Si4 0.810427 0.810427 0.848093
Si Si5 0.299692 0.299692 0.022887
Si Si6 0.229859 0.229859 0.193580
Si Si7 0.302612 0.084028 0.147923
Si Si8 0.356661 0.181118 0.454321
O O1 0.500000 0.602162 0.294060
O O2 0.580293 0.580293 0.151741
O O3 0.639909 0.639909 0.286387
O O4 0.920011 0.500000 0.818817
O O5 0.874370 0.602253 0.706683
O O6 0.882316 0.620463 0.884962
O O7 0.000000 0.616266 0.783143
O O8 0.139236 0.860765 0.510931
O O9 0.000000 0.897594 0.509744
O O10 0.756618 0.756618 0.791303
O O11 0.863778 0.761701 0.910274
O O12 0.277896 0.277896 0.124353
O O13 0.228413 0.332627 0.975018
O O14 0.241249 0.142757 0.178448
O O15 0.276009 0.000000 0.164263
O O16 0.322992 0.093563 0.043311
#
# Coordination Sequence:
#
# PCOD8307520 Si02
#       8
#     8  16   8   8   8   8  16  16
#     4   9  19  33  51  79 112 145 179 219 272 328
#     4  10  21  36  54  79 110 145 184 225 276 335
#     4   9  17  31  51  77 112 149 187 233 282 335
#     4  11  19  35  54  81 110 142 182 236 273 324
#     4   9  19  33  52  81 108 144 186 230 279 329
#     4  10  18  36  58  80 108 140 192 228 266 338
#     4  10  21  38  58  80 112 150 182 228 286 328
#     4  10  21  35  55  81 110 142 185 233 274 331
#
# _framework density 17.758929999999999
#
# number of rings (size 3 to 8) (size 9 to 14) (size 15 to 20)
#    0.000    2.182    2.727    1.636    0.000    2.909 
#    0.000    4.545    0.000    0.273    0.000    0.000 
#    0.000    0.000    0.000    0.000    0.000    0.000 
#
# Total GULP energy -545465.462829 kJ/mol
# GULP energy per Si atom -12396.942337 kJ/mol
# Density = 1.771851 g / cm^3
# Si number density = 17.758930 Si / 1000 Ang^3
#
#
#
# Elastic Constant Matrix: (Units=GPa)
#
#
# Indices 1 2 3 4 5 6 
#
# 1 94.2423 67.6453 34.7406 0.0000 0.0000 0.0002
# 2 67.6453 94.2423 34.7406 0.0000 0.0000 -0.0002
# 3 34.7406 34.7406 95.3153 0.0000 0.0000 0.0000
# 4 0.0000 0.0000 0.0000 24.1317 0.0000 0.0000
# 5 0.0000 0.0000 0.0000 0.0000 24.1317 0.0000
# 6 0.0002 -0.0002 0.0000 0.0000 0.0000 27.2969
#
#
#
# Elastic Compliance Matrix: (Units=1/GPa)
#
#
# Indices 1 2 3 4 5 6 
#
# 1 0.022460 -0.015138 -0.002669 0.000000 0.000000 0.000000
# 2 -0.015138 0.022460 -0.002669 0.000000 0.000000 0.000000
# 3 -0.002669 -0.002669 0.012437 0.000000 0.000000 0.000000
# 4 0.000000 0.000000 0.000000 0.041439 0.000000 0.000000
# 5 0.000000 0.000000 0.000000 0.000000 0.041439 0.000000
# 6 0.000000 0.000000 0.000000 0.000000 0.000000 0.036634
#
#
# Mechanical properties :
#
#
# Convention : Reuss Voigt Hill
#
# Bulk Modulus (GPa) = 60.95150 62.00587 61.47869
# Shear Modulus (GPa) = 22.39233 24.89030 23.64131
#
# Velocity S-wave (km/s) = 3.55477 3.74781 3.65257
# Velocity P-wave (km/s) = 7.15854 7.32934 7.24444
#
# Compressibility (1/GPa) = 0.01640649
#
# Stress axis : x y z
#
# Youngs Moduli (GPa) = 44.52279 44.52279 80.40486
#
# Poissons Ratio (x) = 0.67398 0.21460
# Poissons Ratio (y) = 0.67398 0.21460
# Poissons Ratio (z) = 0.11883 0.11883
#
# Static dielectric constant tensor:
#      x y z
#    x 3.401410 0.000000 0.000000 
#    y 0.000000 3.401410 0.000000 
#    z 0.000000 0.000000 3.304040 
# 
# 
# High freq. dielectric constant tensor:
#      x y z
#    x 1.682900 0.000000 0.000000 
#    y 0.000000 1.682900 0.000000 
#    z 0.000000 0.000000 1.688010 
# 
# From -- ./inp_files/3231.got.cif
#   From: 2010.03.12/outbox.cif.g09.slc.cpg/sg107_2_cif.got.tgz:3231.got - 2010.04.14 01:49:11.
