data_PCOD8307163
_publ_section_title
;
Structure prediction by ZEFSAII (Michael W. Deem and Ramdas Pophale) SiO2 
 PCOD8307163
Probable space group: P 42 M C
;
_chemical_formula_sum "Si O2"
_cell_formula_units_Z 48
_cell_length_a 9.716294
_cell_length_b 9.716294
_cell_length_c 27.871042
_cell_angle_alpha 90.000000
_cell_angle_beta 90.000000
_cell_angle_gamma 90.000000
_cell_volume 2631.203878
_symmetry_space_group_name_H-M "P 42 M C"
_symmetry_group_IT_number 105
_symmetry_cell_setting 'tetragonal'
loop_
_space_group_symop_operation_xyz
x,y,z
-y,x,1/2+z
-x,-y,z
y,-x,1/2+z
-x,y,z
x,-y,z
-y,-x,1/2+z
y,x,1/2+z
loop_
_atom_site_type_symbol
_atom_site_label
_atom_site_fract_x
_atom_site_fract_y
_atom_site_fract_z
Si Si1 0.840541 0.500000 0.736260
Si Si2 0.157512 0.249778 0.905372
Si Si3 0.152187 0.000000 0.834651
Si Si4 0.500000 0.836474 0.342671
Si Si5 0.162076 0.219540 0.687454
Si Si6 0.162136 0.153429 0.579324
Si Si7 0.340549 0.163569 0.993029
Si Si8 0.667219 0.000000 0.743628
O O1 0.769205 0.500000 0.789069
O O2 0.800501 0.628403 0.703876
O O3 0.000000 0.500000 0.747526
O O4 0.165473 0.126124 0.869352
O O5 0.215521 0.372213 0.873243
O O6 0.260838 0.233032 0.949346
O O7 0.000000 0.271226 0.924132
O O8 0.278687 0.000000 0.797997
O O9 0.000000 0.000000 0.809050
O O10 0.500000 0.000000 0.338564
O O11 0.202083 0.204996 0.632042
O O12 0.000000 0.181433 0.696276
O O13 0.267503 0.130431 0.717821
O O14 0.218039 0.264489 0.541123
O O15 0.000000 0.144257 0.574105
O O16 0.224303 0.000000 0.570330
O O17 0.500000 0.210703 0.994152
O O18 0.329869 0.000000 0.988242
O O19 0.500000 0.000000 0.742049
#
# Coordination Sequence:
#
# PCOD8307163 Si02
#       8
#     4   8   4   4   8   8   8   4
#     4   9  18  32  57  87 113 141 183 239 292 341
#     4  10  19  34  56  79 109 144 186 232 283 337
#     4  10  20  34  58  84 110 150 190 236 291 344
#     4   9  18  32  51  79 111 141 179 227 276 329
#     4  10  19  35  59  85 113 145 187 240 289 342
#     4   9  17  30  52  81 111 144 182 227 281 338
#     4  10  20  32  51  81 116 147 182 234 288 335
#     4  12  24  36  54  82 118 154 192 234 277 342
#
# _framework density 18.242598999999998
#
# number of rings (size 3 to 8) (size 9 to 14) (size 15 to 20)
#    0.000    2.167    1.667    2.250    1.167    4.000 
#    0.000    0.833    1.833    1.000    0.000    0.000 
#    0.000    0.000    0.000    0.000    0.000    0.000 
#
# Total GULP energy -594850.365605 kJ/mol
# GULP energy per Si atom -12392.715950 kJ/mol
# Density = 1.820108 g / cm^3
# Si number density = 18.242599 Si / 1000 Ang^3
#
#
#
# Elastic Constant Matrix: (Units=GPa)
#
#
# Indices 1 2 3 4 5 6 
#
# 1 103.5171 29.4751 49.1237 0.0000 0.0000 0.0000
# 2 29.4751 103.5171 49.1237 0.0000 0.0000 0.0000
# 3 49.1237 49.1237 129.0984 0.0000 0.0000 0.0000
# 4 0.0000 0.0000 0.0000 101.3003 0.0000 0.0000
# 5 0.0000 0.0000 0.0000 0.0000 101.3003 0.0000
# 6 0.0000 0.0000 0.0000 0.0000 0.0000 13.5175
#
#
#
# Elastic Compliance Matrix: (Units=1/GPa)
#
#
# Indices 1 2 3 4 5 6 
#
# 1 0.011983 -0.001523 -0.003980 0.000000 0.000000 0.000000
# 2 -0.001523 0.011983 -0.003980 0.000000 0.000000 0.000000
# 3 -0.003980 -0.003980 0.010775 0.000000 0.000000 0.000000
# 4 0.000000 0.000000 0.000000 0.009872 0.000000 0.000000
# 5 0.000000 0.000000 0.000000 0.000000 0.009872 0.000000
# 6 0.000000 0.000000 0.000000 0.000000 0.000000 0.073978
#
#
# Mechanical properties :
#
#
# Convention : Reuss Voigt Hill
#
# Bulk Modulus (GPa) = 63.39584 65.73083 64.56333
# Shear Modulus (GPa) = 32.74695 57.11763 44.93229
#
# Velocity S-wave (km/s) = 4.24144 5.60161 4.96829
# Velocity P-wave (km/s) = 7.66899 8.82876 8.26923
#
# Compressibility (1/GPa) = 0.01577391
#
# Stress axis : x y z
#
# Youngs Moduli (GPa) = 83.45415 83.45415 92.80856
#
# Poissons Ratio (x) = 0.12712 0.36937
# Poissons Ratio (y) = 0.12712 0.36937
# Poissons Ratio (z) = 0.33214 0.33214
#
# Static dielectric constant tensor:
#      x y z
#    x 2.765720 0.000000 0.000000 
#    y 0.000000 2.765720 0.000000 
#    z 0.000000 0.000000 3.599120 
# 
# 
# High freq. dielectric constant tensor:
#      x y z
#    x 1.685200 0.000000 0.000000 
#    y 0.000000 1.685200 0.000000 
#    z 0.000000 0.000000 1.723090 
# 
# From -- ./inp_files/4884.got.cif
#   From: 2010.03.12/outbox.cif.g09.slc.cpg/sg105_3_cif.got.tgz:4884.got - 2010.04.14 01:45:32.
