data_PCOD8307380
_publ_section_title
;
Structure prediction by ZEFSAII (Michael W. Deem and Ramdas Pophale) SiO2 
 PCOD8307380
Probable space group: P 42 M C
;
_chemical_formula_sum "Si O2"
_cell_formula_units_Z 48
_cell_length_a 9.805937
_cell_length_b 9.805937
_cell_length_c 30.858785
_cell_angle_alpha 90.000000
_cell_angle_beta 90.000000
_cell_angle_gamma 90.000000
_cell_volume 2967.269688
_symmetry_space_group_name_H-M "P 42 M C"
_symmetry_group_IT_number 105
_symmetry_cell_setting 'tetragonal'
loop_
_space_group_symop_operation_xyz
x,y,z
-y,x,1/2+z
-x,-y,z
y,-x,1/2+z
-x,y,z
x,-y,z
-y,-x,1/2+z
y,x,1/2+z
loop_
_atom_site_type_symbol
_atom_site_label
_atom_site_fract_x
_atom_site_fract_y
_atom_site_fract_z
Si Si1 0.347076 0.662300 0.162160
Si Si2 0.662339 0.151742 0.588458
Si Si3 0.842004 0.341799 0.334974
Si Si4 0.661867 0.652424 0.758141
Si Si5 0.651603 0.162105 0.493263
Si Si6 0.157943 0.841902 0.416093
O O1 0.500000 0.712976 0.152229
O O2 0.341377 0.500000 0.160324
O O3 0.247523 0.725739 0.125859
O O4 0.302504 0.712804 0.210222
O O5 0.500000 0.146292 0.591674
O O6 0.701870 0.211006 0.540909
O O7 0.722577 0.000000 0.595240
O O8 0.808636 0.500000 0.345212
O O9 0.757579 0.284296 0.294073
O O10 0.798531 0.250333 0.375629
O O11 0.000000 0.322242 0.323567
O O12 0.500000 0.652701 0.758247
O O13 0.715284 0.500000 0.768935
O O14 0.500000 0.219560 0.482859
O O15 0.756383 0.213455 0.456926
O O16 0.646035 0.000000 0.494331
O O17 0.000000 0.821821 0.427623
O O18 0.190632 0.000000 0.405557
#
# Coordination Sequence:
#
# PCOD8307380 Si02
#       6
#     8   8   8   8   8   8
#     4   8  13  21  33  51  77 105 128 153 189 230
#     4   8  13  21  34  52  73  97 125 157 191 225
#     4   9  17  28  41  58  80 103 128 162 200 233
#     4   8  14  24  37  54  78 107 134 159 192 234
#     4   8  14  25  40  58  80 103 127 159 197 232
#     4   9  17  29  44  60  78 103 134 164 195 234
#
# _framework density 16.176487999999999
#
# number of rings (size 3 to 8) (size 9 to 14) (size 15 to 20)
#    0.000    3.667    0.000    2.000    0.000    1.333 
#    0.000    4.167    0.000    1.000    0.000    1.167 
#    0.000    6.667    0.000    0.000    0.000    0.000 
#
# Total GULP energy -594813.609247 kJ/mol
# GULP energy per Si atom -12391.950193 kJ/mol
# Density = 1.613967 g / cm^3
# Si number density = 16.176488 Si / 1000 Ang^3
#
#
#
# Elastic Constant Matrix: (Units=GPa)
#
#
# Indices 1 2 3 4 5 6 
#
# 1 49.0791 25.4729 64.2545 0.0000 0.0000 0.0000
# 2 25.4729 49.0791 64.2545 0.0000 0.0000 0.0000
# 3 64.2545 64.2545 178.5667 0.0000 0.0000 0.0000
# 4 0.0000 0.0000 0.0000 15.0044 0.0000 0.0000
# 5 0.0000 0.0000 0.0000 0.0000 15.0044 0.0000
# 6 0.0000 0.0000 0.0000 0.0000 0.0000 9.2831
#
#
#
# Elastic Compliance Matrix: (Units=1/GPa)
#
#
# Indices 1 2 3 4 5 6 
#
# 1 0.038842 -0.003519 -0.012710 0.000000 0.000000 0.000000
# 2 -0.003519 0.038842 -0.012710 0.000000 0.000000 0.000000
# 3 -0.012710 -0.012710 0.014748 0.000000 0.000000 0.000000
# 4 0.000000 0.000000 0.000000 0.066647 0.000000 0.000000
# 5 0.000000 0.000000 0.000000 0.000000 0.066647 0.000000
# 6 0.000000 0.000000 0.000000 0.000000 0.000000 0.107723
#
#
# Mechanical properties :
#
#
# Convention : Reuss Voigt Hill
#
# Bulk Modulus (GPa) = 28.94202 64.96540 46.95371
# Shear Modulus (GPa) = 12.41166 16.04126 14.22646
#
# Velocity S-wave (km/s) = 2.77296 3.15245 2.96877
# Velocity P-wave (km/s) = 5.30874 7.31424 6.39065
#
# Compressibility (1/GPa) = 0.03455184
#
# Stress axis : x y z
#
# Youngs Moduli (GPa) = 25.74503 25.74503 67.80807
#
# Poissons Ratio (x) = 0.09060 0.86187
# Poissons Ratio (y) = 0.09060 0.86187
# Poissons Ratio (z) = 0.32723 0.32723
#
# Static dielectric constant tensor:
#      x y z
#    x 2.870940 0.000000 0.000000 
#    y 0.000000 2.870940 0.000000 
#    z 0.000000 0.000000 3.464930 
# 
# 
# High freq. dielectric constant tensor:
#      x y z
#    x 1.585240 0.000000 0.000000 
#    y 0.000000 1.585240 0.000000 
#    z 0.000000 0.000000 1.634810 
# 
# From -- ./inp_files/3617.got.cif
#   From: 2010.03.12/outbox.cif.g09.slc.cpg/sg105_2_cif.got.tgz:3617.got - 2010.04.14 01:45:32.
