data_PCOD8307799
_publ_section_title
;
Structure prediction by ZEFSAII (Michael W. Deem and Ramdas Pophale) SiO2 
 PCOD8307799
Probable space group: I 4 C M
;
_chemical_formula_sum "Si O2"
_cell_formula_units_Z 128
_cell_length_a 20.821392
_cell_length_b 20.821392
_cell_length_c 16.268162
_cell_angle_alpha 90.000000
_cell_angle_beta 90.000000
_cell_angle_gamma 90.000000
_cell_volume 7052.742207
_symmetry_space_group_name_H-M "I 4 C M"
_symmetry_group_IT_number 108
_symmetry_cell_setting 'tetragonal'
loop_
_space_group_symop_operation_xyz
x,y,z
-y,x,z
-x,-y,z
y,-x,z
-x,y,1/2+z
x,-y,1/2+z
-y,-x,1/2+z
y,x,1/2+z
1/2+x,1/2+y,1/2+z
1/2-y,1/2+x,1/2+z
1/2-x,1/2-y,1/2+z
1/2+y,1/2-x,1/2+z
1/2-x,1/2+y,z
1/2+x,1/2-y,z
1/2-y,1/2-x,z
1/2+y,1/2+x,z
loop_
_atom_site_type_symbol
_atom_site_label
_atom_site_fract_x
_atom_site_fract_y
_atom_site_fract_z
Si Si1 0.239821 0.841492 0.336570
Si Si2 0.243904 0.152018 0.427295
Si Si3 0.213934 0.813744 0.668583
Si Si4 0.486668 0.602765 0.998228
Si Si5 0.412429 0.703626 0.085335
Si Si6 0.300105 0.902567 0.762901
Si Si7 0.105386 0.994798 0.809015
Si Si8 0.530778 0.740537 0.749518
O O1 0.308764 0.808764 0.357131
O O2 0.187402 0.824768 0.407933
O O3 0.211941 0.810617 0.254934
O O4 0.247701 0.917971 0.324072
O O5 0.293648 0.206353 0.451406
O O6 0.242321 0.102486 0.502449
O O7 0.266897 0.112945 0.348741
O O8 0.257559 0.757559 0.626955
O O9 0.154159 0.832438 0.610331
O O10 0.258586 0.875230 0.686475
O O11 0.428921 0.554076 0.016576
O O12 0.487075 0.625730 0.903901
O O13 0.472534 0.658482 0.063243
O O14 0.434306 0.748100 0.161227
O O15 0.372169 0.872169 0.759793
O O16 0.298909 0.979839 0.755035
O O17 0.170684 0.995748 0.756017
O O18 0.066386 0.060323 0.788334
#
# Coordination Sequence:
#
# PCOD8307799 Si02
#       8
#    16  16  16  16  16  16  16  16
#     4   8  17  33  51  74  99 132 172 214 259 315
#     4   9  18  35  56  76 101 136 176 221 276 326
#     4   8  16  31  48  68  99 132 163 214 271 311
#     4   9  20  34  43  60  96 142 177 213 254 290
#     4  11  21  28  49  77 104 129 173 228 269 326
#     4   9  19  36  55  73 103 141 186 226 268 331
#     4   9  20  35  50  67 100 147 189 217 253 312
#     4  11  22  30  54  80 104 141 182 224 276 327
#
# _framework density 18.148969000000001
#
# number of rings (size 3 to 8) (size 9 to 14) (size 15 to 20)
#    0.000    2.750    0.000    3.375   10.500    0.500 
#    0.000    1.250    0.000    0.375    0.000    0.000 
#    0.000    1.000    0.000    0.000    0.000    0.000 
#
# Total GULP energy -792985.823058 kJ/mol
# GULP energy per Si atom -12390.403485 kJ/mol
# Density = 1.810766 g / cm^3
# Si number density = 18.148969 Si / 1000 Ang^3
#
#
#
# Elastic Constant Matrix: (Units=GPa)
#
#
# Indices 1 2 3 4 5 6 
#
# 1 78.6589 29.9699 25.2824 0.0000 0.0000 0.0003
# 2 29.9699 78.6589 25.2824 0.0000 0.0000 -0.0003
# 3 25.2824 25.2824 63.7428 0.0000 0.0000 0.0000
# 4 0.0000 0.0000 0.0000 20.4725 0.0000 0.0000
# 5 0.0000 0.0000 0.0000 0.0000 20.4725 0.0000
# 6 0.0003 -0.0003 0.0000 0.0000 0.0000 20.7618
#
#
#
# Elastic Compliance Matrix: (Units=1/GPa)
#
#
# Indices 1 2 3 4 5 6 
#
# 1 0.015914 -0.004624 -0.004478 0.000000 0.000000 0.000000
# 2 -0.004624 0.015914 -0.004478 0.000000 0.000000 0.000000
# 3 -0.004478 -0.004478 0.019240 0.000000 0.000000 0.000000
# 4 0.000000 0.000000 0.000000 0.048846 0.000000 0.000000
# 5 0.000000 0.000000 0.000000 0.000000 0.048846 0.000000
# 6 0.000000 0.000000 0.000000 0.000000 0.000000 0.048165
#
#
# Mechanical properties :
#
#
# Convention : Reuss Voigt Hill
#
# Bulk Modulus (GPa) = 41.82624 42.45890 42.14257
# Shear Modulus (GPa) = 21.54650 21.70975 21.62812
#
# Velocity S-wave (km/s) = 3.44932 3.46236 3.45585
# Velocity P-wave (km/s) = 6.24178 6.27928 6.26056
#
# Compressibility (1/GPa) = 0.02390844
#
# Stress axis : x y z
#
# Youngs Moduli (GPa) = 62.83647 62.83647 51.97431
#
# Poissons Ratio (x) = 0.29057 0.23274
# Poissons Ratio (y) = 0.29057 0.23274
# Poissons Ratio (z) = 0.28138 0.28138
#
# Static dielectric constant tensor:
#      x y z
#    x 3.272520 0.000000 0.000000 
#    y 0.000000 3.272520 0.000000 
#    z 0.000000 0.000000 3.301620 
# 
# 
# High freq. dielectric constant tensor:
#      x y z
#    x 1.676370 0.000000 0.000000 
#    y 0.000000 1.676370 0.000000 
#    z 0.000000 0.000000 1.696770 
# 
# From -- ./inp_files/2664.got.cif
#   From: 2010.03.12/outbox.cif.g09.slc.cpg/sg108_2_cif.got.tgz:2664.got - 2010.04.14 01:53:11.
