data_PCOD8307921
_publ_section_title
;
Structure prediction by ZEFSAII (Michael W. Deem and Ramdas Pophale) SiO2 
 PCOD8307921
Probable space group: I 41 M D
;
_chemical_formula_sum "Si O2"
_cell_formula_units_Z 112
_cell_length_a 13.861564
_cell_length_b 13.861564
_cell_length_c 27.082037
_cell_angle_alpha 90.000000
_cell_angle_beta 90.000000
_cell_angle_gamma 90.000000
_cell_volume 5203.622658
_symmetry_space_group_name_H-M "I 41 M D"
_symmetry_group_IT_number 109
_symmetry_cell_setting 'tetragonal'
loop_
_space_group_symop_operation_xyz
x,y,z
-y,1/2+x,1/4+z
-x,-y,z
y,1/2-x,1/4+z
-x,y,z
x,-y,z
-y,1/2-x,1/4+z
y,1/2+x,1/4+z
1/2+x,1/2+y,1/2+z
1/2-y,x,3/4+z
1/2-x,1/2-y,1/2+z
1/2+y,-x,3/4+z
1/2-x,1/2+y,1/2+z
1/2+x,1/2-y,1/2+z
1/2-y,-x,3/4+z
1/2+y,x,3/4+z
loop_
_atom_site_type_symbol
_atom_site_label
_atom_site_fract_x
_atom_site_fract_y
_atom_site_fract_z
Si Si1 0.697166 0.289470 0.224380
Si Si2 0.109166 0.244905 0.065276
Si Si3 0.387835 0.386911 0.027120
Si Si4 0.777405 0.107641 0.924685
Si Si5 0.778158 0.386248 0.577657
Si Si6 0.390309 0.603161 0.733873
Si Si7 0.890592 0.227115 0.624957
O O1 0.680336 0.353758 0.273313
O O2 0.674823 0.177264 0.238454
O O3 0.806706 0.318994 0.208076
O O4 0.628515 0.319823 0.178870
O O5 0.120590 0.301851 0.117191
O O6 0.168484 0.144965 0.067458
O O7 0.000000 0.215032 0.055222
O O8 0.500000 0.370962 0.013345
O O9 0.360309 0.500000 0.023962
O O10 0.366162 0.351202 0.082941
O O11 0.660968 0.116833 0.932333
O O12 0.811031 0.000000 0.943171
O O13 0.785416 0.500000 0.588541
O O14 0.836284 0.347635 0.529578
O O15 0.822696 0.322579 0.622127
O O16 0.500000 0.584387 0.748223
O O17 0.336288 0.500000 0.728855
O O18 0.000000 0.262361 0.620896
#
# Coordination Sequence:
#
# PCOD8307921 Si02
#       7
#    16  16  16  16  16  16  16
#     4  12  21  40  63  92 123 168 211 263 316 379
#     4  11  24  41  59  87 123 165 214 266 314 360
#     4  10  22  41  65  94 129 164 202 258 326 390
#     4  10  20  36  58  83 120 163 210 255 304 365
#     4  11  21  37  60  93 133 171 206 251 311 379
#     4   9  17  30  52  82 118 161 202 240 293 366
#     4  11  23  40  64  96 129 166 211 258 315 388
#
# _framework density 21.523465999999999
#
# number of rings (size 3 to 8) (size 9 to 14) (size 15 to 20)
#    0.000    1.429    4.286    0.857    0.000    4.571 
#    0.000    1.429    0.000    1.286    0.000    4.000 
#    0.000    0.000    0.000    0.000    0.000    0.000 
#
# Total GULP energy -693894.534231 kJ/mol
# GULP energy per Si atom -12390.973826 kJ/mol
# Density = 2.147448 g / cm^3
# Si number density = 21.523466 Si / 1000 Ang^3
#
#
#
# Elastic Constant Matrix: (Units=GPa)
#
#
# Indices 1 2 3 4 5 6 
#
# 1 93.7267 14.2147 28.9505 0.0000 0.0000 0.0000
# 2 14.2147 93.7267 28.9505 0.0000 0.0000 0.0000
# 3 28.9505 28.9505 117.1126 0.0000 0.0000 0.0000
# 4 0.0000 0.0000 0.0000 25.0536 0.0000 0.0000
# 5 0.0000 0.0000 0.0000 0.0000 25.0536 0.0000
# 6 0.0000 0.0000 0.0000 0.0000 0.0000 19.2346
#
#
#
# Elastic Compliance Matrix: (Units=1/GPa)
#
#
# Indices 1 2 3 4 5 6 
#
# 1 0.011629 -0.000948 -0.002640 0.000000 0.000000 0.000000
# 2 -0.000948 0.011629 -0.002640 0.000000 0.000000 0.000000
# 3 -0.002640 -0.002640 0.009844 0.000000 0.000000 0.000000
# 4 0.000000 0.000000 0.000000 0.039914 0.000000 0.000000
# 5 0.000000 0.000000 0.000000 0.000000 0.039914 0.000000
# 6 0.000000 0.000000 0.000000 0.000000 0.000000 0.051990
#
#
# Mechanical properties :
#
#
# Convention : Reuss Voigt Hill
#
# Bulk Modulus (GPa) = 48.43970 49.86638 49.15304
# Shear Modulus (GPa) = 27.13577 29.36503 28.25040
#
# Velocity S-wave (km/s) = 3.55456 3.69769 3.62683
# Velocity P-wave (km/s) = 6.27702 6.43810 6.35807
#
# Compressibility (1/GPa) = 0.02064422
#
# Stress axis : x y z
#
# Youngs Moduli (GPa) = 85.99461 85.99461 101.58322
#
# Poissons Ratio (x) = 0.08153 0.26821
# Poissons Ratio (y) = 0.08153 0.26821
# Poissons Ratio (z) = 0.22705 0.22705
#
# Static dielectric constant tensor:
#      x y z
#    x 3.824660 0.000000 0.000000 
#    y 0.000000 3.824660 0.000000 
#    z 0.000000 0.000000 4.026690 
# 
# 
# High freq. dielectric constant tensor:
#      x y z
#    x 1.824790 0.000000 0.000000 
#    y 0.000000 1.824790 0.000000 
#    z 0.000000 0.000000 1.852970 
# 
# From -- ./inp_files/5068.got.cif
#   From: 2010.03.12/outbox.cif.g09.slc.cpg/sg109_3_cif.got.tgz:5068.got - 2010.04.14 01:55:16.
