data_PCOD8307663
_publ_section_title
;
Structure prediction by ZEFSAII (Michael W. Deem and Ramdas Pophale) SiO2 
 PCOD8307663
Probable space group: I 4 M M
;
_chemical_formula_sum "Si O2"
_cell_formula_units_Z 128
_cell_length_a 25.695310
_cell_length_b 25.695310
_cell_length_c 10.985900
_cell_angle_alpha 90.000000
_cell_angle_beta 90.000000
_cell_angle_gamma 90.000000
_cell_volume 7253.429006
_symmetry_space_group_name_H-M "I 4 M M"
_symmetry_group_IT_number 107
_symmetry_cell_setting 'tetragonal'
loop_
_space_group_symop_operation_xyz
x,y,z
-y,x,z
-x,-y,z
y,-x,z
-x,y,z
x,-y,z
-y,-x,z
y,x,z
1/2+x,1/2+y,1/2+z
1/2-y,1/2+x,1/2+z
1/2-x,1/2-y,1/2+z
1/2+y,1/2-x,1/2+z
1/2-x,1/2+y,1/2+z
1/2+x,1/2-y,1/2+z
1/2-y,1/2-x,1/2+z
1/2+y,1/2+x,1/2+z
loop_
_atom_site_type_symbol
_atom_site_label
_atom_site_fract_x
_atom_site_fract_y
_atom_site_fract_z
Si Si1 0.616855 0.059853 0.676850
Si Si2 0.191119 0.110144 0.831118
Si Si3 0.059264 0.735663 0.649027
Si Si4 0.877620 0.281798 0.424245
Si Si5 0.938250 0.618518 0.398117
Si Si6 0.216211 0.129904 0.194752
Si Si7 0.818997 0.264714 0.982803
Si Si8 0.060372 0.855911 0.066799
O O1 0.678001 0.069047 0.703374
O O2 0.602579 0.079484 0.537702
O O3 0.585431 0.085373 0.787771
O O4 0.601681 0.000000 0.683078
O O5 0.146065 0.146065 0.769040
O O6 0.218129 0.068905 0.743223
O O7 0.235674 0.148850 0.878578
O O8 0.164508 0.075953 0.934589
O O9 0.100590 0.746168 0.543304
O O10 0.000000 0.739325 0.601406
O O11 0.920166 0.322465 0.374772
O O12 0.869556 0.235061 0.331484
O O13 0.824184 0.311771 0.447584
O O14 0.000000 0.615487 0.388290
O O15 0.171784 0.171784 0.168958
O O16 0.190640 0.074330 0.161390
O O17 0.263692 0.146602 0.106395
O O18 0.762768 0.237233 0.000232
O O19 0.091087 0.908914 0.098297
O O20 0.000000 0.868830 0.075129
#
# Coordination Sequence:
#
# PCOD8307663 Si02
#       8
#    16  16  16  16  16  16  16  16
#     4   9  20  38  56  74 100 134 173 221 275 324
#     4   9  18  33  53  78 106 137 173 213 267 319
#     4  10  21  36  52  74 104 139 178 216 257 315
#     4  11  21  32  53  73 105 140 172 212 257 308
#     4  10  22  37  54  77 102 130 174 224 271 321
#     4   9  20  35  50  76 108 139 174 209 253 309
#     4   9  19  32  50  78 106 134 171 212 254 311
#     4   9  18  34  55  78 107 139 175 223 267 311
#
# _framework density 17.646826000000001
#
# number of rings (size 3 to 8) (size 9 to 14) (size 15 to 20)
#    0.000    2.500    0.000    4.125    5.250    2.875 
#    0.000    1.250    0.000    0.000    0.000    0.000 
#    0.000    0.000    0.000    6.500    0.000    0.000 
#
# Total GULP energy -793196.553841 kJ/mol
# GULP energy per Si atom -12393.696154 kJ/mol
# Density = 1.760666 g / cm^3
# Si number density = 17.646826 Si / 1000 Ang^3
#
#
#
# Elastic Constant Matrix: (Units=GPa)
#
#
# Indices 1 2 3 4 5 6 
#
# 1 81.5727 34.6033 35.4053 0.0000 0.0000 -0.0001
# 2 34.6033 81.5727 35.4053 0.0000 0.0000 0.0001
# 3 35.4053 35.4053 73.2143 0.0000 0.0000 0.0000
# 4 0.0000 0.0000 0.0000 -3.8294 0.0000 0.0000
# 5 0.0000 0.0000 0.0000 0.0000 -3.8294 0.0000
# 6 -0.0001 0.0001 0.0000 0.0000 0.0000 20.5898
#
#
#
# Elastic Compliance Matrix: (Units=1/GPa)
#
#
# Indices 1 2 3 4 5 6 
#
# 1 0.016748 -0.004543 -0.005902 0.000000 0.000000 0.000000
# 2 -0.004543 0.016748 -0.005902 0.000000 0.000000 0.000000
# 3 -0.005902 -0.005902 0.019367 0.000000 0.000000 0.000000
# 4 0.000000 0.000000 0.000000 -0.261136 0.000000 0.000000
# 5 0.000000 0.000000 0.000000 0.000000 -0.261136 0.000000
# 6 0.000000 0.000000 0.000000 0.000000 0.000000 0.048568
#
#
# Mechanical properties :
#
#
# Convention : Reuss Voigt Hill
#
# Bulk Modulus (GPa) = 49.58263 49.68751 49.63507
# Shear Modulus (GPa) = -13.10874 11.31590 -0.89642
#
# Velocity S-wave (km/s) = -2.72846 2.53502 -0.71350
# Velocity P-wave (km/s) = 4.26992 6.06516 5.24492
#
# Compressibility (1/GPa) = 0.02016835
#
# Stress axis : x y z
#
# Youngs Moduli (GPa) = 59.70935 59.70935 51.63431
#
# Poissons Ratio (x) = 0.27124 0.30476
# Poissons Ratio (y) = 0.27124 0.30476
# Poissons Ratio (z) = 0.35242 0.35242
#
# Static dielectric constant tensor:
#      x y z
#    x 3.265420 0.000000 0.000000 
#    y 0.000000 3.265420 0.000000 
#    z 0.000000 0.000000 3.280470 
# 
# 
# High freq. dielectric constant tensor:
#      x y z
#    x 1.676710 0.000000 0.000000 
#    y 0.000000 1.676710 0.000000 
#    z 0.000000 0.000000 1.676310 
# 
# From -- ./inp_files/2650.got.cif
#   From: 2010.03.12/outbox.cif.g09.slc.cpg/sg107_2_cif.got.tgz:2650.got - 2010.04.14 01:49:11.
