data_PCOD8307811
_publ_section_title
;
Structure prediction by ZEFSAII (Michael W. Deem and Ramdas Pophale) SiO2 
 PCOD8307811
Probable space group: I 4 C M
;
_chemical_formula_sum "Si O2"
_cell_formula_units_Z 80
_cell_length_a 15.831030
_cell_length_b 15.831030
_cell_length_c 15.450502
_cell_angle_alpha 90.000000
_cell_angle_beta 90.000000
_cell_angle_gamma 90.000000
_cell_volume 3872.228155
_symmetry_space_group_name_H-M "I 4 C M"
_symmetry_group_IT_number 108
_symmetry_cell_setting 'tetragonal'
loop_
_space_group_symop_operation_xyz
x,y,z
-y,x,z
-x,-y,z
y,-x,z
-x,y,1/2+z
x,-y,1/2+z
-y,-x,1/2+z
y,x,1/2+z
1/2+x,1/2+y,1/2+z
1/2-y,1/2+x,1/2+z
1/2-x,1/2-y,1/2+z
1/2+y,1/2-x,1/2+z
1/2-x,1/2+y,z
1/2+x,1/2-y,z
1/2-y,1/2-x,z
1/2+y,1/2+x,z
loop_
_atom_site_type_symbol
_atom_site_label
_atom_site_fract_x
_atom_site_fract_y
_atom_site_fract_z
Si Si1 0.437164 0.204318 0.866250
Si Si2 0.123800 0.940896 0.295348
Si Si3 0.004864 0.363880 0.694734
Si Si4 0.062837 0.295682 0.023219
Si Si5 0.876200 0.059104 0.094121
O O1 0.356708 0.143293 0.874005
O O2 0.405887 0.301364 0.857425
O O3 0.492167 0.191110 0.780012
O O4 0.500001 0.187181 0.944734
O O5 0.146829 0.928438 0.194735
O O6 0.039612 0.889282 0.317384
O O7 0.940010 0.440010 0.694734
O O8 0.992167 0.308891 0.609457
O O9 0.099988 0.400013 0.694735
O O10 0.143294 0.356707 0.015465
O O11 0.094113 0.198636 0.032045
O O12 0.960388 0.110718 0.072085
#
# Coordination Sequence:
#
# PCOD8307811 Si02
#       5
#    16  16  16  16  16
#     4  11  22  37  60  89 122 158 201 250 298 359
#     4   9  19  39  66  90 117 157 204 252 308 368
#     4   9  18  34  54  77 112 158 197 234 288 348
#     4  11  22  37  60  89 122 158 201 250 298 359
#     4   9  19  39  66  90 117 157 204 252 308 368
#
# _framework density 20.659939999999999
#
# number of rings (size 3 to 8) (size 9 to 14) (size 15 to 20)
#    0.000    2.200    2.000    2.400    0.000    3.600 
#    0.000    8.000    0.000    0.000    0.000    0.000 
#    0.000    0.000    0.000    0.000    0.000    0.000 
#
# Total GULP energy -495925.627306 kJ/mol
# GULP energy per Si atom -12398.140683 kJ/mol
# Density = 2.061292 g / cm^3
# Si number density = 20.659940 Si / 1000 Ang^3
#
#
#
# Elastic Constant Matrix: (Units=GPa)
#
#
# Indices 1 2 3 4 5 6 
#
# 1 103.0841 44.5160 37.4730 0.0000 0.0000 -0.0001
# 2 44.5160 103.0841 37.4730 0.0000 0.0000 0.0001
# 3 37.4730 37.4730 107.2874 0.0000 0.0000 0.0000
# 4 0.0000 0.0000 0.0000 31.1993 0.0000 0.0000
# 5 0.0000 0.0000 0.0000 0.0000 31.1993 0.0000
# 6 -0.0001 0.0001 0.0000 0.0000 0.0000 18.7134
#
#
#
# Elastic Compliance Matrix: (Units=1/GPa)
#
#
# Indices 1 2 3 4 5 6 
#
# 1 0.012655 -0.004419 -0.002877 0.000000 0.000000 0.000000
# 2 -0.004419 0.012655 -0.002877 0.000000 0.000000 0.000000
# 3 -0.002877 -0.002877 0.011330 0.000000 0.000000 0.000000
# 4 0.000000 0.000000 0.000000 0.032052 0.000000 0.000000
# 5 0.000000 0.000000 0.000000 0.000000 0.032052 0.000000
# 6 0.000000 0.000000 0.000000 0.000000 0.000000 0.053438
#
#
# Mechanical properties :
#
#
# Convention : Reuss Voigt Hill
#
# Bulk Modulus (GPa) = 61.36708 61.37552 61.37130
# Shear Modulus (GPa) = 27.78425 29.15530 28.46977
#
# Velocity S-wave (km/s) = 3.67118 3.76067 3.71619
# Velocity P-wave (km/s) = 6.90927 6.97344 6.94143
#
# Compressibility (1/GPa) = 0.01629538
#
# Stress axis : x y z
#
# Youngs Moduli (GPa) = 79.02076 79.02076 88.26000
#
# Poissons Ratio (x) = 0.34921 0.25388
# Poissons Ratio (y) = 0.34921 0.25388
# Poissons Ratio (z) = 0.22731 0.22731
#
# Static dielectric constant tensor:
#      x y z
#    x 3.672940 0.000000 0.000000 
#    y 0.000000 3.672940 0.000000 
#    z 0.000000 0.000000 3.739830 
# 
# 
# High freq. dielectric constant tensor:
#      x y z
#    x 1.799790 0.000000 0.000000 
#    y 0.000000 1.799790 0.000000 
#    z 0.000000 0.000000 1.811890 
# 
# From -- ./inp_files/1884.got.cif
#   From: 2010.03.12/outbox.cif.g09.slc.cpg/sg108_1_cif.got.tgz:1884.got - 2010.04.14 01:53:11.
