data_PCOD8307983
_publ_section_title
;
Structure prediction by ZEFSAII (Michael W. Deem and Ramdas Pophale) SiO2 
 PCOD8307983
Probable space group: I 41 M D
;
_chemical_formula_sum "Si O2"
_cell_formula_units_Z 48
_cell_length_a 7.863664
_cell_length_b 7.863664
_cell_length_c 36.395247
_cell_angle_alpha 90.000000
_cell_angle_beta 90.000000
_cell_angle_gamma 90.000000
_cell_volume 2250.580587
_symmetry_space_group_name_H-M "I 41 M D"
_symmetry_group_IT_number 109
_symmetry_cell_setting 'tetragonal'
loop_
_space_group_symop_operation_xyz
x,y,z
-y,1/2+x,1/4+z
-x,-y,z
y,1/2-x,1/4+z
-x,y,z
x,-y,z
-y,1/2-x,1/4+z
y,1/2+x,1/4+z
1/2+x,1/2+y,1/2+z
1/2-y,x,3/4+z
1/2-x,1/2-y,1/2+z
1/2+y,-x,3/4+z
1/2-x,1/2+y,1/2+z
1/2+x,1/2-y,1/2+z
1/2-y,-x,3/4+z
1/2+y,x,3/4+z
loop_
_atom_site_type_symbol
_atom_site_label
_atom_site_fract_x
_atom_site_fract_y
_atom_site_fract_z
Si Si1 0.693724 0.810272 0.430510
Si Si2 0.309109 0.196816 0.006670
Si Si3 0.000000 0.309592 0.055541
Si Si4 0.000000 0.190669 0.134681
O O1 0.500000 0.799974 0.443880
O O2 0.808361 0.774007 0.465907
O O3 0.720937 0.672173 0.398663
O O4 0.736477 0.000000 0.415272
O O5 0.500000 0.224092 0.022653
O O6 0.171041 0.285665 0.032245
O O7 0.261146 0.000000 0.003913
O O8 0.000000 0.187035 0.090595
O O9 0.000000 0.500000 0.070893
O O10 0.000000 0.000000 0.149756
#
# Coordination Sequence:
#
# PCOD8307983 Si02
#       4
#    16  16   8   8
#     4  11  23  41  67  98 131 173 224 279 337 402
#     4  11  23  41  67  98 131 173 224 279 337 402
#     4  12  26  44  66  96 134 178 224 281 349 406
#     4  12  26  44  66  96 134 178 224 281 349 406
#
# _framework density 21.327832000000001
#
# number of rings (size 3 to 8) (size 9 to 14) (size 15 to 20)
#    0.000    0.667    3.333    5.000    0.000    6.000 
#    0.000    0.000    0.000    0.000    0.000    0.000 
#    0.000    0.000    0.000    0.000    0.000    0.000 
#
# Total GULP energy -297687.987075 kJ/mol
# GULP energy per Si atom -12403.666128 kJ/mol
# Density = 2.127929 g / cm^3
# Si number density = 21.327832 Si / 1000 Ang^3
#
#
#
# Elastic Constant Matrix: (Units=GPa)
#
#
# Indices 1 2 3 4 5 6 
#
# 1 131.7014 35.7259 26.2189 0.0000 0.0000 0.0000
# 2 35.7259 131.7014 26.2189 0.0000 0.0000 0.0000
# 3 26.2189 26.2189 103.5925 0.0000 0.0000 0.0000
# 4 0.0000 0.0000 0.0000 18.5562 0.0000 0.0000
# 5 0.0000 0.0000 0.0000 0.0000 18.5562 0.0000
# 6 0.0000 0.0000 0.0000 0.0000 0.0000 14.3873
#
#
#
# Elastic Compliance Matrix: (Units=1/GPa)
#
#
# Indices 1 2 3 4 5 6 
#
# 1 0.008453 -0.001966 -0.001642 0.000000 0.000000 0.000000
# 2 -0.001966 0.008453 -0.001642 0.000000 0.000000 0.000000
# 3 -0.001642 -0.001642 0.010484 0.000000 0.000000 0.000000
# 4 0.000000 0.000000 0.000000 0.053890 0.000000 0.000000
# 5 0.000000 0.000000 0.000000 0.000000 0.053890 0.000000
# 6 0.000000 0.000000 0.000000 0.000000 0.000000 0.069506
#
#
# Mechanical properties :
#
#
# Convention : Reuss Voigt Hill
#
# Bulk Modulus (GPa) = 59.20345 60.36917 59.78631
# Shear Modulus (GPa) = 22.64422 28.88872 25.76647
#
# Velocity S-wave (km/s) = 3.26194 3.68436 3.47957
# Velocity P-wave (km/s) = 6.48121 6.81661 6.65102
#
# Compressibility (1/GPa) = 0.01689091
#
# Stress axis : x y z
#
# Youngs Moduli (GPa) = 118.29922 118.29924 95.38077
#
# Poissons Ratio (x) = 0.23260 0.15660
# Poissons Ratio (y) = 0.23260 0.15660
# Poissons Ratio (z) = 0.19423 0.19423
#
# Static dielectric constant tensor:
#      x y z
#    x 4.013020 0.000000 0.000000 
#    y 0.000000 4.013020 0.000000 
#    z 0.000000 0.000000 3.465040 
# 
# 
# High freq. dielectric constant tensor:
#      x y z
#    x 1.852900 0.000000 0.000000 
#    y 0.000000 1.852900 0.000000 
#    z 0.000000 0.000000 1.813410 
# 
# From -- ./inp_files/5276.got.cif
#   From: 2010.03.12/outbox.cif.g09.slc.cpg/sg109_3_cif.got.tgz:5276.got - 2010.04.14 01:55:16.
