data_PCOD8307926
_publ_section_title
;
Structure prediction by ZEFSAII (Michael W. Deem and Ramdas Pophale) SiO2 
 PCOD8307926
Probable space group: I 41 M D
;
_chemical_formula_sum "Si O2"
_cell_formula_units_Z 48
_cell_length_a 22.380387
_cell_length_b 22.380387
_cell_length_c 4.812185
_cell_angle_alpha 90.000000
_cell_angle_beta 90.000000
_cell_angle_gamma 90.000000
_cell_volume 2410.335511
_symmetry_space_group_name_H-M "I 41 M D"
_symmetry_group_IT_number 109
_symmetry_cell_setting 'tetragonal'
loop_
_space_group_symop_operation_xyz
x,y,z
-y,1/2+x,1/4+z
-x,-y,z
y,1/2-x,1/4+z
-x,y,z
x,-y,z
-y,1/2-x,1/4+z
y,1/2+x,1/4+z
1/2+x,1/2+y,1/2+z
1/2-y,x,3/4+z
1/2-x,1/2-y,1/2+z
1/2+y,-x,3/4+z
1/2-x,1/2+y,1/2+z
1/2+x,1/2-y,1/2+z
1/2-y,-x,3/4+z
1/2+y,x,3/4+z
loop_
_atom_site_type_symbol
_atom_site_label
_atom_site_fract_x
_atom_site_fract_y
_atom_site_fract_z
Si Si1 0.000000 0.286923 0.295430
Si Si2 0.206536 0.500000 0.042426
Si Si3 0.371478 0.681092 0.237145
Si Si4 0.186961 0.125701 0.242236
O O1 0.000000 0.225403 0.469891
O O2 0.940377 0.323904 0.367236
O O3 0.000000 0.267763 0.973042
O O4 0.169804 0.560766 0.098536
O O5 0.327134 0.673295 0.498489
O O6 0.358218 0.632991 0.998461
O O7 0.363001 0.746669 0.106927
#
# Coordination Sequence:
#
# PCOD8307926 Si02
#       4
#     8   8  16  16
#     4  10  20  38  58  77 108 153 196 222 261 338
#     4  10  20  38  58  77 108 153 196 222 261 338
#     4  11  22  37  58  84 114 148 184 230 284 337
#     4  11  22  37  58  84 114 148 184 230 284 337
#
# _framework density 19.914238999999998
#
# number of rings (size 3 to 8) (size 9 to 14) (size 15 to 20)
#    0.000    1.333    0.000   10.000    0.000    2.667 
#    0.000    3.333    0.000    6.000    0.000    0.000 
#    0.000    0.000    0.000    0.000    0.000    0.000 
#
# Total GULP energy -297557.667330 kJ/mol
# GULP energy per Si atom -12398.236139 kJ/mol
# Density = 1.986891 g / cm^3
# Si number density = 19.914239 Si / 1000 Ang^3
#
#
#
# Elastic Constant Matrix: (Units=GPa)
#
#
# Indices 1 2 3 4 5 6 
#
# 1 90.5929 63.9505 38.1093 0.0000 0.0000 0.0000
# 2 63.9505 90.5929 38.1093 0.0000 0.0000 0.0000
# 3 38.1093 38.1093 108.5204 0.0000 0.0000 0.0000
# 4 0.0000 0.0000 0.0000 35.6854 0.0000 0.0000
# 5 0.0000 0.0000 0.0000 0.0000 35.6854 0.0000
# 6 0.0000 0.0000 0.0000 0.0000 0.0000 10.1747
#
#
#
# Elastic Compliance Matrix: (Units=1/GPa)
#
#
# Indices 1 2 3 4 5 6 
#
# 1 0.022680 -0.014854 -0.002748 0.000000 0.000000 0.000000
# 2 -0.014854 0.022680 -0.002748 0.000000 0.000000 0.000000
# 3 -0.002748 -0.002748 0.011145 0.000000 0.000000 0.000000
# 4 0.000000 0.000000 0.000000 0.028023 0.000000 0.000000
# 5 0.000000 0.000000 0.000000 0.000000 0.028023 0.000000
# 6 0.000000 0.000000 0.000000 0.000000 0.000000 0.098283
#
#
# Mechanical properties :
#
#
# Convention : Reuss Voigt Hill
#
# Bulk Modulus (GPa) = 63.27474 63.33824 63.30649
# Shear Modulus (GPa) = 19.47016 26.27823 22.87420
#
# Velocity S-wave (km/s) = 3.13021 3.63653 3.39283
# Velocity P-wave (km/s) = 6.70126 7.03612 6.87073
#
# Compressibility (1/GPa) = 0.01580410
#
# Stress axis : x y z
#
# Youngs Moduli (GPa) = 44.09144 44.09144 89.72542
#
# Poissons Ratio (x) = 0.65494 0.24659
# Poissons Ratio (y) = 0.65494 0.24659
# Poissons Ratio (z) = 0.12118 0.12118
#
# Static dielectric constant tensor:
#      x y z
#    x 3.634400 0.000000 0.000000 
#    y 0.000000 3.634400 0.000000 
#    z 0.000000 0.000000 3.906430 
# 
# 
# High freq. dielectric constant tensor:
#      x y z
#    x 1.753290 0.000000 0.000000 
#    y 0.000000 1.753290 0.000000 
#    z 0.000000 0.000000 1.808010 
# 
# From -- ./inp_files/295.got.cif
#   From: 2010.03.12/outbox.cif.g09.slc.cpg/sg109_1_cif.got.tgz:295.got - 2010.04.14 01:55:16.
