data_PCOD8307136
_publ_section_title
;
Structure prediction by ZEFSAII (Michael W. Deem and Ramdas Pophale) SiO2 
 PCOD8307136
Probable space group: P 42 M C
;
_chemical_formula_sum "Si O2"
_cell_formula_units_Z 40
_cell_length_a 8.029306
_cell_length_b 8.029306
_cell_length_c 29.239784
_cell_angle_alpha 90.000000
_cell_angle_beta 90.000000
_cell_angle_gamma 90.000000
_cell_volume 1885.081706
_symmetry_space_group_name_H-M "P 42 M C"
_symmetry_group_IT_number 105
_symmetry_cell_setting 'tetragonal'
loop_
_space_group_symop_operation_xyz
x,y,z
-y,x,1/2+z
-x,-y,z
y,-x,1/2+z
-x,y,z
x,-y,z
-y,-x,1/2+z
y,x,1/2+z
loop_
_atom_site_type_symbol
_atom_site_label
_atom_site_fract_x
_atom_site_fract_y
_atom_site_fract_z
Si Si1 0.811028 0.000000 0.088241
Si Si2 0.199087 0.000000 0.188891
Si Si3 0.684212 0.690270 0.533433
Si Si4 0.305968 0.185934 0.847186
Si Si5 0.192091 0.190589 0.441479
Si Si6 0.313109 0.199066 0.746975
O O1 0.721280 0.000000 0.137831
O O2 0.779942 0.167045 0.059849
O O3 0.000000 0.000000 0.102171
O O4 0.265807 0.830771 0.213199
O O5 0.000000 0.000000 0.190707
O O6 0.500000 0.762449 0.546343
O O7 0.692253 0.500000 0.548058
O O8 0.708229 0.704559 0.479004
O O9 0.500000 0.183820 0.857605
O O10 0.218441 0.273475 0.890991
O O11 0.272053 0.272012 0.797913
O O12 0.232158 0.000000 0.844358
O O13 0.000000 0.250483 0.441352
O O14 0.207330 0.000000 0.456104
O O15 0.500000 0.258453 0.731582
O O16 0.314385 0.000000 0.749482
#
# Coordination Sequence:
#
# PCOD8307136 Si02
#       6
#     4   4   8   8   8   8
#     4  11  23  39  59  87 117 151 193 247 307 358
#     4   9  18  29  47  73 107 147 185 233 295 350
#     4  11  24  41  61  82 109 151 196 243 299 358
#     4   8  14  24  41  68 105 150 191 227 270 329
#     4  10  19  30  50  82 115 148 185 231 288 346
#     4   8  14  25  41  66 104 147 189 231 279 342
#
# _framework density 21.219242000000001
#
# number of rings (size 3 to 8) (size 9 to 14) (size 15 to 20)
#    0.000    2.600    1.000    2.700    1.400    3.200 
#    0.000    2.000    0.000    0.000    0.000    2.800 
#    0.000    6.400    0.000    0.000    0.000    0.000 
#
# Total GULP energy -495574.563007 kJ/mol
# GULP energy per Si atom -12389.364075 kJ/mol
# Density = 2.117095 g / cm^3
# Si number density = 21.219242 Si / 1000 Ang^3
#
#
#
# Elastic Constant Matrix: (Units=GPa)
#
#
# Indices 1 2 3 4 5 6 
#
# 1 78.2239 22.0379 43.9858 0.0000 0.0000 0.0000
# 2 22.0379 78.2239 43.9858 0.0000 0.0000 0.0000
# 3 43.9858 43.9858 157.7567 0.0000 0.0000 0.0000
# 4 0.0000 0.0000 0.0000 -0.3548 0.0000 0.0000
# 5 0.0000 0.0000 0.0000 0.0000 -0.3548 0.0000
# 6 0.0000 0.0000 0.0000 0.0000 0.0000 4.8039
#
#
#
# Elastic Compliance Matrix: (Units=1/GPa)
#
#
# Indices 1 2 3 4 5 6 
#
# 1 0.015501 -0.002297 -0.003682 0.000000 0.000000 0.000000
# 2 -0.002297 0.015501 -0.003682 0.000000 0.000000 0.000000
# 3 -0.003682 -0.003682 0.008392 0.000000 0.000000 0.000000
# 4 0.000000 0.000000 0.000000 -2.818422 0.000000 0.000000
# 5 0.000000 0.000000 0.000000 0.000000 -2.818422 0.000000
# 6 0.000000 0.000000 0.000000 0.000000 0.000000 0.208165
#
#
# Mechanical properties :
#
#
# Convention : Reuss Voigt Hill
#
# Bulk Modulus (GPa) = 49.81600 59.35818 54.58709
# Shear Modulus (GPa) = -0.93227 14.43186 6.74979
#
# Velocity S-wave (km/s) = -0.66355 2.61076 1.78546
# Velocity P-wave (km/s) = 4.78965 6.09283 5.48011
#
# Compressibility (1/GPa) = 0.02007387
#
# Stress axis : x y z
#
# Youngs Moduli (GPa) = 64.51153 64.51153 119.16274
#
# Poissons Ratio (x) = 0.14818 0.43871
# Poissons Ratio (y) = 0.14818 0.43871
# Poissons Ratio (z) = 0.23751 0.23751
#
# Static dielectric constant tensor:
#      x y z
#    x 3.598700 0.000000 0.000000 
#    y 0.000000 3.598700 0.000000 
#    z 0.000000 0.000000 4.019240 
# 
# 
# High freq. dielectric constant tensor:
#      x y z
#    x 1.802610 0.000000 0.000000 
#    y 0.000000 1.802610 0.000000 
#    z 0.000000 0.000000 1.837750 
# 
# From -- ./inp_files/4349.got.cif
#   From: 2010.03.12/outbox.cif.g09.slc.cpg/sg105_3_cif.got.tgz:4349.got - 2010.04.14 01:45:32.
