data_PCOD8307395
_publ_section_title
;
Structure prediction by ZEFSAII (Michael W. Deem and Ramdas Pophale) SiO2 
 PCOD8307395
Probable space group: P 42 B C
;
_chemical_formula_sum "Si O2"
_cell_formula_units_Z 64
_cell_length_a 30.675291
_cell_length_b 30.675291
_cell_length_c 5.356441
_cell_angle_alpha 90.000000
_cell_angle_beta 90.000000
_cell_angle_gamma 90.000000
_cell_volume 5040.268917
_symmetry_space_group_name_H-M "P 42 B C"
_symmetry_group_IT_number 106
_symmetry_cell_setting 'tetragonal'
loop_
_space_group_symop_operation_xyz
x,y,z
-y,x,1/2+z
-x,-y,z
y,-x,1/2+z
1/2-x,1/2+y,z
1/2+x,1/2-y,z
1/2-y,1/2-x,1/2+z
1/2+y,1/2+x,1/2+z
loop_
_atom_site_type_symbol
_atom_site_label
_atom_site_fract_x
_atom_site_fract_y
_atom_site_fract_z
Si Si1 0.541580 0.920834 0.479780
Si Si2 0.650417 0.215944 0.979416
Si Si3 0.704665 0.755646 0.966732
Si Si4 0.806455 0.378523 0.479244
Si Si5 0.664837 0.900655 0.979252
Si Si6 0.143696 0.422232 0.479894
Si Si7 0.755486 0.672469 0.979412
Si Si8 0.049780 0.379311 0.479895
O O1 0.552499 0.947549 0.729662
O O2 0.567249 0.875680 0.480001
O O3 0.490325 0.912316 0.479940
O O4 0.619864 0.174038 0.979983
O O5 0.642377 0.244711 0.729067
O O6 0.700525 0.201104 0.977679
O O7 0.642455 0.244821 0.229341
O O8 0.721483 0.772510 0.700912
O O9 0.652957 0.764472 0.981228
O O10 0.713492 0.703951 0.981238
O O11 0.850535 0.350044 0.477367
O O12 0.806429 0.408657 0.728666
O O13 0.806285 0.408555 0.229306
O O14 0.093779 0.407134 0.479868
O O15 0.151180 0.451037 0.730512
O O16 0.151186 0.451029 0.229255
#
# Coordination Sequence:
#
# PCOD8307395 Si02
#       8
#     8   8   8   8   8   8   8   8
#     4  12  21  32  44  57  68  78  97 134 167 200
#     4  10  16  25  41  48  65  86 104 120 138 174
#     4  12  16  22  31  49  77  88 104 126 138 156
#     4  10  16  25  38  50  65  93 108 120 140 172
#     4  10  16  27  38  50  63  81 111 122 143 185
#     4  10  19  35  44  54  66  83 104 122 154 214
#     4  10  16  22  31  56  68  86 102 120 140 154
#     4  10  20  32  46  56  66  78  97 127 163 198
#
# _framework density 12.697734000000001
#
# number of rings (size 3 to 8) (size 9 to 14) (size 15 to 20)
#    0.000    1.500    7.500    4.500    0.000    0.000 
#    0.000    7.500    0.000    0.000    0.000    0.000 
#    0.000    0.000    0.000    0.000    0.000    0.000 
#
# Total GULP energy -792978.548987 kJ/mol
# GULP energy per Si atom -12390.289828 kJ/mol
# Density = 1.266883 g / cm^3
# Si number density = 12.697734 Si / 1000 Ang^3
#
#
#
# Elastic Constant Matrix: (Units=GPa)
#
#
# Indices 1 2 3 4 5 6 
#
# 1 22.6300 22.8222 10.5909 0.0000 0.0000 0.0000
# 2 22.8222 22.6300 10.5909 0.0000 0.0000 0.0000
# 3 10.5909 10.5909 139.4257 0.0000 0.0000 0.0000
# 4 0.0000 0.0000 0.0000 11.1263 0.0000 0.0000
# 5 0.0000 0.0000 0.0000 0.0000 11.1263 0.0000
# 6 0.0000 0.0000 0.0000 0.0000 0.0000 7.0009
#
#
#
# Elastic Compliance Matrix: (Units=1/GPa)
#
#
# Indices 1 2 3 4 5 6 
#
# 1 -2.589600 2.612409 -0.001733 0.000000 0.000000 0.000000
# 2 2.612409 -2.589600 -0.001733 0.000000 0.000000 0.000000
# 3 -0.001733 -0.001733 0.007435 0.000000 0.000000 0.000000
# 4 0.000000 0.000000 0.000000 0.089877 0.000000 0.000000
# 5 0.000000 0.000000 0.000000 0.000000 0.089877 0.000000
# 6 0.000000 0.000000 0.000000 0.000000 0.000000 0.142838
#
#
# Mechanical properties :
#
#
# Convention : Reuss Voigt Hill
#
# Bulk Modulus (GPa) = 21.68146 30.29930 25.99038
# Shear Modulus (GPa) = -0.49743 15.22950 7.36604
#
# Velocity S-wave (km/s) = -0.62658 3.46697 2.41115
# Velocity P-wave (km/s) = 4.07292 6.31984 5.31644
#
# Compressibility (1/GPa) = 0.04612236
#
# Stress axis : x y z
#
# Youngs Moduli (GPa) = -0.38616 -0.38616 134.49015
#
# Poissons Ratio (x) = 1.00881 0.23301
# Poissons Ratio (y) = 1.00881 0.23301
# Poissons Ratio (z) = -0.00067 -0.00067
#
# Static dielectric constant tensor:
#      x y z
#    x 2.293690 0.000000 0.000000 
#    y 0.000000 2.293690 0.000000 
#    z 0.000000 0.000000 4.825560 
# 
# 
# High freq. dielectric constant tensor:
#      x y z
#    x 1.428470 0.000000 0.000000 
#    y 0.000000 1.428470 0.000000 
#    z 0.000000 0.000000 1.530360 
# 
# From -- ./inp_files/167.got.cif
#   From: 2010.03.12/outbox.cif.g09.slc.cpg/sg106_cif.got.tgz:167.got - 2010.04.14 01:48:02.
