data_PCOD8307711
_publ_section_title
;
Structure prediction by ZEFSAII (Michael W. Deem and Ramdas Pophale) SiO2 
 PCOD8307711
Probable space group: I 4 C M
;
_chemical_formula_sum "Si O2"
_cell_formula_units_Z 128
_cell_length_a 17.895590
_cell_length_b 17.895590
_cell_length_c 23.284554
_cell_angle_alpha 90.000000
_cell_angle_beta 90.000000
_cell_angle_gamma 90.000000
_cell_volume 7456.928281
_symmetry_space_group_name_H-M "I 4 C M"
_symmetry_group_IT_number 108
_symmetry_cell_setting 'tetragonal'
loop_
_space_group_symop_operation_xyz
x,y,z
-y,x,z
-x,-y,z
y,-x,z
-x,y,1/2+z
x,-y,1/2+z
-y,-x,1/2+z
y,x,1/2+z
1/2+x,1/2+y,1/2+z
1/2-y,1/2+x,1/2+z
1/2-x,1/2-y,1/2+z
1/2+y,1/2-x,1/2+z
1/2-x,1/2+y,z
1/2+x,1/2-y,z
1/2-y,1/2-x,z
1/2+y,1/2+x,z
loop_
_atom_site_type_symbol
_atom_site_label
_atom_site_fract_x
_atom_site_fract_y
_atom_site_fract_z
Si Si1 0.713509 0.911046 0.064190
Si Si2 0.229228 0.851100 0.672518
Si Si3 0.995702 0.381384 0.639471
Si Si4 0.522703 0.212086 0.746858
Si Si5 0.260121 0.359597 0.252048
Si Si6 0.931714 0.309399 0.373741
Si Si7 0.308038 0.686392 0.368792
Si Si8 0.587173 0.785861 0.935148
O O1 0.645711 0.854290 0.058719
O O2 0.778154 0.875777 0.105511
O O3 0.685664 0.987470 0.094966
O O4 0.741718 0.928095 0.000297
O O5 0.308109 0.808109 0.680972
O O6 0.231206 0.921726 0.714863
O O7 0.160491 0.797881 0.690543
O O8 0.053056 0.446945 0.627201
O O9 0.003517 0.356657 0.705325
O O10 0.911535 0.411535 0.629123
O O11 0.447427 0.257237 0.760463
O O12 0.555808 0.180534 0.805789
O O13 0.177745 0.322256 0.256533
O O14 0.313296 0.325526 0.301156
O O15 0.877266 0.377266 0.393743
O O16 0.894080 0.227451 0.385269
O O17 0.009417 0.313467 0.407877
O O18 0.245693 0.745693 0.385295
O O19 0.382236 0.711186 0.403593
O O20 0.645149 0.854852 0.930137
#
# Coordination Sequence:
#
# PCOD8307711 Si02
#       8
#    16  16  16  16  16  16  16  16
#     4   8  16  31  50  67  92 135 175 201 240 300
#     4   9  17  32  51  70  94 129 166 196 238 304
#     4   9  17  28  43  66  99 135 164 195 240 298
#     4  11  18  28  47  72  99 127 159 203 252 298
#     4  10  18  29  48  73  98 124 159 203 251 297
#     4  11  21  32  50  76 105 141 176 211 259 317
#     4   9  18  33  49  69  99 135 171 207 255 307
#     4  10  20  35  52  73 102 137 175 216 259 306
#
# _framework density 17.165244000000001
#
# number of rings (size 3 to 8) (size 9 to 14) (size 15 to 20)
#    0.000    2.375    2.500    2.250    0.000    1.250 
#    0.000    3.750    0.000    5.250    0.000    0.000 
#    0.000    4.000    0.000    0.000    0.000    0.000 
#
# Total GULP energy -793077.600885 kJ/mol
# GULP energy per Si atom -12391.837514 kJ/mol
# Density = 1.712618 g / cm^3
# Si number density = 17.165244 Si / 1000 Ang^3
#
#
#
# Elastic Constant Matrix: (Units=GPa)
#
#
# Indices 1 2 3 4 5 6 
#
# 1 59.8753 31.0093 26.1603 0.0000 0.0000 0.0000
# 2 31.0093 59.8753 26.1603 0.0000 0.0000 0.0000
# 3 26.1603 26.1603 111.3353 0.0000 0.0000 0.0000
# 4 0.0000 0.0000 0.0000 19.2027 0.0000 0.0000
# 5 0.0000 0.0000 0.0000 0.0000 19.2027 0.0000
# 6 0.0000 0.0000 0.0000 0.0000 0.0000 20.9295
#
#
#
# Elastic Compliance Matrix: (Units=1/GPa)
#
#
# Indices 1 2 3 4 5 6 
#
# 1 0.023683 -0.010959 -0.002990 0.000000 0.000000 0.000000
# 2 -0.010959 0.023683 -0.002990 0.000000 0.000000 0.000000
# 3 -0.002990 -0.002990 0.010387 0.000000 0.000000 0.000000
# 4 0.000000 0.000000 0.000000 0.052076 0.000000 0.000000
# 5 0.000000 0.000000 0.000000 0.000000 0.052076 0.000000
# 6 0.000000 0.000000 0.000000 0.000000 0.000000 0.047780
#
#
# Mechanical properties :
#
#
# Convention : Reuss Voigt Hill
#
# Bulk Modulus (GPa) = 41.88298 44.19397 43.03848
# Shear Modulus (GPa) = 19.87900 21.71739 20.79819
#
# Velocity S-wave (km/s) = 3.40677 3.56082 3.48465
# Velocity P-wave (km/s) = 6.31883 6.53513 6.42789
#
# Compressibility (1/GPa) = 0.02387604
#
# Stress axis : x y z
#
# Youngs Moduli (GPa) = 42.22361 42.22361 96.27536
#
# Poissons Ratio (x) = 0.46274 0.28784
# Poissons Ratio (y) = 0.46274 0.28784
# Poissons Ratio (z) = 0.12624 0.12624
#
# Static dielectric constant tensor:
#      x y z
#    x 3.110240 0.000000 0.000000 
#    y 0.000000 3.110240 0.000000 
#    z 0.000000 0.000000 3.394560 
# 
# 
# High freq. dielectric constant tensor:
#      x y z
#    x 1.637020 0.000000 0.000000 
#    y 0.000000 1.637020 0.000000 
#    z 0.000000 0.000000 1.663830 
# 
# From -- ./inp_files/3279.got.cif
#   From: 2010.03.12/outbox.cif.g09.slc.cpg/sg108_2_cif.got.tgz:3279.got - 2010.04.14 01:53:11.
