data_PCOD8307173
_publ_section_title
;
Structure prediction by ZEFSAII (Michael W. Deem and Ramdas Pophale) SiO2 
 PCOD8307173
Probable space group: P 42 M C
;
_chemical_formula_sum "Si O2"
_cell_formula_units_Z 48
_cell_length_a 9.562334
_cell_length_b 9.562334
_cell_length_c 28.125435
_cell_angle_alpha 90.000000
_cell_angle_beta 90.000000
_cell_angle_gamma 90.000000
_cell_volume 2571.740037
_symmetry_space_group_name_H-M "P 42 M C"
_symmetry_group_IT_number 105
_symmetry_cell_setting 'tetragonal'
loop_
_space_group_symop_operation_xyz
x,y,z
-y,x,1/2+z
-x,-y,z
y,-x,1/2+z
-x,y,z
x,-y,z
-y,-x,1/2+z
y,x,1/2+z
loop_
_atom_site_type_symbol
_atom_site_label
_atom_site_fract_x
_atom_site_fract_y
_atom_site_fract_z
Si Si1 0.660203 0.500000 0.819950
Si Si2 0.784308 0.664394 0.272926
Si Si3 0.831534 0.000000 0.832458
Si Si4 0.670265 0.500000 0.926579
Si Si5 0.334798 0.658023 0.581082
Si Si6 0.155461 0.334216 0.165893
Si Si7 0.717769 0.832844 0.488183
Si Si8 0.159682 0.000000 0.938258
O O1 0.500000 0.500000 0.833504
O O2 0.699698 0.372485 0.786643
O O3 0.728156 0.500000 0.872392
O O4 0.823889 0.500000 0.279874
O O5 0.806903 0.713164 0.219010
O O6 0.867070 0.765749 0.307344
O O7 0.769513 0.000000 0.886294
O O8 0.000000 0.000000 0.828095
O O9 0.500000 0.500000 0.932980
O O10 0.741212 0.368904 0.951378
O O11 0.500000 0.644438 0.583666
O O12 0.272284 0.500000 0.574535
O O13 0.274370 0.728430 0.629399
O O14 0.296146 0.766624 0.539960
O O15 0.156269 0.500000 0.162759
O O16 0.000000 0.277805 0.152960
O O17 0.872244 0.801779 0.471351
O O18 0.679350 0.000000 0.488724
O O19 0.000000 0.000000 0.923972
#
# Coordination Sequence:
#
# PCOD8307173 Si02
#       8
#     4   8   4   4   8   8   8   4
#     4   9  20  33  53  83 115 147 183 231 292 343
#     4  10  19  35  57  83 114 145 189 237 285 338
#     4  11  21  37  59  83 115 151 191 235 278 333
#     4  11  21  35  53  81 117 149 183 231 284 351
#     4  10  20  33  53  83 116 145 181 235 294 340
#     4   9  17  30  52  80 107 141 187 233 278 333
#     4  11  21  37  59  80 110 146 194 238 283 334
#     4   9  22  39  57  83 113 149 195 237 276 331
#
# _framework density 18.664406
#
# number of rings (size 3 to 8) (size 9 to 14) (size 15 to 20)
#    0.000    2.000    1.667    2.500    1.167    0.667 
#    0.000    5.417    1.833    0.000    0.000    0.000 
#    0.000    0.000    0.000    0.000    0.000    0.000 
#
# Total GULP energy -594728.790689 kJ/mol
# GULP energy per Si atom -12390.183139 kJ/mol
# Density = 1.862193 g / cm^3
# Si number density = 18.664406 Si / 1000 Ang^3
#
#
#
# Elastic Constant Matrix: (Units=GPa)
#
#
# Indices 1 2 3 4 5 6 
#
# 1 98.0317 26.3349 28.7504 0.0000 0.0000 0.0000
# 2 26.3349 98.0317 28.7504 0.0000 0.0000 0.0000
# 3 28.7504 28.7504 102.9286 0.0000 0.0000 0.0000
# 4 0.0000 0.0000 0.0000 27.1984 0.0000 0.0000
# 5 0.0000 0.0000 0.0000 0.0000 27.1984 0.0000
# 6 0.0000 0.0000 0.0000 0.0000 0.0000 23.4506
#
#
#
# Elastic Compliance Matrix: (Units=1/GPa)
#
#
# Indices 1 2 3 4 5 6 
#
# 1 0.011590 -0.002357 -0.002579 0.000000 0.000000 0.000000
# 2 -0.002357 0.011590 -0.002579 0.000000 0.000000 0.000000
# 3 -0.002579 -0.002579 0.011156 0.000000 0.000000 0.000000
# 4 0.000000 0.000000 0.000000 0.036767 0.000000 0.000000
# 5 0.000000 0.000000 0.000000 0.000000 0.036767 0.000000
# 6 0.000000 0.000000 0.000000 0.000000 0.000000 0.042643
#
#
# Mechanical properties :
#
#
# Convention : Reuss Voigt Hill
#
# Bulk Modulus (GPa) = 51.79627 51.85149 51.82388
# Shear Modulus (GPa) = 29.07318 29.91322 29.49320
#
# Velocity S-wave (km/s) = 3.95103 4.00770 3.97947
# Velocity P-wave (km/s) = 6.97322 7.01832 6.99581
#
# Compressibility (1/GPa) = 0.01930641
#
# Stress axis : x y z
#
# Youngs Moduli (GPa) = 86.27831 86.27831 89.63587
#
# Poissons Ratio (x) = 0.20338 0.23118
# Poissons Ratio (y) = 0.20338 0.23118
# Poissons Ratio (z) = 0.22252 0.22252
#
# Static dielectric constant tensor:
#      x y z
#    x 3.338960 0.000000 0.000000 
#    y 0.000000 3.338960 0.000000 
#    z 0.000000 0.000000 3.627210 
# 
# 
# High freq. dielectric constant tensor:
#      x y z
#    x 1.709890 0.000000 0.000000 
#    y 0.000000 1.709890 0.000000 
#    z 0.000000 0.000000 1.743880 
# 
# From -- ./inp_files/4916.got.cif
#   From: 2010.03.12/outbox.cif.g09.slc.cpg/sg105_3_cif.got.tgz:4916.got - 2010.04.14 01:45:32.
