data_PCOD8307408
_publ_section_title
;
Structure prediction by ZEFSAII (Michael W. Deem and Ramdas Pophale) SiO2 
 PCOD8307408
Probable space group: P 42 B C
;
_chemical_formula_sum "Si O2"
_cell_formula_units_Z 56
_cell_length_a 13.758756
_cell_length_b 13.758756
_cell_length_c 13.413463
_cell_angle_alpha 90.000000
_cell_angle_beta 90.000000
_cell_angle_gamma 90.000000
_cell_volume 2539.213705
_symmetry_space_group_name_H-M "P 42 B C"
_symmetry_group_IT_number 106
_symmetry_cell_setting 'tetragonal'
loop_
_space_group_symop_operation_xyz
x,y,z
-y,x,1/2+z
-x,-y,z
y,-x,1/2+z
1/2-x,1/2+y,z
1/2+x,1/2-y,z
1/2-y,1/2-x,1/2+z
1/2+y,1/2+x,1/2+z
loop_
_atom_site_type_symbol
_atom_site_label
_atom_site_fract_x
_atom_site_fract_y
_atom_site_fract_z
Si Si1 0.000000 0.500000 0.188141
Si Si2 0.049137 0.849611 0.700137
Si Si3 0.849641 0.153075 0.373347
Si Si4 0.324953 0.632547 0.659300
Si Si5 0.817999 0.507671 0.321946
Si Si6 0.500000 0.500000 0.852240
Si Si7 0.773859 0.184837 0.569806
Si Si8 0.990522 0.323537 0.045547
O O1 0.914414 0.536609 0.260899
O O2 0.038247 0.586786 0.116775
O O3 0.064945 0.744078 0.751776
O O4 0.134500 0.864260 0.622590
O O5 0.942230 0.864097 0.648735
O O6 0.066620 0.932096 0.782443
O O7 0.891308 0.206223 0.274651
O O8 0.819281 0.223963 0.463930
O O9 0.751561 0.100500 0.335379
O O10 0.929578 0.073294 0.413858
O O11 0.278629 0.735070 0.632896
O O12 0.277122 0.556083 0.584120
O O13 0.844169 0.460524 0.430110
O O14 0.691326 0.105874 0.547216
#
# Coordination Sequence:
#
# PCOD8307408 Si02
#       8
#     4   8   8   8   8   4   8   8
#     4  12  22  40  62  82 116 160 198 236 296 362
#     4  10  20  38  60  86 121 153 192 247 297 348
#     4   9  20  38  58  87 119 149 194 243 293 354
#     4  10  22  39  57  86 120 153 197 241 292 353
#     4   9  21  39  58  84 118 149 189 246 287 337
#     4   8  16  34  60  82 114 152 188 244 298 344
#     4  11  22  37  60  86 117 157 195 242 295 351
#     4  11  23  39  62  86 114 156 199 240 297 361
#
# _framework density 22.054069999999999
#
# number of rings (size 3 to 8) (size 9 to 14) (size 15 to 20)
#    0.000    2.286    0.000    4.714    0.000    6.286 
#    0.000    5.714    0.000    0.000    0.000    0.000 
#    0.000    0.000    0.000    0.000    0.000    0.000 
#
# Total GULP energy -693743.065357 kJ/mol
# GULP energy per Si atom -12388.269024 kJ/mol
# Density = 2.200387 g / cm^3
# Si number density = 22.054070 Si / 1000 Ang^3
#
#
#
# Elastic Constant Matrix: (Units=GPa)
#
#
# Indices 1 2 3 4 5 6 
#
# 1 79.1706 7.6782 13.7184 0.0000 0.0000 0.0000
# 2 7.6782 79.1706 13.7184 0.0000 0.0000 0.0000
# 3 13.7184 13.7184 90.8293 0.0000 0.0000 0.0000
# 4 0.0000 0.0000 0.0000 20.0880 0.0000 0.0000
# 5 0.0000 0.0000 0.0000 0.0000 20.0880 0.0000
# 6 0.0000 0.0000 0.0000 0.0000 0.0000 20.4167
#
#
#
# Elastic Compliance Matrix: (Units=1/GPa)
#
#
# Indices 1 2 3 4 5 6 
#
# 1 0.013039 -0.000948 -0.001826 0.000000 0.000000 0.000000
# 2 -0.000948 0.013039 -0.001826 0.000000 0.000000 0.000000
# 3 -0.001826 -0.001826 0.011561 0.000000 0.000000 0.000000
# 4 0.000000 0.000000 0.000000 0.049781 0.000000 0.000000
# 5 0.000000 0.000000 0.000000 0.000000 0.049781 0.000000
# 6 0.000000 0.000000 0.000000 0.000000 0.000000 0.048979
#
#
# Mechanical properties :
#
#
# Convention : Reuss Voigt Hill
#
# Bulk Modulus (GPa) = 35.16310 35.48894 35.32602
# Shear Modulus (GPa) = 24.40667 26.38892 25.39779
#
# Velocity S-wave (km/s) = 3.33028 3.46288 3.39723
# Velocity P-wave (km/s) = 5.54674 5.66705 5.60722
#
# Compressibility (1/GPa) = 0.02843890
#
# Stress axis : x y z
#
# Youngs Moduli (GPa) = 76.69102 76.69102 86.49549
#
# Poissons Ratio (x) = 0.07272 0.15796
# Poissons Ratio (y) = 0.07272 0.15796
# Poissons Ratio (z) = 0.14005 0.14005
#
# Static dielectric constant tensor:
#      x y z
#    x 3.818070 0.000000 0.000000 
#    y 0.000000 3.818070 0.000000 
#    z 0.000000 0.000000 4.311630 
# 
# 
# High freq. dielectric constant tensor:
#      x y z
#    x 1.852960 0.000000 0.000000 
#    y 0.000000 1.852960 0.000000 
#    z 0.000000 0.000000 1.876740 
# 
# From -- ./inp_files/1348.got.cif
#   From: 2010.03.12/outbox.cif.g09.slc.cpg/sg106_cif.got.tgz:1348.got - 2010.04.14 01:48:02.
