data_PCOD8307365
_publ_section_title
;
Structure prediction by ZEFSAII (Michael W. Deem and Ramdas Pophale) SiO2 
 PCOD8307365
Probable space group: P 42 M C
;
_chemical_formula_sum "Si O2"
_cell_formula_units_Z 64
_cell_length_a 18.117993
_cell_length_b 18.117993
_cell_length_c 13.181275
_cell_angle_alpha 90.000000
_cell_angle_beta 90.000000
_cell_angle_gamma 90.000000
_cell_volume 4326.907349
_symmetry_space_group_name_H-M "P 42 M C"
_symmetry_group_IT_number 105
_symmetry_cell_setting 'tetragonal'
loop_
_space_group_symop_operation_xyz
x,y,z
-y,x,1/2+z
-x,-y,z
y,-x,1/2+z
-x,y,z
x,-y,z
-y,-x,1/2+z
y,x,1/2+z
loop_
_atom_site_type_symbol
_atom_site_label
_atom_site_fract_x
_atom_site_fract_y
_atom_site_fract_z
Si Si1 0.331634 0.415542 0.074320
Si Si2 0.412005 0.083796 0.348822
Si Si3 0.584798 0.655064 0.909443
Si Si4 0.916379 0.411924 0.251622
Si Si5 0.177698 0.413725 0.437407
Si Si6 0.165091 0.587868 0.050892
Si Si7 0.181726 0.587620 0.664077
Si Si8 0.656469 0.414392 0.734169
O O1 0.337121 0.500000 0.040566
O O2 0.249542 0.384583 0.054632
O O3 0.357197 0.405201 0.190469
O O4 0.394976 0.364094 0.024933
O O5 0.500000 0.085724 0.350259
O O6 0.381841 0.126266 0.448647
O O7 0.382129 0.122258 0.245703
O O8 0.382605 0.000000 0.351030
O O9 0.500000 0.634774 0.887293
O O10 0.600696 0.741148 0.892657
O O11 0.642977 0.601226 0.852738
O O12 0.911963 0.500000 0.252164
O O13 0.878514 0.379990 0.354327
O O14 0.876646 0.381109 0.150470
O O15 0.000000 0.383509 0.250311
O O16 0.163256 0.500000 0.448530
O O17 0.166457 0.379351 0.550860
O O18 0.162723 0.500000 0.052880
O O19 0.177775 0.500000 0.659995
O O20 0.262137 0.611507 0.702879
O O21 0.641949 0.500000 0.708518
#
# Coordination Sequence:
#
# PCOD8307365 Si02
#       8
#     8   8   8   8   8   8   8   8
#     4  11  21  31  43  57  74 103 141 175 219 265
#     4   9  16  26  43  63  80  99 121 151 200 260
#     4  11  21  32  43  56  75 103 139 183 228 260
#     4   9  16  26  43  63  80  99 121 151 200 260
#     4   9  17  30  43  56  78 103 127 162 210 258
#     4   9  17  29  41  59  83 100 123 163 208 254
#     4   9  17  30  43  56  78 103 127 162 210 258
#     4  11  21  32  43  56  75 103 139 183 228 260
#
# _framework density 14.791164999999999
#
# number of rings (size 3 to 8) (size 9 to 14) (size 15 to 20)
#    0.000    2.250    1.250    3.000    0.000    8.250 
#    0.000    2.500    0.000    0.000    0.000    0.000 
#    0.000    0.000    0.000    0.000    0.000    0.000 
#
# Total GULP energy -793173.032431 kJ/mol
# GULP energy per Si atom -12393.328632 kJ/mol
# Density = 1.475750 g / cm^3
# Si number density = 14.791165 Si / 1000 Ang^3
#
#
#
# Elastic Constant Matrix: (Units=GPa)
#
#
# Indices 1 2 3 4 5 6 
#
# 1 56.3672 26.4196 34.2036 0.0000 0.0000 0.0000
# 2 26.4196 56.3672 34.2036 0.0000 0.0000 0.0000
# 3 34.2036 34.2036 102.6891 0.0000 0.0000 0.0000
# 4 0.0000 0.0000 0.0000 21.8456 0.0000 0.0000
# 5 0.0000 0.0000 0.0000 0.0000 21.8456 0.0000
# 6 0.0000 0.0000 0.0000 0.0000 0.0000 1.2422
#
#
#
# Elastic Compliance Matrix: (Units=1/GPa)
#
#
# Indices 1 2 3 4 5 6 
#
# 1 0.025029 -0.008363 -0.005551 0.000000 0.000000 0.000000
# 2 -0.008363 0.025029 -0.005551 0.000000 0.000000 0.000000
# 3 -0.005551 -0.005551 0.013436 0.000000 0.000000 0.000000
# 4 0.000000 0.000000 0.000000 0.045776 0.000000 0.000000
# 5 0.000000 0.000000 0.000000 0.000000 0.045776 0.000000
# 6 0.000000 0.000000 0.000000 0.000000 0.000000 0.805021
#
#
# Mechanical properties :
#
#
# Convention : Reuss Voigt Hill
#
# Bulk Modulus (GPa) = 40.71029 45.00855 42.85942
# Shear Modulus (GPa) = 4.96433 17.02647 10.99540
#
# Velocity S-wave (km/s) = 1.83400 3.39650 2.72945
# Velocity P-wave (km/s) = 5.66285 6.77326 6.24279
#
# Compressibility (1/GPa) = 0.02456381
#
# Stress axis : x y z
#
# Youngs Moduli (GPa) = 39.95375 39.95375 74.42650
#
# Poissons Ratio (x) = 0.33412 0.41315
# Poissons Ratio (y) = 0.33412 0.41315
# Poissons Ratio (z) = 0.22179 0.22179
#
# Static dielectric constant tensor:
#      x y z
#    x 2.566780 0.000000 0.000000 
#    y 0.000000 2.566780 0.000000 
#    z 0.000000 0.000000 3.202870 
# 
# 
# High freq. dielectric constant tensor:
#      x y z
#    x 1.519510 0.000000 0.000000 
#    y 0.000000 1.519510 0.000000 
#    z 0.000000 0.000000 1.596960 
# 
# From -- ./inp_files/2041.got.cif
#   From: 2010.03.12/outbox.cif.g09.slc.cpg/sg105_2_cif.got.tgz:2041.got - 2010.04.14 01:45:32.
