data_PCOD8307211
_publ_section_title
;
Structure prediction by ZEFSAII (Michael W. Deem and Ramdas Pophale) SiO2 
 PCOD8307211
Probable space group: P 42 M C
;
_chemical_formula_sum "Si O2"
_cell_formula_units_Z 48
_cell_length_a 9.283797
_cell_length_b 9.283797
_cell_length_c 30.966791
_cell_angle_alpha 90.000000
_cell_angle_beta 90.000000
_cell_angle_gamma 90.000000
_cell_volume 2668.993242
_symmetry_space_group_name_H-M "P 42 M C"
_symmetry_group_IT_number 105
_symmetry_cell_setting 'tetragonal'
loop_
_space_group_symop_operation_xyz
x,y,z
-y,x,1/2+z
-x,-y,z
y,-x,1/2+z
-x,y,z
x,-y,z
-y,-x,1/2+z
y,x,1/2+z
loop_
_atom_site_type_symbol
_atom_site_label
_atom_site_fract_x
_atom_site_fract_y
_atom_site_fract_z
Si Si1 0.670118 0.166071 0.575220
Si Si2 0.829053 0.340580 0.405305
Si Si3 0.662907 0.671326 0.158465
Si Si4 0.667211 0.832092 0.002204
Si Si5 0.838738 0.828412 0.825626
Si Si6 0.668303 0.832901 0.741955
O O1 0.500000 0.183972 0.570880
O O2 0.729773 0.251752 0.616826
O O3 0.740808 0.230926 0.532766
O O4 0.714628 0.000000 0.580269
O O5 0.766488 0.500000 0.396311
O O6 0.786464 0.290046 0.453418
O O7 0.765409 0.232839 0.369320
O O8 0.000000 0.347135 0.401864
O O9 0.500000 0.731305 0.157411
O O10 0.664385 0.500000 0.158216
O O11 0.742416 0.727237 0.201400
O O12 0.500000 0.796053 0.011125
O O13 0.696915 0.000000 0.009979
O O14 0.750387 0.775044 0.784098
O O15 0.000000 0.767142 0.822648
O O16 0.838301 0.000000 0.827160
O O17 0.500000 0.807440 0.749962
O O18 0.701188 0.000000 0.732667
#
# Coordination Sequence:
#
# PCOD8307211 Si02
#       6
#     8   8   8   8   8   8
#     4  10  20  33  50  73 100 129 162 200 243 292
#     4   8  14  26  44  66  93 124 157 193 232 275
#     4   9  17  30  49  70  90 117 156 198 236 278
#     4   9  18  32  50  73 100 129 163 203 245 289
#     4   9  16  25  40  65  94 121 150 186 229 276
#     4   9  16  27  45  67  89 113 144 185 231 277
#
# _framework density 17.984310000000001
#
# number of rings (size 3 to 8) (size 9 to 14) (size 15 to 20)
#    0.000    3.000    0.000    2.500    0.000    6.000 
#    0.000    2.500    0.000    4.500    0.000    2.333 
#    0.000    0.000    0.000    0.000    0.000    0.000 
#
# Total GULP energy -595095.811457 kJ/mol
# GULP energy per Si atom -12397.829405 kJ/mol
# Density = 1.794338 g / cm^3
# Si number density = 17.984310 Si / 1000 Ang^3
#
#
#
# Elastic Constant Matrix: (Units=GPa)
#
#
# Indices 1 2 3 4 5 6 
#
# 1 72.6905 35.8835 67.5845 0.0000 0.0000 0.0000
# 2 35.8835 72.6905 67.5845 0.0000 0.0000 0.0000
# 3 67.5845 67.5845 181.2922 0.0000 0.0000 0.0000
# 4 0.0000 0.0000 0.0000 28.2298 0.0000 0.0000
# 5 0.0000 0.0000 0.0000 0.0000 28.2298 0.0000
# 6 0.0000 0.0000 0.0000 0.0000 0.0000 16.8006
#
#
#
# Elastic Compliance Matrix: (Units=1/GPa)
#
#
# Indices 1 2 3 4 5 6 
#
# 1 0.022178 -0.004991 -0.006407 0.000000 0.000000 0.000000
# 2 -0.004991 0.022178 -0.006407 0.000000 0.000000 0.000000
# 3 -0.006407 -0.006407 0.010293 0.000000 0.000000 0.000000
# 4 0.000000 0.000000 0.000000 0.035424 0.000000 0.000000
# 5 0.000000 0.000000 0.000000 0.000000 0.035424 0.000000
# 6 0.000000 0.000000 0.000000 0.000000 0.000000 0.059522
#
#
# Mechanical properties :
#
#
# Convention : Reuss Voigt Hill
#
# Bulk Modulus (GPa) = 52.52592 74.30868 63.41730
# Shear Modulus (GPa) = 22.02893 25.02674 23.52784
#
# Velocity S-wave (km/s) = 3.50365 3.73445 3.62089
# Velocity P-wave (km/s) = 6.75554 7.74617 7.26775
#
# Compressibility (1/GPa) = 0.01903822
#
# Stress axis : x y z
#
# Youngs Moduli (GPa) = 45.09007 45.09007 97.15286
#
# Poissons Ratio (x) = 0.22504 0.62247
# Poissons Ratio (y) = 0.22504 0.62247
# Poissons Ratio (z) = 0.28890 0.28890
#
# Static dielectric constant tensor:
#      x y z
#    x 3.127610 0.000000 0.000000 
#    y 0.000000 3.127610 0.000000 
#    z 0.000000 0.000000 3.562410 
# 
# 
# High freq. dielectric constant tensor:
#      x y z
#    x 1.666420 0.000000 0.000000 
#    y 0.000000 1.666420 0.000000 
#    z 0.000000 0.000000 1.713850 
# 
# From -- ./inp_files/4715.got.cif
#   From: 2010.03.12/outbox.cif.g09.slc.cpg/sg105_3_cif.got.tgz:4715.got - 2010.04.14 01:45:32.
