data_PCOD8307491
_publ_section_title
;
Structure prediction by ZEFSAII (Michael W. Deem and Ramdas Pophale) SiO2 
 PCOD8307491
Probable space group: I 4 M M
;
_chemical_formula_sum "Si O2"
_cell_formula_units_Z 128
_cell_length_a 18.822923
_cell_length_b 18.822923
_cell_length_c 22.244413
_cell_angle_alpha 90.000000
_cell_angle_beta 90.000000
_cell_angle_gamma 90.000000
_cell_volume 7881.249586
_symmetry_space_group_name_H-M "I 4 M M"
_symmetry_group_IT_number 107
_symmetry_cell_setting 'tetragonal'
loop_
_space_group_symop_operation_xyz
x,y,z
-y,x,z
-x,-y,z
y,-x,z
-x,y,z
x,-y,z
-y,-x,z
y,x,z
1/2+x,1/2+y,1/2+z
1/2-y,1/2+x,1/2+z
1/2-x,1/2-y,1/2+z
1/2+y,1/2-x,1/2+z
1/2-x,1/2+y,1/2+z
1/2+x,1/2-y,1/2+z
1/2-y,1/2-x,1/2+z
1/2+y,1/2+x,1/2+z
loop_
_atom_site_type_symbol
_atom_site_label
_atom_site_fract_x
_atom_site_fract_y
_atom_site_fract_z
Si Si1 0.416790 0.202716 0.854610
Si Si2 0.657001 0.917495 0.529253
Si Si3 0.200593 0.917456 0.466680
Si Si4 0.581044 0.303342 0.481409
Si Si5 0.306535 0.417922 0.616243
Si Si6 0.582400 0.210975 0.722212
Si Si7 0.080097 0.419145 0.649478
Si Si8 0.156667 0.581692 0.424676
O O1 0.500000 0.181760 0.852544
O O2 0.404220 0.267615 0.900221
O O3 0.387745 0.226941 0.788948
O O4 0.372604 0.132935 0.872823
O O5 0.738454 0.894860 0.514767
O O6 0.636859 0.899964 0.597562
O O7 0.599568 0.879976 0.487573
O O8 0.649476 0.000000 0.514352
O O9 0.131544 0.868457 0.476572
O O10 0.178029 0.000000 0.474766
O O11 0.500000 0.330655 0.477916
O O12 0.631629 0.368372 0.463590
O O13 0.596795 0.274846 0.549473
O O14 0.594468 0.240694 0.433821
O O15 0.317054 0.500000 0.628418
O O16 0.383968 0.383968 0.621168
O O17 0.256882 0.383037 0.668097
O O18 0.500000 0.229135 0.722918
O O19 0.596666 0.128430 0.707162
O O20 0.092740 0.500000 0.625760
O O21 0.000000 0.408296 0.671330
O O22 0.140881 0.500000 0.407452
#
# Coordination Sequence:
#
# PCOD8307491 Si02
#       8
#    16  16  16  16  16  16  16  16
#     4   9  19  32  44  60  85 119 151 177 212 254
#     4   9  17  28  42  63  90 117 141 168 211 261
#     4   9  18  32  48  65  84 108 141 180 222 265
#     4   9  18  31  46  66  89 112 141 176 216 259
#     4   9  17  29  45  63  84 110 138 172 211 250
#     4   9  17  30  44  59  84 116 148 178 207 242
#     4   9  16  26  43  65  87 114 146 175 200 234
#     4  10  18  27  42  64  88 114 146 181 211 245
#
# _framework density 16.24108
#
# number of rings (size 3 to 8) (size 9 to 14) (size 15 to 20)
#    0.000    2.875    0.000    2.250    0.000    6.875 
#    0.000    3.125    0.000    0.000    0.000    3.500 
#    0.000    0.000    0.000    0.000    0.000   11.000 
#
# Total GULP energy -793168.195014 kJ/mol
# GULP energy per Si atom -12393.253047 kJ/mol
# Density = 1.620411 g / cm^3
# Si number density = 16.241080 Si / 1000 Ang^3
#
#
#
# Elastic Constant Matrix: (Units=GPa)
#
#
# Indices 1 2 3 4 5 6 
#
# 1 59.2996 37.3769 20.9979 0.0000 0.0000 0.0004
# 2 37.3769 59.2997 20.9979 0.0000 0.0000 -0.0004
# 3 20.9979 20.9979 48.7948 0.0000 0.0000 0.0000
# 4 0.0000 0.0000 0.0000 16.6813 0.0000 0.0000
# 5 0.0000 0.0000 0.0000 0.0000 16.6813 0.0000
# 6 0.0004 -0.0004 0.0000 0.0000 0.0000 26.3823
#
#
#
# Elastic Compliance Matrix: (Units=1/GPa)
#
#
# Indices 1 2 3 4 5 6 
#
# 1 0.029168 -0.016446 -0.005475 0.000000 0.000000 -0.000001
# 2 -0.016446 0.029168 -0.005475 0.000000 0.000000 0.000001
# 3 -0.005475 -0.005475 0.025206 0.000000 0.000000 0.000000
# 4 0.000000 0.000000 0.000000 0.059947 0.000000 0.000000
# 5 0.000000 0.000000 0.000000 0.000000 0.059947 0.000000
# 6 -0.000001 0.000001 0.000000 0.000000 0.000000 0.037904
#
#
# Mechanical properties :
#
#
# Convention : Reuss Voigt Hill
#
# Bulk Modulus (GPa) = 34.78125 36.23771 35.50948
# Shear Modulus (GPa) = 16.35502 17.81708 17.08605
#
# Velocity S-wave (km/s) = 3.17679 3.31575 3.24702
# Velocity P-wave (km/s) = 5.90916 6.08439 5.99741
#
# Compressibility (1/GPa) = 0.02875112
#
# Stress axis : x y z
#
# Youngs Moduli (GPa) = 34.28373 34.28373 39.67343
#
# Poissons Ratio (x) = 0.56385 0.21720
# Poissons Ratio (y) = 0.56385 0.21720
# Poissons Ratio (z) = 0.18769 0.18769
#
# Static dielectric constant tensor:
#      x y z
#    x 2.981130 0.000000 0.000000 
#    y 0.000000 2.981130 0.000000 
#    z 0.000000 0.000000 3.158310 
# 
# 
# High freq. dielectric constant tensor:
#      x y z
#    x 1.611860 0.000000 0.000000 
#    y 0.000000 1.611860 0.000000 
#    z 0.000000 0.000000 1.609750 
# 
# From -- ./inp_files/5476.got.cif
#   From: 2010.03.12/outbox.cif.g09.slc.cpg/sg107_3_cif.got.tgz:5476.got - 2010.04.14 01:49:11.
