data_PCOD8307104
_publ_section_title
;
Structure prediction by ZEFSAII (Michael W. Deem and Ramdas Pophale) SiO2 
 PCOD8307104
Probable space group: P 42 M C
;
_chemical_formula_sum "Si O2"
_cell_formula_units_Z 56
_cell_length_a 24.926411
_cell_length_b 24.926411
_cell_length_c 5.022443
_cell_angle_alpha 90.000000
_cell_angle_beta 90.000000
_cell_angle_gamma 90.000000
_cell_volume 3120.574245
_symmetry_space_group_name_H-M "P 42 M C"
_symmetry_group_IT_number 105
_symmetry_cell_setting 'tetragonal'
loop_
_space_group_symop_operation_xyz
x,y,z
-y,x,1/2+z
-x,-y,z
y,-x,1/2+z
-x,y,z
x,-y,z
-y,-x,1/2+z
y,x,1/2+z
loop_
_atom_site_type_symbol
_atom_site_label
_atom_site_fract_x
_atom_site_fract_y
_atom_site_fract_z
Si Si1 0.823247 0.386116 0.022350
Si Si2 0.773521 0.725546 0.029973
Si Si3 0.227132 0.888641 0.607588
Si Si4 0.275692 0.940003 0.107786
Si Si5 0.176045 0.500000 0.135092
Si Si6 0.500000 0.106593 0.135718
Si Si7 0.062332 0.888180 0.060792
Si Si8 0.104533 0.386728 0.521633
O O1 0.873792 0.382640 0.221799
O O2 0.783298 0.337369 0.080913
O O3 0.793003 0.443954 0.067320
O O4 0.845085 0.380990 0.722412
O O5 0.747211 0.731137 0.742010
O O6 0.826903 0.761503 0.046538
O O7 0.244583 0.900263 0.910279
O O8 0.164765 0.901219 0.571842
O O9 0.262271 0.924844 0.409880
O O10 0.255685 0.000000 0.050831
O O11 0.339612 0.937734 0.069302
O O12 0.123106 0.500000 0.945172
O O13 0.159577 0.500000 0.444949
O O14 0.555452 0.075032 0.070002
O O15 0.070243 0.918114 0.782699
O O16 0.000000 0.872979 0.097362
#
# Coordination Sequence:
#
# PCOD8307104 Si02
#       8
#     8   8   8   8   4   4   8   8
#     4  10  18  33  51  74 104 135 178 210 254 295
#     4  12  22  34  54  80 109 139 168 208 255 304
#     4  12  24  42  57  80 106 137 166 201 252 315
#     4  12  22  35  56  77 101 135 174 213 256 303
#     4   8  16  28  50  72  95 136 176 217 240 292
#     4   8  16  26  49  68  98 128 170 212 258 289
#     4  12  26  45  66  86 106 128 160 203 255 319
#     4  10  17  33  48  74  98 134 170 216 253 300
#
# _framework density 17.945415000000001
#
# number of rings (size 3 to 8) (size 9 to 14) (size 15 to 20)
#    0.000    1.143    2.857    5.143    0.000    0.857 
#    0.000    0.357    0.000    0.000    0.000    8.000 
#    0.000    0.000    0.000    0.000    0.000    2.143 
#
# Total GULP energy -694335.157509 kJ/mol
# GULP energy per Si atom -12398.842098 kJ/mol
# Density = 1.790457 g / cm^3
# Si number density = 17.945415 Si / 1000 Ang^3
#
#
#
# Elastic Constant Matrix: (Units=GPa)
#
#
# Indices 1 2 3 4 5 6 
#
# 1 79.8546 20.5024 12.5912 0.0000 0.0000 0.0000
# 2 20.5024 79.8546 12.5912 0.0000 0.0000 0.0000
# 3 12.5912 12.5912 73.0313 0.0000 0.0000 0.0000
# 4 0.0000 0.0000 0.0000 23.2568 0.0000 0.0000
# 5 0.0000 0.0000 0.0000 0.0000 23.2568 0.0000
# 6 0.0000 0.0000 0.0000 0.0000 0.0000 11.6089
#
#
#
# Elastic Compliance Matrix: (Units=1/GPa)
#
#
# Indices 1 2 3 4 5 6 
#
# 1 0.013632 -0.003217 -0.001796 0.000000 0.000000 0.000000
# 2 -0.003217 0.013632 -0.001796 0.000000 0.000000 0.000000
# 3 -0.001796 -0.001796 0.014312 0.000000 0.000000 0.000000
# 4 0.000000 0.000000 0.000000 0.042998 0.000000 0.000000
# 5 0.000000 0.000000 0.000000 0.000000 0.042998 0.000000
# 6 0.000000 0.000000 0.000000 0.000000 0.000000 0.086141
#
#
# Mechanical properties :
#
#
# Convention : Reuss Voigt Hill
#
# Bulk Modulus (GPa) = 35.76614 36.01222 35.88918
# Shear Modulus (GPa) = 21.12837 24.09487 22.61162
#
# Velocity S-wave (km/s) = 3.43500 3.66823 3.55353
# Velocity P-wave (km/s) = 5.97546 6.16866 6.07283
#
# Compressibility (1/GPa) = 0.02795941
#
# Stress axis : x y z
#
# Youngs Moduli (GPa) = 73.35800 73.35800 69.87179
#
# Poissons Ratio (x) = 0.23598 0.12546
# Poissons Ratio (y) = 0.23598 0.12546
# Poissons Ratio (z) = 0.13172 0.13172
#
# Static dielectric constant tensor:
#      x y z
#    x 3.302000 0.000000 0.000000 
#    y 0.000000 3.302000 0.000000 
#    z 0.000000 0.000000 3.553910 
# 
# 
# High freq. dielectric constant tensor:
#      x y z
#    x 1.668160 0.000000 0.000000 
#    y 0.000000 1.668160 0.000000 
#    z 0.000000 0.000000 1.723250 
# 
# From -- ./inp_files/340.got.cif
#   From: 2010.03.12/outbox.cif.g09.slc.cpg/sg105_1_cif.got.tgz:340.got - 2010.04.14 01:45:32.
