data_PCOD8307653
_publ_section_title
;
Structure prediction by ZEFSAII (Michael W. Deem and Ramdas Pophale) SiO2 
 PCOD8307653
Probable space group: I 4 M M
;
_chemical_formula_sum "Si O2"
_cell_formula_units_Z 96
_cell_length_a 19.989339
_cell_length_b 19.989339
_cell_length_c 12.341787
_cell_angle_alpha 90.000000
_cell_angle_beta 90.000000
_cell_angle_gamma 90.000000
_cell_volume 4931.453171
_symmetry_space_group_name_H-M "I 4 M M"
_symmetry_group_IT_number 107
_symmetry_cell_setting 'tetragonal'
loop_
_space_group_symop_operation_xyz
x,y,z
-y,x,z
-x,-y,z
y,-x,z
-x,y,z
x,-y,z
-y,-x,z
y,x,z
1/2+x,1/2+y,1/2+z
1/2-y,1/2+x,1/2+z
1/2-x,1/2-y,1/2+z
1/2+y,1/2-x,1/2+z
1/2-x,1/2+y,1/2+z
1/2+x,1/2-y,1/2+z
1/2-y,1/2-x,1/2+z
1/2+y,1/2+x,1/2+z
loop_
_atom_site_type_symbol
_atom_site_label
_atom_site_fract_x
_atom_site_fract_y
_atom_site_fract_z
Si Si1 0.598195 0.192450 0.267130
Si Si2 0.000000 0.423060 0.774781
Si Si3 0.072444 0.180273 0.906165
Si Si4 0.573956 0.000000 0.520893
Si Si5 0.613759 0.168610 0.029645
Si Si6 0.240632 0.648949 0.821388
Si Si7 0.576152 0.766646 0.605386
O O1 0.565272 0.121752 0.307105
O O2 0.567926 0.254430 0.330850
O O3 0.584148 0.201904 0.138894
O O4 0.676799 0.193084 0.289611
O O5 0.000000 0.500000 0.823549
O O6 0.000000 0.432224 0.648135
O O7 0.129544 0.129544 0.867100
O O8 0.000000 0.144681 0.896931
O O9 0.084038 0.200904 0.031419
O O10 0.613378 0.935360 0.478906
O O11 0.500000 0.000000 0.468619
O O12 0.681788 0.129790 0.057314
O O13 0.620814 0.227982 0.942206
O O14 0.306124 0.693877 0.824170
O O15 0.250970 0.591530 0.730755
O O16 0.500000 0.795015 0.599242
#
# Coordination Sequence:
#
# PCOD8307653 Si02
#       7
#    16   8  16   8  16  16  16
#     4  10  20  36  57  83 117 156 197 242 297 357
#     4   9  18  36  58  83 118 158 199 233 273 345
#     4  11  22  39  63  85 115 151 198 256 319 374
#     4   9  18  34  54  79 115 156 191 231 280 335
#     4  10  21  35  57  83 117 153 199 242 287 352
#     4  11  23  37  56  83 115 155 204 248 296 351
#     4  10  22  39  60  83 117 154 199 245 304 359
#
# _framework density 19.466878999999999
#
# number of rings (size 3 to 8) (size 9 to 14) (size 15 to 20)
#    0.000    1.833    2.500    1.500    1.167    7.500 
#    1.500    0.000    0.000    0.000    0.000    0.000 
#    0.000    0.000    0.000    1.167    0.000    0.000 
#
# Total GULP energy -594844.524421 kJ/mol
# GULP energy per Si atom -12392.594259 kJ/mol
# Density = 1.942257 g / cm^3
# Si number density = 19.466879 Si / 1000 Ang^3
#
#
#
# Elastic Constant Matrix: (Units=GPa)
#
#
# Indices 1 2 3 4 5 6 
#
# 1 86.2340 48.5489 37.2763 0.0000 0.0000 -0.0011
# 2 48.5489 86.2340 37.2763 0.0000 0.0000 0.0011
# 3 37.2763 37.2763 127.5052 0.0000 0.0000 0.0000
# 4 0.0000 0.0000 0.0000 59.4131 0.0000 0.0000
# 5 0.0000 0.0000 0.0000 0.0000 59.4131 0.0000
# 6 -0.0011 0.0011 0.0000 0.0000 0.0000 35.2473
#
#
#
# Elastic Compliance Matrix: (Units=1/GPa)
#
#
# Indices 1 2 3 4 5 6 
#
# 1 0.017693 -0.008843 -0.002587 0.000000 0.000000 0.000001
# 2 -0.008843 0.017693 -0.002587 0.000000 0.000000 -0.000001
# 3 -0.002587 -0.002587 0.009356 0.000000 0.000000 0.000000
# 4 0.000000 0.000000 0.000000 0.016831 0.000000 0.000000
# 5 0.000000 0.000000 0.000000 0.000000 0.016831 0.000000
# 6 0.000001 -0.000001 0.000000 0.000000 0.000000 0.028371
#
#
# Mechanical properties :
#
#
# Convention : Reuss Voigt Hill
#
# Bulk Modulus (GPa) = 59.85537 60.68625 60.27081
# Shear Modulus (GPa) = 35.61774 42.60614 39.11194
#
# Velocity S-wave (km/s) = 4.28209 4.68337 4.48722
# Velocity P-wave (km/s) = 7.43387 7.77735 7.60755
#
# Compressibility (1/GPa) = 0.01670694
#
# Stress axis : x y z
#
# Youngs Moduli (GPa) = 56.51916 56.51916 106.88649
#
# Poissons Ratio (x) = 0.49977 0.27657
# Poissons Ratio (y) = 0.49977 0.27657
# Poissons Ratio (z) = 0.14624 0.14624
#
# Static dielectric constant tensor:
#      x y z
#    x 3.330520 0.000000 0.000000 
#    y 0.000000 3.330520 0.000000 
#    z 0.000000 0.000000 3.882530 
# 
# 
# High freq. dielectric constant tensor:
#      x y z
#    x 1.734480 0.000000 0.000000 
#    y 0.000000 1.734480 0.000000 
#    z 0.000000 0.000000 1.780880 
# 
# From -- ./inp_files/2495.got.cif
#   From: 2010.03.12/outbox.cif.g09.slc.cpg/sg107_2_cif.got.tgz:2495.got - 2010.04.14 01:49:11.
