data_PCOD8307657
_publ_section_title
;
Structure prediction by ZEFSAII (Michael W. Deem and Ramdas Pophale) SiO2 
 PCOD8307657
Probable space group: I 4 M M
;
_chemical_formula_sum "Si O2"
_cell_formula_units_Z 92
_cell_length_a 23.623220
_cell_length_b 23.623220
_cell_length_c 9.609266
_cell_angle_alpha 90.000000
_cell_angle_beta 90.000000
_cell_angle_gamma 90.000000
_cell_volume 5362.513574
_symmetry_space_group_name_H-M "I 4 M M"
_symmetry_group_IT_number 107
_symmetry_cell_setting 'tetragonal'
loop_
_space_group_symop_operation_xyz
x,y,z
-y,x,z
-x,-y,z
y,-x,z
-x,y,z
x,-y,z
-y,-x,z
y,x,z
1/2+x,1/2+y,1/2+z
1/2-y,1/2+x,1/2+z
1/2-x,1/2-y,1/2+z
1/2+y,1/2-x,1/2+z
1/2-x,1/2+y,1/2+z
1/2+x,1/2-y,1/2+z
1/2-y,1/2-x,1/2+z
1/2+y,1/2+x,1/2+z
loop_
_atom_site_type_symbol
_atom_site_label
_atom_site_fract_x
_atom_site_fract_y
_atom_site_fract_z
Si Si1 0.564624 0.245739 0.154780
Si Si2 0.206699 0.435398 0.453689
Si Si3 0.500000 0.915158 0.988312
Si Si4 0.564895 0.242007 0.754137
Si Si5 0.064792 0.842091 0.450778
Si Si6 0.656966 0.891233 0.459695
Si Si7 0.500000 0.000000 0.738040
O O1 0.500000 0.227043 0.117005
O O2 0.573478 0.246663 0.320391
O O3 0.574928 0.308651 0.095596
O O4 0.610277 0.203283 0.084185
O O5 0.180442 0.500000 0.453434
O O6 0.246023 0.427184 0.588635
O O7 0.160508 0.386170 0.454168
O O8 0.444655 0.879437 0.994298
O O9 0.500000 0.947122 0.841246
O O10 0.500000 0.947385 0.134823
O O11 0.500000 0.228660 0.795810
O O12 0.582689 0.301487 0.822237
O O13 0.602996 0.190430 0.813450
O O14 0.102150 0.897851 0.447818
O O15 0.000000 0.861710 0.435962
#
# Coordination Sequence:
#
# PCOD8307657 Si02
#       7
#    16  16   8  16  16  16   4
#     4   9  18  34  49  71  99 135 175 210 253 305
#     4  10  21  29  48  71  96 135 184 227 260 297
#     4  11  24  34  42  58  94 136 179 232 286 338
#     4   9  18  34  49  71  99 135 175 210 253 305
#     4   9  18  35  61  85 109 131 151 187 240 304
#     4  11  19  30  48  65  95 131 182 230 266 303
#     4  10  28  34  36  58 100 138 176 230 312 334
#
# _framework density 17.156133000000001
#
# number of rings (size 3 to 8) (size 9 to 14) (size 15 to 20)
#    0.000    2.261    1.739    2.087    7.304    0.174 
#    0.000    0.870    0.000   16.696    0.000    0.000 
#    0.000    6.957    0.000    0.000    0.000    0.000 
#
# Total GULP energy -570024.191941 kJ/mol
# GULP energy per Si atom -12391.830260 kJ/mol
# Density = 1.711709 g / cm^3
# Si number density = 17.156133 Si / 1000 Ang^3
#
#
#
# Elastic Constant Matrix: (Units=GPa)
#
#
# Indices 1 2 3 4 5 6 
#
# 1 74.0314 47.9784 27.0826 0.0000 0.0000 0.0011
# 2 47.9784 74.0314 27.0826 0.0000 0.0000 -0.0011
# 3 27.0826 27.0826 128.7885 0.0000 0.0000 0.0000
# 4 0.0000 0.0000 0.0000 13.1693 0.0000 0.0000
# 5 0.0000 0.0000 0.0000 0.0000 13.1693 0.0000
# 6 0.0011 -0.0011 0.0000 0.0000 0.0000 28.1028
#
#
#
# Elastic Compliance Matrix: (Units=1/GPa)
#
#
# Indices 1 2 3 4 5 6 
#
# 1 0.023712 -0.014672 -0.001901 0.000000 0.000000 -0.000002
# 2 -0.014672 0.023712 -0.001901 0.000000 0.000000 0.000002
# 3 -0.001901 -0.001901 0.008564 0.000000 0.000000 0.000000
# 4 0.000000 0.000000 0.000000 0.075934 0.000000 0.000000
# 5 0.000000 0.000000 0.000000 0.000000 0.075934 0.000000
# 6 -0.000002 0.000002 0.000000 0.000000 0.000000 0.035584
#
#
# Mechanical properties :
#
#
# Convention : Reuss Voigt Hill
#
# Bulk Modulus (GPa) = 52.52051 53.45983 52.99017
# Shear Modulus (GPa) = 17.43780 22.53547 19.98663
#
# Velocity S-wave (km/s) = 3.19159 3.62823 3.41689
# Velocity P-wave (km/s) = 6.65292 6.98430 6.82062
#
# Compressibility (1/GPa) = 0.01904018
#
# Stress axis : x y z
#
# Youngs Moduli (GPa) = 42.17339 42.17339 116.76537
#
# Poissons Ratio (x) = 0.61875 0.22197
# Poissons Ratio (y) = 0.61875 0.22197
# Poissons Ratio (z) = 0.08017 0.08017
#
# Static dielectric constant tensor:
#      x y z
#    x 2.909580 0.000000 0.000000 
#    y 0.000000 2.909580 0.000000 
#    z 0.000000 0.000000 3.445040 
# 
# 
# High freq. dielectric constant tensor:
#      x y z
#    x 1.633370 0.000000 0.000000 
#    y 0.000000 1.633370 0.000000 
#    z 0.000000 0.000000 1.678190 
# 
# From -- ./inp_files/1537.got.cif
#   From: 2010.03.12/outbox.cif.g09.slc.cpg/sg107_1_cif.got.tgz:1537.got - 2010.04.14 01:49:11.
