data_PCOD8307645
_publ_section_title
;
Structure prediction by ZEFSAII (Michael W. Deem and Ramdas Pophale) SiO2 
 PCOD8307645
Probable space group: I 4 M M
;
_chemical_formula_sum "Si O2"
_cell_formula_units_Z 128
_cell_length_a 23.768524
_cell_length_b 23.768524
_cell_length_c 12.000474
_cell_angle_alpha 90.000000
_cell_angle_beta 90.000000
_cell_angle_gamma 90.000000
_cell_volume 6779.580581
_symmetry_space_group_name_H-M "I 4 M M"
_symmetry_group_IT_number 107
_symmetry_cell_setting 'tetragonal'
loop_
_space_group_symop_operation_xyz
x,y,z
-y,x,z
-x,-y,z
y,-x,z
-x,y,z
x,-y,z
-y,-x,z
y,x,z
1/2+x,1/2+y,1/2+z
1/2-y,1/2+x,1/2+z
1/2-x,1/2-y,1/2+z
1/2+y,1/2-x,1/2+z
1/2-x,1/2+y,1/2+z
1/2+x,1/2-y,1/2+z
1/2-y,1/2-x,1/2+z
1/2+y,1/2+x,1/2+z
loop_
_atom_site_type_symbol
_atom_site_label
_atom_site_fract_x
_atom_site_fract_y
_atom_site_fract_z
Si Si1 0.601845 0.773091 0.452110
Si Si2 0.561578 0.349185 0.448086
Si Si3 0.651206 0.564095 0.711985
Si Si4 0.065312 0.302732 0.643267
Si Si5 0.763002 0.325461 0.256305
Si Si6 0.235331 0.627080 0.708499
Si Si7 0.380184 0.060891 0.838490
Si Si8 0.331361 0.063352 0.392238
O O1 0.574748 0.714335 0.412874
O O2 0.661626 0.777380 0.386672
O O3 0.607732 0.777625 0.583826
O O4 0.562351 0.823742 0.413365
O O5 0.500000 0.365970 0.401446
O O6 0.607885 0.392116 0.398359
O O7 0.560929 0.352912 0.580462
O O8 0.657571 0.500000 0.760717
O O9 0.594184 0.594184 0.758413
O O10 0.702732 0.605715 0.744491
O O11 0.114469 0.261942 0.690535
O O12 0.072003 0.361731 0.709771
O O13 0.080839 0.311217 0.514595
O O14 0.000000 0.280519 0.657013
O O15 0.701027 0.298974 0.244503
O O16 0.806410 0.277475 0.212841
O O17 0.193011 0.601393 0.796247
O O18 0.427942 0.101987 0.883938
O O19 0.407857 0.000000 0.849939
O O20 0.314469 0.000000 0.366406
#
# Coordination Sequence:
#
# PCOD8307645 Si02
#       8
#    16  16  16  16  16  16  16  16
#     4  10  20  36  53  76 110 140 183 227 279 334
#     4   9  17  29  47  72 103 137 171 211 257 313
#     4   9  18  32  49  72 103 138 174 212 258 313
#     4   9  20  40  57  77 114 152 188 233 283 334
#     4  11  22  35  58  85 110 144 188 235 285 338
#     4  11  21  36  53  81 113 144 179 228 281 342
#     4  10  20  35  56  77 103 142 187 234 283 331
#     4  11  22  37  57  79 110 150 190 232 282 341
#
# _framework density 18.880223999999998
#
# number of rings (size 3 to 8) (size 9 to 14) (size 15 to 20)
#    0.000    2.000    2.500    2.250    0.000    4.000 
#    0.000    1.875    0.000    2.250    0.000    0.000 
#    0.000    0.250    0.000    0.000    0.000   12.250 
#
# Total GULP energy -792925.726058 kJ/mol
# GULP energy per Si atom -12389.464470 kJ/mol
# Density = 1.883725 g / cm^3
# Si number density = 18.880224 Si / 1000 Ang^3
#
#
#
# Elastic Constant Matrix: (Units=GPa)
#
#
# Indices 1 2 3 4 5 6 
#
# 1 71.2491 37.9550 26.9284 0.0000 0.0000 -0.0003
# 2 37.9550 71.2491 26.9284 0.0000 0.0000 0.0003
# 3 26.9284 26.9284 89.9971 0.0000 0.0000 0.0000
# 4 0.0000 0.0000 0.0000 13.1829 0.0000 0.0000
# 5 0.0000 0.0000 0.0000 0.0000 13.1829 0.0000
# 6 -0.0003 0.0003 0.0000 0.0000 0.0000 21.4498
#
#
#
# Elastic Compliance Matrix: (Units=1/GPa)
#
#
# Indices 1 2 3 4 5 6 
#
# 1 0.020389 -0.009647 -0.003214 0.000000 0.000000 0.000000
# 2 -0.009647 0.020389 -0.003214 0.000000 0.000000 0.000000
# 3 -0.003214 -0.003214 0.013035 0.000000 0.000000 0.000000
# 4 0.000000 0.000000 0.000000 0.075856 0.000000 0.000000
# 5 0.000000 0.000000 0.000000 0.000000 0.075856 0.000000
# 6 0.000000 0.000000 0.000000 0.000000 0.000000 0.046621
#
#
# Mechanical properties :
#
#
# Convention : Reuss Voigt Hill
#
# Bulk Modulus (GPa) = 46.16242 46.23543 46.19892
# Shear Modulus (GPa) = 17.15172 18.94202 18.04687
#
# Velocity S-wave (km/s) = 3.01732 3.17088 3.09505
# Velocity P-wave (km/s) = 6.05328 6.16019 6.10697
#
# Compressibility (1/GPa) = 0.02166264
#
# Stress axis : x y z
#
# Youngs Moduli (GPa) = 49.04634 49.04634 76.71675
#
# Poissons Ratio (x) = 0.47313 0.24659
# Poissons Ratio (y) = 0.47313 0.24659
# Poissons Ratio (z) = 0.15765 0.15765
#
# Static dielectric constant tensor:
#      x y z
#    x 3.619170 0.000000 0.000000 
#    y 0.000000 3.619170 0.000000 
#    z 0.000000 0.000000 3.341250 
# 
# 
# High freq. dielectric constant tensor:
#      x y z
#    x 1.730070 0.000000 0.000000 
#    y 0.000000 1.730070 0.000000 
#    z 0.000000 0.000000 1.709550 
# 
# From -- ./inp_files/2665.got.cif
#   From: 2010.03.12/outbox.cif.g09.slc.cpg/sg107_2_cif.got.tgz:2665.got - 2010.04.14 01:49:11.
