data_PCOD8307105
_publ_section_title
;
Structure prediction by ZEFSAII (Michael W. Deem and Ramdas Pophale) SiO2 
 PCOD8307105
Probable space group: P 42 M C
;
_chemical_formula_sum "Si O2"
_cell_formula_units_Z 64
_cell_length_a 22.869034
_cell_length_b 22.869034
_cell_length_c 10.352849
_cell_angle_alpha 90.000000
_cell_angle_beta 90.000000
_cell_angle_gamma 90.000000
_cell_volume 5414.464618
_symmetry_space_group_name_H-M "P 42 M C"
_symmetry_group_IT_number 105
_symmetry_cell_setting 'tetragonal'
loop_
_space_group_symop_operation_xyz
x,y,z
-y,x,1/2+z
-x,-y,z
y,-x,1/2+z
-x,y,z
x,-y,z
-y,-x,1/2+z
y,x,1/2+z
loop_
_atom_site_type_symbol
_atom_site_label
_atom_site_fract_x
_atom_site_fract_y
_atom_site_fract_z
Si Si1 0.184524 0.569136 0.726420
Si Si2 0.569582 0.063654 0.323987
Si Si3 0.430952 0.740639 0.470295
Si Si4 0.569838 0.248984 0.968531
Si Si5 0.377105 0.615983 0.457928
Si Si6 0.817136 0.568783 0.217260
Si Si7 0.063561 0.569583 0.116461
Si Si8 0.566427 0.432581 0.706539
O O1 0.181220 0.500000 0.733449
O O2 0.118254 0.594513 0.740681
O O3 0.225830 0.590651 0.842561
O O4 0.211335 0.589636 0.591636
O O5 0.500000 0.065227 0.322987
O O6 0.592228 0.071196 0.470287
O O7 0.590777 0.000000 0.269497
O O8 0.500000 0.725450 0.465135
O O9 0.393069 0.682585 0.485981
O O10 0.414592 0.780081 0.592082
O O11 0.500000 0.261078 0.965587
O O12 0.605572 0.308632 0.972952
O O13 0.593423 0.213387 0.845121
O O14 0.409101 0.575398 0.562708
O O15 0.395567 0.601218 0.312046
O O16 0.821410 0.500000 0.232238
O O17 0.883076 0.594801 0.202793
O O18 0.066808 0.500000 0.115202
O O19 0.000000 0.589962 0.171393
O O20 0.500000 0.410633 0.708253
O O21 0.571855 0.500000 0.745217
#
# Coordination Sequence:
#
# PCOD8307105 Si02
#       8
#     8   8   8   8   8   8   8   8
#     4   9  16  27  39  54  71  89 107 128 160 197
#     4   8  12  20  37  58  74  87 105 126 146 178
#     4  10  18  28  43  55  65  83 112 145 173 209
#     4  10  20  30  39  49  69  91 108 135 173 211
#     4  12  22  33  44  56  68  86 114 142 178 224
#     4   9  16  27  39  54  71  89 107 128 160 197
#     4   8  12  20  37  58  74  87 105 126 146 178
#     4  11  22  34  46  56  66  78 100 142 192 234
#
# _framework density 11.820188999999999
#
# number of rings (size 3 to 8) (size 9 to 14) (size 15 to 20)
#    0.000    2.375    1.250    4.500    0.000    3.000 
#    0.000    0.625    0.000    3.750    0.000    0.000 
#    0.000    0.000    0.000    0.000    0.000    0.000 
#
# Total GULP energy -793231.020805 kJ/mol
# GULP energy per Si atom -12394.234700 kJ/mol
# Density = 1.179329 g / cm^3
# Si number density = 11.820189 Si / 1000 Ang^3
#
#
#
# Elastic Constant Matrix: (Units=GPa)
#
#
# Indices 1 2 3 4 5 6 
#
# 1 57.0876 29.7341 20.4407 0.0000 0.0000 0.0000
# 2 29.7341 57.0876 20.4407 0.0000 0.0000 0.0000
# 3 20.4407 20.4407 59.4682 0.0000 0.0000 0.0000
# 4 0.0000 0.0000 0.0000 8.6712 0.0000 0.0000
# 5 0.0000 0.0000 0.0000 0.0000 8.6712 0.0000
# 6 0.0000 0.0000 0.0000 0.0000 0.0000 3.3483
#
#
#
# Elastic Compliance Matrix: (Units=1/GPa)
#
#
# Indices 1 2 3 4 5 6 
#
# 1 0.025150 -0.011408 -0.004723 0.000000 0.000000 0.000000
# 2 -0.011408 0.025150 -0.004723 0.000000 0.000000 0.000000
# 3 -0.004723 -0.004723 0.020063 0.000000 0.000000 0.000000
# 4 0.000000 0.000000 0.000000 0.115325 0.000000 0.000000
# 5 0.000000 0.000000 0.000000 0.000000 0.115325 0.000000
# 6 0.000000 0.000000 0.000000 0.000000 0.000000 0.298662
#
#
# Mechanical properties :
#
#
# Convention : Reuss Voigt Hill
#
# Bulk Modulus (GPa) = 34.90037 34.98601 34.94319
# Shear Modulus (GPa) = 7.68125 11.00665 9.34395
#
# Velocity S-wave (km/s) = 2.55196 3.05483 2.81465
# Velocity P-wave (km/s) = 6.18656 6.48887 6.33952
#
# Compressibility (1/GPa) = 0.02865299
#
# Stress axis : x y z
#
# Youngs Moduli (GPa) = 39.76114 39.76114 49.84342
#
# Poissons Ratio (x) = 0.45360 0.23543
# Poissons Ratio (y) = 0.45360 0.23543
# Poissons Ratio (z) = 0.18781 0.18781
#
# Static dielectric constant tensor:
#      x y z
#    x 2.399970 0.000000 0.000000 
#    y 0.000000 2.399970 0.000000 
#    z 0.000000 0.000000 2.757510 
# 
# 
# High freq. dielectric constant tensor:
#      x y z
#    x 1.413530 0.000000 0.000000 
#    y 0.000000 1.413530 0.000000 
#    z 0.000000 0.000000 1.457430 
# 
# From -- ./inp_files/2088.got.cif
#   From: 2010.03.12/outbox.cif.g09.slc.cpg/sg105_2_cif.got.tgz:2088.got - 2010.04.14 01:45:32.
