data_PCOD8307977
_publ_section_title
;
Structure prediction by ZEFSAII (Michael W. Deem and Ramdas Pophale) SiO2 
 PCOD8307977
Probable space group: I 41 M D
;
_chemical_formula_sum "Si O2"
_cell_formula_units_Z 80
_cell_length_a 11.464179
_cell_length_b 11.464179
_cell_length_c 30.566665
_cell_angle_alpha 90.000000
_cell_angle_beta 90.000000
_cell_angle_gamma 90.000000
_cell_volume 4017.297312
_symmetry_space_group_name_H-M "I 41 M D"
_symmetry_group_IT_number 109
_symmetry_cell_setting 'tetragonal'
loop_
_space_group_symop_operation_xyz
x,y,z
-y,1/2+x,1/4+z
-x,-y,z
y,1/2-x,1/4+z
-x,y,z
x,-y,z
-y,1/2-x,1/4+z
y,1/2+x,1/4+z
1/2+x,1/2+y,1/2+z
1/2-y,x,3/4+z
1/2-x,1/2-y,1/2+z
1/2+y,-x,3/4+z
1/2-x,1/2+y,1/2+z
1/2+x,1/2-y,1/2+z
1/2-y,-x,3/4+z
1/2+y,x,3/4+z
loop_
_atom_site_type_symbol
_atom_site_label
_atom_site_fract_x
_atom_site_fract_y
_atom_site_fract_z
Si Si1 0.362426 0.000000 0.003430
Si Si2 0.000000 0.130955 0.014450
Si Si3 0.367567 0.000000 0.867351
Si Si4 0.862307 0.633657 0.808403
Si Si5 0.239851 0.771390 0.982398
Si Si6 0.363010 0.000000 0.102136
Si Si7 0.750386 0.771972 0.135447
O O1 0.500000 0.000000 0.003413
O O2 0.310820 0.000000 0.052907
O O3 0.316309 0.112034 0.978159
O O4 0.000000 0.120374 0.065861
O O5 0.111554 0.203067 0.999589
O O6 0.000000 0.000000 0.993981
O O7 0.293806 0.111748 0.882127
O O8 0.500000 0.000000 0.887400
O O9 0.814753 0.500000 0.810928
O O10 0.816955 0.694332 0.764468
O O11 0.822841 0.706999 0.850560
O O12 0.000000 0.634466 0.806843
O O13 0.228079 0.717490 0.933973
O O14 0.319337 0.889690 0.128088
O O15 0.500000 0.000000 0.099692
#
# Coordination Sequence:
#
# PCOD8307977 Si02
#       7
#     8   8   8  16  16   8  16
#     4  11  21  39  67 100 138 169 210 271 339 389
#     4  11  22  43  66  94 135 177 214 260 331 391
#     4  11  21  40  66  99 135 171 204 263 337 389
#     4  11  26  48  68  90 130 178 221 270 327 389
#     4  12  25  42  67 100 131 172 218 273 325 390
#     4  11  22  40  69  97 130 171 216 276 335 389
#     4  12  25  41  67 101 133 168 219 272 327 391
#
# _framework density 19.913886000000002
#
# number of rings (size 3 to 8) (size 9 to 14) (size 15 to 20)
#    0.000    0.600    6.000    1.800    4.200    2.400 
#    0.000    2.000    0.000    0.000    0.000    0.000 
#    0.000    0.000    0.000    0.000    0.000    0.000 
#
# Total GULP energy -496163.160076 kJ/mol
# GULP energy per Si atom -12404.079002 kJ/mol
# Density = 1.986856 g / cm^3
# Si number density = 19.913886 Si / 1000 Ang^3
#
#
#
# Elastic Constant Matrix: (Units=GPa)
#
#
# Indices 1 2 3 4 5 6 
#
# 1 103.7909 40.4247 37.7704 0.0000 0.0000 0.0000
# 2 40.4247 103.7909 37.7703 0.0000 0.0000 0.0000
# 3 37.7704 37.7703 145.6058 0.0000 0.0000 0.0000
# 4 0.0000 0.0000 0.0000 27.4245 0.0000 0.0000
# 5 0.0000 0.0000 0.0000 0.0000 27.4245 0.0000
# 6 0.0000 0.0000 0.0000 0.0000 0.0000 32.6052
#
#
#
# Elastic Compliance Matrix: (Units=1/GPa)
#
#
# Indices 1 2 3 4 5 6 
#
# 1 0.011903 -0.003878 -0.002082 0.000000 0.000000 0.000000
# 2 -0.003878 0.011903 -0.002082 0.000000 0.000000 0.000000
# 3 -0.002082 -0.002082 0.007948 0.000000 0.000000 0.000000
# 4 0.000000 0.000000 0.000000 0.036464 0.000000 0.000000
# 5 0.000000 0.000000 0.000000 0.000000 0.036464 0.000000
# 6 0.000000 0.000000 0.000000 0.000000 0.000000 0.030670
#
#
# Mechanical properties :
#
#
# Convention : Reuss Voigt Hill
#
# Bulk Modulus (GPa) = 63.81464 65.01314 64.41389
# Shear Modulus (GPa) = 31.91680 33.30566 32.61123
#
# Velocity S-wave (km/s) = 4.00777 4.09404 4.05113
# Velocity P-wave (km/s) = 7.31650 7.42066 7.36876
#
# Compressibility (1/GPa) = 0.01567038
#
# Stress axis : x y z
#
# Youngs Moduli (GPa) = 84.01362 84.01361 125.82152
#
# Poissons Ratio (x) = 0.32584 0.26190
# Poissons Ratio (y) = 0.32584 0.26190
# Poissons Ratio (z) = 0.17488 0.17488
#
# Static dielectric constant tensor:
#      x y z
#    x 3.691810 0.000000 0.000000 
#    y 0.000000 3.691810 0.000000 
#    z 0.000000 0.000000 3.862570 
# 
# 
# High freq. dielectric constant tensor:
#      x y z
#    x 1.779360 0.000000 0.000000 
#    y 0.000000 1.779360 0.000000 
#    z 0.000000 0.000000 1.787810 
# 
# From -- ./inp_files/5526.got.cif
#   From: 2010.03.12/outbox.cif.g09.slc.cpg/sg109_3_cif.got.tgz:5526.got - 2010.04.14 01:55:16.
