data_PCOD8307661
_publ_section_title
;
Structure prediction by ZEFSAII (Michael W. Deem and Ramdas Pophale) SiO2 
 PCOD8307661
Probable space group: I 4 M M
;
_chemical_formula_sum "Si O2"
_cell_formula_units_Z 128
_cell_length_a 19.162019
_cell_length_b 19.162019
_cell_length_c 20.225571
_cell_angle_alpha 90.000000
_cell_angle_beta 90.000000
_cell_angle_gamma 90.000000
_cell_volume 7426.485273
_symmetry_space_group_name_H-M "I 4 M M"
_symmetry_group_IT_number 107
_symmetry_cell_setting 'tetragonal'
loop_
_space_group_symop_operation_xyz
x,y,z
-y,x,z
-x,-y,z
y,-x,z
-x,y,z
x,-y,z
-y,-x,z
y,x,z
1/2+x,1/2+y,1/2+z
1/2-y,1/2+x,1/2+z
1/2-x,1/2-y,1/2+z
1/2+y,1/2-x,1/2+z
1/2-x,1/2+y,1/2+z
1/2+x,1/2-y,1/2+z
1/2-y,1/2-x,1/2+z
1/2+y,1/2+x,1/2+z
loop_
_atom_site_type_symbol
_atom_site_label
_atom_site_fract_x
_atom_site_fract_y
_atom_site_fract_z
Si Si1 0.578383 0.309946 0.346130
Si Si2 0.158236 0.580548 0.547079
Si Si3 0.308873 0.579362 0.743937
Si Si4 0.344562 0.081135 0.812178
Si Si5 0.081135 0.344563 0.433176
Si Si6 0.421617 0.690055 0.899224
Si Si7 0.841764 0.419452 0.698276
Si Si8 0.920638 0.808872 0.001417
O O1 0.500000 0.335590 0.330330
O O2 0.631019 0.368982 0.319983
O O3 0.595262 0.238056 0.309042
O O4 0.587257 0.296495 0.423683
O O5 0.150955 0.500000 0.525979
O O6 0.105989 0.625068 0.502743
O O7 0.136299 0.592620 0.622677
O O8 0.238233 0.604090 0.537109
O O9 0.328066 0.500000 0.724607
O O10 0.371940 0.628061 0.719171
O O11 0.296496 0.587256 0.821671
O O12 0.238234 0.604090 0.708245
O O13 0.377264 0.122734 0.872678
O O14 0.374931 0.105990 0.742611
O O15 0.361071 0.000000 0.822934
O O16 0.095263 0.261945 0.436311
O O17 0.000000 0.361071 0.422418
O O18 0.500000 0.664412 0.915025
O O19 0.368982 0.631019 0.925370
O O20 0.849045 0.500000 0.719376
O O21 0.871939 0.871939 0.026183
O O22 0.000000 0.828064 0.020747
#
# Coordination Sequence:
#
# PCOD8307661 Si02
#       8
#    16  16  16  16  16  16  16  16
#     4   9  18  32  52  78 105 133 166 205 250 299
#     4  10  21  36  51  70 101 138 172 208 253 302
#     4   9  17  31  50  73 102 134 169 208 250 298
#     4  11  21  34  53  77 102 130 169 212 252 297
#     4  11  21  34  53  77 102 130 169 212 252 297
#     4   9  18  32  52  78 105 133 166 205 250 299
#     4  10  21  36  51  70 101 138 172 208 253 302
#     4   9  17  31  50  73 102 134 169 208 250 298
#
# _framework density 17.235610000000001
#
# number of rings (size 3 to 8) (size 9 to 14) (size 15 to 20)
#    0.000    2.250    2.500    0.750    0.000    4.750 
#    0.000    3.750    0.000    0.000    0.000    3.500 
#    0.000    0.000    0.000    5.500    0.000    0.250 
#
# Total GULP energy -793752.555817 kJ/mol
# GULP energy per Si atom -12402.383685 kJ/mol
# Density = 1.719638 g / cm^3
# Si number density = 17.235610 Si / 1000 Ang^3
#
#
#
# Elastic Constant Matrix: (Units=GPa)
#
#
# Indices 1 2 3 4 5 6 
#
# 1 95.1263 76.3110 35.9712 0.0000 0.0000 -0.0002
# 2 76.3110 95.1263 35.9712 0.0000 0.0000 0.0002
# 3 35.9712 35.9712 58.7604 0.0000 0.0000 0.0000
# 4 0.0000 0.0000 0.0000 19.9480 0.0000 0.0000
# 5 0.0000 0.0000 0.0000 0.0000 19.9480 0.0000
# 6 -0.0002 0.0002 0.0000 0.0000 0.0000 35.6019
#
#
#
# Elastic Compliance Matrix: (Units=1/GPa)
#
#
# Indices 1 2 3 4 5 6 
#
# 1 0.030499 -0.022649 -0.004805 0.000000 0.000000 0.000000
# 2 -0.022649 0.030499 -0.004805 0.000000 0.000000 0.000000
# 3 -0.004805 -0.004805 0.022901 0.000000 0.000000 0.000000
# 4 0.000000 0.000000 0.000000 0.050130 0.000000 0.000000
# 5 0.000000 0.000000 0.000000 0.000000 0.050130 0.000000
# 6 0.000000 0.000000 0.000000 0.000000 0.000000 0.028088
#
#
# Mechanical properties :
#
#
# Convention : Reuss Voigt Hill
#
# Bulk Modulus (GPa) = 51.60058 60.61330 56.10694
# Shear Modulus (GPa) = 17.65362 21.81687 19.73525
#
# Velocity S-wave (km/s) = 3.20387 3.56167 3.38750
# Velocity P-wave (km/s) = 6.60982 7.22204 6.92270
#
# Compressibility (1/GPa) = 0.01937963
#
# Stress axis : x y z
#
# Youngs Moduli (GPa) = 32.78807 32.78807 43.66534
#
# Poissons Ratio (x) = 0.74263 0.20982
# Poissons Ratio (y) = 0.74263 0.20982
# Poissons Ratio (z) = 0.15755 0.15755
#
# Static dielectric constant tensor:
#      x y z
#    x 3.287910 0.000000 0.000000 
#    y 0.000000 3.287910 0.000000 
#    z 0.000000 0.000000 3.020060 
# 
# 
# High freq. dielectric constant tensor:
#      x y z
#    x 1.666850 0.000000 0.000000 
#    y 0.000000 1.666850 0.000000 
#    z 0.000000 0.000000 1.640930 
# 
# From -- ./inp_files/5504.got.cif
#   From: 2010.03.12/outbox.cif.g09.slc.cpg/sg107_3_cif.got.tgz:5504.got - 2010.04.14 01:49:11.
