data_PCOD8307042
_publ_section_title
;
Structure prediction by ZEFSAII (Michael W. Deem and Ramdas Pophale) SiO2 
 PCOD8307042
Probable space group: P 4 N C 
;
_chemical_formula_sum "Si O2"
_cell_formula_units_Z 40
_cell_length_a 10.470527
_cell_length_b 10.470527
_cell_length_c 17.698941
_cell_angle_alpha 90.000000
_cell_angle_beta 90.000000
_cell_angle_gamma 90.000000
_cell_volume 1940.369161
_symmetry_space_group_name_H-M "P 4 N C "
_symmetry_group_IT_number 104
_symmetry_cell_setting 'tetragonal'
loop_
_space_group_symop_operation_xyz
x,y,z
-y,x,z
-x,-y,z
y,-x,z
1/2-x,1/2+y,1/2+z
1/2+x,1/2-y,1/2+z
1/2-y,1/2-x,1/2+z
1/2+y,1/2+x,1/2+z
loop_
_atom_site_type_symbol
_atom_site_label
_atom_site_fract_x
_atom_site_fract_y
_atom_site_fract_z
Si Si1 0.206465 0.722855 0.802540
Si Si2 0.926202 0.194668 0.661004
Si Si3 0.963713 0.647741 0.355917
Si Si4 0.922901 0.189229 0.943310
Si Si5 0.132949 0.550430 0.018701
O O1 0.143699 0.710785 0.719404
O O2 0.333604 0.808920 0.814490
O O3 0.238682 0.577168 0.825490
O O4 0.092857 0.778956 0.854767
O O5 0.936172 0.253281 0.577795
O O6 0.071964 0.161394 0.675495
O O7 0.956620 0.665422 0.447512
O O8 0.000000 0.500000 0.337918
O O9 0.069067 0.164301 0.963389
O O10 0.877739 0.305398 0.992501
O O11 0.000000 0.500000 0.055862
#
# Coordination Sequence:
#
# PCOD8307042 Si02
#       5
#     8   8   8   8   8
#     4  11  22  41  66  94 132 170 227 275 339 409
#     4  11  25  40  61  94 128 170 218 275 341 404
#     4  10  22  40  67  97 129 179 228 280 336 410
#     4  10  20  37  66  94 121 164 220 275 317 394
#     4  10  23  39  62  93 131 172 216 270 343 400
#
# _framework density 20.614633999999999
#
# number of rings (size 3 to 8) (size 9 to 14) (size 15 to 20)
#    0.000    1.600    0.000    6.000    8.400    4.400 
#    0.000    0.000    0.000    0.000    0.000    0.000 
#    0.000    0.000    0.000    0.000    0.000    0.000 
#
# Total GULP energy -495568.845639 kJ/mol
# GULP energy per Si atom -12389.221141 kJ/mol
# Density = 2.056771 g / cm^3
# Si number density = 20.614634 Si / 1000 Ang^3
#
#
#
# Elastic Constant Matrix: (Units=GPa)
#
#
# Indices 1 2 3 4 5 6 
#
# 1 158.9819 -38.8282 30.2008 0.0000 0.0000 0.0000
# 2 -38.8282 158.9819 30.2008 0.0000 0.0000 0.0000
# 3 30.2008 30.2008 83.0380 0.0000 0.0000 0.0000
# 4 0.0000 0.0000 0.0000 29.6986 0.0000 0.0000
# 5 0.0000 0.0000 0.0000 0.0000 29.6986 0.0000
# 6 0.0000 0.0000 0.0000 0.0000 0.0000 41.4474
#
#
#
# Elastic Compliance Matrix: (Units=1/GPa)
#
#
# Indices 1 2 3 4 5 6 
#
# 1 0.007620 0.002565 -0.003704 0.000000 0.000000 0.000000
# 2 0.002565 0.007620 -0.003704 0.000000 0.000000 0.000000
# 3 -0.003704 -0.003704 0.014737 0.000000 0.000000 0.000000
# 4 0.000000 0.000000 0.000000 0.033672 0.000000 0.000000
# 5 0.000000 0.000000 0.000000 0.000000 0.033672 0.000000
# 6 0.000000 0.000000 0.000000 0.000000 0.000000 0.024127
#
#
# Mechanical properties :
#
#
# Convention : Reuss Voigt Hill
#
# Bulk Modulus (GPa) = 49.28562 49.34985 49.31774
# Shear Modulus (GPa) = 36.25867 45.46415 40.86141
#
# Velocity S-wave (km/s) = 4.19845 4.70130 4.45697
# Velocity P-wave (km/s) = 6.88931 7.31169 7.10364
#
# Compressibility (1/GPa) = 0.02028989
#
# Stress axis : x y z
#
# Youngs Moduli (GPa) = 131.23242 131.23242 67.85594
#
# Poissons Ratio (x) = -0.33657 0.25135
# Poissons Ratio (y) = -0.33657 0.25135
# Poissons Ratio (z) = 0.48611 0.48611
#
# Static dielectric constant tensor:
#      x y z
#    x 3.896200 0.000000 0.000000 
#    y 0.000000 3.896200 0.000000 
#    z 0.000000 0.000000 3.628670 
# 
# 
# High freq. dielectric constant tensor:
#      x y z
#    x 1.812800 0.000000 0.000000 
#    y 0.000000 1.812800 0.000000 
#    z 0.000000 0.000000 1.785170 
# 
# From -- ./inp_files/1187.got.cif
#   From: 2010.03.12/outbox.cif.g09.slc.cpg/sg104_cif.got.tgz:1187.got - 2010.04.14 01:44:05.
