data_PCOD8307567
_publ_section_title
;
Structure prediction by ZEFSAII (Michael W. Deem and Ramdas Pophale) SiO2 
 PCOD8307567
Probable space group: I 4 M M
;
_chemical_formula_sum "Si O2"
_cell_formula_units_Z 128
_cell_length_a 16.970664
_cell_length_b 16.970664
_cell_length_c 23.863568
_cell_angle_alpha 90.000000
_cell_angle_beta 90.000000
_cell_angle_gamma 90.000000
_cell_volume 6872.789594
_symmetry_space_group_name_H-M "I 4 M M"
_symmetry_group_IT_number 107
_symmetry_cell_setting 'tetragonal'
loop_
_space_group_symop_operation_xyz
x,y,z
-y,x,z
-x,-y,z
y,-x,z
-x,y,z
x,-y,z
-y,-x,z
y,x,z
1/2+x,1/2+y,1/2+z
1/2-y,1/2+x,1/2+z
1/2-x,1/2-y,1/2+z
1/2+y,1/2-x,1/2+z
1/2-x,1/2+y,1/2+z
1/2+x,1/2-y,1/2+z
1/2-y,1/2-x,1/2+z
1/2+y,1/2+x,1/2+z
loop_
_atom_site_type_symbol
_atom_site_label
_atom_site_fract_x
_atom_site_fract_y
_atom_site_fract_z
Si Si1 0.199021 0.673817 0.489570
Si Si2 0.592365 0.091545 0.577253
Si Si3 0.590168 0.713379 0.393194
Si Si4 0.207468 0.086953 0.203374
Si Si5 0.213955 0.092514 0.429027
Si Si6 0.412759 0.208187 0.816575
Si Si7 0.209465 0.409708 0.276438
Si Si8 0.668413 0.792424 0.161074
O O1 0.276959 0.723042 0.511726
O O2 0.160503 0.610296 0.531810
O O3 0.219493 0.629413 0.431704
O O4 0.129248 0.736029 0.479419
O O5 0.500000 0.103400 0.597130
O O6 0.662326 0.103306 0.623515
O O7 0.600756 0.000000 0.556262
O O8 0.500000 0.707459 0.410444
O O9 0.629580 0.629580 0.406163
O O10 0.601514 0.729001 0.326927
O O11 0.119374 0.119374 0.194870
O O12 0.225243 0.088619 0.269245
O O13 0.268271 0.139988 0.170408
O O14 0.212165 0.000000 0.177764
O O15 0.124970 0.124970 0.431474
O O16 0.253508 0.124248 0.371813
O O17 0.210506 0.000000 0.435111
O O18 0.500000 0.179846 0.831046
O O19 0.370982 0.129462 0.796306
O O20 0.191445 0.500000 0.263996
O O21 0.239180 0.369632 0.219026
O O22 0.715565 0.715565 0.135063
#
# Coordination Sequence:
#
# PCOD8307567 Si02
#       8
#    16  16  16  16  16  16  16  16
#     4  10  20  36  58  79 104 138 180 222 263 319
#     4  11  23  38  56  78 108 140 173 222 278 329
#     4  10  20  34  54  80 109 141 176 215 261 313
#     4   9  17  28  44  66  93 127 166 209 255 303
#     4  10  19  31  49  72 101 137 176 220 266 315
#     4   9  17  29  44  66  99 137 174 212 255 306
#     4  10  19  32  52  79 109 139 175 220 264 312
#     4  10  20  35  55  76 102 137 181 221 261 319
#
# _framework density 18.624168999999998
#
# number of rings (size 3 to 8) (size 9 to 14) (size 15 to 20)
#    0.000    2.125    1.250    2.625    0.000    2.125 
#    0.000    0.000    0.000    2.250    0.000    0.000 
#    0.000   19.250    0.000    0.000    0.000    0.125 
#
# Total GULP energy -792844.548924 kJ/mol
# GULP energy per Si atom -12388.196077 kJ/mol
# Density = 1.858178 g / cm^3
# Si number density = 18.624169 Si / 1000 Ang^3
#
#
#
# Elastic Constant Matrix: (Units=GPa)
#
#
# Indices 1 2 3 4 5 6 
#
# 1 100.6323 53.1238 22.3130 0.0000 0.0000 0.0000
# 2 53.1238 100.6323 22.3130 0.0000 0.0000 0.0000
# 3 22.3130 22.3130 58.8724 0.0000 0.0000 0.0000
# 4 0.0000 0.0000 0.0000 22.8644 0.0000 0.0000
# 5 0.0000 0.0000 0.0000 0.0000 22.8644 0.0000
# 6 0.0000 0.0000 0.0000 0.0000 0.0000 25.0063
#
#
#
# Elastic Compliance Matrix: (Units=1/GPa)
#
#
# Indices 1 2 3 4 5 6 
#
# 1 0.014178 -0.006871 -0.002770 0.000000 0.000000 0.000000
# 2 -0.006871 0.014178 -0.002770 0.000000 0.000000 0.000000
# 3 -0.002770 -0.002770 0.019085 0.000000 0.000000 0.000000
# 4 0.000000 0.000000 0.000000 0.043736 0.000000 0.000000
# 5 0.000000 0.000000 0.000000 0.000000 0.043736 0.000000
# 6 0.000000 0.000000 0.000000 0.000000 0.000000 0.039990
#
#
# Mechanical properties :
#
#
# Convention : Reuss Voigt Hill
#
# Bulk Modulus (GPa) = 44.20469 50.62630 47.41550
# Shear Modulus (GPa) = 24.12376 24.97283 24.54830
#
# Velocity S-wave (km/s) = 3.60292 3.66578 3.63449
# Velocity P-wave (km/s) = 6.41052 6.72007 6.56712
#
# Compressibility (1/GPa) = 0.02262203
#
# Stress axis : x y z
#
# Youngs Moduli (GPa) = 70.53052 70.53052 52.39632
#
# Poissons Ratio (x) = 0.48459 0.14512
# Poissons Ratio (y) = 0.48459 0.14512
# Poissons Ratio (z) = 0.19535 0.19535
#
# Static dielectric constant tensor:
#      x y z
#    x 3.461740 0.000000 0.000000 
#    y 0.000000 3.461740 0.000000 
#    z 0.000000 0.000000 3.352620 
# 
# 
# High freq. dielectric constant tensor:
#      x y z
#    x 1.719040 0.000000 0.000000 
#    y 0.000000 1.719040 0.000000 
#    z 0.000000 0.000000 1.709040 
# 
# From -- ./inp_files/5501.got.cif
#   From: 2010.03.12/outbox.cif.g09.slc.cpg/sg107_3_cif.got.tgz:5501.got - 2010.04.14 01:49:11.
