data_PCOD8307795
_publ_section_title
;
Structure prediction by ZEFSAII (Michael W. Deem and Ramdas Pophale) SiO2 
 PCOD8307795
Probable space group: I 4 C M
;
_chemical_formula_sum "Si O2"
_cell_formula_units_Z 112
_cell_length_a 15.994831
_cell_length_b 15.994831
_cell_length_c 24.947983
_cell_angle_alpha 90.000000
_cell_angle_beta 90.000000
_cell_angle_gamma 90.000000
_cell_volume 6382.557719
_symmetry_space_group_name_H-M "I 4 C M"
_symmetry_group_IT_number 108
_symmetry_cell_setting 'tetragonal'
loop_
_space_group_symop_operation_xyz
x,y,z
-y,x,z
-x,-y,z
y,-x,z
-x,y,1/2+z
x,-y,1/2+z
-y,-x,1/2+z
y,x,1/2+z
1/2+x,1/2+y,1/2+z
1/2-y,1/2+x,1/2+z
1/2-x,1/2-y,1/2+z
1/2+y,1/2-x,1/2+z
1/2-x,1/2+y,z
1/2+x,1/2-y,z
1/2-y,1/2-x,z
1/2+y,1/2+x,z
loop_
_atom_site_type_symbol
_atom_site_label
_atom_site_fract_x
_atom_site_fract_y
_atom_site_fract_z
Si Si1 0.384627 0.572031 0.670360
Si Si2 0.259460 0.382339 0.258489
Si Si3 0.329767 0.036373 0.912699
Si Si4 0.700463 0.664262 0.371068
Si Si5 0.382397 0.431240 0.047043
Si Si6 0.248171 0.885942 0.960421
Si Si7 0.366905 0.994333 0.794987
O O1 0.387014 0.473827 0.683344
O O2 0.316335 0.618976 0.706214
O O3 0.359411 0.584975 0.608784
O O4 0.191398 0.308603 0.254991
O O5 0.318390 0.372144 0.311599
O O6 0.213626 0.473412 0.262092
O O7 0.412124 0.087877 0.931012
O O8 0.252263 0.098550 0.906245
O O9 0.307040 0.967618 0.957387
O O10 0.346302 0.987473 0.857663
O O11 0.753430 0.746571 0.360354
O O12 0.619380 0.690626 0.406125
O O13 0.470533 0.387747 0.034013
O O14 0.310422 0.389980 0.011982
O O15 0.302747 0.802747 0.967258
O O16 0.403384 0.903384 0.775934
O O17 0.437533 0.062467 0.786381
#
# Coordination Sequence:
#
# PCOD8307795 Si02
#       7
#    16  16  16  16  16  16  16
#     4   9  19  36  54  69  89 122 163 203 242 286
#     4   9  17  30  50  75 102 128 156 197 242 281
#     4   9  17  30  46  65  96 134 165 191 226 285
#     4   8  17  31  44  67 102 133 158 188 230 277
#     4   9  19  37  56  69  86 120 166 206 239 284
#     4  11  20  29  48  76 101 125 156 198 246 288
#     4   8  14  26  44  66  95 132 164 184 217 280
#
# _framework density 17.547823999999999
#
# number of rings (size 3 to 8) (size 9 to 14) (size 15 to 20)
#    0.000    3.000    0.000    3.857    0.000    3.714 
#    0.000    2.143    0.000    4.286    0.000    2.000 
#    0.000    0.000    0.000    0.000    0.000    0.000 
#
# Total GULP energy -693977.141105 kJ/mol
# GULP energy per Si atom -12392.448948 kJ/mol
# Density = 1.750788 g / cm^3
# Si number density = 17.547824 Si / 1000 Ang^3
#
#
#
# Elastic Constant Matrix: (Units=GPa)
#
#
# Indices 1 2 3 4 5 6 
#
# 1 68.0265 31.5676 49.3103 0.0000 0.0000 0.0001
# 2 31.5676 68.0265 49.3103 0.0000 0.0000 -0.0001
# 3 49.3103 49.3103 92.1103 0.0000 0.0000 0.0000
# 4 0.0000 0.0000 0.0000 28.8194 0.0000 0.0000
# 5 0.0000 0.0000 0.0000 0.0000 28.8194 0.0000
# 6 0.0001 -0.0001 0.0000 0.0000 0.0000 20.8187
#
#
#
# Elastic Compliance Matrix: (Units=1/GPa)
#
#
# Indices 1 2 3 4 5 6 
#
# 1 0.024398 -0.003030 -0.011439 0.000000 0.000000 0.000000
# 2 -0.003030 0.024398 -0.011439 0.000000 0.000000 0.000000
# 3 -0.011439 -0.011439 0.023104 0.000000 0.000000 0.000000
# 4 0.000000 0.000000 0.000000 0.034699 0.000000 0.000000
# 5 0.000000 0.000000 0.000000 0.000000 0.034699 0.000000
# 6 0.000000 0.000000 0.000000 0.000000 0.000000 0.048034
#
#
# Mechanical properties :
#
#
# Convention : Reuss Voigt Hill
#
# Bulk Modulus (GPa) = 49.79156 54.28221 52.03688
# Shear Modulus (GPa) = 20.17400 22.22316 21.19858
#
# Velocity S-wave (km/s) = 3.39434 3.56256 3.47947
# Velocity P-wave (km/s) = 6.61804 6.92268 6.77207
#
# Compressibility (1/GPa) = 0.02008372
#
# Stress axis : x y z
#
# Youngs Moduli (GPa) = 40.98664 40.98664 43.28192
#
# Poissons Ratio (x) = 0.12419 0.49511
# Poissons Ratio (y) = 0.12419 0.49511
# Poissons Ratio (z) = 0.46886 0.46886
#
# Static dielectric constant tensor:
#      x y z
#    x 3.139780 0.000000 0.000000 
#    y 0.000000 3.139780 0.000000 
#    z 0.000000 0.000000 3.076570 
# 
# 
# High freq. dielectric constant tensor:
#      x y z
#    x 1.671360 0.000000 0.000000 
#    y 0.000000 1.671360 0.000000 
#    z 0.000000 0.000000 1.651220 
# 
# From -- ./inp_files/3220.got.cif
#   From: 2010.03.12/outbox.cif.g09.slc.cpg/sg108_2_cif.got.tgz:3220.got - 2010.04.14 01:53:11.
