data_PCOD8307358
_publ_section_title
;
Structure prediction by ZEFSAII (Michael W. Deem and Ramdas Pophale) SiO2 
 PCOD8307358
Probable space group: P 42 M C
;
_chemical_formula_sum "Si O2"
_cell_formula_units_Z 40
_cell_length_a 8.067739
_cell_length_b 8.067739
_cell_length_c 29.286879
_cell_angle_alpha 90.000000
_cell_angle_beta 90.000000
_cell_angle_gamma 90.000000
_cell_volume 1906.236463
_symmetry_space_group_name_H-M "P 42 M C"
_symmetry_group_IT_number 105
_symmetry_cell_setting 'tetragonal'
loop_
_space_group_symop_operation_xyz
x,y,z
-y,x,1/2+z
-x,-y,z
y,-x,1/2+z
-x,y,z
x,-y,z
-y,-x,1/2+z
y,x,1/2+z
loop_
_atom_site_type_symbol
_atom_site_label
_atom_site_fract_x
_atom_site_fract_y
_atom_site_fract_z
Si Si1 0.813114 0.309898 0.714370
Si Si2 0.809513 0.500000 0.158107
Si Si3 0.810179 0.185932 0.001634
Si Si4 0.194253 0.684512 0.405901
Si Si5 0.806672 0.814916 0.811791
Si Si6 0.500000 0.199087 0.556733
O O1 0.818739 0.500000 0.701104
O O2 0.670180 0.229354 0.684130
O O3 0.761213 0.291335 0.767228
O O4 0.000000 0.233212 0.705990
O O5 0.726436 0.500000 0.107994
O O6 0.000000 0.500000 0.147923
O O7 0.730491 0.331153 0.032879
O O8 0.000000 0.168306 0.015006
O O9 0.727523 0.000000 0.008362
O O10 0.796724 0.245830 0.948896
O O11 0.249417 0.500000 0.418642
O O12 0.275235 0.735185 0.357283
O O13 0.000000 0.702587 0.397600
O O14 0.000000 0.825022 0.819416
O O15 0.733303 0.000000 0.804225
O O16 0.500000 0.000000 0.553247
#
# Coordination Sequence:
#
# PCOD8307358 Si02
#       6
#     8   4   8   8   8   4
#     4  10  22  40  59  83 118 156 195 240 297 364
#     4  11  23  39  63  89 115 149 197 253 305 350
#     4   9  17  33  56  78 106 143 179 225 284 342
#     4   9  17  29  48  77 110 143 181 223 272 333
#     4   9  17  31  53  80 108 143 189 234 280 338
#     4   9  20  37  57  85 109 137 187 241 287 342
#
# _framework density 20.983756
#
# number of rings (size 3 to 8) (size 9 to 14) (size 15 to 20)
#    0.000    2.600    0.000    1.500    1.400    4.400 
#    1.800    4.500    0.000    2.400    0.000    0.000 
#    0.000    0.000    0.000    0.000    0.000    0.000 
#
# Total GULP energy -495550.827307 kJ/mol
# GULP energy per Si atom -12388.770683 kJ/mol
# Density = 2.093600 g / cm^3
# Si number density = 20.983756 Si / 1000 Ang^3
#
#
#
# Elastic Constant Matrix: (Units=GPa)
#
#
# Indices 1 2 3 4 5 6 
#
# 1 67.5421 23.5408 46.5776 0.0000 0.0000 0.0000
# 2 23.5408 67.5421 46.5776 0.0000 0.0000 0.0000
# 3 46.5776 46.5776 159.6973 0.0000 0.0000 0.0000
# 4 0.0000 0.0000 0.0000 -8.3918 0.0000 0.0000
# 5 0.0000 0.0000 0.0000 0.0000 -8.3918 0.0000
# 6 0.0000 0.0000 0.0000 0.0000 0.0000 12.0456
#
#
#
# Elastic Compliance Matrix: (Units=1/GPa)
#
#
# Indices 1 2 3 4 5 6 
#
# 1 0.019186 -0.003540 -0.004563 0.000000 0.000000 0.000000
# 2 -0.003540 0.019186 -0.004563 0.000000 0.000000 0.000000
# 3 -0.004563 -0.004563 0.008924 0.000000 0.000000 0.000000
# 4 0.000000 0.000000 0.000000 -0.119164 0.000000 0.000000
# 5 0.000000 0.000000 0.000000 0.000000 -0.119164 0.000000
# 6 0.000000 0.000000 0.000000 0.000000 0.000000 0.083018
#
#
# Mechanical properties :
#
#
# Convention : Reuss Voigt Hill
#
# Bulk Modulus (GPa) = 45.53188 58.68594 52.10891
# Shear Modulus (GPa) = -66.34987 10.92476 -27.71256
#
# Velocity S-wave (km/s) = -5.62923 2.28421 -3.63804
# Velocity P-wave (km/s) = 4.52828 5.91480 2.69068
#
# Compressibility (1/GPa) = 0.02196263
#
# Stress axis : x y z
#
# Youngs Moduli (GPa) = 52.12023 52.12023 112.06004
#
# Poissons Ratio (x) = 0.18451 0.51138
# Poissons Ratio (y) = 0.18451 0.51138
# Poissons Ratio (z) = 0.23785 0.23785
#
# Static dielectric constant tensor:
#      x y z
#    x 3.755110 0.000000 0.000000 
#    y 0.000000 3.755110 0.000000 
#    z 0.000000 0.000000 3.908040 
# 
# 
# High freq. dielectric constant tensor:
#      x y z
#    x 1.801900 0.000000 0.000000 
#    y 0.000000 1.801900 0.000000 
#    z 0.000000 0.000000 1.824220 
# 
# From -- ./inp_files/4238.got.cif
#   From: 2010.03.12/outbox.cif.g09.slc.cpg/sg105_3_cif.got.tgz:4238.got - 2010.04.14 01:45:32.
