data_PCOD8307056
_publ_section_title
;
Structure prediction by ZEFSAII (Michael W. Deem and Ramdas Pophale) SiO2 
 PCOD8307056
Probable space group: P 4 N C 
;
_chemical_formula_sum "Si O2"
_cell_formula_units_Z 48
_cell_length_a 8.537025
_cell_length_b 8.537025
_cell_length_c 32.994489
_cell_angle_alpha 90.000000
_cell_angle_beta 90.000000
_cell_angle_gamma 90.000000
_cell_volume 2404.664617
_symmetry_space_group_name_H-M "P 4 N C "
_symmetry_group_IT_number 104
_symmetry_cell_setting 'tetragonal'
loop_
_space_group_symop_operation_xyz
x,y,z
-y,x,z
-x,-y,z
y,-x,z
1/2-x,1/2+y,1/2+z
1/2+x,1/2-y,1/2+z
1/2-y,1/2-x,1/2+z
1/2+y,1/2+x,1/2+z
loop_
_atom_site_type_symbol
_atom_site_label
_atom_site_fract_x
_atom_site_fract_y
_atom_site_fract_z
Si Si1 0.244501 0.444740 0.607500
Si Si2 0.752068 0.936438 0.735409
Si Si3 0.000000 0.500000 0.541367
Si Si4 0.752204 0.930036 0.388399
Si Si5 0.063562 0.752068 0.479591
Si Si6 0.000000 0.500000 0.173633
Si Si7 0.752204 0.930036 0.826602
O O1 0.379766 0.314922 0.607500
O O2 0.134028 0.418597 0.568489
O O3 0.134028 0.418597 0.646512
O O4 0.620159 0.905929 0.702155
O O5 0.685923 0.914719 0.780915
O O6 0.888390 0.812514 0.728613
O O7 0.094071 0.620159 0.512845
O O8 0.685923 0.914719 0.434086
O O9 0.612672 0.887328 0.357500
O O10 0.894679 0.810408 0.380833
O O11 0.888390 0.812514 0.486388
O O12 0.894679 0.810408 0.834168
#
# Coordination Sequence:
#
# PCOD8307056 Si02
#       7
#     8   8   4   8   8   4   8
#     4  10  22  38  54  78 110 134 162 212 264 312
#     4   9  19  35  53  77 108 137 173 220 258 296
#     4  11  20  34  59  80  98 138 179 204 254 321
#     4   9  19  34  51  74 105 139 175 216 257 297
#     4   9  19  35  53  77 108 137 173 220 258 296
#     4  11  20  34  59  80  98 138 179 204 254 321
#     4   9  19  34  51  74 105 139 175 216 257 297
#
# _framework density 19.961203999999999
#
# number of rings (size 3 to 8) (size 9 to 14) (size 15 to 20)
#    0.000    2.500    0.000    4.000    0.000    6.000 
#    0.000    0.000    0.000   12.000    0.000    0.000 
#    0.000    0.000    0.000    0.000    0.000    0.000 
#
# Total GULP energy -595145.317959 kJ/mol
# GULP energy per Si atom -12398.860791 kJ/mol
# Density = 1.991577 g / cm^3
# Si number density = 19.961204 Si / 1000 Ang^3
#
#
#
# Elastic Constant Matrix: (Units=GPa)
#
#
# Indices 1 2 3 4 5 6 
#
# 1 -132.9772 198.4621 44.5281 0.0000 0.0000 0.0000
# 2 198.4621 -132.9772 44.5281 0.0000 0.0000 0.0000
# 3 44.5281 44.5281 148.5734 0.0000 0.0000 0.0000
# 4 0.0000 0.0000 0.0000 31.4768 0.0000 0.0000
# 5 0.0000 0.0000 0.0000 0.0000 31.4768 0.0000
# 6 0.0000 0.0000 0.0000 0.0000 0.0000 30.2352
#
#
#
# Elastic Compliance Matrix: (Units=1/GPa)
#
#
# Indices 1 2 3 4 5 6 
#
# 1 0.011380 0.014397 -0.007725 0.000000 0.000000 0.000000
# 2 0.014397 0.011380 -0.007725 0.000000 0.000000 0.000000
# 3 -0.007725 -0.007725 0.011361 0.000000 0.000000 0.000000
# 4 0.000000 0.000000 0.000000 0.031769 0.000000 0.000000
# 5 0.000000 0.000000 0.000000 0.000000 0.031769 0.000000
# 6 0.000000 0.000000 0.000000 0.000000 0.000000 0.033074
#
#
# Mechanical properties :
#
#
# Convention : Reuss Voigt Hill
#
# Bulk Modulus (GPa) = 31.23689 50.85064 41.04377
# Shear Modulus (GPa) = 34.84003 -8.35554 13.24225
#
# Velocity S-wave (km/s) = 4.18232 -2.04816 2.57845
# Velocity P-wave (km/s) = 6.24541 4.46506 5.42871
#
# Compressibility (1/GPa) = 0.03201343
#
# Stress axis : x y z
#
# Youngs Moduli (GPa) = 87.87415 87.87415 88.01732
#
# Poissons Ratio (x) = -1.26513 0.67998
# Poissons Ratio (y) = -1.26513 0.67998
# Poissons Ratio (z) = 0.67887 0.67887
#
# Static dielectric constant tensor:
#      x y z
#    x 3.426440 0.000000 0.000000 
#    y 0.000000 3.426440 0.000000 
#    z 0.000000 0.000000 3.705690 
# 
# 
# High freq. dielectric constant tensor:
#      x y z
#    x 1.767780 0.000000 0.000000 
#    y 0.000000 1.767780 0.000000 
#    z 0.000000 0.000000 1.790230 
# 
# From -- ./inp_files/1978.got.cif
#   From: 2010.03.12/outbox.cif.g09.slc.cpg/sg104_cif.got.tgz:1978.got - 2010.04.14 01:44:05.
