data_PCOD8307791
_publ_section_title
;
Structure prediction by ZEFSAII (Michael W. Deem and Ramdas Pophale) SiO2 
 PCOD8307791
Probable space group: I 4 C M
;
_chemical_formula_sum "Si O2"
_cell_formula_units_Z 64
_cell_length_a 12.695311
_cell_length_b 12.695311
_cell_length_c 18.581228
_cell_angle_alpha 90.000000
_cell_angle_beta 90.000000
_cell_angle_gamma 90.000000
_cell_volume 2994.753637
_symmetry_space_group_name_H-M "I 4 C M"
_symmetry_group_IT_number 108
_symmetry_cell_setting 'tetragonal'
loop_
_space_group_symop_operation_xyz
x,y,z
-y,x,z
-x,-y,z
y,-x,z
-x,y,1/2+z
x,-y,1/2+z
-y,-x,1/2+z
y,x,1/2+z
1/2+x,1/2+y,1/2+z
1/2-y,1/2+x,1/2+z
1/2-x,1/2-y,1/2+z
1/2+y,1/2-x,1/2+z
1/2-x,1/2+y,z
1/2+x,1/2-y,z
1/2-y,1/2-x,z
1/2+y,1/2+x,z
loop_
_atom_site_type_symbol
_atom_site_label
_atom_site_fract_x
_atom_site_fract_y
_atom_site_fract_z
Si Si1 0.438214 0.763884 0.207450
Si Si2 0.997687 0.331190 0.059695
Si Si3 0.468223 0.664539 0.946439
Si Si4 0.621473 0.711248 0.294881
O O1 0.363120 0.863120 0.217233
O O2 0.475575 0.749351 0.124416
O O3 0.546031 0.787389 0.249407
O O4 0.383422 0.659691 0.241854
O O5 0.067349 0.432652 0.071393
O O6 0.875735 0.375735 0.057900
O O7 0.035616 0.276516 0.985780
O O8 0.378528 0.582721 0.970003
O O9 0.450957 0.673953 0.861047
O O10 0.722075 0.777926 0.322877
#
# Coordination Sequence:
#
# PCOD8307791 Si02
#       4
#    16  16  16  16
#     4  10  23  41  64  96 129 168 217 274 331 394
#     4  10  23  43  66  95 131 170 218 274 334 403
#     4  11  24  42  63  93 130 171 215 267 327 394
#     4  11  22  40  67  94 126 173 218 267 334 399
#
# _framework density 21.370706999999999
#
# number of rings (size 3 to 8) (size 9 to 14) (size 15 to 20)
#    0.000    1.500    2.500    1.500    3.500    5.000 
#    0.000    0.000    0.000    0.000    0.000    0.000 
#    0.000    0.000    0.000    0.000    0.000    0.000 
#
# Total GULP energy -396440.446751 kJ/mol
# GULP energy per Si atom -12388.763961 kJ/mol
# Density = 2.132207 g / cm^3
# Si number density = 21.370707 Si / 1000 Ang^3
#
#
#
# Elastic Constant Matrix: (Units=GPa)
#
#
# Indices 1 2 3 4 5 6 
#
# 1 83.9983 27.7666 52.6559 0.0000 0.0000 -0.0003
# 2 27.7666 83.9983 52.6559 0.0000 0.0000 0.0003
# 3 52.6559 52.6559 132.2239 0.0000 0.0000 0.0000
# 4 0.0000 0.0000 0.0000 31.0584 0.0000 0.0000
# 5 0.0000 0.0000 0.0000 0.0000 31.0584 0.0000
# 6 -0.0003 0.0003 0.0000 0.0000 0.0000 15.9848
#
#
#
# Elastic Compliance Matrix: (Units=1/GPa)
#
#
# Indices 1 2 3 4 5 6 
#
# 1 0.016052 -0.001731 -0.005703 0.000000 0.000000 0.000000
# 2 -0.001731 0.016052 -0.005703 0.000000 0.000000 0.000000
# 3 -0.005703 -0.005703 0.012105 0.000000 0.000000 0.000000
# 4 0.000000 0.000000 0.000000 0.032197 0.000000 0.000000
# 5 0.000000 0.000000 0.000000 0.000000 0.032197 0.000000
# 6 0.000000 0.000000 0.000000 0.000000 0.000000 0.062559
#
#
# Mechanical properties :
#
#
# Convention : Reuss Voigt Hill
#
# Bulk Modulus (GPa) = 55.75669 62.93081 59.34375
# Shear Modulus (GPa) = 24.57993 26.76312 25.67153
#
# Velocity S-wave (km/s) = 3.39509 3.54266 3.46966
# Velocity P-wave (km/s) = 6.44327 6.80038 6.62423
#
# Compressibility (1/GPa) = 0.01793507
#
# Stress axis : x y z
#
# Youngs Moduli (GPa) = 62.29589 62.29590 82.60810
#
# Poissons Ratio (x) = 0.10784 0.47113
# Poissons Ratio (y) = 0.10784 0.47113
# Poissons Ratio (z) = 0.35529 0.35529
#
# Static dielectric constant tensor:
#      x y z
#    x 3.821240 0.000000 0.000000 
#    y 0.000000 3.821240 0.000000 
#    z 0.000000 0.000000 3.845700 
# 
# 
# High freq. dielectric constant tensor:
#      x y z
#    x 1.835010 0.000000 0.000000 
#    y 0.000000 1.835010 0.000000 
#    z 0.000000 0.000000 1.838590 
# 
# From -- ./inp_files/1782.got.cif
#   From: 2010.03.12/outbox.cif.g09.slc.cpg/sg108_1_cif.got.tgz:1782.got - 2010.04.14 01:53:11.
