data_PCOD8307335
_publ_section_title
;
Structure prediction by ZEFSAII (Michael W. Deem and Ramdas Pophale) SiO2 
 PCOD8307335
Probable space group: P 42 M C
;
_chemical_formula_sum "Si O2"
_cell_formula_units_Z 48
_cell_length_a 8.894465
_cell_length_b 8.894465
_cell_length_c 30.672715
_cell_angle_alpha 90.000000
_cell_angle_beta 90.000000
_cell_angle_gamma 90.000000
_cell_volume 2426.564727
_symmetry_space_group_name_H-M "P 42 M C"
_symmetry_group_IT_number 105
_symmetry_cell_setting 'tetragonal'
loop_
_space_group_symop_operation_xyz
x,y,z
-y,x,1/2+z
-x,-y,z
y,-x,1/2+z
-x,y,z
x,-y,z
-y,-x,1/2+z
y,x,1/2+z
loop_
_atom_site_type_symbol
_atom_site_label
_atom_site_fract_x
_atom_site_fract_y
_atom_site_fract_z
Si Si1 0.169138 0.322023 0.621000
Si Si2 0.824280 0.827191 0.952380
Si Si3 0.826003 0.673342 0.201222
Si Si4 0.324598 0.326205 0.533037
Si Si5 0.323337 0.327184 0.871323
Si Si6 0.176861 0.173011 0.790745
O O1 0.170432 0.500000 0.621907
O O2 0.272041 0.266186 0.659933
O O3 0.237190 0.265157 0.575325
O O4 0.000000 0.258496 0.625675
O O5 0.742534 0.778300 0.908519
O O6 0.000000 0.803695 0.945142
O O7 0.784073 0.000000 0.962316
O O8 0.770959 0.725040 0.992041
O O9 0.789142 0.500000 0.210356
O O10 0.775656 0.768113 0.243203
O O11 0.000000 0.699619 0.190824
O O12 0.500000 0.302645 0.541456
O O13 0.286487 0.500000 0.523446
O O14 0.500000 0.302698 0.869434
O O15 0.281755 0.500000 0.881157
O O16 0.255096 0.280479 0.825268
O O17 0.000000 0.195794 0.793643
O O18 0.222754 0.000000 0.799685
#
# Coordination Sequence:
#
# PCOD8307335 Si02
#       6
#     8   8   8   8   8   8
#     4  10  21  37  58  84 114 150 191 234 283 337
#     4  11  24  40  59  85 115 148 187 230 278 333
#     4  10  21  37  58  84 114 150 191 234 283 337
#     4  10  21  38  60  85 113 147 188 233 281 334
#     4  11  24  40  59  85 115 148 187 230 278 333
#     4  10  21  38  60  85 113 147 188 233 281 334
#
# _framework density 19.781051999999999
#
# number of rings (size 3 to 8) (size 9 to 14) (size 15 to 20)
#    0.000    1.667    0.000    4.000    0.000   12.000 
#    0.000    0.000    0.000    0.000    0.000    0.000 
#    0.000    0.000    0.000    0.000    0.000    0.000 
#
# Total GULP energy -595502.293658 kJ/mol
# GULP energy per Si atom -12406.297785 kJ/mol
# Density = 1.973603 g / cm^3
# Si number density = 19.781052 Si / 1000 Ang^3
#
#
#
# Elastic Constant Matrix: (Units=GPa)
#
#
# Indices 1 2 3 4 5 6 
#
# 1 59.1028 42.2908 28.3944 0.0000 0.0000 0.0000
# 2 42.2908 59.1028 28.3944 0.0000 0.0000 0.0000
# 3 28.3944 28.3944 101.6775 0.0000 0.0000 0.0000
# 4 0.0000 0.0000 0.0000 44.6837 0.0000 0.0000
# 5 0.0000 0.0000 0.0000 0.0000 44.6837 0.0000
# 6 0.0000 0.0000 0.0000 0.0000 0.0000 23.5440
#
#
#
# Elastic Compliance Matrix: (Units=1/GPa)
#
#
# Indices 1 2 3 4 5 6 
#
# 1 0.035586 -0.023895 -0.003265 0.000000 0.000000 0.000000
# 2 -0.023895 0.035586 -0.003265 0.000000 0.000000 0.000000
# 3 -0.003265 -0.003265 0.011659 0.000000 0.000000 0.000000
# 4 0.000000 0.000000 0.000000 0.022380 0.000000 0.000000
# 5 0.000000 0.000000 0.000000 0.000000 0.022380 0.000000
# 6 0.000000 0.000000 0.000000 0.000000 0.000000 0.042474
#
#
# Mechanical properties :
#
#
# Convention : Reuss Voigt Hill
#
# Bulk Modulus (GPa) = 45.49312 46.44915 45.97113
# Shear Modulus (GPa) = 20.98720 30.63586 25.81153
#
# Velocity S-wave (km/s) = 3.26079 3.93968 3.61621
# Velocity P-wave (km/s) = 6.10125 6.65037 6.38172
#
# Compressibility (1/GPa) = 0.02198135
#
# Stress axis : x y z
#
# Youngs Moduli (GPa) = 28.10073 28.10073 85.77427
#
# Poissons Ratio (x) = 0.67147 0.28004
# Poissons Ratio (y) = 0.67147 0.28004
# Poissons Ratio (z) = 0.09175 0.09175
#
# Static dielectric constant tensor:
#      x y z
#    x 3.672250 0.000000 0.000000 
#    y 0.000000 3.672250 0.000000 
#    z 0.000000 0.000000 3.715300 
# 
# 
# High freq. dielectric constant tensor:
#      x y z
#    x 1.776630 0.000000 0.000000 
#    y 0.000000 1.776630 0.000000 
#    z 0.000000 0.000000 1.785600 
# 
# From -- ./inp_files/4692.got.cif
#   From: 2010.03.12/outbox.cif.g09.slc.cpg/sg105_3_cif.got.tgz:4692.got - 2010.04.14 01:45:32.
