data_PCOD8307210
_publ_section_title
;
Structure prediction by ZEFSAII (Michael W. Deem and Ramdas Pophale) SiO2 
 PCOD8307210
Probable space group: P 42 M C
;
_chemical_formula_sum "Si O2"
_cell_formula_units_Z 48
_cell_length_a 9.212594
_cell_length_b 9.212594
_cell_length_c 31.222571
_cell_angle_alpha 90.000000
_cell_angle_beta 90.000000
_cell_angle_gamma 90.000000
_cell_volume 2649.918556
_symmetry_space_group_name_H-M "P 42 M C"
_symmetry_group_IT_number 105
_symmetry_cell_setting 'tetragonal'
loop_
_space_group_symop_operation_xyz
x,y,z
-y,x,1/2+z
-x,-y,z
y,-x,1/2+z
-x,y,z
x,-y,z
-y,-x,1/2+z
y,x,1/2+z
loop_
_atom_site_type_symbol
_atom_site_label
_atom_site_fract_x
_atom_site_fract_y
_atom_site_fract_z
Si Si1 0.169494 0.169869 0.983550
Si Si2 0.331498 0.329626 0.558785
Si Si3 0.161518 0.327551 0.141709
Si Si4 0.338564 0.172806 0.734844
Si Si5 0.170622 0.832707 0.816916
Si Si6 0.663919 0.827378 0.399466
O O1 0.227482 0.247796 0.940718
O O2 0.000000 0.201460 0.990948
O O3 0.201053 0.000000 0.979041
O O4 0.257137 0.233775 0.022947
O O5 0.500000 0.289295 0.550941
O O6 0.305900 0.500000 0.558104
O O7 0.276324 0.270123 0.604575
O O8 0.153242 0.500000 0.144033
O O9 0.220058 0.273806 0.188314
O O10 0.000000 0.265355 0.132083
O O11 0.500000 0.236539 0.741633
O O12 0.238785 0.231293 0.773300
O O13 0.343397 0.000000 0.735342
O O14 0.233087 0.741482 0.856841
O O15 0.000000 0.814127 0.812694
O O16 0.214071 0.000000 0.824336
O O17 0.500000 0.766857 0.401715
O O18 0.665197 0.000000 0.398355
#
# Coordination Sequence:
#
# PCOD8307210 Si02
#       6
#     8   8   8   8   8   8
#     4  10  20  34  53  75  96 122 160 203 245 291
#     4  10  20  33  50  73 100 129 160 196 242 294
#     4   8  14  27  48  70  92 123 163 201 234 275
#     4   8  14  26  45  68  93 123 159 195 231 274
#     4   9  16  27  45  69  95 121 151 191 237 281
#     4   9  17  30  49  71  94 122 157 196 237 284
#
# _framework density 18.113765999999998
#
# number of rings (size 3 to 8) (size 9 to 14) (size 15 to 20)
#    0.000    3.000    0.000    2.500    0.000    4.000 
#    0.000    2.500    0.000    7.500    0.000    0.000 
#    0.000    0.000    0.000    0.000    0.000    0.000 
#
# Total GULP energy -595021.886036 kJ/mol
# GULP energy per Si atom -12396.289292 kJ/mol
# Density = 1.807254 g / cm^3
# Si number density = 18.113766 Si / 1000 Ang^3
#
#
#
# Elastic Constant Matrix: (Units=GPa)
#
#
# Indices 1 2 3 4 5 6 
#
# 1 63.5808 36.2637 63.4738 0.0000 0.0000 0.0000
# 2 36.2637 63.5808 63.4738 0.0000 0.0000 0.0000
# 3 63.4738 63.4738 197.5242 0.0000 0.0000 0.0000
# 4 0.0000 0.0000 0.0000 10.7881 0.0000 0.0000
# 5 0.0000 0.0000 0.0000 0.0000 10.7881 0.0000
# 6 0.0000 0.0000 0.0000 0.0000 0.0000 15.4825
#
#
#
# Elastic Compliance Matrix: (Units=1/GPa)
#
#
# Indices 1 2 3 4 5 6 
#
# 1 0.026771 -0.009836 -0.005442 0.000000 0.000000 0.000000
# 2 -0.009836 0.026771 -0.005442 0.000000 0.000000 0.000000
# 3 -0.005442 -0.005442 0.008560 0.000000 0.000000 0.000000
# 4 0.000000 0.000000 0.000000 0.092695 0.000000 0.000000
# 5 0.000000 0.000000 0.000000 0.000000 0.092695 0.000000
# 6 0.000000 0.000000 0.000000 0.000000 0.000000 0.064589
#
#
# Mechanical properties :
#
#
# Convention : Reuss Voigt Hill
#
# Bulk Modulus (GPa) = 48.39819 72.34538 60.37179
# Shear Modulus (GPa) = 13.87315 18.17669 16.02492
#
# Velocity S-wave (km/s) = 2.77047 3.17120 2.97759
# Velocity P-wave (km/s) = 6.08367 7.30991 6.72480
#
# Compressibility (1/GPa) = 0.02066193
#
# Stress axis : x y z
#
# Youngs Moduli (GPa) = 37.35399 37.35399 116.82017
#
# Poissons Ratio (x) = 0.36742 0.63573
# Poissons Ratio (y) = 0.36742 0.63573
# Poissons Ratio (z) = 0.20328 0.20328
#
# Static dielectric constant tensor:
#      x y z
#    x 3.160940 0.000000 0.000000 
#    y 0.000000 3.160940 0.000000 
#    z 0.000000 0.000000 3.796760 
# 
# 
# High freq. dielectric constant tensor:
#      x y z
#    x 1.670180 0.000000 0.000000 
#    y 0.000000 1.670180 0.000000 
#    z 0.000000 0.000000 1.722930 
# 
# From -- ./inp_files/4709.got.cif
#   From: 2010.03.12/outbox.cif.g09.slc.cpg/sg105_3_cif.got.tgz:4709.got - 2010.04.14 01:45:32.
