data_PCOD8307606
_publ_section_title
;
Structure prediction by ZEFSAII (Michael W. Deem and Ramdas Pophale) SiO2 
 PCOD8307606
Probable space group: I 4 M M
;
_chemical_formula_sum "Si O2"
_cell_formula_units_Z 96
_cell_length_a 19.300858
_cell_length_b 19.300858
_cell_length_c 14.838670
_cell_angle_alpha 90.000000
_cell_angle_beta 90.000000
_cell_angle_gamma 90.000000
_cell_volume 5527.747638
_symmetry_space_group_name_H-M "I 4 M M"
_symmetry_group_IT_number 107
_symmetry_cell_setting 'tetragonal'
loop_
_space_group_symop_operation_xyz
x,y,z
-y,x,z
-x,-y,z
y,-x,z
-x,y,z
x,-y,z
-y,-x,z
y,x,z
1/2+x,1/2+y,1/2+z
1/2-y,1/2+x,1/2+z
1/2-x,1/2-y,1/2+z
1/2+y,1/2-x,1/2+z
1/2-x,1/2+y,1/2+z
1/2+x,1/2-y,1/2+z
1/2-y,1/2-x,1/2+z
1/2+y,1/2+x,1/2+z
loop_
_atom_site_type_symbol
_atom_site_label
_atom_site_fract_x
_atom_site_fract_y
_atom_site_fract_z
Si Si1 0.765420 0.577031 0.055560
Si Si2 0.189161 0.921736 0.175548
Si Si3 0.234579 0.422969 0.852926
Si Si4 0.168547 0.718849 0.056789
Si Si5 0.310840 0.421736 0.232939
Si Si6 0.781151 0.331454 0.351700
O O1 0.799706 0.500000 0.065081
O O2 0.821419 0.637031 0.075419
O O3 0.702602 0.583396 0.125972
O O4 0.735444 0.587320 0.954243
O O5 0.120792 0.879209 0.149884
O O6 0.202603 0.916605 0.282516
O O7 0.255377 0.891995 0.122226
O O8 0.176663 0.000000 0.144180
O O9 0.200293 0.500000 0.843406
O O10 0.178580 0.362968 0.833069
O O11 0.240394 0.759607 0.077744
O O12 0.145265 0.732287 0.954245
O O13 0.323337 0.500000 0.264307
O O14 0.379210 0.379210 0.258604
O O15 0.244625 0.391995 0.286263
O O16 0.740394 0.259607 0.330747
#
# Coordination Sequence:
#
# PCOD8307606 Si02
#       6
#    16  16  16  16  16  16
#     4   9  17  29  47  72  99 123 148 184 230 278
#     4  10  20  32  47  68  94 125 160 196 233 273
#     4   9  17  29  47  72  99 123 148 184 230 278
#     4   9  17  30  49  70  91 119 157 198 236 275
#     4  10  20  32  47  68  94 125 160 196 233 273
#     4   9  17  30  49  70  91 119 157 198 236 275
#
# _framework density 17.366928999999999
#
# number of rings (size 3 to 8) (size 9 to 14) (size 15 to 20)
#    0.000    2.667    0.000    2.000    0.000    5.667 
#    0.000    0.000    0.000    1.000    0.000   18.667 
#    0.000    0.000    0.000    0.000    0.000    0.000 
#
# Total GULP energy -595002.724000 kJ/mol
# GULP energy per Si atom -12395.890083 kJ/mol
# Density = 1.732740 g / cm^3
# Si number density = 17.366929 Si / 1000 Ang^3
#
#
#
# Elastic Constant Matrix: (Units=GPa)
#
#
# Indices 1 2 3 4 5 6 
#
# 1 116.6736 49.8010 39.3403 0.0000 0.0000 0.0001
# 2 49.8010 116.6736 39.3403 0.0000 0.0000 -0.0001
# 3 39.3403 39.3403 69.7472 0.0000 0.0000 0.0000
# 4 0.0000 0.0000 0.0000 22.0732 0.0000 0.0000
# 5 0.0000 0.0000 0.0000 0.0000 22.0732 0.0000
# 6 0.0001 -0.0001 0.0000 0.0000 0.0000 14.8126
#
#
#
# Elastic Compliance Matrix: (Units=1/GPa)
#
#
# Indices 1 2 3 4 5 6 
#
# 1 0.011572 -0.003382 -0.004620 0.000000 0.000000 0.000000
# 2 -0.003382 0.011572 -0.004620 0.000000 0.000000 0.000000
# 3 -0.004620 -0.004620 0.019549 0.000000 0.000000 0.000000
# 4 0.000000 0.000000 0.000000 0.045304 0.000000 0.000000
# 5 0.000000 0.000000 0.000000 0.000000 0.045304 0.000000
# 6 0.000000 0.000000 0.000000 0.000000 0.000000 0.067510
#
#
# Mechanical properties :
#
#
# Convention : Reuss Voigt Hill
#
# Bulk Modulus (GPa) = 57.30398 62.22862 59.76630
# Shear Modulus (GPa) = 21.56382 23.43266 22.49824
#
# Velocity S-wave (km/s) = 3.52754 3.67722 3.60316
# Velocity P-wave (km/s) = 7.04692 7.34430 7.19715
#
# Compressibility (1/GPa) = 0.01745079
#
# Stress axis : x y z
#
# Youngs Moduli (GPa) = 86.41501 86.41501 51.15381
#
# Poissons Ratio (x) = 0.29223 0.23631
# Poissons Ratio (y) = 0.29223 0.23631
# Poissons Ratio (z) = 0.39921 0.39921
#
# Static dielectric constant tensor:
#      x y z
#    x 3.112760 0.000000 0.000000 
#    y 0.000000 3.112760 0.000000 
#    z 0.000000 0.000000 3.440610 
# 
# 
# High freq. dielectric constant tensor:
#      x y z
#    x 1.648260 0.000000 0.000000 
#    y 0.000000 1.648260 0.000000 
#    z 0.000000 0.000000 1.688460 
# 
# From -- ./inp_files/3319.got.cif
#   From: 2010.03.12/outbox.cif.g09.slc.cpg/sg107_2_cif.got.tgz:3319.got - 2010.04.14 01:49:11.
