data_PCOD8307387
_publ_section_title
;
Structure prediction by ZEFSAII (Michael W. Deem and Ramdas Pophale) SiO2 
 PCOD8307387
Probable space group: P 42 M C
;
_chemical_formula_sum "Si O2"
_cell_formula_units_Z 40
_cell_length_a 9.703219
_cell_length_b 9.703219
_cell_length_c 25.488999
_cell_angle_alpha 90.000000
_cell_angle_beta 90.000000
_cell_angle_gamma 90.000000
_cell_volume 2399.851932
_symmetry_space_group_name_H-M "P 42 M C"
_symmetry_group_IT_number 105
_symmetry_cell_setting 'tetragonal'
loop_
_space_group_symop_operation_xyz
x,y,z
-y,x,1/2+z
-x,-y,z
y,-x,1/2+z
-x,y,z
x,-y,z
-y,-x,1/2+z
y,x,1/2+z
loop_
_atom_site_type_symbol
_atom_site_label
_atom_site_fract_x
_atom_site_fract_y
_atom_site_fract_z
Si Si1 0.152357 0.836385 0.506930
Si Si2 0.660456 0.839544 0.600746
Si Si3 0.663615 0.347643 0.694562
Si Si4 0.159320 0.838987 0.889515
Si Si5 0.661013 0.659320 0.311977
O O1 0.260706 0.781139 0.549709
O O2 0.196145 0.789677 0.448570
O O3 0.000000 0.778822 0.520581
O O4 0.148214 0.000000 0.507667
O O5 0.500000 0.809970 0.591454
O O6 0.718861 0.760705 0.651783
O O7 0.690030 0.000000 0.610038
O O8 0.500000 0.351787 0.693825
O O9 0.721179 0.500000 0.680911
O O10 0.710322 0.303854 0.752922
O O11 0.250000 0.750000 0.850746
O O12 0.000000 0.798053 0.882065
O O13 0.180985 0.000000 0.877691
O O14 0.500000 0.680985 0.323801
O O15 0.701947 0.500000 0.319427
#
# Coordination Sequence:
#
# PCOD8307387 Si02
#       5
#     8   8   8   8   8
#     4   8  15  29  46  63  88 120 147 176 221 270
#     4   9  16  26  44  69  88 106 144 189 218 252
#     4   8  15  29  46  63  88 120 147 176 221 270
#     4   9  18  32  49  69  93 122 156 191 228 273
#     4   9  18  32  49  69  93 122 156 191 228 273
#
# _framework density 16.667695999999999
#
# number of rings (size 3 to 8) (size 9 to 14) (size 15 to 20)
#    0.000    3.400    0.000    2.400    0.000    2.400 
#    0.000    6.000    0.000    7.800    0.000    0.000 
#    0.000    0.000    0.000    0.000    0.000    0.000 
#
# Total GULP energy -495776.491165 kJ/mol
# GULP energy per Si atom -12394.412279 kJ/mol
# Density = 1.662976 g / cm^3
# Si number density = 16.667696 Si / 1000 Ang^3
#
#
#
# Elastic Constant Matrix: (Units=GPa)
#
#
# Indices 1 2 3 4 5 6 
#
# 1 64.4506 45.0186 73.0705 0.0000 0.0000 0.0000
# 2 45.0186 64.4506 73.0705 0.0000 0.0000 0.0000
# 3 73.0705 73.0705 164.9655 0.0000 0.0000 0.0000
# 4 0.0000 0.0000 0.0000 32.6388 0.0000 0.0000
# 5 0.0000 0.0000 0.0000 0.0000 32.6388 0.0000
# 6 0.0000 0.0000 0.0000 0.0000 0.0000 22.3350
#
#
#
# Elastic Compliance Matrix: (Units=1/GPa)
#
#
# Indices 1 2 3 4 5 6 
#
# 1 0.036907 -0.014554 -0.009901 0.000000 0.000000 0.000000
# 2 -0.014554 0.036907 -0.009901 0.000000 0.000000 0.000000
# 3 -0.009901 -0.009901 0.014833 0.000000 0.000000 0.000000
# 4 0.000000 0.000000 0.000000 0.030638 0.000000 0.000000
# 5 0.000000 0.000000 0.000000 0.000000 0.030638 0.000000
# 6 0.000000 0.000000 0.000000 0.000000 0.000000 0.044773
#
#
# Mechanical properties :
#
#
# Convention : Reuss Voigt Hill
#
# Bulk Modulus (GPa) = 50.16407 75.13180 62.64793
# Shear Modulus (GPa) = 18.51475 24.36964 21.44219
#
# Velocity S-wave (km/s) = 3.33651 3.82787 3.59061
# Velocity P-wave (km/s) = 6.70857 8.04431 7.40662
#
# Compressibility (1/GPa) = 0.01993459
#
# Stress axis : x y z
#
# Youngs Moduli (GPa) = 27.09500 27.09500 67.41660
#
# Poissons Ratio (x) = 0.39435 0.66750
# Poissons Ratio (y) = 0.39435 0.66750
# Poissons Ratio (z) = 0.26827 0.26827
#
# Static dielectric constant tensor:
#      x y z
#    x 1.606570 0.000000 0.000000 
#    y 0.000000 1.606570 0.000000 
#    z 0.000000 0.000000 3.425410 
# 
# 
# High freq. dielectric constant tensor:
#      x y z
#    x 1.620780 0.000000 0.000000 
#    y 0.000000 1.620780 0.000000 
#    z 0.000000 0.000000 1.652700 
# 
# From -- ./inp_files/4227.got.cif
#   From: 2010.03.12/outbox.cif.g09.slc.cpg/sg105_3_cif.got.tgz:4227.got - 2010.04.14 01:45:32.
