data_PCOD8307990
_publ_section_title
;
Structure prediction by ZEFSAII (Michael W. Deem and Ramdas Pophale) SiO2 
 PCOD8307990
Probable space group: I 41 M D
;
_chemical_formula_sum "Si O2"
_cell_formula_units_Z 112
_cell_length_a 14.411056
_cell_length_b 14.411056
_cell_length_c 26.854300
_cell_angle_alpha 90.000000
_cell_angle_beta 90.000000
_cell_angle_gamma 90.000000
_cell_volume 5577.061683
_symmetry_space_group_name_H-M "I 41 M D"
_symmetry_group_IT_number 109
_symmetry_cell_setting 'tetragonal'
loop_
_space_group_symop_operation_xyz
x,y,z
-y,1/2+x,1/4+z
-x,-y,z
y,1/2-x,1/4+z
-x,y,z
x,-y,z
-y,1/2-x,1/4+z
y,1/2+x,1/4+z
1/2+x,1/2+y,1/2+z
1/2-y,x,3/4+z
1/2-x,1/2-y,1/2+z
1/2+y,-x,3/4+z
1/2-x,1/2+y,1/2+z
1/2+x,1/2-y,1/2+z
1/2-y,-x,3/4+z
1/2+y,x,3/4+z
loop_
_atom_site_type_symbol
_atom_site_label
_atom_site_fract_x
_atom_site_fract_y
_atom_site_fract_z
Si Si1 0.107937 0.107937 0.097340
Si Si2 0.101826 0.889681 0.797655
Si Si3 0.610187 0.103533 0.036799
Si Si4 0.214341 0.610712 0.251040
Si Si5 0.398174 0.889681 0.147025
Si Si6 0.214341 0.110711 0.193640
Si Si7 0.896467 0.610187 0.157881
O O1 0.149038 0.156327 0.048044
O O2 0.156327 0.149037 0.146636
O O3 0.000000 0.129198 0.103559
O O4 0.129195 0.000000 0.091121
O O5 0.178163 0.857305 0.757253
O O6 0.135025 0.857797 0.852910
O O7 0.000000 0.848181 0.783960
O O8 0.094417 0.000000 0.799419
O O9 0.500000 0.099091 0.031372
O O10 0.635024 0.142204 0.091770
O O11 0.650997 0.000000 0.028337
O O12 0.652354 0.173169 0.995002
O O13 0.207285 0.500000 0.250373
O O14 0.173170 0.652354 0.199678
O O15 0.500000 0.848182 0.160720
O O16 0.321837 0.857305 0.187427
O O17 0.405581 0.000000 0.145261
O O18 0.207285 0.000000 0.194307
O O19 0.900908 0.500000 0.163308
O O20 0.000000 0.650996 0.166343
#
# Coordination Sequence:
#
# PCOD8307990 Si02
#       7
#    16  16  16  16  16  16  16
#     4   9  16  24  34  52  80 110 138 167 196 230
#     4   8  14  24  37  54  77 105 137 170 201 237
#     4   8  13  22  36  53  76 108 140 165 193 234
#     4   9  15  23  36  52  73 106 141 167 197 236
#     4   8  14  24  37  54  77 105 137 170 201 237
#     4   9  15  23  36  52  73 106 141 167 197 236
#     4   8  13  22  36  53  76 108 140 165 193 234
#
# _framework density 20.082259000000001
#
# number of rings (size 3 to 8) (size 9 to 14) (size 15 to 20)
#    0.000    3.571    0.000    2.571    0.000    3.429 
#    0.000    1.429    0.000    6.857    0.000    0.000 
#    0.000    4.571    0.000    2.286    0.000    8.571 
#
# Total GULP energy -693921.917028 kJ/mol
# GULP energy per Si atom -12391.462804 kJ/mol
# Density = 2.003655 g / cm^3
# Si number density = 20.082259 Si / 1000 Ang^3
#
#
#
# Elastic Constant Matrix: (Units=GPa)
#
#
# Indices 1 2 3 4 5 6 
#
# 1 45.5191 18.7629 34.4881 0.0000 0.0000 0.0000
# 2 18.7629 45.5191 34.4881 0.0000 0.0000 0.0000
# 3 34.4881 34.4881 78.3488 0.0000 0.0000 0.0000
# 4 0.0000 0.0000 0.0000 13.0351 0.0000 0.0000
# 5 0.0000 0.0000 0.0000 0.0000 13.0351 0.0000
# 6 0.0000 0.0000 0.0000 0.0000 0.0000 6.1325
#
#
#
# Elastic Compliance Matrix: (Units=1/GPa)
#
#
# Indices 1 2 3 4 5 6 
#
# 1 0.033428 -0.003947 -0.012977 0.000000 0.000000 0.000000
# 2 -0.003947 0.033428 -0.012977 0.000000 0.000000 0.000000
# 3 -0.012977 -0.012977 0.024188 0.000000 0.000000 0.000000
# 4 0.000000 0.000000 0.000000 0.076716 0.000000 0.000000
# 5 0.000000 0.000000 0.000000 0.000000 0.076716 0.000000
# 6 0.000000 0.000000 0.000000 0.000000 0.000000 0.163066
#
#
# Mechanical properties :
#
#
# Convention : Reuss Voigt Hill
#
# Bulk Modulus (GPa) = 32.00830 38.31834 35.16332
# Shear Modulus (GPa) = 10.46554 11.88373 11.17463
#
# Velocity S-wave (km/s) = 2.28531 2.43524 2.36146
# Velocity P-wave (km/s) = 4.78923 5.19897 4.99830
#
# Compressibility (1/GPa) = 0.03124190
#
# Stress axis : x y z
#
# Youngs Moduli (GPa) = 29.91508 29.91508 41.34223
#
# Poissons Ratio (x) = 0.11806 0.53651
# Poissons Ratio (y) = 0.11806 0.53651
# Poissons Ratio (z) = 0.38822 0.38822
#
# Static dielectric constant tensor:
#      x y z
#    x 3.469520 0.000000 0.000000 
#    y 0.000000 3.469520 0.000000 
#    z 0.000000 0.000000 3.830840 
# 
# 
# High freq. dielectric constant tensor:
#      x y z
#    x 1.751820 0.000000 0.000000 
#    y 0.000000 1.751820 0.000000 
#    z 0.000000 0.000000 1.774740 
# 
# From -- ./inp_files/5728.got.cif
#   From: 2010.03.12/outbox.cif.g09.slc.cpg/sg109_3_cif.got.tgz:5728.got - 2010.04.14 01:55:16.
