data_PCOD8307291
_publ_section_title
;
Structure prediction by ZEFSAII (Michael W. Deem and Ramdas Pophale) SiO2 
 PCOD8307291
Probable space group: P 42 M C
;
_chemical_formula_sum "Si O2"
_cell_formula_units_Z 48
_cell_length_a 8.185451
_cell_length_b 8.185451
_cell_length_c 34.422879
_cell_angle_alpha 90.000000
_cell_angle_beta 90.000000
_cell_angle_gamma 90.000000
_cell_volume 2306.388248
_symmetry_space_group_name_H-M "P 42 M C"
_symmetry_group_IT_number 105
_symmetry_cell_setting 'tetragonal'
loop_
_space_group_symop_operation_xyz
x,y,z
-y,x,1/2+z
-x,-y,z
y,-x,1/2+z
-x,y,z
x,-y,z
-y,-x,1/2+z
y,x,1/2+z
loop_
_atom_site_type_symbol
_atom_site_label
_atom_site_fract_x
_atom_site_fract_y
_atom_site_fract_z
Si Si1 0.311684 0.814738 0.572590
Si Si2 0.680582 0.305813 0.330504
Si Si3 0.306668 0.181539 0.750844
Si Si4 0.190645 0.500000 0.618666
Si Si5 0.500000 0.808377 0.204985
Si Si6 0.183298 0.809398 0.489994
Si Si7 0.817828 0.691634 0.409967
O O1 0.500000 0.822108 0.582758
O O2 0.236674 0.670041 0.598021
O O3 0.288378 0.763793 0.527712
O O4 0.237240 0.000000 0.580240
O O5 0.500000 0.242382 0.320512
O O6 0.684059 0.500000 0.333321
O O7 0.797141 0.246725 0.295489
O O8 0.731350 0.229702 0.372214
O O9 0.500000 0.189084 0.748942
O O10 0.243162 0.331307 0.725303
O O11 0.246278 0.000000 0.736782
O O12 0.269185 0.500000 0.661732
O O13 0.000000 0.500000 0.622315
O O14 0.500000 0.000000 0.202890
O O15 0.267860 0.734707 0.451155
O O16 0.000000 0.738150 0.496014
O O17 0.177389 0.000000 0.483680
O O18 0.820018 0.500000 0.404352
O O19 0.000000 0.764768 0.411642
#
# Coordination Sequence:
#
# PCOD8307291 Si02
#       7
#     8   8   8   4   4   8   8
#     4  10  22  40  62  90 122 154 193 247 306 362
#     4   9  16  29  51  79 111 147 192 244 294 346
#     4  10  20  37  64  91 117 156 200 244 299 362
#     4  11  25  43  65  89 117 157 201 243 297 367
#     4  11  25  43  61  89 125 155 193 247 301 363
#     4   9  18  33  52  75 109 154 198 238 287 351
#     4   9  17  28  45  73 107 145 193 243 286 338
#
# _framework density 20.811761000000001
#
# number of rings (size 3 to 8) (size 9 to 14) (size 15 to 20)
#    0.000    2.333    0.833    1.500    1.167    6.000 
#    0.000    4.167    0.000    2.000    0.000    0.000 
#    0.000    0.000    0.000    0.000    0.000    0.000 
#
# Total GULP energy -594683.472488 kJ/mol
# GULP energy per Si atom -12389.239010 kJ/mol
# Density = 2.076439 g / cm^3
# Si number density = 20.811761 Si / 1000 Ang^3
#
#
#
# Elastic Constant Matrix: (Units=GPa)
#
#
# Indices 1 2 3 4 5 6 
#
# 1 83.4295 32.7096 54.6141 0.0000 0.0000 0.0000
# 2 32.7096 83.4295 54.6141 0.0000 0.0000 0.0000
# 3 54.6141 54.6141 164.3314 0.0000 0.0000 0.0000
# 4 0.0000 0.0000 0.0000 34.0079 0.0000 0.0000
# 5 0.0000 0.0000 0.0000 0.0000 34.0079 0.0000
# 6 0.0000 0.0000 0.0000 0.0000 0.0000 19.8466
#
#
#
# Elastic Compliance Matrix: (Units=1/GPa)
#
#
# Indices 1 2 3 4 5 6 
#
# 1 0.016121 -0.003595 -0.004163 0.000000 0.000000 0.000000
# 2 -0.003595 0.016121 -0.004163 0.000000 0.000000 0.000000
# 3 -0.004163 -0.004163 0.008852 0.000000 0.000000 0.000000
# 4 0.000000 0.000000 0.000000 0.029405 0.000000 0.000000
# 5 0.000000 0.000000 0.000000 0.000000 0.029405 0.000000
# 6 0.000000 0.000000 0.000000 0.000000 0.000000 0.050387
#
#
# Mechanical properties :
#
#
# Convention : Reuss Voigt Hill
#
# Bulk Modulus (GPa) = 57.96401 68.34066 63.15233
# Shear Modulus (GPa) = 27.79596 30.18932 28.99264
#
# Velocity S-wave (km/s) = 3.65854 3.81279 3.73646
# Velocity P-wave (km/s) = 6.76451 7.23132 7.00180
#
# Compressibility (1/GPa) = 0.01725209
#
# Stress axis : x y z
#
# Youngs Moduli (GPa) = 62.03185 62.03185 112.96697
#
# Poissons Ratio (x) = 0.22303 0.47025
# Poissons Ratio (y) = 0.22303 0.47025
# Poissons Ratio (z) = 0.25822 0.25822
#
# Static dielectric constant tensor:
#      x y z
#    x 3.786800 0.000000 0.000000 
#    y 0.000000 3.786800 0.000000 
#    z 0.000000 0.000000 4.137310 
# 
# 
# High freq. dielectric constant tensor:
#      x y z
#    x 1.799380 0.000000 0.000000 
#    y 0.000000 1.799380 0.000000 
#    z 0.000000 0.000000 1.822890 
# 
# From -- ./inp_files/4814.got.cif
#   From: 2010.03.12/outbox.cif.g09.slc.cpg/sg105_3_cif.got.tgz:4814.got - 2010.04.14 01:45:32.
