data_PCOD8307738
_publ_section_title
;
Structure prediction by ZEFSAII (Michael W. Deem and Ramdas Pophale) SiO2 
 PCOD8307738
Probable space group: I 4 C M
;
_chemical_formula_sum "Si O2"
_cell_formula_units_Z 112
_cell_length_a 15.154745
_cell_length_b 15.154745
_cell_length_c 24.852827
_cell_angle_alpha 90.000000
_cell_angle_beta 90.000000
_cell_angle_gamma 90.000000
_cell_volume 5707.856723
_symmetry_space_group_name_H-M "I 4 C M"
_symmetry_group_IT_number 108
_symmetry_cell_setting 'tetragonal'
loop_
_space_group_symop_operation_xyz
x,y,z
-y,x,z
-x,-y,z
y,-x,z
-x,y,1/2+z
x,-y,1/2+z
-y,-x,1/2+z
y,x,1/2+z
1/2+x,1/2+y,1/2+z
1/2-y,1/2+x,1/2+z
1/2-x,1/2-y,1/2+z
1/2+y,1/2-x,1/2+z
1/2-x,1/2+y,z
1/2+x,1/2-y,z
1/2-y,1/2-x,z
1/2+y,1/2+x,z
loop_
_atom_site_type_symbol
_atom_site_label
_atom_site_fract_x
_atom_site_fract_y
_atom_site_fract_z
Si Si1 0.735990 0.035690 0.423580
Si Si2 0.296492 0.651625 0.451319
Si Si3 0.426081 0.073920 0.125308
Si Si4 0.870762 0.055462 0.170762
Si Si5 0.881356 0.074878 0.045268
Si Si6 0.574691 0.925310 0.000253
Si Si7 0.316751 0.964486 0.203976
Si Si8 0.138884 0.496105 0.817863
O O1 0.802163 0.117462 0.427080
O O2 0.663044 0.040357 0.471012
O O3 0.786476 0.942758 0.423108
O O4 0.693447 0.041926 0.364885
O O5 0.210758 0.710758 0.442158
O O6 0.306642 0.631718 0.515147
O O7 0.402942 0.097059 0.062963
O O8 0.463791 0.159771 0.157135
O O9 0.500000 0.000000 0.125667
O O10 0.864697 0.073265 0.107805
O O11 0.777270 0.083186 0.194771
O O12 0.953835 0.113779 0.189245
O O13 0.973179 0.119411 0.026707
O O14 0.500000 0.000000 0.995189
O O15 0.387995 0.887995 0.203555
O O16 0.308516 0.013308 0.261639
O O17 0.100129 0.399872 0.835364
O O18 0.057591 0.557591 0.803365
#
# Coordination Sequence:
#
# PCOD8307738 Si02
#       8
#    16  16   8  16  16   8  16  16
#     4  12  25  42  63  94 129 172 214 268 327 390
#     4  12  24  39  61  94 129 165 214 268 324 388
#     4   9  20  36  60  93 128 152 195 268 333 373
#     4   9  20  39  60  84 121 166 209 252 311 381
#     4   9  18  36  61  82 114 168 209 248 309 387
#     4  11  22  40  64  93 130 169 207 268 335 392
#     4  10  20  38  63  93 121 160 209 265 321 380
#     4  10  19  39  67  88 119 167 220 265 318 387
#
# _framework density 19.622077999999998
#
# number of rings (size 3 to 8) (size 9 to 14) (size 15 to 20)
#    0.000    1.714    3.571    2.143    2.000    0.857 
#    3.857    0.000    0.000    0.000    0.000    0.000 
#    0.000    0.000    0.000    0.000    0.000    0.000 
#
# Total GULP energy -693973.077116 kJ/mol
# GULP energy per Si atom -12392.376377 kJ/mol
# Density = 1.957742 g / cm^3
# Si number density = 19.622078 Si / 1000 Ang^3
#
#
#
# Elastic Constant Matrix: (Units=GPa)
#
#
# Indices 1 2 3 4 5 6 
#
# 1 94.9146 28.6640 36.1535 0.0000 0.0000 0.0000
# 2 28.6640 94.9146 36.1535 0.0000 0.0000 0.0000
# 3 36.1535 36.1535 120.2117 0.0000 0.0000 0.0000
# 4 0.0000 0.0000 0.0000 18.8080 0.0000 0.0000
# 5 0.0000 0.0000 0.0000 0.0000 18.8080 0.0000
# 6 0.0000 0.0000 0.0000 0.0000 0.0000 31.2093
#
#
#
# Elastic Compliance Matrix: (Units=1/GPa)
#
#
# Indices 1 2 3 4 5 6 
#
# 1 0.012457 -0.002637 -0.002953 0.000000 0.000000 0.000000
# 2 -0.002637 0.012457 -0.002953 0.000000 0.000000 0.000000
# 3 -0.002953 -0.002953 0.010095 0.000000 0.000000 0.000000
# 4 0.000000 0.000000 0.000000 0.053169 0.000000 0.000000
# 5 0.000000 0.000000 0.000000 0.000000 0.053169 0.000000
# 6 0.000000 0.000000 0.000000 0.000000 0.000000 0.032042
#
#
# Mechanical properties :
#
#
# Convention : Reuss Voigt Hill
#
# Bulk Modulus (GPa) = 55.79813 56.88698 56.34256
# Shear Modulus (GPa) = 25.45171 27.70305 26.57738
#
# Velocity S-wave (km/s) = 3.60543 3.76151 3.68430
# Velocity P-wave (km/s) = 6.76981 6.92239 6.84653
#
# Compressibility (1/GPa) = 0.01792175
#
# Stress axis : x y z
#
# Youngs Moduli (GPa) = 80.27531 80.27531 99.05798
#
# Poissons Ratio (x) = 0.21169 0.29255
# Poissons Ratio (y) = 0.21169 0.29255
# Poissons Ratio (z) = 0.23708 0.23708
#
# Static dielectric constant tensor:
#      x y z
#    x 3.607790 0.000000 0.000000 
#    y 0.000000 3.607790 0.000000 
#    z 0.000000 0.000000 3.563060 
# 
# 
# High freq. dielectric constant tensor:
#      x y z
#    x 1.758360 0.000000 0.000000 
#    y 0.000000 1.758360 0.000000 
#    z 0.000000 0.000000 1.759090 
# 
# From -- ./inp_files/3422.got.cif
#   From: 2010.03.12/outbox.cif.g09.slc.cpg/sg108_2_cif.got.tgz:3422.got - 2010.04.14 01:53:11.
