data_PCOD8307635
_publ_section_title
;
Structure prediction by ZEFSAII (Michael W. Deem and Ramdas Pophale) SiO2 
 PCOD8307635
Probable space group: I 4 M M
;
_chemical_formula_sum "Si O2"
_cell_formula_units_Z 128
_cell_length_a 17.870617
_cell_length_b 17.870617
_cell_length_c 22.037819
_cell_angle_alpha 90.000000
_cell_angle_beta 90.000000
_cell_angle_gamma 90.000000
_cell_volume 7037.974779
_symmetry_space_group_name_H-M "I 4 M M"
_symmetry_group_IT_number 107
_symmetry_cell_setting 'tetragonal'
loop_
_space_group_symop_operation_xyz
x,y,z
-y,x,z
-x,-y,z
y,-x,z
-x,y,z
x,-y,z
-y,-x,z
y,x,z
1/2+x,1/2+y,1/2+z
1/2-y,1/2+x,1/2+z
1/2-x,1/2-y,1/2+z
1/2+y,1/2-x,1/2+z
1/2-x,1/2+y,1/2+z
1/2+x,1/2-y,1/2+z
1/2-y,1/2-x,1/2+z
1/2+y,1/2+x,1/2+z
loop_
_atom_site_type_symbol
_atom_site_label
_atom_site_fract_x
_atom_site_fract_y
_atom_site_fract_z
Si Si1 0.310216 0.187941 0.953880
Si Si2 0.791933 0.087443 0.036051
Si Si3 0.915505 0.638528 0.223350
Si Si4 0.346665 0.916210 0.846992
Si Si5 0.583144 0.702976 0.675824
Si Si6 0.082654 0.801338 0.777640
Si Si7 0.089810 0.209652 0.533613
Si Si8 0.722954 0.912914 0.659643
O O1 0.245153 0.245153 0.931343
O O2 0.352582 0.144101 0.900309
O O3 0.274779 0.126763 0.999141
O O4 0.377578 0.234947 0.983259
O O5 0.871337 0.128664 0.022926
O O6 0.770957 0.097035 0.106689
O O7 0.798836 0.000000 0.017376
O O8 0.896230 0.609526 0.290196
O O9 0.905442 0.727863 0.221174
O O10 0.864621 0.603135 0.170332
O O11 0.000000 0.615085 0.207638
O O12 0.260066 0.919950 0.829669
O O13 0.372904 0.000000 0.866881
O O14 0.500000 0.669471 0.681766
O O15 0.639485 0.639485 0.697471
O O16 0.130576 0.869425 0.803181
O O17 0.121093 0.768530 0.716573
O O18 0.000000 0.831849 0.763541
O O19 0.127202 0.127202 0.527811
O O20 0.118449 0.245842 0.596742
O O21 0.000000 0.202349 0.527706
O O22 0.736312 0.000000 0.660151
#
# Coordination Sequence:
#
# PCOD8307635 Si02
#       8
#    16  16  16  16  16  16  16  16
#     4  10  20  34  53  75 100 135 176 217 260 305
#     4   9  17  30  50  76 107 143 180 218 261 308
#     4  10  20  33  51  75 101 130 167 209 250 296
#     4  10  21  35  51  71  97 132 171 210 254 302
#     4   9  18  31  48  73 101 129 163 203 250 303
#     4   9  17  29  46  70  99 131 168 207 248 296
#     4  10  21  37  57  81 107 134 167 207 252 304
#     4   9  18  32  50  73 102 134 164 197 241 294
#
# _framework density 18.187051
#
# number of rings (size 3 to 8) (size 9 to 14) (size 15 to 20)
#    0.000    2.500    0.000    3.000    0.000    6.000 
#    0.000    1.875    0.000    4.875    0.000    1.750 
#    0.000    2.000    0.000    0.000    0.000    0.000 
#
# Total GULP energy -793307.382633 kJ/mol
# GULP energy per Si atom -12395.427854 kJ/mol
# Density = 1.814566 g / cm^3
# Si number density = 18.187051 Si / 1000 Ang^3
#
#
#
# Elastic Constant Matrix: (Units=GPa)
#
#
# Indices 1 2 3 4 5 6 
#
# 1 87.8775 36.2953 36.4630 0.0000 0.0000 -0.0004
# 2 36.2953 87.8775 36.4630 0.0000 0.0000 0.0004
# 3 36.4630 36.4630 64.4280 0.0000 0.0000 0.0000
# 4 0.0000 0.0000 0.0000 23.2497 0.0000 0.0000
# 5 0.0000 0.0000 0.0000 0.0000 23.2498 0.0000
# 6 -0.0004 0.0004 0.0000 0.0000 0.0000 25.6859
#
#
#
# Elastic Compliance Matrix: (Units=1/GPa)
#
#
# Indices 1 2 3 4 5 6 
#
# 1 0.015725 -0.003662 -0.006827 0.000000 0.000000 0.000000
# 2 -0.003662 0.015725 -0.006827 0.000000 0.000000 0.000000
# 3 -0.006827 -0.006827 0.023249 0.000000 0.000000 0.000000
# 4 0.000000 0.000000 0.000000 0.043011 0.000000 0.000000
# 5 0.000000 0.000000 0.000000 0.000000 0.043011 0.000000
# 6 0.000000 0.000000 0.000000 0.000000 0.000000 0.038932
#
#
# Mechanical properties :
#
#
# Convention : Reuss Voigt Hill
#
# Bulk Modulus (GPa) = 49.83452 50.95840 50.39646
# Shear Modulus (GPa) = 22.62728 23.16786 22.89757
#
# Velocity S-wave (km/s) = 3.53107 3.57300 3.55209
# Velocity P-wave (km/s) = 6.63967 6.71577 6.67783
#
# Compressibility (1/GPa) = 0.02006641
#
# Stress axis : x y z
#
# Youngs Moduli (GPa) = 63.59464 63.59464 43.01346
#
# Poissons Ratio (x) = 0.23288 0.29365
# Poissons Ratio (y) = 0.23288 0.29365
# Poissons Ratio (z) = 0.43415 0.43415
#
# Static dielectric constant tensor:
#      x y z
#    x 3.343130 0.000000 0.000000 
#    y 0.000000 3.343130 0.000000 
#    z 0.000000 0.000000 3.300090 
# 
# 
# High freq. dielectric constant tensor:
#      x y z
#    x 1.703940 0.000000 0.000000 
#    y 0.000000 1.703940 0.000000 
#    z 0.000000 0.000000 1.688030 
# 
# From -- ./inp_files/5460.got.cif
#   From: 2010.03.12/outbox.cif.g09.slc.cpg/sg107_3_cif.got.tgz:5460.got - 2010.04.14 01:49:11.
