data_PCOD8307933
_publ_section_title
;
Structure prediction by ZEFSAII (Michael W. Deem and Ramdas Pophale) SiO2 
 PCOD8307933
Probable space group: I 41 M D
;
_chemical_formula_sum "Si O2"
_cell_formula_units_Z 112
_cell_length_a 14.059779
_cell_length_b 14.059779
_cell_length_c 27.081853
_cell_angle_alpha 90.000000
_cell_angle_beta 90.000000
_cell_angle_gamma 90.000000
_cell_volume 5353.469896
_symmetry_space_group_name_H-M "I 41 M D"
_symmetry_group_IT_number 109
_symmetry_cell_setting 'tetragonal'
loop_
_space_group_symop_operation_xyz
x,y,z
-y,1/2+x,1/4+z
-x,-y,z
y,1/2-x,1/4+z
-x,y,z
x,-y,z
-y,1/2-x,1/4+z
y,1/2+x,1/4+z
1/2+x,1/2+y,1/2+z
1/2-y,x,3/4+z
1/2-x,1/2-y,1/2+z
1/2+y,-x,3/4+z
1/2-x,1/2+y,1/2+z
1/2+x,1/2-y,1/2+z
1/2-y,-x,3/4+z
1/2+y,x,3/4+z
loop_
_atom_site_type_symbol
_atom_site_label
_atom_site_fract_x
_atom_site_fract_y
_atom_site_fract_z
Si Si1 0.889003 0.705299 0.167870
Si Si2 0.282044 0.389395 0.524755
Si Si3 0.799816 0.609490 0.880621
Si Si4 0.220892 0.612144 0.080320
Si Si5 0.394526 0.109237 0.868026
Si Si6 0.890850 0.386881 0.984080
Si Si7 0.106155 0.893445 0.335314
O O1 0.844151 0.686922 0.222323
O O2 0.839296 0.638508 0.128505
O O3 0.871347 0.818446 0.160710
O O4 0.000000 0.681359 0.164817
O O5 0.305024 0.500000 0.520144
O O6 0.342868 0.347462 0.569727
O O7 0.171386 0.372417 0.537631
O O8 0.829231 0.500000 0.871092
O O9 0.844867 0.673285 0.836776
O O10 0.838361 0.645310 0.933606
O O11 0.684810 0.622474 0.878446
O O12 0.229924 0.500000 0.076541
O O13 0.169468 0.653216 0.030926
O O14 0.500000 0.151013 0.881382
O O15 0.404988 0.000000 0.855483
O O16 0.892581 0.500000 0.987152
O O17 0.000000 0.348338 0.985183
O O18 0.000000 0.871549 0.357003
O O19 0.112128 0.000000 0.314802
#
# Coordination Sequence:
#
# PCOD8307933 Si02
#       7
#    16  16  16  16  16  16  16
#     4  10  21  35  53  78 107 141 182 226 271 326
#     4   9  18  33  52  77 110 143 174 215 269 322
#     4  10  21  38  59  83 112 147 188 232 283 345
#     4  11  23  37  56  82 109 143 189 238 287 340
#     4   9  18  33  52  74 103 139 175 212 259 317
#     4   9  19  38  61  82 110 149 188 231 287 343
#     4   9  18  34  57  83 111 143 178 219 268 325
#
# _framework density 20.921009999999999
#
# number of rings (size 3 to 8) (size 9 to 14) (size 15 to 20)
#    0.000    2.429    0.000    1.714    0.000    5.143 
#    0.000    6.429    0.000    6.000    0.000    0.000 
#    0.000    0.000    0.000    0.000    0.000    0.000 
#
# Total GULP energy -693996.471791 kJ/mol
# GULP energy per Si atom -12392.794139 kJ/mol
# Density = 2.087339 g / cm^3
# Si number density = 20.921010 Si / 1000 Ang^3
#
#
#
# Elastic Constant Matrix: (Units=GPa)
#
#
# Indices 1 2 3 4 5 6 
#
# 1 59.8901 10.8677 23.0530 0.0000 0.0000 0.0000
# 2 10.8677 59.8901 23.0530 0.0000 0.0000 0.0000
# 3 23.0530 23.0530 98.0441 0.0000 0.0000 0.0000
# 4 0.0000 0.0000 0.0000 27.5802 0.0000 0.0000
# 5 0.0000 0.0000 0.0000 0.0000 27.5802 0.0000
# 6 0.0000 0.0000 0.0000 0.0000 0.0000 22.8280
#
#
#
# Elastic Compliance Matrix: (Units=1/GPa)
#
#
# Indices 1 2 3 4 5 6 
#
# 1 0.018544 -0.001855 -0.003924 0.000000 0.000000 0.000000
# 2 -0.001855 0.018544 -0.003924 0.000000 0.000000 0.000000
# 3 -0.003924 -0.003924 0.012045 0.000000 0.000000 0.000000
# 4 0.000000 0.000000 0.000000 0.036258 0.000000 0.000000
# 5 0.000000 0.000000 0.000000 0.000000 0.036258 0.000000
# 6 0.000000 0.000000 0.000000 0.000000 0.000000 0.043806
#
#
# Mechanical properties :
#
#
# Convention : Reuss Voigt Hill
#
# Bulk Modulus (GPa) = 33.63893 36.86351 35.25122
# Shear Modulus (GPa) = 25.67127 26.32107 25.99617
#
# Velocity S-wave (km/s) = 3.50674 3.55084 3.52886
# Velocity P-wave (km/s) = 5.70177 5.87111 5.78706
#
# Compressibility (1/GPa) = 0.02972746
#
# Stress axis : x y z
#
# Youngs Moduli (GPa) = 53.92496 53.92496 83.02280
#
# Poissons Ratio (x) = 0.10001 0.32580
# Poissons Ratio (y) = 0.10001 0.32580
# Poissons Ratio (z) = 0.21161 0.21161
#
# Static dielectric constant tensor:
#      x y z
#    x 3.912440 0.000000 0.000000 
#    y 0.000000 3.912440 0.000000 
#    z 0.000000 0.000000 3.945220 
# 
# 
# High freq. dielectric constant tensor:
#      x y z
#    x 1.823890 0.000000 0.000000 
#    y 0.000000 1.823890 0.000000 
#    z 0.000000 0.000000 1.799480 
# 
# From -- ./inp_files/4480.got.cif
#   From: 2010.03.12/outbox.cif.g09.slc.cpg/sg109_3_cif.got.tgz:4480.got - 2010.04.14 01:55:16.
