data_PCOD8307153
_publ_section_title
;
Structure prediction by ZEFSAII (Michael W. Deem and Ramdas Pophale) SiO2 
 PCOD8307153
Probable space group: P 42 M C
;
_chemical_formula_sum "Si O2"
_cell_formula_units_Z 48
_cell_length_a 8.103967
_cell_length_b 8.103967
_cell_length_c 34.296848
_cell_angle_alpha 90.000000
_cell_angle_beta 90.000000
_cell_angle_gamma 90.000000
_cell_volume 2252.420838
_symmetry_space_group_name_H-M "P 42 M C"
_symmetry_group_IT_number 105
_symmetry_cell_setting 'tetragonal'
loop_
_space_group_symop_operation_xyz
x,y,z
-y,x,1/2+z
-x,-y,z
y,-x,1/2+z
-x,y,z
x,-y,z
-y,-x,1/2+z
y,x,1/2+z
loop_
_atom_site_type_symbol
_atom_site_label
_atom_site_fract_x
_atom_site_fract_y
_atom_site_fract_z
Si Si1 0.182926 0.803497 0.894620
Si Si2 0.816582 0.188903 0.234723
Si Si3 0.500000 0.803852 0.941844
Si Si4 0.807624 0.312935 0.314490
Si Si5 0.305519 0.500000 0.530097
Si Si6 0.688384 0.314125 0.156857
Si Si7 0.303450 0.182830 0.576021
O O1 0.332119 0.734573 0.921502
O O2 0.205064 0.736272 0.850304
O O3 0.000000 0.746992 0.909579
O O4 0.195117 0.000000 0.894219
O O5 0.727673 0.274626 0.272152
O O6 0.710213 0.208585 0.195797
O O7 0.000000 0.262241 0.226981
O O8 0.827713 0.000000 0.246003
O O9 0.500000 0.000000 0.940706
O O10 0.500000 0.739480 0.985303
O O11 0.773914 0.500000 0.326529
O O12 0.000000 0.273718 0.309425
O O13 0.500000 0.500000 0.536113
O O14 0.231099 0.331435 0.549284
O O15 0.500000 0.307355 0.143064
O O16 0.743502 0.500000 0.166744
O O17 0.793634 0.242564 0.120669
O O18 0.500000 0.192318 0.575213
O O19 0.243665 0.000000 0.561678
#
# Coordination Sequence:
#
# PCOD8307153 Si02
#       7
#     8   8   4   8   4   8   8
#     4   9  16  28  48  74 105 140 177 221 275 334
#     4  10  20  31  45  72 107 138 171 214 263 317
#     4  10  20  34  52  78 108 138 176 222 276 336
#     4   9  15  26  46  72 101 134 176 223 269 317
#     4  10  20  36  56  80 108 138 178 222 272 336
#     4  10  19  33  53  75  99 131 176 222 265 318
#     4   9  17  32  56  81 104 134 175 224 274 326
#
# _framework density 21.310403000000001
#
# number of rings (size 3 to 8) (size 9 to 14) (size 15 to 20)
#    0.000    2.500    1.667    1.500    0.000    4.667 
#    0.000    0.833    0.000    2.000    0.000    0.000 
#    0.000    0.000    0.000    0.000    0.000    0.000 
#
# Total GULP energy -594835.976755 kJ/mol
# GULP energy per Si atom -12392.416182 kJ/mol
# Density = 2.126190 g / cm^3
# Si number density = 21.310403 Si / 1000 Ang^3
#
#
#
# Elastic Constant Matrix: (Units=GPa)
#
#
# Indices 1 2 3 4 5 6 
#
# 1 79.8042 17.8612 42.0570 0.0000 0.0000 0.0000
# 2 17.8612 79.8042 42.0570 0.0000 0.0000 0.0000
# 3 42.0570 42.0570 149.0788 0.0000 0.0000 0.0000
# 4 0.0000 0.0000 0.0000 26.1303 0.0000 0.0000
# 5 0.0000 0.0000 0.0000 0.0000 26.1303 0.0000
# 6 0.0000 0.0000 0.0000 0.0000 0.0000 8.8334
#
#
#
# Elastic Compliance Matrix: (Units=1/GPa)
#
#
# Indices 1 2 3 4 5 6 
#
# 1 0.014835 -0.001309 -0.003816 0.000000 0.000000 0.000000
# 2 -0.001309 0.014835 -0.003816 0.000000 0.000000 0.000000
# 3 -0.003816 -0.003816 0.008861 0.000000 0.000000 0.000000
# 4 0.000000 0.000000 0.000000 0.038270 0.000000 0.000000
# 5 0.000000 0.000000 0.000000 0.000000 0.038270 0.000000
# 6 0.000000 0.000000 0.000000 0.000000 0.000000 0.113207
#
#
# Mechanical properties :
#
#
# Convention : Reuss Voigt Hill
#
# Bulk Modulus (GPa) = 48.42927 56.95976 52.69452
# Shear Modulus (GPa) = 19.75969 25.99958 22.87963
#
# Velocity S-wave (km/s) = 3.04835 3.49670 3.28019
# Velocity P-wave (km/s) = 5.93000 6.56424 6.25516
#
# Compressibility (1/GPa) = 0.02064867
#
# Stress axis : x y z
#
# Youngs Moduli (GPa) = 67.41014 67.41014 112.85732
#
# Poissons Ratio (x) = 0.08826 0.43062
# Poissons Ratio (y) = 0.08826 0.43062
# Poissons Ratio (z) = 0.25721 0.25721
#
# Static dielectric constant tensor:
#      x y z
#    x 3.650330 0.000000 0.000000 
#    y 0.000000 3.650330 0.000000 
#    z 0.000000 0.000000 3.991810 
# 
# 
# High freq. dielectric constant tensor:
#      x y z
#    x 1.807520 0.000000 0.000000 
#    y 0.000000 1.807520 0.000000 
#    z 0.000000 0.000000 1.838050 
# 
# From -- ./inp_files/4856.got.cif
#   From: 2010.03.12/outbox.cif.g09.slc.cpg/sg105_3_cif.got.tgz:4856.got - 2010.04.14 01:45:32.
