data_PCOD8307963
_publ_section_title
;
Structure prediction by ZEFSAII (Michael W. Deem and Ramdas Pophale) SiO2 
 PCOD8307963
Probable space group: I 41 M D
;
_chemical_formula_sum "Si O2"
_cell_formula_units_Z 112
_cell_length_a 27.686010
_cell_length_b 27.686010
_cell_length_c 6.669285
_cell_angle_alpha 90.000000
_cell_angle_beta 90.000000
_cell_angle_gamma 90.000000
_cell_volume 5112.107990
_symmetry_space_group_name_H-M "I 41 M D"
_symmetry_group_IT_number 109
_symmetry_cell_setting 'tetragonal'
loop_
_space_group_symop_operation_xyz
x,y,z
-y,1/2+x,1/4+z
-x,-y,z
y,1/2-x,1/4+z
-x,y,z
x,-y,z
-y,1/2-x,1/4+z
y,1/2+x,1/4+z
1/2+x,1/2+y,1/2+z
1/2-y,x,3/4+z
1/2-x,1/2-y,1/2+z
1/2+y,-x,3/4+z
1/2-x,1/2+y,1/2+z
1/2+x,1/2-y,1/2+z
1/2-y,-x,3/4+z
1/2+y,x,3/4+z
loop_
_atom_site_type_symbol
_atom_site_label
_atom_site_fract_x
_atom_site_fract_y
_atom_site_fract_z
Si Si1 0.623426 0.416080 0.642620
Si Si2 0.945327 0.052942 0.812351
Si Si3 0.605633 0.288720 0.067006
Si Si4 0.681756 0.747771 0.759111
Si Si5 0.123422 0.554411 0.713104
Si Si6 0.055674 0.306194 0.725872
Si Si7 0.670882 0.364459 0.291233
O O1 0.590337 0.449394 0.501600
O O2 0.587553 0.384690 0.773838
O O3 0.658809 0.447319 0.782996
O O4 0.654952 0.379108 0.513966
O O5 0.926660 0.092080 0.652589
O O6 0.000000 0.065430 0.882431
O O7 0.943862 0.000000 0.710009
O O8 0.584730 0.242042 0.174415
O O9 0.636731 0.322163 0.213693
O O10 0.637761 0.277763 0.873125
O O11 0.558331 0.319761 0.008311
O O12 0.718352 0.708386 0.671463
O O13 0.659434 0.776399 0.569159
O O14 0.108477 0.500000 0.662459
O O15 0.000000 0.296763 0.795856
O O16 0.087460 0.329706 0.903139
#
# Coordination Sequence:
#
# PCOD8307963 Si02
#       7
#    16  16  16  16  16  16  16
#     4  12  22  45  68 101 137 182 227 282 354 414
#     4  10  22  41  67 100 137 182 233 282 339 410
#     4  12  23  47  69  99 144 180 231 284 353 418
#     4  12  24  43  72 105 136 183 242 295 352 416
#     4  11  24  43  69 101 139 182 228 284 342 412
#     4  12  27  46  71 106 141 184 237 292 349 422
#     4  12  25  47  70  99 142 185 229 291 353 416
#
# _framework density 21.908771999999999
#
# number of rings (size 3 to 8) (size 9 to 14) (size 15 to 20)
#    0.000    0.429    4.286    4.714    0.000    3.429 
#    0.000    2.857    0.000    0.000    0.000    0.000 
#    0.000    0.000    0.000    0.000    0.000    0.000 
#
# Total GULP energy -694404.306596 kJ/mol
# GULP energy per Si atom -12400.076904 kJ/mol
# Density = 2.185891 g / cm^3
# Si number density = 21.908772 Si / 1000 Ang^3
#
#
#
# Elastic Constant Matrix: (Units=GPa)
#
#
# Indices 1 2 3 4 5 6 
#
# 1 123.3722 41.6936 48.3063 0.0000 0.0000 0.0000
# 2 41.6936 123.3722 48.3063 0.0000 0.0000 0.0000
# 3 48.3063 48.3063 101.2498 0.0000 0.0000 0.0000
# 4 0.0000 0.0000 0.0000 32.9020 0.0000 0.0000
# 5 0.0000 0.0000 0.0000 0.0000 32.9020 0.0000
# 6 0.0000 0.0000 0.0000 0.0000 0.0000 43.3709
#
#
#
# Elastic Compliance Matrix: (Units=1/GPa)
#
#
# Indices 1 2 3 4 5 6 
#
# 1 0.010324 -0.001919 -0.004010 0.000000 0.000000 0.000000
# 2 -0.001919 0.010324 -0.004010 0.000000 0.000000 0.000000
# 3 -0.004010 -0.004010 0.013703 0.000000 0.000000 0.000000
# 4 0.000000 0.000000 0.000000 0.030393 0.000000 0.000000
# 5 0.000000 0.000000 0.000000 0.000000 0.030393 0.000000
# 6 0.000000 0.000000 0.000000 0.000000 0.000000 0.023057
#
#
# Mechanical properties :
#
#
# Convention : Reuss Voigt Hill
#
# Bulk Modulus (GPa) = 69.09415 69.40077 69.24746
# Shear Modulus (GPa) = 34.98999 35.81416 35.40208
#
# Velocity S-wave (km/s) = 4.00068 4.04752 4.02417
# Velocity P-wave (km/s) = 7.27642 7.32046 7.29847
#
# Compressibility (1/GPa) = 0.01447301
#
# Stress axis : x y z
#
# Youngs Moduli (GPa) = 96.85952 96.85952 72.97619
#
# Poissons Ratio (x) = 0.18586 0.29265
# Poissons Ratio (y) = 0.18586 0.29265
# Poissons Ratio (z) = 0.38843 0.38843
#
# Static dielectric constant tensor:
#      x y z
#    x 4.215290 0.000000 0.000000 
#    y 0.000000 4.215290 0.000000 
#    z 0.000000 0.000000 3.857530 
# 
# 
# High freq. dielectric constant tensor:
#      x y z
#    x 1.874400 0.000000 0.000000 
#    y 0.000000 1.874400 0.000000 
#    z 0.000000 0.000000 1.855840 
# 
# From -- ./inp_files/703.got.cif
#   From: 2010.03.12/outbox.cif.g09.slc.cpg/sg109_1_cif.got.tgz:703.got - 2010.04.14 01:55:16.
