data_PCOD8307174
_publ_section_title
;
Structure prediction by ZEFSAII (Michael W. Deem and Ramdas Pophale) SiO2 
 PCOD8307174
Probable space group: P 42 M C
;
_chemical_formula_sum "Si O2"
_cell_formula_units_Z 48
_cell_length_a 9.534675
_cell_length_b 9.534675
_cell_length_c 27.737868
_cell_angle_alpha 90.000000
_cell_angle_beta 90.000000
_cell_angle_gamma 90.000000
_cell_volume 2521.650339
_symmetry_space_group_name_H-M "P 42 M C"
_symmetry_group_IT_number 105
_symmetry_cell_setting 'tetragonal'
loop_
_space_group_symop_operation_xyz
x,y,z
-y,x,1/2+z
-x,-y,z
y,-x,1/2+z
-x,y,z
x,-y,z
-y,-x,1/2+z
y,x,1/2+z
loop_
_atom_site_type_symbol
_atom_site_label
_atom_site_fract_x
_atom_site_fract_y
_atom_site_fract_z
Si Si1 0.831967 0.500000 0.800781
Si Si2 0.755126 0.665022 0.264886
Si Si3 0.664703 0.000000 0.834358
Si Si4 0.836448 0.500000 0.908904
Si Si5 0.337335 0.656504 0.573669
Si Si6 0.153937 0.334715 0.157459
Si Si7 0.739099 0.830980 0.481894
Si Si8 0.330440 0.000000 0.943589
O O1 0.769020 0.371652 0.771967
O O2 0.770268 0.500000 0.855505
O O3 0.000000 0.500000 0.798583
O O4 0.715207 0.500000 0.269582
O O5 0.863949 0.714210 0.305615
O O6 0.814733 0.700356 0.212626
O O7 0.500000 0.000000 0.837063
O O8 0.724402 0.000000 0.888484
O O9 0.790484 0.364109 0.938468
O O10 0.000000 0.500000 0.901669
O O11 0.500000 0.632469 0.582300
O O12 0.270167 0.500000 0.564596
O O13 0.269941 0.727850 0.621730
O O14 0.319920 0.769457 0.531325
O O15 0.150146 0.500000 0.149640
O O16 0.000000 0.272232 0.144873
O O17 0.873622 0.739741 0.471371
O O18 0.763022 0.000000 0.485927
O O19 0.500000 0.000000 0.948043
#
# Coordination Sequence:
#
# PCOD8307174 Si02
#       8
#     4   8   4   4   8   8   8   4
#     4  11  23  37  53  81 121 157 191 231 292 347
#     4  10  19  35  59  85 113 147 193 241 288 347
#     4   9  18  35  59  87 115 145 189 245 292 343
#     4   9  20  37  59  83 111 153 197 243 282 345
#     4  10  20  33  54  87 119 147 185 240 302 351
#     4   9  17  31  55  84 111 143 187 240 291 342
#     4  11  21  38  60  82 113 152 201 242 286 346
#     4  11  23  37  55  83 121 155 189 237 296 349
#
# _framework density 19.035153000000001
#
# number of rings (size 3 to 8) (size 9 to 14) (size 15 to 20)
#    0.000    2.000    1.667    2.500    1.167    0.667 
#    0.000    3.750    1.833    0.000    0.000    0.000 
#    0.000    0.000    0.000    0.000    0.000    0.000 
#
# Total GULP energy -594821.249903 kJ/mol
# GULP energy per Si atom -12392.109373 kJ/mol
# Density = 1.899183 g / cm^3
# Si number density = 19.035153 Si / 1000 Ang^3
#
#
#
# Elastic Constant Matrix: (Units=GPa)
#
#
# Indices 1 2 3 4 5 6 
#
# 1 96.4408 36.6825 26.0022 0.0000 0.0000 0.0000
# 2 36.6825 96.4408 26.0022 0.0000 0.0000 0.0000
# 3 26.0022 26.0022 83.9653 0.0000 0.0000 0.0000
# 4 0.0000 0.0000 0.0000 23.1985 0.0000 0.0000
# 5 0.0000 0.0000 0.0000 0.0000 23.1985 0.0000
# 6 0.0000 0.0000 0.0000 0.0000 0.0000 -77.4386
#
#
#
# Elastic Compliance Matrix: (Units=1/GPa)
#
#
# Indices 1 2 3 4 5 6 
#
# 1 0.012640 -0.004094 -0.002646 0.000000 0.000000 0.000000
# 2 -0.004094 0.012640 -0.002646 0.000000 0.000000 0.000000
# 3 -0.002646 -0.002646 0.013549 0.000000 0.000000 0.000000
# 4 0.000000 0.000000 0.000000 0.043106 0.000000 0.000000
# 5 0.000000 0.000000 0.000000 0.000000 0.043106 0.000000
# 6 0.000000 0.000000 0.000000 0.000000 0.000000 -0.012913
#
#
# Mechanical properties :
#
#
# Convention : Reuss Voigt Hill
#
# Bulk Modulus (GPa) = 49.86428 50.46898 50.16663
# Shear Modulus (GPa) = 36.34077 6.33566 21.33821
#
# Velocity S-wave (km/s) = 4.37411 1.82637 3.35175
# Velocity P-wave (km/s) = 7.19467 5.56944 6.43358
#
# Compressibility (1/GPa) = 0.02005444
#
# Stress axis : x y z
#
# Youngs Moduli (GPa) = 79.11474 79.11474 73.80758
#
# Poissons Ratio (x) = 0.32391 0.19532
# Poissons Ratio (y) = 0.32391 0.19532
# Poissons Ratio (z) = 0.20937 0.20937
#
# Static dielectric constant tensor:
#      x y z
#    x 3.130360 0.000000 0.000000 
#    y 0.000000 3.130360 0.000000 
#    z 0.000000 0.000000 3.856500 
# 
# 
# High freq. dielectric constant tensor:
#      x y z
#    x 1.724790 0.000000 0.000000 
#    y 0.000000 1.724790 0.000000 
#    z 0.000000 0.000000 1.756170 
# 
# From -- ./inp_files/4914.got.cif
#   From: 2010.03.12/outbox.cif.g09.slc.cpg/sg105_3_cif.got.tgz:4914.got - 2010.04.14 01:45:32.
