data_PCOD8307720
_publ_section_title
;
Structure prediction by ZEFSAII (Michael W. Deem and Ramdas Pophale) SiO2 
 PCOD8307720
Probable space group: I 4 C M
;
_chemical_formula_sum "Si O2"
_cell_formula_units_Z 112
_cell_length_a 14.457311
_cell_length_b 14.457311
_cell_length_c 28.454436
_cell_angle_alpha 90.000000
_cell_angle_beta 90.000000
_cell_angle_gamma 90.000000
_cell_volume 5947.370972
_symmetry_space_group_name_H-M "I 4 C M"
_symmetry_group_IT_number 108
_symmetry_cell_setting 'tetragonal'
loop_
_space_group_symop_operation_xyz
x,y,z
-y,x,z
-x,-y,z
y,-x,z
-x,y,1/2+z
x,-y,1/2+z
-y,-x,1/2+z
y,x,1/2+z
1/2+x,1/2+y,1/2+z
1/2-y,1/2+x,1/2+z
1/2-x,1/2-y,1/2+z
1/2+y,1/2-x,1/2+z
1/2-x,1/2+y,z
1/2+x,1/2-y,z
1/2-y,1/2-x,z
1/2+y,1/2+x,z
loop_
_atom_site_type_symbol
_atom_site_label
_atom_site_fract_x
_atom_site_fract_y
_atom_site_fract_z
Si Si1 0.755317 0.506331 0.986110
Si Si2 0.426833 0.926833 0.040980
Si Si3 0.426799 0.365681 0.125190
Si Si4 0.446191 0.791437 0.694139
Si Si5 0.652334 0.001756 0.392581
Si Si6 0.422041 0.077960 0.643263
Si Si7 0.319500 0.666828 0.029939
Si Si8 0.349118 0.995404 0.288828
O O1 0.765969 0.517747 0.929918
O O2 0.853347 0.520650 0.009902
O O3 0.726039 0.400790 0.992428
O O4 0.683862 0.577397 0.010288
O O5 0.388949 0.888949 0.091000
O O6 0.500000 0.000000 0.058852
O O7 0.536909 0.376012 0.125520
O O8 0.407590 0.303202 0.171170
O O9 0.387862 0.314267 0.079200
O O10 0.364103 0.864103 0.690748
O O11 0.537412 0.829916 0.667528
O O12 0.476835 0.774953 0.748538
O O13 0.596294 0.096294 0.403852
O O14 0.583690 0.916311 0.394800
O O15 0.698002 0.008091 0.340443
O O16 0.500000 0.000000 0.645883
O O17 0.264091 0.764091 0.032700
O O18 0.429994 0.070007 0.289487
O O19 0.396219 0.896219 0.277009
#
# Coordination Sequence:
#
# PCOD8307720 Si02
#       8
#    16   8  16  16  16   8  16  16
#     4  12  23  37  58  85 120 161 204 250 301 367
#     4  11  20  34  54  86 119 149 197 257 310 354
#     4  11  24  42  58  76 111 161 200 234 284 361
#     4  10  18  34  57  86 116 145 191 241 294 349
#     4   9  16  30  55  87 118 152 194 247 309 363
#     4   9  18  28  50  84 119 144 171 229 294 341
#     4  12  24  40  60  86 120 159 202 248 303 363
#     4   8  14  27  53  87 120 151 184 237 310 371
#
# _framework density 18.831849999999999
#
# number of rings (size 3 to 8) (size 9 to 14) (size 15 to 20)
#    0.000    1.714    3.571    3.429    0.000    1.429 
#    1.286    0.000    3.143    0.000    0.000    0.000 
#    0.000    0.000    0.000    0.000    0.000    0.000 
#
# Total GULP energy -694029.437132 kJ/mol
# GULP energy per Si atom -12393.382806 kJ/mol
# Density = 1.878899 g / cm^3
# Si number density = 18.831850 Si / 1000 Ang^3
#
#
#
# Elastic Constant Matrix: (Units=GPa)
#
#
# Indices 1 2 3 4 5 6 
#
# 1 61.0277 7.0206 32.4921 0.0000 0.0000 0.0001
# 2 7.0206 61.0277 32.4921 0.0000 0.0000 -0.0001
# 3 32.4921 32.4921 161.7283 0.0000 0.0000 0.0000
# 4 0.0000 0.0000 0.0000 23.5915 0.0000 0.0000
# 5 0.0000 0.0000 0.0000 0.0000 23.5915 0.0000
# 6 0.0001 -0.0001 0.0000 0.0000 0.0000 18.0362
#
#
#
# Elastic Compliance Matrix: (Units=1/GPa)
#
#
# Indices 1 2 3 4 5 6 
#
# 1 0.018350 -0.000166 -0.003653 0.000000 0.000000 0.000000
# 2 -0.000166 0.018350 -0.003653 0.000000 0.000000 0.000000
# 3 -0.003653 -0.003653 0.007651 0.000000 0.000000 0.000000
# 4 0.000000 0.000000 0.000000 0.042388 0.000000 0.000000
# 5 0.000000 0.000000 0.000000 0.000000 0.042388 0.000000
# 6 0.000000 0.000000 0.000000 0.000000 0.000000 0.055444
#
#
# Mechanical properties :
#
#
# Convention : Reuss Voigt Hill
#
# Bulk Modulus (GPa) = 34.00618 47.53256 40.76937
# Shear Modulus (GPa) = 23.88698 27.16244 25.52471
#
# Velocity S-wave (km/s) = 3.56537 3.80197 3.68557
# Velocity P-wave (km/s) = 5.91998 6.67597 6.30931
#
# Compressibility (1/GPa) = 0.02940642
#
# Stress axis : x y z
#
# Youngs Moduli (GPa) = 54.49540 54.49540 130.69931
#
# Poissons Ratio (x) = 0.00904 0.47749
# Poissons Ratio (y) = 0.00904 0.47749
# Poissons Ratio (z) = 0.19909 0.19909
#
# Static dielectric constant tensor:
#      x y z
#    x 3.191780 0.000000 0.000000 
#    y 0.000000 3.191780 0.000000 
#    z 0.000000 0.000000 3.832740 
# 
# 
# High freq. dielectric constant tensor:
#      x y z
#    x 1.706120 0.000000 0.000000 
#    y 0.000000 1.706120 0.000000 
#    z 0.000000 0.000000 1.740750 
# 
# From -- ./inp_files/3413.got.cif
#   From: 2010.03.12/outbox.cif.g09.slc.cpg/sg108_2_cif.got.tgz:3413.got - 2010.04.14 01:53:11.
