data_PCOD8307013
_publ_section_title
;
Structure prediction by ZEFSAII (Michael W. Deem and Ramdas Pophale) SiO2 
 PCOD8307013
Probable space group: P 4 C C
;
_chemical_formula_sum "Si O2"
_cell_formula_units_Z 56
_cell_length_a 13.870437
_cell_length_b 13.870437
_cell_length_c 12.683905
_cell_angle_alpha 90.000000
_cell_angle_beta 90.000000
_cell_angle_gamma 90.000000
_cell_volume 2440.244085
_symmetry_space_group_name_H-M "P 4 C C"
_symmetry_group_IT_number 103
_symmetry_cell_setting 'tetragonal'
loop_
_space_group_symop_operation_xyz
x,y,z
-y,x,z
-x,-y,z
y,-x,z
-x,y,1/2+z
x,-y,1/2+z
-y,-x,1/2+z
y,x,1/2+z
loop_
_atom_site_type_symbol
_atom_site_label
_atom_site_fract_x
_atom_site_fract_y
_atom_site_fract_z
Si Si1 0.858829 0.648997 0.751490
Si Si2 0.671878 0.326056 0.616545
Si Si3 0.647499 0.550700 0.436264
Si Si4 0.255730 0.830382 0.972186
Si Si5 0.203178 0.434333 0.262043
Si Si6 0.135402 0.079342 0.860218
Si Si7 0.275907 0.939489 0.182723
O O1 0.761947 0.687276 0.696576
O O2 0.867928 0.687818 0.869677
O O3 0.854200 0.533731 0.749199
O O4 0.949816 0.690324 0.687563
O O5 0.565514 0.337439 0.563868
O O6 0.735475 0.308560 0.512156
O O7 0.710144 0.421627 0.676271
O O8 0.558651 0.621029 0.405692
O O9 0.746175 0.575822 0.375881
O O10 0.144200 0.802460 0.941839
O O11 0.263296 0.913276 0.060872
O O12 0.123685 0.353372 0.245597
O O13 0.174441 0.085536 0.740506
O O14 0.033006 0.130751 0.882371
#
# Coordination Sequence:
#
# PCOD8307013 Si02
#       7
#     8   8   8   8   8   8   8
#     4  12  25  46  69  99 143 183 242 296 354 434
#     4  11  23  41  70  98 140 186 232 295 360 422
#     4  11  23  40  67 104 141 184 238 292 356 427
#     4  11  24  43  70 100 137 186 232 294 359 426
#     4  11  24  44  68  99 142 190 234 295 359 426
#     4  11  24  43  70 102 138 176 231 292 359 433
#     4  11  26  45  70 102 140 185 240 293 360 433
#
# _framework density 22.948525
#
# number of rings (size 3 to 8) (size 9 to 14) (size 15 to 20)
#    0.000    0.857    1.429    6.429    2.000    2.286 
#    0.000    5.714    0.000    0.000    0.000    0.000 
#    0.000    0.000    0.000    0.000    0.000    0.000 
#
# Total GULP energy -693975.009377 kJ/mol
# GULP energy per Si atom -12392.410882 kJ/mol
# Density = 2.289629 g / cm^3
# Si number density = 22.948525 Si / 1000 Ang^3
#
#
#
# Elastic Constant Matrix: (Units=GPa)
#
#
# Indices 1 2 3 4 5 6 
#
# 1 93.5134 9.0924 34.3019 0.0000 0.0000 0.0000
# 2 9.0924 93.5134 34.3019 0.0000 0.0000 0.0000
# 3 34.3019 34.3019 115.1114 0.0000 0.0000 0.0000
# 4 0.0000 0.0000 0.0000 33.8347 0.0000 0.0000
# 5 0.0000 0.0000 0.0000 0.0000 33.8347 0.0000
# 6 0.0000 0.0000 0.0000 0.0000 0.0000 19.9623
#
#
#
# Elastic Compliance Matrix: (Units=1/GPa)
#
#
# Indices 1 2 3 4 5 6 
#
# 1 0.012008 0.000163 -0.003627 0.000000 0.000000 0.000000
# 2 0.000163 0.012008 -0.003627 0.000000 0.000000 0.000000
# 3 -0.003627 -0.003627 0.010849 0.000000 0.000000 0.000000
# 4 0.000000 0.000000 0.000000 0.029555 0.000000 0.000000
# 5 0.000000 0.000000 0.000000 0.000000 0.029555 0.000000
# 6 0.000000 0.000000 0.000000 0.000000 0.000000 0.050095
#
#
# Mechanical properties :
#
#
# Convention : Reuss Voigt Hill
#
# Bulk Modulus (GPa) = 48.34786 50.83674 49.59230
# Shear Modulus (GPa) = 30.27611 32.48913 31.38262
#
# Velocity S-wave (km/s) = 3.63616 3.76671 3.70201
# Velocity P-wave (km/s) = 6.22436 6.41234 6.31905
#
# Compressibility (1/GPa) = 0.02068344
#
# Stress axis : x y z
#
# Youngs Moduli (GPa) = 83.27646 83.27646 92.17663
#
# Poissons Ratio (x) = -0.01356 0.33431
# Poissons Ratio (y) = -0.01356 0.33431
# Poissons Ratio (z) = 0.30203 0.30203
#
# Static dielectric constant tensor:
#      x y z
#    x 4.256800 0.000000 0.000000 
#    y 0.000000 4.256800 0.000000 
#    z 0.000000 0.000000 4.061810 
# 
# 
# High freq. dielectric constant tensor:
#      x y z
#    x 1.914210 0.000000 0.000000 
#    y 0.000000 1.914210 0.000000 
#    z 0.000000 0.000000 1.905430 
# 
# From -- ./inp_files/681.got.cif
#   From: 2010.03.12/outbox.cif.g09.slc.cpg/sg103_cif.got.tgz:681.got - 2010.04.14 01:42:52.
