data_PCOD8307708
_publ_section_title
;
Structure prediction by ZEFSAII (Michael W. Deem and Ramdas Pophale) SiO2 
 PCOD8307708
Probable space group: I 4 C M
;
_chemical_formula_sum "Si O2"
_cell_formula_units_Z 112
_cell_length_a 28.395822
_cell_length_b 28.395822
_cell_length_c 10.038053
_cell_angle_alpha 90.000000
_cell_angle_beta 90.000000
_cell_angle_gamma 90.000000
_cell_volume 8093.910069
_symmetry_space_group_name_H-M "I 4 C M"
_symmetry_group_IT_number 108
_symmetry_cell_setting 'tetragonal'
loop_
_space_group_symop_operation_xyz
x,y,z
-y,x,z
-x,-y,z
y,-x,z
-x,y,1/2+z
x,-y,1/2+z
-y,-x,1/2+z
y,x,1/2+z
1/2+x,1/2+y,1/2+z
1/2-y,1/2+x,1/2+z
1/2-x,1/2-y,1/2+z
1/2+y,1/2-x,1/2+z
1/2-x,1/2+y,z
1/2+x,1/2-y,z
1/2-y,1/2-x,z
1/2+y,1/2+x,z
loop_
_atom_site_type_symbol
_atom_site_label
_atom_site_fract_x
_atom_site_fract_y
_atom_site_fract_z
Si Si1 0.137481 0.779012 0.187860
Si Si2 0.720301 0.779700 0.568766
Si Si3 0.076269 0.994233 0.642233
Si Si4 0.214567 0.714567 0.250060
Si Si5 0.599994 0.670531 0.429984
Si Si6 0.185970 0.901212 0.421098
Si Si7 0.781760 0.855125 0.668726
Si Si8 0.636164 0.502273 0.394057
O O1 0.159516 0.726856 0.217672
O O2 0.103005 0.794670 0.305126
O O3 0.182115 0.812800 0.186032
O O4 0.107475 0.783502 0.053481
O O5 0.725759 0.774242 0.407285
O O6 0.755274 0.744727 0.645018
O O7 0.732335 0.832844 0.617744
O O8 0.049857 0.042901 0.670007
O O9 0.092428 0.986243 0.490564
O O10 0.120215 0.994281 0.742135
O O11 0.636155 0.626602 0.418807
O O12 0.608513 0.700135 0.561189
O O13 0.546689 0.655381 0.447608
O O14 0.221601 0.883311 0.306800
O O15 0.174959 0.956436 0.402974
#
# Coordination Sequence:
#
# PCOD8307708 Si02
#       8
#    16   8  16   8  16  16  16  16
#     4   9  18  29  44  61  84 102 127 159 205 255
#     4  10  18  28  46  68  86 104 124 152 200 257
#     4  11  22  34  46  60  74  96 136 190 236 274
#     4  10  18  28  46  68  86 104 124 152 200 257
#     4  10  18  31  44  58  79 106 135 174 211 257
#     4  10  20  31  42  62  81 108 137 174 215 259
#     4   9  18  29  44  61  84 102 127 159 205 255
#     4  12  22  33  48  60  80 108 142 176 226 269
#
# _framework density 13.837564
#
# number of rings (size 3 to 8) (size 9 to 14) (size 15 to 20)
#    0.000    1.857    1.429    4.286    6.000    3.429 
#    0.000    0.000    0.000    0.000    0.000    0.000 
#    0.000    0.000    0.000    0.000    0.000    0.000 
#
# Total GULP energy -694053.525280 kJ/mol
# GULP energy per Si atom -12393.812951 kJ/mol
# Density = 1.380607 g / cm^3
# Si number density = 13.837564 Si / 1000 Ang^3
#
#
#
# Elastic Constant Matrix: (Units=GPa)
#
#
# Indices 1 2 3 4 5 6 
#
# 1 32.4267 25.8363 4.2391 0.0000 0.0000 -0.0002
# 2 25.8363 32.4267 4.2391 0.0000 0.0000 0.0002
# 3 4.2391 4.2391 67.5373 0.0000 0.0000 0.0000
# 4 0.0000 0.0000 0.0000 16.5816 0.0000 0.0000
# 5 0.0000 0.0000 0.0000 0.0000 16.5816 0.0000
# 6 -0.0002 0.0002 0.0000 0.0000 0.0000 3.9567
#
#
#
# Elastic Compliance Matrix: (Units=1/GPa)
#
#
# Indices 1 2 3 4 5 6 
#
# 1 0.084528 -0.067207 -0.001087 0.000000 0.000000 0.000007
# 2 -0.067207 0.084528 -0.001087 0.000000 0.000000 -0.000007
# 3 -0.001087 -0.001087 0.014943 0.000000 0.000000 0.000000
# 4 0.000000 0.000000 0.000000 0.060308 0.000000 0.000000
# 5 0.000000 0.000000 0.000000 0.000000 0.060308 0.000000
# 6 0.000007 -0.000007 0.000000 0.000000 0.000000 0.252736
#
#
# Mechanical properties :
#
#
# Convention : Reuss Voigt Hill
#
# Bulk Modulus (GPa) = 22.10544 22.33551 22.22048
# Shear Modulus (GPa) = 7.03044 13.96241 10.49642
#
# Velocity S-wave (km/s) = 2.25648 3.17996 2.75716
# Velocity P-wave (km/s) = 4.77479 5.44602 5.12141
#
# Compressibility (1/GPa) = 0.04523773
#
# Stress axis : x y z
#
# Youngs Moduli (GPa) = 11.83035 11.83035 66.92040
#
# Poissons Ratio (x) = 0.79508 0.07276
# Poissons Ratio (y) = 0.79508 0.07276
# Poissons Ratio (z) = 0.01286 0.01286
#
# Static dielectric constant tensor:
#      x y z
#    x 2.680040 0.000000 0.000000 
#    y 0.000000 2.680040 0.000000 
#    z 0.000000 0.000000 3.079210 
# 
# 
# High freq. dielectric constant tensor:
#      x y z
#    x 1.490570 0.000000 0.000000 
#    y 0.000000 1.490570 0.000000 
#    z 0.000000 0.000000 1.555280 
# 
# From -- ./inp_files/961.got.cif
#   From: 2010.03.12/outbox.cif.g09.slc.cpg/sg108_1_cif.got.tgz:961.got - 2010.04.14 01:53:11.
