data_PCOD8307510
_publ_section_title
;
Structure prediction by ZEFSAII (Michael W. Deem and Ramdas Pophale) SiO2 
 PCOD8307510
Probable space group: I 4 M M
;
_chemical_formula_sum "Si O2"
_cell_formula_units_Z 128
_cell_length_a 18.039659
_cell_length_b 18.039659
_cell_length_c 22.656536
_cell_angle_alpha 90.000000
_cell_angle_beta 90.000000
_cell_angle_gamma 90.000000
_cell_volume 7373.100579
_symmetry_space_group_name_H-M "I 4 M M"
_symmetry_group_IT_number 107
_symmetry_cell_setting 'tetragonal'
loop_
_space_group_symop_operation_xyz
x,y,z
-y,x,z
-x,-y,z
y,-x,z
-x,y,z
x,-y,z
-y,-x,z
y,x,z
1/2+x,1/2+y,1/2+z
1/2-y,1/2+x,1/2+z
1/2-x,1/2-y,1/2+z
1/2+y,1/2-x,1/2+z
1/2-x,1/2+y,1/2+z
1/2+x,1/2-y,1/2+z
1/2-y,1/2-x,1/2+z
1/2+y,1/2+x,1/2+z
loop_
_atom_site_type_symbol
_atom_site_label
_atom_site_fract_x
_atom_site_fract_y
_atom_site_fract_z
Si Si1 0.084816 0.300956 0.701330
Si Si2 0.708506 0.415369 0.993107
Si Si3 0.587006 0.707703 0.547499
Si Si4 0.415550 0.700822 0.311689
Si Si5 0.584005 0.917264 0.795519
Si Si6 0.082476 0.335081 0.413594
Si Si7 0.416083 0.778325 0.427890
Si Si8 0.175587 0.298651 0.583338
O O1 0.097557 0.234690 0.747362
O O2 0.105975 0.375467 0.735862
O O3 0.140724 0.294243 0.647807
O O4 0.000000 0.301668 0.678441
O O5 0.685539 0.500000 0.009251
O O6 0.635022 0.364979 0.995006
O O7 0.746752 0.413127 0.927815
O O8 0.773839 0.388232 0.037273
O O9 0.500000 0.699856 0.566969
O O10 0.634577 0.634577 0.566965
O O11 0.593202 0.713967 0.476486
O O12 0.621194 0.784850 0.573657
O O13 0.500000 0.685670 0.326370
O O14 0.378418 0.621583 0.312964
O O15 0.383370 0.752389 0.364430
O O16 0.500000 0.922605 0.776987
O O17 0.597029 0.854876 0.845150
O O18 0.612669 0.000000 0.816413
O O19 0.147924 0.373908 0.450528
O O20 0.000000 0.364555 0.431631
O O21 0.500000 0.802945 0.420915
O O22 0.239965 0.239965 0.576656
#
# Coordination Sequence:
#
# PCOD8307510 Si02
#       8
#    16  16  16  16  16  16  16  16
#     4  10  19  32  50  72  99 133 170 206 249 302
#     4  10  21  36  54  76 101 133 172 215 264 314
#     4  10  21  36  55  78 105 138 173 211 255 301
#     4  10  20  32  48  71  98 132 172 211 252 298
#     4   9  17  30  48  71 102 137 166 196 241 298
#     4  10  18  30  50  75 103 132 166 206 249 302
#     4  10  18  31  50  75 105 136 169 205 249 302
#     4  10  20  35  53  73 100 134 171 216 262 303
#
# _framework density 17.360403000000002
#
# number of rings (size 3 to 8) (size 9 to 14) (size 15 to 20)
#    0.000    2.125    2.500    1.500    0.000    2.125 
#    0.000    0.000    0.000    3.375    0.000    1.750 
#    0.000    0.000    0.000    3.750    0.000    0.000 
#
# Total GULP energy -792904.786774 kJ/mol
# GULP energy per Si atom -12389.137293 kJ/mol
# Density = 1.732089 g / cm^3
# Si number density = 17.360403 Si / 1000 Ang^3
#
#
#
# Elastic Constant Matrix: (Units=GPa)
#
#
# Indices 1 2 3 4 5 6 
#
# 1 83.7799 45.8833 20.6429 0.0000 0.0000 -0.0001
# 2 45.8833 83.7799 20.6429 0.0000 0.0000 0.0001
# 3 20.6429 20.6429 59.9862 0.0000 0.0000 0.0000
# 4 0.0000 0.0000 0.0000 23.8702 0.0000 0.0000
# 5 0.0000 0.0000 0.0000 0.0000 23.8702 0.0000
# 6 -0.0001 0.0001 0.0000 0.0000 0.0000 20.5692
#
#
#
# Elastic Compliance Matrix: (Units=1/GPa)
#
#
# Indices 1 2 3 4 5 6 
#
# 1 0.017524 -0.008863 -0.002981 0.000000 0.000000 0.000000
# 2 -0.008863 0.017524 -0.002981 0.000000 0.000000 0.000000
# 3 -0.002981 -0.002981 0.018722 0.000000 0.000000 0.000000
# 4 0.000000 0.000000 0.000000 0.041893 0.000000 0.000000
# 5 0.000000 0.000000 0.000000 0.000000 0.041893 0.000000
# 6 0.000000 0.000000 0.000000 0.000000 0.000000 0.048616
#
#
# Mechanical properties :
#
#
# Convention : Reuss Voigt Hill
#
# Bulk Modulus (GPa) = 41.45563 44.65380 43.05471
# Shear Modulus (GPa) = 22.33508 23.02038 22.67773
#
# Velocity S-wave (km/s) = 3.59075 3.64542 3.61819
# Velocity P-wave (km/s) = 6.41269 6.59517 6.50457
#
# Compressibility (1/GPa) = 0.02412218
#
# Stress axis : x y z
#
# Youngs Moduli (GPa) = 57.06308 57.06308 53.41340
#
# Poissons Ratio (x) = 0.50576 0.15920
# Poissons Ratio (y) = 0.50576 0.15920
# Poissons Ratio (z) = 0.17008 0.17008
#
# Static dielectric constant tensor:
#      x y z
#    x 3.282250 0.000000 0.000000 
#    y 0.000000 3.282250 0.000000 
#    z 0.000000 0.000000 3.091300 
# 
# 
# High freq. dielectric constant tensor:
#      x y z
#    x 1.666680 0.000000 0.000000 
#    y 0.000000 1.666680 0.000000 
#    z 0.000000 0.000000 1.653670 
# 
# From -- ./inp_files/5478.got.cif
#   From: 2010.03.12/outbox.cif.g09.slc.cpg/sg107_3_cif.got.tgz:5478.got - 2010.04.14 01:49:11.
