data_PCOD8307150
_publ_section_title
;
Structure prediction by ZEFSAII (Michael W. Deem and Ramdas Pophale) SiO2 
 PCOD8307150
Probable space group: P 42 M C
;
_chemical_formula_sum "Si O2"
_cell_formula_units_Z 40
_cell_length_a 8.048657
_cell_length_b 8.048657
_cell_length_c 29.089564
_cell_angle_alpha 90.000000
_cell_angle_beta 90.000000
_cell_angle_gamma 90.000000
_cell_volume 1884.447540
_symmetry_space_group_name_H-M "P 42 M C"
_symmetry_group_IT_number 105
_symmetry_cell_setting 'tetragonal'
loop_
_space_group_symop_operation_xyz
x,y,z
-y,x,1/2+z
-x,-y,z
y,-x,1/2+z
-x,y,z
x,-y,z
-y,-x,1/2+z
y,x,1/2+z
loop_
_atom_site_type_symbol
_atom_site_label
_atom_site_fract_x
_atom_site_fract_y
_atom_site_fract_z
Si Si1 0.803641 0.312625 0.501810
Si Si2 0.301718 0.500000 0.251341
Si Si3 0.819159 0.693416 0.908818
Si Si4 0.815540 0.803886 0.098026
Si Si5 0.301544 0.500000 0.356134
Si Si6 0.691797 0.185791 0.195914
O O1 0.751658 0.500000 0.490621
O O2 0.723044 0.197575 0.463176
O O3 0.729459 0.266248 0.551865
O O4 0.000000 0.287615 0.500857
O O5 0.500000 0.500000 0.246762
O O6 0.241185 0.500000 0.303725
O O7 0.229342 0.669009 0.227814
O O8 0.818916 0.500000 0.898315
O O9 0.665340 0.774155 0.880610
O O10 0.000000 0.766651 0.893387
O O11 0.711443 0.755591 0.143144
O O12 0.000000 0.730635 0.103589
O O13 0.819885 0.000000 0.092628
O O14 0.500000 0.500000 0.359820
O O15 0.500000 0.170181 0.207913
O O16 0.773026 0.000000 0.203907
#
# Coordination Sequence:
#
# PCOD8307150 Si02
#       6
#     8   4   8   8   4   8
#     4  10  19  32  53  79 107 142 182 223 272 327
#     4   9  18  32  53  79 103 133 179 227 277 332
#     4  10  20  34  53  77 107 143 182 225 279 338
#     4   9  17  30  49  73 102 137 174 211 259 321
#     4   9  18  34  53  75 107 139 175 231 283 330
#     4   9  17  31  51  74 101 131 171 224 274 326
#
# _framework density 21.226381
#
# number of rings (size 3 to 8) (size 9 to 14) (size 15 to 20)
#    0.000    2.600    1.000    1.200    0.000    4.400 
#    1.800    4.500    0.000    2.400    0.000    2.800 
#    0.000    0.000    0.000    0.000    0.000    0.000 
#
# Total GULP energy -495705.810769 kJ/mol
# GULP energy per Si atom -12392.645269 kJ/mol
# Density = 2.117807 g / cm^3
# Si number density = 21.226381 Si / 1000 Ang^3
#
#
#
# Elastic Constant Matrix: (Units=GPa)
#
#
# Indices 1 2 3 4 5 6 
#
# 1 83.2551 24.2952 43.6886 0.0000 0.0000 0.0000
# 2 24.2952 83.2551 43.6886 0.0000 0.0000 0.0000
# 3 43.6886 43.6886 159.9129 0.0000 0.0000 0.0000
# 4 0.0000 0.0000 0.0000 14.2091 0.0000 0.0000
# 5 0.0000 0.0000 0.0000 0.0000 14.2091 0.0000
# 6 0.0000 0.0000 0.0000 0.0000 0.0000 10.3866
#
#
#
# Elastic Compliance Matrix: (Units=1/GPa)
#
#
# Indices 1 2 3 4 5 6 
#
# 1 0.014456 -0.002505 -0.003265 0.000000 0.000000 0.000000
# 2 -0.002505 0.014456 -0.003265 0.000000 0.000000 0.000000
# 3 -0.003265 -0.003265 0.008037 0.000000 0.000000 0.000000
# 4 0.000000 0.000000 0.000000 0.070377 0.000000 0.000000
# 5 0.000000 0.000000 0.000000 0.000000 0.070377 0.000000
# 6 0.000000 0.000000 0.000000 0.000000 0.000000 0.096278
#
#
# Mechanical properties :
#
#
# Convention : Reuss Voigt Hill
#
# Bulk Modulus (GPa) = 52.96972 61.08532 57.02752
# Shear Modulus (GPa) = 16.75919 22.07769 19.41844
#
# Velocity S-wave (km/s) = 2.81293 3.22857 3.02789
# Velocity P-wave (km/s) = 5.96313 6.53748 6.25690
#
# Compressibility (1/GPa) = 0.01887871
#
# Stress axis : x y z
#
# Youngs Moduli (GPa) = 69.17748 69.17748 124.41901
#
# Poissons Ratio (x) = 0.17330 0.40621
# Poissons Ratio (y) = 0.17330 0.40621
# Poissons Ratio (z) = 0.22586 0.22586
#
# Static dielectric constant tensor:
#      x y z
#    x 3.809720 0.000000 0.000000 
#    y 0.000000 3.809720 0.000000 
#    z 0.000000 0.000000 3.856340 
# 
# 
# High freq. dielectric constant tensor:
#      x y z
#    x 1.810780 0.000000 0.000000 
#    y 0.000000 1.810780 0.000000 
#    z 0.000000 0.000000 1.828180 
# 
# From -- ./inp_files/4243.got.cif
#   From: 2010.03.12/outbox.cif.g09.slc.cpg/sg105_3_cif.got.tgz:4243.got - 2010.04.14 01:45:32.
