data_PCOD8307110
_publ_section_title
;
Structure prediction by ZEFSAII (Michael W. Deem and Ramdas Pophale) SiO2 
 PCOD8307110
Probable space group: P 42 M C
;
_chemical_formula_sum "Si O2"
_cell_formula_units_Z 32
_cell_length_a 16.662880
_cell_length_b 16.662880
_cell_length_c 5.339643
_cell_angle_alpha 90.000000
_cell_angle_beta 90.000000
_cell_angle_gamma 90.000000
_cell_volume 1482.560262
_symmetry_space_group_name_H-M "P 42 M C"
_symmetry_group_IT_number 105
_symmetry_cell_setting 'tetragonal'
loop_
_space_group_symop_operation_xyz
x,y,z
-y,x,1/2+z
-x,-y,z
y,-x,1/2+z
-x,y,z
x,-y,z
-y,-x,1/2+z
y,x,1/2+z
loop_
_atom_site_type_symbol
_atom_site_label
_atom_site_fract_x
_atom_site_fract_y
_atom_site_fract_z
Si Si1 0.677836 0.177053 0.078600
Si Si2 0.164836 0.410642 0.078600
Si Si3 0.090996 0.843288 0.578600
Si Si4 0.370328 0.340879 0.578600
O O1 0.635776 0.139205 0.325688
O O2 0.769725 0.152381 0.078600
O O3 0.676197 0.273808 0.078600
O O4 0.635776 0.139205 0.831512
O O5 0.126812 0.500000 0.078600
O O6 0.260541 0.421274 0.078600
O O7 0.104465 0.895535 0.328600
O O8 0.000000 0.811432 0.578600
O O9 0.391431 0.391431 0.328600
#
# Coordination Sequence:
#
# PCOD8307110 Si02
#       4
#     8   8   8   8
#     4  10  19  35  55  78 111 151 193 233 281 347
#     4  10  18  29  51  82 113 144 187 244 286 320
#     4  12  25  42  65  90 117 152 192 239 297 357
#     4   8  14  25  43  66  97 132 172 220 268 314
#
# _framework density 21.584284
#
# number of rings (size 3 to 8) (size 9 to 14) (size 15 to 20)
#    0.000    2.000    0.000    7.500    0.000    1.500 
#    0.000    0.000    0.000    4.500    0.000    0.000 
#    0.000  243.000    0.000    0.000    0.000    0.000 
#
# Total GULP energy -396518.407315 kJ/mol
# GULP energy per Si atom -12391.200229 kJ/mol
# Density = 2.153516 g / cm^3
# Si number density = 21.584284 Si / 1000 Ang^3
#
#
#
# Elastic Constant Matrix: (Units=GPa)
#
#
# Indices 1 2 3 4 5 6 
#
# 1 70.2404 -1.6480 20.8092 0.0000 0.0000 0.0000
# 2 -1.6480 70.2404 20.8092 0.0000 0.0000 0.0000
# 3 20.8092 20.8092 235.8916 0.0000 0.0000 0.0000
# 4 0.0000 0.0000 0.0000 18.4688 0.0000 0.0000
# 5 0.0000 0.0000 0.0000 0.0000 18.4688 0.0000
# 6 0.0000 0.0000 0.0000 0.0000 0.0000 4.5841
#
#
#
# Elastic Compliance Matrix: (Units=1/GPa)
#
#
# Indices 1 2 3 4 5 6 
#
# 1 0.014657 0.000746 -0.001359 0.000000 0.000000 0.000000
# 2 0.000746 0.014657 -0.001359 0.000000 0.000000 0.000000
# 3 -0.001359 -0.001359 0.004479 0.000000 0.000000 0.000000
# 4 0.000000 0.000000 0.000000 0.054145 0.000000 0.000000
# 5 0.000000 0.000000 0.000000 0.000000 0.054145 0.000000
# 6 0.000000 0.000000 0.000000 0.000000 0.000000 0.218147
#
#
# Mechanical properties :
#
#
# Convention : Reuss Voigt Hill
#
# Bulk Modulus (GPa) = 33.50038 50.70147 42.10092
# Shear Modulus (GPa) = 13.36460 30.73111 22.04785
#
# Velocity S-wave (km/s) = 2.49104 3.77738 3.19952
# Velocity P-wave (km/s) = 4.88140 6.52425 5.76168
#
# Compressibility (1/GPa) = 0.02985041
#
# Stress axis : x y z
#
# Youngs Moduli (GPa) = 68.22725 68.22725 223.26558
#
# Poissons Ratio (x) = -0.05093 0.30338
# Poissons Ratio (y) = -0.05093 0.30338
# Poissons Ratio (z) = 0.09271 0.09271
#
# Static dielectric constant tensor:
#      x y z
#    x 3.377560 0.000000 0.000000 
#    y 0.000000 3.377560 0.000000 
#    z 0.000000 0.000000 5.252800 
# 
# 
# High freq. dielectric constant tensor:
#      x y z
#    x 1.804520 0.000000 0.000000 
#    y 0.000000 1.804520 0.000000 
#    z 0.000000 0.000000 1.891550 
# 
# From -- ./inp_files/169.got.cif
#   From: 2010.03.12/outbox.cif.g09.slc.cpg/sg105_1_cif.got.tgz:169.got - 2010.04.14 01:45:32.
