data_PCOD8307935
_publ_section_title
;
Structure prediction by ZEFSAII (Michael W. Deem and Ramdas Pophale) SiO2 
 PCOD8307935
Probable space group: I 41 M D
;
_chemical_formula_sum "Si O2"
_cell_formula_units_Z 128
_cell_length_a 21.689380
_cell_length_b 21.689380
_cell_length_c 14.350816
_cell_angle_alpha 90.000000
_cell_angle_beta 90.000000
_cell_angle_gamma 90.000000
_cell_volume 6751.042959
_symmetry_space_group_name_H-M "I 41 M D"
_symmetry_group_IT_number 109
_symmetry_cell_setting 'tetragonal'
loop_
_space_group_symop_operation_xyz
x,y,z
-y,1/2+x,1/4+z
-x,-y,z
y,1/2-x,1/4+z
-x,y,z
x,-y,z
-y,1/2-x,1/4+z
y,1/2+x,1/4+z
1/2+x,1/2+y,1/2+z
1/2-y,x,3/4+z
1/2-x,1/2-y,1/2+z
1/2+y,-x,3/4+z
1/2-x,1/2+y,1/2+z
1/2+x,1/2-y,1/2+z
1/2-y,-x,3/4+z
1/2+y,x,3/4+z
loop_
_atom_site_type_symbol
_atom_site_label
_atom_site_fract_x
_atom_site_fract_y
_atom_site_fract_z
Si Si1 0.192808 0.104894 0.776820
Si Si2 0.566618 0.243175 0.846990
Si Si3 0.261206 0.664619 0.744005
Si Si4 0.430431 0.397603 0.374924
Si Si5 0.604894 0.692808 0.671894
Si Si6 0.756825 0.433382 0.101724
Si Si7 0.761206 0.664619 0.954709
Si Si8 0.102397 0.930431 0.073790
O O1 0.128628 0.076129 0.817210
O O2 0.250000 0.110767 0.849357
O O3 0.213973 0.061895 0.692423
O O4 0.176472 0.168436 0.726971
O O5 0.500000 0.243254 0.895808
O O6 0.614027 0.267463 0.924304
O O7 0.561895 0.286027 0.756291
O O8 0.583708 0.174721 0.811870
O O9 0.331564 0.676472 0.721743
O O10 0.250000 0.641919 0.849357
O O11 0.229080 0.729080 0.724357
O O12 0.500000 0.409094 0.331420
O O13 0.416292 0.325279 0.386844
O O14 0.430492 0.430493 0.474357
O O15 0.576129 0.628628 0.631504
O O16 0.756746 0.500000 0.052906
O O17 0.732537 0.385973 0.024410
O O18 0.090906 0.000000 0.117294
#
# Coordination Sequence:
#
# PCOD8307935 Si02
#       8
#    16  16  16  16  16  16  16  16
#     4  11  21  34  59  85 114 149 187 232 283 343
#     4  10  22  37  55  83 114 148 189 230 282 343
#     4  11  21  34  57  85 111 139 184 235 288 329
#     4  10  21  36  54  82 118 153 190 234 285 339
#     4  11  21  34  59  85 114 149 187 232 283 343
#     4  10  22  37  55  83 114 148 189 230 282 343
#     4  11  21  34  57  85 111 139 184 235 288 329
#     4  10  21  36  54  82 118 153 190 234 285 339
#
# _framework density 18.960034
#
# number of rings (size 3 to 8) (size 9 to 14) (size 15 to 20)
#    0.000    1.500    5.000    0.750    3.500    2.250 
#    0.000    0.000    0.000    0.000    0.000    0.000 
#    0.000    0.000    0.000    0.000    0.000    0.000 
#
# Total GULP energy -792978.156703 kJ/mol
# GULP energy per Si atom -12390.283698 kJ/mol
# Density = 1.891688 g / cm^3
# Si number density = 18.960034 Si / 1000 Ang^3
#
#
#
# Elastic Constant Matrix: (Units=GPa)
#
#
# Indices 1 2 3 4 5 6 
#
# 1 76.3723 6.7645 23.1368 0.0000 0.0000 0.0000
# 2 6.7645 76.3723 23.1368 0.0000 0.0000 0.0000
# 3 23.1368 23.1368 104.6213 0.0000 0.0000 0.0000
# 4 0.0000 0.0000 0.0000 17.6446 0.0000 0.0000
# 5 0.0000 0.0000 0.0000 0.0000 17.6446 0.0000
# 6 0.0000 0.0000 0.0000 0.0000 0.0000 8.6765
#
#
#
# Elastic Compliance Matrix: (Units=1/GPa)
#
#
# Indices 1 2 3 4 5 6 
#
# 1 0.014041 -0.000325 -0.003033 0.000000 0.000000 0.000000
# 2 -0.000325 0.014041 -0.003033 0.000000 0.000000 0.000000
# 3 -0.003033 -0.003033 0.010900 0.000000 0.000000 0.000000
# 4 0.000000 0.000000 0.000000 0.056675 0.000000 0.000000
# 5 0.000000 0.000000 0.000000 0.000000 0.056675 0.000000
# 6 0.000000 0.000000 0.000000 0.000000 0.000000 0.115254
#
#
# Mechanical properties :
#
#
# Convention : Reuss Voigt Hill
#
# Bulk Modulus (GPa) = 38.16829 40.38245 39.27537
# Shear Modulus (GPa) = 17.29492 22.41499 19.85495
#
# Velocity S-wave (km/s) = 3.02350 3.44208 3.23956
# Velocity P-wave (km/s) = 5.68888 6.09444 5.89515
#
# Compressibility (1/GPa) = 0.02619976
#
# Stress axis : x y z
#
# Youngs Moduli (GPa) = 71.21748 71.21748 91.74344
#
# Poissons Ratio (x) = 0.02313 0.27830
# Poissons Ratio (y) = 0.02313 0.27830
# Poissons Ratio (z) = 0.21603 0.21603
#
# Static dielectric constant tensor:
#      x y z
#    x 3.549340 0.000000 0.000000 
#    y 0.000000 3.549340 0.000000 
#    z 0.000000 0.000000 3.526060 
# 
# 
# High freq. dielectric constant tensor:
#      x y z
#    x 1.734430 0.000000 0.000000 
#    y 0.000000 1.734430 0.000000 
#    z 0.000000 0.000000 1.722180 
# 
# From -- ./inp_files/2197.got.cif
#   From: 2010.03.12/outbox.cif.g09.slc.cpg/sg109_2_cif.got.tgz:2197.got - 2010.04.14 01:55:16.
