data_PCOD8307275
_publ_section_title
;
Structure prediction by ZEFSAII (Michael W. Deem and Ramdas Pophale) SiO2 
 PCOD8307275
Probable space group: P 42 M C
;
_chemical_formula_sum "Si O2"
_cell_formula_units_Z 32
_cell_length_a 7.988281
_cell_length_b 7.988281
_cell_length_c 23.806404
_cell_angle_alpha 90.000000
_cell_angle_beta 90.000000
_cell_angle_gamma 90.000000
_cell_volume 1519.149329
_symmetry_space_group_name_H-M "P 42 M C"
_symmetry_group_IT_number 105
_symmetry_cell_setting 'tetragonal'
loop_
_space_group_symop_operation_xyz
x,y,z
-y,x,1/2+z
-x,-y,z
y,-x,1/2+z
-x,y,z
x,-y,z
-y,-x,1/2+z
y,x,1/2+z
loop_
_atom_site_type_symbol
_atom_site_label
_atom_site_fract_x
_atom_site_fract_y
_atom_site_fract_z
Si Si1 0.308816 0.195457 0.495550
Si Si2 0.691423 0.814991 0.880892
Si Si3 0.188991 0.500000 0.812468
Si Si4 0.186473 0.195532 0.118825
Si Si5 0.500000 0.799080 0.188915
O O1 0.500000 0.255089 0.494738
O O2 0.208574 0.292796 0.447600
O O3 0.229753 0.242045 0.555137
O O4 0.292840 0.000000 0.482554
O O5 0.500000 0.805651 0.863210
O O6 0.782106 0.667032 0.848001
O O7 0.763389 0.000000 0.864929
O O8 0.280212 0.500000 0.751862
O O9 0.000000 0.500000 0.794163
O O10 0.330719 0.271202 0.159087
O O11 0.000000 0.274948 0.130555
O O12 0.173151 0.000000 0.129063
O O13 0.500000 0.000000 0.185212
#
# Coordination Sequence:
#
# PCOD8307275 Si02
#       5
#     8   8   4   8   4
#     4  10  20  35  57  87 122 155 193 247 305 364
#     4  11  24  40  60  87 120 161 204 253 314 373
#     4  11  23  41  63  89 121 161 207 260 307 362
#     4   9  18  34  56  83 116 153 196 248 304 366
#     4   9  20  37  59  85 115 153 203 252 301 361
#
# _framework density 21.064422
#
# number of rings (size 3 to 8) (size 9 to 14) (size 15 to 20)
#    0.000    2.000    1.250    1.875    1.750    4.000 
#    0.000    5.000    0.000    3.000    0.000    0.000 
#    0.000    0.000    0.000    0.000    0.000    0.000 
#
# Total GULP energy -396649.469232 kJ/mol
# GULP energy per Si atom -12395.295914 kJ/mol
# Density = 2.101648 g / cm^3
# Si number density = 21.064422 Si / 1000 Ang^3
#
#
#
# Elastic Constant Matrix: (Units=GPa)
#
#
# Indices 1 2 3 4 5 6 
#
# 1 82.5949 35.0212 43.2939 0.0000 0.0000 0.0000
# 2 35.0212 82.5949 43.2939 0.0000 0.0000 0.0000
# 3 43.2939 43.2939 147.5496 0.0000 0.0000 0.0000
# 4 0.0000 0.0000 0.0000 53.2523 0.0000 0.0000
# 5 0.0000 0.0000 0.0000 0.0000 53.2523 0.0000
# 6 0.0000 0.0000 0.0000 0.0000 0.0000 -1.4864
#
#
#
# Elastic Compliance Matrix: (Units=1/GPa)
#
#
# Indices 1 2 3 4 5 6 
#
# 1 0.015932 -0.005088 -0.003182 0.000000 0.000000 0.000000
# 2 -0.005088 0.015932 -0.003182 0.000000 0.000000 0.000000
# 3 -0.003182 -0.003182 0.008645 0.000000 0.000000 0.000000
# 4 0.000000 0.000000 0.000000 0.018779 0.000000 0.000000
# 5 0.000000 0.000000 0.000000 0.000000 0.018779 0.000000
# 6 0.000000 0.000000 0.000000 0.000000 0.000000 -0.672760
#
#
# Mechanical properties :
#
#
# Convention : Reuss Voigt Hill
#
# Bulk Modulus (GPa) = 56.79845 61.77304 59.28574
# Shear Modulus (GPa) = -8.83515 33.74568 12.45526
#
# Velocity S-wave (km/s) = -2.05023 4.00687 2.43429
# Velocity P-wave (km/s) = 4.62797 7.12714 6.00892
#
# Compressibility (1/GPa) = 0.01760611
#
# Stress axis : x y z
#
# Youngs Moduli (GPa) = 62.76509 62.76509 115.67711
#
# Poissons Ratio (x) = 0.31932 0.36809
# Poissons Ratio (y) = 0.31932 0.36809
# Poissons Ratio (z) = 0.19972 0.19972
#
# Static dielectric constant tensor:
#      x y z
#    x 3.820700 0.000000 0.000000 
#    y 0.000000 3.820700 0.000000 
#    z 0.000000 0.000000 3.755080 
# 
# 
# High freq. dielectric constant tensor:
#      x y z
#    x 1.820610 0.000000 0.000000 
#    y 0.000000 1.820610 0.000000 
#    z 0.000000 0.000000 1.820340 
# 
# From -- ./inp_files/3865.got.cif
#   From: 2010.03.12/outbox.cif.g09.slc.cpg/sg105_2_cif.got.tgz:3865.got - 2010.04.14 01:45:32.
