data_PCOD8307858
_publ_section_title
;
Structure prediction by ZEFSAII (Michael W. Deem and Ramdas Pophale) SiO2 
 PCOD8307858
Probable space group: I 41 M D
;
_chemical_formula_sum "Si O2"
_cell_formula_units_Z 128
_cell_length_a 18.186204
_cell_length_b 18.186204
_cell_length_c 21.684303
_cell_angle_alpha 90.000000
_cell_angle_beta 90.000000
_cell_angle_gamma 90.000000
_cell_volume 7171.823351
_symmetry_space_group_name_H-M "I 41 M D"
_symmetry_group_IT_number 109
_symmetry_cell_setting 'tetragonal'
loop_
_space_group_symop_operation_xyz
x,y,z
-y,1/2+x,1/4+z
-x,-y,z
y,1/2-x,1/4+z
-x,y,z
x,-y,z
-y,1/2-x,1/4+z
y,1/2+x,1/4+z
1/2+x,1/2+y,1/2+z
1/2-y,x,3/4+z
1/2-x,1/2-y,1/2+z
1/2+y,-x,3/4+z
1/2-x,1/2+y,1/2+z
1/2+x,1/2-y,1/2+z
1/2-y,-x,3/4+z
1/2+y,x,3/4+z
loop_
_atom_site_type_symbol
_atom_site_label
_atom_site_fract_x
_atom_site_fract_y
_atom_site_fract_z
Si Si1 0.773786 0.580272 0.446610
Si Si2 0.418798 0.304097 0.967338
Si Si3 0.585019 0.226053 0.348767
Si Si4 0.283258 0.176234 0.707881
Si Si5 0.233137 0.137036 0.463087
Si Si6 0.917070 0.645213 0.414772
Si Si7 0.823486 0.418649 0.317507
Si Si8 0.828726 0.418477 0.855181
O O1 0.758460 0.500000 0.476808
O O2 0.715779 0.639287 0.470181
O O3 0.859287 0.603440 0.460191
O O4 0.763939 0.575775 0.372576
O O5 0.500000 0.339342 0.955988
O O6 0.354351 0.360597 0.948497
O O7 0.408875 0.285982 0.040218
O O8 0.411005 0.231659 0.926471
O O9 0.500000 0.236927 0.365773
O O10 0.635220 0.277788 0.392156
O O11 0.598336 0.249187 0.278226
O O12 0.606202 0.140912 0.360897
O O13 0.219886 0.236497 0.714811
O O14 0.278938 0.116131 0.761260
O O15 0.269715 0.090064 0.409419
O O16 0.893219 0.628909 0.343440
O O17 0.000000 0.616809 0.426889
O O18 0.851568 0.500000 0.298565
O O19 0.863774 0.500000 0.860119
#
# Coordination Sequence:
#
# PCOD8307858 Si02
#       8
#    16  16  16  16  16  16  16  16
#     4   9  19  33  49  74 102 134 174 214 257 303
#     4   9  17  31  50  76 104 136 170 209 259 306
#     4  10  21  33  53  80 102 133 172 213 260 310
#     4  11  19  33  52  75 105 135 173 217 261 308
#     4  10  18  32  54  77 104 136 171 213 255 314
#     4   9  17  32  52  73 101 135 175 216 252 306
#     4   9  19  32  48  68  98 135 173 213 259 307
#     4   9  19  33  53  77 105 137 168 211 262 310
#
# _framework density 17.847622999999999
#
# number of rings (size 3 to 8) (size 9 to 14) (size 15 to 20)
#    0.750    1.750    1.250    1.500    0.000    2.750 
#    0.000    0.000    0.000    3.000    0.000    3.500 
#    0.000    0.000    0.000    0.000    0.000    0.000 
#
# Total GULP energy -792961.409776 kJ/mol
# GULP energy per Si atom -12390.022028 kJ/mol
# Density = 1.780700 g / cm^3
# Si number density = 17.847623 Si / 1000 Ang^3
#
#
#
# Elastic Constant Matrix: (Units=GPa)
#
#
# Indices 1 2 3 4 5 6 
#
# 1 75.0234 19.7479 9.2075 0.0000 0.0000 0.0000
# 2 19.7479 75.0234 9.2075 0.0000 0.0000 0.0000
# 3 9.2075 9.2075 43.9966 0.0000 0.0000 0.0000
# 4 0.0000 0.0000 0.0000 22.0310 0.0000 0.0000
# 5 0.0000 0.0000 0.0000 0.0000 22.0310 0.0000
# 6 0.0000 0.0000 0.0000 0.0000 0.0000 13.6450
#
#
#
# Elastic Compliance Matrix: (Units=1/GPa)
#
#
# Indices 1 2 3 4 5 6 
#
# 1 0.014545 -0.003546 -0.002302 0.000000 0.000000 0.000000
# 2 -0.003546 0.014545 -0.002302 0.000000 0.000000 0.000000
# 3 -0.002302 -0.002302 0.023692 0.000000 0.000000 0.000000
# 4 0.000000 0.000000 0.000000 0.045391 0.000000 0.000000
# 5 0.000000 0.000000 0.000000 0.000000 0.045391 0.000000
# 6 0.000000 0.000000 0.000000 0.000000 0.000000 0.073287
#
#
# Mechanical properties :
#
#
# Convention : Reuss Voigt Hill
#
# Bulk Modulus (GPa) = 27.40995 30.04100 28.72547
# Shear Modulus (GPa) = 20.38227 21.93344 21.15785
#
# Velocity S-wave (km/s) = 3.38304 3.50941 3.44680
# Velocity P-wave (km/s) = 5.53634 5.76973 5.65424
#
# Compressibility (1/GPa) = 0.03648311
#
# Stress axis : x y z
#
# Youngs Moduli (GPa) = 68.75171 68.75171 42.20753
#
# Poissons Ratio (x) = 0.24380 0.09715
# Poissons Ratio (y) = 0.24380 0.09715
# Poissons Ratio (z) = 0.15825 0.15825
#
# Static dielectric constant tensor:
#      x y z
#    x 3.210160 0.000000 0.000000 
#    y 0.000000 3.210160 0.000000 
#    z 0.000000 0.000000 3.177430 
# 
# 
# High freq. dielectric constant tensor:
#      x y z
#    x 1.680650 0.000000 0.000000 
#    y 0.000000 1.680650 0.000000 
#    z 0.000000 0.000000 1.678800 
# 
# From -- ./inp_files/4536.got.cif
#   From: 2010.03.12/outbox.cif.g09.slc.cpg/sg109_3_cif.got.tgz:4536.got - 2010.04.14 01:55:16.
