data_PCOD8307519
_publ_section_title
;
Structure prediction by ZEFSAII (Michael W. Deem and Ramdas Pophale) SiO2 
 PCOD8307519
Probable space group: I 4 M M
;
_chemical_formula_sum "Si O2"
_cell_formula_units_Z 96
_cell_length_a 22.606316
_cell_length_b 22.606316
_cell_length_c 10.290468
_cell_angle_alpha 90.000000
_cell_angle_beta 90.000000
_cell_angle_gamma 90.000000
_cell_volume 5258.897602
_symmetry_space_group_name_H-M "I 4 M M"
_symmetry_group_IT_number 107
_symmetry_cell_setting 'tetragonal'
loop_
_space_group_symop_operation_xyz
x,y,z
-y,x,z
-x,-y,z
y,-x,z
-x,y,z
x,-y,z
-y,-x,z
y,x,z
1/2+x,1/2+y,1/2+z
1/2-y,1/2+x,1/2+z
1/2-x,1/2-y,1/2+z
1/2+y,1/2-x,1/2+z
1/2-x,1/2+y,1/2+z
1/2+x,1/2-y,1/2+z
1/2-y,1/2-x,1/2+z
1/2+y,1/2+x,1/2+z
loop_
_atom_site_type_symbol
_atom_site_label
_atom_site_fract_x
_atom_site_fract_y
_atom_site_fract_z
Si Si1 0.634203 0.934040 0.445210
Si Si2 0.164546 0.931347 0.919021
Si Si3 0.233918 0.068615 0.175933
Si Si4 0.565145 0.274502 0.959595
Si Si5 0.643327 0.870351 0.185650
Si Si6 0.769369 0.863840 0.706341
O O1 0.704179 0.937383 0.454542
O O2 0.616216 0.899724 0.314483
O O3 0.609331 0.899180 0.569172
O O4 0.606859 0.000000 0.443168
O O5 0.104086 0.895915 0.893878
O O6 0.215288 0.910267 0.819755
O O7 0.151274 0.000000 0.895735
O O8 0.186229 0.918708 0.065003
O O9 0.203927 0.084771 0.315406
O O10 0.291150 0.108368 0.150464
O O11 0.254085 0.000000 0.176930
O O12 0.500000 0.299716 0.994402
O O13 0.610991 0.294471 0.069645
O O14 0.646378 0.800143 0.204842
O O15 0.801304 0.801304 0.732843
#
# Coordination Sequence:
#
# PCOD8307519 Si02
#       6
#    16  16  16  16  16  16
#     4   9  18  32  51  72  93 127 173 208 239 292
#     4  10  21  36  53  75 103 136 177 220 260 306
#     4   9  18  33  53  75  99 132 172 210 254 313
#     4   8  15  30  50  69  92 125 163 198 236 291
#     4  10  18  33  53  74 103 134 164 205 257 305
#     4  10  20  31  47  76 107 132 161 201 254 313
#
# _framework density 18.254776
#
# number of rings (size 3 to 8) (size 9 to 14) (size 15 to 20)
#    0.000    2.667    0.000    3.000    0.000    2.167 
#    0.000   11.667    0.000    4.000    0.000    0.000 
#    0.000    4.000    0.000    0.000    0.000    0.000 
#
# Total GULP energy -595118.580823 kJ/mol
# GULP energy per Si atom -12398.303767 kJ/mol
# Density = 1.821323 g / cm^3
# Si number density = 18.254776 Si / 1000 Ang^3
#
#
#
# Elastic Constant Matrix: (Units=GPa)
#
#
# Indices 1 2 3 4 5 6 
#
# 1 76.3631 37.4186 32.1641 0.0000 0.0000 -0.0002
# 2 37.4186 76.3631 32.1641 0.0000 0.0000 0.0002
# 3 32.1641 32.1641 116.9300 0.0000 0.0000 0.0000
# 4 0.0000 0.0000 0.0000 24.2026 0.0000 0.0000
# 5 0.0000 0.0000 0.0000 0.0000 24.2026 0.0000
# 6 -0.0002 0.0002 0.0000 0.0000 0.0000 11.7219
#
#
#
# Elastic Compliance Matrix: (Units=1/GPa)
#
#
# Indices 1 2 3 4 5 6 
#
# 1 0.018042 -0.007635 -0.002863 0.000000 0.000000 0.000001
# 2 -0.007635 0.018042 -0.002863 0.000000 0.000000 -0.000001
# 3 -0.002863 -0.002863 0.010127 0.000000 0.000000 0.000000
# 4 0.000000 0.000000 0.000000 0.041318 0.000000 0.000000
# 5 0.000000 0.000000 0.000000 0.000000 0.041318 0.000000
# 6 0.000001 -0.000001 0.000000 0.000000 0.000000 0.085310
#
#
# Mechanical properties :
#
#
# Convention : Reuss Voigt Hill
#
# Bulk Modulus (GPa) = 51.30683 52.57223 51.93953
# Shear Modulus (GPa) = 20.21215 23.21938 21.71576
#
# Velocity S-wave (km/s) = 3.33111 3.57033 3.45279
# Velocity P-wave (km/s) = 6.55454 6.77185 6.66408
#
# Compressibility (1/GPa) = 0.01949058
#
# Stress axis : x y z
#
# Youngs Moduli (GPa) = 55.42499 55.42499 98.74553
#
# Poissons Ratio (x) = 0.42318 0.28268
# Poissons Ratio (y) = 0.42318 0.28268
# Poissons Ratio (z) = 0.15867 0.15867
#
# Static dielectric constant tensor:
#      x y z
#    x 3.158510 0.000000 0.000000 
#    y 0.000000 3.158510 0.000000 
#    z 0.000000 0.000000 3.797640 
# 
# 
# High freq. dielectric constant tensor:
#      x y z
#    x 1.687500 0.000000 0.000000 
#    y 0.000000 1.687500 0.000000 
#    z 0.000000 0.000000 1.729240 
# 
# From -- ./inp_files/1520.got.cif
#   From: 2010.03.12/outbox.cif.g09.slc.cpg/sg107_1_cif.got.tgz:1520.got - 2010.04.14 01:49:11.
