data_PCOD8307155
_publ_section_title
;
Structure prediction by ZEFSAII (Michael W. Deem and Ramdas Pophale) SiO2 
 PCOD8307155
Probable space group: P 42 M C
;
_chemical_formula_sum "Si O2"
_cell_formula_units_Z 48
_cell_length_a 8.114984
_cell_length_b 8.114984
_cell_length_c 34.425633
_cell_angle_alpha 90.000000
_cell_angle_beta 90.000000
_cell_angle_gamma 90.000000
_cell_volume 2267.030016
_symmetry_space_group_name_H-M "P 42 M C"
_symmetry_group_IT_number 105
_symmetry_cell_setting 'tetragonal'
loop_
_space_group_symop_operation_xyz
x,y,z
-y,x,1/2+z
-x,-y,z
y,-x,1/2+z
-x,y,z
x,-y,z
-y,-x,1/2+z
y,x,1/2+z
loop_
_atom_site_type_symbol
_atom_site_label
_atom_site_fract_x
_atom_site_fract_y
_atom_site_fract_z
Si Si1 0.695993 0.182989 0.428660
Si Si2 0.185004 0.189189 0.109075
Si Si3 0.816736 0.809003 0.270182
Si Si4 0.690922 0.681194 0.348811
Si Si5 0.193410 0.683106 0.190448
Si Si6 0.500000 0.192895 0.064395
Si Si7 0.695992 0.500000 0.477104
O O1 0.500000 0.181747 0.429361
O O2 0.764569 0.215436 0.384978
O O3 0.759598 0.332991 0.455819
O O4 0.760156 0.000000 0.441959
O O5 0.243332 0.204259 0.153932
O O6 0.330555 0.270234 0.082705
O O7 0.000000 0.270721 0.102894
O O8 0.168259 0.000000 0.097873
O O9 0.711803 0.774025 0.308332
O O10 0.726800 0.735082 0.231747
O O11 0.000000 0.734862 0.276552
O O12 0.827413 0.000000 0.262521
O O13 0.500000 0.659497 0.357236
O O14 0.773935 0.500000 0.347103
O O15 0.251109 0.500000 0.179851
O O16 0.000000 0.697676 0.197244
O O17 0.500000 0.000000 0.073978
O O18 0.500000 0.224568 0.019090
O O19 0.500000 0.500000 0.479956
#
# Coordination Sequence:
#
# PCOD8307155 Si02
#       7
#     8   8   8   8   8   4   4
#     4   9  17  32  55  79 105 140 179 222 275 332
#     4   9  18  35  57  77 102 141 181 216 267 336
#     4  10  20  33  50  75 108 146 187 228 272 330
#     4  10  19  33  53  77 106 140 183 232 279 328
#     4   9  17  31  52  76 103 137 178 222 269 318
#     4  10  22  38  56  82 112 140 174 222 280 334
#     4  10  20  36  56  80 106 136 178 222 270 330
#
# _framework density 21.173075000000001
#
# number of rings (size 3 to 8) (size 9 to 14) (size 15 to 20)
#    0.000    2.500    0.833    1.500    0.000    5.333 
#    1.500    0.833    0.000    1.000    0.000    0.000 
#    0.000    0.000    0.000    0.000    0.000    0.000 
#
# Total GULP energy -594725.491540 kJ/mol
# GULP energy per Si atom -12390.114407 kJ/mol
# Density = 2.112488 g / cm^3
# Si number density = 21.173075 Si / 1000 Ang^3
#
#
#
# Elastic Constant Matrix: (Units=GPa)
#
#
# Indices 1 2 3 4 5 6 
#
# 1 75.3361 18.9821 40.2121 0.0000 0.0000 0.0000
# 2 18.9821 75.3361 40.2121 0.0000 0.0000 0.0000
# 3 40.2121 40.2121 161.7859 0.0000 0.0000 0.0000
# 4 0.0000 0.0000 0.0000 28.6017 0.0000 0.0000
# 5 0.0000 0.0000 0.0000 0.0000 28.6017 0.0000
# 6 0.0000 0.0000 0.0000 0.0000 0.0000 11.0385
#
#
#
# Elastic Compliance Matrix: (Units=1/GPa)
#
#
# Indices 1 2 3 4 5 6 
#
# 1 0.015599 -0.002146 -0.003344 0.000000 0.000000 0.000000
# 2 -0.002146 0.015599 -0.003344 0.000000 0.000000 0.000000
# 3 -0.003344 -0.003344 0.007843 0.000000 0.000000 0.000000
# 4 0.000000 0.000000 0.000000 0.034963 0.000000 0.000000
# 5 0.000000 0.000000 0.000000 0.000000 0.034963 0.000000
# 6 0.000000 0.000000 0.000000 0.000000 0.000000 0.090592
#
#
# Mechanical properties :
#
#
# Convention : Reuss Voigt Hill
#
# Bulk Modulus (GPa) = 46.78360 56.80785 51.79572
# Shear Modulus (GPa) = 22.28639 27.85183 25.06911
#
# Velocity S-wave (km/s) = 3.24787 3.63083 3.44468
# Velocity P-wave (km/s) = 6.01736 6.66826 6.35116
#
# Compressibility (1/GPa) = 0.02137501
#
# Stress axis : x y z
#
# Youngs Moduli (GPa) = 64.10522 64.10522 127.49754
#
# Poissons Ratio (x) = 0.13754 0.42634
# Poissons Ratio (y) = 0.13754 0.42634
# Poissons Ratio (z) = 0.21436 0.21436
#
# Static dielectric constant tensor:
#      x y z
#    x 3.792800 0.000000 0.000000 
#    y 0.000000 3.792800 0.000000 
#    z 0.000000 0.000000 3.794310 
# 
# 
# High freq. dielectric constant tensor:
#      x y z
#    x 1.808520 0.000000 0.000000 
#    y 0.000000 1.808520 0.000000 
#    z 0.000000 0.000000 1.831050 
# 
# From -- ./inp_files/4821.got.cif
#   From: 2010.03.12/outbox.cif.g09.slc.cpg/sg105_3_cif.got.tgz:4821.got - 2010.04.14 01:45:32.
