data_PCOD8307436
_publ_section_title
;
Structure prediction by ZEFSAII (Michael W. Deem and Ramdas Pophale) SiO2 
 PCOD8307436
Probable space group: P 42 B C
;
_chemical_formula_sum "Si O2"
_cell_formula_units_Z 52
_cell_length_a 16.444099
_cell_length_b 16.444099
_cell_length_c 9.446843
_cell_angle_alpha 90.000000
_cell_angle_beta 90.000000
_cell_angle_gamma 90.000000
_cell_volume 2554.505624
_symmetry_space_group_name_H-M "P 42 B C"
_symmetry_group_IT_number 106
_symmetry_cell_setting 'tetragonal'
loop_
_space_group_symop_operation_xyz
x,y,z
-y,x,1/2+z
-x,-y,z
y,-x,1/2+z
1/2-x,1/2+y,z
1/2+x,1/2-y,z
1/2-y,1/2-x,1/2+z
1/2+y,1/2+x,1/2+z
loop_
_atom_site_type_symbol
_atom_site_label
_atom_site_fract_x
_atom_site_fract_y
_atom_site_fract_z
Si Si1 0.897596 0.281355 0.976960
Si Si2 0.420491 0.806150 0.651120
Si Si3 0.374196 0.625344 0.971305
Si Si4 0.500000 0.500000 0.562414
Si Si5 0.193850 0.420491 0.473708
Si Si6 0.897596 0.281355 0.647868
Si Si7 0.125344 0.874196 0.153523
O O1 0.872527 0.274934 0.812414
O O2 0.829804 0.329804 0.062414
O O3 0.905075 0.191663 0.041264
O O4 0.984222 0.325534 0.994202
O O5 0.369901 0.869901 0.562414
O O6 0.515778 0.825534 0.630625
O O7 0.403041 0.714198 0.602638
O O8 0.394211 0.818161 0.812414
O O9 0.337695 0.628804 0.812414
O O10 0.450134 0.563774 0.966987
O O11 0.403041 0.714198 0.022190
O O12 0.308337 0.594925 0.083564
O O13 0.549866 0.436226 0.657841
#
# Coordination Sequence:
#
# PCOD8307436 Si02
#       7
#     8   8   8   4   8   8   8
#     4  11  24  43  64  92 127 165 212 263 314 374
#     4  10  23  42  62  90 125 163 210 258 309 369
#     4  11  23  41  65  96 130 167 207 254 316 379
#     4  12  22  40  68 102 134 160 204 258 314 376
#     4  10  23  42  62  90 125 163 210 258 309 369
#     4  11  24  43  64  92 127 165 212 263 314 374
#     4  11  23  41  65  96 130 167 207 254 316 379
#
# _framework density 20.356188
#
# number of rings (size 3 to 8) (size 9 to 14) (size 15 to 20)
#    0.000    1.231    3.077    2.308    0.000    8.000 
#    0.000    3.077    0.000    0.000    0.000    0.000 
#    0.000    0.000    0.000    0.000    0.000    0.000 
#
# Total GULP energy -644916.197359 kJ/mol
# GULP energy per Si atom -12402.234565 kJ/mol
# Density = 2.030986 g / cm^3
# Si number density = 20.356188 Si / 1000 Ang^3
#
#
#
# Elastic Constant Matrix: (Units=GPa)
#
#
# Indices 1 2 3 4 5 6 
#
# 1 82.2020 26.9739 40.6865 0.0000 0.0000 0.0000
# 2 26.9739 82.2020 40.6865 0.0000 0.0000 0.0000
# 3 40.6865 40.6865 110.4414 0.0000 0.0000 0.0000
# 4 0.0000 0.0000 0.0000 4.6272 0.0000 0.0000
# 5 0.0000 0.0000 0.0000 0.0000 4.6272 0.0000
# 6 0.0000 0.0000 0.0000 0.0000 0.0000 42.2199
#
#
#
# Elastic Compliance Matrix: (Units=1/GPa)
#
#
# Indices 1 2 3 4 5 6 
#
# 1 0.015367 -0.002740 -0.004652 0.000000 0.000000 0.000000
# 2 -0.002740 0.015367 -0.004652 0.000000 0.000000 0.000000
# 3 -0.004652 -0.004652 0.012482 0.000000 0.000000 0.000000
# 4 0.000000 0.000000 0.000000 0.216114 0.000000 0.000000
# 5 0.000000 0.000000 0.000000 0.000000 0.216114 0.000000
# 6 0.000000 0.000000 0.000000 0.000000 0.000000 0.023685
#
#
# Mechanical properties :
#
#
# Convention : Reuss Voigt Hill
#
# Bulk Modulus (GPa) = 52.27793 54.61549 53.44671
# Shear Modulus (GPa) = 9.44125 21.39476 15.41801
#
# Velocity S-wave (km/s) = 2.15594 3.24546 2.75510
# Velocity P-wave (km/s) = 5.65109 6.39783 6.03602
#
# Compressibility (1/GPa) = 0.01912853
#
# Stress axis : x y z
#
# Youngs Moduli (GPa) = 65.07605 65.07605 80.11612
#
# Poissons Ratio (x) = 0.17831 0.37267
# Poissons Ratio (y) = 0.17831 0.37267
# Poissons Ratio (z) = 0.30271 0.30271
#
# Static dielectric constant tensor:
#      x y z
#    x 3.652800 0.000000 0.000000 
#    y 0.000000 3.652800 0.000000 
#    z 0.000000 0.000000 3.589440 
# 
# 
# High freq. dielectric constant tensor:
#      x y z
#    x 1.800490 0.000000 0.000000 
#    y 0.000000 1.800490 0.000000 
#    z 0.000000 0.000000 1.796620 
# 
# From -- ./inp_files/507.got.cif
#   From: 2010.03.12/outbox.cif.g09.slc.cpg/sg106_cif.got.tgz:507.got - 2010.04.14 01:48:02.
