data_PCOD8307442
_publ_section_title
;
Structure prediction by ZEFSAII (Michael W. Deem and Ramdas Pophale) SiO2 
 PCOD8307442
Probable space group: P 42 B C
;
_chemical_formula_sum "Si O2"
_cell_formula_units_Z 40
_cell_length_a 9.285835
_cell_length_b 9.285835
_cell_length_c 20.133417
_cell_angle_alpha 90.000000
_cell_angle_beta 90.000000
_cell_angle_gamma 90.000000
_cell_volume 1736.038745
_symmetry_space_group_name_H-M "P 42 B C"
_symmetry_group_IT_number 106
_symmetry_cell_setting 'tetragonal'
loop_
_space_group_symop_operation_xyz
x,y,z
-y,x,1/2+z
-x,-y,z
y,-x,1/2+z
1/2-x,1/2+y,z
1/2+x,1/2-y,z
1/2-y,1/2-x,1/2+z
1/2+y,1/2+x,1/2+z
loop_
_atom_site_type_symbol
_atom_site_label
_atom_site_fract_x
_atom_site_fract_y
_atom_site_fract_z
Si Si1 0.786125 0.925454 0.697270
Si Si2 0.345149 0.509870 0.556825
Si Si3 0.982426 0.346518 0.877923
Si Si4 0.431822 0.296613 0.746687
Si Si5 0.747701 0.240238 0.467289
O O1 0.744102 0.958930 0.620313
O O2 0.644429 0.851752 0.726484
O O3 0.923636 0.818610 0.703756
O O4 0.821355 0.070661 0.738203
O O5 0.500000 0.500000 0.590996
O O6 0.350373 0.637625 0.502478
O O7 0.320533 0.353084 0.525118
O O8 0.973547 0.217204 0.824670
O O9 0.836515 0.354812 0.922391
O O10 0.000000 0.500000 0.841504
O O11 0.125918 0.335465 0.922338
#
# Coordination Sequence:
#
# PCOD8307442 Si02
#       5
#     8   8   8   8   8
#     4  11  25  45  69 104 136 187 229 286 349 409
#     4  11  21  43  68  96 140 172 232 284 343 412
#     4  11  24  44  66 100 136 177 236 279 347 414
#     4  11  25  44  69  98 141 179 233 282 343 416
#     4  10  24  42  68 100 130 183 221 291 341 410
#
# _framework density 23.040963000000001
#
# number of rings (size 3 to 8) (size 9 to 14) (size 15 to 20)
#    0.000    1.200    2.000    3.600    5.600    0.000 
#   14.400    0.000    0.000    0.000    0.000    0.000 
#    0.000    0.000    0.000    0.000    0.000    0.000 
#
# Total GULP energy -495691.912426 kJ/mol
# GULP energy per Si atom -12392.297811 kJ/mol
# Density = 2.298852 g / cm^3
# Si number density = 23.040963 Si / 1000 Ang^3
#
#
#
# Elastic Constant Matrix: (Units=GPa)
#
#
# Indices 1 2 3 4 5 6 
#
# 1 98.9238 20.5975 33.5850 0.0000 0.0000 0.0000
# 2 20.5975 98.9238 33.5850 0.0000 0.0000 0.0000
# 3 33.5850 33.5850 123.3366 0.0000 0.0000 0.0000
# 4 0.0000 0.0000 0.0000 31.2968 0.0000 0.0000
# 5 0.0000 0.0000 0.0000 0.0000 31.2968 0.0000
# 6 0.0000 0.0000 0.0000 0.0000 0.0000 26.4725
#
#
#
# Elastic Compliance Matrix: (Units=1/GPa)
#
#
# Indices 1 2 3 4 5 6 
#
# 1 0.011323 -0.001444 -0.002690 0.000000 0.000000 0.000000
# 2 -0.001444 0.011323 -0.002690 0.000000 0.000000 0.000000
# 3 -0.002690 -0.002690 0.009573 0.000000 0.000000 0.000000
# 4 0.000000 0.000000 0.000000 0.031952 0.000000 0.000000
# 5 0.000000 0.000000 0.000000 0.000000 0.031952 0.000000
# 6 0.000000 0.000000 0.000000 0.000000 0.000000 0.037775
#
#
# Mechanical properties :
#
#
# Convention : Reuss Voigt Hill
#
# Bulk Modulus (GPa) = 53.85034 55.19102 54.52068
# Shear Modulus (GPa) = 32.52326 33.37433 32.94880
#
# Velocity S-wave (km/s) = 3.76112 3.81002 3.78565
# Velocity P-wave (km/s) = 6.50259 6.58486 6.54386
#
# Compressibility (1/GPa) = 0.01856998
#
# Stress axis : x y z
#
# Youngs Moduli (GPa) = 88.31764 88.31764 104.46208
#
# Poissons Ratio (x) = 0.12756 0.28100
# Poissons Ratio (y) = 0.12756 0.28100
# Poissons Ratio (z) = 0.23757 0.23757
#
# Static dielectric constant tensor:
#      x y z
#    x 4.105490 0.000000 0.000000 
#    y 0.000000 4.105490 0.000000 
#    z 0.000000 0.000000 4.066800 
# 
# 
# High freq. dielectric constant tensor:
#      x y z
#    x 1.907490 0.000000 0.000000 
#    y 0.000000 1.907490 0.000000 
#    z 0.000000 0.000000 1.917370 
# 
# From -- ./inp_files/1684.got.cif
#   From: 2010.03.12/outbox.cif.g09.slc.cpg/sg106_cif.got.tgz:1684.got - 2010.04.14 01:48:02.
