data_PCOD8307177
_publ_section_title
;
Structure prediction by ZEFSAII (Michael W. Deem and Ramdas Pophale) SiO2 
 PCOD8307177
Probable space group: P 42 M C
;
_chemical_formula_sum "Si O2"
_cell_formula_units_Z 56
_cell_length_a 13.351642
_cell_length_b 13.351642
_cell_length_c 15.162354
_cell_angle_alpha 90.000000
_cell_angle_beta 90.000000
_cell_angle_gamma 90.000000
_cell_volume 2702.937415
_symmetry_space_group_name_H-M "P 42 M C"
_symmetry_group_IT_number 105
_symmetry_cell_setting 'tetragonal'
loop_
_space_group_symop_operation_xyz
x,y,z
-y,x,1/2+z
-x,-y,z
y,-x,1/2+z
-x,y,z
x,-y,z
-y,-x,1/2+z
y,x,1/2+z
loop_
_atom_site_type_symbol
_atom_site_label
_atom_site_fract_x
_atom_site_fract_y
_atom_site_fract_z
Si Si1 0.886933 0.772436 0.117390
Si Si2 0.885419 0.119654 0.445259
Si Si3 0.270773 0.613110 0.172373
Si Si4 0.115283 0.384827 0.644563
Si Si5 0.619542 0.385492 0.843786
Si Si6 0.703220 0.383494 0.523856
Si Si7 0.116405 0.204155 0.765676
O O1 0.826957 0.674561 0.145945
O O2 0.880870 0.852576 0.196018
O O3 0.000000 0.738478 0.100865
O O4 0.840535 0.824337 0.030214
O O5 0.824406 0.163300 0.360737
O O6 0.000000 0.160676 0.445814
O O7 0.888508 0.000000 0.447381
O O8 0.236318 0.500000 0.188891
O O9 0.324591 0.659138 0.258760
O O10 0.349163 0.618648 0.092545
O O11 0.132513 0.500000 0.673533
O O12 0.185782 0.355553 0.561190
O O13 0.146199 0.314294 0.727478
O O14 0.000000 0.366365 0.616167
O O15 0.500000 0.388811 0.841477
O O16 0.660875 0.500000 0.843514
O O17 0.662521 0.323847 0.928163
O O18 0.692674 0.500000 0.512943
O O19 0.000000 0.197813 0.779299
#
# Coordination Sequence:
#
# PCOD8307177 Si02
#       7
#     8   8   8   8   8   8   8
#     4  11  23  39  57  82 115 154 198 244 296 352
#     4   9  19  36  60  89 118 150 193 245 296 346
#     4  11  23  39  57  82 115 154 198 244 296 352
#     4   9  18  34  56  86 125 160 190 236 297 354
#     4   9  19  36  60  89 118 150 193 245 296 346
#     4  10  19  36  61  88 116 151 194 242 294 348
#     4  10  19  36  61  88 116 151 194 242 294 348
#
# _framework density 20.718198999999998
#
# number of rings (size 3 to 8) (size 9 to 14) (size 15 to 20)
#    0.000    2.143    1.429    1.714    0.000    4.286 
#    0.000    1.429    0.000    5.143    0.000    0.000 
#    0.000    0.000    0.000    0.000    0.000    0.000 
#
# Total GULP energy -694071.229098 kJ/mol
# GULP energy per Si atom -12394.129091 kJ/mol
# Density = 2.067104 g / cm^3
# Si number density = 20.718199 Si / 1000 Ang^3
#
#
#
# Elastic Constant Matrix: (Units=GPa)
#
#
# Indices 1 2 3 4 5 6 
#
# 1 165.1279 -27.8276 53.9096 0.0000 0.0000 0.0000
# 2 -27.8276 165.1279 53.9096 0.0000 0.0000 0.0000
# 3 53.9096 53.9096 168.4631 0.0000 0.0000 0.0000
# 4 0.0000 0.0000 0.0000 23.7281 0.0000 0.0000
# 5 0.0000 0.0000 0.0000 0.0000 23.7281 0.0000
# 6 0.0000 0.0000 0.0000 0.0000 0.0000 29.5519
#
#
#
# Elastic Compliance Matrix: (Units=1/GPa)
#
#
# Indices 1 2 3 4 5 6 
#
# 1 0.007455 0.002273 -0.003113 0.000000 0.000000 0.000000
# 2 0.002273 0.007455 -0.003113 0.000000 0.000000 0.000000
# 3 -0.003113 -0.003113 0.007928 0.000000 0.000000 0.000000
# 4 0.000000 0.000000 0.000000 0.042144 0.000000 0.000000
# 5 0.000000 0.000000 0.000000 0.000000 0.042144 0.000000
# 6 0.000000 0.000000 0.000000 0.000000 0.000000 0.033839
#
#
# Mechanical properties :
#
#
# Convention : Reuss Voigt Hill
#
# Bulk Modulus (GPa) = 66.96961 73.18914 70.07938
# Shear Modulus (GPa) = 32.49920 43.31677 37.90799
#
# Velocity S-wave (km/s) = 3.96489 4.57744 4.28213
# Velocity P-wave (km/s) = 7.30443 7.95864 7.63854
#
# Compressibility (1/GPa) = 0.01493215
#
# Stress axis : x y z
#
# Youngs Moduli (GPa) = 134.13430 134.13430 126.12898
#
# Poissons Ratio (x) = -0.30484 0.39264
# Poissons Ratio (y) = -0.30484 0.39264
# Poissons Ratio (z) = 0.41756 0.41756
#
# Static dielectric constant tensor:
#      x y z
#    x 3.657420 0.000000 0.000000 
#    y 0.000000 3.657420 0.000000 
#    z 0.000000 0.000000 4.352900 
# 
# 
# High freq. dielectric constant tensor:
#      x y z
#    x 1.803370 0.000000 0.000000 
#    y 0.000000 1.803370 0.000000 
#    z 0.000000 0.000000 1.814930 
# 
# From -- ./inp_files/1972.got.cif
#   From: 2010.03.12/outbox.cif.g09.slc.cpg/sg105_1_cif.got.tgz:1972.got - 2010.04.14 01:45:32.
