data_PCOD8307824
_publ_section_title
;
Structure prediction by ZEFSAII (Michael W. Deem and Ramdas Pophale) SiO2 
 PCOD8307824
Probable space group: I 4 C M
;
_chemical_formula_sum "Si O2"
_cell_formula_units_Z 80
_cell_length_a 17.118672
_cell_length_b 17.118672
_cell_length_c 13.918667
_cell_angle_alpha 90.000000
_cell_angle_beta 90.000000
_cell_angle_gamma 90.000000
_cell_volume 4078.850486
_symmetry_space_group_name_H-M "I 4 C M"
_symmetry_group_IT_number 108
_symmetry_cell_setting 'tetragonal'
loop_
_space_group_symop_operation_xyz
x,y,z
-y,x,z
-x,-y,z
y,-x,z
-x,y,1/2+z
x,-y,1/2+z
-y,-x,1/2+z
y,x,1/2+z
1/2+x,1/2+y,1/2+z
1/2-y,1/2+x,1/2+z
1/2-x,1/2-y,1/2+z
1/2+y,1/2-x,1/2+z
1/2-x,1/2+y,z
1/2+x,1/2-y,z
1/2-y,1/2-x,z
1/2+y,1/2+x,z
loop_
_atom_site_type_symbol
_atom_site_label
_atom_site_fract_x
_atom_site_fract_y
_atom_site_fract_z
Si Si1 0.777555 0.401483 0.072210
Si Si2 0.890954 0.056248 0.574245
Si Si3 0.124201 0.500001 0.709912
Si Si4 0.098517 0.277555 0.347615
Si Si5 0.556248 0.609046 0.845581
O O1 0.817949 0.317949 0.096237
O O2 0.688117 0.401304 0.109843
O O3 0.823116 0.472496 0.121475
O O4 0.781158 0.419523 0.959913
O O5 0.893175 0.054151 0.459913
O O6 0.966250 0.104414 0.612821
O O7 0.070783 0.570783 0.670894
O O8 0.176884 0.527505 0.798350
O O9 0.070782 0.429219 0.748929
O O10 0.182052 0.317949 0.323589
O O11 0.098696 0.188117 0.309982
O O12 0.466250 0.604414 0.807005
#
# Coordination Sequence:
#
# PCOD8307824 Si02
#       5
#    16  16  16  16  16
#     4   9  17  30  49  71  94 121 154 193 235 276
#     4   8  14  27  48  71  95 125 158 190 229 279
#     4   9  18  32  48  67  94 126 158 193 232 276
#     4   9  17  30  49  71  94 121 154 193 235 276
#     4   8  14  27  48  71  95 125 158 190 229 279
#
# _framework density 19.613368999999999
#
# number of rings (size 3 to 8) (size 9 to 14) (size 15 to 20)
#    0.000    3.400    0.000    1.200    0.000    0.800 
#    0.000    8.000    0.000   14.400    0.000    0.000 
#    0.000    0.000    0.000    0.000    0.000    0.000 
#
# Total GULP energy -495751.614958 kJ/mol
# GULP energy per Si atom -12393.790374 kJ/mol
# Density = 1.956873 g / cm^3
# Si number density = 19.613369 Si / 1000 Ang^3
#
#
#
# Elastic Constant Matrix: (Units=GPa)
#
#
# Indices 1 2 3 4 5 6 
#
# 1 154.7044 86.3351 33.0430 0.0000 0.0000 0.0000
# 2 86.3351 154.7044 33.0430 0.0000 0.0000 0.0000
# 3 33.0430 33.0430 23.0233 0.0000 0.0000 0.0000
# 4 0.0000 0.0000 0.0000 20.1822 0.0000 0.0000
# 5 0.0000 0.0000 0.0000 0.0000 20.1822 0.0000
# 6 0.0000 0.0000 0.0000 0.0000 0.0000 23.9944
#
#
#
# Elastic Compliance Matrix: (Units=1/GPa)
#
#
# Indices 1 2 3 4 5 6 
#
# 1 0.010733 -0.003893 -0.009817 0.000000 0.000000 0.000000
# 2 -0.003893 0.010733 -0.009817 0.000000 0.000000 0.000000
# 3 -0.009817 -0.009817 0.071613 0.000000 0.000000 0.000000
# 4 0.000000 0.000000 0.000000 0.049549 0.000000 0.000000
# 5 0.000000 0.000000 0.000000 0.000000 0.049549 0.000000
# 6 0.000000 0.000000 0.000000 0.000000 0.000000 0.041676
#
#
# Mechanical properties :
#
#
# Convention : Reuss Voigt Hill
#
# Bulk Modulus (GPa) = 21.72716 70.80824 46.26770
# Shear Modulus (GPa) = 16.87764 24.87252 20.87508
#
# Velocity S-wave (km/s) = 2.93664 3.56496 3.26594
# Velocity P-wave (km/s) = 4.75397 7.28873 6.15329
#
# Compressibility (1/GPa) = 0.04602534
#
# Stress axis : x y z
#
# Youngs Moduli (GPa) = 93.16747 93.16747 13.96387
#
# Poissons Ratio (x) = 0.36271 0.13709
# Poissons Ratio (y) = 0.36271 0.13709
# Poissons Ratio (z) = 0.91464 0.91464
#
# Static dielectric constant tensor:
#      x y z
#    x 3.821000 0.000000 0.000000 
#    y 0.000000 3.821000 0.000000 
#    z 0.000000 0.000000 3.273040 
# 
# 
# High freq. dielectric constant tensor:
#      x y z
#    x 1.761120 0.000000 0.000000 
#    y 0.000000 1.761120 0.000000 
#    z 0.000000 0.000000 1.750160 
# 
# From -- ./inp_files/1878.got.cif
#   From: 2010.03.12/outbox.cif.g09.slc.cpg/sg108_1_cif.got.tgz:1878.got - 2010.04.14 01:53:11.
