data_PCOD8307872
_publ_section_title
;
Structure prediction by ZEFSAII (Michael W. Deem and Ramdas Pophale) SiO2 
 PCOD8307872
Probable space group: I 41 M D
;
_chemical_formula_sum "Si O2"
_cell_formula_units_Z 112
_cell_length_a 16.787125
_cell_length_b 16.787125
_cell_length_c 23.162444
_cell_angle_alpha 90.000000
_cell_angle_beta 90.000000
_cell_angle_gamma 90.000000
_cell_volume 6527.351961
_symmetry_space_group_name_H-M "I 41 M D"
_symmetry_group_IT_number 109
_symmetry_cell_setting 'tetragonal'
loop_
_space_group_symop_operation_xyz
x,y,z
-y,1/2+x,1/4+z
-x,-y,z
y,1/2-x,1/4+z
-x,y,z
x,-y,z
-y,1/2-x,1/4+z
y,1/2+x,1/4+z
1/2+x,1/2+y,1/2+z
1/2-y,x,3/4+z
1/2-x,1/2-y,1/2+z
1/2+y,-x,3/4+z
1/2-x,1/2+y,1/2+z
1/2+x,1/2-y,1/2+z
1/2-y,-x,3/4+z
1/2+y,x,3/4+z
loop_
_atom_site_type_symbol
_atom_site_label
_atom_site_fract_x
_atom_site_fract_y
_atom_site_fract_z
Si Si1 0.089897 0.094147 0.658470
Si Si2 0.593500 0.728019 0.611865
Si Si3 0.827329 0.322005 0.014456
Si Si4 0.091090 0.776919 0.463637
Si Si5 0.593943 0.168951 0.289126
Si Si6 0.410511 0.212323 0.842148
Si Si7 0.769676 0.668728 0.483168
O O1 0.135754 0.123752 0.714436
O O2 0.133045 0.123280 0.600097
O O3 0.000000 0.128175 0.658493
O O4 0.089243 0.000000 0.660347
O O5 0.500000 0.713111 0.611470
O O6 0.614957 0.798567 0.567269
O O7 0.635606 0.645787 0.594575
O O8 0.622959 0.753224 0.674964
O O9 0.761560 0.382920 0.038862
O O10 0.789207 0.243181 0.987736
O O11 0.123329 0.860994 0.487347
O O12 0.102639 0.774790 0.394418
O O13 0.140176 0.701407 0.487711
O O14 0.000000 0.765537 0.482459
O O15 0.500000 0.157759 0.279393
O O16 0.500000 0.179074 0.842147
O O17 0.393749 0.261662 0.784601
#
# Coordination Sequence:
#
# PCOD8307872 Si02
#       7
#    16  16  16  16  16  16  16
#     4  10  20  33  49  70  98 131 164 203 254 304
#     4  10  19  31  51  75  96 124 161 199 240 291
#     4  10  19  33  50  72  98 126 163 206 247 291
#     4   9  18  32  49  70  98 129 162 201 242 285
#     4  10  20  33  51  73  98 132 172 209 247 296
#     4   9  18  33  51  72 100 130 158 196 244 288
#     4   9  18  32  51  72  96 127 162 197 240 291
#
# _framework density 17.158564999999999
#
# number of rings (size 3 to 8) (size 9 to 14) (size 15 to 20)
#    0.000    2.429    0.000    2.571    0.000    4.571 
#    0.000    2.143    0.000    3.000    0.000    0.000 
#    0.000    0.000    0.000    0.000    0.000    0.000 
#
# Total GULP energy -694379.243803 kJ/mol
# GULP energy per Si atom -12399.629354 kJ/mol
# Density = 1.711951 g / cm^3
# Si number density = 17.158565 Si / 1000 Ang^3
#
#
#
# Elastic Constant Matrix: (Units=GPa)
#
#
# Indices 1 2 3 4 5 6 
#
# 1 84.7262 30.1381 54.4461 0.0000 0.0000 0.0000
# 2 30.1381 84.7262 54.4461 0.0000 0.0000 0.0000
# 3 54.4461 54.4461 130.9633 0.0000 0.0000 0.0000
# 4 0.0000 0.0000 0.0000 29.9030 0.0000 0.0000
# 5 0.0000 0.0000 0.0000 0.0000 29.9029 0.0000
# 6 0.0000 0.0000 0.0000 0.0000 0.0000 15.6028
#
#
#
# Elastic Compliance Matrix: (Units=1/GPa)
#
#
# Indices 1 2 3 4 5 6 
#
# 1 0.016344 -0.001975 -0.005974 0.000000 0.000000 0.000000
# 2 -0.001975 0.016344 -0.005974 0.000000 0.000000 0.000000
# 3 -0.005974 -0.005974 0.012603 0.000000 0.000000 0.000000
# 4 0.000000 0.000000 0.000000 0.033442 0.000000 0.000000
# 5 0.000000 0.000000 0.000000 0.000000 0.033442 0.000000
# 6 0.000000 0.000000 0.000000 0.000000 0.000000 0.064091
#
#
# Mechanical properties :
#
#
# Convention : Reuss Voigt Hill
#
# Bulk Modulus (GPa) = 57.31998 64.27515 60.79757
# Shear Modulus (GPa) = 23.81804 25.84078 24.82941
#
# Velocity S-wave (km/s) = 3.72978 3.88493 3.80815
# Velocity P-wave (km/s) = 7.21297 7.59371 7.40579
#
# Compressibility (1/GPa) = 0.01744592
#
# Stress axis : x y z
#
# Youngs Moduli (GPa) = 61.18438 61.18438 79.34798
#
# Poissons Ratio (x) = 0.12084 0.47400
# Poissons Ratio (y) = 0.12084 0.47400
# Poissons Ratio (z) = 0.36550 0.36550
#
# Static dielectric constant tensor:
#      x y z
#    x 3.190960 0.000000 0.000000 
#    y 0.000000 3.190960 0.000000 
#    z 0.000000 0.000000 3.378870 
# 
# 
# High freq. dielectric constant tensor:
#      x y z
#    x 1.658470 0.000000 0.000000 
#    y 0.000000 1.658470 0.000000 
#    z 0.000000 0.000000 1.674240 
# 
# From -- ./inp_files/3897.got.cif
#   From: 2010.03.12/outbox.cif.g09.slc.cpg/sg109_2_cif.got.tgz:3897.got - 2010.04.14 01:55:16.
