data_PCOD8307844
_publ_section_title
;
Structure prediction by ZEFSAII (Michael W. Deem and Ramdas Pophale) SiO2 
 PCOD8307844
Probable space group: I 41 M D
;
_chemical_formula_sum "Si O2"
_cell_formula_units_Z 96
_cell_length_a 25.704495
_cell_length_b 25.704495
_cell_length_c 9.174354
_cell_angle_alpha 90.000000
_cell_angle_beta 90.000000
_cell_angle_gamma 90.000000
_cell_volume 6061.688929
_symmetry_space_group_name_H-M "I 41 M D"
_symmetry_group_IT_number 109
_symmetry_cell_setting 'tetragonal'
loop_
_space_group_symop_operation_xyz
x,y,z
-y,1/2+x,1/4+z
-x,-y,z
y,1/2-x,1/4+z
-x,y,z
x,-y,z
-y,1/2-x,1/4+z
y,1/2+x,1/4+z
1/2+x,1/2+y,1/2+z
1/2-y,x,3/4+z
1/2-x,1/2-y,1/2+z
1/2+y,-x,3/4+z
1/2-x,1/2+y,1/2+z
1/2+x,1/2-y,1/2+z
1/2-y,-x,3/4+z
1/2+y,x,3/4+z
loop_
_atom_site_type_symbol
_atom_site_label
_atom_site_fract_x
_atom_site_fract_y
_atom_site_fract_z
Si Si1 0.829815 0.134726 0.914610
Si Si2 0.829815 0.365274 0.866264
Si Si3 0.557541 0.811419 0.905117
Si Si4 0.355191 0.707732 0.661863
Si Si5 0.707732 0.644809 0.869012
Si Si6 0.688581 0.057541 0.125757
O O1 0.863683 0.136318 0.765437
O O2 0.768699 0.140369 0.886720
O O3 0.837971 0.081980 0.009039
O O4 0.849485 0.184340 0.002852
O O5 0.768699 0.359631 0.894154
O O6 0.849485 0.315660 0.778022
O O7 0.837971 0.418020 0.771836
O O8 0.500000 0.835554 0.930069
O O9 0.553413 0.750000 0.890437
O O10 0.594704 0.820063 0.043795
O O11 0.305496 0.694504 0.765437
O O12 0.405296 0.679937 0.737079
O O13 0.664446 0.000000 0.100806
#
# Coordination Sequence:
#
# PCOD8307844 Si02
#       6
#    16  16  16  16  16  16
#     4  10  18  26  39  62  89 111 136 170 204 243
#     4  10  18  26  39  62  89 111 136 170 204 243
#     4   8  15  29  44  55  75 111 147 174 201 235
#     4   9  17  27  40  59  84 116 145 166 194 240
#     4   9  17  27  40  59  84 116 145 166 194 240
#     4   8  15  29  44  55  75 111 147 174 201 235
#
# _framework density 15.83717
#
# number of rings (size 3 to 8) (size 9 to 14) (size 15 to 20)
#    0.000    3.000    0.000    4.000    0.000    4.000 
#    0.000    1.667    0.000    8.000    0.000    0.000 
#    0.000   78.667    0.000    0.000    0.000    0.000 
#
# Total GULP energy -594635.104043 kJ/mol
# GULP energy per Si atom -12388.231334 kJ/mol
# Density = 1.580112 g / cm^3
# Si number density = 15.837170 Si / 1000 Ang^3
#
#
#
# Elastic Constant Matrix: (Units=GPa)
#
#
# Indices 1 2 3 4 5 6 
#
# 1 66.0639 17.5546 26.5033 0.0000 0.0000 0.0000
# 2 17.5546 66.0639 26.5033 0.0000 0.0000 0.0000
# 3 26.5033 26.5033 105.7094 0.0000 0.0000 0.0000
# 4 0.0000 0.0000 0.0000 3.1995 0.0000 0.0000
# 5 0.0000 0.0000 0.0000 0.0000 3.1995 0.0000
# 6 0.0000 0.0000 0.0000 0.0000 0.0000 3.7929
#
#
#
# Elastic Compliance Matrix: (Units=1/GPa)
#
#
# Indices 1 2 3 4 5 6 
#
# 1 0.017417 -0.003198 -0.003565 0.000000 0.000000 0.000000
# 2 -0.003198 0.017417 -0.003565 0.000000 0.000000 0.000000
# 3 -0.003565 -0.003565 0.011248 0.000000 0.000000 0.000000
# 4 0.000000 0.000000 0.000000 0.312545 0.000000 0.000000
# 5 0.000000 0.000000 0.000000 0.000000 0.312545 0.000000
# 6 0.000000 0.000000 0.000000 0.000000 0.000000 0.263649
#
#
# Mechanical properties :
#
#
# Convention : Reuss Voigt Hill
#
# Bulk Modulus (GPa) = 39.33049 42.10662 40.71855
# Shear Modulus (GPa) = 5.18698 13.19012 9.18855
#
# Velocity S-wave (km/s) = 1.81171 2.88906 2.41132
# Velocity P-wave (km/s) = 5.40968 6.14604 5.78958
#
# Compressibility (1/GPa) = 0.02542557
#
# Stress axis : x y z
#
# Youngs Moduli (GPa) = 57.41590 57.41590 88.90864
#
# Poissons Ratio (x) = 0.18361 0.31696
# Poissons Ratio (y) = 0.18361 0.31696
# Poissons Ratio (z) = 0.20469 0.20469
#
# Static dielectric constant tensor:
#      x y z
#    x 3.160870 0.000000 0.000000 
#    y 0.000000 3.160870 0.000000 
#    z 0.000000 0.000000 3.067550 
# 
# 
# High freq. dielectric constant tensor:
#      x y z
#    x 1.578530 0.000000 0.000000 
#    y 0.000000 1.578530 0.000000 
#    z 0.000000 0.000000 1.610970 
# 
# From -- ./inp_files/1502.got.cif
#   From: 2010.03.12/outbox.cif.g09.slc.cpg/sg109_1_cif.got.tgz:1502.got - 2010.04.14 01:55:16.
