data_PCOD8307434
_publ_section_title
;
Structure prediction by ZEFSAII (Michael W. Deem and Ramdas Pophale) SiO2 
 PCOD8307434
Probable space group: P 42 B C
;
_chemical_formula_sum "Si O2"
_cell_formula_units_Z 56
_cell_length_a 15.473626
_cell_length_b 15.473626
_cell_length_c 10.418722
_cell_angle_alpha 90.000000
_cell_angle_beta 90.000000
_cell_angle_gamma 90.000000
_cell_volume 2494.586923
_symmetry_space_group_name_H-M "P 42 B C"
_symmetry_group_IT_number 106
_symmetry_cell_setting 'tetragonal'
loop_
_space_group_symop_operation_xyz
x,y,z
-y,x,1/2+z
-x,-y,z
y,-x,1/2+z
1/2-x,1/2+y,z
1/2+x,1/2-y,z
1/2-y,1/2-x,1/2+z
1/2+y,1/2+x,1/2+z
loop_
_atom_site_type_symbol
_atom_site_label
_atom_site_fract_x
_atom_site_fract_y
_atom_site_fract_z
Si Si1 0.694131 0.727139 0.628810
Si Si2 0.965947 0.823774 0.848712
Si Si3 0.000000 0.500000 0.741614
Si Si4 0.676226 0.534053 0.634516
Si Si5 0.481166 0.187076 0.635279
Si Si6 0.805869 0.227139 0.354418
Si Si7 0.500000 0.500000 0.741614
Si Si8 0.687076 0.981166 0.847949
O O1 0.649055 0.634346 0.637519
O O2 0.621754 0.800627 0.640864
O O3 0.763895 0.736105 0.741614
O O4 0.742661 0.737127 0.491614
O O5 0.865654 0.850945 0.845709
O O6 0.017409 0.913045 0.823884
O O7 0.978767 0.748004 0.745302
O O8 0.992456 0.790027 0.991614
O O9 0.997994 0.586340 0.655723
O O10 0.086340 0.497994 0.827506
O O11 0.586955 0.482591 0.659344
O O12 0.751996 0.521233 0.737926
O O13 0.514798 0.212509 0.491614
O O14 0.878246 0.300627 0.342364
#
# Coordination Sequence:
#
# PCOD8307434 Si02
#       8
#     8   8   4   8   8   8   4   8
#     4  10  22  43  64  93 131 175 223 275 335 404
#     4  11  25  43  68 102 138 178 225 276 339 411
#     4  12  26  48  72  98 134 184 240 290 342 400
#     4  11  25  43  68 102 138 178 225 276 339 411
#     4  11  25  45  69  98 134 178 230 285 341 405
#     4  10  22  43  64  93 131 175 223 275 335 404
#     4  12  22  44  72 106 142 180 220 278 342 416
#     4  11  25  45  69  98 134 178 230 285 341 405
#
# _framework density 22.448606000000002
#
# number of rings (size 3 to 8) (size 9 to 14) (size 15 to 20)
#    0.000    1.143    4.286    0.857    2.000    5.714 
#    0.000    0.000    0.000    0.000    0.000    0.000 
#    0.000    0.000    0.000    0.000    0.000    0.000 
#
# Total GULP energy -693993.776538 kJ/mol
# GULP energy per Si atom -12392.746010 kJ/mol
# Density = 2.239751 g / cm^3
# Si number density = 22.448606 Si / 1000 Ang^3
#
#
#
# Elastic Constant Matrix: (Units=GPa)
#
#
# Indices 1 2 3 4 5 6 
#
# 1 103.3099 14.2201 66.0498 0.0000 0.0000 0.0000
# 2 14.2201 103.3099 66.0498 0.0000 0.0000 0.0000
# 3 66.0498 66.0498 226.0941 0.0000 0.0000 0.0000
# 4 0.0000 0.0000 0.0000 29.7403 0.0000 0.0000
# 5 0.0000 0.0000 0.0000 0.0000 29.7403 0.0000
# 6 0.0000 0.0000 0.0000 0.0000 0.0000 34.8063
#
#
#
# Elastic Compliance Matrix: (Units=1/GPa)
#
#
# Indices 1 2 3 4 5 6 
#
# 1 0.011946 0.000722 -0.003701 0.000000 0.000000 0.000000
# 2 0.000722 0.011946 -0.003701 0.000000 0.000000 0.000000
# 3 -0.003701 -0.003701 0.006585 0.000000 0.000000 0.000000
# 4 0.000000 0.000000 0.000000 0.033624 0.000000 0.000000
# 5 0.000000 0.000000 0.000000 0.000000 0.033624 0.000000
# 6 0.000000 0.000000 0.000000 0.000000 0.000000 0.028730
#
#
# Mechanical properties :
#
#
# Convention : Reuss Voigt Hill
#
# Bulk Modulus (GPa) = 58.41764 80.59483 69.50623
# Shear Modulus (GPa) = 34.35890 37.95033 36.15461
#
# Velocity S-wave (km/s) = 3.91648 4.11608 4.01752
# Velocity P-wave (km/s) = 6.82137 7.65306 7.24915
#
# Compressibility (1/GPa) = 0.01711812
#
# Stress axis : x y z
#
# Youngs Moduli (GPa) = 83.70794 83.70794 151.85651
#
# Poissons Ratio (x) = -0.06041 0.56198
# Poissons Ratio (y) = -0.06041 0.56198
# Poissons Ratio (z) = 0.30978 0.30978
#
# Static dielectric constant tensor:
#      x y z
#    x 3.786670 0.000000 0.000000 
#    y 0.000000 3.786670 0.000000 
#    z 0.000000 0.000000 4.442730 
# 
# 
# High freq. dielectric constant tensor:
#      x y z
#    x 1.872230 0.000000 0.000000 
#    y 0.000000 1.872230 0.000000 
#    z 0.000000 0.000000 1.903830 
# 
# From -- ./inp_files/1018.got.cif
#   From: 2010.03.12/outbox.cif.g09.slc.cpg/sg106_cif.got.tgz:1018.got - 2010.04.14 01:48:02.
