data_PCOD8307425
_publ_section_title
;
Structure prediction by ZEFSAII (Michael W. Deem and Ramdas Pophale) SiO2 
 PCOD8307425
Probable space group: P 42 B C
;
_chemical_formula_sum "Si O2"
_cell_formula_units_Z 56
_cell_length_a 14.863554
_cell_length_b 14.863554
_cell_length_c 11.653846
_cell_angle_alpha 90.000000
_cell_angle_beta 90.000000
_cell_angle_gamma 90.000000
_cell_volume 2574.628695
_symmetry_space_group_name_H-M "P 42 B C"
_symmetry_group_IT_number 106
_symmetry_cell_setting 'tetragonal'
loop_
_space_group_symop_operation_xyz
x,y,z
-y,x,1/2+z
-x,-y,z
y,-x,1/2+z
1/2-x,1/2+y,z
1/2+x,1/2-y,z
1/2-y,1/2-x,1/2+z
1/2+y,1/2+x,1/2+z
loop_
_atom_site_type_symbol
_atom_site_label
_atom_site_fract_x
_atom_site_fract_y
_atom_site_fract_z
Si Si1 0.734849 0.148366 0.487900
Si Si2 0.768430 0.851763 0.527918
Si Si3 0.006444 0.315956 0.162198
Si Si4 0.025514 0.171418 0.588925
Si Si5 0.500000 0.000000 0.547903
Si Si6 0.816980 0.993837 0.350243
Si Si7 0.000000 0.000000 0.463417
Si Si8 0.328895 0.970326 0.925293
O O1 0.771177 0.250670 0.507791
O O2 0.740457 0.088262 0.604248
O O3 0.791269 0.093849 0.393341
O O4 0.635092 0.153900 0.437977
O O5 0.867765 0.844088 0.581322
O O6 0.711205 0.906716 0.620997
O O7 0.762912 0.911496 0.410656
O O8 0.008294 0.300241 0.296770
O O9 0.025262 0.419182 0.131916
O O10 0.991886 0.198451 0.714819
O O11 0.994011 0.250385 0.506127
O O12 0.973884 0.082292 0.547038
O O13 0.475308 0.082405 0.463489
O O14 0.920113 0.974260 0.378714
#
# Coordination Sequence:
#
# PCOD8307425 Si02
#       8
#     8   8   8   8   4   8   4   8
#     4   9  21  40  65  89 125 173 210 255 326 376
#     4   9  21  42  60  97 123 164 223 251 316 389
#     4  10  21  41  65  89 132 164 209 273 315 383
#     4  10  22  40  63  93 125 167 211 259 324 380
#     4  10  22  40  62  94 124 166 214 256 328 384
#     4  10  21  40  65  90 133 165 207 271 312 383
#     4  10  22  40  62  96 122 166 212 254 328 378
#     4  10  22  39  64  93 123 169 211 260 327 380
#
# _framework density 21.750709000000001
#
# number of rings (size 3 to 8) (size 9 to 14) (size 15 to 20)
#    0.000    2.286    0.000    0.857    8.000    1.143 
#   18.000    0.000    0.000    0.000    0.000    0.000 
#    0.000    0.000    0.000    0.000    0.000    0.000 
#
# Total GULP energy -694344.566628 kJ/mol
# GULP energy per Si atom -12399.010118 kJ/mol
# Density = 2.170120 g / cm^3
# Si number density = 21.750709 Si / 1000 Ang^3
#
#
#
# Elastic Constant Matrix: (Units=GPa)
#
#
# Indices 1 2 3 4 5 6 
#
# 1 106.2933 15.7352 51.8302 0.0000 0.0000 0.0000
# 2 15.7352 106.2933 51.8302 0.0000 0.0000 0.0000
# 3 51.8302 51.8302 203.2983 0.0000 0.0000 0.0000
# 4 0.0000 0.0000 0.0000 23.4076 0.0000 0.0000
# 5 0.0000 0.0000 0.0000 0.0000 23.4076 0.0000
# 6 0.0000 0.0000 0.0000 0.0000 0.0000 30.5045
#
#
#
# Elastic Compliance Matrix: (Units=1/GPa)
#
#
# Indices 1 2 3 4 5 6 
#
# 1 0.010751 -0.000291 -0.002667 0.000000 0.000000 0.000000
# 2 -0.000291 0.010751 -0.002667 0.000000 0.000000 0.000000
# 3 -0.002667 -0.002667 0.006279 0.000000 0.000000 0.000000
# 4 0.000000 0.000000 0.000000 0.042721 0.000000 0.000000
# 5 0.000000 0.000000 0.000000 0.000000 0.042721 0.000000
# 6 0.000000 0.000000 0.000000 0.000000 0.000000 0.032782
#
#
# Mechanical properties :
#
#
# Convention : Reuss Voigt Hill
#
# Bulk Modulus (GPa) = 60.48923 72.74178 66.61550
# Shear Modulus (GPa) = 30.71894 35.22990 32.97442
#
# Velocity S-wave (km/s) = 3.76216 4.02893 3.89783
# Velocity P-wave (km/s) = 6.83684 7.42691 7.13798
#
# Compressibility (1/GPa) = 0.01653187
#
# Stress axis : x y z
#
# Youngs Moduli (GPa) = 93.01107 93.01107 159.26984
#
# Poissons Ratio (x) = 0.02709 0.42474
# Poissons Ratio (y) = 0.02709 0.42474
# Poissons Ratio (z) = 0.24804 0.24804
#
# Static dielectric constant tensor:
#      x y z
#    x 3.983190 0.000000 0.000000 
#    y 0.000000 3.983190 0.000000 
#    z 0.000000 0.000000 3.738330 
# 
# 
# High freq. dielectric constant tensor:
#      x y z
#    x 1.855420 0.000000 0.000000 
#    y 0.000000 1.855420 0.000000 
#    z 0.000000 0.000000 1.845590 
# 
# From -- ./inp_files/1029.got.cif
#   From: 2010.03.12/outbox.cif.g09.slc.cpg/sg106_cif.got.tgz:1029.got - 2010.04.14 01:48:02.
