data_PCOD8307961
_publ_section_title
;
Structure prediction by ZEFSAII (Michael W. Deem and Ramdas Pophale) SiO2 
 PCOD8307961
Probable space group: I 41 M D
;
_chemical_formula_sum "Si O2"
_cell_formula_units_Z 96
_cell_length_a 29.483913
_cell_length_b 29.483913
_cell_length_c 5.104532
_cell_angle_alpha 90.000000
_cell_angle_beta 90.000000
_cell_angle_gamma 90.000000
_cell_volume 4437.375414
_symmetry_space_group_name_H-M "I 41 M D"
_symmetry_group_IT_number 109
_symmetry_cell_setting 'tetragonal'
loop_
_space_group_symop_operation_xyz
x,y,z
-y,1/2+x,1/4+z
-x,-y,z
y,1/2-x,1/4+z
-x,y,z
x,-y,z
-y,1/2-x,1/4+z
y,1/2+x,1/4+z
1/2+x,1/2+y,1/2+z
1/2-y,x,3/4+z
1/2-x,1/2-y,1/2+z
1/2+y,-x,3/4+z
1/2-x,1/2+y,1/2+z
1/2+x,1/2-y,1/2+z
1/2-y,-x,3/4+z
1/2+y,x,3/4+z
loop_
_atom_site_type_symbol
_atom_site_label
_atom_site_fract_x
_atom_site_fract_y
_atom_site_fract_z
Si Si1 0.899211 0.081670 0.746910
Si Si2 0.052181 0.447413 0.488759
Si Si3 0.810682 0.223524 0.597150
Si Si4 0.667147 0.500000 0.346763
Si Si5 0.234278 0.899682 0.315275
Si Si6 0.724885 0.500000 0.848343
Si Si7 0.816419 0.866859 0.828891
O O1 0.920934 0.079023 0.461956
O O2 0.861922 0.043690 0.789424
O O3 0.870425 0.127919 0.773060
O O4 0.938495 0.076998 0.963528
O O5 0.054282 0.500000 0.554905
O O6 0.000000 0.430738 0.474832
O O7 0.796352 0.275567 0.638603
O O8 0.863399 0.225324 0.501068
O O9 0.807600 0.187804 0.840534
O O10 0.682566 0.500000 0.649015
O O11 0.709503 0.500000 0.149341
O O12 0.213653 0.889804 0.600697
O O13 0.252168 0.952260 0.301410
O O14 0.195265 0.891709 0.099416
#
# Coordination Sequence:
#
# PCOD8307961 Si02
#       7
#    16  16  16   8  16   8  16
#     4  12  20  34  55  83 114 150 200 254 305 357
#     4  11  22  34  52  79 113 156 200 248 308 369
#     4  10  22  41  65  93 127 164 204 259 309 375
#     4  12  20  32  57  88 120 154 192 262 314 355
#     4  11  22  37  61  91 122 155 196 247 310 363
#     4  12  20  36  56  90 125 148 196 247 310 368
#     4  11  23  37  61  92 116 157 202 251 308 366
#
# _framework density 21.634411
#
# number of rings (size 3 to 8) (size 9 to 14) (size 15 to 20)
#    0.000    0.833    5.000    3.500    0.000    5.333 
#    0.000    0.000    3.667    0.000    0.000    0.000 
#    0.000    0.000    0.000    0.000    0.000    0.000 
#
# Total GULP energy -594788.514226 kJ/mol
# GULP energy per Si atom -12391.427380 kJ/mol
# Density = 2.158517 g / cm^3
# Si number density = 21.634411 Si / 1000 Ang^3
#
#
#
# Elastic Constant Matrix: (Units=GPa)
#
#
# Indices 1 2 3 4 5 6 
#
# 1 95.8968 45.3147 11.0138 0.0000 0.0000 0.0000
# 2 45.3147 95.8968 11.0138 0.0000 0.0000 0.0000
# 3 11.0138 11.0138 76.4744 0.0000 0.0000 0.0000
# 4 0.0000 0.0000 0.0000 21.6253 0.0000 0.0000
# 5 0.0000 0.0000 0.0000 0.0000 21.6253 0.0000
# 6 0.0000 0.0000 0.0000 0.0000 0.0000 46.5187
#
#
#
# Elastic Compliance Matrix: (Units=1/GPa)
#
#
# Indices 1 2 3 4 5 6 
#
# 1 0.013507 -0.006263 -0.001043 0.000000 0.000000 0.000000
# 2 -0.006263 0.013507 -0.001043 0.000000 0.000000 0.000000
# 3 -0.001043 -0.001043 0.013377 0.000000 0.000000 0.000000
# 4 0.000000 0.000000 0.000000 0.046242 0.000000 0.000000
# 5 0.000000 0.000000 0.000000 0.000000 0.046242 0.000000
# 6 0.000000 0.000000 0.000000 0.000000 0.000000 0.021497
#
#
# Mechanical properties :
#
#
# Convention : Reuss Voigt Hill
#
# Bulk Modulus (GPa) = 42.20809 44.77252 43.49031
# Shear Modulus (GPa) = 27.93792 31.34889 29.64340
#
# Velocity S-wave (km/s) = 3.59745 3.81074 3.70563
# Velocity P-wave (km/s) = 6.06693 6.33264 6.20121
#
# Compressibility (1/GPa) = 0.02369214
#
# Stress axis : x y z
#
# Youngs Moduli (GPa) = 74.03519 74.03519 74.75630
#
# Poissons Ratio (x) = 0.46367 0.07800
# Poissons Ratio (y) = 0.46367 0.07800
# Poissons Ratio (z) = 0.07724 0.07724
#
# Static dielectric constant tensor:
#      x y z
#    x 4.571480 0.000000 0.000000 
#    y 0.000000 4.571480 0.000000 
#    z 0.000000 0.000000 3.873790 
# 
# 
# High freq. dielectric constant tensor:
#      x y z
#    x 1.835440 0.000000 0.000000 
#    y 0.000000 1.835440 0.000000 
#    z 0.000000 0.000000 1.852630 
# 
# From -- ./inp_files/684.got.cif
#   From: 2010.03.12/outbox.cif.g09.slc.cpg/sg109_1_cif.got.tgz:684.got - 2010.04.14 01:55:16.
