data_PCOD8307341
_publ_section_title
;
Structure prediction by ZEFSAII (Michael W. Deem and Ramdas Pophale) SiO2 
 PCOD8307341
Probable space group: P 42 M C
;
_chemical_formula_sum "Si O2"
_cell_formula_units_Z 34
_cell_length_a 7.815362
_cell_length_b 7.815362
_cell_length_c 26.759661
_cell_angle_alpha 90.000000
_cell_angle_beta 90.000000
_cell_angle_gamma 90.000000
_cell_volume 1634.476968
_symmetry_space_group_name_H-M "P 42 M C"
_symmetry_group_IT_number 105
_symmetry_cell_setting 'tetragonal'
loop_
_space_group_symop_operation_xyz
x,y,z
-y,x,1/2+z
-x,-y,z
y,-x,1/2+z
-x,y,z
x,-y,z
-y,-x,1/2+z
y,x,1/2+z
loop_
_atom_site_type_symbol
_atom_site_label
_atom_site_fract_x
_atom_site_fract_y
_atom_site_fract_z
Si Si1 0.190377 0.803042 0.318250
Si Si2 0.184414 0.194597 0.524432
Si Si3 0.796866 0.500000 0.747398
Si Si4 0.500000 0.500000 0.668758
Si Si5 0.691239 0.306069 0.421743
Si Si6 0.207393 0.500000 0.089313
O O1 0.331216 0.743584 0.278386
O O2 0.205821 0.703053 0.370148
O O3 0.000000 0.769378 0.296100
O O4 0.220278 0.000000 0.331109
O O5 0.221197 0.198528 0.465360
O O6 0.336493 0.272715 0.557468
O O7 0.000000 0.284973 0.535344
O O8 0.169317 0.000000 0.540710
O O9 0.677304 0.500000 0.699195
O O10 0.000000 0.500000 0.733278
O O11 0.500000 0.320455 0.639047
O O12 0.500000 0.235732 0.412404
O O13 0.688827 0.500000 0.440596
O O14 0.000000 0.500000 0.099615
#
# Coordination Sequence:
#
# PCOD8307341 Si02
#       6
#     8   8   4   2   8   4
#     4  10  21  38  61  88 122 165 205 242 295 362
#     4  10  21  38  61  88 122 165 205 242 295 362
#     4  10  24  45  65  91 123 156 199 260 316 360
#     4  12  28  44  72  94 116 152 208 260 320 394
#     4  11  22  33  54  89 131 166 203 244 290 354
#     4  10  24  45  65  91 123 156 199 260 316 360
#
# _framework density 20.801762
#
# number of rings (size 3 to 8) (size 9 to 14) (size 15 to 20)
#    0.000    1.647    2.353    1.412    3.294    6.588 
#    0.000    0.000    0.000    0.000    0.000    0.000 
#    0.000    0.000    0.000    0.000    0.000    0.000 
#
# Total GULP energy -421475.668135 kJ/mol
# GULP energy per Si atom -12396.343180 kJ/mol
# Density = 2.075442 g / cm^3
# Si number density = 20.801762 Si / 1000 Ang^3
#
#
#
# Elastic Constant Matrix: (Units=GPa)
#
#
# Indices 1 2 3 4 5 6 
#
# 1 123.6887 31.0506 54.7823 0.0000 0.0000 0.0000
# 2 31.0506 123.6887 54.7823 0.0000 0.0000 0.0000
# 3 54.7823 54.7823 128.6374 0.0000 0.0000 0.0000
# 4 0.0000 0.0000 0.0000 24.1188 0.0000 0.0000
# 5 0.0000 0.0000 0.0000 0.0000 24.1188 0.0000
# 6 0.0000 0.0000 0.0000 0.0000 0.0000 14.3150
#
#
#
# Elastic Compliance Matrix: (Units=1/GPa)
#
#
# Indices 1 2 3 4 5 6 
#
# 1 0.010024 -0.000771 -0.003940 0.000000 0.000000 0.000000
# 2 -0.000771 0.010024 -0.003940 0.000000 0.000000 0.000000
# 3 -0.003940 -0.003940 0.011130 0.000000 0.000000 0.000000
# 4 0.000000 0.000000 0.000000 0.041462 0.000000 0.000000
# 5 0.000000 0.000000 0.000000 0.000000 0.041462 0.000000
# 6 0.000000 0.000000 0.000000 0.000000 0.000000 0.069857
#
#
# Mechanical properties :
#
#
# Convention : Reuss Voigt Hill
#
# Bulk Modulus (GPa) = 72.07957 73.02724 72.55340
# Shear Modulus (GPa) = 24.28544 28.20382 26.24463
#
# Velocity S-wave (km/s) = 3.42053 3.68617 3.55583
# Velocity P-wave (km/s) = 7.09408 7.30066 7.19811
#
# Compressibility (1/GPa) = 0.01387356
#
# Stress axis : x y z
#
# Youngs Moduli (GPa) = 99.76485 99.76485 89.84836
#
# Poissons Ratio (x) = 0.07693 0.35403
# Poissons Ratio (y) = 0.07693 0.35403
# Poissons Ratio (z) = 0.39310 0.39310
#
# Static dielectric constant tensor:
#      x y z
#    x 3.975930 0.000000 0.000000 
#    y 0.000000 3.975930 0.000000 
#    z 0.000000 0.000000 3.411300 
# 
# 
# High freq. dielectric constant tensor:
#      x y z
#    x 1.822680 0.000000 0.000000 
#    y 0.000000 1.822680 0.000000 
#    z 0.000000 0.000000 1.785020 
# 
# From -- ./inp_files/3498.got.cif
#   From: 2010.03.12/outbox.cif.g09.slc.cpg/sg105_2_cif.got.tgz:3498.got - 2010.04.14 01:45:32.
