data_PCOD8307943
_publ_section_title
;
Structure prediction by ZEFSAII (Michael W. Deem and Ramdas Pophale) SiO2 
 PCOD8307943
Probable space group: I 41 M D
;
_chemical_formula_sum "Si O2"
_cell_formula_units_Z 128
_cell_length_a 23.795670
_cell_length_b 23.795670
_cell_length_c 11.307928
_cell_angle_alpha 90.000000
_cell_angle_beta 90.000000
_cell_angle_gamma 90.000000
_cell_volume 6402.932294
_symmetry_space_group_name_H-M "I 41 M D"
_symmetry_group_IT_number 109
_symmetry_cell_setting 'tetragonal'
loop_
_space_group_symop_operation_xyz
x,y,z
-y,1/2+x,1/4+z
-x,-y,z
y,1/2-x,1/4+z
-x,y,z
x,-y,z
-y,1/2-x,1/4+z
y,1/2+x,1/4+z
1/2+x,1/2+y,1/2+z
1/2-y,x,3/4+z
1/2-x,1/2-y,1/2+z
1/2+y,-x,3/4+z
1/2-x,1/2+y,1/2+z
1/2+x,1/2-y,1/2+z
1/2-y,-x,3/4+z
1/2+y,x,3/4+z
loop_
_atom_site_type_symbol
_atom_site_label
_atom_site_fract_x
_atom_site_fract_y
_atom_site_fract_z
Si Si1 0.565779 0.340868 0.051360
Si Si2 0.886231 0.937671 0.704597
Si Si3 0.659847 0.872375 0.823439
Si Si4 0.933971 0.272459 0.683311
Si Si5 0.786816 0.255999 0.315969
Si Si6 0.563572 0.436757 0.449601
Si Si7 0.739196 0.435649 0.203109
Si Si8 0.638489 0.648700 0.835847
O O1 0.500000 0.352072 0.061461
O O2 0.599599 0.392218 0.107191
O O3 0.583958 0.282989 0.112413
O O4 0.584616 0.338458 0.916203
O O5 0.931632 0.934093 0.808388
O O6 0.823337 0.927630 0.756152
O O7 0.887811 0.000000 0.645696
O O8 0.667498 0.805644 0.814640
O O9 0.606993 0.891701 0.747869
O O10 0.717994 0.900157 0.781753
O O11 0.643595 0.888672 0.956648
O O12 0.913954 0.262380 0.817841
O O13 0.906528 0.327645 0.625989
O O14 0.000000 0.283146 0.677562
O O15 0.744882 0.260722 0.431226
O O16 0.817726 0.198712 0.341508
O O17 0.500000 0.419791 0.484437
O O18 0.577316 0.500000 0.494554
O O19 0.759628 0.500000 0.207638
#
# Coordination Sequence:
#
# PCOD8307943 Si02
#       8
#    16  16  16  16  16  16  16  16
#     4  11  22  37  63  93 121 163 206 248 313 376
#     4  10  21  38  62  94 127 157 204 265 323 372
#     4  11  24  39  63  91 128 163 216 261 313 383
#     4  10  22  42  66  91 121 164 214 259 309 372
#     4  10  24  41  61  91 128 171 216 261 325 388
#     4  10  22  41  64  90 125 169 213 262 315 370
#     4  10  21  38  64  94 123 160 208 266 319 368
#     4  11  24  43  60  88 132 166 205 260 317 379
#
# _framework density 19.990839000000001
#
# number of rings (size 3 to 8) (size 9 to 14) (size 15 to 20)
#    0.000    1.625    1.250    3.000    5.250    4.250 
#    0.000    0.625    0.000    0.000    0.000    0.000 
#    0.000    0.000    0.000    0.000    0.000    0.000 
#
# Total GULP energy -793481.700095 kJ/mol
# GULP energy per Si atom -12398.151564 kJ/mol
# Density = 1.994534 g / cm^3
# Si number density = 19.990839 Si / 1000 Ang^3
#
#
#
# Elastic Constant Matrix: (Units=GPa)
#
#
# Indices 1 2 3 4 5 6 
#
# 1 71.6539 25.6927 30.0421 0.0000 0.0000 0.0000
# 2 25.6927 71.6539 30.0421 0.0000 0.0000 0.0000
# 3 30.0421 30.0421 104.4974 0.0000 0.0000 0.0000
# 4 0.0000 0.0000 0.0000 27.5643 0.0000 0.0000
# 5 0.0000 0.0000 0.0000 0.0000 27.5643 0.0000
# 6 0.0000 0.0000 0.0000 0.0000 0.0000 28.0255
#
#
#
# Elastic Compliance Matrix: (Units=1/GPa)
#
#
# Indices 1 2 3 4 5 6 
#
# 1 0.017123 -0.004634 -0.003590 0.000000 0.000000 0.000000
# 2 -0.004634 0.017123 -0.003590 0.000000 0.000000 0.000000
# 3 -0.003590 -0.003590 0.011634 0.000000 0.000000 0.000000
# 4 0.000000 0.000000 0.000000 0.036279 0.000000 0.000000
# 5 0.000000 0.000000 0.000000 0.000000 0.036279 0.000000
# 6 0.000000 0.000000 0.000000 0.000000 0.000000 0.035682
#
#
# Mechanical properties :
#
#
# Convention : Reuss Voigt Hill
#
# Bulk Modulus (GPa) = 44.94428 46.59544 45.76986
# Shear Modulus (GPa) = 27.00275 27.43273 27.21774
#
# Velocity S-wave (km/s) = 3.67925 3.70843 3.69387
# Velocity P-wave (km/s) = 6.37028 6.45721 6.41389
#
# Compressibility (1/GPa) = 0.02224977
#
# Stress axis : x y z
#
# Youngs Moduli (GPa) = 58.40083 58.40083 85.95486
#
# Poissons Ratio (x) = 0.27065 0.30861
# Poissons Ratio (y) = 0.27065 0.30861
# Poissons Ratio (z) = 0.20968 0.20968
#
# Static dielectric constant tensor:
#      x y z
#    x 3.604020 0.000000 0.000000 
#    y 0.000000 3.604020 0.000000 
#    z 0.000000 0.000000 3.895290 
# 
# 
# High freq. dielectric constant tensor:
#      x y z
#    x 1.783390 0.000000 0.000000 
#    y 0.000000 1.783390 0.000000 
#    z 0.000000 0.000000 1.779040 
# 
# From -- ./inp_files/2208.got.cif
#   From: 2010.03.12/outbox.cif.g09.slc.cpg/sg109_2_cif.got.tgz:2208.got - 2010.04.14 01:55:16.
