data_PCOD8307623
_publ_section_title
;
Structure prediction by ZEFSAII (Michael W. Deem and Ramdas Pophale) SiO2 
 PCOD8307623
Probable space group: I 4 M M
;
_chemical_formula_sum "Si O2"
_cell_formula_units_Z 112
_cell_length_a 13.532498
_cell_length_b 13.532498
_cell_length_c 35.968199
_cell_angle_alpha 90.000000
_cell_angle_beta 90.000000
_cell_angle_gamma 90.000000
_cell_volume 6586.802407
_symmetry_space_group_name_H-M "I 4 M M"
_symmetry_group_IT_number 107
_symmetry_cell_setting 'tetragonal'
loop_
_space_group_symop_operation_xyz
x,y,z
-y,x,z
-x,-y,z
y,-x,z
-x,y,z
x,-y,z
-y,-x,z
y,x,z
1/2+x,1/2+y,1/2+z
1/2-y,1/2+x,1/2+z
1/2-x,1/2-y,1/2+z
1/2+y,1/2-x,1/2+z
1/2-x,1/2+y,1/2+z
1/2+x,1/2-y,1/2+z
1/2-y,1/2-x,1/2+z
1/2+y,1/2+x,1/2+z
loop_
_atom_site_type_symbol
_atom_site_label
_atom_site_fract_x
_atom_site_fract_y
_atom_site_fract_z
Si Si1 0.383559 0.222747 0.353650
Si Si2 0.116555 0.275866 0.290100
Si Si3 0.616016 0.110973 0.717056
Si Si4 0.883035 0.610527 0.927512
Si Si5 0.113130 0.270313 0.645909
Si Si6 0.276166 0.884369 0.000740
Si Si7 0.385252 0.223979 0.062626
O O1 0.500000 0.245169 0.353205
O O2 0.326491 0.326491 0.348930
O O3 0.356654 0.147521 0.320648
O O4 0.348166 0.171539 0.391695
O O5 0.172419 0.172419 0.297114
O O6 0.150222 0.317885 0.250193
O O7 0.000000 0.256438 0.292459
O O8 0.500000 0.110188 0.713996
O O9 0.655191 0.151897 0.677585
O O10 0.655268 0.000000 0.725039
O O11 0.837003 0.500000 0.926524
O O12 0.000000 0.602158 0.927940
O O13 0.846197 0.666869 0.964193
O O14 0.166656 0.166656 0.650387
O O15 0.131342 0.315217 0.604782
O O16 0.000000 0.245475 0.652233
O O17 0.172375 0.827626 0.004137
O O18 0.345887 0.862356 0.035960
O O19 0.252026 0.000000 0.999005
O O20 0.500000 0.245775 0.054591
O O21 0.325455 0.325455 0.055305
#
# Coordination Sequence:
#
# PCOD8307623 Si02
#       7
#    16  16  16  16  16  16  16
#     4  10  20  33  50  73 100 130 164 199 236 281
#     4  10  20  33  50  71  94 123 159 199 243 288
#     4   9  17  29  46  68  92 119 153 192 234 281
#     4   9  17  30  49  71  94 122 156 193 231 270
#     4   9  17  29  45  66  93 122 152 188 229 276
#     4  10  20  33  49  70  96 126 161 200 242 288
#     4   9  18  31  47  69  95 124 159 197 238 284
#
# _framework density 17.003698
#
# number of rings (size 3 to 8) (size 9 to 14) (size 15 to 20)
#    0.000    2.571    0.000    2.143    0.000    3.571 
#    0.000    2.857    0.000    2.571    0.000    2.000 
#    0.000   13.714    0.000    0.000    0.000    0.000 
#
# Total GULP energy -694327.003994 kJ/mol
# GULP energy per Si atom -12398.696500 kJ/mol
# Density = 1.696500 g / cm^3
# Si number density = 17.003698 Si / 1000 Ang^3
#
#
#
# Elastic Constant Matrix: (Units=GPa)
#
#
# Indices 1 2 3 4 5 6 
#
# 1 73.6181 35.5212 43.6301 0.0000 0.0000 0.0001
# 2 35.5212 73.6181 43.6301 0.0000 0.0000 -0.0001
# 3 43.6301 43.6301 131.6088 0.0000 0.0000 0.0000
# 4 0.0000 0.0000 0.0000 26.5071 0.0000 0.0000
# 5 0.0000 0.0000 0.0000 0.0000 26.5071 0.0000
# 6 0.0001 -0.0001 0.0000 0.0000 0.0000 16.7508
#
#
#
# Elastic Compliance Matrix: (Units=1/GPa)
#
#
# Indices 1 2 3 4 5 6 
#
# 1 0.019358 -0.006891 -0.004133 0.000000 0.000000 0.000000
# 2 -0.006891 0.019358 -0.004133 0.000000 0.000000 0.000000
# 3 -0.004133 -0.004133 0.010339 0.000000 0.000000 0.000000
# 4 0.000000 0.000000 0.000000 0.037726 0.000000 0.000000
# 5 0.000000 0.000000 0.000000 0.000000 0.037726 0.000000
# 6 0.000000 0.000000 0.000000 0.000000 0.000000 0.059699
#
#
# Mechanical properties :
#
#
# Convention : Reuss Voigt Hill
#
# Bulk Modulus (GPa) = 53.35981 58.26751 55.81366
# Shear Modulus (GPa) = 22.64848 24.35723 23.50285
#
# Velocity S-wave (km/s) = 3.65358 3.78890 3.72186
# Velocity P-wave (km/s) = 7.01767 7.31320 7.16696
#
# Compressibility (1/GPa) = 0.01874070
#
# Stress axis : x y z
#
# Youngs Moduli (GPa) = 51.65829 51.65829 96.72526
#
# Poissons Ratio (x) = 0.35597 0.39976
# Poissons Ratio (y) = 0.35597 0.39976
# Poissons Ratio (z) = 0.21350 0.21350
#
# Static dielectric constant tensor:
#      x y z
#    x 3.039230 0.000000 0.000000 
#    y 0.000000 3.039230 0.000000 
#    z 0.000000 0.000000 3.497890 
# 
# 
# High freq. dielectric constant tensor:
#      x y z
#    x 1.643260 0.000000 0.000000 
#    y 0.000000 1.643260 0.000000 
#    z 0.000000 0.000000 1.674930 
# 
# From -- ./inp_files/6158.got.cif
#   From: 2010.03.12/outbox.cif.g09.slc.cpg/sg107_4_cif.got.tgz:6158.got - 2010.04.14 01:49:11.
