data_PCOD8307598
_publ_section_title
;
Structure prediction by ZEFSAII (Michael W. Deem and Ramdas Pophale) SiO2 
 PCOD8307598
Probable space group: I 4 M M
;
_chemical_formula_sum "Si O2"
_cell_formula_units_Z 112
_cell_length_a 33.378332
_cell_length_b 33.378332
_cell_length_c 5.153222
_cell_angle_alpha 90.000000
_cell_angle_beta 90.000000
_cell_angle_gamma 90.000000
_cell_volume 5741.271865
_symmetry_space_group_name_H-M "I 4 M M"
_symmetry_group_IT_number 107
_symmetry_cell_setting 'tetragonal'
loop_
_space_group_symop_operation_xyz
x,y,z
-y,x,z
-x,-y,z
y,-x,z
-x,y,z
x,-y,z
-y,-x,z
y,x,z
1/2+x,1/2+y,1/2+z
1/2-y,1/2+x,1/2+z
1/2-x,1/2-y,1/2+z
1/2+y,1/2-x,1/2+z
1/2-x,1/2+y,1/2+z
1/2+x,1/2-y,1/2+z
1/2-y,1/2-x,1/2+z
1/2+y,1/2+x,1/2+z
loop_
_atom_site_type_symbol
_atom_site_label
_atom_site_fract_x
_atom_site_fract_y
_atom_site_fract_z
Si Si1 0.240272 0.401607 0.105160
Si Si2 0.684249 0.453200 0.153144
Si Si3 0.364832 0.728360 0.599517
Si Si4 0.648211 0.888318 0.638123
Si Si5 0.081206 0.454167 0.145469
Si Si6 0.348134 0.411862 0.645059
Si Si7 0.770308 0.292069 0.776640
O O1 0.268937 0.439738 0.173932
O O2 0.254523 0.367474 0.307511
O O3 0.192903 0.407105 0.145673
O O4 0.247072 0.392355 0.802239
O O5 0.683874 0.500000 0.102138
O O6 0.659710 0.443746 0.416364
O O7 0.660170 0.431897 0.921772
O O8 0.374725 0.681762 0.603039
O O9 0.319977 0.733671 0.698700
O O10 0.639987 0.861216 0.384425
O O11 0.620957 0.927584 0.638832
O O12 0.095040 0.500000 0.126518
O O13 0.056587 0.447693 0.408059
O O14 0.393135 0.393135 0.637175
O O15 0.752642 0.247359 0.830365
O O16 0.804175 0.291692 0.547809
#
# Coordination Sequence:
#
# PCOD8307598 Si02
#       7
#    16  16  16  16  16  16  16
#     4  10  21  34  52  75 100 139 178 213 268 314
#     4  10  21  37  57  85 118 146 182 230 270 319
#     4  10  20  33  49  72  99 132 177 220 258 306
#     4  10  21  36  52  73 103 137 180 230 274 327
#     4  10  21  36  54  76  99 124 157 203 262 326
#     4  10  20  36  58  82 112 148 182 219 270 325
#     4  10  20  31  43  62  90 125 166 213 262 303
#
# _framework density 19.507874000000001
#
# number of rings (size 3 to 8) (size 9 to 14) (size 15 to 20)
#    0.000    2.000    0.000    3.429    0.000    4.857 
#    0.000    4.286    0.000   10.286    0.000    0.000 
#    0.000   20.000    0.000    0.000    0.000    0.000 
#
# Total GULP energy -694011.339872 kJ/mol
# GULP energy per Si atom -12393.059641 kJ/mol
# Density = 1.946347 g / cm^3
# Si number density = 19.507874 Si / 1000 Ang^3
#
#
#
# Elastic Constant Matrix: (Units=GPa)
#
#
# Indices 1 2 3 4 5 6 
#
# 1 80.0857 33.4226 21.2818 0.0000 0.0000 -0.0001
# 2 33.4226 80.0857 21.2818 0.0000 0.0000 0.0001
# 3 21.2818 21.2818 116.4628 0.0000 0.0000 0.0000
# 4 0.0000 0.0000 0.0000 16.9678 0.0000 0.0000
# 5 0.0000 0.0000 0.0000 0.0000 16.9678 0.0000
# 6 -0.0001 0.0001 0.0000 0.0000 0.0000 11.2191
#
#
#
# Elastic Compliance Matrix: (Units=1/GPa)
#
#
# Indices 1 2 3 4 5 6 
#
# 1 0.015444 -0.005986 -0.001728 0.000000 0.000000 0.000000
# 2 -0.005986 0.015444 -0.001728 0.000000 0.000000 0.000000
# 3 -0.001728 -0.001728 0.009218 0.000000 0.000000 0.000000
# 4 0.000000 0.000000 0.000000 0.058935 0.000000 0.000000
# 5 0.000000 0.000000 0.000000 0.000000 0.058935 0.000000
# 6 0.000000 0.000000 0.000000 0.000000 0.000000 0.089133
#
#
# Mechanical properties :
#
#
# Convention : Reuss Voigt Hill
#
# Bulk Modulus (GPa) = 47.12344 47.62298 47.37321
# Shear Modulus (GPa) = 18.31040 22.40749 20.35894
#
# Velocity S-wave (km/s) = 3.06701 3.39283 3.23403
# Velocity P-wave (km/s) = 6.06223 6.30980 6.18725
#
# Compressibility (1/GPa) = 0.02122086
#
# Stress axis : x y z
#
# Youngs Moduli (GPa) = 64.74963 64.74963 108.48247
#
# Poissons Ratio (x) = 0.38760 0.18749
# Poissons Ratio (y) = 0.38760 0.18749
# Poissons Ratio (z) = 0.11191 0.11191
#
# Static dielectric constant tensor:
#      x y z
#    x 3.303130 0.000000 0.000000 
#    y 0.000000 3.303130 0.000000 
#    z 0.000000 0.000000 3.993230 
# 
# 
# High freq. dielectric constant tensor:
#      x y z
#    x 1.737530 0.000000 0.000000 
#    y 0.000000 1.737530 0.000000 
#    z 0.000000 0.000000 1.790620 
# 
# From -- ./inp_files/590.got.cif
#   From: 2010.03.12/outbox.cif.g09.slc.cpg/sg107_1_cif.got.tgz:590.got - 2010.04.14 01:49:11.
