data_PCOD8307593
_publ_section_title
;
Structure prediction by ZEFSAII (Michael W. Deem and Ramdas Pophale) SiO2 
 PCOD8307593
Probable space group: I 4 M M
;
_chemical_formula_sum "Si O2"
_cell_formula_units_Z 128
_cell_length_a 23.242274
_cell_length_b 23.242274
_cell_length_c 13.053279
_cell_angle_alpha 90.000000
_cell_angle_beta 90.000000
_cell_angle_gamma 90.000000
_cell_volume 7051.424401
_symmetry_space_group_name_H-M "I 4 M M"
_symmetry_group_IT_number 107
_symmetry_cell_setting 'tetragonal'
loop_
_space_group_symop_operation_xyz
x,y,z
-y,x,z
-x,-y,z
y,-x,z
-x,y,z
x,-y,z
-y,-x,z
y,x,z
1/2+x,1/2+y,1/2+z
1/2-y,1/2+x,1/2+z
1/2-x,1/2-y,1/2+z
1/2+y,1/2-x,1/2+z
1/2-x,1/2+y,1/2+z
1/2+x,1/2-y,1/2+z
1/2-y,1/2-x,1/2+z
1/2+y,1/2+x,1/2+z
loop_
_atom_site_type_symbol
_atom_site_label
_atom_site_fract_x
_atom_site_fract_y
_atom_site_fract_z
Si Si1 0.131665 0.436711 0.442890
Si Si2 0.356565 0.147260 0.623341
Si Si3 0.740957 0.566252 0.379280
Si Si4 0.779750 0.124365 0.092722
Si Si5 0.275597 0.370078 0.171208
Si Si6 0.065235 0.157878 0.269741
Si Si7 0.566040 0.657875 0.998070
Si Si8 0.435602 0.934050 0.248084
O O1 0.134817 0.500000 0.498928
O O2 0.122877 0.383093 0.518091
O O3 0.190129 0.428568 0.377959
O O4 0.076618 0.436897 0.369515
O O5 0.361348 0.215340 0.623761
O O6 0.290245 0.135092 0.639952
O O7 0.393492 0.115220 0.709014
O O8 0.720872 0.500000 0.372559
O O9 0.715012 0.593983 0.482573
O O10 0.716295 0.600504 0.281766
O O11 0.817823 0.182178 0.093111
O O12 0.796896 0.080764 0.182341
O O13 0.308602 0.308602 0.172403
O O14 0.299182 0.410501 0.082524
O O15 0.100157 0.100157 0.251139
O O16 0.076825 0.183955 0.383717
O O17 0.000000 0.139307 0.257874
O O18 0.500000 0.646619 0.020419
O O19 0.596343 0.596343 0.007626
O O20 0.500000 0.919732 0.203396
O O21 0.419988 0.000000 0.225645
#
# Coordination Sequence:
#
# PCOD8307593 Si02
#       8
#    16  16  16  16  16  16  16  16
#     4   9  19  36  55  78 105 136 181 233 283 336
#     4  11  22  36  56  79 107 146 189 226 281 339
#     4  10  19  35  59  81 106 144 189 234 280 336
#     4  10  21  37  56  82 114 149 190 238 286 337
#     4  11  22  36  54  81 116 152 191 235 281 338
#     4   9  18  34  55  81 113 145 181 226 278 336
#     4   9  19  35  55  81 111 144 182 227 280 336
#     4  10  21  37  56  80 110 141 180 233 286 335
#
# _framework density 18.152360999999999
#
# number of rings (size 3 to 8) (size 9 to 14) (size 15 to 20)
#    0.000    2.125    1.250    1.875    0.000    3.750 
#    0.000    3.750    0.000    0.000    0.000    0.000 
#    0.000    9.000    0.000    0.000    0.000    0.000 
#
# Total GULP energy -793209.146507 kJ/mol
# GULP energy per Si atom -12393.892914 kJ/mol
# Density = 1.811105 g / cm^3
# Si number density = 18.152361 Si / 1000 Ang^3
#
#
#
# Elastic Constant Matrix: (Units=GPa)
#
#
# Indices 1 2 3 4 5 6 
#
# 1 107.8043 53.3567 61.2693 0.0000 0.0000 -0.0093
# 2 53.3567 107.8043 61.2693 0.0000 0.0000 0.0093
# 3 61.2693 61.2693 125.9785 0.0000 0.0000 0.0000
# 4 0.0000 0.0000 0.0000 26.4382 0.0000 0.0000
# 5 0.0000 0.0000 0.0000 0.0000 26.4382 0.0000
# 6 -0.0093 0.0093 0.0000 0.0000 0.0000 48.2471
#
#
#
# Elastic Compliance Matrix: (Units=1/GPa)
#
#
# Indices 1 2 3 4 5 6 
#
# 1 0.014106 -0.004260 -0.004789 0.000000 0.000000 0.000004
# 2 -0.004260 0.014106 -0.004789 0.000000 0.000000 -0.000004
# 3 -0.004789 -0.004789 0.012596 0.000000 0.000000 0.000000
# 4 0.000000 0.000000 0.000000 0.037824 0.000000 0.000000
# 5 0.000000 0.000000 0.000000 0.000000 0.037824 0.000000
# 6 0.000004 -0.000004 0.000000 0.000000 0.000000 0.020727
#
#
# Mechanical properties :
#
#
# Convention : Reuss Voigt Hill
#
# Bulk Modulus (GPa) = 76.14203 77.04197 76.59200
# Shear Modulus (GPa) = 29.54473 31.27082 30.40778
#
# Velocity S-wave (km/s) = 4.03873 4.15503 4.09729
# Velocity P-wave (km/s) = 7.98659 8.09648 8.04172
#
# Compressibility (1/GPa) = 0.01313335
#
# Stress axis : x y z
#
# Youngs Moduli (GPa) = 70.89121 70.89121 79.39248
#
# Poissons Ratio (x) = 0.30201 0.38017
# Poissons Ratio (y) = 0.30201 0.38017
# Poissons Ratio (z) = 0.33947 0.33947
#
# Static dielectric constant tensor:
#      x y z
#    x 3.388600 0.000000 0.000000 
#    y 0.000000 3.388600 0.000000 
#    z 0.000000 0.000000 3.462380 
# 
# 
# High freq. dielectric constant tensor:
#      x y z
#    x 1.703810 0.000000 0.000000 
#    y 0.000000 1.703810 0.000000 
#    z 0.000000 0.000000 1.710440 
# 
# From -- ./inp_files/2681.got.cif
#   From: 2010.03.12/outbox.cif.g09.slc.cpg/sg107_2_cif.got.tgz:2681.got - 2010.04.14 01:49:11.
