data_PCOD8307698
_publ_section_title
;
Structure prediction by ZEFSAII (Michael W. Deem and Ramdas Pophale) SiO2 
 PCOD8307698
Probable space group: I 4 M M
;
_chemical_formula_sum "Si O2"
_cell_formula_units_Z 96
_cell_length_a 23.200863
_cell_length_b 23.200863
_cell_length_c 11.851775
_cell_angle_alpha 90.000000
_cell_angle_beta 90.000000
_cell_angle_gamma 90.000000
_cell_volume 6379.573968
_symmetry_space_group_name_H-M "I 4 M M"
_symmetry_group_IT_number 107
_symmetry_cell_setting 'tetragonal'
loop_
_space_group_symop_operation_xyz
x,y,z
-y,x,z
-x,-y,z
y,-x,z
-x,y,z
x,-y,z
-y,-x,z
y,x,z
1/2+x,1/2+y,1/2+z
1/2-y,1/2+x,1/2+z
1/2-x,1/2-y,1/2+z
1/2+y,1/2-x,1/2+z
1/2-x,1/2+y,1/2+z
1/2+x,1/2-y,1/2+z
1/2-y,1/2-x,1/2+z
1/2+y,1/2+x,1/2+z
loop_
_atom_site_type_symbol
_atom_site_label
_atom_site_fract_x
_atom_site_fract_y
_atom_site_fract_z
Si Si1 0.660879 0.566833 0.135950
Si Si2 0.348153 0.828659 0.117454
Si Si3 0.632544 0.725765 0.954136
Si Si4 0.639162 0.268027 0.698491
Si Si5 0.707813 0.066104 0.034448
Si Si6 0.934086 0.272107 0.775034
O O1 0.643260 0.500000 0.135851
O O2 0.603947 0.603947 0.162064
O O3 0.688043 0.583122 0.014761
O O4 0.708145 0.581671 0.231569
O O5 0.359598 0.787083 0.012676
O O6 0.285710 0.817033 0.175775
O O7 0.347540 0.894452 0.068936
O O8 0.396906 0.820825 0.212011
O O9 0.693707 0.693707 0.960552
O O10 0.614145 0.735004 0.825041
O O11 0.672223 0.327778 0.676434
O O12 0.584841 0.262364 0.612880
O O13 0.691287 0.000000 0.054905
O O14 0.726264 0.078729 0.906978
O O15 0.000000 0.286680 0.747045
#
# Coordination Sequence:
#
# PCOD8307698 Si02
#       6
#    16  16  16  16  16  16
#     4   9  18  30  46  66  89 120 154 189 227 265
#     4   9  17  28  47  65  90 119 149 187 225 268
#     4   9  16  28  42  64  92 117 150 189 226 270
#     4   9  18  27  42  66  93 120 150 182 226 274
#     4   9  19  30  45  67  96 121 147 183 224 270
#     4   9  17  32  48  67  92 122 153 183 224 272
#
# _framework density 15.048026999999999
#
# number of rings (size 3 to 8) (size 9 to 14) (size 15 to 20)
#    1.000    2.000    0.000    1.500    0.000    2.167 
#    0.000    0.000    0.000    0.500    0.000    2.333 
#    0.000    0.333    0.000    0.333    0.000    0.000 
#
# Total GULP energy -594827.879003 kJ/mol
# GULP energy per Si atom -12392.247479 kJ/mol
# Density = 1.501378 g / cm^3
# Si number density = 15.048027 Si / 1000 Ang^3
#
#
#
# Elastic Constant Matrix: (Units=GPa)
#
#
# Indices 1 2 3 4 5 6 
#
# 1 86.8153 44.3174 50.3969 0.0000 0.0000 -0.0001
# 2 44.3174 86.8153 50.3969 0.0000 0.0000 0.0001
# 3 50.3969 50.3969 118.5521 0.0000 0.0000 0.0000
# 4 0.0000 0.0000 0.0000 20.4166 0.0000 0.0000
# 5 0.0000 0.0000 0.0000 0.0000 20.4166 0.0000
# 6 -0.0001 0.0001 0.0000 0.0000 0.0000 16.0620
#
#
#
# Elastic Compliance Matrix: (Units=1/GPa)
#
#
# Indices 1 2 3 4 5 6 
#
# 1 0.017429 -0.006102 -0.004815 0.000000 0.000000 0.000000
# 2 -0.006102 0.017429 -0.004815 0.000000 0.000000 0.000000
# 3 -0.004815 -0.004815 0.012529 0.000000 0.000000 0.000000
# 4 0.000000 0.000000 0.000000 0.048980 0.000000 0.000000
# 5 0.000000 0.000000 0.000000 0.000000 0.048980 0.000000
# 6 0.000000 0.000000 0.000000 0.000000 0.000000 0.062259
#
#
# Mechanical properties :
#
#
# Convention : Reuss Voigt Hill
#
# Bulk Modulus (GPa) = 62.80470 64.71166 63.75818
# Shear Modulus (GPa) = 20.46023 21.18379 20.82201
#
# Velocity S-wave (km/s) = 3.69136 3.75606 3.72385
# Velocity P-wave (km/s) = 7.74564 7.86813 7.80713
#
# Compressibility (1/GPa) = 0.01592237
#
# Stress axis : x y z
#
# Youngs Moduli (GPa) = 57.37644 57.37644 79.81502
#
# Poissons Ratio (x) = 0.35010 0.38432
# Poissons Ratio (y) = 0.35010 0.38432
# Poissons Ratio (z) = 0.27628 0.27628
#
# Static dielectric constant tensor:
#      x y z
#    x 2.727580 0.000000 0.000000 
#    y 0.000000 2.727580 0.000000 
#    z 0.000000 0.000000 2.995720 
# 
# 
# High freq. dielectric constant tensor:
#      x y z
#    x 1.557780 0.000000 0.000000 
#    y 0.000000 1.557780 0.000000 
#    z 0.000000 0.000000 1.587530 
# 
# From -- ./inp_files/2531.got.cif
#   From: 2010.03.12/outbox.cif.g09.slc.cpg/sg107_2_cif.got.tgz:2531.got - 2010.04.14 01:49:11.
