data_PCOD8307274
_publ_section_title
;
Structure prediction by ZEFSAII (Michael W. Deem and Ramdas Pophale) SiO2 
 PCOD8307274
Probable space group: P 42 M C
;
_chemical_formula_sum "Si O2"
_cell_formula_units_Z 40
_cell_length_a 8.117464
_cell_length_b 8.117464
_cell_length_c 29.109788
_cell_angle_alpha 90.000000
_cell_angle_beta 90.000000
_cell_angle_gamma 90.000000
_cell_volume 1918.137717
_symmetry_space_group_name_H-M "P 42 M C"
_symmetry_group_IT_number 105
_symmetry_cell_setting 'tetragonal'
loop_
_space_group_symop_operation_xyz
x,y,z
-y,x,1/2+z
-x,-y,z
y,-x,1/2+z
-x,y,z
x,-y,z
-y,-x,1/2+z
y,x,1/2+z
loop_
_atom_site_type_symbol
_atom_site_label
_atom_site_fract_x
_atom_site_fract_y
_atom_site_fract_z
Si Si1 0.812487 0.692015 0.935460
Si Si2 0.500000 0.806977 0.878106
Si Si3 0.179679 0.809410 0.532349
Si Si4 0.192789 0.500000 0.275871
Si Si5 0.695011 0.816255 0.219488
Si Si6 0.311473 0.313861 0.624631
O O1 0.824693 0.500000 0.928885
O O2 0.672112 0.756464 0.901447
O O3 0.000000 0.764773 0.926398
O O4 0.744284 0.730733 0.986621
O O5 0.500000 0.729480 0.826897
O O6 0.500000 0.000000 0.875655
O O7 0.286558 0.784055 0.577757
O O8 0.000000 0.723857 0.537350
O O9 0.155206 0.000000 0.525174
O O10 0.243059 0.329947 0.251586
O O11 0.000000 0.500000 0.278843
O O12 0.500000 0.803517 0.218357
O O13 0.761183 0.791827 0.167243
O O14 0.751323 0.000000 0.236366
O O15 0.500000 0.302017 0.639910
O O16 0.256810 0.500000 0.614613
#
# Coordination Sequence:
#
# PCOD8307274 Si02
#       6
#     8   4   8   4   8   8
#     4  10  22  41  64  91 123 159 205 260 314 373
#     4  11  25  43  65  91 121 163 207 255 317 376
#     4  10  21  36  55  83 121 163 202 243 299 367
#     4  11  25  43  63  91 125 161 205 257 313 378
#     4  10  21  40  65  90 121 161 205 257 314 372
#     4  10  20  35  57  85 119 160 204 250 299 359
#
# _framework density 20.853560000000002
#
# number of rings (size 3 to 8) (size 9 to 14) (size 15 to 20)
#    0.000    1.800    1.000    2.400    1.400    7.200 
#    0.000    4.000    0.000    0.000    0.000    0.000 
#    0.000    0.000    0.000    0.000    0.000    0.000 
#
# Total GULP energy -495675.539733 kJ/mol
# GULP energy per Si atom -12391.888493 kJ/mol
# Density = 2.080610 g / cm^3
# Si number density = 20.853560 Si / 1000 Ang^3
#
#
#
# Elastic Constant Matrix: (Units=GPa)
#
#
# Indices 1 2 3 4 5 6 
#
# 1 93.9357 35.4401 58.1639 0.0000 0.0000 0.0000
# 2 35.4401 93.9357 58.1639 0.0000 0.0000 0.0000
# 3 58.1639 58.1639 173.5775 0.0000 0.0000 0.0000
# 4 0.0000 0.0000 0.0000 25.5064 0.0000 0.0000
# 5 0.0000 0.0000 0.0000 0.0000 25.5064 0.0000
# 6 0.0000 0.0000 0.0000 0.0000 0.0000 24.1883
#
#
#
# Elastic Compliance Matrix: (Units=1/GPa)
#
#
# Indices 1 2 3 4 5 6 
#
# 1 0.014079 -0.003016 -0.003707 0.000000 0.000000 0.000000
# 2 -0.003016 0.014079 -0.003707 0.000000 0.000000 0.000000
# 3 -0.003707 -0.003707 0.008245 0.000000 0.000000 0.000000
# 4 0.000000 0.000000 0.000000 0.039206 0.000000 0.000000
# 5 0.000000 0.000000 0.000000 0.000000 0.039206 0.000000
# 6 0.000000 0.000000 0.000000 0.000000 0.000000 0.041342
#
#
# Mechanical properties :
#
#
# Convention : Reuss Voigt Hill
#
# Bulk Modulus (GPa) = 64.33885 73.88719 69.11302
# Shear Modulus (GPa) = 27.44259 29.01896 28.23078
#
# Velocity S-wave (km/s) = 3.63156 3.73441 3.68334
# Velocity P-wave (km/s) = 6.96448 7.35546 7.16264
#
# Compressibility (1/GPa) = 0.01554271
#
# Stress axis : x y z
#
# Youngs Moduli (GPa) = 71.02828 71.02828 121.27969
#
# Poissons Ratio (x) = 0.21425 0.44957
# Poissons Ratio (y) = 0.21425 0.44957
# Poissons Ratio (z) = 0.26330 0.26330
#
# Static dielectric constant tensor:
#      x y z
#    x 4.104360 0.000000 0.000000 
#    y 0.000000 4.104360 0.000000 
#    z 0.000000 0.000000 4.037420 
# 
# 
# High freq. dielectric constant tensor:
#      x y z
#    x 1.817240 0.000000 0.000000 
#    y 0.000000 1.817240 0.000000 
#    z 0.000000 0.000000 1.816810 
# 
# From -- ./inp_files/4319.got.cif
#   From: 2010.03.12/outbox.cif.g09.slc.cpg/sg105_3_cif.got.tgz:4319.got - 2010.04.14 01:45:32.
