data_PCOD8307981
_publ_section_title
;
Structure prediction by ZEFSAII (Michael W. Deem and Ramdas Pophale) SiO2 
 PCOD8307981
Probable space group: I 41 M D
;
_chemical_formula_sum "Si O2"
_cell_formula_units_Z 112
_cell_length_a 14.074803
_cell_length_b 14.074803
_cell_length_c 28.121053
_cell_angle_alpha 90.000000
_cell_angle_beta 90.000000
_cell_angle_gamma 90.000000
_cell_volume 5570.782835
_symmetry_space_group_name_H-M "I 41 M D"
_symmetry_group_IT_number 109
_symmetry_cell_setting 'tetragonal'
loop_
_space_group_symop_operation_xyz
x,y,z
-y,1/2+x,1/4+z
-x,-y,z
y,1/2-x,1/4+z
-x,y,z
x,-y,z
-y,1/2-x,1/4+z
y,1/2+x,1/4+z
1/2+x,1/2+y,1/2+z
1/2-y,x,3/4+z
1/2-x,1/2-y,1/2+z
1/2+y,-x,3/4+z
1/2-x,1/2+y,1/2+z
1/2+x,1/2-y,1/2+z
1/2-y,-x,3/4+z
1/2+y,x,3/4+z
loop_
_atom_site_type_symbol
_atom_site_label
_atom_site_fract_x
_atom_site_fract_y
_atom_site_fract_z
Si Si1 0.214019 0.888194 0.083570
Si Si2 0.107463 0.889953 0.748211
Si Si3 0.102323 0.112116 0.857709
Si Si4 0.392537 0.110047 0.247487
Si Si5 0.240385 0.250000 0.247849
Si Si6 0.602323 0.112116 0.137989
Si Si7 0.111806 0.214019 0.162127
O O1 0.314262 0.850499 0.104402
O O2 0.132886 0.867114 0.122849
O O3 0.212398 0.000000 0.071614
O O4 0.197428 0.827935 0.035799
O O5 0.120032 0.860524 0.803205
O O6 0.189670 0.828146 0.722631
O O7 0.000000 0.864299 0.731080
O O8 0.127477 0.000000 0.738775
O O9 0.185738 0.149501 0.891296
O O10 0.000000 0.153538 0.874727
O O11 0.099367 0.000000 0.861093
O O12 0.500000 0.135701 0.264618
O O13 0.310330 0.171854 0.273066
O O14 0.379968 0.139476 0.192492
O O15 0.372523 0.000000 0.256923
O O16 0.172065 0.197428 0.209898
O O17 0.500000 0.153538 0.120971
O O18 0.599367 0.000000 0.134605
O O19 0.000000 0.212398 0.174083
#
# Coordination Sequence:
#
# PCOD8307981 Si02
#       7
#    16  16  16  16  16  16  16
#     4  11  23  39  56  81 118 159 201 248 301 356
#     4   9  18  34  57  85 115 145 182 231 290 355
#     4   8  15  32  56  76 100 140 186 232 285 344
#     4   9  18  34  57  85 115 145 182 231 290 355
#     4  12  22  34  60  90 114 152 202 250 294 360
#     4   8  15  32  56  76 100 140 186 232 285 344
#     4  11  23  39  56  81 118 159 201 248 301 356
#
# _framework density 20.104893000000001
#
# number of rings (size 3 to 8) (size 9 to 14) (size 15 to 20)
#    0.000    2.286    2.857    2.571    0.000    1.429 
#    0.000    0.000    0.000    5.143    0.000    2.000 
#    0.000    0.000    0.000    0.000    0.000    0.000 
#
# Total GULP energy -693886.929307 kJ/mol
# GULP energy per Si atom -12390.838023 kJ/mol
# Density = 2.005913 g / cm^3
# Si number density = 20.104893 Si / 1000 Ang^3
#
#
#
# Elastic Constant Matrix: (Units=GPa)
#
#
# Indices 1 2 3 4 5 6 
#
# 1 98.5208 56.8640 17.1740 0.0000 0.0000 0.0000
# 2 56.8640 98.5208 17.1740 0.0000 0.0000 0.0000
# 3 17.1740 17.1740 39.0108 0.0000 0.0000 0.0000
# 4 0.0000 0.0000 0.0000 19.4197 0.0000 0.0000
# 5 0.0000 0.0000 0.0000 0.0000 19.4197 0.0000
# 6 0.0000 0.0000 0.0000 0.0000 0.0000 32.5380
#
#
#
# Elastic Compliance Matrix: (Units=1/GPa)
#
#
# Indices 1 2 3 4 5 6 
#
# 1 0.015568 -0.008438 -0.003139 0.000000 0.000000 0.000000
# 2 -0.008438 0.015568 -0.003139 0.000000 0.000000 0.000000
# 3 -0.003139 -0.003139 0.028397 0.000000 0.000000 0.000000
# 4 0.000000 0.000000 0.000000 0.051494 0.000000 0.000000
# 5 0.000000 0.000000 0.000000 0.000000 0.051494 0.000000
# 6 0.000000 0.000000 0.000000 0.000000 0.000000 0.030733
#
#
# Mechanical properties :
#
#
# Convention : Reuss Voigt Hill
#
# Bulk Modulus (GPa) = 33.22069 46.49740 39.85905
# Shear Modulus (GPa) = 21.48513 23.93148 22.70830
#
# Velocity S-wave (km/s) = 3.27257 3.45386 3.36444
# Velocity P-wave (km/s) = 5.55330 6.25165 5.91280
#
# Compressibility (1/GPa) = 0.03010172
#
# Stress axis : x y z
#
# Youngs Moduli (GPa) = 64.23615 64.23615 35.21444
#
# Poissons Ratio (x) = 0.54203 0.11053
# Poissons Ratio (y) = 0.54203 0.11053
# Poissons Ratio (z) = 0.20161 0.20161
#
# Static dielectric constant tensor:
#      x y z
#    x 3.251010 0.000000 0.000000 
#    y 0.000000 3.251010 0.000000 
#    z 0.000000 0.000000 3.355030 
# 
# 
# High freq. dielectric constant tensor:
#      x y z
#    x 1.787170 0.000000 0.000000 
#    y 0.000000 1.787170 0.000000 
#    z 0.000000 0.000000 1.739230 
# 
# From -- ./inp_files/5024.got.cif
#   From: 2010.03.12/outbox.cif.g09.slc.cpg/sg109_3_cif.got.tgz:5024.got - 2010.04.14 01:55:16.
