data_PCOD8307465
_publ_section_title
;
Structure prediction by ZEFSAII (Michael W. Deem and Ramdas Pophale) SiO2 
 PCOD8307465
Probable space group: P 42 B C
;
_chemical_formula_sum "Si O2"
_cell_formula_units_Z 56
_cell_length_a 14.581195
_cell_length_b 14.581195
_cell_length_c 10.510537
_cell_angle_alpha 90.000000
_cell_angle_beta 90.000000
_cell_angle_gamma 90.000000
_cell_volume 2234.658385
_symmetry_space_group_name_H-M "P 42 B C"
_symmetry_group_IT_number 106
_symmetry_cell_setting 'tetragonal'
loop_
_space_group_symop_operation_xyz
x,y,z
-y,x,1/2+z
-x,-y,z
y,-x,1/2+z
1/2-x,1/2+y,z
1/2+x,1/2-y,z
1/2-y,1/2-x,1/2+z
1/2+y,1/2+x,1/2+z
loop_
_atom_site_type_symbol
_atom_site_label
_atom_site_fract_x
_atom_site_fract_y
_atom_site_fract_z
Si Si1 0.455813 0.699786 0.452660
Si Si2 0.147634 0.795086 0.332987
Si Si3 0.328476 0.121534 0.175852
Si Si4 0.398037 0.036099 0.436435
Si Si5 0.652263 0.184365 0.008204
Si Si6 0.629772 0.330324 0.190074
Si Si7 0.082372 0.051791 0.653083
O O1 0.557871 0.732434 0.415768
O O2 0.408816 0.788746 0.516831
O O3 0.390185 0.670781 0.337853
O O4 0.455480 0.607784 0.534330
O O5 0.164351 0.726473 0.216999
O O6 0.237399 0.802677 0.418801
O O7 0.123176 0.887365 0.259873
O O8 0.370939 0.064975 0.293299
O O9 0.217685 0.101913 0.158937
O O10 0.382959 0.110498 0.042336
O O11 0.500000 0.000000 0.432868
O O12 0.332933 0.951959 0.470368
O O13 0.654425 0.226253 0.149684
O O14 0.534242 0.351945 0.113597
O O15 0.000000 0.000000 0.723453
#
# Coordination Sequence:
#
# PCOD8307465 Si02
#       7
#     8   8   8   8   8   8   8
#     4  11  25  46  73 110 155 193 257 324 392 481
#     4  11  25  47  76 112 151 204 265 322 401 476
#     4  12  26  51  79 113 161 212 271 341 395 485
#     4  12  29  50  80 116 165 218 278 335 409 489
#     4  12  26  48  79 111 155 214 261 328 403 481
#     4  11  26  43  75 108 144 207 257 320 410 473
#     4  11  26  45  71 109 149 191 252 330 394 477
#
# _framework density 25.059760000000001
#
# number of rings (size 3 to 8) (size 9 to 14) (size 15 to 20)
#    0.000    0.571    1.429    5.571    6.000    5.714 
#    0.000    0.000    0.000    0.000    0.000    0.000 
#    0.000    0.000    0.000    0.000    0.000    0.000 
#
# Total GULP energy -693883.803024 kJ/mol
# GULP energy per Si atom -12390.782197 kJ/mol
# Density = 2.500272 g / cm^3
# Si number density = 25.059760 Si / 1000 Ang^3
#
#
#
# Elastic Constant Matrix: (Units=GPa)
#
#
# Indices 1 2 3 4 5 6 
#
# 1 104.8342 18.3578 20.0698 0.0000 0.0000 0.0000
# 2 18.3578 104.8342 20.0698 0.0000 0.0000 0.0000
# 3 20.0698 20.0698 70.0438 0.0000 0.0000 0.0000
# 4 0.0000 0.0000 0.0000 10.3126 0.0000 0.0000
# 5 0.0000 0.0000 0.0000 0.0000 10.3126 0.0000
# 6 0.0000 0.0000 0.0000 0.0000 0.0000 51.3081
#
#
#
# Elastic Compliance Matrix: (Units=1/GPa)
#
#
# Indices 1 2 3 4 5 6 
#
# 1 0.010259 -0.001305 -0.002565 0.000000 0.000000 0.000000
# 2 -0.001305 0.010259 -0.002565 0.000000 0.000000 0.000000
# 3 -0.002565 -0.002565 0.015747 0.000000 0.000000 0.000000
# 4 0.000000 0.000000 0.000000 0.096968 0.000000 0.000000
# 5 0.000000 0.000000 0.000000 0.000000 0.096968 0.000000
# 6 0.000000 0.000000 0.000000 0.000000 0.000000 0.019490
#
#
# Mechanical properties :
#
#
# Convention : Reuss Voigt Hill
#
# Bulk Modulus (GPa) = 42.74988 44.07858 43.41423
# Shear Modulus (GPa) = 18.49383 29.13432 23.81407
#
# Velocity S-wave (km/s) = 2.71954 3.41338 3.08602
# Velocity P-wave (km/s) = 5.19205 5.75869 5.48270
#
# Compressibility (1/GPa) = 0.02339188
#
# Stress axis : x y z
#
# Youngs Moduli (GPa) = 97.47946 97.47946 63.50440
#
# Poissons Ratio (x) = 0.12724 0.16292
# Poissons Ratio (y) = 0.12724 0.16292
# Poissons Ratio (z) = 0.25008 0.25008
#
# Static dielectric constant tensor:
#      x y z
#    x 8.000630 0.000000 0.000000 
#    y 0.000000 8.000630 0.000000 
#    z 0.000000 0.000000 4.570370 
# 
# 
# High freq. dielectric constant tensor:
#      x y z
#    x 2.015190 0.000000 0.000000 
#    y 0.000000 2.015190 0.000000 
#    z 0.000000 0.000000 2.001970 
# 
# From -- ./inp_files/1002.got.cif
#   From: 2010.03.12/outbox.cif.g09.slc.cpg/sg106_cif.got.tgz:1002.got - 2010.04.14 01:48:02.
