data_PCOD8307901
_publ_section_title
;
Structure prediction by ZEFSAII (Michael W. Deem and Ramdas Pophale) SiO2 
 PCOD8307901
Probable space group: I 41 M D
;
_chemical_formula_sum "Si O2"
_cell_formula_units_Z 112
_cell_length_a 29.896648
_cell_length_b 29.896648
_cell_length_c 6.815107
_cell_angle_alpha 90.000000
_cell_angle_beta 90.000000
_cell_angle_gamma 90.000000
_cell_volume 6091.407800
_symmetry_space_group_name_H-M "I 41 M D"
_symmetry_group_IT_number 109
_symmetry_cell_setting 'tetragonal'
loop_
_space_group_symop_operation_xyz
x,y,z
-y,1/2+x,1/4+z
-x,-y,z
y,1/2-x,1/4+z
-x,y,z
x,-y,z
-y,1/2-x,1/4+z
y,1/2+x,1/4+z
1/2+x,1/2+y,1/2+z
1/2-y,x,3/4+z
1/2-x,1/2-y,1/2+z
1/2+y,-x,3/4+z
1/2-x,1/2+y,1/2+z
1/2+x,1/2-y,1/2+z
1/2-y,-x,3/4+z
1/2+y,x,3/4+z
loop_
_atom_site_type_symbol
_atom_site_label
_atom_site_fract_x
_atom_site_fract_y
_atom_site_fract_z
Si Si1 0.881927 0.593291 0.737340
Si Si2 0.123603 0.551731 0.148857
Si Si3 0.947995 0.050664 0.220613
Si Si4 0.319914 0.662769 0.859864
Si Si5 0.749515 0.629957 0.537489
Si Si6 0.551065 0.692122 0.730925
Si Si7 0.693237 0.226592 0.486281
O O1 0.930498 0.578600 0.658823
O O2 0.875365 0.644937 0.673527
O O3 0.843806 0.561534 0.648482
O O4 0.878868 0.586503 0.970456
O O5 0.122199 0.500000 0.078715
O O6 0.080500 0.562796 0.281175
O O7 0.169210 0.561337 0.269939
O O8 0.000000 0.053062 0.273532
O O9 0.932487 0.000000 0.178996
O O10 0.279276 0.641228 0.733634
O O11 0.344619 0.703170 0.752216
O O12 0.304596 0.689543 0.050640
O O13 0.761742 0.577713 0.523181
O O14 0.724270 0.644612 0.340153
O O15 0.500000 0.706456 0.745773
O O16 0.725648 0.209559 0.658079
#
# Coordination Sequence:
#
# PCOD8307901 Si02
#       7
#    16  16  16  16  16  16  16
#     4  10  20  33  56  80 111 142 183 228 279 330
#     4   9  17  31  53  82 110 140 181 235 283 330
#     4   9  18  33  54  81 111 144 182 226 282 344
#     4  11  23  36  53  82 108 144 187 227 278 334
#     4  11  22  37  56  80 111 145 183 229 280 336
#     4   9  20  36  56  80 107 141 185 230 277 330
#     4  12  22  34  56  81 116 145 181 232 287 332
#
# _framework density 18.386554
#
# number of rings (size 3 to 8) (size 9 to 14) (size 15 to 20)
#    0.000    1.857    2.857    3.000    2.000    1.714 
#    0.000    2.143    0.000    0.857    0.000    0.000 
#    0.000    0.000    0.000    0.000    0.000    0.000 
#
# Total GULP energy -694023.744225 kJ/mol
# GULP energy per Si atom -12393.281147 kJ/mol
# Density = 1.834471 g / cm^3
# Si number density = 18.386554 Si / 1000 Ang^3
#
#
#
# Elastic Constant Matrix: (Units=GPa)
#
#
# Indices 1 2 3 4 5 6 
#
# 1 87.0034 46.8105 37.0530 0.0000 0.0000 0.0000
# 2 46.8105 87.0034 37.0530 0.0000 0.0000 0.0000
# 3 37.0530 37.0530 94.5643 0.0000 0.0000 0.0000
# 4 0.0000 0.0000 0.0000 16.4212 0.0000 0.0000
# 5 0.0000 0.0000 0.0000 0.0000 16.4212 0.0000
# 6 0.0000 0.0000 0.0000 0.0000 0.0000 29.1037
#
#
#
# Elastic Compliance Matrix: (Units=1/GPa)
#
#
# Indices 1 2 3 4 5 6 
#
# 1 0.017212 -0.007668 -0.003740 0.000000 0.000000 0.000000
# 2 -0.007668 0.017212 -0.003740 0.000000 0.000000 0.000000
# 3 -0.003740 -0.003740 0.013505 0.000000 0.000000 0.000000
# 4 0.000000 0.000000 0.000000 0.060897 0.000000 0.000000
# 5 0.000000 0.000000 0.000000 0.000000 0.060897 0.000000
# 6 0.000000 0.000000 0.000000 0.000000 0.000000 0.034360
#
#
# Mechanical properties :
#
#
# Convention : Reuss Voigt Hill
#
# Bulk Modulus (GPa) = 56.70543 56.71157 56.70850
# Shear Modulus (GPa) = 20.81112 22.23285 21.52198
#
# Velocity S-wave (km/s) = 3.36797 3.48111 3.42501
# Velocity P-wave (km/s) = 6.78469 6.86065 6.82277
#
# Compressibility (1/GPa) = 0.01763500
#
# Stress axis : x y z
#
# Youngs Moduli (GPa) = 58.09878 58.09878 74.04439
#
# Poissons Ratio (x) = 0.44550 0.27690
# Poissons Ratio (y) = 0.44550 0.27690
# Poissons Ratio (z) = 0.21727 0.21727
#
# Static dielectric constant tensor:
#      x y z
#    x 3.397370 0.000000 0.000000 
#    y 0.000000 3.397370 0.000000 
#    z 0.000000 0.000000 3.341310 
# 
# 
# High freq. dielectric constant tensor:
#      x y z
#    x 1.697440 0.000000 0.000000 
#    y 0.000000 1.697440 0.000000 
#    z 0.000000 0.000000 1.718510 
# 
# From -- ./inp_files/704.got.cif
#   From: 2010.03.12/outbox.cif.g09.slc.cpg/sg109_1_cif.got.tgz:704.got - 2010.04.14 01:55:16.
