data_PCOD8307652
_publ_section_title
;
Structure prediction by ZEFSAII (Michael W. Deem and Ramdas Pophale) SiO2 
 PCOD8307652
Probable space group: I 4 M M
;
_chemical_formula_sum "Si O2"
_cell_formula_units_Z 72
_cell_length_a 19.011417
_cell_length_b 19.011417
_cell_length_c 11.925891
_cell_angle_alpha 90.000000
_cell_angle_beta 90.000000
_cell_angle_gamma 90.000000
_cell_volume 4310.422206
_symmetry_space_group_name_H-M "I 4 M M"
_symmetry_group_IT_number 107
_symmetry_cell_setting 'tetragonal'
loop_
_space_group_symop_operation_xyz
x,y,z
-y,x,z
-x,-y,z
y,-x,z
-x,y,z
x,-y,z
-y,-x,z
y,x,z
1/2+x,1/2+y,1/2+z
1/2-y,1/2+x,1/2+z
1/2-x,1/2-y,1/2+z
1/2+y,1/2-x,1/2+z
1/2-x,1/2+y,1/2+z
1/2+x,1/2-y,1/2+z
1/2-y,1/2-x,1/2+z
1/2+y,1/2+x,1/2+z
loop_
_atom_site_type_symbol
_atom_site_label
_atom_site_fract_x
_atom_site_fract_y
_atom_site_fract_z
Si Si1 0.364424 0.252012 0.191200
Si Si2 0.754018 0.000000 0.549155
Si Si3 0.500000 0.745980 0.800800
Si Si4 0.135575 0.752013 0.158753
Si Si5 0.302635 0.583667 0.424976
Si Si6 0.000000 0.113973 0.424980
O O1 0.324276 0.324276 0.156126
O O2 0.429883 0.232885 0.113318
O O3 0.312347 0.187652 0.174976
O O4 0.391688 0.257494 0.318289
O O5 0.718395 0.000000 0.424977
O O6 0.838811 0.000000 0.537114
O O7 0.429883 0.767113 0.736637
O O8 0.500000 0.661188 0.812845
O O9 0.175724 0.824277 0.193825
O O10 0.108310 0.757493 0.031665
O O11 0.314732 0.500000 0.424974
O O12 0.379241 0.620760 0.424977
O O13 0.930275 0.069726 0.424981
#
# Coordination Sequence:
#
# PCOD8307652 Si02
#       6
#    16   8   8  16  16   8
#     4  10  21  36  56  80 108 144 186 230 271 317
#     4  10  21  33  53  77 109 142 179 224 270 320
#     4  10  21  33  53  77 109 142 179 224 270 320
#     4  10  21  36  56  80 108 144 186 230 271 317
#     4  10  20  36  55  79 111 146 181 220 267 328
#     4   9  18  30  48  76 112 145 168 206 264 327
#
# _framework density 16.703700999999999
#
# number of rings (size 3 to 8) (size 9 to 14) (size 15 to 20)
#    0.667    1.444    2.222    1.333    3.111    0.222 
#    0.000    0.000    0.000    0.667    0.000    3.111 
#    0.000    0.000    0.000    0.000    0.000    0.000 
#
# Total GULP energy -446179.395980 kJ/mol
# GULP energy per Si atom -12393.872111 kJ/mol
# Density = 1.666568 g / cm^3
# Si number density = 16.703701 Si / 1000 Ang^3
#
#
#
# Elastic Constant Matrix: (Units=GPa)
#
#
# Indices 1 2 3 4 5 6 
#
# 1 99.4221 44.2769 52.4934 0.0000 0.0000 0.0004
# 2 44.2769 99.4221 52.4934 0.0000 0.0000 -0.0004
# 3 52.4934 52.4934 129.4621 0.0000 0.0000 0.0000
# 4 0.0000 0.0000 0.0000 23.9633 0.0000 0.0000
# 5 0.0000 0.0000 0.0000 0.0000 23.9633 0.0000
# 6 0.0004 -0.0004 0.0000 0.0000 0.0000 23.3522
#
#
#
# Elastic Compliance Matrix: (Units=1/GPa)
#
#
# Indices 1 2 3 4 5 6 
#
# 1 0.014011 -0.004123 -0.004009 0.000000 0.000000 0.000000
# 2 -0.004123 0.014011 -0.004009 0.000000 0.000000 0.000000
# 3 -0.004009 -0.004009 0.010976 0.000000 0.000000 0.000000
# 4 0.000000 0.000000 0.000000 0.041730 0.000000 0.000000
# 5 0.000000 0.000000 0.000000 0.000000 0.041730 0.000000
# 6 0.000000 0.000000 0.000000 0.000000 0.000000 0.042822
#
#
# Mechanical properties :
#
#
# Convention : Reuss Voigt Hill
#
# Bulk Modulus (GPa) = 67.95998 69.64821 68.80410
# Shear Modulus (GPa) = 25.71098 26.19196 25.95147
#
# Velocity S-wave (km/s) = 3.92757 3.96414 3.94589
# Velocity P-wave (km/s) = 7.83209 7.92081 7.87658
#
# Compressibility (1/GPa) = 0.01471454
#
# Stress axis : x y z
#
# Youngs Moduli (GPa) = 71.37190 71.37190 91.11025
#
# Poissons Ratio (x) = 0.29425 0.36530
# Poissons Ratio (y) = 0.29425 0.36530
# Poissons Ratio (z) = 0.28616 0.28616
#
# Static dielectric constant tensor:
#      x y z
#    x 3.008190 0.000000 0.000000 
#    y 0.000000 3.008190 0.000000 
#    z 0.000000 0.000000 3.245570 
# 
# 
# High freq. dielectric constant tensor:
#      x y z
#    x 1.634680 0.000000 0.000000 
#    y 0.000000 1.634680 0.000000 
#    z 0.000000 0.000000 1.652490 
# 
# From -- ./inp_files/2248.got.cif
#   From: 2010.03.12/outbox.cif.g09.slc.cpg/sg107_2_cif.got.tgz:2248.got - 2010.04.14 01:49:11.
