data_PCOD8307601
_publ_section_title
;
Structure prediction by ZEFSAII (Michael W. Deem and Ramdas Pophale) SiO2 
 PCOD8307601
Probable space group: I 4 M M
;
_chemical_formula_sum "Si O2"
_cell_formula_units_Z 96
_cell_length_a 25.088205
_cell_length_b 25.088205
_cell_length_c 9.280305
_cell_angle_alpha 90.000000
_cell_angle_beta 90.000000
_cell_angle_gamma 90.000000
_cell_volume 5841.191292
_symmetry_space_group_name_H-M "I 4 M M"
_symmetry_group_IT_number 107
_symmetry_cell_setting 'tetragonal'
loop_
_space_group_symop_operation_xyz
x,y,z
-y,x,z
-x,-y,z
y,-x,z
-x,y,z
x,-y,z
-y,-x,z
y,x,z
1/2+x,1/2+y,1/2+z
1/2-y,1/2+x,1/2+z
1/2-x,1/2-y,1/2+z
1/2+y,1/2-x,1/2+z
1/2-x,1/2+y,1/2+z
1/2+x,1/2-y,1/2+z
1/2-y,1/2-x,1/2+z
1/2+y,1/2+x,1/2+z
loop_
_atom_site_type_symbol
_atom_site_label
_atom_site_fract_x
_atom_site_fract_y
_atom_site_fract_z
Si Si1 0.362267 0.936950 0.789640
Si Si2 0.063050 0.362268 0.120664
Si Si3 0.936732 0.738710 0.295058
Si Si4 0.856172 0.940453 0.283322
Si Si5 0.436732 0.238710 0.115241
Si Si6 0.940453 0.143828 0.626967
O O1 0.411471 0.911472 0.705151
O O2 0.306626 0.915579 0.723231
O O3 0.367603 0.000000 0.772136
O O4 0.364318 0.919243 0.955152
O O5 0.084420 0.306626 0.187071
O O6 0.000000 0.367604 0.138169
O O7 0.920022 0.797275 0.236593
O O8 0.913030 0.728296 0.455150
O O9 0.000000 0.737230 0.304343
O O10 0.900278 0.900278 0.218804
O O11 0.858557 0.941655 0.455144
O O12 0.867622 0.000000 0.223190
O O13 0.500000 0.237229 0.105961
O O14 0.420022 0.297276 0.173701
O O15 0.900279 0.099722 0.691484
O O16 0.000000 0.132377 0.687099
#
# Coordination Sequence:
#
# PCOD8307601 Si02
#       6
#    16  16  16  16  16  16
#     4  10  20  32  47  67  89 113 141 174 213 257
#     4  10  20  32  47  67  89 113 141 174 213 257
#     4   8  14  26  43  61  84 116 151 183 214 251
#     4   8  13  21  36  61  91 121 151 182 218 259
#     4   8  14  26  43  61  84 116 151 183 214 251
#     4   8  13  21  36  61  91 121 151 182 218 259
#
# _framework density 16.435003999999999
#
# number of rings (size 3 to 8) (size 9 to 14) (size 15 to 20)
#    0.000    3.333    0.000    3.000    0.000    2.667 
#    0.000    3.333    0.000    2.000    0.000    0.000 
#    0.000    0.000    0.000   13.000    0.000   13.333 
#
# Total GULP energy -594882.886698 kJ/mol
# GULP energy per Si atom -12393.393473 kJ/mol
# Density = 1.639760 g / cm^3
# Si number density = 16.435004 Si / 1000 Ang^3
#
#
#
# Elastic Constant Matrix: (Units=GPa)
#
#
# Indices 1 2 3 4 5 6 
#
# 1 75.9111 46.7829 42.9863 0.0000 0.0000 -0.0006
# 2 46.7829 75.9111 42.9863 0.0000 0.0000 0.0006
# 3 42.9863 42.9863 81.4410 0.0000 0.0000 0.0000
# 4 0.0000 0.0000 0.0000 12.3180 0.0000 0.0000
# 5 0.0000 0.0000 0.0000 0.0000 12.3180 0.0000
# 6 -0.0006 0.0006 0.0000 0.0000 0.0000 6.2782
#
#
#
# Elastic Compliance Matrix: (Units=1/GPa)
#
#
# Indices 1 2 3 4 5 6 
#
# 1 0.023632 -0.010699 -0.006827 0.000000 0.000000 0.000003
# 2 -0.010699 0.023632 -0.006827 0.000000 0.000000 -0.000003
# 3 -0.006827 -0.006827 0.019486 0.000000 0.000000 0.000000
# 4 0.000000 0.000000 0.000000 0.081182 0.000000 0.000000
# 5 0.000000 0.000000 0.000000 0.000000 0.081182 0.000000
# 6 0.000003 -0.000003 0.000000 0.000000 0.000000 0.159281
#
#
# Mechanical properties :
#
#
# Convention : Reuss Voigt Hill
#
# Bulk Modulus (GPa) = 55.41350 55.41938 55.41644
# Shear Modulus (GPa) = 11.28375 12.88335 12.08355
#
# Velocity S-wave (km/s) = 2.62309 2.80285 2.71446
# Velocity P-wave (km/s) = 6.55470 6.65343 6.60425
#
# Compressibility (1/GPa) = 0.01804614
#
# Stress axis : x y z
#
# Youngs Moduli (GPa) = 42.31463 42.31463 51.32015
#
# Poissons Ratio (x) = 0.45270 0.35035
# Poissons Ratio (y) = 0.45270 0.35035
# Poissons Ratio (z) = 0.28887 0.28887
#
# Static dielectric constant tensor:
#      x y z
#    x 3.202780 0.000000 0.000000 
#    y 0.000000 3.202780 0.000000 
#    z 0.000000 0.000000 2.960710 
# 
# 
# High freq. dielectric constant tensor:
#      x y z
#    x 1.618600 0.000000 0.000000 
#    y 0.000000 1.618600 0.000000 
#    z 0.000000 0.000000 1.602200 
# 
# From -- ./inp_files/1472.got.cif
#   From: 2010.03.12/outbox.cif.g09.slc.cpg/sg107_1_cif.got.tgz:1472.got - 2010.04.14 01:49:11.
