data_PCOD8307579
_publ_section_title
;
Structure prediction by ZEFSAII (Michael W. Deem and Ramdas Pophale) SiO2 
 PCOD8307579
Probable space group: I 4 M M
;
_chemical_formula_sum "Si O2"
_cell_formula_units_Z 64
_cell_length_a 12.744865
_cell_length_b 12.744865
_cell_length_c 23.882618
_cell_angle_alpha 90.000000
_cell_angle_beta 90.000000
_cell_angle_gamma 90.000000
_cell_volume 3879.291469
_symmetry_space_group_name_H-M "I 4 M M"
_symmetry_group_IT_number 107
_symmetry_cell_setting 'tetragonal'
loop_
_space_group_symop_operation_xyz
x,y,z
-y,x,z
-x,-y,z
y,-x,z
-x,y,z
x,-y,z
-y,-x,z
y,x,z
1/2+x,1/2+y,1/2+z
1/2-y,1/2+x,1/2+z
1/2-x,1/2-y,1/2+z
1/2+y,1/2-x,1/2+z
1/2-x,1/2+y,1/2+z
1/2+x,1/2-y,1/2+z
1/2-y,1/2-x,1/2+z
1/2+y,1/2+x,1/2+z
loop_
_atom_site_type_symbol
_atom_site_label
_atom_site_fract_x
_atom_site_fract_y
_atom_site_fract_z
Si Si1 0.287292 0.120760 0.226310
Si Si2 0.123069 0.500000 0.427252
Si Si3 0.000000 0.375400 0.052466
Si Si4 0.214286 0.615201 0.331673
Si Si5 0.793503 0.378202 0.118029
O O1 0.172372 0.172372 0.221764
O O2 0.331571 0.133261 0.288901
O O3 0.366078 0.178188 0.183462
O O4 0.276675 0.000000 0.210736
O O5 0.171581 0.500000 0.489502
O O6 0.159494 0.603856 0.392789
O O7 0.000000 0.500000 0.432543
O O8 0.894025 0.336630 0.082978
O O9 0.000000 0.500000 0.053096
O O10 0.245152 0.500000 0.308616
O O11 0.319903 0.680098 0.337887
O O12 0.766974 0.500000 0.105468
O O13 0.692508 0.307493 0.101835
#
# Coordination Sequence:
#
# PCOD8307579 Si02
#       5
#    16   8   8  16  16
#     4  10  19  32  51  75 103 134 171 212 257 306
#     4   9  18  32  51  73  99 131 170 214 251 294
#     4   9  18  34  52  74 102 136 176 214 251 296
#     4   9  19  31  48  73  97 130 167 205 252 301
#     4  10  20  33  52  77 104 138 174 215 260 307
#
# _framework density 16.497857
#
# number of rings (size 3 to 8) (size 9 to 14) (size 15 to 20)
#    0.750    1.750    1.250    1.500    0.000    2.750 
#    0.000    0.000    0.000    4.875    0.000    0.000 
#    0.000    6.000    0.000    0.000    0.000    0.000 
#
# Total GULP energy -396604.432820 kJ/mol
# GULP energy per Si atom -12393.888526 kJ/mol
# Density = 1.646031 g / cm^3
# Si number density = 16.497857 Si / 1000 Ang^3
#
#
#
# Elastic Constant Matrix: (Units=GPa)
#
#
# Indices 1 2 3 4 5 6 
#
# 1 92.1178 54.7915 26.8326 0.0000 0.0000 0.0004
# 2 54.7915 92.1178 26.8326 0.0000 0.0000 -0.0004
# 3 26.8326 26.8326 91.8648 0.0000 0.0000 0.0000
# 4 0.0000 0.0000 0.0000 17.9446 0.0000 0.0000
# 5 0.0000 0.0000 0.0000 0.0000 17.9446 0.0000
# 6 0.0004 -0.0004 0.0000 0.0000 0.0000 17.6972
#
#
#
# Elastic Compliance Matrix: (Units=1/GPa)
#
#
# Indices 1 2 3 4 5 6 
#
# 1 0.017205 -0.009585 -0.002226 0.000000 0.000000 -0.000001
# 2 -0.009585 0.017205 -0.002226 0.000000 0.000000 0.000001
# 3 -0.002226 -0.002226 0.012186 0.000000 0.000000 0.000000
# 4 0.000000 0.000000 0.000000 0.055727 0.000000 0.000000
# 5 0.000000 0.000000 0.000000 0.000000 0.055727 0.000000
# 6 -0.000001 0.000001 0.000000 0.000000 0.000000 0.056506
#
#
# Mechanical properties :
#
#
# Convention : Reuss Voigt Hill
#
# Bulk Modulus (GPa) = 53.98726 54.77930 54.38328
# Shear Modulus (GPa) = 20.09609 21.89353 20.99481
#
# Velocity S-wave (km/s) = 3.49392 3.64683 3.57119
# Velocity P-wave (km/s) = 7.00510 7.14202 7.07389
#
# Compressibility (1/GPa) = 0.01852289
#
# Stress axis : x y z
#
# Youngs Moduli (GPa) = 58.12138 58.12138 82.06298
#
# Poissons Ratio (x) = 0.55712 0.18265
# Poissons Ratio (y) = 0.55712 0.18265
# Poissons Ratio (z) = 0.12936 0.12936
#
# Static dielectric constant tensor:
#      x y z
#    x 2.961650 0.000000 0.000000 
#    y 0.000000 2.961650 0.000000 
#    z 0.000000 0.000000 3.288350 
# 
# 
# High freq. dielectric constant tensor:
#      x y z
#    x 1.623330 0.000000 0.000000 
#    y 0.000000 1.623330 0.000000 
#    z 0.000000 0.000000 1.636820 
# 
# From -- ./inp_files/5543.got.cif
#   From: 2010.03.12/outbox.cif.g09.slc.cpg/sg107_3_cif.got.tgz:5543.got - 2010.04.14 01:49:11.
