data_PCOD8307399
_publ_section_title
;
Structure prediction by ZEFSAII (Michael W. Deem and Ramdas Pophale) SiO2 
 PCOD8307399
Probable space group: P 42 B C
;
_chemical_formula_sum "Si O2"
_cell_formula_units_Z 36
_cell_length_a 9.775580
_cell_length_b 9.775580
_cell_length_c 19.916171
_cell_angle_alpha 90.000000
_cell_angle_beta 90.000000
_cell_angle_gamma 90.000000
_cell_volume 1903.228423
_symmetry_space_group_name_H-M "P 42 B C"
_symmetry_group_IT_number 106
_symmetry_cell_setting 'tetragonal'
loop_
_space_group_symop_operation_xyz
x,y,z
-y,x,1/2+z
-x,-y,z
y,-x,1/2+z
1/2-x,1/2+y,z
1/2+x,1/2-y,z
1/2-y,1/2-x,1/2+z
1/2+y,1/2+x,1/2+z
loop_
_atom_site_type_symbol
_atom_site_label
_atom_site_fract_x
_atom_site_fract_y
_atom_site_fract_z
Si Si1 0.658744 0.341257 0.129010
Si Si2 0.865748 0.865749 0.424468
Si Si3 0.634252 0.365749 0.680551
Si Si4 0.000000 0.000000 0.802509
Si Si5 0.158744 0.158743 0.976008
O O1 0.690673 0.499877 0.142931
O O2 0.500124 0.309327 0.142931
O O3 0.750276 0.249724 0.178811
O O4 0.695230 0.304770 0.052509
O O5 0.903559 0.903559 0.347876
O O6 0.750276 0.750276 0.426207
O O7 0.000123 0.809327 0.462087
O O8 0.809327 0.000124 0.462087
O O9 0.596441 0.403559 0.757143
#
# Coordination Sequence:
#
# PCOD8307399 Si02
#       5
#     8   8   8   4   8
#     4  10  19  35  54  82 109 142 180 223 274 315
#     4  10  21  34  57  77 111 146 176 225 262 322
#     4  10  21  34  57  77 111 146 176 225 262 322
#     4   8  20  40  54  80 108 144 188 214 268 316
#     4  10  19  35  54  82 109 142 180 223 274 315
#
# _framework density 18.915229
#
# number of rings (size 3 to 8) (size 9 to 14) (size 15 to 20)
#    0.000    2.667    0.000    5.333    0.000    8.889 
#    0.000    4.444    0.000   21.333    0.000    0.000 
#    0.000    0.000    0.000    0.000    0.000    0.000 
#
# Total GULP energy -446405.189471 kJ/mol
# GULP energy per Si atom -12400.144152 kJ/mol
# Density = 1.887218 g / cm^3
# Si number density = 18.915229 Si / 1000 Ang^3
#
#
#
# Elastic Constant Matrix: (Units=GPa)
#
#
# Indices 1 2 3 4 5 6 
#
# 1 101.3541 94.5574 38.1130 0.0000 0.0000 0.0000
# 2 94.5574 101.3541 38.1130 0.0000 0.0000 0.0000
# 3 38.1130 38.1130 141.5377 0.0000 0.0000 0.0000
# 4 0.0000 0.0000 0.0000 19.0624 0.0000 0.0000
# 5 0.0000 0.0000 0.0000 0.0000 19.0624 0.0000
# 6 0.0000 0.0000 0.0000 0.0000 0.0000 47.9522
#
#
#
# Elastic Compliance Matrix: (Units=1/GPa)
#
#
# Indices 1 2 3 4 5 6 
#
# 1 0.076417 -0.070715 -0.001535 0.000000 0.000000 0.000000
# 2 -0.070715 0.076417 -0.001535 0.000000 0.000000 0.000000
# 3 -0.001535 -0.001535 0.007892 0.000000 0.000000 0.000000
# 4 0.000000 0.000000 0.000000 0.052459 0.000000 0.000000
# 5 0.000000 0.000000 0.000000 0.000000 0.052459 0.000000
# 6 0.000000 0.000000 0.000000 0.000000 0.000000 0.020854
#
#
# Mechanical properties :
#
#
# Convention : Reuss Voigt Hill
#
# Bulk Modulus (GPa) = 76.02146 76.20141 76.11143
# Shear Modulus (GPa) = 11.40371 28.77955 20.09163
#
# Velocity S-wave (km/s) = 2.45804 3.90487 3.26267
# Velocity P-wave (km/s) = 6.95225 7.79127 7.38369
#
# Compressibility (1/GPa) = 0.01315418
#
# Stress axis : x y z
#
# Youngs Moduli (GPa) = 13.08618 13.08618 126.70857
#
# Poissons Ratio (x) = 0.92539 0.19454
# Poissons Ratio (y) = 0.92539 0.19454
# Poissons Ratio (z) = 0.02009 0.02009
#
# Static dielectric constant tensor:
#      x y z
#    x 3.296910 0.000000 0.000000 
#    y 0.000000 3.296910 0.000000 
#    z 0.000000 0.000000 3.436480 
# 
# 
# High freq. dielectric constant tensor:
#      x y z
#    x 1.725840 0.000000 0.000000 
#    y 0.000000 1.725840 0.000000 
#    z 0.000000 0.000000 1.742740 
# 
# From -- ./inp_files/1562.got.cif
#   From: 2010.03.12/outbox.cif.g09.slc.cpg/sg106_cif.got.tgz:1562.got - 2010.04.14 01:48:02.
