data_PCOD8307756
_publ_section_title
;
Structure prediction by ZEFSAII (Michael W. Deem and Ramdas Pophale) SiO2 
 PCOD8307756
Probable space group: I 4 C M
;
_chemical_formula_sum "Si O2"
_cell_formula_units_Z 112
_cell_length_a 13.921651
_cell_length_b 13.921651
_cell_length_c 28.794701
_cell_angle_alpha 90.000000
_cell_angle_beta 90.000000
_cell_angle_gamma 90.000000
_cell_volume 5580.769145
_symmetry_space_group_name_H-M "I 4 C M"
_symmetry_group_IT_number 108
_symmetry_cell_setting 'tetragonal'
loop_
_space_group_symop_operation_xyz
x,y,z
-y,x,z
-x,-y,z
y,-x,z
-x,y,1/2+z
x,-y,1/2+z
-y,-x,1/2+z
y,x,1/2+z
1/2+x,1/2+y,1/2+z
1/2-y,1/2+x,1/2+z
1/2-x,1/2-y,1/2+z
1/2+y,1/2-x,1/2+z
1/2-x,1/2+y,z
1/2+x,1/2-y,z
1/2-y,1/2-x,z
1/2+y,1/2+x,z
loop_
_atom_site_type_symbol
_atom_site_label
_atom_site_fract_x
_atom_site_fract_y
_atom_site_fract_z
Si Si1 0.745129 0.402635 0.645090
Si Si2 0.260857 0.393551 0.599625
Si Si3 0.147026 0.053604 0.735523
Si Si4 0.151830 0.497058 0.397735
Si Si5 0.877412 0.774646 0.331113
Si Si6 0.356758 0.300922 0.420407
Si Si7 0.417182 0.367279 0.009484
O O1 0.839642 0.339642 0.636410
O O2 0.648939 0.348074 0.629526
O O3 0.756949 0.497439 0.614318
O O4 0.733057 0.422874 0.699915
O O5 0.162758 0.337243 0.609318
O O6 0.288395 0.378717 0.545504
O O7 0.178665 0.069240 0.788127
O O8 0.056563 0.121519 0.726515
O O9 0.087405 0.412596 0.423340
O O10 0.199500 0.452367 0.352500
O O11 0.235628 0.547182 0.429163
O O12 0.081503 0.581503 0.380479
O O13 0.781399 0.718602 0.314768
O O14 0.848500 0.856488 0.369034
O O15 0.261742 0.238259 0.426059
O O16 0.343416 0.387699 0.456667
O O17 0.529951 0.369721 0.018640
#
# Coordination Sequence:
#
# PCOD8307756 Si02
#       7
#    16  16  16  16  16  16  16
#     4  11  23  42  68  95 125 162 207 260 316 378
#     4  11  23  42  68  94 125 164 205 260 318 373
#     4  11  22  36  59  89 120 159 207 257 312 378
#     4   9  18  34  55  78 112 162 210 253 310 374
#     4  10  20  35  55  82 119 159 203 256 309 369
#     4  10  20  35  56  83 119 160 205 257 311 370
#     4  11  22  36  59  89 119 157 208 257 306 371
#
# _framework density 20.068919999999999
#
# number of rings (size 3 to 8) (size 9 to 14) (size 15 to 20)
#    0.000    1.571    2.857    2.571    0.000    0.571 
#    0.000    3.571    0.000    1.714    0.000    0.000 
#    0.000    0.000    0.000    0.000    0.000    0.000 
#
# Total GULP energy -694151.764594 kJ/mol
# GULP energy per Si atom -12395.567225 kJ/mol
# Density = 2.002324 g / cm^3
# Si number density = 20.068920 Si / 1000 Ang^3
#
#
#
# Elastic Constant Matrix: (Units=GPa)
#
#
# Indices 1 2 3 4 5 6 
#
# 1 160.4447 -14.5961 35.0298 0.0000 0.0000 0.0008
# 2 -14.5961 160.4447 35.0298 0.0000 0.0000 -0.0008
# 3 35.0298 35.0298 105.7926 0.0000 0.0000 0.0000
# 4 0.0000 0.0000 0.0000 29.4534 0.0000 0.0000
# 5 0.0000 0.0000 0.0000 0.0000 29.4534 0.0000
# 6 0.0008 -0.0008 0.0000 0.0000 0.0000 -113.7740
#
#
#
# Elastic Compliance Matrix: (Units=1/GPa)
#
#
# Indices 1 2 3 4 5 6 
#
# 1 0.006933 0.001220 -0.002700 0.000000 0.000000 0.000000
# 2 0.001220 0.006933 -0.002700 0.000000 0.000000 0.000000
# 3 -0.002700 -0.002700 0.011240 0.000000 0.000000 0.000000
# 4 0.000000 0.000000 0.000000 0.033952 0.000000 0.000000
# 5 0.000000 0.000000 0.000000 0.000000 0.033952 0.000000
# 6 0.000000 0.000000 0.000000 0.000000 0.000000 -0.008789
#
#
# Mechanical properties :
#
#
# Convention : Reuss Voigt Hill
#
# Bulk Modulus (GPa) = 59.70851 59.73434 59.72142
# Shear Modulus (GPa) = 50.93619 13.77447 32.35533
#
# Velocity S-wave (km/s) = 5.04338 2.62269 4.01959
# Velocity P-wave (km/s) = 7.98315 6.24504 7.16698
#
# Compressibility (1/GPa) = 0.01674803
#
# Stress axis : x y z
#
# Youngs Moduli (GPa) = 144.23563 144.23563 88.96575
#
# Poissons Ratio (x) = -0.17599 0.24018
# Poissons Ratio (y) = -0.17599 0.24018
# Poissons Ratio (z) = 0.38939 0.38939
#
# Static dielectric constant tensor:
#      x y z
#    x 3.758240 0.000000 0.000000 
#    y 0.000000 3.758240 0.000000 
#    z 0.000000 0.000000 3.455860 
# 
# 
# High freq. dielectric constant tensor:
#      x y z
#    x 1.789320 0.000000 0.000000 
#    y 0.000000 1.789320 0.000000 
#    z 0.000000 0.000000 1.767080 
# 
# From -- ./inp_files/3205.got.cif
#   From: 2010.03.12/outbox.cif.g09.slc.cpg/sg108_2_cif.got.tgz:3205.got - 2010.04.14 01:53:11.
