data_PCOD8307624
_publ_section_title
;
Structure prediction by ZEFSAII (Michael W. Deem and Ramdas Pophale) SiO2 
 PCOD8307624
Probable space group: I 4 M M
;
_chemical_formula_sum "Si O2"
_cell_formula_units_Z 112
_cell_length_a 13.617142
_cell_length_b 13.617142
_cell_length_c 35.236124
_cell_angle_alpha 90.000000
_cell_angle_beta 90.000000
_cell_angle_gamma 90.000000
_cell_volume 6533.713129
_symmetry_space_group_name_H-M "I 4 M M"
_symmetry_group_IT_number 107
_symmetry_cell_setting 'tetragonal'
loop_
_space_group_symop_operation_xyz
x,y,z
-y,x,z
-x,-y,z
y,-x,z
-x,y,z
x,-y,z
-y,-x,z
y,x,z
1/2+x,1/2+y,1/2+z
1/2-y,1/2+x,1/2+z
1/2-x,1/2-y,1/2+z
1/2+y,1/2-x,1/2+z
1/2-x,1/2+y,1/2+z
1/2+x,1/2-y,1/2+z
1/2-y,1/2-x,1/2+z
1/2+y,1/2+x,1/2+z
loop_
_atom_site_type_symbol
_atom_site_label
_atom_site_fract_x
_atom_site_fract_y
_atom_site_fract_z
Si Si1 0.884746 0.274799 0.862720
Si Si2 0.270209 0.111328 0.510598
Si Si3 0.774799 0.384746 0.213990
Si Si4 0.272277 0.886711 0.152904
Si Si5 0.388672 0.770210 0.566110
Si Si6 0.886711 0.727724 0.423805
Si Si7 0.383698 0.890065 0.288355
O O1 0.828943 0.171058 0.865320
O O2 0.860341 0.342935 0.898757
O O3 0.847857 0.332038 0.825419
O O4 0.000000 0.252021 0.861804
O O5 0.174023 0.174023 0.520214
O O6 0.358680 0.141319 0.538354
O O7 0.305108 0.126541 0.467367
O O8 0.240601 0.000000 0.518561
O O9 0.752023 0.500000 0.214906
O O10 0.671057 0.328943 0.211391
O O11 0.842931 0.360340 0.177951
O O12 0.832041 0.347858 0.251291
O O13 0.171003 0.828998 0.161260
O O14 0.305110 0.873462 0.109342
O O15 0.254071 0.000000 0.163273
O O16 0.500000 0.740601 0.558147
O O17 0.325977 0.674024 0.556495
O O18 0.828997 0.828997 0.415448
O O19 0.000000 0.745932 0.413436
O O20 0.500000 0.897725 0.288355
O O21 0.338255 0.000000 0.288355
#
# Coordination Sequence:
#
# PCOD8307624 Si02
#       7
#    16  16  16  16  16  16  16
#     4  10  20  33  49  70  97 129 165 202 238 279
#     4   9  18  32  49  70  96 124 156 195 237 283
#     4  10  20  33  49  70  97 129 165 202 238 279
#     4   9  18  32  50  72  96 123 156 195 240 288
#     4   9  18  32  49  70  96 124 156 195 237 283
#     4   9  18  32  50  72  96 123 156 195 240 288
#     4   9  17  30  49  71  93 119 153 193 236 279
#
# _framework density 17.141860999999999
#
# number of rings (size 3 to 8) (size 9 to 14) (size 15 to 20)
#    0.000    2.714    0.000    1.286    0.000    4.000 
#    0.000    5.714    0.000    2.571    0.000    8.000 
#    0.000   10.286    0.000    0.000    0.000    0.000 
#
# Total GULP energy -694458.302049 kJ/mol
# GULP energy per Si atom -12401.041108 kJ/mol
# Density = 1.710285 g / cm^3
# Si number density = 17.141861 Si / 1000 Ang^3
#
#
#
# Elastic Constant Matrix: (Units=GPa)
#
#
# Indices 1 2 3 4 5 6 
#
# 1 98.8126 43.7138 53.9598 0.0000 0.0000 -0.0002
# 2 43.7138 98.8126 53.9598 0.0000 0.0000 0.0002
# 3 53.9598 53.9598 99.6721 0.0000 0.0000 0.0000
# 4 0.0000 0.0000 0.0000 27.5360 0.0000 0.0000
# 5 0.0000 0.0000 0.0000 0.0000 27.5360 0.0000
# 6 -0.0002 0.0002 0.0000 0.0000 0.0000 12.4417
#
#
#
# Elastic Compliance Matrix: (Units=1/GPa)
#
#
# Indices 1 2 3 4 5 6 
#
# 1 0.015020 -0.003129 -0.006437 0.000000 0.000000 0.000000
# 2 -0.003129 0.015020 -0.006437 0.000000 0.000000 0.000000
# 3 -0.006437 -0.006437 0.017003 0.000000 0.000000 0.000000
# 4 0.000000 0.000000 0.000000 0.036316 0.000000 0.000000
# 5 0.000000 0.000000 0.000000 0.000000 0.036316 0.000000
# 6 0.000000 0.000000 0.000000 0.000000 0.000000 0.080375
#
#
# Mechanical properties :
#
#
# Convention : Reuss Voigt Hill
#
# Bulk Modulus (GPa) = 66.51188 66.72935 66.62061
# Shear Modulus (GPa) = 21.09095 23.21365 22.15230
#
# Velocity S-wave (km/s) = 3.51148 3.68395 3.59875
# Velocity P-wave (km/s) = 7.43813 7.55695 7.49777
#
# Compressibility (1/GPa) = 0.01503491
#
# Stress axis : x y z
#
# Youngs Moduli (GPa) = 66.57879 66.57879 58.81427
#
# Poissons Ratio (x) = 0.20835 0.37860
# Poissons Ratio (y) = 0.20835 0.37860
# Poissons Ratio (z) = 0.42858 0.42858
#
# Static dielectric constant tensor:
#      x y z
#    x 3.111890 0.000000 0.000000 
#    y 0.000000 3.111890 0.000000 
#    z 0.000000 0.000000 3.397210 
# 
# 
# High freq. dielectric constant tensor:
#      x y z
#    x 1.653310 0.000000 0.000000 
#    y 0.000000 1.653310 0.000000 
#    z 0.000000 0.000000 1.673400 
# 
# From -- ./inp_files/5786.got.cif
#   From: 2010.03.12/outbox.cif.g09.slc.cpg/sg107_3_cif.got.tgz:5786.got - 2010.04.14 01:49:11.
