data_PCOD8307659
_publ_section_title
;
Structure prediction by ZEFSAII (Michael W. Deem and Ramdas Pophale) SiO2 
 PCOD8307659
Probable space group: I 4 M M
;
_chemical_formula_sum "Si O2"
_cell_formula_units_Z 64
_cell_length_a 23.593977
_cell_length_b 23.593977
_cell_length_c 5.322194
_cell_angle_alpha 90.000000
_cell_angle_beta 90.000000
_cell_angle_gamma 90.000000
_cell_volume 2962.736340
_symmetry_space_group_name_H-M "I 4 M M"
_symmetry_group_IT_number 107
_symmetry_cell_setting 'tetragonal'
loop_
_space_group_symop_operation_xyz
x,y,z
-y,x,z
-x,-y,z
y,-x,z
-x,y,z
x,-y,z
-y,-x,z
y,x,z
1/2+x,1/2+y,1/2+z
1/2-y,1/2+x,1/2+z
1/2-x,1/2-y,1/2+z
1/2+y,1/2-x,1/2+z
1/2-x,1/2+y,1/2+z
1/2+x,1/2-y,1/2+z
1/2-y,1/2-x,1/2+z
1/2+y,1/2+x,1/2+z
loop_
_atom_site_type_symbol
_atom_site_label
_atom_site_fract_x
_atom_site_fract_y
_atom_site_fract_z
Si Si1 0.273033 0.434341 0.631970
Si Si2 0.604166 0.937761 0.631977
Si Si3 0.934079 0.158110 0.631970
Si Si4 0.318077 0.841566 0.131974
O O1 0.256804 0.500000 0.631969
O O2 0.307497 0.417527 0.382386
O O3 0.214103 0.401033 0.631972
O O4 0.307498 0.417527 0.881552
O O5 0.565970 0.934030 0.381977
O O6 0.649851 0.886654 0.631977
O O7 0.634380 0.000000 0.631976
O O8 0.900624 0.099377 0.631971
O O9 0.000000 0.142289 0.631973
O O10 0.304566 0.804567 0.381974
#
# Coordination Sequence:
#
# PCOD8307659 Si02
#       4
#    16  16  16  16
#     4  10  21  38  60  87 122 165 206 244 293 360
#     4  10  21  34  47  68 100 138 181 234 299 356
#     4  10  21  39  66  97 126 156 189 232 293 364
#     4  10  21  35  55  79 110 149 202 255 297 339
#
# _framework density 21.601652999999999
#
# number of rings (size 3 to 8) (size 9 to 14) (size 15 to 20)
#    0.000    2.000    0.000    3.000    0.000    9.750 
#    0.000    2.500    0.000   19.500    0.000    0.000 
#    0.000    0.000    0.000    0.000    0.000    0.000 
#
# Total GULP energy -396564.477725 kJ/mol
# GULP energy per Si atom -12392.639929 kJ/mol
# Density = 2.155249 g / cm^3
# Si number density = 21.601653 Si / 1000 Ang^3
#
#
#
# Elastic Constant Matrix: (Units=GPa)
#
#
# Indices 1 2 3 4 5 6 
#
# 1 66.7070 34.6262 37.4162 0.0000 0.0000 -0.0010
# 2 34.6262 66.7070 37.4162 0.0000 0.0000 0.0010
# 3 37.4162 37.4162 246.5459 0.0000 0.0000 0.0000
# 4 0.0000 0.0000 0.0000 16.3347 0.0000 0.0000
# 5 0.0000 0.0000 0.0000 0.0000 16.3347 0.0000
# 6 -0.0010 0.0010 0.0000 0.0000 0.0000 37.0431
#
#
#
# Elastic Compliance Matrix: (Units=1/GPa)
#
#
# Indices 1 2 3 4 5 6 
#
# 1 0.021143 -0.010029 -0.001687 0.000000 0.000000 0.000001
# 2 -0.010029 0.021143 -0.001687 0.000000 0.000000 -0.000001
# 3 -0.001687 -0.001687 0.004568 0.000000 0.000000 0.000000
# 4 0.000000 0.000000 0.000000 0.061220 0.000000 0.000000
# 5 0.000000 0.000000 0.000000 0.000000 0.061220 0.000000
# 6 0.000001 -0.000001 0.000000 0.000000 0.000000 0.026996
#
#
# Mechanical properties :
#
#
# Convention : Reuss Voigt Hill
#
# Bulk Modulus (GPa) = 49.87709 66.54191 58.20950
# Shear Modulus (GPa) = 21.76042 31.97592 26.86817
#
# Velocity S-wave (km/s) = 3.17732 3.85158 3.53058
# Velocity P-wave (km/s) = 6.04980 7.11692 6.60495
#
# Compressibility (1/GPa) = 0.02004928
#
# Stress axis : x y z
#
# Youngs Moduli (GPa) = 47.29779 47.29779 218.91490
#
# Poissons Ratio (x) = 0.47433 0.36924
# Poissons Ratio (y) = 0.47433 0.36924
# Poissons Ratio (z) = 0.07978 0.07978
#
# Static dielectric constant tensor:
#      x y z
#    x 3.461000 0.000000 0.000000 
#    y 0.000000 3.461000 0.000000 
#    z 0.000000 0.000000 5.603950 
# 
# 
# High freq. dielectric constant tensor:
#      x y z
#    x 1.816580 0.000000 0.000000 
#    y 0.000000 1.816580 0.000000 
#    z 0.000000 0.000000 1.897280 
# 
# From -- ./inp_files/344.got.cif
#   From: 2010.03.12/outbox.cif.g09.slc.cpg/sg107_1_cif.got.tgz:344.got - 2010.04.14 01:49:11.
