data_PCOD8307343
_publ_section_title
;
Structure prediction by ZEFSAII (Michael W. Deem and Ramdas Pophale) SiO2 
 PCOD8307343
Probable space group: P 42 M C
;
_chemical_formula_sum "Si O2"
_cell_formula_units_Z 56
_cell_length_a 13.965238
_cell_length_b 13.965238
_cell_length_c 14.506801
_cell_angle_alpha 90.000000
_cell_angle_beta 90.000000
_cell_angle_gamma 90.000000
_cell_volume 2829.230534
_symmetry_space_group_name_H-M "P 42 M C"
_symmetry_group_IT_number 105
_symmetry_cell_setting 'tetragonal'
loop_
_space_group_symop_operation_xyz
x,y,z
-y,x,1/2+z
-x,-y,z
y,-x,1/2+z
-x,y,z
x,-y,z
-y,-x,1/2+z
y,x,1/2+z
loop_
_atom_site_type_symbol
_atom_site_label
_atom_site_fract_x
_atom_site_fract_y
_atom_site_fract_z
Si Si1 0.893551 0.386330 0.741670
Si Si2 0.386330 0.106449 0.444126
Si Si3 0.889451 0.271149 0.236214
Si Si4 0.763450 0.613107 0.577361
Si Si5 0.728851 0.889451 0.949582
Si Si6 0.613107 0.236550 0.608435
Si Si7 0.891225 0.108775 0.592898
O O1 0.895981 0.500000 0.735433
O O2 0.856327 0.354499 0.842898
O O3 0.824894 0.345773 0.663201
O O4 0.000000 0.345621 0.724339
O O5 0.500000 0.104019 0.450363
O O6 0.345773 0.175106 0.522594
O O7 0.345621 0.000000 0.461456
O O8 0.867087 0.251551 0.342898
O O9 0.819402 0.355614 0.200767
O O10 0.865763 0.174426 0.180507
O O11 0.000000 0.303012 0.222361
O O12 0.749435 0.500000 0.576351
O O13 0.819402 0.644386 0.485029
O O14 0.659263 0.659263 0.592898
O O15 0.696988 0.000000 0.963435
O O16 0.825574 0.865763 0.005289
O O17 0.500000 0.250565 0.609445
O O18 0.000000 0.125290 0.625706
O O19 0.874710 0.000000 0.560090
#
# Coordination Sequence:
#
# PCOD8307343 Si02
#       7
#     8   8   8   8   8   8   8
#     4   8  15  31  57  85 107 129 167 226 292 349
#     4   8  15  31  57  85 107 129 167 226 292 349
#     4  10  21  38  61  91 125 158 194 236 289 358
#     4  11  23  39  58  81 114 156 202 252 301 350
#     4  10  21  38  61  91 125 158 194 236 289 358
#     4  11  23  39  58  81 114 156 202 252 301 350
#     4   9  18  36  62  92 127 162 194 230 281 352
#
# _framework density 19.793368000000001
#
# number of rings (size 3 to 8) (size 9 to 14) (size 15 to 20)
#    0.000    2.429    1.429    1.714    0.000    4.286 
#    0.000    4.286    0.000    0.000    0.000    6.000 
#    0.000    0.000    0.000    0.000    0.000    0.000 
#
# Total GULP energy -694330.651863 kJ/mol
# GULP energy per Si atom -12398.761640 kJ/mol
# Density = 1.974832 g / cm^3
# Si number density = 19.793368 Si / 1000 Ang^3
#
#
#
# Elastic Constant Matrix: (Units=GPa)
#
#
# Indices 1 2 3 4 5 6 
#
# 1 101.8518 49.4888 56.0616 0.0000 0.0000 0.0000
# 2 49.4888 101.8518 56.0616 0.0000 0.0000 0.0000
# 3 56.0616 56.0616 151.3395 0.0000 0.0000 0.0000
# 4 0.0000 0.0000 0.0000 23.6960 0.0000 0.0000
# 5 0.0000 0.0000 0.0000 0.0000 23.6960 0.0000
# 6 0.0000 0.0000 0.0000 0.0000 0.0000 32.1079
#
#
#
# Elastic Compliance Matrix: (Units=1/GPa)
#
#
# Indices 1 2 3 4 5 6 
#
# 1 0.014102 -0.004995 -0.003374 0.000000 0.000000 0.000000
# 2 -0.004995 0.014102 -0.003374 0.000000 0.000000 0.000000
# 3 -0.003374 -0.003374 0.009107 0.000000 0.000000 0.000000
# 4 0.000000 0.000000 0.000000 0.042201 0.000000 0.000000
# 5 0.000000 0.000000 0.000000 0.000000 0.042201 0.000000
# 6 0.000000 0.000000 0.000000 0.000000 0.000000 0.031145
#
#
# Mechanical properties :
#
#
# Convention : Reuss Voigt Hill
#
# Bulk Modulus (GPa) = 72.32350 75.36300 73.84325
# Shear Modulus (GPa) = 27.63156 28.79538 28.21347
#
# Velocity S-wave (km/s) = 3.74036 3.81832 3.77954
# Velocity P-wave (km/s) = 7.43454 7.58927 7.51230
#
# Compressibility (1/GPa) = 0.01382676
#
# Stress axis : x y z
#
# Youngs Moduli (GPa) = 70.91087 70.91087 109.80539
#
# Poissons Ratio (x) = 0.35422 0.37043
# Poissons Ratio (y) = 0.35422 0.37043
# Poissons Ratio (z) = 0.23922 0.23922
#
# Static dielectric constant tensor:
#      x y z
#    x 3.445290 0.000000 0.000000 
#    y 0.000000 3.445290 0.000000 
#    z 0.000000 0.000000 3.787220 
# 
# 
# High freq. dielectric constant tensor:
#      x y z
#    x 1.762140 0.000000 0.000000 
#    y 0.000000 1.762140 0.000000 
#    z 0.000000 0.000000 1.774560 
# 
# From -- ./inp_files/2641.got.cif
#   From: 2010.03.12/outbox.cif.g09.slc.cpg/sg105_2_cif.got.tgz:2641.got - 2010.04.14 01:45:32.
