data_PCOD8307487
_publ_section_title
;
Structure prediction by ZEFSAII (Michael W. Deem and Ramdas Pophale) SiO2 
 PCOD8307487
Probable space group: I 4 M M
;
_chemical_formula_sum "Si O2"
_cell_formula_units_Z 104
_cell_length_a 18.276322
_cell_length_b 18.276322
_cell_length_c 18.462261
_cell_angle_alpha 90.000000
_cell_angle_beta 90.000000
_cell_angle_gamma 90.000000
_cell_volume 6166.837268
_symmetry_space_group_name_H-M "I 4 M M"
_symmetry_group_IT_number 107
_symmetry_cell_setting 'tetragonal'
loop_
_space_group_symop_operation_xyz
x,y,z
-y,x,z
-x,-y,z
y,-x,z
-x,y,z
x,-y,z
-y,-x,z
y,x,z
1/2+x,1/2+y,1/2+z
1/2-y,1/2+x,1/2+z
1/2-x,1/2-y,1/2+z
1/2+y,1/2-x,1/2+z
1/2-x,1/2+y,1/2+z
1/2+x,1/2-y,1/2+z
1/2-y,1/2-x,1/2+z
1/2+y,1/2+x,1/2+z
loop_
_atom_site_type_symbol
_atom_site_label
_atom_site_fract_x
_atom_site_fract_y
_atom_site_fract_z
Si Si1 0.500000 0.917938 0.492990
Si Si2 0.292718 0.583379 0.974877
Si Si3 0.853279 0.354232 0.043283
Si Si4 0.000000 0.420387 0.742729
Si Si5 0.160298 0.581879 0.687267
Si Si6 0.356309 0.755226 0.409889
Si Si7 0.862282 0.251975 0.324917
Si Si8 0.000000 0.305354 0.863497
O O1 0.424996 0.906283 0.537792
O O2 0.500000 0.866068 0.424689
O O3 0.500000 0.000000 0.463627
O O4 0.316496 0.500000 0.994551
O O5 0.359309 0.640692 0.989796
O O6 0.271253 0.582782 0.889681
O O7 0.222893 0.604512 0.025369
O O8 0.857351 0.322119 0.125392
O O9 0.862536 0.285582 0.990750
O O10 0.926942 0.415298 0.695958
O O11 0.000000 0.348634 0.790115
O O12 0.000000 0.500000 0.783613
O O13 0.183483 0.500000 0.662551
O O14 0.205347 0.597672 0.760641
O O15 0.326766 0.673235 0.414895
O O16 0.304793 0.804879 0.361847
O O17 0.432541 0.750826 0.368994
O O18 0.819877 0.180123 0.294596
#
# Coordination Sequence:
#
# PCOD8307487 Si02
#       8
#     8  16  16   8  16  16  16   8
#     4  10  19  28  46  70 100 135 171 197 234 290
#     4  10  21  37  56  76 100 133 174 221 265 304
#     4  10  20  32  49  72 104 139 168 202 245 296
#     4  10  21  30  44  72 108 137 165 195 236 292
#     4  11  21  32  48  73 108 140 168 200 239 299
#     4   9  18  33  51  71  95 126 168 211 250 297
#     4   9  18  33  52  74 101 130 164 206 250 298
#     4  10  17  32  50  71  92 128 164 204 252 299
#
# _framework density 16.864398000000001
#
# number of rings (size 3 to 8) (size 9 to 14) (size 15 to 20)
#    0.000    2.154    2.308    2.538    2.154    1.385 
#    0.000    0.000    0.000    0.231    0.000    0.000 
#    0.000    0.000    0.000    0.000    0.000    0.000 
#
# Total GULP energy -644254.231520 kJ/mol
# GULP energy per Si atom -12389.504452 kJ/mol
# Density = 1.682601 g / cm^3
# Si number density = 16.864398 Si / 1000 Ang^3
#
#
#
# Elastic Constant Matrix: (Units=GPa)
#
#
# Indices 1 2 3 4 5 6 
#
# 1 88.0662 58.6575 33.7476 0.0000 0.0000 -0.0003
# 2 58.6575 88.0662 33.7476 0.0000 0.0000 0.0003
# 3 33.7476 33.7476 89.0848 0.0000 0.0000 0.0000
# 4 0.0000 0.0000 0.0000 9.5211 0.0000 0.0000
# 5 0.0000 0.0000 0.0000 0.0000 9.5211 0.0000
# 6 -0.0003 0.0003 0.0000 0.0000 0.0000 26.6475
#
#
#
# Elastic Compliance Matrix: (Units=1/GPa)
#
#
# Indices 1 2 3 4 5 6 
#
# 1 0.021129 -0.012875 -0.003127 0.000000 0.000000 0.000000
# 2 -0.012875 0.021129 -0.003127 0.000000 0.000000 0.000000
# 3 -0.003127 -0.003127 0.013594 0.000000 0.000000 0.000000
# 4 0.000000 0.000000 0.000000 0.105030 0.000000 0.000000
# 5 0.000000 0.000000 0.000000 0.000000 0.105030 0.000000
# 6 0.000000 0.000000 0.000000 0.000000 0.000000 0.037527
#
#
# Mechanical properties :
#
#
# Convention : Reuss Voigt Hill
#
# Bulk Modulus (GPa) = 56.83457 57.50250 57.16854
# Shear Modulus (GPa) = 14.38601 18.40892 16.39747
#
# Velocity S-wave (km/s) = 2.92385 3.30750 3.12158
# Velocity P-wave (km/s) = 6.72106 6.98263 6.85309
#
# Compressibility (1/GPa) = 0.01759493
#
# Stress axis : x y z
#
# Youngs Moduli (GPa) = 47.32905 47.32905 73.56039
#
# Poissons Ratio (x) = 0.60935 0.23001
# Poissons Ratio (y) = 0.60935 0.23001
# Poissons Ratio (z) = 0.14799 0.14799
#
# Static dielectric constant tensor:
#      x y z
#    x 3.250450 0.000000 0.000000 
#    y 0.000000 3.250450 0.000000 
#    z 0.000000 0.000000 3.079260 
# 
# 
# High freq. dielectric constant tensor:
#      x y z
#    x 1.638090 0.000000 0.000000 
#    y 0.000000 1.638090 0.000000 
#    z 0.000000 0.000000 1.642630 
# 
# From -- ./inp_files/4190.got.cif
#   From: 2010.03.12/outbox.cif.g09.slc.cpg/sg107_3_cif.got.tgz:4190.got - 2010.04.14 01:49:11.
