data_PCOD8307970
_publ_section_title
;
Structure prediction by ZEFSAII (Michael W. Deem and Ramdas Pophale) SiO2 
 PCOD8307970
Probable space group: I 41 M D
;
_chemical_formula_sum "Si O2"
_cell_formula_units_Z 112
_cell_length_a 28.905316
_cell_length_b 28.905316
_cell_length_c 6.479291
_cell_angle_alpha 90.000000
_cell_angle_beta 90.000000
_cell_angle_gamma 90.000000
_cell_volume 5413.559677
_symmetry_space_group_name_H-M "I 41 M D"
_symmetry_group_IT_number 109
_symmetry_cell_setting 'tetragonal'
loop_
_space_group_symop_operation_xyz
x,y,z
-y,1/2+x,1/4+z
-x,-y,z
y,1/2-x,1/4+z
-x,y,z
x,-y,z
-y,1/2-x,1/4+z
y,1/2+x,1/4+z
1/2+x,1/2+y,1/2+z
1/2-y,x,3/4+z
1/2-x,1/2-y,1/2+z
1/2+y,-x,3/4+z
1/2-x,1/2+y,1/2+z
1/2+x,1/2-y,1/2+z
1/2-y,-x,3/4+z
1/2+y,x,3/4+z
loop_
_atom_site_type_symbol
_atom_site_label
_atom_site_fract_x
_atom_site_fract_y
_atom_site_fract_z
Si Si1 0.628878 0.915192 0.970910
Si Si2 0.448692 0.051606 0.269487
Si Si3 0.837302 0.845986 0.515938
Si Si4 0.448437 0.714809 0.506715
Si Si5 0.793054 0.051237 0.068373
Si Si6 0.616426 0.744287 0.147814
Si Si7 0.121220 0.912947 0.840914
O O1 0.679592 0.937950 0.947545
O O2 0.612774 0.915451 0.734901
O O3 0.592661 0.944672 0.104435
O O4 0.633095 0.863911 0.067725
O O5 0.500000 0.057425 0.167636
O O6 0.445724 0.091459 0.442122
O O7 0.444518 0.000000 0.366491
O O8 0.781990 0.849260 0.497362
O O9 0.851230 0.792369 0.532622
O O10 0.850212 0.874658 0.718281
O O11 0.500000 0.704895 0.421227
O O12 0.445173 0.765222 0.605732
O O13 0.413248 0.714988 0.314201
O O14 0.773457 0.084901 0.242142
O O15 0.790117 0.000000 0.165109
O O16 0.845804 0.059681 0.999056
#
# Coordination Sequence:
#
# PCOD8307970 Si02
#       7
#    16  16  16  16  16  16  16
#     4  11  22  42  65  92 128 173 214 269 325 382
#     4  10  24  43  62  92 134 176 224 270 312 386
#     4  11  24  41  66  91 126 168 208 266 326 394
#     4  11  23  39  65  96 127 167 215 267 323 382
#     4  11  23  39  65  96 127 167 215 267 323 382
#     4  12  23  44  64  94 132 164 210 266 325 392
#     4  11  22  42  65  92 128 173 214 269 325 382
#
# _framework density 20.688790999999998
#
# number of rings (size 3 to 8) (size 9 to 14) (size 15 to 20)
#    0.000    1.000    5.714    1.286    0.000    2.286 
#    0.000    4.286    0.000    0.000    0.000    0.000 
#    0.000    0.000    0.000    0.000    0.000    0.000 
#
# Total GULP energy -694220.269733 kJ/mol
# GULP energy per Si atom -12396.790531 kJ/mol
# Density = 2.064170 g / cm^3
# Si number density = 20.688791 Si / 1000 Ang^3
#
#
#
# Elastic Constant Matrix: (Units=GPa)
#
#
# Indices 1 2 3 4 5 6 
#
# 1 119.1623 53.4119 35.5360 0.0000 0.0000 0.0000
# 2 53.4119 119.1623 35.5360 0.0000 0.0000 0.0000
# 3 35.5360 35.5360 84.0631 0.0000 0.0000 0.0000
# 4 0.0000 0.0000 0.0000 31.6191 0.0000 0.0000
# 5 0.0000 0.0000 0.0000 0.0000 31.6191 0.0000
# 6 0.0000 0.0000 0.0000 0.0000 0.0000 24.7863
#
#
#
# Elastic Compliance Matrix: (Units=1/GPa)
#
#
# Indices 1 2 3 4 5 6 
#
# 1 0.011113 -0.004096 -0.002966 0.000000 0.000000 0.000000
# 2 -0.004096 0.011113 -0.002966 0.000000 0.000000 0.000000
# 3 -0.002966 -0.002966 0.014403 0.000000 0.000000 0.000000
# 4 0.000000 0.000000 0.000000 0.031626 0.000000 0.000000
# 5 0.000000 0.000000 0.000000 0.000000 0.031626 0.000000
# 6 0.000000 0.000000 0.000000 0.000000 0.000000 0.040345
#
#
# Mechanical properties :
#
#
# Convention : Reuss Voigt Hill
#
# Bulk Modulus (GPa) = 60.34311 63.48395 61.91353
# Shear Modulus (GPa) = 30.15558 30.79848 30.47703
#
# Velocity S-wave (km/s) = 3.82197 3.86250 3.84229
# Velocity P-wave (km/s) = 6.97904 7.11643 7.04807
#
# Compressibility (1/GPa) = 0.01657190
#
# Stress axis : x y z
#
# Youngs Moduli (GPa) = 89.98829 89.98829 69.42818
#
# Poissons Ratio (x) = 0.36864 0.20592
# Poissons Ratio (y) = 0.36864 0.20592
# Poissons Ratio (z) = 0.26690 0.26690
#
# Static dielectric constant tensor:
#      x y z
#    x 3.768150 0.000000 0.000000 
#    y 0.000000 3.768150 0.000000 
#    z 0.000000 0.000000 3.574890 
# 
# 
# High freq. dielectric constant tensor:
#      x y z
#    x 1.813220 0.000000 0.000000 
#    y 0.000000 1.813220 0.000000 
#    z 0.000000 0.000000 1.801680 
# 
# From -- ./inp_files/712.got.cif
#   From: 2010.03.12/outbox.cif.g09.slc.cpg/sg109_1_cif.got.tgz:712.got - 2010.04.14 01:55:16.
