data_PCOD8307472
_publ_section_title
;
Structure prediction by ZEFSAII (Michael W. Deem and Ramdas Pophale) SiO2 
 PCOD8307472
Probable space group: P 42 B C
;
_chemical_formula_sum "Si O2"
_cell_formula_units_Z 36
_cell_length_a 8.533779
_cell_length_b 8.533779
_cell_length_c 16.740602
_cell_angle_alpha 90.000000
_cell_angle_beta 90.000000
_cell_angle_gamma 90.000000
_cell_volume 1219.140769
_symmetry_space_group_name_H-M "P 42 B C"
_symmetry_group_IT_number 106
_symmetry_cell_setting 'tetragonal'
loop_
_space_group_symop_operation_xyz
x,y,z
-y,x,1/2+z
-x,-y,z
y,-x,1/2+z
1/2-x,1/2+y,z
1/2+x,1/2-y,z
1/2-y,1/2-x,1/2+z
1/2+y,1/2+x,1/2+z
loop_
_atom_site_type_symbol
_atom_site_label
_atom_site_fract_x
_atom_site_fract_y
_atom_site_fract_z
Si Si1 0.091374 0.660224 0.343520
Si Si2 0.370729 0.801425 0.605249
Si Si3 0.500000 0.500000 0.381743
Si Si4 0.941162 0.279948 0.996119
Si Si5 0.608818 0.650964 0.714116
O O1 0.116995 0.670233 0.439433
O O2 0.253278 0.636197 0.295807
O O3 0.000000 0.500000 0.322728
O O4 0.008760 0.832066 0.326916
O O5 0.387755 0.917918 0.530356
O O6 0.294686 0.642455 0.572309
O O7 0.536967 0.759029 0.643111
O O8 0.276891 0.889227 0.676861
O O9 0.350081 0.486725 0.437303
O O10 0.500000 0.500000 0.731142
#
# Coordination Sequence:
#
# PCOD8307472 Si02
#       5
#     8   8   4   8   8
#     4  12  32  54  90 134 186 251 324 403 486 591
#     4  12  27  51  89 128 177 241 306 390 478 571
#     4  12  28  58  86 136 188 240 330 396 482 582
#     4  12  26  51  91 127 176 241 313 388 475 576
#     4  12  31  58  83 131 189 243 313 391 486 586
#
# _framework density 29.528995999999999
#
# number of rings (size 3 to 8) (size 9 to 14) (size 15 to 20)
#    0.000    0.000    4.444    2.667   10.889    0.000 
#    0.000    0.000    0.000    0.000    0.000    0.000 
#    0.000    0.000    0.000    0.000    0.000    0.000 
#
# Total GULP energy -446029.610724 kJ/mol
# GULP energy per Si atom -12389.711409 kJ/mol
# Density = 2.946179 g / cm^3
# Si number density = 29.528996 Si / 1000 Ang^3
#
#
#
# Elastic Constant Matrix: (Units=GPa)
#
#
# Indices 1 2 3 4 5 6 
#
# 1 158.7274 59.1541 46.9499 0.0000 0.0000 0.0000
# 2 59.1541 158.7274 46.9499 0.0000 0.0000 0.0000
# 3 46.9499 46.9499 137.4257 0.0000 0.0000 0.0000
# 4 0.0000 0.0000 0.0000 49.8635 0.0000 0.0000
# 5 0.0000 0.0000 0.0000 0.0000 49.8635 0.0000
# 6 0.0000 0.0000 0.0000 0.0000 0.0000 38.0095
#
#
#
# Elastic Compliance Matrix: (Units=1/GPa)
#
#
# Indices 1 2 3 4 5 6 
#
# 1 0.007712 -0.002330 -0.001839 0.000000 0.000000 0.000000
# 2 -0.002330 0.007712 -0.001839 0.000000 0.000000 0.000000
# 3 -0.001839 -0.001839 0.008533 0.000000 0.000000 0.000000
# 4 0.000000 0.000000 0.000000 0.020055 0.000000 0.000000
# 5 0.000000 0.000000 0.000000 0.000000 0.020055 0.000000
# 6 0.000000 0.000000 0.000000 0.000000 0.000000 0.026309
#
#
# Mechanical properties :
#
#
# Convention : Reuss Voigt Hill
#
# Bulk Modulus (GPa) = 83.73611 84.55424 84.14517
# Shear Modulus (GPa) = 47.00437 47.66907 47.33672
#
# Velocity S-wave (km/s) = 3.99407 4.02221 4.00817
# Velocity P-wave (km/s) = 7.04904 7.08995 7.06952
#
# Compressibility (1/GPa) = 0.01194228
#
# Stress axis : x y z
#
# Youngs Moduli (GPa) = 129.66020 129.66020 117.19184
#
# Poissons Ratio (x) = 0.30216 0.21548
# Poissons Ratio (y) = 0.30216 0.21548
# Poissons Ratio (z) = 0.23841 0.23841
#
# Static dielectric constant tensor:
#      x y z
#    x 5.680440 0.000000 0.000000 
#    y 0.000000 5.680440 0.000000 
#    z 0.000000 0.000000 5.709130 
# 
# 
# High freq. dielectric constant tensor:
#      x y z
#    x 2.214520 0.000000 0.000000 
#    y 0.000000 2.214520 0.000000 
#    z 0.000000 0.000000 2.238930 
# 
# From -- ./inp_files/1557.got.cif
#   From: 2010.03.12/outbox.cif.g09.slc.cpg/sg106_cif.got.tgz:1557.got - 2010.04.14 01:48:02.
