data_PCOD8307409
_publ_section_title
;
Structure prediction by ZEFSAII (Michael W. Deem and Ramdas Pophale) SiO2 
 PCOD8307409
Probable space group: P 42 B C
;
_chemical_formula_sum "Si O2"
_cell_formula_units_Z 60
_cell_length_a 18.195797
_cell_length_b 18.195797
_cell_length_c 8.921579
_cell_angle_alpha 90.000000
_cell_angle_beta 90.000000
_cell_angle_gamma 90.000000
_cell_volume 2953.819080
_symmetry_space_group_name_H-M "P 42 B C"
_symmetry_group_IT_number 106
_symmetry_cell_setting 'tetragonal'
loop_
_space_group_symop_operation_xyz
x,y,z
-y,x,1/2+z
-x,-y,z
y,-x,1/2+z
1/2-x,1/2+y,z
1/2+x,1/2-y,z
1/2-y,1/2-x,1/2+z
1/2+y,1/2+x,1/2+z
loop_
_atom_site_type_symbol
_atom_site_label
_atom_site_fract_x
_atom_site_fract_y
_atom_site_fract_z
Si Si1 0.998777 0.193547 0.590460
Si Si2 0.745557 0.198775 0.853653
Si Si3 0.165069 0.194355 0.665435
Si Si4 0.500000 0.500000 0.874516
Si Si5 0.216829 0.613033 0.273316
Si Si6 0.704906 0.906242 0.615486
Si Si7 0.452847 0.595584 0.122538
Si Si8 0.254999 0.458551 0.763232
O O1 0.958771 0.257700 0.682967
O O2 0.949028 0.122334 0.606538
O O3 0.078862 0.176993 0.661660
O O4 0.007222 0.215408 0.417931
O O5 0.685551 0.261577 0.817400
O O6 0.825272 0.219350 0.783402
O O7 0.717962 0.120323 0.791704
O O8 0.752464 0.193075 0.032276
O O9 0.211273 0.118822 0.655589
O O10 0.427977 0.495931 0.772653
O O11 0.500318 0.573953 0.976289
O O12 0.147418 0.645118 0.185649
O O13 0.191681 0.588775 0.438451
O O14 0.695576 0.986635 0.689838
O O15 0.444082 0.682226 0.137549
#
# Coordination Sequence:
#
# PCOD8307409 Si02
#       8
#     8   8   8   4   8   8   8   8
#     4  11  22  36  57  82 115 153 190 236 289 340
#     4   9  19  38  55  78 112 146 189 241 278 337
#     4   9  21  36  56  80 112 148 194 236 286 336
#     4  10  24  34  48  70 116 160 190 230 276 342
#     4  10  20  39  58  81 115 151 196 241 283 341
#     4  10  22  37  58  84 113 152 196 238 288 341
#     4  11  22  36  50  76 116 155 193 229 279 346
#     4  11  22  36  56  83 113 152 191 234 289 345
#
# _framework density 20.312687
#
# number of rings (size 3 to 8) (size 9 to 14) (size 15 to 20)
#    0.000    1.867    2.667    0.800    5.600    2.133 
#    0.000    0.000    0.000    0.800    0.000    5.600 
#    0.000    0.000    0.000    0.000    0.000    0.000 
#
# Total GULP energy -743945.712328 kJ/mol
# GULP energy per Si atom -12399.095205 kJ/mol
# Density = 2.026645 g / cm^3
# Si number density = 20.312687 Si / 1000 Ang^3
#
#
#
# Elastic Constant Matrix: (Units=GPa)
#
#
# Indices 1 2 3 4 5 6 
#
# 1 36.6837 -10.3726 6.3584 0.0000 0.0000 0.0000
# 2 -10.3726 36.6837 6.3584 0.0000 0.0000 0.0000
# 3 6.3584 6.3584 79.5994 0.0000 0.0000 0.0000
# 4 0.0000 0.0000 0.0000 27.0785 0.0000 0.0000
# 5 0.0000 0.0000 0.0000 0.0000 27.0785 0.0000
# 6 0.0000 0.0000 0.0000 0.0000 0.0000 22.9332
#
#
#
# Elastic Compliance Matrix: (Units=1/GPa)
#
#
# Indices 1 2 3 4 5 6 
#
# 1 0.030392 0.009141 -0.003158 0.000000 0.000000 0.000000
# 2 0.009141 0.030392 -0.003158 0.000000 0.000000 0.000000
# 3 -0.003158 -0.003158 0.013067 0.000000 0.000000 0.000000
# 4 0.000000 0.000000 0.000000 0.036930 0.000000 0.000000
# 5 0.000000 0.000000 0.000000 0.000000 0.036930 0.000000
# 6 0.000000 0.000000 0.000000 0.000000 0.000000 0.043605
#
#
# Mechanical properties :
#
#
# Convention : Reuss Voigt Hill
#
# Bulk Modulus (GPa) = 12.57832 17.51725 15.04779
# Shear Modulus (GPa) = 23.56644 25.45955 24.51300
#
# Velocity S-wave (km/s) = 3.40984 3.54415 3.47765
# Velocity P-wave (km/s) = 4.65924 5.03890 4.85278
#
# Compressibility (1/GPa) = 0.07950189
#
# Stress axis : x y z
#
# Youngs Moduli (GPa) = 32.90331 32.90331 76.52627
#
# Poissons Ratio (x) = -0.30077 0.24166
# Poissons Ratio (y) = -0.30077 0.24166
# Poissons Ratio (z) = 0.10391 0.10391
#
# Static dielectric constant tensor:
#      x y z
#    x 3.440190 0.000000 0.000000 
#    y 0.000000 3.440190 0.000000 
#    z 0.000000 0.000000 3.900550 
# 
# 
# High freq. dielectric constant tensor:
#      x y z
#    x 1.767810 0.000000 0.000000 
#    y 0.000000 1.767810 0.000000 
#    z 0.000000 0.000000 1.810960 
# 
# From -- ./inp_files/536.got.cif
#   From: 2010.03.12/outbox.cif.g09.slc.cpg/sg106_cif.got.tgz:536.got - 2010.04.14 01:48:02.
