data_PCOD8307641
_publ_section_title
;
Structure prediction by ZEFSAII (Michael W. Deem and Ramdas Pophale) SiO2 
 PCOD8307641
Probable space group: I 4 M M
;
_chemical_formula_sum "Si O2"
_cell_formula_units_Z 128
_cell_length_a 22.968514
_cell_length_b 22.968514
_cell_length_c 12.820214
_cell_angle_alpha 90.000000
_cell_angle_beta 90.000000
_cell_angle_gamma 90.000000
_cell_volume 6763.337682
_symmetry_space_group_name_H-M "I 4 M M"
_symmetry_group_IT_number 107
_symmetry_cell_setting 'tetragonal'
loop_
_space_group_symop_operation_xyz
x,y,z
-y,x,z
-x,-y,z
y,-x,z
-x,y,z
x,-y,z
-y,-x,z
y,x,z
1/2+x,1/2+y,1/2+z
1/2-y,1/2+x,1/2+z
1/2-x,1/2-y,1/2+z
1/2+y,1/2-x,1/2+z
1/2-x,1/2+y,1/2+z
1/2+x,1/2-y,1/2+z
1/2-y,1/2-x,1/2+z
1/2+y,1/2+x,1/2+z
loop_
_atom_site_type_symbol
_atom_site_label
_atom_site_fract_x
_atom_site_fract_y
_atom_site_fract_z
Si Si1 0.374318 0.932521 0.226930
Si Si2 0.935092 0.156988 0.897286
Si Si3 0.741551 0.351451 0.993413
Si Si4 0.170825 0.626854 0.532506
Si Si5 0.567739 0.171417 0.319767
Si Si6 0.131917 0.775882 0.726042
Si Si7 0.745225 0.564676 0.809855
Si Si8 0.206591 0.890242 0.100659
O O1 0.422808 0.896230 0.290435
O O2 0.312850 0.925389 0.284540
O O3 0.393322 0.000000 0.220854
O O4 0.373228 0.904709 0.111503
O O5 0.901387 0.098614 0.923167
O O6 0.913715 0.186449 0.790946
O O7 0.000000 0.138206 0.877138
O O8 0.929941 0.198669 0.997927
O O9 0.712473 0.287527 0.977263
O O10 0.811389 0.351355 0.990989
O O11 0.721638 0.391822 0.898029
O O12 0.718786 0.378755 0.102319
O O13 0.180206 0.580374 0.440967
O O14 0.231264 0.641170 0.590385
O O15 0.500000 0.189525 0.296927
O O16 0.617586 0.209135 0.257734
O O17 0.197739 0.802262 0.751628
O O18 0.735462 0.500000 0.853102
O O19 0.706503 0.571488 0.705364
O O20 0.158605 0.841395 0.109640
#
# Coordination Sequence:
#
# PCOD8307641 Si02
#       8
#    16  16  16  16  16  16  16  16
#     4  10  22  41  58  81 115 152 202 251 291 340
#     4  10  20  35  56  83 116 151 191 238 286 345
#     4  11  22  37  59  88 121 150 191 243 302 361
#     4  11  21  37  56  88 115 150 184 242 306 358
#     4  12  23  38  62  87 115 158 202 241 293 353
#     4  10  22  38  56  85 119 152 191 239 294 353
#     4  10  21  37  57  80 116 159 195 238 294 352
#     4  10  20  34  56  85 114 149 192 235 291 356
#
# _framework density 18.925567000000001
#
# number of rings (size 3 to 8) (size 9 to 14) (size 15 to 20)
#    0.000    1.500    3.750    1.875    0.000    2.875 
#    0.000    0.625    0.000    1.500    0.000    0.000 
#    0.000    2.250    0.000    0.500    0.000    0.000 
#
# Total GULP energy -793220.736871 kJ/mol
# GULP energy per Si atom -12394.074014 kJ/mol
# Density = 1.888249 g / cm^3
# Si number density = 18.925567 Si / 1000 Ang^3
#
#
#
# Elastic Constant Matrix: (Units=GPa)
#
#
# Indices 1 2 3 4 5 6 
#
# 1 99.7615 34.7091 34.9721 0.0000 0.0000 0.0004
# 2 34.7091 99.7615 34.9721 0.0000 0.0000 -0.0004
# 3 34.9721 34.9721 105.5945 0.0000 0.0000 0.0000
# 4 0.0000 0.0000 0.0000 23.9687 0.0000 0.0000
# 5 0.0000 0.0000 0.0000 0.0000 23.9687 0.0000
# 6 0.0004 -0.0004 0.0000 0.0000 0.0000 17.8672
#
#
#
# Elastic Compliance Matrix: (Units=1/GPa)
#
#
# Indices 1 2 3 4 5 6 
#
# 1 0.012178 -0.003194 -0.002976 0.000000 0.000000 0.000000
# 2 -0.003194 0.012178 -0.002976 0.000000 0.000000 0.000000
# 3 -0.002976 -0.002976 0.011441 0.000000 0.000000 0.000000
# 4 0.000000 0.000000 0.000000 0.041721 0.000000 0.000000
# 5 0.000000 0.000000 0.000000 0.000000 0.041721 0.000000
# 6 0.000000 0.000000 0.000000 0.000000 0.000000 0.055968
#
#
# Mechanical properties :
#
#
# Convention : Reuss Voigt Hill
#
# Bulk Modulus (GPa) = 57.11809 57.15822 57.13816
# Shear Modulus (GPa) = 25.08352 26.52521 25.80436
#
# Velocity S-wave (km/s) = 3.64452 3.74780 3.69652
# Velocity P-wave (km/s) = 6.92502 6.99965 6.96244
#
# Compressibility (1/GPa) = 0.01750759
#
# Stress axis : x y z
#
# Youngs Moduli (GPa) = 82.11361 82.11361 87.40401
#
# Poissons Ratio (x) = 0.26227 0.26007
# Poissons Ratio (y) = 0.26227 0.26007
# Poissons Ratio (z) = 0.24433 0.24433
#
# Static dielectric constant tensor:
#      x y z
#    x 3.365910 0.000000 0.000000 
#    y 0.000000 3.365910 0.000000 
#    z 0.000000 0.000000 3.628510 
# 
# 
# High freq. dielectric constant tensor:
#      x y z
#    x 1.720780 0.000000 0.000000 
#    y 0.000000 1.720780 0.000000 
#    z 0.000000 0.000000 1.746650 
# 
# From -- ./inp_files/2684.got.cif
#   From: 2010.03.12/outbox.cif.g09.slc.cpg/sg107_2_cif.got.tgz:2684.got - 2010.04.14 01:49:11.
