data_PCOD8307084
_publ_section_title
;
Structure prediction by ZEFSAII (Michael W. Deem and Ramdas Pophale) SiO2 
 PCOD8307084
Probable space group: P 4 N C 
;
_chemical_formula_sum "Si O2"
_cell_formula_units_Z 48
_cell_length_a 8.402115
_cell_length_b 8.402115
_cell_length_c 32.967036
_cell_angle_alpha 90.000000
_cell_angle_beta 90.000000
_cell_angle_gamma 90.000000
_cell_volume 2327.325592
_symmetry_space_group_name_H-M "P 4 N C "
_symmetry_group_IT_number 104
_symmetry_cell_setting 'tetragonal'
loop_
_space_group_symop_operation_xyz
x,y,z
-y,x,z
-x,-y,z
y,-x,z
1/2-x,1/2+y,1/2+z
1/2+x,1/2-y,1/2+z
1/2-y,1/2-x,1/2+z
1/2+y,1/2+x,1/2+z
loop_
_atom_site_type_symbol
_atom_site_label
_atom_site_fract_x
_atom_site_fract_y
_atom_site_fract_z
Si Si1 0.000000 0.500000 0.571220
Si Si2 0.578197 0.747773 0.511308
Si Si3 0.746452 0.411811 0.419139
Si Si4 0.429419 0.750921 0.223599
Si Si5 0.251089 0.927658 0.632645
Si Si6 0.500000 0.000000 0.785706
Si Si7 0.754362 0.427265 0.850332
O O1 0.109858 0.611747 0.542656
O O2 0.891588 0.611580 0.600044
O O3 0.396677 0.696592 0.519264
O O4 0.603478 0.806849 0.465325
O O5 0.699413 0.593895 0.410349
O O6 0.892290 0.354789 0.391127
O O7 0.306987 0.609125 0.230179
O O8 0.408508 0.820147 0.178167
O O9 0.395526 0.884712 0.257045
O O10 0.193889 0.108111 0.625920
O O11 0.400575 0.125234 0.812892
O O12 0.695194 0.608449 0.848826
#
# Coordination Sequence:
#
# PCOD8307084 Si02
#       7
#     4   8   8   8   8   4   8
#     4  12  19  29  54  82 106 142 176 211 269 326
#     4   9  20  36  53  78 110 141 179 224 261 302
#     4   9  19  38  60  78 102 143 189 224 259 312
#     4   9  19  36  56  76 101 137 180 221 259 309
#     4   9  19  35  52  75 107 138 174 220 264 310
#     4  12  21  35  56  80 106 138 176 217 267 328
#     4  11  24  38  54  81 114 142 172 221 278 323
#
# _framework density 20.624533
#
# number of rings (size 3 to 8) (size 9 to 14) (size 15 to 20)
#    0.000    2.167    0.000    5.500    0.000    3.333 
#    0.000    1.667    0.000    2.000    0.000   14.000 
#    0.000    0.000    0.000    0.000    0.000    0.000 
#
# Total GULP energy -595154.426855 kJ/mol
# GULP energy per Si atom -12399.050559 kJ/mol
# Density = 2.057759 g / cm^3
# Si number density = 20.624533 Si / 1000 Ang^3
#
#
#
# Elastic Constant Matrix: (Units=GPa)
#
#
# Indices 1 2 3 4 5 6 
#
# 1 57.6133 8.4197 42.3730 0.0000 0.0000 0.0000
# 2 8.4197 57.6133 42.3730 0.0000 0.0000 0.0000
# 3 42.3730 42.3730 143.6933 0.0000 0.0000 0.0000
# 4 0.0000 0.0000 0.0000 29.7508 0.0000 0.0000
# 5 0.0000 0.0000 0.0000 0.0000 29.7508 0.0000
# 6 0.0000 0.0000 0.0000 0.0000 0.0000 26.4292
#
#
#
# Elastic Compliance Matrix: (Units=1/GPa)
#
#
# Indices 1 2 3 4 5 6 
#
# 1 0.022346 0.002018 -0.007185 0.000000 0.000000 0.000000
# 2 0.002018 0.022346 -0.007185 0.000000 0.000000 0.000000
# 3 -0.007185 -0.007185 0.011197 0.000000 0.000000 0.000000
# 4 0.000000 0.000000 0.000000 0.033613 0.000000 0.000000
# 5 0.000000 0.000000 0.000000 0.000000 0.033613 0.000000
# 6 0.000000 0.000000 0.000000 0.000000 0.000000 0.037837
#
#
# Mechanical properties :
#
#
# Convention : Reuss Voigt Hill
#
# Bulk Modulus (GPa) = 32.06460 49.47239 40.76849
# Shear Modulus (GPa) = 25.50377 28.23643 26.87010
#
# Velocity S-wave (km/s) = 3.52031 3.70411 3.61338
# Velocity P-wave (km/s) = 5.66604 6.50639 6.10070
#
# Compressibility (1/GPa) = 0.03118704
#
# Stress axis : x y z
#
# Youngs Moduli (GPa) = 44.75004 44.75004 89.31233
#
# Poissons Ratio (x) = -0.09033 0.64169
# Poissons Ratio (y) = -0.09033 0.64169
# Poissons Ratio (z) = 0.32152 0.32152
#
# Static dielectric constant tensor:
#      x y z
#    x 3.492180 0.000000 0.000000 
#    y 0.000000 3.492180 0.000000 
#    z 0.000000 0.000000 3.825420 
# 
# 
# High freq. dielectric constant tensor:
#      x y z
#    x 1.791030 0.000000 0.000000 
#    y 0.000000 1.791030 0.000000 
#    z 0.000000 0.000000 1.821830 
# 
# From -- ./inp_files/1962.got.cif
#   From: 2010.03.12/outbox.cif.g09.slc.cpg/sg104_cif.got.tgz:1962.got - 2010.04.14 01:44:05.
