data_PCOD8307482
_publ_section_title
;
Structure prediction by ZEFSAII (Michael W. Deem and Ramdas Pophale) SiO2 
 PCOD8307482
Probable space group: I 4 M M
;
_chemical_formula_sum "Si O2"
_cell_formula_units_Z 96
_cell_length_a 33.460336
_cell_length_b 33.460336
_cell_length_c 5.329060
_cell_angle_alpha 90.000000
_cell_angle_beta 90.000000
_cell_angle_gamma 90.000000
_cell_volume 5966.384056
_symmetry_space_group_name_H-M "I 4 M M"
_symmetry_group_IT_number 107
_symmetry_cell_setting 'tetragonal'
loop_
_space_group_symop_operation_xyz
x,y,z
-y,x,z
-x,-y,z
y,-x,z
-x,y,z
x,-y,z
-y,-x,z
y,x,z
1/2+x,1/2+y,1/2+z
1/2-y,1/2+x,1/2+z
1/2-x,1/2-y,1/2+z
1/2+y,1/2-x,1/2+z
1/2-x,1/2+y,1/2+z
1/2+x,1/2-y,1/2+z
1/2-y,1/2-x,1/2+z
1/2+y,1/2+x,1/2+z
loop_
_atom_site_type_symbol
_atom_site_label
_atom_site_fract_x
_atom_site_fract_y
_atom_site_fract_z
Si Si1 0.952714 0.274069 0.985200
Si Si2 0.173474 0.173474 0.990648
Si Si3 0.710179 0.710179 0.990756
Si Si4 0.313588 0.452889 0.983313
Si Si5 0.826760 0.705924 0.475021
Si Si6 0.315635 0.579801 0.483398
Si Si7 0.418480 0.224929 0.985204
O O1 0.935035 0.229734 0.997123
O O2 0.935380 0.296371 0.737901
O O3 0.000000 0.272654 0.972506
O O4 0.937828 0.296270 0.239168
O O5 0.188394 0.188394 0.259982
O O6 0.195085 0.195085 0.760502
O O7 0.127027 0.182613 0.968557
O O8 0.703848 0.757382 0.971831
O O9 0.307768 0.500000 0.969657
O O10 0.337110 0.436704 0.736953
O O11 0.270896 0.431419 0.996595
O O12 0.336853 0.439611 0.237294
O O13 0.820428 0.679680 0.224739
O O14 0.871109 0.723131 0.474956
#
# Coordination Sequence:
#
# PCOD8307482 Si02
#       7
#    16   8   8  16  16  16  16
#     4  10  17  29  48  70  88 107 139 182 238 288
#     4  12  22  33  50  70  92 124 156 193 244 289
#     4  12  22  37  50  60  80 116 170 218 246 268
#     4  10  18  31  50  70  87 108 142 184 235 283
#     4  12  24  37  48  62  84 119 165 211 251 275
#     4  10  18  28  42  66  93 114 140 172 216 283
#     4  10  18  30  45  63  85 108 136 184 238 285
#
# _framework density 16.090149
#
# number of rings (size 3 to 8) (size 9 to 14) (size 15 to 20)
#    0.000    1.333    0.000   12.500    0.000    0.000 
#    0.000    0.000    0.000    0.000    0.000    0.000 
#    0.000    0.000    0.000    0.000    0.000   81.250 
#
# Total GULP energy -594910.274712 kJ/mol
# GULP energy per Si atom -12393.964056 kJ/mol
# Density = 1.605353 g / cm^3
# Si number density = 16.090149 Si / 1000 Ang^3
#
#
#
# Elastic Constant Matrix: (Units=GPa)
#
#
# Indices 1 2 3 4 5 6 
#
# 1 48.1222 -6.7981 9.0668 0.0000 0.0000 0.0000
# 2 -6.7981 48.1222 9.0668 0.0000 0.0000 0.0000
# 3 9.0668 9.0668 151.9437 0.0000 0.0000 0.0000
# 4 0.0000 0.0000 0.0000 19.9179 0.0000 0.0000
# 5 0.0000 0.0000 0.0000 0.0000 19.9179 0.0000
# 6 0.0000 0.0000 0.0000 0.0000 0.0000 9.2678
#
#
#
# Elastic Compliance Matrix: (Units=1/GPa)
#
#
# Indices 1 2 3 4 5 6 
#
# 1 0.021529 0.003321 -0.001483 0.000000 0.000000 0.000000
# 2 0.003321 0.021529 -0.001483 0.000000 0.000000 0.000000
# 3 -0.001483 -0.001483 0.006758 0.000000 0.000000 0.000000
# 4 0.000000 0.000000 0.000000 0.050206 0.000000 0.000000
# 5 0.000000 0.000000 0.000000 0.000000 0.050206 0.000000
# 6 0.000000 0.000000 0.000000 0.000000 0.000000 0.107901
#
#
# Mechanical properties :
#
#
# Convention : Reuss Voigt Hill
#
# Bulk Modulus (GPa) = 19.79166 30.09546 24.94356
# Shear Modulus (GPa) = 18.23081 25.61088 21.92084
#
# Velocity S-wave (km/s) = 3.36972 3.99395 3.69504
# Velocity P-wave (km/s) = 5.24092 6.32564 5.80866
#
# Compressibility (1/GPa) = 0.05052633
#
# Stress axis : x y z
#
# Youngs Moduli (GPa) = 46.44913 46.44913 147.96499
#
# Poissons Ratio (x) = -0.15425 0.21941
# Poissons Ratio (y) = -0.15425 0.21941
# Poissons Ratio (z) = 0.06888 0.06888
#
# Static dielectric constant tensor:
#      x y z
#    x 2.827280 0.000000 0.000000 
#    y 0.000000 2.827280 0.000000 
#    z 0.000000 0.000000 7.523340 
# 
# 
# High freq. dielectric constant tensor:
#      x y z
#    x 1.572580 0.000000 0.000000 
#    y 0.000000 1.572580 0.000000 
#    z 0.000000 0.000000 1.670710 
# 
# From -- ./inp_files/571.got.cif
#   From: 2010.03.12/outbox.cif.g09.slc.cpg/sg107_1_cif.got.tgz:571.got - 2010.04.14 01:49:11.
