data_PCOD8307117
_publ_section_title
;
Structure prediction by ZEFSAII (Michael W. Deem and Ramdas Pophale) SiO2 
 PCOD8307117
Probable space group: P 42 M C
;
_chemical_formula_sum "Si O2"
_cell_formula_units_Z 32
_cell_length_a 7.956038
_cell_length_b 7.956038
_cell_length_c 23.784613
_cell_angle_alpha 90.000000
_cell_angle_beta 90.000000
_cell_angle_gamma 90.000000
_cell_volume 1505.531293
_symmetry_space_group_name_H-M "P 42 M C"
_symmetry_group_IT_number 105
_symmetry_cell_setting 'tetragonal'
loop_
_space_group_symop_operation_xyz
x,y,z
-y,x,1/2+z
-x,-y,z
y,-x,1/2+z
-x,y,z
x,-y,z
-y,-x,1/2+z
y,x,1/2+z
loop_
_atom_site_type_symbol
_atom_site_label
_atom_site_fract_x
_atom_site_fract_y
_atom_site_fract_z
Si Si1 0.313318 0.696235 0.307770
Si Si2 0.195538 0.000000 0.608206
Si Si3 0.000000 0.300558 0.235274
Si Si4 0.188567 0.193037 0.422884
Si Si5 0.315499 0.200230 0.040893
O O1 0.500000 0.735095 0.282897
O O2 0.284741 0.500000 0.316140
O O3 0.304149 0.780706 0.368750
O O4 0.167856 0.766955 0.266746
O O5 0.276384 0.169321 0.581013
O O6 0.222587 0.000000 0.674153
O O7 0.000000 0.000000 0.594302
O O8 0.000000 0.500000 0.230661
O O9 0.262054 0.292076 0.476606
O O10 0.000000 0.255525 0.407955
O O11 0.186879 0.000000 0.440844
O O12 0.500000 0.261569 0.061911
O O13 0.305190 0.000000 0.041756
#
# Coordination Sequence:
#
# PCOD8307117 Si02
#       5
#     8   4   4   8   8
#     4  10  21  37  57  82 111 148 197 244 294 361
#     4  10  20  36  56  82 112 146 202 245 280 349
#     4  10  22  40  58  78 112 156 194 243 304 349
#     4  10  18  31  55  85 116 147 185 236 296 359
#     4   9  17  31  54  83 115 151 189 237 297 353
#
# _framework density 21.254957000000001
#
# number of rings (size 3 to 8) (size 9 to 14) (size 15 to 20)
#    0.000    2.250    2.500    0.750    0.000    3.500 
#    0.000    1.250    0.000    1.500    0.000    0.000 
#    0.000    0.000    0.000    0.000    0.000    0.000 
#
# Total GULP energy -396704.203465 kJ/mol
# GULP energy per Si atom -12397.006358 kJ/mol
# Density = 2.120658 g / cm^3
# Si number density = 21.254957 Si / 1000 Ang^3
#
#
#
# Elastic Constant Matrix: (Units=GPa)
#
#
# Indices 1 2 3 4 5 6 
#
# 1 100.0205 28.8910 47.2012 0.0000 0.0000 0.0000
# 2 28.8910 100.0205 47.2012 0.0000 0.0000 0.0000
# 3 47.2012 47.2012 134.2462 0.0000 0.0000 0.0000
# 4 0.0000 0.0000 0.0000 16.7024 0.0000 0.0000
# 5 0.0000 0.0000 0.0000 0.0000 16.7024 0.0000
# 6 0.0000 0.0000 0.0000 0.0000 0.0000 10.3151
#
#
#
# Elastic Compliance Matrix: (Units=1/GPa)
#
#
# Indices 1 2 3 4 5 6 
#
# 1 0.012253 -0.001806 -0.003673 0.000000 0.000000 0.000000
# 2 -0.001806 0.012253 -0.003673 0.000000 0.000000 0.000000
# 3 -0.003673 -0.003673 0.010032 0.000000 0.000000 0.000000
# 4 0.000000 0.000000 0.000000 0.059872 0.000000 0.000000
# 5 0.000000 0.000000 0.000000 0.000000 0.059872 0.000000
# 6 0.000000 0.000000 0.000000 0.000000 0.000000 0.096945
#
#
# Mechanical properties :
#
#
# Convention : Reuss Voigt Hill
#
# Bulk Modulus (GPa) = 61.60131 64.54158 63.07145
# Shear Modulus (GPa) = 18.18561 22.81021 20.49791
#
# Velocity S-wave (km/s) = 2.92823 3.27948 3.10882
# Velocity P-wave (km/s) = 6.36221 6.69114 6.52875
#
# Compressibility (1/GPa) = 0.01623342
#
# Stress axis : x y z
#
# Youngs Moduli (GPa) = 81.61245 81.61245 99.68056
#
# Poissons Ratio (x) = 0.14738 0.36615
# Poissons Ratio (y) = 0.14738 0.36615
# Poissons Ratio (z) = 0.29978 0.29978
#
# Static dielectric constant tensor:
#      x y z
#    x 3.800310 0.000000 0.000000 
#    y 0.000000 3.800310 0.000000 
#    z 0.000000 0.000000 3.644270 
# 
# 
# High freq. dielectric constant tensor:
#      x y z
#    x 1.820360 0.000000 0.000000 
#    y 0.000000 1.820360 0.000000 
#    z 0.000000 0.000000 1.820850 
# 
# From -- ./inp_files/3363.got.cif
#   From: 2010.03.12/outbox.cif.g09.slc.cpg/sg105_2_cif.got.tgz:3363.got - 2010.04.14 01:45:32.
