data_PCOD8307021
_publ_section_title
;
Structure prediction by ZEFSAII (Michael W. Deem and Ramdas Pophale) SiO2 
 PCOD8307021
Probable space group: P 4 C C
;
_chemical_formula_sum "Si O2"
_cell_formula_units_Z 44
_cell_length_a 8.306524
_cell_length_b 8.306524
_cell_length_c 29.348962
_cell_angle_alpha 90.000000
_cell_angle_beta 90.000000
_cell_angle_gamma 90.000000
_cell_volume 2025.029687
_symmetry_space_group_name_H-M "P 4 C C"
_symmetry_group_IT_number 103
_symmetry_cell_setting 'tetragonal'
loop_
_space_group_symop_operation_xyz
x,y,z
-y,x,z
-x,-y,z
y,-x,z
-x,y,1/2+z
x,-y,1/2+z
-y,-x,1/2+z
y,x,1/2+z
loop_
_atom_site_type_symbol
_atom_site_label
_atom_site_fract_x
_atom_site_fract_y
_atom_site_fract_z
Si Si1 0.927104 0.747050 0.046480
Si Si2 0.751591 0.423583 0.472246
Si Si3 0.746863 0.920820 0.648739
Si Si4 0.250282 0.410891 0.869628
Si Si5 0.256215 0.922795 0.789860
Si Si6 0.000000 0.500000 0.717447
O O1 0.902412 0.678250 0.097504
O O2 0.107182 0.804551 0.039050
O O3 0.890342 0.611443 0.008998
O O4 0.696956 0.604448 0.480156
O O5 0.816555 0.394912 0.421067
O O6 0.605368 0.882520 0.684725
O O7 0.895382 0.802555 0.657147
O O8 0.404850 0.298363 0.860611
O O9 0.106940 0.352190 0.836853
O O10 0.381363 0.891794 0.748714
O O11 0.106867 0.801589 0.786504
#
# Coordination Sequence:
#
# PCOD8307021 Si02
#       6
#     8   8   8   8   8   4
#     4   9  19  35  55  82 116 152 193 238 283 337
#     4   9  19  35  56  84 119 157 194 235 286 344
#     4   9  20  39  60  84 115 149 188 236 287 343
#     4   9  19  38  61  85 117 157 199 243 293 349
#     4  11  24  40  59  86 118 151 191 241 295 353
#     4  12  22  36  62  84 106 144 190 234 292 352
#
# _framework density 21.728075
#
# number of rings (size 3 to 8) (size 9 to 14) (size 15 to 20)
#    0.000    2.364    0.000    4.364    0.000    6.545 
#    0.000    5.455    0.000    4.909    0.000    0.000 
#    0.000    0.000    0.000    0.000    0.000    0.000 
#
# Total GULP energy -545515.955643 kJ/mol
# GULP energy per Si atom -12398.089901 kJ/mol
# Density = 2.167862 g / cm^3
# Si number density = 21.728075 Si / 1000 Ang^3
#
#
#
# Elastic Constant Matrix: (Units=GPa)
#
#
# Indices 1 2 3 4 5 6 
#
# 1 87.4349 17.2368 62.0910 0.0000 0.0000 0.0000
# 2 17.2368 87.4349 62.0910 0.0000 0.0000 0.0000
# 3 62.0910 62.0910 178.1819 0.0000 0.0000 0.0000
# 4 0.0000 0.0000 0.0000 44.5146 0.0000 0.0000
# 5 0.0000 0.0000 0.0000 0.0000 44.5146 0.0000
# 6 0.0000 0.0000 0.0000 0.0000 0.0000 36.7429
#
#
#
# Elastic Compliance Matrix: (Units=1/GPa)
#
#
# Indices 1 2 3 4 5 6 
#
# 1 0.015266 0.001021 -0.005676 0.000000 0.000000 0.000000
# 2 0.001021 0.015266 -0.005676 0.000000 0.000000 0.000000
# 3 -0.005676 -0.005676 0.009568 0.000000 0.000000 0.000000
# 4 0.000000 0.000000 0.000000 0.022465 0.000000 0.000000
# 5 0.000000 0.000000 0.000000 0.000000 0.022465 0.000000
# 6 0.000000 0.000000 0.000000 0.000000 0.000000 0.027216
#
#
# Mechanical properties :
#
#
# Convention : Reuss Voigt Hill
#
# Bulk Modulus (GPa) = 51.44096 70.65437 61.04766
# Shear Modulus (GPa) = 35.87160 39.26328 37.56744
#
# Velocity S-wave (km/s) = 4.06758 4.25553 4.16261
# Velocity P-wave (km/s) = 6.76657 7.53221 7.15963
#
# Compressibility (1/GPa) = 0.01943976
#
# Stress axis : x y z
#
# Youngs Moduli (GPa) = 65.50386 65.50386 104.51753
#
# Poissons Ratio (x) = -0.06687 0.59320
# Poissons Ratio (y) = -0.06687 0.59320
# Poissons Ratio (z) = 0.37177 0.37177
#
# Static dielectric constant tensor:
#      x y z
#    x 3.737380 0.000000 0.000000 
#    y 0.000000 3.737380 0.000000 
#    z 0.000000 0.000000 4.098640 
# 
# 
# High freq. dielectric constant tensor:
#      x y z
#    x 1.840150 0.000000 0.000000 
#    y 0.000000 1.840150 0.000000 
#    z 0.000000 0.000000 1.868920 
# 
# From -- ./inp_files/1521.got.cif
#   From: 2010.03.12/outbox.cif.g09.slc.cpg/sg103_cif.got.tgz:1521.got - 2010.04.14 01:42:52.
