data_PCOD8307128
_publ_section_title
;
Structure prediction by ZEFSAII (Michael W. Deem and Ramdas Pophale) SiO2 
 PCOD8307128
Probable space group: P 42 M C
;
_chemical_formula_sum "Si O2"
_cell_formula_units_Z 40
_cell_length_a 7.717360
_cell_length_b 7.717360
_cell_length_c 32.798733
_cell_angle_alpha 90.000000
_cell_angle_beta 90.000000
_cell_angle_gamma 90.000000
_cell_volume 1953.415309
_symmetry_space_group_name_H-M "P 42 M C"
_symmetry_group_IT_number 105
_symmetry_cell_setting 'tetragonal'
loop_
_space_group_symop_operation_xyz
x,y,z
-y,x,1/2+z
-x,-y,z
y,-x,1/2+z
-x,y,z
x,-y,z
-y,-x,1/2+z
y,x,1/2+z
loop_
_atom_site_type_symbol
_atom_site_label
_atom_site_fract_x
_atom_site_fract_y
_atom_site_fract_z
Si Si1 0.206645 0.000000 0.788790
Si Si2 0.000000 0.701335 0.999540
Si Si3 0.301536 0.303573 0.439463
Si Si4 0.205529 0.000000 0.881290
Si Si5 0.000000 0.802479 0.090683
Si Si6 0.692068 0.794175 0.233923
Si Si7 0.309488 0.793791 0.142501
O O1 0.281810 0.830377 0.765963
O O2 0.273062 0.000000 0.835060
O O3 0.000000 0.000000 0.787586
O O4 0.828047 0.756821 0.974946
O O5 0.000000 0.500000 0.009133
O O6 0.000000 0.798434 0.042158
O O7 0.500000 0.263280 0.425793
O O8 0.285785 0.500000 0.456104
O O9 0.174578 0.279531 0.401384
O O10 0.000000 0.000000 0.884590
O O11 0.828247 0.714959 0.110204
O O12 0.000000 0.000000 0.105146
O O13 0.500000 0.725317 0.245440
O O14 0.741955 0.734100 0.188194
O O15 0.693743 0.000000 0.235796
O O16 0.500000 0.720503 0.131218
O O17 0.315016 0.000000 0.140450
#
# Coordination Sequence:
#
# PCOD8307128 Si02
#       7
#     4   4   8   4   4   8   8
#     4   9  17  25  39  71 104 137 177 222 273 328
#     4  10  22  39  57  79 107 139 179 230 287 343
#     4  10  22  41  62  81 107 147 190 233 287 350
#     4  11  21  34  57  84 117 147 182 236 295 349
#     4  10  19  28  47  75 103 133 171 224 274 324
#     4   8  13  23  39  61  99 145 182 218 264 319
#     4   8  14  25  41  66 103 143 178 216 265 318
#
# _framework density 20.476956000000001
#
# number of rings (size 3 to 8) (size 9 to 14) (size 15 to 20)
#    0.000    2.800    1.000    2.100    1.400    4.000 
#    0.000    2.000    0.000    0.000    0.000    5.600 
#    0.000    3.200    0.000    0.000    0.000    0.000 
#
# Total GULP energy -495797.744110 kJ/mol
# GULP energy per Si atom -12394.943603 kJ/mol
# Density = 2.043035 g / cm^3
# Si number density = 20.476956 Si / 1000 Ang^3
#
#
#
# Elastic Constant Matrix: (Units=GPa)
#
#
# Indices 1 2 3 4 5 6 
#
# 1 102.5981 31.7602 66.8947 0.0000 0.0000 0.0000
# 2 31.7602 102.5981 66.8947 0.0000 0.0000 0.0000
# 3 66.8947 66.8947 167.7032 0.0000 0.0000 0.0000
# 4 0.0000 0.0000 0.0000 -0.7631 0.0000 0.0000
# 5 0.0000 0.0000 0.0000 0.0000 -0.7631 0.0000
# 6 0.0000 0.0000 0.0000 0.0000 0.0000 11.2672
#
#
#
# Elastic Compliance Matrix: (Units=1/GPa)
#
#
# Indices 1 2 3 4 5 6 
#
# 1 0.013232 -0.000885 -0.004925 0.000000 0.000000 0.000000
# 2 -0.000885 0.013232 -0.004925 0.000000 0.000000 0.000000
# 3 -0.004925 -0.004925 0.009892 0.000000 0.000000 0.000000
# 4 0.000000 0.000000 0.000000 -1.310512 0.000000 0.000000
# 5 0.000000 0.000000 0.000000 0.000000 -1.310512 0.000000
# 6 0.000000 0.000000 0.000000 0.000000 0.000000 0.088753
#
#
# Mechanical properties :
#
#
# Convention : Reuss Voigt Hill
#
# Bulk Modulus (GPa) = 67.17834 78.22208 72.70021
# Shear Modulus (GPa) = -2.02471 15.77155 6.87342
#
# Velocity S-wave (km/s) = -0.99545 2.77828 1.83411
# Velocity P-wave (km/s) = 5.61754 6.96956 6.32975
#
# Compressibility (1/GPa) = 0.01488575
#
# Stress axis : x y z
#
# Youngs Moduli (GPa) = 75.57514 75.57514 101.09163
#
# Poissons Ratio (x) = 0.06687 0.49788
# Poissons Ratio (y) = 0.06687 0.49788
# Poissons Ratio (z) = 0.37221 0.37221
#
# Static dielectric constant tensor:
#      x y z
#    x 3.762840 0.000000 0.000000 
#    y 0.000000 3.762840 0.000000 
#    z 0.000000 0.000000 3.616060 
# 
# 
# High freq. dielectric constant tensor:
#      x y z
#    x 1.791850 0.000000 0.000000 
#    y 0.000000 1.791850 0.000000 
#    z 0.000000 0.000000 1.784000 
# 
# From -- ./inp_files/4381.got.cif
#   From: 2010.03.12/outbox.cif.g09.slc.cpg/sg105_3_cif.got.tgz:4381.got - 2010.04.14 01:45:32.
