data_PCOD8307531
_publ_section_title
;
Structure prediction by ZEFSAII (Michael W. Deem and Ramdas Pophale) SiO2 
 PCOD8307531
Probable space group: I 4 M M
;
_chemical_formula_sum "Si O2"
_cell_formula_units_Z 96
_cell_length_a 13.570857
_cell_length_b 13.570857
_cell_length_c 31.035891
_cell_angle_alpha 90.000000
_cell_angle_beta 90.000000
_cell_angle_gamma 90.000000
_cell_volume 5715.822931
_symmetry_space_group_name_H-M "I 4 M M"
_symmetry_group_IT_number 107
_symmetry_cell_setting 'tetragonal'
loop_
_space_group_symop_operation_xyz
x,y,z
-y,x,z
-x,-y,z
y,-x,z
-x,y,z
x,-y,z
-y,-x,z
y,x,z
1/2+x,1/2+y,1/2+z
1/2-y,1/2+x,1/2+z
1/2-x,1/2-y,1/2+z
1/2+y,1/2-x,1/2+z
1/2-x,1/2+y,1/2+z
1/2+x,1/2-y,1/2+z
1/2-y,1/2-x,1/2+z
1/2+y,1/2+x,1/2+z
loop_
_atom_site_type_symbol
_atom_site_label
_atom_site_fract_x
_atom_site_fract_y
_atom_site_fract_z
Si Si1 0.609785 0.116732 0.618830
Si Si2 0.616547 0.890421 0.858796
Si Si3 0.383730 0.223778 0.774216
Si Si4 0.383742 0.228146 0.942086
Si Si5 0.616902 0.109975 0.023826
Si Si6 0.725277 0.883609 0.701636
O O1 0.500000 0.160087 0.627039
O O2 0.647884 0.149939 0.571339
O O3 0.684658 0.153174 0.655375
O O4 0.602897 0.000000 0.620788
O O5 0.500000 0.898926 0.857836
O O6 0.651748 0.823434 0.819165
O O7 0.651235 0.842534 0.903504
O O8 0.662921 0.000000 0.855125
O O9 0.500000 0.245189 0.773013
O O10 0.327051 0.327051 0.767516
O O11 0.355759 0.146186 0.737037
O O12 0.500000 0.245273 0.941749
O O13 0.334603 0.334603 0.936336
O O14 0.343634 0.181470 0.986605
O O15 0.500000 0.106330 0.020774
O O16 0.658731 0.000000 0.016159
O O17 0.828537 0.828537 0.710411
O O18 0.744506 0.000000 0.703442
#
# Coordination Sequence:
#
# PCOD8307531 Si02
#       6
#    16  16  16  16  16  16
#     4   8  14  26  45  66  86 111 146 189 236 282
#     4   9  17  30  48  67  87 114 149 189 230 269
#     4  10  20  33  50  73  99 126 156 189 229 280
#     4  10  19  29  42  62  90 123 156 189 228 278
#     4   8  14  26  44  64  85 111 146 190 236 274
#     4  10  20  32  47  68  94 126 163 200 238 280
#
# _framework density 16.795483000000001
#
# number of rings (size 3 to 8) (size 9 to 14) (size 15 to 20)
#    0.000    2.833    0.000    3.000    0.000    4.833 
#    0.000    0.000    0.000    3.000    0.000    4.667 
#    0.000   14.667    0.000   12.333    0.000    1.000 
#
# Total GULP energy -594964.157463 kJ/mol
# GULP energy per Si atom -12395.086614 kJ/mol
# Density = 1.675726 g / cm^3
# Si number density = 16.795483 Si / 1000 Ang^3
#
#
#
# Elastic Constant Matrix: (Units=GPa)
#
#
# Indices 1 2 3 4 5 6 
#
# 1 69.4361 35.4436 37.7466 0.0000 0.0000 0.0000
# 2 35.4436 69.4361 37.7466 0.0000 0.0000 0.0000
# 3 37.7466 37.7466 127.6756 0.0000 0.0000 0.0000
# 4 0.0000 0.0000 0.0000 19.2968 0.0000 0.0000
# 5 0.0000 0.0000 0.0000 0.0000 19.2968 0.0000
# 6 0.0000 0.0000 0.0000 0.0000 0.0000 13.4845
#
#
#
# Elastic Compliance Matrix: (Units=1/GPa)
#
#
# Indices 1 2 3 4 5 6 
#
# 1 0.020765 -0.008653 -0.003581 0.000000 0.000000 0.000000
# 2 -0.008653 0.020765 -0.003581 0.000000 0.000000 0.000000
# 3 -0.003581 -0.003581 0.009950 0.000000 0.000000 0.000000
# 4 0.000000 0.000000 0.000000 0.051822 0.000000 0.000000
# 5 0.000000 0.000000 0.000000 0.000000 0.051822 0.000000
# 6 0.000000 0.000000 0.000000 0.000000 0.000000 0.074159
#
#
# Mechanical properties :
#
#
# Convention : Reuss Voigt Hill
#
# Bulk Modulus (GPa) = 50.37629 54.26903 52.32266
# Shear Modulus (GPa) = 18.68949 20.78969 19.73959
#
# Velocity S-wave (km/s) = 3.33944 3.52208 3.43197
# Velocity P-wave (km/s) = 6.70285 6.99442 6.85018
#
# Compressibility (1/GPa) = 0.01985061
#
# Stress axis : x y z
#
# Youngs Moduli (GPa) = 48.15728 48.15728 100.50533
#
# Poissons Ratio (x) = 0.41670 0.35990
# Poissons Ratio (y) = 0.41670 0.35990
# Poissons Ratio (z) = 0.17245 0.17245
#
# Static dielectric constant tensor:
#      x y z
#    x 2.888060 0.000000 0.000000 
#    y 0.000000 2.888060 0.000000 
#    z 0.000000 0.000000 3.568350 
# 
# 
# High freq. dielectric constant tensor:
#      x y z
#    x 1.618780 0.000000 0.000000 
#    y 0.000000 1.618780 0.000000 
#    z 0.000000 0.000000 1.670390 
# 
# From -- ./inp_files/6098.got.cif
#   From: 2010.03.12/outbox.cif.g09.slc.cpg/sg107_4_cif.got.tgz:6098.got - 2010.04.14 01:49:11.
