data_PCOD8307008
_publ_section_title
;
Structure prediction by ZEFSAII (Michael W. Deem and Ramdas Pophale) SiO2 
 PCOD8307008
Probable space group: P 4 C C
;
_chemical_formula_sum "Si O2"
_cell_formula_units_Z 32
_cell_length_a 9.748953
_cell_length_b 9.748953
_cell_length_c 18.648034
_cell_angle_alpha 90.000000
_cell_angle_beta 90.000000
_cell_angle_gamma 90.000000
_cell_volume 1772.348025
_symmetry_space_group_name_H-M "P 4 C C"
_symmetry_group_IT_number 103
_symmetry_cell_setting 'tetragonal'
loop_
_space_group_symop_operation_xyz
x,y,z
-y,x,z
-x,-y,z
y,-x,z
-x,y,1/2+z
x,-y,1/2+z
-y,-x,1/2+z
y,x,1/2+z
loop_
_atom_site_type_symbol
_atom_site_label
_atom_site_fract_x
_atom_site_fract_y
_atom_site_fract_z
Si Si1 0.918086 0.210906 0.938350
Si Si2 0.139229 0.346739 0.739951
Si Si3 0.346739 0.860771 0.298525
Si Si4 0.081914 0.210906 0.600127
O O1 0.868141 0.332377 0.885117
O O2 0.076813 0.174406 0.924888
O O3 0.897512 0.265120 0.019238
O O4 0.271737 0.271737 0.769238
O O5 0.148369 0.500000 0.769239
O O6 0.131859 0.332377 0.653360
O O7 1.000000 0.276285 0.769238
O O8 0.923187 0.174406 0.613588
#
# Coordination Sequence:
#
# PCOD8307008 Si02
#       4
#     8   8   8   8
#     4   9  17  32  57  87 114 145 186 239 295 338
#     4  11  22  36  56  84 115 149 193 233 283 335
#     4  11  22  36  56  84 115 149 193 233 283 335
#     4   9  17  32  57  87 114 145 186 239 295 338
#
# _framework density 18.055143999999999
#
# number of rings (size 3 to 8) (size 9 to 14) (size 15 to 20)
#    0.000    2.000    5.000    1.500    0.000    1.000 
#    0.000    7.500    0.000    0.000    0.000    3.500 
#    0.000    0.000    0.000    0.000    0.000    0.000 
#
# Total GULP energy -396593.098546 kJ/mol
# GULP energy per Si atom -12393.534330 kJ/mol
# Density = 1.801405 g / cm^3
# Si number density = 18.055144 Si / 1000 Ang^3
#
#
#
# Elastic Constant Matrix: (Units=GPa)
#
#
# Indices 1 2 3 4 5 6 
#
# 1 88.6608 35.0943 65.1077 0.0000 0.0000 0.0000
# 2 35.0943 88.6608 65.1077 0.0000 0.0000 0.0000
# 3 65.1077 65.1077 193.3439 0.0000 0.0000 0.0000
# 4 0.0000 0.0000 0.0000 29.7061 0.0000 0.0000
# 5 0.0000 0.0000 0.0000 0.0000 29.7061 0.0000
# 6 0.0000 0.0000 0.0000 0.0000 0.0000 18.9964
#
#
#
# Elastic Compliance Matrix: (Units=1/GPa)
#
#
# Indices 1 2 3 4 5 6 
#
# 1 0.015592 -0.003077 -0.004214 0.000000 0.000000 0.000000
# 2 -0.003077 0.015592 -0.004214 0.000000 0.000000 0.000000
# 3 -0.004214 -0.004214 0.008010 0.000000 0.000000 0.000000
# 4 0.000000 0.000000 0.000000 0.033663 0.000000 0.000000
# 5 0.000000 0.000000 0.000000 0.000000 0.033663 0.000000
# 6 0.000000 0.000000 0.000000 0.000000 0.000000 0.052642
#
#
# Mechanical properties :
#
#
# Convention : Reuss Voigt Hill
#
# Bulk Modulus (GPa) = 61.79405 77.92055 69.85730
# Shear Modulus (GPa) = 26.65722 29.37210 28.01466
#
# Velocity S-wave (km/s) = 3.84661 4.03774 3.94333
# Velocity P-wave (km/s) = 7.35037 8.06154 7.71416
#
# Compressibility (1/GPa) = 0.01618279
#
# Stress axis : x y z
#
# Youngs Moduli (GPa) = 64.13719 64.13719 124.83734
#
# Poissons Ratio (x) = 0.19734 0.52610
# Poissons Ratio (y) = 0.19734 0.52610
# Poissons Ratio (z) = 0.27029 0.27029
#
# Static dielectric constant tensor:
#      x y z
#    x 3.084980 0.000000 0.000000 
#    y 0.000000 3.084980 0.000000 
#    z 0.000000 0.000000 3.563470 
# 
# 
# High freq. dielectric constant tensor:
#      x y z
#    x 1.672690 0.000000 0.000000 
#    y 0.000000 1.672690 0.000000 
#    z 0.000000 0.000000 1.718700 
# 
# From -- ./inp_files/745.got.cif
#   From: 2010.03.12/outbox.cif.g09.slc.cpg/sg103_cif.got.tgz:745.got - 2010.04.14 01:42:52.
