data_PCOD8307303
_publ_section_title
;
Structure prediction by ZEFSAII (Michael W. Deem and Ramdas Pophale) SiO2 
 PCOD8307303
Probable space group: P 42 M C
;
_chemical_formula_sum "Si O2"
_cell_formula_units_Z 48
_cell_length_a 9.313395
_cell_length_b 9.313395
_cell_length_c 30.905864
_cell_angle_alpha 90.000000
_cell_angle_beta 90.000000
_cell_angle_gamma 90.000000
_cell_volume 2680.753826
_symmetry_space_group_name_H-M "P 42 M C"
_symmetry_group_IT_number 105
_symmetry_cell_setting 'tetragonal'
loop_
_space_group_symop_operation_xyz
x,y,z
-y,x,1/2+z
-x,-y,z
y,-x,1/2+z
-x,y,z
x,-y,z
-y,-x,1/2+z
y,x,1/2+z
loop_
_atom_site_type_symbol
_atom_site_label
_atom_site_fract_x
_atom_site_fract_y
_atom_site_fract_z
Si Si1 0.667031 0.833406 0.721390
Si Si2 0.838431 0.671458 0.386974
Si Si3 0.670514 0.659177 0.967070
Si Si4 0.329132 0.662185 0.805019
Si Si5 0.832051 0.165951 0.136476
Si Si6 0.667814 0.334149 0.064052
O O1 0.500000 0.804347 0.712282
O O2 0.724434 0.742204 0.761924
O O3 0.754130 0.780033 0.679736
O O4 0.695675 0.000000 0.731746
O O5 0.838498 0.500000 0.386724
O O6 0.769568 0.731309 0.431481
O O7 0.746551 0.731221 0.346690
O O8 0.000000 0.731054 0.383397
O O9 0.500000 0.653574 0.964681
O O10 0.730943 0.500000 0.956851
O O11 0.716352 0.706802 0.015276
O O12 0.500000 0.662032 0.806332
O O13 0.268984 0.500000 0.805461
O O14 0.753283 0.230894 0.095436
O O15 0.000000 0.189822 0.129507
O O16 0.791129 0.000000 0.140930
O O17 0.500000 0.306086 0.070608
O O18 0.705078 0.500000 0.073736
#
# Coordination Sequence:
#
# PCOD8307303 Si02
#       6
#     8   8   8   8   8   8
#     4   9  17  30  47  65  87 116 150 189 233 281
#     4   9  15  22  35  58  89 123 156 189 228 276
#     4   8  14  25  40  60  89 122 153 188 232 279
#     4   9  16  25  39  61  88 117 150 190 234 278
#     4  10  21  35  50  70  96 126 160 197 239 289
#     4   9  18  32  50  72  97 126 161 200 242 288
#
# _framework density 17.905411999999998
#
# number of rings (size 3 to 8) (size 9 to 14) (size 15 to 20)
#    0.000    3.000    0.000    2.500    0.000    6.667 
#    0.000    3.333    0.000    0.000    0.000    1.167 
#    0.000    6.667    0.000    0.000    0.000    0.000 
#
# Total GULP energy -595106.895180 kJ/mol
# GULP energy per Si atom -12398.060316 kJ/mol
# Density = 1.786466 g / cm^3
# Si number density = 17.905412 Si / 1000 Ang^3
#
#
#
# Elastic Constant Matrix: (Units=GPa)
#
#
# Indices 1 2 3 4 5 6 
#
# 1 73.5761 34.2320 69.2716 0.0000 0.0000 0.0000
# 2 34.2320 73.5761 69.2716 0.0000 0.0000 0.0000
# 3 69.2716 69.2716 178.8378 0.0000 0.0000 0.0000
# 4 0.0000 0.0000 0.0000 5.8250 0.0000 0.0000
# 5 0.0000 0.0000 0.0000 0.0000 5.8250 0.0000
# 6 0.0000 0.0000 0.0000 0.0000 0.0000 15.6182
#
#
#
# Elastic Compliance Matrix: (Units=1/GPa)
#
#
# Indices 1 2 3 4 5 6 
#
# 1 0.021943 -0.003474 -0.007154 0.000000 0.000000 0.000000
# 2 -0.003474 0.021943 -0.007154 0.000000 0.000000 0.000000
# 3 -0.007154 -0.007154 0.011134 0.000000 0.000000 0.000000
# 4 0.000000 0.000000 0.000000 0.171675 0.000000 0.000000
# 5 0.000000 0.000000 0.000000 0.000000 0.171675 0.000000
# 6 0.000000 0.000000 0.000000 0.000000 0.000000 0.064028
#
#
# Mechanical properties :
#
#
# Convention : Reuss Voigt Hill
#
# Bulk Modulus (GPa) = 51.39699 74.61561 63.00630
# Shear Modulus (GPa) = 9.91186 15.66795 12.78990
#
# Velocity S-wave (km/s) = 2.35535 2.96132 2.67555
# Velocity P-wave (km/s) = 6.01365 7.31130 6.69399
#
# Compressibility (1/GPa) = 0.01945639
#
# Stress axis : x y z
#
# Youngs Moduli (GPa) = 45.57270 45.57270 89.81752
#
# Poissons Ratio (x) = 0.15831 0.64255
# Poissons Ratio (y) = 0.15831 0.64255
# Poissons Ratio (z) = 0.32602 0.32602
#
# Static dielectric constant tensor:
#      x y z
#    x 3.102450 0.000000 0.000000 
#    y 0.000000 3.102450 0.000000 
#    z 0.000000 0.000000 3.542980 
# 
# 
# High freq. dielectric constant tensor:
#      x y z
#    x 1.662240 0.000000 0.000000 
#    y 0.000000 1.662240 0.000000 
#    z 0.000000 0.000000 1.710110 
# 
# From -- ./inp_files/4707.got.cif
#   From: 2010.03.12/outbox.cif.g09.slc.cpg/sg105_3_cif.got.tgz:4707.got - 2010.04.14 01:45:32.
