data_PCOD8307934
_publ_section_title
;
Structure prediction by ZEFSAII (Michael W. Deem and Ramdas Pophale) SiO2 
 PCOD8307934
Probable space group: I 41 M D
;
_chemical_formula_sum "Si O2"
_cell_formula_units_Z 64
_cell_length_a 25.977728
_cell_length_b 25.977728
_cell_length_c 4.959573
_cell_angle_alpha 90.000000
_cell_angle_beta 90.000000
_cell_angle_gamma 90.000000
_cell_volume 3346.929908
_symmetry_space_group_name_H-M "I 41 M D"
_symmetry_group_IT_number 109
_symmetry_cell_setting 'tetragonal'
loop_
_space_group_symop_operation_xyz
x,y,z
-y,1/2+x,1/4+z
-x,-y,z
y,1/2-x,1/4+z
-x,y,z
x,-y,z
-y,1/2-x,1/4+z
y,1/2+x,1/4+z
1/2+x,1/2+y,1/2+z
1/2-y,x,3/4+z
1/2-x,1/2-y,1/2+z
1/2+y,-x,3/4+z
1/2-x,1/2+y,1/2+z
1/2+x,1/2-y,1/2+z
1/2-y,-x,3/4+z
1/2+y,x,3/4+z
loop_
_atom_site_type_symbol
_atom_site_label
_atom_site_fract_x
_atom_site_fract_y
_atom_site_fract_z
Si Si1 0.808005 0.198762 0.299730
Si Si2 0.557762 0.710052 0.130693
Si Si3 0.058032 0.719337 0.146395
Si Si4 0.150520 0.150021 0.807020
O O1 0.813655 0.257636 0.376703
O O2 0.808195 0.167551 0.579968
O O3 0.851407 0.183189 0.082965
O O4 0.500000 0.689192 0.077503
O O5 0.558613 0.750530 0.369443
O O6 0.593713 0.659718 0.179985
O O7 0.579602 0.742014 0.875916
O O8 0.091505 0.666540 0.129227
O O9 0.000000 0.701978 0.221676
#
# Coordination Sequence:
#
# PCOD8307934 Si02
#       4
#    16  16  16  16
#     4  12  23  32  46  74 108 137 165 202 251 313
#     4  10  21  36  53  75 103 135 173 214 256 307
#     4  10  21  36  53  75 103 135 173 214 256 307
#     4  12  21  34  54  73 100 138 175 210 257 306
#
# _framework density 19.122001999999998
#
# number of rings (size 3 to 8) (size 9 to 14) (size 15 to 20)
#    0.000    1.000    0.000   10.500    0.000    0.000 
#    0.000    0.000    0.000    0.750    0.000    0.000 
#    0.000   16.000    0.000    0.000    0.000    4.000 
#
# Total GULP energy -396629.929543 kJ/mol
# GULP energy per Si atom -12394.685298 kJ/mol
# Density = 1.907848 g / cm^3
# Si number density = 19.122002 Si / 1000 Ang^3
#
#
#
# Elastic Constant Matrix: (Units=GPa)
#
#
# Indices 1 2 3 4 5 6 
#
# 1 89.7442 50.0392 17.3922 0.0000 0.0000 0.0000
# 2 50.0392 89.7442 17.3922 0.0000 0.0000 0.0000
# 3 17.3922 17.3922 115.0096 0.0000 0.0000 0.0000
# 4 0.0000 0.0000 0.0000 27.2485 0.0000 0.0000
# 5 0.0000 0.0000 0.0000 0.0000 27.2485 0.0000
# 6 0.0000 0.0000 0.0000 0.0000 0.0000 26.0842
#
#
#
# Elastic Compliance Matrix: (Units=1/GPa)
#
#
# Indices 1 2 3 4 5 6 
#
# 1 0.016310 -0.008876 -0.001124 0.000000 0.000000 0.000000
# 2 -0.008876 0.016310 -0.001124 0.000000 0.000000 0.000000
# 3 -0.001124 -0.001124 0.009035 0.000000 0.000000 0.000000
# 4 0.000000 0.000000 0.000000 0.036699 0.000000 0.000000
# 5 0.000000 0.000000 0.000000 0.000000 0.036699 0.000000
# 6 0.000000 0.000000 0.000000 0.000000 0.000000 0.038337
#
#
# Mechanical properties :
#
#
# Convention : Reuss Voigt Hill
#
# Bulk Modulus (GPa) = 51.53137 51.57170 51.55153
# Shear Modulus (GPa) = 27.45633 30.09455 28.77544
#
# Velocity S-wave (km/s) = 3.79337 3.97144 3.88343
# Velocity P-wave (km/s) = 6.79658 6.93240 6.86482
#
# Compressibility (1/GPa) = 0.01940566
#
# Stress axis : x y z
#
# Youngs Moduli (GPa) = 61.31324 61.31324 110.68165
#
# Poissons Ratio (x) = 0.54422 0.12442
# Poissons Ratio (y) = 0.54422 0.12442
# Poissons Ratio (z) = 0.06893 0.06893
#
# Static dielectric constant tensor:
#      x y z
#    x 3.476980 0.000000 0.000000 
#    y 0.000000 3.476980 0.000000 
#    z 0.000000 0.000000 3.975280 
# 
# 
# High freq. dielectric constant tensor:
#      x y z
#    x 1.715520 0.000000 0.000000 
#    y 0.000000 1.715520 0.000000 
#    z 0.000000 0.000000 1.780950 
# 
# From -- ./inp_files/488.got.cif
#   From: 2010.03.12/outbox.cif.g09.slc.cpg/sg109_1_cif.got.tgz:488.got - 2010.04.14 01:55:16.
