data_PCOD8307856
_publ_section_title
;
Structure prediction by ZEFSAII (Michael W. Deem and Ramdas Pophale) SiO2 
 PCOD8307856
Probable space group: I 41 M D
;
_chemical_formula_sum "Si O2"
_cell_formula_units_Z 128
_cell_length_a 17.526307
_cell_length_b 17.526307
_cell_length_c 23.982815
_cell_angle_alpha 90.000000
_cell_angle_beta 90.000000
_cell_angle_gamma 90.000000
_cell_volume 7366.835748
_symmetry_space_group_name_H-M "I 41 M D"
_symmetry_group_IT_number 109
_symmetry_cell_setting 'tetragonal'
loop_
_space_group_symop_operation_xyz
x,y,z
-y,1/2+x,1/4+z
-x,-y,z
y,1/2-x,1/4+z
-x,y,z
x,-y,z
-y,1/2-x,1/4+z
y,1/2+x,1/4+z
1/2+x,1/2+y,1/2+z
1/2-y,x,3/4+z
1/2-x,1/2-y,1/2+z
1/2+y,-x,3/4+z
1/2-x,1/2+y,1/2+z
1/2+x,1/2-y,1/2+z
1/2-y,-x,3/4+z
1/2+y,x,3/4+z
loop_
_atom_site_type_symbol
_atom_site_label
_atom_site_fract_x
_atom_site_fract_y
_atom_site_fract_z
Si Si1 0.175094 0.413936 0.894220
Si Si2 0.704906 0.586702 0.494234
Si Si3 0.585913 0.728974 0.866564
Si Si4 0.172963 0.701606 0.467468
Si Si5 0.085942 0.329277 0.576732
Si Si6 0.585610 0.227881 0.356387
Si Si7 0.825783 0.790371 0.753701
Si Si8 0.913329 0.791469 0.978014
O O1 0.142165 0.500000 0.896354
O O2 0.247454 0.409808 0.854665
O O3 0.112529 0.358474 0.867376
O O4 0.196876 0.389446 0.956726
O O5 0.700956 0.500000 0.472725
O O6 0.728040 0.591493 0.558424
O O7 0.767615 0.632298 0.457740
O O8 0.621891 0.624905 0.488215
O O9 0.500000 0.724443 0.889065
O O10 0.635222 0.778941 0.908834
O O11 0.615233 0.642406 0.860366
O O12 0.109116 0.677485 0.512043
O O13 0.217321 0.775563 0.488731
O O14 0.000000 0.362636 0.579839
O O15 0.500000 0.222670 0.333454
O O16 0.635873 0.273914 0.312539
O O17 0.590919 0.276101 0.412487
O O18 0.772896 0.865137 0.760763
O O19 0.000000 0.789758 0.000174
#
# Coordination Sequence:
#
# PCOD8307856 Si02
#       8
#    16  16  16  16  16  16  16  16
#     4  10  19  31  50  75 103 137 174 209 252 302
#     4   9  20  35  55  78 103 134 171 214 264 315
#     4  10  20  35  53  76 104 137 174 215 260 305
#     4  10  18  32  54  76 104 136 176 211 249 299
#     4  10  19  31  50  75 103 137 174 209 252 302
#     4  10  20  35  53  76 104 137 174 215 260 305
#     4  10  18  32  54  76 104 136 176 211 249 299
#     4   9  20  35  55  78 103 134 171 214 264 315
#
# _framework density 17.375167000000001
#
# number of rings (size 3 to 8) (size 9 to 14) (size 15 to 20)
#    0.000    2.250    2.500    0.750    0.000    0.750 
#    0.000    2.500    0.000    3.750    0.000    0.000 
#    0.000    0.000    0.000    0.000    0.000    0.000 
#
# Total GULP energy -793627.411849 kJ/mol
# GULP energy per Si atom -12400.428310 kJ/mol
# Density = 1.733562 g / cm^3
# Si number density = 17.375167 Si / 1000 Ang^3
#
#
#
# Elastic Constant Matrix: (Units=GPa)
#
#
# Indices 1 2 3 4 5 6 
#
# 1 115.5377 48.0296 33.8218 0.0000 0.0000 0.0000
# 2 48.0296 115.5377 33.8218 0.0000 0.0000 0.0000
# 3 33.8218 33.8218 50.4329 0.0000 0.0000 0.0000
# 4 0.0000 0.0000 0.0000 12.3895 0.0000 0.0000
# 5 0.0000 0.0000 0.0000 0.0000 12.3895 0.0000
# 6 0.0000 0.0000 0.0000 0.0000 0.0000 18.8678
#
#
#
# Elastic Compliance Matrix: (Units=1/GPa)
#
#
# Indices 1 2 3 4 5 6 
#
# 1 0.011637 -0.003177 -0.005673 0.000000 0.000000 0.000000
# 2 -0.003177 0.011637 -0.005673 0.000000 0.000000 0.000000
# 3 -0.005673 -0.005673 0.027438 0.000000 0.000000 0.000000
# 4 0.000000 0.000000 0.000000 0.080714 0.000000 0.000000
# 5 0.000000 0.000000 0.000000 0.000000 0.080714 0.000000
# 6 0.000000 0.000000 0.000000 0.000000 0.000000 0.053000
#
#
# Mechanical properties :
#
#
# Convention : Reuss Voigt Hill
#
# Bulk Modulus (GPa) = 46.15978 56.98385 51.57181
# Shear Modulus (GPa) = 16.58888 19.78504 18.18696
#
# Velocity S-wave (km/s) = 3.09325 3.37812 3.23882
# Velocity P-wave (km/s) = 6.27549 6.93418 6.61304
#
# Compressibility (1/GPa) = 0.02166388
#
# Stress axis : x y z
#
# Youngs Moduli (GPa) = 85.93647 85.93648 36.44591
#
# Poissons Ratio (x) = 0.27298 0.20678
# Poissons Ratio (y) = 0.27298 0.20678
# Poissons Ratio (z) = 0.48756 0.48756
#
# Static dielectric constant tensor:
#      x y z
#    x 3.387980 0.000000 0.000000 
#    y 0.000000 3.387980 0.000000 
#    z 0.000000 0.000000 3.121730 
# 
# 
# High freq. dielectric constant tensor:
#      x y z
#    x 1.671160 0.000000 0.000000 
#    y 0.000000 1.671160 0.000000 
#    z 0.000000 0.000000 1.665150 
# 
# From -- ./inp_files/4539.got.cif
#   From: 2010.03.12/outbox.cif.g09.slc.cpg/sg109_3_cif.got.tgz:4539.got - 2010.04.14 01:55:16.
