data_PCOD8307027
_publ_section_title
;
Structure prediction by ZEFSAII (Michael W. Deem and Ramdas Pophale) SiO2 
 PCOD8307027
Probable space group: P 4 C C
;
_chemical_formula_sum "Si O2"
_cell_formula_units_Z 40
_cell_length_a 11.103591
_cell_length_b 11.103591
_cell_length_c 15.003219
_cell_angle_alpha 90.000000
_cell_angle_beta 90.000000
_cell_angle_gamma 90.000000
_cell_volume 1849.742866
_symmetry_space_group_name_H-M "P 4 C C"
_symmetry_group_IT_number 103
_symmetry_cell_setting 'tetragonal'
loop_
_space_group_symop_operation_xyz
x,y,z
-y,x,z
-x,-y,z
y,-x,z
-x,y,1/2+z
x,-y,1/2+z
-y,-x,1/2+z
y,x,1/2+z
loop_
_atom_site_type_symbol
_atom_site_label
_atom_site_fract_x
_atom_site_fract_y
_atom_site_fract_z
Si Si1 0.303415 0.514291 0.317240
Si Si2 0.123169 0.443759 0.662484
Si Si3 0.933563 0.184065 0.212790
Si Si4 0.933564 0.815935 0.921697
Si Si5 0.123169 0.556239 0.471997
O O1 0.371852 0.389377 0.317239
O O2 0.227243 0.517387 0.228070
O O3 0.227247 0.517391 0.406412
O O4 0.109182 0.298949 0.655988
O O5 0.155538 0.499996 0.567240
O O6 0.000000 0.500000 0.699689
O O7 0.922579 0.215249 0.317243
O O8 0.071385 0.151662 0.188494
O O9 0.890820 0.701049 0.978498
O O10 0.071385 0.848339 0.945993
O O11 0.000000 0.500000 0.434789
#
# Coordination Sequence:
#
# PCOD8307027 Si02
#       5
#     8   8   8   8   8
#     4  11  27  48  72  97 132 188 232 283 339 390
#     4  11  25  43  68 103 136 180 232 276 344 405
#     4   9  19  38  71 108 138 173 219 284 359 415
#     4   9  19  38  71 108 138 173 219 284 359 415
#     4  11  25  43  68 103 136 180 232 276 344 405
#
# _framework density 21.624627
#
# number of rings (size 3 to 8) (size 9 to 14) (size 15 to 20)
#    0.000    1.800    2.000    1.800    5.600    1.600 
#    7.200    2.000    0.000    9.600    0.000    0.000 
#    0.000    0.000    0.000    0.000    0.000    0.000 
#
# Total GULP energy -496152.170343 kJ/mol
# GULP energy per Si atom -12403.804259 kJ/mol
# Density = 2.157541 g / cm^3
# Si number density = 21.624627 Si / 1000 Ang^3
#
#
#
# Elastic Constant Matrix: (Units=GPa)
#
#
# Indices 1 2 3 4 5 6 
#
# 1 153.4263 44.8099 102.3525 0.0000 0.0000 0.0000
# 2 44.8099 153.4263 102.3525 0.0000 0.0000 0.0000
# 3 102.3525 102.3525 134.1987 0.0000 0.0000 0.0000
# 4 0.0000 0.0000 0.0000 29.5238 0.0000 0.0000
# 5 0.0000 0.0000 0.0000 0.0000 29.5238 0.0000
# 6 0.0000 0.0000 0.0000 0.0000 0.0000 64.3816
#
#
#
# Elastic Compliance Matrix: (Units=1/GPa)
#
#
# Indices 1 2 3 4 5 6 
#
# 1 0.016477 0.007271 -0.018112 0.000000 0.000000 0.000000
# 2 0.007271 0.016477 -0.018112 0.000000 0.000000 0.000000
# 3 -0.018112 -0.018112 0.035080 0.000000 0.000000 0.000000
# 4 0.000000 0.000000 0.000000 0.033871 0.000000 0.000000
# 5 0.000000 0.000000 0.000000 0.000000 0.033871 0.000000
# 6 0.000000 0.000000 0.000000 0.000000 0.000000 0.015532
#
#
# Mechanical properties :
#
#
# Convention : Reuss Voigt Hill
#
# Bulk Modulus (GPa) = 98.75249 104.45348 101.60298
# Shear Modulus (GPa) = 23.51911 37.45493 30.48702
#
# Velocity S-wave (km/s) = 3.30147 4.16631 3.75884
# Velocity P-wave (km/s) = 7.76523 8.45884 8.11944
#
# Compressibility (1/GPa) = 0.01012633
#
# Stress axis : x y z
#
# Youngs Moduli (GPa) = 60.68941 60.68941 28.50616
#
# Poissons Ratio (x) = -0.44125 0.51632
# Poissons Ratio (y) = -0.44125 0.51632
# Poissons Ratio (z) = 1.09923 1.09923
#
# Static dielectric constant tensor:
#      x y z
#    x 4.027260 0.000000 0.000000 
#    y 0.000000 4.027260 0.000000 
#    z 0.000000 0.000000 3.677770 
# 
# 
# High freq. dielectric constant tensor:
#      x y z
#    x 1.858500 0.000000 0.000000 
#    y 0.000000 1.858500 0.000000 
#    z 0.000000 0.000000 1.844280 
# 
# From -- ./inp_files/813.got.cif
#   From: 2010.03.12/outbox.cif.g09.slc.cpg/sg103_cif.got.tgz:813.got - 2010.04.14 01:42:52.
