data_PCOD8307188
_publ_section_title
;
Structure prediction by ZEFSAII (Michael W. Deem and Ramdas Pophale) SiO2 
 PCOD8307188
Probable space group: P 42 M C
;
_chemical_formula_sum "Si O2"
_cell_formula_units_Z 48
_cell_length_a 9.197368
_cell_length_b 9.197368
_cell_length_c 31.095301
_cell_angle_alpha 90.000000
_cell_angle_beta 90.000000
_cell_angle_gamma 90.000000
_cell_volume 2630.400584
_symmetry_space_group_name_H-M "P 42 M C"
_symmetry_group_IT_number 105
_symmetry_cell_setting 'tetragonal'
loop_
_space_group_symop_operation_xyz
x,y,z
-y,x,1/2+z
-x,-y,z
y,-x,1/2+z
-x,y,z
x,-y,z
-y,-x,1/2+z
y,x,1/2+z
loop_
_atom_site_type_symbol
_atom_site_label
_atom_site_fract_x
_atom_site_fract_y
_atom_site_fract_z
Si Si1 0.672377 0.838968 0.810820
Si Si2 0.831413 0.669976 0.641219
Si Si3 0.835624 0.326611 0.474322
Si Si4 0.663234 0.326501 0.391487
Si Si5 0.827897 0.334847 0.214945
Si Si6 0.335600 0.673124 0.557124
O O1 0.500000 0.848817 0.814536
O O2 0.734983 0.731431 0.847176
O O3 0.713027 0.781964 0.763218
O O4 0.737837 0.000000 0.818537
O O5 0.803502 0.500000 0.647820
O O6 0.776110 0.751336 0.683210
O O7 0.744588 0.729505 0.599877
O O8 0.000000 0.704740 0.633941
O O9 0.836000 0.500000 0.474785
O O10 0.756831 0.267821 0.431550
O O11 0.749501 0.265745 0.515673
O O12 0.000000 0.266654 0.475317
O O13 0.500000 0.265928 0.395625
O O14 0.662861 0.500000 0.391339
O O15 0.776221 0.500000 0.205486
O O16 0.000000 0.323655 0.209675
O O17 0.500000 0.733541 0.556681
O O18 0.335194 0.500000 0.556010
#
# Coordination Sequence:
#
# PCOD8307188 Si02
#       6
#     8   8   8   8   8   8
#     4   8  14  25  39  55  78 108 141 179 225 275
#     4  10  20  32  46  66  92 121 154 192 235 285
#     4   9  15  22  33  50  77 115 154 190 231 279
#     4   9  15  21  31  51  79 111 148 187 226 272
#     4   9  18  32  49  68  90 118 153 192 235 284
#     4   9  16  26  40  58  82 114 152 193 236 282
#
# _framework density 18.248170999999999
#
# number of rings (size 3 to 8) (size 9 to 14) (size 15 to 20)
#    0.000    3.000    0.000    3.000    0.000    8.000 
#    0.000    1.667    0.000    0.000    0.000    0.000 
#    0.000    1.333    0.000    9.667    0.000   14.667 
#
# Total GULP energy -595071.167336 kJ/mol
# GULP energy per Si atom -12397.315986 kJ/mol
# Density = 1.820664 g / cm^3
# Si number density = 18.248171 Si / 1000 Ang^3
#
#
#
# Elastic Constant Matrix: (Units=GPa)
#
#
# Indices 1 2 3 4 5 6 
#
# 1 74.6705 25.3237 59.4932 0.0000 0.0000 0.0000
# 2 25.3237 74.6705 59.4932 0.0000 0.0000 0.0000
# 3 59.4932 59.4932 180.0914 0.0000 0.0000 0.0000
# 4 0.0000 0.0000 0.0000 7.6512 0.0000 0.0000
# 5 0.0000 0.0000 0.0000 0.0000 7.6512 0.0000
# 6 0.0000 0.0000 0.0000 0.0000 0.0000 12.3288
#
#
#
# Elastic Compliance Matrix: (Units=1/GPa)
#
#
# Indices 1 2 3 4 5 6 
#
# 1 0.018371 -0.001893 -0.005443 0.000000 0.000000 0.000000
# 2 -0.001893 0.018371 -0.005443 0.000000 0.000000 0.000000
# 3 -0.005443 -0.005443 0.009149 0.000000 0.000000 0.000000
# 4 0.000000 0.000000 0.000000 0.130699 0.000000 0.000000
# 5 0.000000 0.000000 0.000000 0.000000 0.130699 0.000000
# 6 0.000000 0.000000 0.000000 0.000000 0.000000 0.081111
#
#
# Mechanical properties :
#
#
# Convention : Reuss Voigt Hill
#
# Bulk Modulus (GPa) = 49.18542 68.67248 58.92895
# Shear Modulus (GPa) = 11.88389 17.86773 14.87581
#
# Velocity S-wave (km/s) = 2.55470 3.13254 2.85826
# Velocity P-wave (km/s) = 5.97613 7.12727 6.57693
#
# Compressibility (1/GPa) = 0.02033123
#
# Stress axis : x y z
#
# Youngs Moduli (GPa) = 54.43253 54.43253 109.29856
#
# Poissons Ratio (x) = 0.10306 0.59497
# Poissons Ratio (y) = 0.10306 0.59497
# Poissons Ratio (z) = 0.29630 0.29630
#
# Static dielectric constant tensor:
#      x y z
#    x 3.071260 0.000000 0.000000 
#    y 0.000000 3.071260 0.000000 
#    z 0.000000 0.000000 3.637850 
# 
# 
# High freq. dielectric constant tensor:
#      x y z
#    x 1.668430 0.000000 0.000000 
#    y 0.000000 1.668430 0.000000 
#    z 0.000000 0.000000 1.727120 
# 
# From -- ./inp_files/4723.got.cif
#   From: 2010.03.12/outbox.cif.g09.slc.cpg/sg105_3_cif.got.tgz:4723.got - 2010.04.14 01:45:32.
