data_PCOD8307743
_publ_section_title
;
Structure prediction by ZEFSAII (Michael W. Deem and Ramdas Pophale) SiO2 
 PCOD8307743
Probable space group: I 4 C M
;
_chemical_formula_sum "Si O2"
_cell_formula_units_Z 72
_cell_length_a 27.092958
_cell_length_b 27.092958
_cell_length_c 5.108056
_cell_angle_alpha 90.000000
_cell_angle_beta 90.000000
_cell_angle_gamma 90.000000
_cell_volume 3749.458036
_symmetry_space_group_name_H-M "I 4 C M"
_symmetry_group_IT_number 108
_symmetry_cell_setting 'tetragonal'
loop_
_space_group_symop_operation_xyz
x,y,z
-y,x,z
-x,-y,z
y,-x,z
-x,y,1/2+z
x,-y,1/2+z
-y,-x,1/2+z
y,x,1/2+z
1/2+x,1/2+y,1/2+z
1/2-y,1/2+x,1/2+z
1/2-x,1/2-y,1/2+z
1/2+y,1/2-x,1/2+z
1/2-x,1/2+y,z
1/2+x,1/2-y,z
1/2-y,1/2-x,z
1/2+y,1/2+x,z
loop_
_atom_site_type_symbol
_atom_site_label
_atom_site_fract_x
_atom_site_fract_y
_atom_site_fract_z
Si Si1 0.172935 0.025914 0.540610
Si Si2 0.027000 0.289300 0.106406
Si Si3 0.783687 0.361046 0.614819
Si Si4 0.225932 0.274069 0.446369
Si Si5 0.865230 0.179421 0.391390
O O1 0.231109 0.019938 0.578981
O O2 0.158622 0.080408 0.448594
O O3 0.150675 0.988101 0.324003
O O4 0.992490 0.312249 0.334275
O O5 0.083799 0.302760 0.173163
O O6 0.828934 0.328934 0.490414
O O7 0.764455 0.332318 0.879269
O O8 0.738462 0.363248 0.413911
O O9 0.241027 0.258973 0.739305
O O10 0.829903 0.151859 0.596182
#
# Coordination Sequence:
#
# PCOD8307743 Si02
#       5
#    16  16  16   8  16
#     4   9  17  31  48  65  90 126 164 205 248 284
#     4   9  18  33  50  69  92 127 173 216 250 280
#     4   9  21  35  50  74 104 144 170 205 242 304
#     4  10  20  32  46  68 104 142 173 194 231 298
#     4  11  21  32  48  73 103 133 166 202 240 295
#
# _framework density 19.202774999999999
#
# number of rings (size 3 to 8) (size 9 to 14) (size 15 to 20)
#    0.667    1.778    0.000    2.667    0.000    7.111 
#    0.000    0.000    0.000    0.000    0.000    0.000 
#    0.000   33.778    0.000    0.000    0.000    0.000 
#
# Total GULP energy -445984.715112 kJ/mol
# GULP energy per Si atom -12388.464309 kJ/mol
# Density = 1.915907 g / cm^3
# Si number density = 19.202775 Si / 1000 Ang^3
#
#
#
# Elastic Constant Matrix: (Units=GPa)
#
#
# Indices 1 2 3 4 5 6 
#
# 1 98.9922 6.0427 18.9154 0.0000 0.0000 -0.0002
# 2 6.0427 98.9922 18.9154 0.0000 0.0000 0.0002
# 3 18.9154 18.9154 85.8143 0.0000 0.0000 0.0000
# 4 0.0000 0.0000 0.0000 9.5322 0.0000 0.0000
# 5 0.0000 0.0000 0.0000 0.0000 9.5322 0.0000
# 6 -0.0002 0.0002 0.0000 0.0000 0.0000 4.5885
#
#
#
# Elastic Compliance Matrix: (Units=1/GPa)
#
#
# Indices 1 2 3 4 5 6 
#
# 1 0.010550 -0.000208 -0.002280 0.000000 0.000000 0.000000
# 2 -0.000208 0.010550 -0.002280 0.000000 0.000000 0.000000
# 3 -0.002280 -0.002280 0.012658 0.000000 0.000000 0.000000
# 4 0.000000 0.000000 0.000000 0.104907 0.000000 0.000000
# 5 0.000000 0.000000 0.000000 0.000000 0.104907 0.000000
# 6 0.000000 0.000000 0.000000 0.000000 0.000000 0.217935
#
#
# Mechanical properties :
#
#
# Convention : Reuss Voigt Hill
#
# Bulk Modulus (GPa) = 41.28274 41.28284 41.28279
# Shear Modulus (GPa) = 10.43587 20.72561 15.58074
#
# Velocity S-wave (km/s) = 2.33374 3.28884 2.85156
# Velocity P-wave (km/s) = 5.36720 5.99725 5.69095
#
# Compressibility (1/GPa) = 0.02422320
#
# Stress axis : x y z
#
# Youngs Moduli (GPa) = 94.78580 94.78580 79.00144
#
# Poissons Ratio (x) = 0.01976 0.18009
# Poissons Ratio (y) = 0.01976 0.18009
# Poissons Ratio (z) = 0.21607 0.21607
#
# Static dielectric constant tensor:
#      x y z
#    x 3.359160 0.000000 0.000000 
#    y 0.000000 3.359160 0.000000 
#    z 0.000000 0.000000 3.644800 
# 
# 
# High freq. dielectric constant tensor:
#      x y z
#    x 1.709050 0.000000 0.000000 
#    y 0.000000 1.709050 0.000000 
#    z 0.000000 0.000000 1.756960 
# 
# From -- ./inp_files/151.got.cif
#   From: 2010.03.12/outbox.cif.g09.slc.cpg/sg108_1_cif.got.tgz:151.got - 2010.04.14 01:53:11.
