data_PCOD8307236
_publ_section_title
;
Structure prediction by ZEFSAII (Michael W. Deem and Ramdas Pophale) SiO2 
 PCOD8307236
Probable space group: P 42 M C
;
_chemical_formula_sum "Si O2"
_cell_formula_units_Z 48
_cell_length_a 8.171133
_cell_length_b 8.171133
_cell_length_c 34.229039
_cell_angle_alpha 90.000000
_cell_angle_beta 90.000000
_cell_angle_gamma 90.000000
_cell_volume 2285.384435
_symmetry_space_group_name_H-M "P 42 M C"
_symmetry_group_IT_number 105
_symmetry_cell_setting 'tetragonal'
loop_
_space_group_symop_operation_xyz
x,y,z
-y,x,1/2+z
-x,-y,z
y,-x,1/2+z
-x,y,z
x,-y,z
-y,-x,1/2+z
y,x,1/2+z
loop_
_atom_site_type_symbol
_atom_site_label
_atom_site_fract_x
_atom_site_fract_y
_atom_site_fract_z
Si Si1 0.316735 0.308855 0.064470
Si Si2 0.690454 0.000000 0.194010
Si Si3 0.000000 0.303789 0.781485
Si Si4 0.685534 0.811475 0.647453
Si Si5 0.679714 0.309038 0.825447
Si Si6 0.808022 0.317263 0.483657
Si Si7 0.193357 0.816121 0.402910
O O1 0.500000 0.236306 0.070213
O O2 0.323754 0.500000 0.058872
O O3 0.211650 0.262085 0.102392
O O4 0.232890 0.236504 0.025171
O O5 0.735926 0.829779 0.173218
O O6 0.500000 0.000000 0.198414
O O7 0.765915 0.000000 0.237452
O O8 0.165600 0.231985 0.801966
O O9 0.000000 0.500000 0.783866
O O10 0.500000 0.736613 0.654964
O O11 0.678194 0.000000 0.657669
O O12 0.500000 0.238655 0.812233
O O13 0.679238 0.500000 0.817430
O O14 0.697322 0.275504 0.871527
O O15 0.733093 0.500000 0.483722
O O16 0.736359 0.221498 0.446280
O O17 0.000000 0.322317 0.479132
O O18 0.000000 0.789893 0.401533
O O19 0.243619 0.000000 0.392077
#
# Coordination Sequence:
#
# PCOD8307236 Si02
#       7
#     8   4   4   8   8   8   8
#     4   9  18  33  53  78 109 147 195 244 287 340
#     4  11  23  39  65  93 117 153 199 247 303 365
#     4   9  20  39  59  87 119 143 185 243 291 349
#     4  10  22  40  60  86 122 159 196 243 300 364
#     4  10  20  36  60  85 111 147 187 232 291 350
#     4   9  18  31  47  71 106 146 189 237 284 335
#     4  10  20  34  52  77 111 151 194 236 281 338
#
# _framework density 21.003032000000001
#
# number of rings (size 3 to 8) (size 9 to 14) (size 15 to 20)
#    0.000    2.333    0.833    1.250    1.167    4.000 
#    0.000    5.000    0.000    0.000    0.000    0.000 
#    0.000    0.000    0.000    0.000    0.000    0.000 
#
# Total GULP energy -594798.312249 kJ/mol
# GULP energy per Si atom -12391.631505 kJ/mol
# Density = 2.095523 g / cm^3
# Si number density = 21.003032 Si / 1000 Ang^3
#
#
#
# Elastic Constant Matrix: (Units=GPa)
#
#
# Indices 1 2 3 4 5 6 
#
# 1 74.7802 26.2118 44.1337 0.0000 0.0000 0.0000
# 2 26.2118 74.7802 44.1337 0.0000 0.0000 0.0000
# 3 44.1337 44.1337 151.2735 0.0000 0.0000 0.0000
# 4 0.0000 0.0000 0.0000 8.6685 0.0000 0.0000
# 5 0.0000 0.0000 0.0000 0.0000 8.6685 0.0000
# 6 0.0000 0.0000 0.0000 0.0000 0.0000 18.8596
#
#
#
# Elastic Compliance Matrix: (Units=1/GPa)
#
#
# Indices 1 2 3 4 5 6 
#
# 1 0.016940 -0.003649 -0.003878 0.000000 0.000000 0.000000
# 2 -0.003649 0.016940 -0.003878 0.000000 0.000000 0.000000
# 3 -0.003878 -0.003878 0.008873 0.000000 0.000000 0.000000
# 4 0.000000 0.000000 0.000000 0.115361 0.000000 0.000000
# 5 0.000000 0.000000 0.000000 0.000000 0.115361 0.000000
# 6 0.000000 0.000000 0.000000 0.000000 0.000000 0.053024
#
#
# Mechanical properties :
#
#
# Convention : Reuss Voigt Hill
#
# Bulk Modulus (GPa) = 50.13936 58.86579 54.50257
# Shear Modulus (GPa) = 14.04672 19.66296 16.85484
#
# Velocity S-wave (km/s) = 2.58891 3.06305 2.83591
# Velocity P-wave (km/s) = 5.73244 6.37164 6.06048
#
# Compressibility (1/GPa) = 0.01994441
#
# Stress axis : x y z
#
# Youngs Moduli (GPa) = 59.03143 59.03143 112.70055
#
# Poissons Ratio (x) = 0.21543 0.43700
# Poissons Ratio (y) = 0.21543 0.43700
# Poissons Ratio (z) = 0.22890 0.22890
#
# Static dielectric constant tensor:
#      x y z
#    x 3.925170 0.000000 0.000000 
#    y 0.000000 3.925170 0.000000 
#    z 0.000000 0.000000 4.012150 
# 
# 
# High freq. dielectric constant tensor:
#      x y z
#    x 1.808840 0.000000 0.000000 
#    y 0.000000 1.808840 0.000000 
#    z 0.000000 0.000000 1.825950 
# 
# From -- ./inp_files/4784.got.cif
#   From: 2010.03.12/outbox.cif.g09.slc.cpg/sg105_3_cif.got.tgz:4784.got - 2010.04.14 01:45:32.
