data_PCOD8307475
_publ_section_title
;
Structure prediction by ZEFSAII (Michael W. Deem and Ramdas Pophale) SiO2 
 PCOD8307475
Probable space group: I 4 M M
;
_chemical_formula_sum "Si O2"
_cell_formula_units_Z 80
_cell_length_a 17.585303
_cell_length_b 17.585303
_cell_length_c 18.307568
_cell_angle_alpha 90.000000
_cell_angle_beta 90.000000
_cell_angle_gamma 90.000000
_cell_volume 5661.485083
_symmetry_space_group_name_H-M "I 4 M M"
_symmetry_group_IT_number 107
_symmetry_cell_setting 'tetragonal'
loop_
_space_group_symop_operation_xyz
x,y,z
-y,x,z
-x,-y,z
y,-x,z
-x,y,z
x,-y,z
-y,-x,z
y,x,z
1/2+x,1/2+y,1/2+z
1/2-y,1/2+x,1/2+z
1/2-x,1/2-y,1/2+z
1/2+y,1/2-x,1/2+z
1/2-x,1/2+y,1/2+z
1/2+x,1/2-y,1/2+z
1/2-y,1/2-x,1/2+z
1/2+y,1/2+x,1/2+z
loop_
_atom_site_type_symbol
_atom_site_label
_atom_site_fract_x
_atom_site_fract_y
_atom_site_fract_z
Si Si1 0.000000 0.590199 0.045360
Si Si2 0.089649 0.358167 0.451472
Si Si3 0.589649 0.858169 0.301227
Si Si4 0.913098 0.210349 0.542600
Si Si5 0.090198 0.500000 0.707336
Si Si6 0.789651 0.913098 0.710103
O O1 0.000000 0.625970 0.126348
O O2 0.000000 0.500000 0.050663
O O3 0.074770 0.618754 0.003819
O O4 0.136247 0.363750 0.376349
O O5 0.110041 0.279234 0.490100
O O6 0.000000 0.366489 0.435334
O O7 0.500000 0.866493 0.317369
O O8 0.618753 0.925230 0.248878
O O9 0.610038 0.779235 0.262602
O O10 0.861831 0.138170 0.522666
O O11 0.901191 0.236583 0.626351
O O12 0.000000 0.185874 0.529266
O O13 0.000000 0.500000 0.702032
O O14 0.861830 0.861830 0.730038
O O15 0.814128 0.000000 0.723435
#
# Coordination Sequence:
#
# PCOD8307475 Si02
#       6
#     8  16  16  16   8  16
#     4   9  16  24  38  58  82 114 145 170 197 235
#     4  10  17  26  41  61  86 112 140 171 202 240
#     4  10  17  26  41  61  86 112 140 171 202 240
#     4   9  18  31  45  61  82 108 140 176 211 249
#     4   9  16  24  38  58  82 114 145 170 197 235
#     4   9  18  31  45  61  82 108 140 176 211 249
#
# _framework density 14.130568
#
# number of rings (size 3 to 8) (size 9 to 14) (size 15 to 20)
#    0.000    2.600    2.000    1.200    0.000    6.000 
#    0.000    2.000    0.000    0.000    0.000    0.000 
#    0.000    0.000    0.000    0.000    0.000    2.000 
#
# Total GULP energy -495992.994439 kJ/mol
# GULP energy per Si atom -12399.824861 kJ/mol
# Density = 1.409841 g / cm^3
# Si number density = 14.130568 Si / 1000 Ang^3
#
#
#
# Elastic Constant Matrix: (Units=GPa)
#
#
# Indices 1 2 3 4 5 6 
#
# 1 79.5507 54.1572 56.3750 0.0000 0.0000 -0.0003
# 2 54.1572 79.5507 56.3750 0.0000 0.0000 0.0003
# 3 56.3750 56.3750 118.4713 0.0000 0.0000 0.0000
# 4 0.0000 0.0000 0.0000 18.8649 0.0000 0.0000
# 5 0.0000 0.0000 0.0000 0.0000 18.8649 0.0000
# 6 -0.0003 0.0003 0.0000 0.0000 0.0000 16.4583
#
#
#
# Elastic Compliance Matrix: (Units=1/GPa)
#
#
# Indices 1 2 3 4 5 6 
#
# 1 0.025936 -0.013444 -0.005944 0.000000 0.000000 0.000001
# 2 -0.013444 0.025936 -0.005944 0.000000 0.000000 -0.000001
# 3 -0.005944 -0.005944 0.014098 0.000000 0.000000 0.000000
# 4 0.000000 0.000000 0.000000 0.053009 0.000000 0.000000
# 5 0.000000 0.000000 0.000000 0.000000 0.053009 0.000000
# 6 0.000001 -0.000001 0.000000 0.000000 0.000000 0.060760
#
#
# Mechanical properties :
#
#
# Convention : Reuss Voigt Hill
#
# Bulk Modulus (GPa) = 65.34093 67.93190 66.63641
# Shear Modulus (GPa) = 17.33026 18.21531 17.77278
#
# Velocity S-wave (km/s) = 3.50585 3.59426 3.55033
# Velocity P-wave (km/s) = 7.92018 8.08726 8.00415
#
# Compressibility (1/GPa) = 0.01530434
#
# Stress axis : x y z
#
# Youngs Moduli (GPa) = 38.55686 38.55686 70.93276
#
# Poissons Ratio (x) = 0.51837 0.42163
# Poissons Ratio (y) = 0.51837 0.42163
# Poissons Ratio (z) = 0.22918 0.22918
#
# Static dielectric constant tensor:
#      x y z
#    x 2.595420 0.000000 0.000000 
#    y 0.000000 2.595420 0.000000 
#    z 0.000000 0.000000 2.865820 
# 
# 
# High freq. dielectric constant tensor:
#      x y z
#    x 1.517490 0.000000 0.000000 
#    y 0.000000 1.517490 0.000000 
#    z 0.000000 0.000000 1.547180 
# 
# From -- ./inp_files/3087.got.cif
#   From: 2010.03.12/outbox.cif.g09.slc.cpg/sg107_2_cif.got.tgz:3087.got - 2010.04.14 01:49:11.
