data_PCOD8307986
_publ_section_title
;
Structure prediction by ZEFSAII (Michael W. Deem and Ramdas Pophale) SiO2 
 PCOD8307986
Probable space group: I 41 M D
;
_chemical_formula_sum "Si O2"
_cell_formula_units_Z 96
_cell_length_a 23.359747
_cell_length_b 23.359747
_cell_length_c 8.590810
_cell_angle_alpha 90.000000
_cell_angle_beta 90.000000
_cell_angle_gamma 90.000000
_cell_volume 4687.814128
_symmetry_space_group_name_H-M "I 41 M D"
_symmetry_group_IT_number 109
_symmetry_cell_setting 'tetragonal'
loop_
_space_group_symop_operation_xyz
x,y,z
-y,1/2+x,1/4+z
-x,-y,z
y,1/2-x,1/4+z
-x,y,z
x,-y,z
-y,1/2-x,1/4+z
y,1/2+x,1/4+z
1/2+x,1/2+y,1/2+z
1/2-y,x,3/4+z
1/2-x,1/2-y,1/2+z
1/2+y,-x,3/4+z
1/2-x,1/2+y,1/2+z
1/2+x,1/2-y,1/2+z
1/2-y,-x,3/4+z
1/2+y,x,3/4+z
loop_
_atom_site_type_symbol
_atom_site_label
_atom_site_fract_x
_atom_site_fract_y
_atom_site_fract_z
Si Si1 0.357216 0.737036 0.163900
Si Si2 0.660261 0.567133 0.448692
Si Si3 0.656464 0.156464 0.953978
Si Si4 0.660261 0.067133 0.209264
Si Si5 0.434831 0.065169 0.453978
Si Si6 0.262964 0.357216 0.244056
O O1 0.303989 0.696011 0.203978
O O2 0.387345 0.750000 0.328978
O O3 0.334274 0.795024 0.084429
O O4 0.406292 0.712395 0.054587
O O5 0.670134 0.500000 0.470637
O O6 0.658864 0.595144 0.619131
O O7 0.602321 0.581654 0.354474
O O8 0.712395 0.593708 0.353369
O O9 0.704976 0.165726 0.823527
O O10 0.658864 0.095144 0.038825
O O11 0.602321 0.081653 0.303481
O O12 0.670134 0.000000 0.187318
O O13 0.500000 0.076255 0.403609
O O14 0.423745 0.000000 0.504348
#
# Coordination Sequence:
#
# PCOD8307986 Si02
#       6
#    16  16  16  16  16  16
#     4  12  25  41  66  95 126 169 217 263 316 381
#     4  11  24  43  65  96 133 169 212 268 326 376
#     4  12  26  40  63  95 131 168 214 261 320 384
#     4  11  24  43  65  96 133 169 212 268 326 376
#     4   9  18  38  67  94 127 174 224 265 310 377
#     4  12  25  41  66  95 126 169 217 263 316 381
#
# _framework density 20.478629000000002
#
# number of rings (size 3 to 8) (size 9 to 14) (size 15 to 20)
#    0.000    0.833    5.000    1.000    2.333    4.667 
#    0.000    0.000    0.000    0.000    0.000    0.000 
#    0.000    0.000    0.000    0.000    0.000    0.000 
#
# Total GULP energy -595335.894444 kJ/mol
# GULP energy per Si atom -12402.831134 kJ/mol
# Density = 2.043202 g / cm^3
# Si number density = 20.478629 Si / 1000 Ang^3
#
#
#
# Elastic Constant Matrix: (Units=GPa)
#
#
# Indices 1 2 3 4 5 6 
#
# 1 99.6214 49.0967 49.1552 0.0000 0.0000 0.0000
# 2 49.0967 99.6214 49.1552 0.0000 0.0000 0.0000
# 3 49.1552 49.1552 144.4227 0.0000 0.0000 0.0000
# 4 0.0000 0.0000 0.0000 23.7813 0.0000 0.0000
# 5 0.0000 0.0000 0.0000 0.0000 23.7813 0.0000
# 6 0.0000 0.0000 0.0000 0.0000 0.0000 24.2425
#
#
#
# Elastic Compliance Matrix: (Units=1/GPa)
#
#
# Indices 1 2 3 4 5 6 
#
# 1 0.014234 -0.005558 -0.002953 0.000000 0.000000 0.000000
# 2 -0.005558 0.014234 -0.002953 0.000000 0.000000 0.000000
# 3 -0.002953 -0.002953 0.008934 0.000000 0.000000 0.000000
# 4 0.000000 0.000000 0.000000 0.042050 0.000000 0.000000
# 5 0.000000 0.000000 0.000000 0.000000 0.042050 0.000000
# 6 0.000000 0.000000 0.000000 0.000000 0.000000 0.041250
#
#
# Mechanical properties :
#
#
# Convention : Reuss Voigt Hill
#
# Bulk Modulus (GPa) = 69.08615 70.94219 70.01417
# Shear Modulus (GPa) = 26.24601 27.44495 26.84548
#
# Velocity S-wave (km/s) = 3.58387 3.66481 3.62457
# Velocity P-wave (km/s) = 7.13684 7.25431 7.19582
#
# Compressibility (1/GPa) = 0.01447468
#
# Stress axis : x y z
#
# Youngs Moduli (GPa) = 70.25308 70.25308 111.92864
#
# Poissons Ratio (x) = 0.39047 0.33053
# Poissons Ratio (y) = 0.39047 0.33053
# Poissons Ratio (z) = 0.20746 0.20746
#
# Static dielectric constant tensor:
#      x y z
#    x 3.757650 0.000000 0.000000 
#    y 0.000000 3.757650 0.000000 
#    z 0.000000 0.000000 4.055660 
# 
# 
# High freq. dielectric constant tensor:
#      x y z
#    x 1.801600 0.000000 0.000000 
#    y 0.000000 1.801600 0.000000 
#    z 0.000000 0.000000 1.812780 
# 
# From -- ./inp_files/1436.got.cif
#   From: 2010.03.12/outbox.cif.g09.slc.cpg/sg109_1_cif.got.tgz:1436.got - 2010.04.14 01:55:16.
