data_PCOD8307578
_publ_section_title
;
Structure prediction by ZEFSAII (Michael W. Deem and Ramdas Pophale) SiO2 
 PCOD8307578
Probable space group: I 4 M M
;
_chemical_formula_sum "Si O2"
_cell_formula_units_Z 80
_cell_length_a 12.711630
_cell_length_b 12.711630
_cell_length_c 29.259738
_cell_angle_alpha 90.000000
_cell_angle_beta 90.000000
_cell_angle_gamma 90.000000
_cell_volume 4727.950485
_symmetry_space_group_name_H-M "I 4 M M"
_symmetry_group_IT_number 107
_symmetry_cell_setting 'tetragonal'
loop_
_space_group_symop_operation_xyz
x,y,z
-y,x,z
-x,-y,z
y,-x,z
-x,y,z
x,-y,z
-y,-x,z
y,x,z
1/2+x,1/2+y,1/2+z
1/2-y,1/2+x,1/2+z
1/2-x,1/2-y,1/2+z
1/2+y,1/2-x,1/2+z
1/2-x,1/2+y,1/2+z
1/2+x,1/2-y,1/2+z
1/2-y,1/2-x,1/2+z
1/2+y,1/2+x,1/2+z
loop_
_atom_site_type_symbol
_atom_site_label
_atom_site_fract_x
_atom_site_fract_y
_atom_site_fract_z
Si Si1 0.624827 0.000000 0.370330
Si Si2 0.616045 0.877577 0.120631
Si Si3 0.624246 0.791431 0.526293
Si Si4 0.120338 0.715622 0.712757
Si Si5 0.624464 0.000000 0.473053
Si Si6 0.797612 0.376473 0.314452
O O1 0.664156 0.106155 0.345512
O O2 0.500000 0.000000 0.369515
O O3 0.670198 0.000000 0.421678
O O4 0.500000 0.825379 0.114650
O O5 0.691377 0.843947 0.079232
O O6 0.667571 0.850077 0.170039
O O7 0.599937 0.000000 0.118058
O O8 0.500000 0.768920 0.519388
O O9 0.690116 0.690116 0.508756
O O10 0.662047 0.894546 0.498622
O O11 0.169219 0.830782 0.713416
O O12 0.139748 0.661912 0.762129
O O13 0.000000 0.732763 0.703126
O O14 0.500000 0.000000 0.472112
O O15 0.769622 0.500000 0.323223
O O16 0.694196 0.305805 0.325118
#
# Coordination Sequence:
#
# PCOD8307578 Si02
#       6
#     8  16  16  16   8  16
#     4   9  18  32  52  71  95 125 163 208 239 283
#     4   9  16  27  45  68  94 127 166 204 241 283
#     4  10  19  32  51  74 101 129 162 203 246 297
#     4   9  17  27  41  64  94 127 160 196 240 288
#     4   9  18  34  52  71  93 127 167 200 239 289
#     4   9  18  31  48  73 102 130 163 203 248 297
#
# _framework density 16.920649999999998
#
# number of rings (size 3 to 8) (size 9 to 14) (size 15 to 20)
#    0.000    2.800    1.000    0.600    1.400    1.400 
#    0.000    2.000    0.000    0.600    0.000    7.000 
#    0.000    0.000    0.000    0.000    0.000    0.000 
#
# Total GULP energy -495563.261961 kJ/mol
# GULP energy per Si atom -12389.081549 kJ/mol
# Density = 1.688214 g / cm^3
# Si number density = 16.920650 Si / 1000 Ang^3
#
#
#
# Elastic Constant Matrix: (Units=GPa)
#
#
# Indices 1 2 3 4 5 6 
#
# 1 75.8580 40.5933 43.7225 0.0000 0.0000 0.0000
# 2 40.5933 75.8580 43.7225 0.0000 0.0000 0.0000
# 3 43.7225 43.7225 126.8138 0.0000 0.0000 0.0000
# 4 0.0000 0.0000 0.0000 19.2363 0.0000 0.0000
# 5 0.0000 0.0000 0.0000 0.0000 19.2363 0.0000
# 6 0.0000 0.0000 0.0000 0.0000 0.0000 22.3104
#
#
#
# Elastic Compliance Matrix: (Units=1/GPa)
#
#
# Indices 1 2 3 4 5 6 
#
# 1 0.019972 -0.008385 -0.003995 0.000000 0.000000 0.000000
# 2 -0.008385 0.019972 -0.003995 0.000000 0.000000 0.000000
# 3 -0.003995 -0.003995 0.010640 0.000000 0.000000 0.000000
# 4 0.000000 0.000000 0.000000 0.051985 0.000000 0.000000
# 5 0.000000 0.000000 0.000000 0.000000 0.051985 0.000000
# 6 0.000000 0.000000 0.000000 0.000000 0.000000 0.044822
#
#
# Mechanical properties :
#
#
# Convention : Reuss Voigt Hill
#
# Bulk Modulus (GPa) = 56.07038 59.40069 57.73553
# Shear Modulus (GPa) = 21.00211 22.18938 21.59575
#
# Velocity S-wave (km/s) = 3.52691 3.62523 3.57640
# Velocity P-wave (km/s) = 7.05653 7.25980 7.15888
#
# Compressibility (1/GPa) = 0.01783473
#
# Stress axis : x y z
#
# Youngs Moduli (GPa) = 50.06986 50.06986 93.98199
#
# Poissons Ratio (x) = 0.41983 0.37546
# Poissons Ratio (y) = 0.41983 0.37546
# Poissons Ratio (z) = 0.20003 0.20003
#
# Static dielectric constant tensor:
#      x y z
#    x 2.986210 0.000000 0.000000 
#    y 0.000000 2.986210 0.000000 
#    z 0.000000 0.000000 3.592760 
# 
# 
# High freq. dielectric constant tensor:
#      x y z
#    x 1.627010 0.000000 0.000000 
#    y 0.000000 1.627010 0.000000 
#    z 0.000000 0.000000 1.666800 
# 
# From -- ./inp_files/5974.got.cif
#   From: 2010.03.12/outbox.cif.g09.slc.cpg/sg107_3_cif.got.tgz:5974.got - 2010.04.14 01:49:11.
