data_PCOD8307182
_publ_section_title
;
Structure prediction by ZEFSAII (Michael W. Deem and Ramdas Pophale) SiO2 
 PCOD8307182
Probable space group: P 42 M C
;
_chemical_formula_sum "Si O2"
_cell_formula_units_Z 64
_cell_length_a 14.353191
_cell_length_b 14.353191
_cell_length_c 17.507494
_cell_angle_alpha 90.000000
_cell_angle_beta 90.000000
_cell_angle_gamma 90.000000
_cell_volume 3606.790478
_symmetry_space_group_name_H-M "P 42 M C"
_symmetry_group_IT_number 105
_symmetry_cell_setting 'tetragonal'
loop_
_space_group_symop_operation_xyz
x,y,z
-y,x,1/2+z
-x,-y,z
y,-x,1/2+z
-x,y,z
x,-y,z
-y,-x,1/2+z
y,x,1/2+z
loop_
_atom_site_type_symbol
_atom_site_label
_atom_site_fract_x
_atom_site_fract_y
_atom_site_fract_z
Si Si1 0.398382 0.732105 0.846310
Si Si2 0.101368 0.253436 0.730303
Si Si3 0.391855 0.609457 0.205542
Si Si4 0.158767 0.896106 0.840231
Si Si5 0.347036 0.896248 0.747222
Si Si6 0.276577 0.760720 0.627906
Si Si7 0.891241 0.393923 0.858295
Si Si8 0.744706 0.223509 0.449568
O O1 0.500000 0.708334 0.880519
O O2 0.364843 0.650855 0.788458
O O3 0.409871 0.828691 0.799065
O O4 0.327617 0.738233 0.916128
O O5 0.090751 0.164756 0.787190
O O6 0.174348 0.241272 0.663717
O O7 0.133431 0.343075 0.779002
O O8 0.000000 0.269775 0.692988
O O9 0.500000 0.638800 0.203499
O O10 0.379407 0.500000 0.188654
O O11 0.335351 0.667212 0.141539
O O12 0.251424 0.905762 0.791674
O O13 0.176255 0.840590 0.919551
O O14 0.118609 0.000000 0.858018
O O15 0.332658 0.848208 0.664165
O O16 0.391227 0.000000 0.736395
O O17 0.257093 0.774529 0.539752
O O18 0.858411 0.500000 0.851089
O O19 0.835185 0.345629 0.926292
O O20 0.000000 0.385564 0.877228
#
# Coordination Sequence:
#
# PCOD8307182 Si02
#       8
#     8   8   8   8   8   8   8   8
#     4   9  18  32  49  71  96 124 164 204 236 281
#     4   9  18  32  50  73  98 127 167 206 239 284
#     4   9  18  34  54  72  92 124 168 212 247 284
#     4   8  15  30  50  69  91 124 165 201 232 272
#     4   8  15  30  50  67  87 121 163 203 237 272
#     4  10  20  31  47  74 105 133 157 192 246 302
#     4   9  18  34  55  74  92 121 164 209 246 281
#     4  10  20  31  47  74 105 132 156 191 243 298
#
# _framework density 17.744308
#
# number of rings (size 3 to 8) (size 9 to 14) (size 15 to 20)
#    0.000    3.000    0.000    2.250    0.000    4.500 
#    0.000    0.000    0.000    1.500    0.000    8.750 
#    0.000    0.000    0.000    0.000    0.000    0.000 
#
# Total GULP energy -793190.550358 kJ/mol
# GULP energy per Si atom -12393.602349 kJ/mol
# Density = 1.770392 g / cm^3
# Si number density = 17.744308 Si / 1000 Ang^3
#
#
#
# Elastic Constant Matrix: (Units=GPa)
#
#
# Indices 1 2 3 4 5 6 
#
# 1 73.1458 -3.3685 6.7321 0.0000 0.0000 0.0000
# 2 -3.3685 73.1458 6.7321 0.0000 0.0000 0.0000
# 3 6.7321 6.7321 78.1622 0.0000 0.0000 0.0000
# 4 0.0000 0.0000 0.0000 12.3124 0.0000 0.0000
# 5 0.0000 0.0000 0.0000 0.0000 12.3124 0.0000
# 6 0.0000 0.0000 0.0000 0.0000 0.0000 14.5953
#
#
#
# Elastic Compliance Matrix: (Units=1/GPa)
#
#
# Indices 1 2 3 4 5 6 
#
# 1 0.013821 0.000752 -0.001255 0.000000 0.000000 0.000000
# 2 0.000752 0.013821 -0.001255 0.000000 0.000000 0.000000
# 3 -0.001255 -0.001255 0.013010 0.000000 0.000000 0.000000
# 4 0.000000 0.000000 0.000000 0.081219 0.000000 0.000000
# 5 0.000000 0.000000 0.000000 0.000000 0.081219 0.000000
# 6 0.000000 0.000000 0.000000 0.000000 0.000000 0.068515
#
#
# Mechanical properties :
#
#
# Convention : Reuss Voigt Hill
#
# Bulk Modulus (GPa) = 26.92785 27.18282 27.05533
# Shear Modulus (GPa) = 17.39120 22.13455 19.76288
#
# Velocity S-wave (km/s) = 3.13405 3.53571 3.34092
# Velocity P-wave (km/s) = 5.32023 5.65869 5.49207
#
# Compressibility (1/GPa) = 0.03713628
#
# Stress axis : x y z
#
# Youngs Moduli (GPa) = 72.35112 72.35112 76.86316
#
# Poissons Ratio (x) = -0.05441 0.09648
# Poissons Ratio (y) = -0.05441 0.09648
# Poissons Ratio (z) = 0.09082 0.09082
#
# Static dielectric constant tensor:
#      x y z
#    x 3.551270 0.000000 0.000000 
#    y 0.000000 3.551270 0.000000 
#    z 0.000000 0.000000 2.923860 
# 
# 
# High freq. dielectric constant tensor:
#      x y z
#    x 1.692270 0.000000 0.000000 
#    y 0.000000 1.692270 0.000000 
#    z 0.000000 0.000000 1.650340 
# 
# From -- ./inp_files/3192.got.cif
#   From: 2010.03.12/outbox.cif.g09.slc.cpg/sg105_2_cif.got.tgz:3192.got - 2010.04.14 01:45:32.
