data_PCOD8307480
_publ_section_title
;
Structure prediction by ZEFSAII (Michael W. Deem and Ramdas Pophale) SiO2 
 PCOD8307480
Probable space group: I 4 M M
;
_chemical_formula_sum "Si O2"
_cell_formula_units_Z 128
_cell_length_a 17.587524
_cell_length_b 17.587524
_cell_length_c 26.361709
_cell_angle_alpha 90.000000
_cell_angle_beta 90.000000
_cell_angle_gamma 90.000000
_cell_volume 8154.230201
_symmetry_space_group_name_H-M "I 4 M M"
_symmetry_group_IT_number 107
_symmetry_cell_setting 'tetragonal'
loop_
_space_group_symop_operation_xyz
x,y,z
-y,x,z
-x,-y,z
y,-x,z
-x,y,z
x,-y,z
-y,-x,z
y,x,z
1/2+x,1/2+y,1/2+z
1/2-y,1/2+x,1/2+z
1/2-x,1/2-y,1/2+z
1/2+y,1/2-x,1/2+z
1/2-x,1/2+y,1/2+z
1/2+x,1/2-y,1/2+z
1/2-y,1/2-x,1/2+z
1/2+y,1/2+x,1/2+z
loop_
_atom_site_type_symbol
_atom_site_label
_atom_site_fract_x
_atom_site_fract_y
_atom_site_fract_z
Si Si1 0.708934 0.412436 0.416940
Si Si2 0.231079 0.351790 0.314933
Si Si3 0.645099 0.233202 0.107876
Si Si4 0.415019 0.912094 0.568433
Si Si5 0.790895 0.912686 0.711875
Si Si6 0.412533 0.915107 0.354668
Si Si7 0.791151 0.087527 0.504218
Si Si8 0.133829 0.365521 0.961372
O O1 0.694976 0.500000 0.429726
O O2 0.632564 0.367437 0.431137
O O3 0.728085 0.403463 0.357378
O O4 0.776497 0.379325 0.451365
O O5 0.266008 0.266008 0.317593
O O6 0.242004 0.386322 0.259659
O O7 0.140719 0.353770 0.325637
O O8 0.730553 0.269448 0.108267
O O9 0.645162 0.142546 0.097473
O O10 0.604704 0.243822 0.161463
O O11 0.595934 0.273172 0.063912
O O12 0.500000 0.898392 0.589546
O O13 0.414745 0.893610 0.508985
O O14 0.390139 0.000000 0.576700
O O15 0.871646 0.871646 0.710494
O O16 0.810105 0.000000 0.716294
O O17 0.500000 0.889080 0.345677
O O18 0.395163 0.914739 0.414264
O O19 0.399657 0.000000 0.333601
O O20 0.867381 0.132620 0.489702
O O21 0.723016 0.121240 0.470627
O O22 0.804592 0.000000 0.490881
#
# Coordination Sequence:
#
# PCOD8307480 Si02
#       8
#    16  16  16  16  16  16  16  16
#     4  10  19  30  44  62  84 110 140 173 208 247
#     4   9  18  31  45  61  83 112 143 172 206 250
#     4   9  18  31  45  61  83 112 143 172 206 250
#     4  10  18  28  44  66  89 110 136 173 212 248
#     4  10  18  29  45  61  81 111 144 178 212 244
#     4  10  18  28  44  66  89 110 136 173 212 248
#     4  10  19  30  44  62  84 110 140 173 208 247
#     4  10  17  29  44  62  86 111 141 170 204 248
#
# _framework density 15.697374999999999
#
# number of rings (size 3 to 8) (size 9 to 14) (size 15 to 20)
#    0.000    2.250    0.000    6.375    0.000    2.375 
#    0.000    0.625    0.000    6.750    0.000    0.000 
#    0.000    0.500    0.000    0.000    0.000    7.000 
#
# Total GULP energy -793447.283006 kJ/mol
# GULP energy per Si atom -12397.613797 kJ/mol
# Density = 1.566165 g / cm^3
# Si number density = 15.697375 Si / 1000 Ang^3
#
#
#
# Elastic Constant Matrix: (Units=GPa)
#
#
# Indices 1 2 3 4 5 6 
#
# 1 99.0031 68.7166 22.7618 0.0000 0.0000 0.0000
# 2 68.7166 99.0031 22.7618 0.0000 0.0000 0.0000
# 3 22.7618 22.7618 38.9720 0.0000 0.0000 0.0000
# 4 0.0000 0.0000 0.0000 10.4367 0.0000 0.0000
# 5 0.0000 0.0000 0.0000 0.0000 10.4367 0.0000
# 6 0.0000 0.0000 0.0000 0.0000 0.0000 24.4121
#
#
#
# Elastic Compliance Matrix: (Units=1/GPa)
#
#
# Indices 1 2 3 4 5 6 
#
# 1 0.020052 -0.012966 -0.004138 0.000000 0.000000 0.000000
# 2 -0.012966 0.020052 -0.004138 0.000000 0.000000 0.000000
# 3 -0.004138 -0.004138 0.030494 0.000000 0.000000 0.000000
# 4 0.000000 0.000000 0.000000 0.095816 0.000000 0.000000
# 5 0.000000 0.000000 0.000000 0.000000 0.095816 0.000000
# 6 0.000000 0.000000 0.000000 0.000000 0.000000 0.040963
#
#
# Mechanical properties :
#
#
# Convention : Reuss Voigt Hill
#
# Bulk Modulus (GPa) = 35.57301 51.71764 43.64532
# Shear Modulus (GPa) = 14.08259 17.23962 15.66110
#
# Velocity S-wave (km/s) = 2.99846 3.31758 3.16205
# Velocity P-wave (km/s) = 5.89056 6.90603 6.41841
#
# Compressibility (1/GPa) = 0.02811120
#
# Stress axis : x y z
#
# Youngs Moduli (GPa) = 49.87077 49.87077 32.79383
#
# Poissons Ratio (x) = 0.64664 0.13571
# Poissons Ratio (y) = 0.64664 0.13571
# Poissons Ratio (z) = 0.20638 0.20638
#
# Static dielectric constant tensor:
#      x y z
#    x 2.998840 0.000000 0.000000 
#    y 0.000000 2.998840 0.000000 
#    z 0.000000 0.000000 2.944570 
# 
# 
# High freq. dielectric constant tensor:
#      x y z
#    x 1.595930 0.000000 0.000000 
#    y 0.000000 1.595930 0.000000 
#    z 0.000000 0.000000 1.589980 
# 
# From -- ./inp_files/5455.got.cif
#   From: 2010.03.12/outbox.cif.g09.slc.cpg/sg107_3_cif.got.tgz:5455.got - 2010.04.14 01:49:11.
