data_PCOD8307746
_publ_section_title
;
Structure prediction by ZEFSAII (Michael W. Deem and Ramdas Pophale) SiO2 
 PCOD8307746
Probable space group: I 4 C M
;
_chemical_formula_sum "Si O2"
_cell_formula_units_Z 80
_cell_length_a 28.226226
_cell_length_b 28.226226
_cell_length_c 5.086252
_cell_angle_alpha 90.000000
_cell_angle_beta 90.000000
_cell_angle_gamma 90.000000
_cell_volume 4052.317850
_symmetry_space_group_name_H-M "I 4 C M"
_symmetry_group_IT_number 108
_symmetry_cell_setting 'tetragonal'
loop_
_space_group_symop_operation_xyz
x,y,z
-y,x,z
-x,-y,z
y,-x,z
-x,y,1/2+z
x,-y,1/2+z
-y,-x,1/2+z
y,x,1/2+z
1/2+x,1/2+y,1/2+z
1/2-y,1/2+x,1/2+z
1/2-x,1/2-y,1/2+z
1/2+y,1/2-x,1/2+z
1/2-x,1/2+y,z
1/2+x,1/2-y,z
1/2-y,1/2-x,z
1/2+y,1/2+x,z
loop_
_atom_site_type_symbol
_atom_site_label
_atom_site_fract_x
_atom_site_fract_y
_atom_site_fract_z
Si Si1 0.673997 0.826004 0.054380
Si Si2 0.217034 0.970070 0.955502
Si Si3 0.127807 0.372194 0.046541
Si Si4 0.325110 0.030827 0.447187
Si Si5 0.145032 0.890323 0.771374
Si Si6 0.777688 0.812477 0.172338
O O1 0.652478 0.847523 0.309771
O O2 0.730012 0.837610 0.068747
O O3 0.649352 0.850649 0.810185
O O4 0.270753 0.949891 0.946559
O O5 0.178420 0.931742 0.874633
O O6 0.209251 0.013694 0.755489
O O7 0.071871 0.361917 0.024681
O O8 0.334139 0.988612 0.654435
O O9 0.118591 0.896438 0.490102
O O10 0.178016 0.846676 0.693503
O O11 0.771103 0.789217 0.459081
#
# Coordination Sequence:
#
# PCOD8307746 Si02
#       6
#     8  16   8  16  16  16
#     4  12  22  33  52  80 110 141 190 229 258 321
#     4  10  20  35  56  80 111 148 186 228 280 333
#     4  12  24  37  60  85 106 140 184 237 288 335
#     4  10  22  40  60  83 112 144 181 230 283 340
#     4  10  20  33  51  76 109 145 184 228 273 322
#     4  10  20  33  48  70 108 154 186 218 261 310
#
# _framework density 19.741789000000001
#
# number of rings (size 3 to 8) (size 9 to 14) (size 15 to 20)
#    0.000    1.600    0.000    5.400    0.000    6.400 
#    0.000    0.000    0.000    1.800    0.000    0.000 
#    0.000   28.000    0.000    0.000    0.000    0.000 
#
# Total GULP energy -495532.756846 kJ/mol
# GULP energy per Si atom -12388.318921 kJ/mol
# Density = 1.969686 g / cm^3
# Si number density = 19.741789 Si / 1000 Ang^3
#
#
#
# Elastic Constant Matrix: (Units=GPa)
#
#
# Indices 1 2 3 4 5 6 
#
# 1 69.8053 32.1658 27.2030 0.0000 0.0000 0.0002
# 2 32.1658 69.8053 27.2030 0.0000 0.0000 -0.0002
# 3 27.2030 27.2030 127.9441 0.0000 0.0000 0.0000
# 4 0.0000 0.0000 0.0000 15.6862 0.0000 0.0000
# 5 0.0000 0.0000 0.0000 0.0000 15.6862 0.0000
# 6 0.0002 -0.0002 0.0000 0.0000 0.0000 27.4123
#
#
#
# Elastic Compliance Matrix: (Units=1/GPa)
#
#
# Indices 1 2 3 4 5 6 
#
# 1 0.018815 -0.007753 -0.002352 0.000000 0.000000 0.000000
# 2 -0.007753 0.018815 -0.002352 0.000000 0.000000 0.000000
# 3 -0.002352 -0.002352 0.008816 0.000000 0.000000 0.000000
# 4 0.000000 0.000000 0.000000 0.063750 0.000000 0.000000
# 5 0.000000 0.000000 0.000000 0.000000 0.063750 0.000000
# 6 0.000000 0.000000 0.000000 0.000000 0.000000 0.036480
#
#
# Mechanical properties :
#
#
# Convention : Reuss Voigt Hill
#
# Bulk Modulus (GPa) = 46.44334 48.96646 47.70490
# Shear Modulus (GPa) = 20.61714 23.82248 22.21981
#
# Velocity S-wave (km/s) = 3.23513 3.47753 3.35852
# Velocity P-wave (km/s) = 6.12627 6.40169 6.26549
#
# Compressibility (1/GPa) = 0.02153161
#
# Stress axis : x y z
#
# Youngs Moduli (GPa) = 53.14998 53.14998 113.43015
#
# Poissons Ratio (x) = 0.41208 0.26677
# Poissons Ratio (y) = 0.41208 0.26677
# Poissons Ratio (z) = 0.12500 0.12500
#
# Static dielectric constant tensor:
#      x y z
#    x 3.579890 0.000000 0.000000 
#    y 0.000000 3.579890 0.000000 
#    z 0.000000 0.000000 4.205310 
# 
# 
# High freq. dielectric constant tensor:
#      x y z
#    x 1.741050 0.000000 0.000000 
#    y 0.000000 1.741050 0.000000 
#    z 0.000000 0.000000 1.805900 
# 
# From -- ./inp_files/176.got.cif
#   From: 2010.03.12/outbox.cif.g09.slc.cpg/sg108_1_cif.got.tgz:176.got - 2010.04.14 01:53:11.
