data_PCOD8307690
_publ_section_title
;
Structure prediction by ZEFSAII (Michael W. Deem and Ramdas Pophale) SiO2 
 PCOD8307690
Probable space group: I 4 M M
;
_chemical_formula_sum "Si O2"
_cell_formula_units_Z 96
_cell_length_a 24.706794
_cell_length_b 24.706794
_cell_length_c 9.893440
_cell_angle_alpha 90.000000
_cell_angle_beta 90.000000
_cell_angle_gamma 90.000000
_cell_volume 6039.209738
_symmetry_space_group_name_H-M "I 4 M M"
_symmetry_group_IT_number 107
_symmetry_cell_setting 'tetragonal'
loop_
_space_group_symop_operation_xyz
x,y,z
-y,x,z
-x,-y,z
y,-x,z
-x,y,z
x,-y,z
-y,-x,z
y,x,z
1/2+x,1/2+y,1/2+z
1/2-y,1/2+x,1/2+z
1/2-x,1/2-y,1/2+z
1/2+y,1/2-x,1/2+z
1/2-x,1/2+y,1/2+z
1/2+x,1/2-y,1/2+z
1/2-y,1/2-x,1/2+z
1/2+y,1/2+x,1/2+z
loop_
_atom_site_type_symbol
_atom_site_label
_atom_site_fract_x
_atom_site_fract_y
_atom_site_fract_z
Si Si1 0.649631 0.437789 0.144830
Si Si2 0.850370 0.937789 0.333788
Si Si3 0.135943 0.563048 0.332725
Si Si4 0.757088 0.935708 0.139011
Si Si5 0.864056 0.563048 0.645897
Si Si6 0.257087 0.435708 0.339608
O O1 0.636908 0.500000 0.181668
O O2 0.595661 0.404340 0.178220
O O3 0.699191 0.413887 0.232479
O O4 0.666789 0.431649 0.989309
O O5 0.904341 0.904341 0.300398
O O6 0.800810 0.913886 0.246138
O O7 0.863092 0.000000 0.296950
O O8 0.129911 0.500000 0.298636
O O9 0.122175 0.573975 0.489311
O O10 0.094783 0.594784 0.239312
O O11 0.196821 0.583708 0.299982
O O12 0.696822 0.916292 0.178638
O O13 0.757000 0.000000 0.138281
O O14 0.772464 0.914225 0.989309
O O15 0.870087 0.500000 0.679986
O O16 0.256999 0.500000 0.340339
#
# Coordination Sequence:
#
# PCOD8307690 Si02
#       6
#    16  16  16  16  16  16
#     4   9  17  28  43  65  91 117 145 177 214 257
#     4   9  17  28  43  65  91 117 145 177 214 257
#     4   9  18  31  46  66  91 117 145 178 217 259
#     4   8  15  29  46  62  83 113 148 182 214 251
#     4   9  18  31  46  66  91 117 145 178 217 259
#     4   8  15  29  46  62  83 113 148 182 214 251
#
# _framework density 15.89612
#
# number of rings (size 3 to 8) (size 9 to 14) (size 15 to 20)
#    0.000    3.333    0.000    2.000    0.000    3.333 
#    0.000    6.667    0.000    1.000    0.000    4.667 
#    0.000    0.000    0.000    0.000    0.000    0.000 
#
# Total GULP energy -594978.330507 kJ/mol
# GULP energy per Si atom -12395.381886 kJ/mol
# Density = 1.585994 g / cm^3
# Si number density = 15.896120 Si / 1000 Ang^3
#
#
#
# Elastic Constant Matrix: (Units=GPa)
#
#
# Indices 1 2 3 4 5 6 
#
# 1 82.0628 50.4280 63.7402 0.0000 0.0000 0.0009
# 2 50.4280 82.0628 63.7402 0.0000 0.0000 -0.0009
# 3 63.7402 63.7402 94.3863 0.0000 0.0000 0.0000
# 4 0.0000 0.0000 0.0000 28.9497 0.0000 0.0000
# 5 0.0000 0.0000 0.0000 0.0000 28.9497 0.0000
# 6 0.0009 -0.0009 0.0000 0.0000 0.0000 2.4797
#
#
#
# Elastic Compliance Matrix: (Units=1/GPa)
#
#
# Indices 1 2 3 4 5 6 
#
# 1 0.026581 -0.005030 -0.014554 0.000000 0.000000 -0.000012
# 2 -0.005030 0.026581 -0.014554 0.000000 0.000000 0.000012
# 3 -0.014554 -0.014554 0.030251 0.000000 0.000000 0.000000
# 4 0.000000 0.000000 0.000000 0.034543 0.000000 0.000000
# 5 0.000000 0.000000 0.000000 0.000000 0.034543 0.000000
# 6 -0.000012 0.000012 0.000000 0.000000 0.000000 0.403273
#
#
# Mechanical properties :
#
#
# Convention : Reuss Voigt Hill
#
# Bulk Modulus (GPa) = 66.05604 68.25871 67.15737
# Shear Modulus (GPa) = 7.94797 17.44940 12.69868
#
# Velocity S-wave (km/s) = 2.23848 3.31677 2.82947
# Velocity P-wave (km/s) = 6.95170 7.59616 7.28106
#
# Compressibility (1/GPa) = 0.01513866
#
# Stress axis : x y z
#
# Youngs Moduli (GPa) = 37.62108 37.62108 33.05655
#
# Poissons Ratio (x) = 0.18923 0.48109
# Poissons Ratio (y) = 0.18923 0.48109
# Poissons Ratio (z) = 0.54752 0.54752
#
# Static dielectric constant tensor:
#      x y z
#    x 2.933760 0.000000 0.000000 
#    y 0.000000 2.933760 0.000000 
#    z 0.000000 0.000000 3.204440 
# 
# 
# High freq. dielectric constant tensor:
#      x y z
#    x 1.592290 0.000000 0.000000 
#    y 0.000000 1.592290 0.000000 
#    z 0.000000 0.000000 1.616430 
# 
# From -- ./inp_files/1479.got.cif
#   From: 2010.03.12/outbox.cif.g09.slc.cpg/sg107_1_cif.got.tgz:1479.got - 2010.04.14 01:49:11.
