data_PCOD8307721
_publ_section_title
;
Structure prediction by ZEFSAII (Michael W. Deem and Ramdas Pophale) SiO2 
 PCOD8307721
Probable space group: I 4 C M
;
_chemical_formula_sum "Si O2"
_cell_formula_units_Z 64
_cell_length_a 19.524320
_cell_length_b 19.524320
_cell_length_c 9.861853
_cell_angle_alpha 90.000000
_cell_angle_beta 90.000000
_cell_angle_gamma 90.000000
_cell_volume 3759.329206
_symmetry_space_group_name_H-M "I 4 C M"
_symmetry_group_IT_number 108
_symmetry_cell_setting 'tetragonal'
loop_
_space_group_symop_operation_xyz
x,y,z
-y,x,z
-x,-y,z
y,-x,z
-x,y,1/2+z
x,-y,1/2+z
-y,-x,1/2+z
y,x,1/2+z
1/2+x,1/2+y,1/2+z
1/2-y,1/2+x,1/2+z
1/2-x,1/2-y,1/2+z
1/2+y,1/2-x,1/2+z
1/2-x,1/2+y,z
1/2+x,1/2-y,z
1/2-y,1/2-x,z
1/2+y,1/2+x,z
loop_
_atom_site_type_symbol
_atom_site_label
_atom_site_fract_x
_atom_site_fract_y
_atom_site_fract_z
Si Si1 0.941495 0.333142 0.230880
Si Si2 0.833142 0.441495 0.919213
Si Si3 0.500000 0.702451 0.825047
Si Si4 0.388847 0.478063 0.075047
O O1 0.868091 0.368091 0.261497
O O2 0.939269 0.251567 0.265607
O O3 1.000000 0.368273 0.325047
O O4 0.962666 0.343864 0.075047
O O5 0.868092 0.368092 0.888595
O O6 0.751567 0.439269 0.884486
O O7 0.533008 0.656152 0.708628
O O8 0.466992 0.656153 0.941469
O O9 0.446437 0.420407 0.075046
#
# Coordination Sequence:
#
# PCOD8307721 Si02
#       4
#    16  16  16  16
#     4   9  18  33  54  80 111 145 178 212 258 310
#     4   9  18  33  54  80 111 145 178 212 258 310
#     4  10  18  37  53  80 110 142 168 222 268 314
#     4  11  22  36  58  82 103 132 178 230 279 318
#
# _framework density 17.024314
#
# number of rings (size 3 to 8) (size 9 to 14) (size 15 to 20)
#    1.500    0.750    2.500    1.500    0.000    3.500 
#    0.000    2.500    0.000    9.000    0.000    0.000 
#    0.000    0.000    0.000    0.000    0.000    0.000 
#
# Total GULP energy -396464.508640 kJ/mol
# GULP energy per Si atom -12389.515895 kJ/mol
# Density = 1.698557 g / cm^3
# Si number density = 17.024314 Si / 1000 Ang^3
#
#
#
# Elastic Constant Matrix: (Units=GPa)
#
#
# Indices 1 2 3 4 5 6 
#
# 1 84.5039 39.0715 42.6860 0.0000 0.0000 0.0000
# 2 39.0715 84.5039 42.6860 0.0000 0.0000 0.0000
# 3 42.6860 42.6860 130.4761 0.0000 0.0000 0.0000
# 4 0.0000 0.0000 0.0000 19.2395 0.0000 0.0000
# 5 0.0000 0.0000 0.0000 0.0000 19.2395 0.0000
# 6 0.0000 0.0000 0.0000 0.0000 0.0000 12.2443
#
#
#
# Elastic Compliance Matrix: (Units=1/GPa)
#
#
# Indices 1 2 3 4 5 6 
#
# 1 0.016233 -0.005778 -0.003421 0.000000 0.000000 0.000000
# 2 -0.005778 0.016233 -0.003421 0.000000 0.000000 0.000000
# 3 -0.003421 -0.003421 0.009902 0.000000 0.000000 0.000000
# 4 0.000000 0.000000 0.000000 0.051976 0.000000 0.000000
# 5 0.000000 0.000000 0.000000 0.000000 0.051976 0.000000
# 6 0.000000 0.000000 0.000000 0.000000 0.000000 0.081670
#
#
# Mechanical properties :
#
#
# Convention : Reuss Voigt Hill
#
# Bulk Modulus (GPa) = 58.37422 60.93012 59.65217
# Shear Modulus (GPa) = 19.30954 21.81402 20.56178
#
# Velocity S-wave (km/s) = 3.37149 3.58347 3.47910
# Velocity P-wave (km/s) = 7.03698 7.27938 7.15921
#
# Compressibility (1/GPa) = 0.01713085
#
# Stress axis : x y z
#
# Youngs Moduli (GPa) = 61.60284 61.60284 100.98642
#
# Poissons Ratio (x) = 0.35592 0.34543
# Poissons Ratio (y) = 0.35592 0.34543
# Poissons Ratio (z) = 0.21071 0.21071
#
# Static dielectric constant tensor:
#      x y z
#    x 3.012170 0.000000 0.000000 
#    y 0.000000 3.012170 0.000000 
#    z 0.000000 0.000000 3.393640 
# 
# 
# High freq. dielectric constant tensor:
#      x y z
#    x 1.635100 0.000000 0.000000 
#    y 0.000000 1.635100 0.000000 
#    z 0.000000 0.000000 1.679980 
# 
# From -- ./inp_files/562.got.cif
#   From: 2010.03.12/outbox.cif.g09.slc.cpg/sg108_1_cif.got.tgz:562.got - 2010.04.14 01:53:11.
