data_PCOD8307764
_publ_section_title
;
Structure prediction by ZEFSAII (Michael W. Deem and Ramdas Pophale) SiO2 
 PCOD8307764
Probable space group: I 4 C M
;
_chemical_formula_sum "Si O2"
_cell_formula_units_Z 112
_cell_length_a 30.834955
_cell_length_b 30.834955
_cell_length_c 5.175193
_cell_angle_alpha 90.000000
_cell_angle_beta 90.000000
_cell_angle_gamma 90.000000
_cell_volume 4920.544781
_symmetry_space_group_name_H-M "I 4 C M"
_symmetry_group_IT_number 108
_symmetry_cell_setting 'tetragonal'
loop_
_space_group_symop_operation_xyz
x,y,z
-y,x,z
-x,-y,z
y,-x,z
-x,y,1/2+z
x,-y,1/2+z
-y,-x,1/2+z
y,x,1/2+z
1/2+x,1/2+y,1/2+z
1/2-y,1/2+x,1/2+z
1/2-x,1/2-y,1/2+z
1/2+y,1/2-x,1/2+z
1/2-x,1/2+y,z
1/2+x,1/2-y,z
1/2-y,1/2-x,z
1/2+y,1/2+x,z
loop_
_atom_site_type_symbol
_atom_site_label
_atom_site_fract_x
_atom_site_fract_y
_atom_site_fract_z
Si Si1 0.982453 0.649971 0.139840
Si Si2 0.885430 0.754508 0.311289
Si Si3 0.542246 0.230076 0.666189
Si Si4 0.304164 0.265452 0.119537
Si Si5 0.842033 0.115823 0.052597
Si Si6 0.975330 0.819763 0.886728
Si Si7 0.105449 0.674967 0.498042
O O1 0.930851 0.651388 0.177513
O O2 0.004836 0.624852 0.376445
O O3 0.002095 0.699178 0.074338
O O4 0.935291 0.753868 0.416627
O O5 0.855035 0.761353 0.562827
O O6 0.878887 0.790394 0.087331
O O7 0.870395 0.710162 0.174671
O O8 0.530400 0.266893 0.881714
O O9 0.579663 0.197271 0.764658
O O10 0.284828 0.298355 0.904606
O O11 0.281039 0.218962 0.095149
O O12 0.859039 0.133390 0.326679
O O13 0.848157 0.065455 0.981228
O O14 0.987681 0.832613 0.593846
O O15 0.140639 0.640639 0.393594
#
# Coordination Sequence:
#
# PCOD8307764 Si02
#       7
#    16  16  16  16  16  16  16
#     4  10  20  40  60  86 124 163 200 270 344 415
#     4  12  23  40  60  88 122 178 223 272 333 394
#     4  11  23  39  64  94 128 166 221 289 349 419
#     4  10  23  40  57  76 109 164 225 275 309 356
#     4  12  26  43  64  98 139 181 223 275 332 394
#     4  12  24  42  72 103 131 174 233 275 344 409
#     4  11  24  38  59  93 128 167 222 280 340 405
#
# _framework density 22.761707000000001
#
# number of rings (size 3 to 8) (size 9 to 14) (size 15 to 20)
#    0.000    0.857    2.857    5.571    2.000    1.143 
#    0.000    0.000    0.000    0.000    0.000    0.000 
#    0.000   47.429    0.000    0.000    0.000    0.000 
#
# Total GULP energy -693931.103734 kJ/mol
# GULP energy per Si atom -12391.626852 kJ/mol
# Density = 2.270990 g / cm^3
# Si number density = 22.761707 Si / 1000 Ang^3
#
#
#
# Elastic Constant Matrix: (Units=GPa)
#
#
# Indices 1 2 3 4 5 6 
#
# 1 70.9796 22.6570 10.7776 0.0000 0.0000 0.0011
# 2 22.6570 70.9796 10.7776 0.0000 0.0000 -0.0011
# 3 10.7776 10.7776 83.8132 0.0000 0.0000 0.0000
# 4 0.0000 0.0000 0.0000 27.9125 0.0000 0.0000
# 5 0.0000 0.0000 0.0000 0.0000 27.9125 0.0000
# 6 0.0011 -0.0011 0.0000 0.0000 0.0000 44.4644
#
#
#
# Elastic Compliance Matrix: (Units=1/GPa)
#
#
# Indices 1 2 3 4 5 6 
#
# 1 0.015850 -0.004844 -0.001415 0.000000 0.000000 -0.000001
# 2 -0.004844 0.015850 -0.001415 0.000000 0.000000 0.000001
# 3 -0.001415 -0.001415 0.012295 0.000000 0.000000 0.000000
# 4 0.000000 0.000000 0.000000 0.035826 0.000000 0.000000
# 5 0.000000 0.000000 0.000000 0.000000 0.035826 0.000000
# 6 -0.000001 0.000001 0.000000 0.000000 0.000000 0.022490
#
#
# Mechanical properties :
#
#
# Convention : Reuss Voigt Hill
#
# Bulk Modulus (GPa) = 34.90981 34.91074 34.91027
# Shear Modulus (GPa) = 30.66822 32.16191 31.41506
#
# Velocity S-wave (km/s) = 3.67462 3.76304 3.71910
# Velocity P-wave (km/s) = 5.77704 5.85247 5.81488
#
# Compressibility (1/GPa) = 0.02864524
#
# Stress axis : x y z
#
# Youngs Moduli (GPa) = 63.09229 63.09229 81.33225
#
# Poissons Ratio (x) = 0.30565 0.11510
# Poissons Ratio (y) = 0.30565 0.11510
# Poissons Ratio (z) = 0.08929 0.08929
#
# Static dielectric constant tensor:
#      x y z
#    x 4.271780 0.000000 0.000000 
#    y 0.000000 4.271780 0.000000 
#    z 0.000000 0.000000 4.409730 
# 
# 
# High freq. dielectric constant tensor:
#      x y z
#    x 1.867050 0.000000 0.000000 
#    y 0.000000 1.867050 0.000000 
#    z 0.000000 0.000000 1.928120 
# 
# From -- ./inp_files/213.got.cif
#   From: 2010.03.12/outbox.cif.g09.slc.cpg/sg108_1_cif.got.tgz:213.got - 2010.04.14 01:53:11.
