data_PCOD8307011
_publ_section_title
;
Structure prediction by ZEFSAII (Michael W. Deem and Ramdas Pophale) SiO2 
 PCOD8307011
Probable space group: P 4 C C
;
_chemical_formula_sum "Si O2"
_cell_formula_units_Z 40
_cell_length_a 11.228863
_cell_length_b 11.228863
_cell_length_c 13.951782
_cell_angle_alpha 90.000000
_cell_angle_beta 90.000000
_cell_angle_gamma 90.000000
_cell_volume 1759.143419
_symmetry_space_group_name_H-M "P 4 C C"
_symmetry_group_IT_number 103
_symmetry_cell_setting 'tetragonal'
loop_
_space_group_symop_operation_xyz
x,y,z
-y,x,z
-x,-y,z
y,-x,z
-x,y,1/2+z
x,-y,1/2+z
-y,-x,1/2+z
y,x,1/2+z
loop_
_atom_site_type_symbol
_atom_site_label
_atom_site_fract_x
_atom_site_fract_y
_atom_site_fract_z
Si Si1 0.684075 0.561296 0.140790
Si Si2 0.444710 0.685479 0.917746
Si Si3 0.287636 0.878272 0.231465
Si Si4 0.938952 0.816518 0.029045
Si Si5 0.881565 0.698781 0.838490
O O1 0.573995 0.649029 0.164527
O O2 0.792930 0.600731 0.208126
O O3 0.719716 0.570537 0.029261
O O4 0.353340 0.578539 0.894397
O O5 0.414503 0.792976 0.844943
O O6 0.234961 0.925263 0.133541
O O7 0.182241 0.811951 0.289042
O O8 0.334630 0.994577 0.287571
O O9 0.074459 0.851066 0.013939
O O10 0.906940 0.721287 0.949515
#
# Coordination Sequence:
#
# PCOD8307011 Si02
#       5
#     8   8   8   8   8
#     4   9  20  43  74 102 135 186 236 285 353 424
#     4   9  20  43  74 102 135 186 236 285 353 424
#     4  12  24  39  67 103 140 179 233 290 355 418
#     4  11  22  40  66  91 138 192 240 292 345 419
#     4  12  24  39  67 103 140 179 233 290 355 418
#
# _framework density 22.738337999999999
#
# number of rings (size 3 to 8) (size 9 to 14) (size 15 to 20)
#    0.000    1.400    6.000    1.200    0.000    2.000 
#    0.000    6.000    0.000    7.200    0.000    0.000 
#    0.000    0.000    0.000    0.000    0.000    0.000 
#
# Total GULP energy -495997.369414 kJ/mol
# GULP energy per Si atom -12399.934235 kJ/mol
# Density = 2.268658 g / cm^3
# Si number density = 22.738338 Si / 1000 Ang^3
#
#
#
# Elastic Constant Matrix: (Units=GPa)
#
#
# Indices 1 2 3 4 5 6 
#
# 1 115.3503 62.8030 47.6473 0.0000 0.0000 0.0000
# 2 62.8030 115.3503 47.6473 0.0000 0.0000 0.0000
# 3 47.6473 47.6473 89.9704 0.0000 0.0000 0.0000
# 4 0.0000 0.0000 0.0000 34.5045 0.0000 0.0000
# 5 0.0000 0.0000 0.0000 0.0000 34.5045 0.0000
# 6 0.0000 0.0000 0.0000 0.0000 0.0000 40.0201
#
#
#
# Elastic Compliance Matrix: (Units=1/GPa)
#
#
# Indices 1 2 3 4 5 6 
#
# 1 0.013431 -0.005599 -0.004148 0.000000 0.000000 0.000000
# 2 -0.005599 0.013431 -0.004148 0.000000 0.000000 0.000000
# 3 -0.004148 -0.004148 0.015508 0.000000 0.000000 0.000000
# 4 0.000000 0.000000 0.000000 0.028982 0.000000 0.000000
# 5 0.000000 0.000000 0.000000 0.000000 0.028982 0.000000
# 6 0.000000 0.000000 0.000000 0.000000 0.000000 0.024987
#
#
# Mechanical properties :
#
#
# Convention : Reuss Voigt Hill
#
# Bulk Modulus (GPa) = 68.58302 70.76290 69.67296
# Shear Modulus (GPa) = 31.65153 32.64404 32.14778
#
# Velocity S-wave (km/s) = 3.73499 3.79309 3.76415
# Velocity P-wave (km/s) = 6.98767 7.09729 7.04269
#
# Compressibility (1/GPa) = 0.01458087
#
# Stress axis : x y z
#
# Youngs Moduli (GPa) = 74.45415 74.45415 64.48375
#
# Poissons Ratio (x) = 0.41690 0.26745
# Poissons Ratio (y) = 0.41690 0.26745
# Poissons Ratio (z) = 0.30880 0.30880
#
# Static dielectric constant tensor:
#      x y z
#    x 4.054160 0.000000 0.000000 
#    y 0.000000 4.054160 0.000000 
#    z 0.000000 0.000000 4.207410 
# 
# 
# High freq. dielectric constant tensor:
#      x y z
#    x 1.889280 0.000000 0.000000 
#    y 0.000000 1.889280 0.000000 
#    z 0.000000 0.000000 1.921510 
# 
# From -- ./inp_files/800.got.cif
#   From: 2010.03.12/outbox.cif.g09.slc.cpg/sg103_cif.got.tgz:800.got - 2010.04.14 01:42:52.
