data_PCOD8307530
_publ_section_title
;
Structure prediction by ZEFSAII (Michael W. Deem and Ramdas Pophale) SiO2 
 PCOD8307530
Probable space group: I 4 M M
;
_chemical_formula_sum "Si O2"
_cell_formula_units_Z 112
_cell_length_a 13.809670
_cell_length_b 13.809670
_cell_length_c 36.064910
_cell_angle_alpha 90.000000
_cell_angle_beta 90.000000
_cell_angle_gamma 90.000000
_cell_volume 6877.830269
_symmetry_space_group_name_H-M "I 4 M M"
_symmetry_group_IT_number 107
_symmetry_cell_setting 'tetragonal'
loop_
_space_group_symop_operation_xyz
x,y,z
-y,x,z
-x,-y,z
y,-x,z
-x,y,z
x,-y,z
-y,-x,z
y,x,z
1/2+x,1/2+y,1/2+z
1/2-y,1/2+x,1/2+z
1/2-x,1/2-y,1/2+z
1/2+y,1/2-x,1/2+z
1/2-x,1/2+y,1/2+z
1/2+x,1/2-y,1/2+z
1/2-y,1/2-x,1/2+z
1/2+y,1/2+x,1/2+z
loop_
_atom_site_type_symbol
_atom_site_label
_atom_site_fract_x
_atom_site_fract_y
_atom_site_fract_z
Si Si1 0.608321 0.885365 0.271050
Si Si2 0.737728 0.889968 0.124552
Si Si3 0.272804 0.885370 0.482767
Si Si4 0.730168 0.885447 0.340302
Si Si5 0.615005 0.107333 0.689363
Si Si6 0.108287 0.614363 0.911233
Si Si7 0.112441 0.271118 0.041003
O O1 0.500000 0.842938 0.277226
O O2 0.680961 0.847264 0.302426
O O3 0.647945 0.855658 0.230136
O O4 0.601713 0.000000 0.274344
O O5 0.842307 0.842307 0.126029
O O6 0.669887 0.840615 0.155765
O O7 0.692673 0.877782 0.083538
O O8 0.756102 0.000000 0.134998
O O9 0.170261 0.829740 0.485433
O O10 0.327377 0.850341 0.445687
O O11 0.342665 0.857563 0.516814
O O12 0.251983 0.000000 0.483357
O O13 0.833387 0.833387 0.344858
O O14 0.659468 0.852981 0.373389
O O15 0.750005 0.000000 0.340535
O O16 0.500000 0.103686 0.685682
O O17 0.657988 0.000000 0.685077
O O18 0.099196 0.500000 0.912548
O O19 0.000000 0.659881 0.913140
O O20 0.171116 0.171116 0.034090
O O21 0.000000 0.253062 0.030642
#
# Coordination Sequence:
#
# PCOD8307530 Si02
#       7
#    16  16  16  16  16  16  16
#     4   8  14  26  43  60  79 106 142 185 228 262
#     4   9  17  28  42  62  89 119 149 180 215 260
#     4  10  20  33  49  70  96 124 153 185 223 270
#     4  10  19  29  42  62  89 120 151 181 216 263
#     4   8  14  25  41  60  81 107 141 181 224 265
#     4   9  17  30  48  67  86 111 145 184 222 256
#     4   9  18  31  46  66  91 120 156 195 234 275
#
# _framework density 16.284205
#
# number of rings (size 3 to 8) (size 9 to 14) (size 15 to 20)
#    0.000    3.000    0.000    2.143    0.000    4.286 
#    0.000    2.857    0.000    2.571    0.000    4.000 
#    0.000   12.857    0.000    6.286    0.000    1.714 
#
# Total GULP energy -694039.406745 kJ/mol
# GULP energy per Si atom -12393.560835 kJ/mol
# Density = 1.624714 g / cm^3
# Si number density = 16.284205 Si / 1000 Ang^3
#
#
#
# Elastic Constant Matrix: (Units=GPa)
#
#
# Indices 1 2 3 4 5 6 
#
# 1 71.3375 35.5680 46.8153 0.0000 0.0000 0.0000
# 2 35.5680 71.3375 46.8153 0.0000 0.0000 0.0000
# 3 46.8153 46.8153 127.3622 0.0000 0.0000 0.0000
# 4 0.0000 0.0000 0.0000 22.1108 0.0000 0.0000
# 5 0.0000 0.0000 0.0000 0.0000 22.1108 0.0000
# 6 0.0000 0.0000 0.0000 0.0000 0.0000 11.4342
#
#
#
# Elastic Compliance Matrix: (Units=1/GPa)
#
#
# Indices 1 2 3 4 5 6 
#
# 1 0.020876 -0.007081 -0.005071 0.000000 0.000000 0.000000
# 2 -0.007081 0.020876 -0.005071 0.000000 0.000000 0.000000
# 3 -0.005071 -0.005071 0.011579 0.000000 0.000000 0.000000
# 4 0.000000 0.000000 0.000000 0.045227 0.000000 0.000000
# 5 0.000000 0.000000 0.000000 0.000000 0.045227 0.000000
# 6 0.000000 0.000000 0.000000 0.000000 0.000000 0.087457
#
#
# Mechanical properties :
#
#
# Convention : Reuss Voigt Hill
#
# Bulk Modulus (GPa) = 52.94744 58.71495 55.83119
# Shear Modulus (GPa) = 18.38354 20.52040 19.45197
#
# Velocity S-wave (km/s) = 3.36358 3.55370 3.45995
# Velocity P-wave (km/s) = 6.90435 7.27826 7.09377
#
# Compressibility (1/GPa) = 0.01888665
#
# Stress axis : x y z
#
# Youngs Moduli (GPa) = 47.90198 47.90197 86.36018
#
# Poissons Ratio (x) = 0.33918 0.43791
# Poissons Ratio (y) = 0.33918 0.43791
# Poissons Ratio (z) = 0.24290 0.24290
#
# Static dielectric constant tensor:
#      x y z
#    x 2.892580 0.000000 0.000000 
#    y 0.000000 2.892580 0.000000 
#    z 0.000000 0.000000 3.452250 
# 
# 
# High freq. dielectric constant tensor:
#      x y z
#    x 1.598810 0.000000 0.000000 
#    y 0.000000 1.598810 0.000000 
#    z 0.000000 0.000000 1.647400 
# 
# From -- ./inp_files/6193.got.cif
#   From: 2010.03.12/outbox.cif.g09.slc.cpg/sg107_4_cif.got.tgz:6193.got - 2010.04.14 01:49:11.
