data_PCOD8307543
_publ_section_title
;
Structure prediction by ZEFSAII (Michael W. Deem and Ramdas Pophale) SiO2 
 PCOD8307543
Probable space group: I 4 M M
;
_chemical_formula_sum "Si O2"
_cell_formula_units_Z 112
_cell_length_a 13.947935
_cell_length_b 13.947935
_cell_length_c 36.059329
_cell_angle_alpha 90.000000
_cell_angle_beta 90.000000
_cell_angle_gamma 90.000000
_cell_volume 7015.158221
_symmetry_space_group_name_H-M "I 4 M M"
_symmetry_group_IT_number 107
_symmetry_cell_setting 'tetragonal'
loop_
_space_group_symop_operation_xyz
x,y,z
-y,x,z
-x,-y,z
y,-x,z
-x,y,z
x,-y,z
-y,-x,z
y,x,z
1/2+x,1/2+y,1/2+z
1/2-y,1/2+x,1/2+z
1/2-x,1/2-y,1/2+z
1/2+y,1/2-x,1/2+z
1/2-x,1/2+y,1/2+z
1/2+x,1/2-y,1/2+z
1/2-y,1/2-x,1/2+z
1/2+y,1/2+x,1/2+z
loop_
_atom_site_type_symbol
_atom_site_label
_atom_site_fract_x
_atom_site_fract_y
_atom_site_fract_z
Si Si1 0.386670 0.107479 0.776890
Si Si2 0.388375 0.109143 0.636134
Si Si3 0.890285 0.263690 0.567811
Si Si4 0.886665 0.268853 0.206952
Si Si5 0.613384 0.893506 0.917462
Si Si6 0.889345 0.266245 0.484714
Si Si7 0.769559 0.613623 0.847562
O O1 0.500000 0.098319 0.776291
O O2 0.351834 0.163944 0.740560
O O3 0.353777 0.165515 0.813019
O O4 0.342008 0.000000 0.777389
O O5 0.500000 0.117752 0.629114
O O6 0.340506 0.144532 0.597990
O O7 0.355883 0.177173 0.669498
O O8 0.359712 0.000000 0.646179
O O9 0.834320 0.165681 0.573720
O O10 0.873270 0.305935 0.526463
O O11 0.000000 0.236605 0.573946
O O12 0.832688 0.167313 0.209055
O O13 0.000000 0.247951 0.208774
O O14 0.500000 0.902521 0.915752
O O15 0.648050 0.826421 0.883980
O O16 0.658829 0.000000 0.913958
O O17 0.646481 0.848083 0.956523
O O18 0.830935 0.169066 0.477775
O O19 0.000000 0.240051 0.477309
O O20 0.748234 0.500000 0.847311
O O21 0.667857 0.667857 0.845890
#
# Coordination Sequence:
#
# PCOD8307543 Si02
#       7
#    16  16  16  16  16  16  16
#     4   9  17  30  47  65  86 113 145 180 215 248
#     4   9  17  29  45  64  85 111 145 185 226 260
#     4   9  17  28  42  61  86 115 145 177 213 256
#     4  10  19  30  45  65  90 118 145 175 212 257
#     4   9  17  29  44  61  83 112 145 182 220 252
#     4   9  17  28  42  62  88 116 144 174 210 257
#     4  10  19  30  45  66  93 122 149 177 210 253
#
# _framework density 15.965427999999999
#
# number of rings (size 3 to 8) (size 9 to 14) (size 15 to 20)
#    0.000    2.714    0.000    2.143    0.000    4.571 
#    0.000    4.286    0.000    5.143    0.000    0.000 
#    0.000   32.571    0.000   10.571    0.000    0.857 
#
# Total GULP energy -694267.640590 kJ/mol
# GULP energy per Si atom -12397.636439 kJ/mol
# Density = 1.592909 g / cm^3
# Si number density = 15.965428 Si / 1000 Ang^3
#
#
#
# Elastic Constant Matrix: (Units=GPa)
#
#
# Indices 1 2 3 4 5 6 
#
# 1 70.5872 43.2177 51.7548 0.0000 0.0000 -0.0005
# 2 43.2177 70.5872 51.7548 0.0000 0.0000 0.0005
# 3 51.7548 51.7548 137.5621 0.0000 0.0000 0.0000
# 4 0.0000 0.0000 0.0000 21.6480 0.0000 0.0000
# 5 0.0000 0.0000 0.0000 0.0000 21.6480 0.0000
# 6 -0.0005 0.0005 0.0000 0.0000 0.0000 17.2215
#
#
#
# Elastic Compliance Matrix: (Units=1/GPa)
#
#
# Indices 1 2 3 4 5 6 
#
# 1 0.024948 -0.011590 -0.005026 0.000000 0.000000 0.000001
# 2 -0.011590 0.024948 -0.005026 0.000000 0.000000 -0.000001
# 3 -0.005026 -0.005026 0.011051 0.000000 0.000000 0.000000
# 4 0.000000 0.000000 0.000000 0.046194 0.000000 0.000000
# 5 0.000000 0.000000 0.000000 0.000000 0.046194 0.000000
# 6 0.000001 -0.000001 0.000000 0.000000 0.000000 0.058067
#
#
# Mechanical properties :
#
#
# Convention : Reuss Voigt Hill
#
# Bulk Modulus (GPa) = 56.61111 63.57680 60.09396
# Shear Modulus (GPa) = 19.18868 20.90410 20.04639
#
# Velocity S-wave (km/s) = 3.47059 3.62240 3.54731
# Velocity P-wave (km/s) = 7.18300 7.57652 7.38239
#
# Compressibility (1/GPa) = 0.01766438
#
# Stress axis : x y z
#
# Youngs Moduli (GPa) = 40.08413 40.08413 90.48923
#
# Poissons Ratio (x) = 0.46456 0.45477
# Poissons Ratio (y) = 0.46456 0.45477
# Poissons Ratio (z) = 0.20145 0.20145
#
# Static dielectric constant tensor:
#      x y z
#    x 2.887700 0.000000 0.000000 
#    y 0.000000 2.887700 0.000000 
#    z 0.000000 0.000000 3.340360 
# 
# 
# High freq. dielectric constant tensor:
#      x y z
#    x 1.590720 0.000000 0.000000 
#    y 0.000000 1.590720 0.000000 
#    z 0.000000 0.000000 1.634720 
# 
# From -- ./inp_files/5797.got.cif
#   From: 2010.03.12/outbox.cif.g09.slc.cpg/sg107_3_cif.got.tgz:5797.got - 2010.04.14 01:49:11.
