data_PCOD8307640
_publ_section_title
;
Structure prediction by ZEFSAII (Michael W. Deem and Ramdas Pophale) SiO2 
 PCOD8307640
Probable space group: I 4 M M
;
_chemical_formula_sum "Si O2"
_cell_formula_units_Z 96
_cell_length_a 22.860584
_cell_length_b 22.860584
_cell_length_c 9.719733
_cell_angle_alpha 90.000000
_cell_angle_beta 90.000000
_cell_angle_gamma 90.000000
_cell_volume 5079.593708
_symmetry_space_group_name_H-M "I 4 M M"
_symmetry_group_IT_number 107
_symmetry_cell_setting 'tetragonal'
loop_
_space_group_symop_operation_xyz
x,y,z
-y,x,z
-x,-y,z
y,-x,z
-x,y,z
x,-y,z
-y,-x,z
y,x,z
1/2+x,1/2+y,1/2+z
1/2-y,1/2+x,1/2+z
1/2-x,1/2-y,1/2+z
1/2+y,1/2-x,1/2+z
1/2-x,1/2+y,1/2+z
1/2+x,1/2-y,1/2+z
1/2-y,1/2-x,1/2+z
1/2+y,1/2+x,1/2+z
loop_
_atom_site_type_symbol
_atom_site_label
_atom_site_fract_x
_atom_site_fract_y
_atom_site_fract_z
Si Si1 0.286969 0.622352 0.823300
Si Si2 0.932687 0.739969 0.769010
Si Si3 0.155743 0.935745 0.560482
Si Si4 0.643693 0.261387 0.526943
Si Si5 0.834637 0.568293 0.858252
Si Si6 0.631276 0.861678 0.115615
O O1 0.311091 0.688910 0.854839
O O2 0.289900 0.611692 0.659583
O O3 0.221479 0.610874 0.876975
O O4 0.329545 0.577166 0.900884
O O5 0.928748 0.786001 0.647507
O O6 0.896494 0.684264 0.720624
O O7 0.000000 0.723161 0.801046
O O8 0.903087 0.765818 0.905237
O O9 0.107816 0.892185 0.621591
O O10 0.129009 0.000000 0.571585
O O11 0.702769 0.297232 0.489317
O O12 0.660538 0.194375 0.561957
O O13 0.818418 0.500000 0.872111
O O14 0.863085 0.579344 0.708286
O O15 0.875419 0.588249 0.986690
#
# Coordination Sequence:
#
# PCOD8307640 Si02
#       6
#    16  16  16  16  16  16
#     4   9  19  35  56  86 117 150 191 232 286 349
#     4  11  22  38  59  84 115 153 198 241 292 355
#     4  10  20  34  55  82 114 154 195 238 289 348
#     4  10  22  37  57  88 121 150 187 242 303 355
#     4  11  22  40  62  84 119 158 195 243 301 356
#     4  11  22  39  56  89 112 154 196 243 292 353
#
# _framework density 18.899149999999999
#
# number of rings (size 3 to 8) (size 9 to 14) (size 15 to 20)
#    0.000    1.667    3.333    1.500    0.000    5.500 
#    0.000    0.000    0.000    4.000    0.000    0.000 
#    0.000    4.000    0.000    0.000    0.000    0.000 
#
# Total GULP energy -594890.325827 kJ/mol
# GULP energy per Si atom -12393.548455 kJ/mol
# Density = 1.885613 g / cm^3
# Si number density = 18.899150 Si / 1000 Ang^3
#
#
#
# Elastic Constant Matrix: (Units=GPa)
#
#
# Indices 1 2 3 4 5 6 
#
# 1 84.2542 45.4325 40.1158 0.0000 0.0000 -0.0027
# 2 45.4325 84.2542 40.1158 0.0000 0.0000 0.0027
# 3 40.1158 40.1158 110.1454 0.0000 0.0000 0.0000
# 4 0.0000 0.0000 0.0000 25.5643 0.0000 0.0000
# 5 0.0000 0.0000 0.0000 0.0000 25.5643 0.0000
# 6 -0.0027 0.0027 0.0000 0.0000 0.0000 13.4545
#
#
#
# Elastic Compliance Matrix: (Units=1/GPa)
#
#
# Indices 1 2 3 4 5 6 
#
# 1 0.017856 -0.007903 -0.003625 0.000000 0.000000 0.000005
# 2 -0.007903 0.017856 -0.003625 0.000000 0.000000 -0.000005
# 3 -0.003625 -0.003625 0.011720 0.000000 0.000000 0.000000
# 4 0.000000 0.000000 0.000000 0.039117 0.000000 0.000000
# 5 0.000000 0.000000 0.000000 0.000000 0.039117 0.000000
# 6 0.000005 -0.000005 0.000000 0.000000 0.000000 0.074325
#
#
# Mechanical properties :
#
#
# Convention : Reuss Voigt Hill
#
# Bulk Modulus (GPa) = 58.39053 58.88690 58.63871
# Shear Modulus (GPa) = 21.18595 23.11593 22.15094
#
# Velocity S-wave (km/s) = 3.35177 3.50111 3.42725
# Velocity P-wave (km/s) = 6.77806 6.89709 6.83783
#
# Compressibility (1/GPa) = 0.01712607
#
# Stress axis : x y z
#
# Youngs Moduli (GPa) = 56.00297 56.00297 85.32748
#
# Poissons Ratio (x) = 0.44257 0.30933
# Poissons Ratio (y) = 0.44257 0.30933
# Poissons Ratio (z) = 0.20302 0.20302
#
# Static dielectric constant tensor:
#      x y z
#    x 3.382540 0.000000 0.000000 
#    y 0.000000 3.382540 0.000000 
#    z 0.000000 0.000000 3.746620 
# 
# 
# High freq. dielectric constant tensor:
#      x y z
#    x 1.716220 0.000000 0.000000 
#    y 0.000000 1.716220 0.000000 
#    z 0.000000 0.000000 1.752900 
# 
# From -- ./inp_files/1510.got.cif
#   From: 2010.03.12/outbox.cif.g09.slc.cpg/sg107_1_cif.got.tgz:1510.got - 2010.04.14 01:49:11.
