data_PCOD8307198
_publ_section_title
;
Structure prediction by ZEFSAII (Michael W. Deem and Ramdas Pophale) SiO2 
 PCOD8307198
Probable space group: P 42 M C
;
_chemical_formula_sum "Si O2"
_cell_formula_units_Z 48
_cell_length_a 9.121287
_cell_length_b 9.121287
_cell_length_c 31.531169
_cell_angle_alpha 90.000000
_cell_angle_beta 90.000000
_cell_angle_gamma 90.000000
_cell_volume 2623.326306
_symmetry_space_group_name_H-M "P 42 M C"
_symmetry_group_IT_number 105
_symmetry_cell_setting 'tetragonal'
loop_
_space_group_symop_operation_xyz
x,y,z
-y,x,1/2+z
-x,-y,z
y,-x,1/2+z
-x,y,z
x,-y,z
-y,-x,1/2+z
y,x,1/2+z
loop_
_atom_site_type_symbol
_atom_site_label
_atom_site_fract_x
_atom_site_fract_y
_atom_site_fract_z
Si Si1 0.674767 0.667838 0.723660
Si Si2 0.671311 0.829834 0.383769
Si Si3 0.674145 0.833436 0.959333
Si Si4 0.169885 0.829682 0.798517
Si Si5 0.670922 0.669601 0.132245
Si Si6 0.675099 0.333882 0.041418
O O1 0.500000 0.673893 0.725409
O O2 0.727580 0.500000 0.731001
O O3 0.739907 0.773399 0.758705
O O4 0.730197 0.731487 0.677430
O O5 0.500000 0.797212 0.380554
O O6 0.737412 0.737181 0.421683
O O7 0.745040 0.776231 0.340267
O O8 0.705070 0.000000 0.392017
O O9 0.500000 0.824122 0.957410
O O10 0.729634 0.000000 0.955241
O O11 0.734116 0.768684 0.003770
O O12 0.000000 0.798190 0.789740
O O13 0.202436 0.000000 0.805526
O O14 0.500000 0.697662 0.135415
O O15 0.707467 0.500000 0.128917
O O16 0.730652 0.734036 0.087147
O O17 0.500000 0.336584 0.041992
O O18 0.733170 0.500000 0.034245
#
# Coordination Sequence:
#
# PCOD8307198 Si02
#       6
#     8   8   8   8   8   8
#     4   9  17  30  50  76 102 127 159 200 242 284
#     4  10  21  37  56  74  92 121 164 208 247 291
#     4  10  20  32  48  74 106 134 160 195 242 294
#     4  10  21  36  52  70  95 128 162 197 242 294
#     4   7  11  22  42  68  96 125 158 196 237 279
#     4   8  13  24  44  68  95 128 163 199 238 278
#
# _framework density 18.29738
#
# number of rings (size 3 to 8) (size 9 to 14) (size 15 to 20)
#    0.000    3.000    0.000    3.500    0.000    4.000 
#    0.000    0.833    0.000    4.000    0.000    2.333 
#    0.000    0.000    0.000    0.000    0.000    0.000 
#
# Total GULP energy -594693.393084 kJ/mol
# GULP energy per Si atom -12389.445689 kJ/mol
# Density = 1.825573 g / cm^3
# Si number density = 18.297380 Si / 1000 Ang^3
#
#
#
# Elastic Constant Matrix: (Units=GPa)
#
#
# Indices 1 2 3 4 5 6 
#
# 1 51.7818 22.5021 47.8970 0.0000 0.0000 0.0000
# 2 22.5021 51.7818 47.8970 0.0000 0.0000 0.0000
# 3 47.8970 47.8970 186.0194 0.0000 0.0000 0.0000
# 4 0.0000 0.0000 0.0000 -7.4617 0.0000 0.0000
# 5 0.0000 0.0000 0.0000 0.0000 -7.4617 0.0000
# 6 0.0000 0.0000 0.0000 0.0000 0.0000 21.2981
#
#
#
# Elastic Compliance Matrix: (Units=1/GPa)
#
#
# Indices 1 2 3 4 5 6 
#
# 1 0.027154 -0.007000 -0.005189 0.000000 0.000000 0.000000
# 2 -0.007000 0.027154 -0.005189 0.000000 0.000000 0.000000
# 3 -0.005189 -0.005189 0.008048 0.000000 0.000000 0.000000
# 4 0.000000 0.000000 0.000000 -0.134018 0.000000 0.000000
# 5 0.000000 0.000000 0.000000 0.000000 -0.134018 0.000000
# 6 0.000000 0.000000 0.000000 0.000000 0.000000 0.046952
#
#
# Mechanical properties :
#
#
# Convention : Reuss Voigt Hill
#
# Bulk Modulus (GPa) = 36.23379 58.46389 47.34884
# Shear Modulus (GPa) = -43.56467 12.69407 -15.43530
#
# Velocity S-wave (km/s) = -4.88476 2.63680 -2.90760
# Velocity P-wave (km/s) = 3.45960 6.42586 3.82902
#
# Compressibility (1/GPa) = 0.02759855
#
# Stress axis : x y z
#
# Youngs Moduli (GPa) = 36.82751 36.82751 124.25312
#
# Poissons Ratio (x) = 0.25779 0.64478
# Poissons Ratio (y) = 0.25779 0.64478
# Poissons Ratio (z) = 0.19111 0.19111
#
# Static dielectric constant tensor:
#      x y z
#    x 3.130050 0.000000 0.000000 
#    y 0.000000 3.130050 0.000000 
#    z 0.000000 0.000000 3.906670 
# 
# 
# High freq. dielectric constant tensor:
#      x y z
#    x 1.676080 0.000000 0.000000 
#    y 0.000000 1.676080 0.000000 
#    z 0.000000 0.000000 1.739390 
# 
# From -- ./inp_files/4672.got.cif
#   From: 2010.03.12/outbox.cif.g09.slc.cpg/sg105_3_cif.got.tgz:4672.got - 2010.04.14 01:45:32.
