data_PCOD8307088
_publ_section_title
;
Structure prediction by ZEFSAII (Michael W. Deem and Ramdas Pophale) SiO2 
 PCOD8307088
Probable space group: P 4 N C 
;
_chemical_formula_sum "Si O2"
_cell_formula_units_Z 40
_cell_length_a 8.099107
_cell_length_b 8.099107
_cell_length_c 28.251187
_cell_angle_alpha 90.000000
_cell_angle_beta 90.000000
_cell_angle_gamma 90.000000
_cell_volume 1853.151703
_symmetry_space_group_name_H-M "P 4 N C "
_symmetry_group_IT_number 104
_symmetry_cell_setting 'tetragonal'
loop_
_space_group_symop_operation_xyz
x,y,z
-y,x,z
-x,-y,z
y,-x,z
1/2-x,1/2+y,1/2+z
1/2+x,1/2-y,1/2+z
1/2-y,1/2-x,1/2+z
1/2+y,1/2+x,1/2+z
loop_
_atom_site_type_symbol
_atom_site_label
_atom_site_fract_x
_atom_site_fract_y
_atom_site_fract_z
Si Si1 0.583666 0.238158 0.904120
Si Si2 0.917010 0.257994 0.161815
Si Si3 0.500000 0.000000 0.736668
Si Si4 0.916334 0.738158 0.814617
Si Si5 0.917010 0.257994 0.056923
Si Si6 0.500000 0.000000 0.482070
O O1 0.705819 0.393273 0.903931
O O2 0.623285 0.123285 0.859369
O O3 0.611102 0.122623 0.950013
O O4 0.892007 0.335727 0.109369
O O5 0.795770 0.105997 0.168132
O O6 0.882081 0.389787 0.202913
O O7 0.622623 0.111102 0.768724
O O8 0.106727 0.794181 0.814806
O O9 0.795770 0.105997 0.050605
O O10 0.882081 0.389787 0.015824
#
# Coordination Sequence:
#
# PCOD8307088 Si02
#       6
#     8   8   4   8   8   4
#     4  11  24  41  60  84 116 153 194 241 294 353
#     4   9  19  35  54  79 112 149 188 229 277 338
#     4  12  20  34  58  86 112 144 188 240 292 338
#     4  11  24  41  60  84 116 153 194 241 294 353
#     4   9  19  35  54  79 112 149 188 229 277 338
#     4  12  20  34  58  86 112 144 188 240 292 338
#
# _framework density 21.584849999999999
#
# number of rings (size 3 to 8) (size 9 to 14) (size 15 to 20)
#    0.000    1.600    0.000    7.200    0.000    0.000 
#    0.000    4.000    0.000    0.000    0.000   16.800 
#    0.000    0.000    0.000    0.000    0.000    0.000 
#
# Total GULP energy -495940.654224 kJ/mol
# GULP energy per Si atom -12398.516356 kJ/mol
# Density = 2.153572 g / cm^3
# Si number density = 21.584850 Si / 1000 Ang^3
#
#
#
# Elastic Constant Matrix: (Units=GPa)
#
#
# Indices 1 2 3 4 5 6 
#
# 1 65.6702 6.4030 37.6003 0.0000 0.0000 0.0000
# 2 6.4030 65.6702 37.6003 0.0000 0.0000 0.0000
# 3 37.6003 37.6003 169.8675 0.0000 0.0000 0.0000
# 4 0.0000 0.0000 0.0000 22.9463 0.0000 0.0000
# 5 0.0000 0.0000 0.0000 0.0000 22.9463 0.0000
# 6 0.0000 0.0000 0.0000 0.0000 0.0000 28.3317
#
#
#
# Elastic Compliance Matrix: (Units=1/GPa)
#
#
# Indices 1 2 3 4 5 6 
#
# 1 0.017457 0.000584 -0.003994 0.000000 0.000000 0.000000
# 2 0.000584 0.017457 -0.003994 0.000000 0.000000 0.000000
# 3 -0.003994 -0.003994 0.007655 0.000000 0.000000 0.000000
# 4 0.000000 0.000000 0.000000 0.043580 0.000000 0.000000
# 5 0.000000 0.000000 0.000000 0.000000 0.043580 0.000000
# 6 0.000000 0.000000 0.000000 0.000000 0.000000 0.035296
#
#
# Mechanical properties :
#
#
# Convention : Reuss Voigt Hill
#
# Bulk Modulus (GPa) = 36.01789 51.60166 43.80977
# Shear Modulus (GPa) = 26.44311 29.48517 27.96414
#
# Velocity S-wave (km/s) = 3.50391 3.69997 3.60327
# Velocity P-wave (km/s) = 5.75263 6.49703 6.13612
#
# Compressibility (1/GPa) = 0.02776398
#
# Stress axis : x y z
#
# Youngs Moduli (GPa) = 57.28311 57.28311 130.63578
#
# Poissons Ratio (x) = -0.03348 0.52170
# Poissons Ratio (y) = -0.03348 0.52170
# Poissons Ratio (z) = 0.22876 0.22876
#
# Static dielectric constant tensor:
#      x y z
#    x 3.712440 0.000000 0.000000 
#    y 0.000000 3.712440 0.000000 
#    z 0.000000 0.000000 4.099750 
# 
# 
# High freq. dielectric constant tensor:
#      x y z
#    x 1.835070 0.000000 0.000000 
#    y 0.000000 1.835070 0.000000 
#    z 0.000000 0.000000 1.868180 
# 
# From -- ./inp_files/1748.got.cif
#   From: 2010.03.12/outbox.cif.g09.slc.cpg/sg104_cif.got.tgz:1748.got - 2010.04.14 01:44:05.
