data_PCOD8307673
_publ_section_title
;
Structure prediction by ZEFSAII (Michael W. Deem and Ramdas Pophale) SiO2 
 PCOD8307673
Probable space group: I 4 M M
;
_chemical_formula_sum "Si O2"
_cell_formula_units_Z 96
_cell_length_a 22.858451
_cell_length_b 22.858451
_cell_length_c 12.956222
_cell_angle_alpha 90.000000
_cell_angle_beta 90.000000
_cell_angle_gamma 90.000000
_cell_volume 6769.739778
_symmetry_space_group_name_H-M "I 4 M M"
_symmetry_group_IT_number 107
_symmetry_cell_setting 'tetragonal'
loop_
_space_group_symop_operation_xyz
x,y,z
-y,x,z
-x,-y,z
y,-x,z
-x,y,z
x,-y,z
-y,-x,z
y,x,z
1/2+x,1/2+y,1/2+z
1/2-y,1/2+x,1/2+z
1/2-x,1/2-y,1/2+z
1/2+y,1/2-x,1/2+z
1/2-x,1/2+y,1/2+z
1/2+x,1/2-y,1/2+z
1/2-y,1/2-x,1/2+z
1/2+y,1/2+x,1/2+z
loop_
_atom_site_type_symbol
_atom_site_label
_atom_site_fract_x
_atom_site_fract_y
_atom_site_fract_z
Si Si1 0.500000 0.931806 0.529650
Si Si2 0.568194 0.000000 0.787436
Si Si3 0.842894 0.064809 0.285781
Si Si4 0.106829 0.393172 0.158542
Si Si5 0.564809 0.342894 0.031289
Si Si6 0.210976 0.431528 0.026413
Si Si7 0.289024 0.068473 0.290665
O O1 0.500000 0.923846 0.408543
O O2 0.557038 0.899920 0.572649
O O3 0.500000 0.000000 0.561304
O O4 0.600080 0.942962 0.744436
O O5 0.500000 0.000000 0.755783
O O6 0.888213 0.111788 0.238238
O O7 0.846325 0.064532 0.408535
O O8 0.777009 0.081105 0.252716
O O9 0.859312 0.000000 0.244349
O O10 0.169102 0.395833 0.102216
O O11 0.104168 0.330898 0.214865
O O12 0.500000 0.359313 0.072720
O O13 0.611788 0.388213 0.078832
O O14 0.581104 0.277010 0.064357
O O15 0.195895 0.500000 0.033809
O O16 0.202125 0.410338 0.908539
O O17 0.304105 0.000000 0.283268
#
# Coordination Sequence:
#
# PCOD8307673 Si02
#       7
#     8   8  16  16  16  16  16
#     4  11  20  28  38  56  78 100 137 186 221 239
#     4  11  20  28  38  56  78 100 137 186 221 239
#     4   8  14  25  41  61  83 107 132 160 198 244
#     4  12  17  28  39  56  74 110 142 174 209 237
#     4   8  14  25  41  61  83 107 132 160 198 244
#     4   9  17  28  41  56  79 110 140 168 202 247
#     4   9  17  28  41  56  79 110 140 168 202 247
#
# _framework density 14.180751000000001
#
# number of rings (size 3 to 8) (size 9 to 14) (size 15 to 20)
#    0.000    2.500    3.333    3.000    0.000    3.000 
#    0.000    2.500    0.000    0.000    0.000    0.000 
#    0.000    0.000    0.000    0.000    0.000    3.000 
#
# Total GULP energy -595074.052696 kJ/mol
# GULP energy per Si atom -12397.376098 kJ/mol
# Density = 1.414848 g / cm^3
# Si number density = 14.180751 Si / 1000 Ang^3
#
#
#
# Elastic Constant Matrix: (Units=GPa)
#
#
# Indices 1 2 3 4 5 6 
#
# 1 99.8072 68.8103 36.1064 0.0000 0.0000 0.0000
# 2 68.8103 99.8072 36.1064 0.0000 0.0000 0.0000
# 3 36.1064 36.1064 53.8629 0.0000 0.0000 0.0000
# 4 0.0000 0.0000 0.0000 -3.3582 0.0000 0.0000
# 5 0.0000 0.0000 0.0000 0.0000 -3.3582 0.0000
# 6 0.0000 0.0000 0.0000 0.0000 0.0000 23.0666
#
#
#
# Elastic Compliance Matrix: (Units=1/GPa)
#
#
# Indices 1 2 3 4 5 6 
#
# 1 0.020290 -0.011971 -0.005576 0.000000 0.000000 0.000000
# 2 -0.011971 0.020290 -0.005576 0.000000 0.000000 0.000000
# 3 -0.005576 -0.005576 0.026042 0.000000 0.000000 0.000000
# 4 0.000000 0.000000 0.000000 -0.297778 0.000000 0.000000
# 5 0.000000 0.000000 0.000000 0.000000 -0.297778 0.000000
# 6 0.000000 0.000000 0.000000 0.000000 0.000000 0.043353
#
#
# Mechanical properties :
#
#
# Convention : Reuss Voigt Hill
#
# Bulk Modulus (GPa) = 49.08273 59.50261 54.29267
# Shear Modulus (GPa) = -11.55959 10.76698 -0.39631
#
# Velocity S-wave (km/s) = -2.85820 2.75847 -0.52922
# Velocity P-wave (km/s) = 4.87801 7.22473 6.16408
#
# Compressibility (1/GPa) = 0.02037376
#
# Stress axis : x y z
#
# Youngs Moduli (GPa) = 49.28529 49.28529 38.39986
#
# Poissons Ratio (x) = 0.59001 0.21413
# Poissons Ratio (y) = 0.59001 0.21413
# Poissons Ratio (z) = 0.27483 0.27483
#
# Static dielectric constant tensor:
#      x y z
#    x 2.856770 0.000000 0.000000 
#    y 0.000000 2.856770 0.000000 
#    z 0.000000 0.000000 2.488620 
# 
# 
# High freq. dielectric constant tensor:
#      x y z
#    x 1.533730 0.000000 0.000000 
#    y 0.000000 1.533730 0.000000 
#    z 0.000000 0.000000 1.504620 
# 
# From -- ./inp_files/2548.got.cif
#   From: 2010.03.12/outbox.cif.g09.slc.cpg/sg107_2_cif.got.tgz:2548.got - 2010.04.14 01:49:11.
