data_PCOD8307208
_publ_section_title
;
Structure prediction by ZEFSAII (Michael W. Deem and Ramdas Pophale) SiO2 
 PCOD8307208
Probable space group: P 42 M C
;
_chemical_formula_sum "Si O2"
_cell_formula_units_Z 48
_cell_length_a 9.227383
_cell_length_b 9.227383
_cell_length_c 31.206052
_cell_angle_alpha 90.000000
_cell_angle_beta 90.000000
_cell_angle_gamma 90.000000
_cell_volume 2657.026722
_symmetry_space_group_name_H-M "P 42 M C"
_symmetry_group_IT_number 105
_symmetry_cell_setting 'tetragonal'
loop_
_space_group_symop_operation_xyz
x,y,z
-y,x,1/2+z
-x,-y,z
y,-x,1/2+z
-x,y,z
x,-y,z
-y,-x,1/2+z
y,x,1/2+z
loop_
_atom_site_type_symbol
_atom_site_label
_atom_site_fract_x
_atom_site_fract_y
_atom_site_fract_z
Si Si1 0.672548 0.663427 0.039600
Si Si2 0.162800 0.672504 0.459114
Si Si3 0.830111 0.334240 0.715412
Si Si4 0.662688 0.327901 0.633754
Si Si5 0.170489 0.831974 0.799814
Si Si6 0.667588 0.671120 0.375435
O O1 0.500000 0.664593 0.037709
O O2 0.728009 0.500000 0.031199
O O3 0.725340 0.717186 0.086751
O O4 0.736159 0.768368 0.002922
O O5 0.160974 0.500000 0.460758
O O6 0.259142 0.725819 0.419325
O O7 0.000000 0.733739 0.454259
O O8 0.779852 0.500000 0.723748
O O9 0.761518 0.267418 0.672094
O O10 0.778179 0.236319 0.754908
O O11 0.000000 0.325719 0.709030
O O12 0.500000 0.272008 0.641461
O O13 0.667751 0.500000 0.634382
O O14 0.252461 0.748186 0.836798
O O15 0.000000 0.810178 0.806436
O O16 0.214645 0.000000 0.800574
O O17 0.500000 0.717588 0.376072
O O18 0.685130 0.500000 0.369854
#
# Coordination Sequence:
#
# PCOD8307208 Si02
#       6
#     8   8   8   8   8   8
#     4   8  13  22  36  56  86 122 155 188 230 279
#     4   9  16  25  39  62  93 126 158 194 237 285
#     4   9  17  29  45  65  89 116 148 188 232 279
#     4   8  14  24  39  61  89 120 153 189 230 277
#     4  10  21  36  52  70  94 125 160 198 241 290
#     4  10  20  33  50  72  97 126 160 199 244 292
#
# _framework density 18.065306
#
# number of rings (size 3 to 8) (size 9 to 14) (size 15 to 20)
#    0.000    3.000    0.000    2.500    0.000    5.333 
#    0.000    5.000    0.000    0.000    0.000    1.167 
#    0.000    4.000    0.000    0.000    0.000    0.000 
#
# Total GULP energy -594989.044027 kJ/mol
# GULP energy per Si atom -12395.605084 kJ/mol
# Density = 1.802419 g / cm^3
# Si number density = 18.065306 Si / 1000 Ang^3
#
#
#
# Elastic Constant Matrix: (Units=GPa)
#
#
# Indices 1 2 3 4 5 6 
#
# 1 70.2993 32.6677 69.4663 0.0000 0.0000 0.0000
# 2 32.6677 70.2993 69.4663 0.0000 0.0000 0.0000
# 3 69.4663 69.4663 201.4858 0.0000 0.0000 0.0000
# 4 0.0000 0.0000 0.0000 1.1200 0.0000 0.0000
# 5 0.0000 0.0000 0.0000 0.0000 1.1200 0.0000
# 6 0.0000 0.0000 0.0000 0.0000 0.0000 15.0309
#
#
#
# Elastic Compliance Matrix: (Units=1/GPa)
#
#
# Indices 1 2 3 4 5 6 
#
# 1 0.022367 -0.004207 -0.006261 0.000000 0.000000 0.000000
# 2 -0.004207 0.022367 -0.006261 0.000000 0.000000 0.000000
# 3 -0.006261 -0.006261 0.009280 0.000000 0.000000 0.000000
# 4 0.000000 0.000000 0.000000 0.892861 0.000000 0.000000
# 5 0.000000 0.000000 0.000000 0.000000 0.892861 0.000000
# 6 0.000000 0.000000 0.000000 0.000000 0.000000 0.066530
#
#
# Mechanical properties :
#
#
# Convention : Reuss Voigt Hill
#
# Bulk Modulus (GPa) = 48.64776 76.14276 62.39526
# Shear Modulus (GPa) = 2.56861 14.81979 8.69420
#
# Velocity S-wave (km/s) = 1.19371 2.86727 2.19616
# Velocity P-wave (km/s) = 5.37468 7.29396 6.40660
#
# Compressibility (1/GPa) = 0.02055593
#
# Stress axis : x y z
#
# Youngs Moduli (GPa) = 44.70969 44.70969 107.75549
#
# Poissons Ratio (x) = 0.18809 0.67465
# Poissons Ratio (y) = 0.18809 0.67465
# Poissons Ratio (z) = 0.27992 0.27992
#
# Static dielectric constant tensor:
#      x y z
#    x 3.164260 0.000000 0.000000 
#    y 0.000000 3.164260 0.000000 
#    z 0.000000 0.000000 3.763030 
# 
# 
# High freq. dielectric constant tensor:
#      x y z
#    x 1.668160 0.000000 0.000000 
#    y 0.000000 1.668160 0.000000 
#    z 0.000000 0.000000 1.720650 
# 
# From -- ./inp_files/4703.got.cif
#   From: 2010.03.12/outbox.cif.g09.slc.cpg/sg105_3_cif.got.tgz:4703.got - 2010.04.14 01:45:32.
