data_PCOD8307794
_publ_section_title
;
Structure prediction by ZEFSAII (Michael W. Deem and Ramdas Pophale) SiO2 
 PCOD8307794
Probable space group: I 4 C M
;
_chemical_formula_sum "Si O2"
_cell_formula_units_Z 84
_cell_length_a 13.530799
_cell_length_b 13.530799
_cell_length_c 21.484572
_cell_angle_alpha 90.000000
_cell_angle_beta 90.000000
_cell_angle_gamma 90.000000
_cell_volume 3933.449617
_symmetry_space_group_name_H-M "I 4 C M"
_symmetry_group_IT_number 108
_symmetry_cell_setting 'tetragonal'
loop_
_space_group_symop_operation_xyz
x,y,z
-y,x,z
-x,-y,z
y,-x,z
-x,y,1/2+z
x,-y,1/2+z
-y,-x,1/2+z
y,x,1/2+z
1/2+x,1/2+y,1/2+z
1/2-y,1/2+x,1/2+z
1/2-x,1/2-y,1/2+z
1/2+y,1/2-x,1/2+z
1/2-x,1/2+y,z
1/2+x,1/2-y,z
1/2-y,1/2-x,z
1/2+y,1/2+x,z
loop_
_atom_site_type_symbol
_atom_site_label
_atom_site_fract_x
_atom_site_fract_y
_atom_site_fract_z
Si Si1 0.500000 0.000000 0.502650
Si Si2 0.890656 0.609345 0.111105
Si Si3 0.223410 0.560956 0.184876
Si Si4 0.377275 0.877275 0.402037
Si Si5 0.701620 0.046952 0.821978
Si Si6 0.240775 0.740775 0.533671
Si Si7 0.919240 0.138969 0.078068
Si Si8 0.780899 0.280899 0.403655
O O1 0.567097 0.932904 0.546647
O O2 0.432448 0.932448 0.457718
O O3 0.840027 0.523655 0.151238
O O4 0.808705 0.691296 0.094689
O O5 0.161804 0.661804 0.186476
O O6 0.252264 0.528206 0.255189
O O7 0.326694 0.584284 0.150213
O O8 0.446722 0.810782 0.358927
O O9 0.298928 0.798928 0.426777
O O10 0.591463 0.091463 0.810816
O O11 0.763290 0.125977 0.864666
O O12 0.220407 0.859822 0.537216
O O13 0.188025 0.688025 0.473786
O O14 0.035216 0.133688 0.062450
#
# Coordination Sequence:
#
# PCOD8307794 Si02
#       8
#     4   8  16   8  16   8  16   8
#     4  12  24  34  64  98 142 168 226 278 340 394
#     4  12  23  37  64 107 128 177 218 278 342 408
#     4  11  21  40  68  98 137 159 216 278 341 403
#     4  12  21  41  70  89 134 177 218 283 337 377
#     4   9  21  43  62 100 125 162 219 270 329 405
#     4  12  24  42  63  87 138 170 226 268 325 406
#     4  11  25  42  63  96 132 174 216 270 346 406
#     4  10  26  38  64  96 125 176 225 267 328 391
#
# _framework density 21.3553
#
# number of rings (size 3 to 8) (size 9 to 14) (size 15 to 20)
#    0.571    0.571    4.762    1.714    2.667    4.571 
#    3.429    0.000    0.000    0.571    0.000    0.000 
#    0.000    0.000    0.000    0.000    0.000    0.000 
#
# Total GULP energy -520382.834806 kJ/mol
# GULP energy per Si atom -12390.067495 kJ/mol
# Density = 2.130669 g / cm^3
# Si number density = 21.355300 Si / 1000 Ang^3
#
#
#
# Elastic Constant Matrix: (Units=GPa)
#
#
# Indices 1 2 3 4 5 6 
#
# 1 84.4710 54.9681 43.9056 0.0000 0.0000 0.0001
# 2 54.9681 84.4710 43.9056 0.0000 0.0000 -0.0001
# 3 43.9056 43.9056 153.1026 0.0000 0.0000 0.0000
# 4 0.0000 0.0000 0.0000 23.2995 0.0000 0.0000
# 5 0.0000 0.0000 0.0000 0.0000 23.2995 0.0000
# 6 0.0001 -0.0001 0.0000 0.0000 0.0000 39.1632
#
#
#
# Elastic Compliance Matrix: (Units=1/GPa)
#
#
# Indices 1 2 3 4 5 6 
#
# 1 0.021324 -0.012571 -0.002510 0.000000 0.000000 0.000000
# 2 -0.012571 0.021324 -0.002510 0.000000 0.000000 0.000000
# 3 -0.002510 -0.002510 0.007971 0.000000 0.000000 0.000000
# 4 0.000000 0.000000 0.000000 0.042919 0.000000 0.000000
# 5 0.000000 0.000000 0.000000 0.000000 0.042919 0.000000
# 6 0.000000 0.000000 0.000000 0.000000 0.000000 0.025534
#
#
# Mechanical properties :
#
#
# Convention : Reuss Voigt Hill
#
# Bulk Modulus (GPa) = 64.78395 67.51146 66.14771
# Shear Modulus (GPa) = 24.71345 29.10345 26.90845
#
# Velocity S-wave (km/s) = 3.40553 3.69565 3.55355
# Velocity P-wave (km/s) = 6.77242 7.06346 6.91947
#
# Compressibility (1/GPa) = 0.01543592
#
# Stress axis : x y z
#
# Youngs Moduli (GPa) = 46.89642 46.89642 125.45331
#
# Poissons Ratio (x) = 0.58955 0.31487
# Poissons Ratio (y) = 0.58955 0.31487
# Poissons Ratio (z) = 0.11770 0.11770
#
# Static dielectric constant tensor:
#      x y z
#    x 3.729850 0.000000 0.000000 
#    y 0.000000 3.729850 0.000000 
#    z 0.000000 0.000000 4.000330 
# 
# 
# High freq. dielectric constant tensor:
#      x y z
#    x 1.825400 0.000000 0.000000 
#    y 0.000000 1.825400 0.000000 
#    z 0.000000 0.000000 1.845720 
# 
# From -- ./inp_files/2888.got.cif
#   From: 2010.03.12/outbox.cif.g09.slc.cpg/sg108_2_cif.got.tgz:2888.got - 2010.04.14 01:53:11.
