data_PCOD8307880
_publ_section_title
;
Structure prediction by ZEFSAII (Michael W. Deem and Ramdas Pophale) SiO2 
 PCOD8307880
Probable space group: I 41 M D
;
_chemical_formula_sum "Si O2"
_cell_formula_units_Z 96
_cell_length_a 23.830301
_cell_length_b 23.830301
_cell_length_c 10.176128
_cell_angle_alpha 90.000000
_cell_angle_beta 90.000000
_cell_angle_gamma 90.000000
_cell_volume 5778.852598
_symmetry_space_group_name_H-M "I 41 M D"
_symmetry_group_IT_number 109
_symmetry_cell_setting 'tetragonal'
loop_
_space_group_symop_operation_xyz
x,y,z
-y,1/2+x,1/4+z
-x,-y,z
y,1/2-x,1/4+z
-x,y,z
x,-y,z
-y,1/2-x,1/4+z
y,1/2+x,1/4+z
1/2+x,1/2+y,1/2+z
1/2-y,x,3/4+z
1/2-x,1/2-y,1/2+z
1/2+y,-x,3/4+z
1/2-x,1/2+y,1/2+z
1/2+x,1/2-y,1/2+z
1/2-y,-x,3/4+z
1/2+y,x,3/4+z
loop_
_atom_site_type_symbol
_atom_site_label
_atom_site_fract_x
_atom_site_fract_y
_atom_site_fract_z
Si Si1 0.341624 0.872220 0.641230
Si Si2 0.653906 0.435568 0.038813
Si Si3 0.274088 0.394963 0.270535
Si Si4 0.936387 0.316854 0.272776
Si Si5 0.771374 0.066346 0.301248
Si Si6 0.849417 0.565349 0.887590
O O1 0.341743 0.815418 0.550675
O O2 0.286777 0.873566 0.730666
O O3 0.396256 0.869777 0.737223
O O4 0.347875 0.925612 0.545553
O O5 0.635107 0.500000 0.021397
O O6 0.699098 0.432383 0.155735
O O7 0.598401 0.399934 0.068482
O O8 0.683617 0.411226 0.907560
O O9 0.270889 0.432219 0.404446
O O10 0.914007 0.289079 0.406547
O O11 0.000000 0.338488 0.288716
O O12 0.709093 0.089273 0.330100
O O13 0.768999 0.000000 0.314253
O O14 0.858672 0.500000 0.858277
#
# Coordination Sequence:
#
# PCOD8307880 Si02
#       6
#    16  16  16  16  16  16
#     4   9  19  33  53  76 109 135 177 214 264 307
#     4  10  19  33  55  77 106 141 175 215 267 316
#     4   9  18  32  51  75 105 138 174 212 255 318
#     4   9  19  33  55  79 106 137 178 218 258 314
#     4   9  18  34  53  77 105 140 178 217 256 309
#     4  10  20  33  54  83 108 132 179 226 261 310
#
# _framework density 16.612293999999999
#
# number of rings (size 3 to 8) (size 9 to 14) (size 15 to 20)
#    1.000    1.667    1.667    0.500    0.000    2.333 
#    0.000    3.333    0.000    1.000    0.000    2.333 
#    0.000    0.000    0.000    0.000    0.000    0.000 
#
# Total GULP energy -594782.754081 kJ/mol
# GULP energy per Si atom -12391.307377 kJ/mol
# Density = 1.657448 g / cm^3
# Si number density = 16.612294 Si / 1000 Ang^3
#
#
#
# Elastic Constant Matrix: (Units=GPa)
#
#
# Indices 1 2 3 4 5 6 
#
# 1 81.8720 37.4749 38.0542 0.0000 0.0000 0.0000
# 2 37.4749 81.8720 38.0542 0.0000 0.0000 0.0000
# 3 38.0542 38.0542 130.0334 0.0000 0.0000 0.0000
# 4 0.0000 0.0000 0.0000 26.4856 0.0000 0.0000
# 5 0.0000 0.0000 0.0000 0.0000 26.4856 0.0000
# 6 0.0000 0.0000 0.0000 0.0000 0.0000 15.3619
#
#
#
# Elastic Compliance Matrix: (Units=1/GPa)
#
#
# Indices 1 2 3 4 5 6 
#
# 1 0.016413 -0.006111 -0.003015 0.000000 0.000000 0.000000
# 2 -0.006111 0.016413 -0.003015 0.000000 0.000000 0.000000
# 3 -0.003015 -0.003015 0.009455 0.000000 0.000000 0.000000
# 4 0.000000 0.000000 0.000000 0.037756 0.000000 0.000000
# 5 0.000000 0.000000 0.000000 0.000000 0.037756 0.000000
# 6 0.000000 0.000000 0.000000 0.000000 0.000000 0.065096
#
#
# Mechanical properties :
#
#
# Convention : Reuss Voigt Hill
#
# Bulk Modulus (GPa) = 55.55902 57.88266 56.72084
# Shear Modulus (GPa) = 23.45543 25.67957 24.56750
#
# Velocity S-wave (km/s) = 3.76165 3.93595 3.84979
# Velocity P-wave (km/s) = 7.23766 7.45483 7.34705
#
# Compressibility (1/GPa) = 0.01799888
#
# Stress axis : x y z
#
# Youngs Moduli (GPa) = 60.92835 60.92835 105.76594
#
# Poissons Ratio (x) = 0.37235 0.31885
# Poissons Ratio (y) = 0.37235 0.31885
# Poissons Ratio (z) = 0.18368 0.18368
#
# Static dielectric constant tensor:
#      x y z
#    x 2.909850 0.000000 0.000000 
#    y 0.000000 2.909850 0.000000 
#    z 0.000000 0.000000 3.268150 
# 
# 
# High freq. dielectric constant tensor:
#      x y z
#    x 1.620470 0.000000 0.000000 
#    y 0.000000 1.620470 0.000000 
#    z 0.000000 0.000000 1.649620 
# 
# From -- ./inp_files/2106.got.cif
#   From: 2010.03.12/outbox.cif.g09.slc.cpg/sg109_2_cif.got.tgz:2106.got - 2010.04.14 01:55:16.
