data_PCOD8307864
_publ_section_title
;
Structure prediction by ZEFSAII (Michael W. Deem and Ramdas Pophale) SiO2 
 PCOD8307864
Probable space group: I 41 M D
;
_chemical_formula_sum "Si O2"
_cell_formula_units_Z 96
_cell_length_a 26.588159
_cell_length_b 26.588159
_cell_length_c 7.226410
_cell_angle_alpha 90.000000
_cell_angle_beta 90.000000
_cell_angle_gamma 90.000000
_cell_volume 5108.567459
_symmetry_space_group_name_H-M "I 41 M D"
_symmetry_group_IT_number 109
_symmetry_cell_setting 'tetragonal'
loop_
_space_group_symop_operation_xyz
x,y,z
-y,1/2+x,1/4+z
-x,-y,z
y,1/2-x,1/4+z
-x,y,z
x,-y,z
-y,1/2-x,1/4+z
y,1/2+x,1/4+z
1/2+x,1/2+y,1/2+z
1/2-y,x,3/4+z
1/2-x,1/2-y,1/2+z
1/2+y,-x,3/4+z
1/2-x,1/2+y,1/2+z
1/2+x,1/2-y,1/2+z
1/2-y,-x,3/4+z
1/2+y,x,3/4+z
loop_
_atom_site_type_symbol
_atom_site_label
_atom_site_fract_x
_atom_site_fract_y
_atom_site_fract_z
Si Si1 0.670205 0.058734 0.490880
Si Si2 0.124711 0.823920 0.078625
Si Si3 0.217049 0.699165 0.838542
Si Si4 0.773208 0.864167 0.040941
Si Si5 0.058837 0.282077 0.598124
Si Si6 0.870759 0.366123 0.728925
O O1 0.663501 0.076808 0.702317
O O2 0.727967 0.071973 0.437075
O O3 0.627563 0.083042 0.352993
O O4 0.659729 0.000000 0.482926
O O5 0.173143 0.844710 0.967288
O O6 0.129290 0.764117 0.118147
O O7 0.119107 0.851937 0.275097
O O8 0.244223 0.700473 0.035892
O O9 0.256330 0.678112 0.687494
O O10 0.169495 0.664031 0.849847
O O11 0.780858 0.917513 0.143744
O O12 0.080319 0.330043 0.715727
O O13 0.000000 0.291015 0.580226
#
# Coordination Sequence:
#
# PCOD8307864 Si02
#       6
#    16  16  16  16  16  16
#     4  11  23  36  57  84 109 148 188 230 287 339
#     4  10  21  34  52  79 113 148 188 225 273 338
#     4  11  18  30  46  77 110 150 184 210 266 329
#     4  10  18  35  50  77 113 156 183 227 271 330
#     4  10  20  37  59  83 112 150 194 232 279 334
#     4  10  20  40  54  75 115 147 184 235 277 335
#
# _framework density 18.791961000000001
#
# number of rings (size 3 to 8) (size 9 to 14) (size 15 to 20)
#    0.000    1.667    8.333    0.000    2.333    4.000 
#    0.000    0.000    0.000    0.500    0.000    0.000 
#    0.000    0.000    0.000    0.000    0.000    0.000 
#
# Total GULP energy -594906.310595 kJ/mol
# GULP energy per Si atom -12393.881471 kJ/mol
# Density = 1.874919 g / cm^3
# Si number density = 18.791961 Si / 1000 Ang^3
#
#
#
# Elastic Constant Matrix: (Units=GPa)
#
#
# Indices 1 2 3 4 5 6 
#
# 1 90.3966 34.3132 24.3913 0.0000 0.0000 0.0000
# 2 34.3132 90.3966 24.3913 0.0000 0.0000 0.0000
# 3 24.3913 24.3913 62.0944 0.0000 0.0000 0.0000
# 4 0.0000 0.0000 0.0000 23.6024 0.0000 0.0000
# 5 0.0000 0.0000 0.0000 0.0000 23.6024 0.0000
# 6 0.0000 0.0000 0.0000 0.0000 0.0000 21.7319
#
#
#
# Elastic Compliance Matrix: (Units=1/GPa)
#
#
# Indices 1 2 3 4 5 6 
#
# 1 0.013652 -0.004178 -0.003722 0.000000 0.000000 0.000000
# 2 -0.004178 0.013652 -0.003722 0.000000 0.000000 0.000000
# 3 -0.003722 -0.003722 0.019028 0.000000 0.000000 0.000000
# 4 0.000000 0.000000 0.000000 0.042369 0.000000 0.000000
# 5 0.000000 0.000000 0.000000 0.000000 0.042369 0.000000
# 6 0.000000 0.000000 0.000000 0.000000 0.000000 0.046015
#
#
# Mechanical properties :
#
#
# Convention : Reuss Voigt Hill
#
# Bulk Modulus (GPa) = 43.30777 45.45326 44.38052
# Shear Modulus (GPa) = 24.03555 24.44014 24.23784
#
# Velocity S-wave (km/s) = 3.58024 3.61025 3.59527
# Velocity P-wave (km/s) = 6.33930 6.45125 6.39552
#
# Compressibility (1/GPa) = 0.02309054
#
# Stress axis : x y z
#
# Youngs Moduli (GPa) = 73.24670 73.24670 52.55330
#
# Poissons Ratio (x) = 0.30603 0.19558
# Poissons Ratio (y) = 0.30603 0.19558
# Poissons Ratio (z) = 0.27260 0.27260
#
# Static dielectric constant tensor:
#      x y z
#    x 3.356240 0.000000 0.000000 
#    y 0.000000 3.356240 0.000000 
#    z 0.000000 0.000000 3.310110 
# 
# 
# High freq. dielectric constant tensor:
#      x y z
#    x 1.705060 0.000000 0.000000 
#    y 0.000000 1.705060 0.000000 
#    z 0.000000 0.000000 1.732770 
# 
# From -- ./inp_files/1514.got.cif
#   From: 2010.03.12/outbox.cif.g09.slc.cpg/sg109_1_cif.got.tgz:1514.got - 2010.04.14 01:55:16.
