data_PCOD8307865
_publ_section_title
;
Structure prediction by ZEFSAII (Michael W. Deem and Ramdas Pophale) SiO2 
 PCOD8307865
Probable space group: I 41 M D
;
_chemical_formula_sum "Si O2"
_cell_formula_units_Z 84
_cell_length_a 11.601866
_cell_length_b 11.601866
_cell_length_c 29.778474
_cell_angle_alpha 90.000000
_cell_angle_beta 90.000000
_cell_angle_gamma 90.000000
_cell_volume 4008.280711
_symmetry_space_group_name_H-M "I 41 M D"
_symmetry_group_IT_number 109
_symmetry_cell_setting 'tetragonal'
loop_
_space_group_symop_operation_xyz
x,y,z
-y,1/2+x,1/4+z
-x,-y,z
y,1/2-x,1/4+z
-x,y,z
x,-y,z
-y,1/2-x,1/4+z
y,1/2+x,1/4+z
1/2+x,1/2+y,1/2+z
1/2-y,x,3/4+z
1/2-x,1/2-y,1/2+z
1/2+y,-x,3/4+z
1/2-x,1/2+y,1/2+z
1/2+x,1/2-y,1/2+z
1/2-y,-x,3/4+z
1/2+y,x,3/4+z
loop_
_atom_site_type_symbol
_atom_site_label
_atom_site_fract_x
_atom_site_fract_y
_atom_site_fract_z
Si Si1 0.500000 0.865773 0.898330
Si Si2 0.317149 0.500000 0.901175
Si Si3 0.500000 0.000000 0.074969
Si Si4 0.000000 0.129511 0.586869
Si Si5 0.254137 0.779144 0.171811
Si Si6 0.364563 0.278248 0.509415
Si Si7 0.753660 0.000000 0.052748
Si Si8 0.865691 0.749740 0.830786
O O1 0.383855 0.837290 0.926326
O O2 0.500000 0.781751 0.855458
O O3 0.500000 0.000000 0.884686
O O4 0.387080 0.500000 0.855105
O O5 0.184790 0.500000 0.886244
O O6 0.337808 0.618516 0.928118
O O7 0.615459 0.000000 0.044792
O O8 0.880357 0.157427 0.560837
O O9 0.000000 0.000000 0.601899
O O10 0.237986 0.685935 0.210208
O O11 0.233919 0.713789 0.124630
O O12 0.500000 0.294948 0.505001
O O13 0.307967 0.389217 0.530788
O O14 0.338193 0.169911 0.541799
O O15 0.000000 0.770381 0.842696
#
# Coordination Sequence:
#
# PCOD8307865 Si02
#       8
#     8   8   4   8  16  16   8  16
#     4  12  24  44  70  97 137 182 230 287 354 415
#     4  10  18  38  64  99 132 170 221 279 344 407
#     4  12  20  42  76 104 128 176 226 292 372 420
#     4   8  16  33  60  89 124 169 215 265 326 388
#     4  11  24  42  69 100 137 180 230 287 347 419
#     4  12  27  45  67  99 137 183 231 284 349 428
#     4  12  24  46  72  99 141 181 235 293 356 426
#     4  10  21  41  66  97 136 179 224 279 342 411
#
# _framework density 20.956617999999999
#
# number of rings (size 3 to 8) (size 9 to 14) (size 15 to 20)
#    0.000    1.143    3.810    2.571    2.667    2.667 
#    0.000    0.000    0.000    0.000    0.000    0.000 
#    0.000    0.000    0.000    0.000    0.000    0.000 
#
# Total GULP energy -520607.649888 kJ/mol
# GULP energy per Si atom -12395.420235 kJ/mol
# Density = 2.090892 g / cm^3
# Si number density = 20.956618 Si / 1000 Ang^3
#
#
#
# Elastic Constant Matrix: (Units=GPa)
#
#
# Indices 1 2 3 4 5 6 
#
# 1 145.3561 49.7800 38.9459 0.0000 0.0000 0.0000
# 2 49.7800 145.3561 38.9459 0.0000 0.0000 0.0000
# 3 38.9459 38.9459 90.4225 0.0000 0.0000 0.0000
# 4 0.0000 0.0000 0.0000 60.7497 0.0000 0.0000
# 5 0.0000 0.0000 0.0000 0.0000 60.7497 0.0000
# 6 0.0000 0.0000 0.0000 0.0000 0.0000 46.4428
#
#
#
# Elastic Compliance Matrix: (Units=1/GPa)
#
#
# Indices 1 2 3 4 5 6 
#
# 1 0.008326 -0.002137 -0.002665 0.000000 0.000000 0.000000
# 2 -0.002137 0.008326 -0.002665 0.000000 0.000000 0.000000
# 3 -0.002665 -0.002665 0.013355 0.000000 0.000000 0.000000
# 4 0.000000 0.000000 0.000000 0.016461 0.000000 0.000000
# 5 0.000000 0.000000 0.000000 0.000000 0.016461 0.000000
# 6 0.000000 0.000000 0.000000 0.000000 0.000000 0.021532
#
#
# Mechanical properties :
#
#
# Convention : Reuss Voigt Hill
#
# Bulk Modulus (GPa) = 66.35466 70.71982 68.53724
# Shear Modulus (GPa) = 47.88336 50.48594 49.18465
#
# Velocity S-wave (km/s) = 4.78523 4.91355 4.84981
# Velocity P-wave (km/s) = 7.89068 8.12464 8.00851
#
# Compressibility (1/GPa) = 0.01507053
#
# Stress axis : x y z
#
# Youngs Moduli (GPa) = 120.10947 120.10946 74.87660
#
# Poissons Ratio (x) = 0.25669 0.19958
# Poissons Ratio (y) = 0.25669 0.19958
# Poissons Ratio (z) = 0.32015 0.32015
#
# Static dielectric constant tensor:
#      x y z
#    x 3.886460 0.000000 0.000000 
#    y 0.000000 3.886460 0.000000 
#    z 0.000000 0.000000 3.505700 
# 
# 
# High freq. dielectric constant tensor:
#      x y z
#    x 1.837290 0.000000 0.000000 
#    y 0.000000 1.837290 0.000000 
#    z 0.000000 0.000000 1.787830 
# 
# From -- ./inp_files/5651.got.cif
#   From: 2010.03.12/outbox.cif.g09.slc.cpg/sg109_3_cif.got.tgz:5651.got - 2010.04.14 01:55:16.
