data_PCOD8307800
_publ_section_title
;
Structure prediction by ZEFSAII (Michael W. Deem and Ramdas Pophale) SiO2 
 PCOD8307800
Probable space group: I 4 C M
;
_chemical_formula_sum "Si O2"
_cell_formula_units_Z 112
_cell_length_a 14.873469
_cell_length_b 14.873469
_cell_length_c 29.896127
_cell_angle_alpha 90.000000
_cell_angle_beta 90.000000
_cell_angle_gamma 90.000000
_cell_volume 6613.623609
_symmetry_space_group_name_H-M "I 4 C M"
_symmetry_group_IT_number 108
_symmetry_cell_setting 'tetragonal'
loop_
_space_group_symop_operation_xyz
x,y,z
-y,x,z
-x,-y,z
y,-x,z
-x,y,1/2+z
x,-y,1/2+z
-y,-x,1/2+z
y,x,1/2+z
1/2+x,1/2+y,1/2+z
1/2-y,1/2+x,1/2+z
1/2-x,1/2-y,1/2+z
1/2+y,1/2-x,1/2+z
1/2-x,1/2+y,z
1/2+x,1/2-y,z
1/2-y,1/2-x,z
1/2+y,1/2+x,z
loop_
_atom_site_type_symbol
_atom_site_label
_atom_site_fract_x
_atom_site_fract_y
_atom_site_fract_z
Si Si1 0.605086 0.394914 0.359630
Si Si2 0.891981 0.244867 0.429724
Si Si3 0.608022 0.744864 0.789534
Si Si4 0.457686 0.356486 0.512963
Si Si5 0.000001 0.643472 0.359628
Si Si6 0.542317 0.643513 0.706294
Si Si7 0.141718 0.958308 0.109629
O O1 0.625388 0.500000 0.359631
O O2 0.655713 0.356808 0.403455
O O3 0.643190 0.344291 0.315804
O O4 0.806579 0.306579 0.439706
O O5 0.937162 0.218562 0.476378
O O6 0.967148 0.295658 0.400583
O O7 0.693428 0.806573 0.779554
O O8 0.532854 0.795658 0.818672
O O9 0.562844 0.718560 0.742879
O O10 0.559522 0.390525 0.507219
O O11 0.443456 0.308048 0.561954
O O12 0.081819 0.581819 0.341792
O O13 0.918185 0.581816 0.377463
O O14 0.440480 0.609476 0.712038
O O15 0.556546 0.691951 0.657303
O O16 0.059383 0.891103 0.109629
#
# Coordination Sequence:
#
# PCOD8307800 Si02
#       7
#    16  16  16  16  16  16  16
#     4  11  21  34  48  66  95 129 158 194 246 293
#     4  11  21  33  48  71  98 127 164 203 243 283
#     4  11  21  33  48  71  98 127 164 203 243 283
#     4   9  17  31  50  73  97 125 158 195 243 295
#     4   9  20  38  53  64  90 134 175 202 230 279
#     4   9  17  31  50  73  97 125 158 195 243 295
#     4   7  12  26  49  70  92 123 159 191 228 291
#
# _framework density 16.934740999999999
#
# number of rings (size 3 to 8) (size 9 to 14) (size 15 to 20)
#    0.000    2.429    1.429    3.857    0.000    2.286 
#    0.000    0.714    0.000    0.000    0.000    3.000 
#    0.000    4.571    0.000    0.000    0.000    0.000 
#
# Total GULP energy -693766.358092 kJ/mol
# GULP energy per Si atom -12388.684966 kJ/mol
# Density = 1.689620 g / cm^3
# Si number density = 16.934741 Si / 1000 Ang^3
#
#
#
# Elastic Constant Matrix: (Units=GPa)
#
#
# Indices 1 2 3 4 5 6 
#
# 1 77.8948 35.2642 55.5555 0.0000 0.0000 0.0003
# 2 35.2642 77.8948 55.5555 0.0000 0.0000 -0.0003
# 3 55.5555 55.5555 170.5537 0.0000 0.0000 0.0000
# 4 0.0000 0.0000 0.0000 14.9957 0.0000 0.0000
# 5 0.0000 0.0000 0.0000 0.0000 14.9957 0.0000
# 6 0.0003 -0.0003 0.0000 0.0000 0.0000 16.9857
#
#
#
# Elastic Compliance Matrix: (Units=1/GPa)
#
#
# Indices 1 2 3 4 5 6 
#
# 1 0.018225 -0.005232 -0.004232 0.000000 0.000000 0.000000
# 2 -0.005232 0.018225 -0.004232 0.000000 0.000000 0.000000
# 3 -0.004232 -0.004232 0.008620 0.000000 0.000000 0.000000
# 4 0.000000 0.000000 0.000000 0.066686 0.000000 0.000000
# 5 0.000000 0.000000 0.000000 0.000000 0.066686 0.000000
# 6 0.000000 0.000000 0.000000 0.000000 0.000000 0.058873
#
#
# Mechanical properties :
#
#
# Convention : Reuss Voigt Hill
#
# Bulk Modulus (GPa) = 56.57049 68.78821 62.67935
# Shear Modulus (GPa) = 18.47742 21.39331 19.93537
#
# Velocity S-wave (km/s) = 3.30676 3.55812 3.43474
# Velocity P-wave (km/s) = 6.93232 7.58868 7.26791
#
# Compressibility (1/GPa) = 0.01767706
#
# Stress axis : x y z
#
# Youngs Moduli (GPa) = 54.86965 54.86965 116.00374
#
# Poissons Ratio (x) = 0.28709 0.49095
# Poissons Ratio (y) = 0.28709 0.49095
# Poissons Ratio (z) = 0.23222 0.23222
#
# Static dielectric constant tensor:
#      x y z
#    x 3.037660 0.000000 0.000000 
#    y 0.000000 3.037660 0.000000 
#    z 0.000000 0.000000 3.531410 
# 
# 
# High freq. dielectric constant tensor:
#      x y z
#    x 1.631750 0.000000 0.000000 
#    y 0.000000 1.631750 0.000000 
#    z 0.000000 0.000000 1.660830 
# 
# From -- ./inp_files/3372.got.cif
#   From: 2010.03.12/outbox.cif.g09.slc.cpg/sg108_2_cif.got.tgz:3372.got - 2010.04.14 01:53:11.
