data_PCOD8307608
_publ_section_title
;
Structure prediction by ZEFSAII (Michael W. Deem and Ramdas Pophale) SiO2 
 PCOD8307608
Probable space group: I 4 M M
;
_chemical_formula_sum "Si O2"
_cell_formula_units_Z 80
_cell_length_a 13.334453
_cell_length_b 13.334453
_cell_length_c 25.854605
_cell_angle_alpha 90.000000
_cell_angle_beta 90.000000
_cell_angle_gamma 90.000000
_cell_volume 4597.146216
_symmetry_space_group_name_H-M "I 4 M M"
_symmetry_group_IT_number 107
_symmetry_cell_setting 'tetragonal'
loop_
_space_group_symop_operation_xyz
x,y,z
-y,x,z
-x,-y,z
y,-x,z
-x,y,z
x,-y,z
-y,-x,z
y,x,z
1/2+x,1/2+y,1/2+z
1/2-y,1/2+x,1/2+z
1/2-x,1/2-y,1/2+z
1/2+y,1/2-x,1/2+z
1/2-x,1/2+y,1/2+z
1/2+x,1/2-y,1/2+z
1/2-y,1/2-x,1/2+z
1/2+y,1/2+x,1/2+z
loop_
_atom_site_type_symbol
_atom_site_label
_atom_site_fract_x
_atom_site_fract_y
_atom_site_fract_z
Si Si1 0.118065 0.277585 0.272230
Si Si2 0.116364 0.717790 0.680169
Si Si3 0.388920 0.119126 0.986487
Si Si4 0.880873 0.388920 0.373850
Si Si5 0.777585 0.618065 0.588107
O O1 0.171962 0.171962 0.260646
O O2 0.150757 0.359680 0.230286
O O3 0.154554 0.315664 0.328379
O O4 0.000000 0.259358 0.269197
O O5 0.179403 0.820598 0.680169
O O6 0.140320 0.650757 0.630051
O O7 0.000000 0.746846 0.680169
O O8 0.500000 0.164738 0.996114
O O9 0.346455 0.153544 0.930168
O O10 0.397140 0.000000 0.986377
O O11 0.315664 0.154554 0.031958
O O12 0.835262 0.500000 0.364223
O O13 0.000000 0.397140 0.373960
O O14 0.759359 0.500000 0.591140
O O15 0.671962 0.671962 0.599691
#
# Coordination Sequence:
#
# PCOD8307608 Si02
#       5
#    16  16  16  16  16
#     4  10  20  32  47  69  96 128 165 200 235 275
#     4  10  21  36  54  76  98 120 149 186 232 286
#     4   8  14  26  45  68  92 118 152 197 245 287
#     4   8  14  26  45  68  92 118 152 197 245 287
#     4  10  20  32  47  69  96 128 165 200 235 275
#
# _framework density 17.402099
#
# number of rings (size 3 to 8) (size 9 to 14) (size 15 to 20)
#    0.000    2.800    0.000    3.000    0.000    4.600 
#    0.000    0.000    0.000    3.600    0.000    0.000 
#    0.000    9.600    0.000    0.000    0.000    0.000 
#
# Total GULP energy -495834.901373 kJ/mol
# GULP energy per Si atom -12395.872534 kJ/mol
# Density = 1.736249 g / cm^3
# Si number density = 17.402099 Si / 1000 Ang^3
#
#
#
# Elastic Constant Matrix: (Units=GPa)
#
#
# Indices 1 2 3 4 5 6 
#
# 1 83.7830 36.5986 38.4983 0.0000 0.0000 -0.0003
# 2 36.5986 83.7830 38.4983 0.0000 0.0000 0.0003
# 3 38.4983 38.4983 136.7259 0.0000 0.0000 0.0000
# 4 0.0000 0.0000 0.0000 19.3816 0.0000 0.0000
# 5 0.0000 0.0000 0.0000 0.0000 19.3816 0.0000
# 6 -0.0003 0.0003 0.0000 0.0000 0.0000 13.5241
#
#
#
# Elastic Compliance Matrix: (Units=1/GPa)
#
#
# Indices 1 2 3 4 5 6 
#
# 1 0.015663 -0.005531 -0.002853 0.000000 0.000000 0.000000
# 2 -0.005531 0.015663 -0.002853 0.000000 0.000000 0.000000
# 3 -0.002853 -0.002853 0.008920 0.000000 0.000000 0.000000
# 4 0.000000 0.000000 0.000000 0.051595 0.000000 0.000000
# 5 0.000000 0.000000 0.000000 0.000000 0.051595 0.000000
# 6 0.000000 0.000000 0.000000 0.000000 0.000000 0.073942
#
#
# Mechanical properties :
#
#
# Convention : Reuss Voigt Hill
#
# Bulk Modulus (GPa) = 56.26681 59.05359 57.66020
# Shear Modulus (GPa) = 20.34379 23.17056 21.75717
#
# Velocity S-wave (km/s) = 3.42284 3.65290 3.53974
# Velocity P-wave (km/s) = 6.92998 7.19722 7.06487
#
# Compressibility (1/GPa) = 0.01777247
#
# Stress axis : x y z
#
# Youngs Moduli (GPa) = 63.84676 63.84676 112.10213
#
# Poissons Ratio (x) = 0.35313 0.31980
# Poissons Ratio (y) = 0.35313 0.31980
# Poissons Ratio (z) = 0.18214 0.18214
#
# Static dielectric constant tensor:
#      x y z
#    x 2.953850 0.000000 0.000000 
#    y 0.000000 2.953850 0.000000 
#    z 0.000000 0.000000 3.751190 
# 
# 
# High freq. dielectric constant tensor:
#      x y z
#    x 1.647440 0.000000 0.000000 
#    y 0.000000 1.647440 0.000000 
#    z 0.000000 0.000000 1.697500 
# 
# From -- ./inp_files/5970.got.cif
#   From: 2010.03.12/outbox.cif.g09.slc.cpg/sg107_3_cif.got.tgz:5970.got - 2010.04.14 01:49:11.
