data_PCOD8307354
_publ_section_title
;
Structure prediction by ZEFSAII (Michael W. Deem and Ramdas Pophale) SiO2 
 PCOD8307354
Probable space group: P 42 M C
;
_chemical_formula_sum "Si O2"
_cell_formula_units_Z 56
_cell_length_a 14.754362
_cell_length_b 14.754362
_cell_length_c 12.622376
_cell_angle_alpha 90.000000
_cell_angle_beta 90.000000
_cell_angle_gamma 90.000000
_cell_volume 2747.780153
_symmetry_space_group_name_H-M "P 42 M C"
_symmetry_group_IT_number 105
_symmetry_cell_setting 'tetragonal'
loop_
_space_group_symop_operation_xyz
x,y,z
-y,x,1/2+z
-x,-y,z
y,-x,1/2+z
-x,y,z
x,-y,z
-y,-x,1/2+z
y,x,1/2+z
loop_
_atom_site_type_symbol
_atom_site_label
_atom_site_fract_x
_atom_site_fract_y
_atom_site_fract_z
Si Si1 0.730188 0.106227 0.213250
Si Si2 0.775278 0.394714 0.101641
Si Si3 0.101998 0.897464 0.078736
Si Si4 0.894714 0.724722 0.948070
Si Si5 0.397464 0.601998 0.970975
Si Si6 0.606227 0.769813 0.836462
Si Si7 0.894488 0.605512 0.524856
O O1 0.831644 0.128653 0.174788
O O2 0.714824 0.148207 0.330081
O O3 0.657993 0.143890 0.127776
O O4 0.715571 0.000000 0.224939
O O5 0.802986 0.500000 0.097927
O O6 0.785175 0.351794 0.219631
O O7 0.842240 0.342240 0.024856
O O8 0.670532 0.381858 0.068427
O O9 0.000000 0.888727 0.123072
O O10 0.121729 0.000000 0.038029
O O11 0.118141 0.829468 0.981284
O O12 0.000000 0.697013 0.951785
O O13 0.500000 0.621727 0.011683
O O14 0.388725 0.500000 0.926640
O O15 0.371348 0.668355 0.874923
O O16 0.500000 0.784433 0.824776
O O17 0.643891 0.842007 0.921936
O O18 0.874529 0.500000 0.543516
O O19 0.000000 0.625472 0.506195
#
# Coordination Sequence:
#
# PCOD8307354 Si02
#       7
#     8   8   8   8   8   8   8
#     4   9  19  36  57  81 110 145 185 229 275 325
#     4  10  22  38  57  84 116 149 186 228 279 338
#     4   9  19  37  58  81 111 147 188 232 278 328
#     4  10  22  38  57  84 116 149 186 228 279 338
#     4   9  19  37  58  81 111 147 188 232 278 328
#     4   9  19  36  57  81 110 145 185 229 275 325
#     4   9  18  34  56  82 110 142 183 226 272 330
#
# _framework density 20.380088000000001
#
# number of rings (size 3 to 8) (size 9 to 14) (size 15 to 20)
#    0.000    2.714    0.000    0.000    2.000    3.714 
#    0.000    8.571    0.000    0.000    0.000    0.000 
#    0.000    0.000    0.000    0.000    0.000    0.000 
#
# Total GULP energy -694238.264522 kJ/mol
# GULP energy per Si atom -12397.111866 kJ/mol
# Density = 2.033370 g / cm^3
# Si number density = 20.380088 Si / 1000 Ang^3
#
#
#
# Elastic Constant Matrix: (Units=GPa)
#
#
# Indices 1 2 3 4 5 6 
#
# 1 89.0362 49.2016 75.4203 0.0000 0.0000 0.0000
# 2 49.2016 89.0362 75.4203 0.0000 0.0000 0.0000
# 3 75.4203 75.4203 210.0593 0.0000 0.0000 0.0000
# 4 0.0000 0.0000 0.0000 30.3793 0.0000 0.0000
# 5 0.0000 0.0000 0.0000 0.0000 30.3793 0.0000
# 6 0.0000 0.0000 0.0000 0.0000 0.0000 21.1607
#
#
#
# Elastic Compliance Matrix: (Units=1/GPa)
#
#
# Indices 1 2 3 4 5 6 
#
# 1 0.018499 -0.006605 -0.004270 0.000000 0.000000 0.000000
# 2 -0.006605 0.018499 -0.004270 0.000000 0.000000 0.000000
# 3 -0.004270 -0.004270 0.007827 0.000000 0.000000 0.000000
# 4 0.000000 0.000000 0.000000 0.032917 0.000000 0.000000
# 5 0.000000 0.000000 0.000000 0.000000 0.032917 0.000000
# 6 0.000000 0.000000 0.000000 0.000000 0.000000 0.047257
#
#
# Mechanical properties :
#
#
# Convention : Reuss Voigt Hill
#
# Bulk Modulus (GPa) = 68.80952 87.57957 78.19454
# Shear Modulus (GPa) = 25.89979 28.92316 27.41147
#
# Velocity S-wave (km/s) = 3.56875 3.77130 3.67142
# Velocity P-wave (km/s) = 7.12865 7.87591 7.51158
#
# Compressibility (1/GPa) = 0.01453287
#
# Stress axis : x y z
#
# Youngs Moduli (GPa) = 54.05794 54.05794 127.76307
#
# Poissons Ratio (x) = 0.35706 0.54558
# Poissons Ratio (y) = 0.35706 0.54558
# Poissons Ratio (z) = 0.23084 0.23084
#
# Static dielectric constant tensor:
#      x y z
#    x 3.728760 0.000000 0.000000 
#    y 0.000000 3.728760 0.000000 
#    z 0.000000 0.000000 3.844670 
# 
# 
# High freq. dielectric constant tensor:
#      x y z
#    x 1.796310 0.000000 0.000000 
#    y 0.000000 1.796310 0.000000 
#    z 0.000000 0.000000 1.786540 
# 
# From -- ./inp_files/1937.got.cif
#   From: 2010.03.12/outbox.cif.g09.slc.cpg/sg105_1_cif.got.tgz:1937.got - 2010.04.14 01:45:32.
