data_PCOD8307495
_publ_section_title
;
Structure prediction by ZEFSAII (Michael W. Deem and Ramdas Pophale) SiO2 
 PCOD8307495
Probable space group: I 4 M M
;
_chemical_formula_sum "Si O2"
_cell_formula_units_Z 128
_cell_length_a 18.118868
_cell_length_b 18.118868
_cell_length_c 26.907647
_cell_angle_alpha 90.000000
_cell_angle_beta 90.000000
_cell_angle_gamma 90.000000
_cell_volume 8833.602317
_symmetry_space_group_name_H-M "I 4 M M"
_symmetry_group_IT_number 107
_symmetry_cell_setting 'tetragonal'
loop_
_space_group_symop_operation_xyz
x,y,z
-y,x,z
-x,-y,z
y,-x,z
-x,y,z
x,-y,z
-y,-x,z
y,x,z
1/2+x,1/2+y,1/2+z
1/2-y,1/2+x,1/2+z
1/2-x,1/2-y,1/2+z
1/2+y,1/2-x,1/2+z
1/2-x,1/2+y,1/2+z
1/2+x,1/2-y,1/2+z
1/2-y,1/2-x,1/2+z
1/2+y,1/2+x,1/2+z
loop_
_atom_site_type_symbol
_atom_site_label
_atom_site_fract_x
_atom_site_fract_y
_atom_site_fract_z
Si Si1 0.587678 0.918568 0.027360
Si Si2 0.650413 0.915553 0.427701
Si Si3 0.916267 0.201445 0.779980
Si Si4 0.083598 0.647739 0.832900
Si Si5 0.082616 0.799631 0.483338
Si Si6 0.415105 0.086177 0.727615
Si Si7 0.086048 0.719997 0.585001
Si Si8 0.727759 0.155518 0.687923
O O1 0.500000 0.910908 0.023579
O O2 0.614788 0.861754 0.069362
O O3 0.613922 0.000000 0.043054
O O4 0.618159 0.899035 0.972485
O O5 0.638543 0.869575 0.377730
O O6 0.735083 0.908326 0.443347
O O7 0.628349 0.000000 0.416995
O O8 0.866156 0.133845 0.797558
O O9 0.902279 0.268082 0.817807
O O10 0.898210 0.227538 0.724320
O O11 0.000000 0.174133 0.781272
O O12 0.099859 0.594329 0.786308
O O13 0.000000 0.635540 0.851234
O O14 0.135433 0.864568 0.466310
O O15 0.101791 0.773574 0.538939
O O16 0.000000 0.830659 0.482237
O O17 0.500000 0.103487 0.712649
O O18 0.360052 0.142633 0.698355
O O19 0.395591 0.000000 0.715070
O O20 0.132623 0.746831 0.631869
O O21 0.000000 0.718414 0.599079
O O22 0.759945 0.240056 0.695331
#
# Coordination Sequence:
#
# PCOD8307495 Si02
#       8
#    16  16  16  16  16  16  16  16
#     4   8  14  23  35  55  81 105 130 157 185 224
#     4   9  16  25  39  58  79 103 128 154 187 230
#     4   9  18  30  42  58  79 103 134 167 195 228
#     4   9  16  26  41  61  83 105 128 155 189 227
#     4   9  18  30  41  55  73  94 127 166 200 236
#     4   9  17  28  42  62  86 109 135 165 196 237
#     4   9  16  26  40  56  75 102 134 165 195 228
#     4  10  18  28  42  58  80 109 136 164 201 239
#
# _framework density 14.490125000000001
#
# number of rings (size 3 to 8) (size 9 to 14) (size 15 to 20)
#    0.000    3.000    0.000    4.500    0.000    2.500 
#    0.000    1.250    0.000    0.000    0.000    1.750 
#    0.000    0.250    0.000    0.000    0.000    0.250 
#
# Total GULP energy -793207.620528 kJ/mol
# GULP energy per Si atom -12393.869071 kJ/mol
# Density = 1.445714 g / cm^3
# Si number density = 14.490125 Si / 1000 Ang^3
#
#
#
# Elastic Constant Matrix: (Units=GPa)
#
#
# Indices 1 2 3 4 5 6 
#
# 1 67.6824 46.3693 27.5100 0.0000 0.0000 0.0002
# 2 46.3693 67.6824 27.5100 0.0000 0.0000 -0.0002
# 3 27.5100 27.5100 75.9869 0.0000 0.0000 0.0000
# 4 0.0000 0.0000 0.0000 14.1377 0.0000 0.0000
# 5 0.0000 0.0000 0.0000 0.0000 14.1377 0.0000
# 6 0.0002 -0.0002 0.0000 0.0000 0.0000 22.9354
#
#
#
# Elastic Compliance Matrix: (Units=1/GPa)
#
#
# Indices 1 2 3 4 5 6 
#
# 1 0.028771 -0.018148 -0.003846 0.000000 0.000000 0.000000
# 2 -0.018148 0.028771 -0.003846 0.000000 0.000000 0.000000
# 3 -0.003846 -0.003846 0.015945 0.000000 0.000000 0.000000
# 4 0.000000 0.000000 0.000000 0.070733 0.000000 0.000000
# 5 0.000000 0.000000 0.000000 0.000000 0.070733 0.000000
# 6 0.000000 0.000000 0.000000 0.000000 0.000000 0.043601
#
#
# Mechanical properties :
#
#
# Convention : Reuss Voigt Hill
#
# Bulk Modulus (GPa) = 45.85579 46.01450 45.93514
# Shear Modulus (GPa) = 15.74788 17.57301 16.66044
#
# Velocity S-wave (km/s) = 3.30024 3.48624 3.39452
# Velocity P-wave (km/s) = 6.79978 6.93036 6.86538
#
# Compressibility (1/GPa) = 0.02180750
#
# Stress axis : x y z
#
# Youngs Moduli (GPa) = 34.75678 34.75678 62.71574
#
# Poissons Ratio (x) = 0.63077 0.24121
# Poissons Ratio (y) = 0.63077 0.24121
# Poissons Ratio (z) = 0.13368 0.13368
#
# Static dielectric constant tensor:
#      x y z
#    x 2.715950 0.000000 0.000000 
#    y 0.000000 2.715950 0.000000 
#    z 0.000000 0.000000 2.733170 
# 
# 
# High freq. dielectric constant tensor:
#      x y z
#    x 1.532430 0.000000 0.000000 
#    y 0.000000 1.532430 0.000000 
#    z 0.000000 0.000000 1.553660 
# 
# From -- ./inp_files/5500.got.cif
#   From: 2010.03.12/outbox.cif.g09.slc.cpg/sg107_3_cif.got.tgz:5500.got - 2010.04.14 01:49:11.
