data_PCOD8307125
_publ_section_title
;
Structure prediction by ZEFSAII (Michael W. Deem and Ramdas Pophale) SiO2 
 PCOD8307125
Probable space group: P 42 M C
;
_chemical_formula_sum "Si O2"
_cell_formula_units_Z 38
_cell_length_a 11.508003
_cell_length_b 11.508003
_cell_length_c 14.742277
_cell_angle_alpha 90.000000
_cell_angle_beta 90.000000
_cell_angle_gamma 90.000000
_cell_volume 1952.380674
_symmetry_space_group_name_H-M "P 42 M C"
_symmetry_group_IT_number 105
_symmetry_cell_setting 'tetragonal'
loop_
_space_group_symop_operation_xyz
x,y,z
-y,x,1/2+z
-x,-y,z
y,-x,1/2+z
-x,y,z
x,-y,z
-y,-x,1/2+z
y,x,1/2+z
loop_
_atom_site_type_symbol
_atom_site_label
_atom_site_fract_x
_atom_site_fract_y
_atom_site_fract_z
Si Si1 0.137009 0.241297 0.255990
Si Si2 0.128893 0.500000 0.524904
Si Si3 0.238880 0.000000 0.218885
Si Si4 0.000000 0.137728 0.523759
Si Si5 0.134311 0.366190 0.071782
Si Si6 0.211612 0.266427 0.446684
Si Si7 0.500000 0.000000 0.196221
O O1 0.170493 0.107430 0.259875
O O2 0.177286 0.296330 0.160725
O O3 0.208753 0.297477 0.339713
O O4 0.000000 0.260701 0.270228
O O5 0.199164 0.386575 0.498722
O O6 0.000000 0.500000 0.478312
O O7 0.115884 0.500000 0.633987
O O8 0.223390 0.000000 0.110387
O O9 0.376286 0.000000 0.250024
O O10 0.887509 0.170301 0.465960
O O11 0.000000 0.000000 0.549651
O O12 0.155942 0.500000 0.092150
O O13 0.000000 0.338844 0.052076
O O14 0.208481 0.330295 0.983152
#
# Coordination Sequence:
#
# PCOD8307125 Si02
#       7
#     8   4   4   4   8   8   2
#     4  11  23  36  59  93 124 161 202 255 315 376
#     4  10  18  36  61  89 115 146 204 253 304 356
#     4  12  22  38  56  91 125 159 206 249 314 375
#     4  12  20  34  58  85 125 153 191 254 313 368
#     4  10  23  43  61  86 127 169 207 252 312 374
#     4  12  22  38  61  91 120 160 206 252 309 366
#     4  10  18  38  58  80 116 164 196 248 300 360
#
# _framework density 19.463417
#
# number of rings (size 3 to 8) (size 9 to 14) (size 15 to 20)
#    0.316    0.632    6.316    1.579    4.421    0.000 
#    1.895    0.526    0.000    0.000    0.000    0.000 
#    0.000    0.000    0.000    0.000    0.000    0.000 
#
# Total GULP energy -471080.069896 kJ/mol
# GULP energy per Si atom -12396.843945 kJ/mol
# Density = 1.941912 g / cm^3
# Si number density = 19.463417 Si / 1000 Ang^3
#
#
#
# Elastic Constant Matrix: (Units=GPa)
#
#
# Indices 1 2 3 4 5 6 
#
# 1 77.5972 31.5948 15.2893 0.0000 0.0000 0.0000
# 2 31.5948 77.5972 15.2893 0.0000 0.0000 0.0000
# 3 15.2893 15.2893 71.1098 0.0000 0.0000 0.0000
# 4 0.0000 0.0000 0.0000 15.4856 0.0000 0.0000
# 5 0.0000 0.0000 0.0000 0.0000 15.4856 0.0000
# 6 0.0000 0.0000 0.0000 0.0000 0.0000 16.1263
#
#
#
# Elastic Compliance Matrix: (Units=1/GPa)
#
#
# Indices 1 2 3 4 5 6 
#
# 1 0.015741 -0.005997 -0.002095 0.000000 0.000000 0.000000
# 2 -0.005997 0.015741 -0.002095 0.000000 0.000000 0.000000
# 3 -0.002095 -0.002095 0.014964 0.000000 0.000000 0.000000
# 4 0.000000 0.000000 0.000000 0.064576 0.000000 0.000000
# 5 0.000000 0.000000 0.000000 0.000000 0.064576 0.000000
# 6 0.000000 0.000000 0.000000 0.000000 0.000000 0.062011
#
#
# Mechanical properties :
#
#
# Convention : Reuss Voigt Hill
#
# Bulk Modulus (GPa) = 38.35442 38.96123 38.65783
# Shear Modulus (GPa) = 18.74945 20.36155 19.55550
#
# Velocity S-wave (km/s) = 3.10710 3.23792 3.17319
# Velocity P-wave (km/s) = 5.71146 5.83438 5.77325
#
# Compressibility (1/GPa) = 0.02607261
#
# Stress axis : x y z
#
# Youngs Moduli (GPa) = 63.52644 63.52644 66.82812
#
# Poissons Ratio (x) = 0.38094 0.14002
# Poissons Ratio (y) = 0.38094 0.14002
# Poissons Ratio (z) = 0.13310 0.13310
#
# Static dielectric constant tensor:
#      x y z
#    x 3.377520 0.000000 0.000000 
#    y 0.000000 3.377520 0.000000 
#    z 0.000000 0.000000 3.633420 
# 
# 
# High freq. dielectric constant tensor:
#      x y z
#    x 1.741680 0.000000 0.000000 
#    y 0.000000 1.741680 0.000000 
#    z 0.000000 0.000000 1.753670 
# 
# From -- ./inp_files/2524.got.cif
#   From: 2010.03.12/outbox.cif.g09.slc.cpg/sg105_2_cif.got.tgz:2524.got - 2010.04.14 01:45:32.
