data_PCOD8307998
_publ_section_title
;
Structure prediction by ZEFSAII (Michael W. Deem and Ramdas Pophale) SiO2 
 PCOD8307998
Probable space group: I 41 C D
;
_chemical_formula_sum "Si O2"
_cell_formula_units_Z 88
_cell_length_a 13.500447
_cell_length_b 13.500447
_cell_length_c 21.266411
_cell_angle_alpha 90.000000
_cell_angle_beta 90.000000
_cell_angle_gamma 90.000000
_cell_volume 3876.060073
_symmetry_space_group_name_H-M "I 41 C D"
_symmetry_group_IT_number 110
_symmetry_cell_setting 'tetragonal'
loop_
_space_group_symop_operation_xyz
x,y,z
-y,1/2+x,1/4+z
-x,-y,z
y,1/2-x,1/4+z
-x,y,1/2+z
x,-y,1/2+z
1/2-y,-x,1/4+z
1/2+y,x,1/4+z
1/2+x,1/2+y,1/2+z
1/2-y,x,3/4+z
1/2-x,1/2-y,1/2+z
1/2+y,-x,3/4+z
1/2-x,1/2+y,z
1/2+x,1/2-y,z
-y,1/2-x,3/4+z
y,1/2+x,3/4+z
loop_
_atom_site_type_symbol
_atom_site_label
_atom_site_fract_x
_atom_site_fract_y
_atom_site_fract_z
Si Si1 0.077409 0.848411 0.969710
Si Si2 0.000000 0.500000 0.626005
Si Si3 0.916830 0.123612 0.652405
Si Si4 0.623612 0.583170 0.099606
Si Si5 0.922590 0.348411 0.032301
Si Si6 0.268877 0.268877 0.876005
O O1 0.179856 0.816022 0.937181
O O2 0.110436 0.924349 0.024426
O O3 0.027019 0.750000 0.001005
O O4 0.002454 0.902399 0.920837
O O5 0.997546 0.597601 0.581174
O O6 0.924349 0.110436 0.727584
O O7 0.849541 0.214620 0.628580
O O8 0.026163 0.138013 0.626807
O O9 0.861987 0.026163 0.625204
O O10 0.714620 0.650458 0.123431
O O11 0.820144 0.316022 0.064829
#
# Coordination Sequence:
#
# PCOD8307998 Si02
#       6
#    16   8  16  16  16  16
#     4   9  19  36  56  84 116 149 201 244 291 368
#     4  10  16  32  64  84 116 162 186 252 316 332
#     4  10  20  37  60  85 117 156 200 246 299 364
#     4  10  20  37  60  85 117 156 200 246 299 364
#     4   9  19  36  56  84 116 149 201 244 291 368
#     4   9  20  39  57  81 116 153 195 250 300 353
#
# _framework density 22.703465000000001
#
# number of rings (size 3 to 8) (size 9 to 14) (size 15 to 20)
#    0.000    2.545    0.000    2.182    0.000    1.455 
#    0.000   36.364    0.000    0.000    0.000    0.000 
#    0.000    0.000    0.000    0.000    0.000    0.000 
#
# Total GULP energy -545301.081727 kJ/mol
# GULP energy per Si atom -12393.206403 kJ/mol
# Density = 2.265179 g / cm^3
# Si number density = 22.703465 Si / 1000 Ang^3
#
#
#
# Elastic Constant Matrix: (Units=GPa)
#
#
# Indices 1 2 3 4 5 6 
#
# 1 74.5964 28.2198 22.9287 0.0000 0.0000 0.0000
# 2 28.2198 74.5964 22.9287 0.0000 0.0000 0.0000
# 3 22.9287 22.9287 128.3357 0.0000 0.0000 0.0000
# 4 0.0000 0.0000 0.0000 29.3357 0.0000 0.0000
# 5 0.0000 0.0000 0.0000 0.0000 29.3357 0.0000
# 6 0.0000 0.0000 0.0000 0.0000 0.0000 43.1448
#
#
#
# Elastic Compliance Matrix: (Units=1/GPa)
#
#
# Indices 1 2 3 4 5 6 
#
# 1 0.016065 -0.005497 -0.001888 0.000000 0.000000 0.000000
# 2 -0.005497 0.016065 -0.001888 0.000000 0.000000 0.000000
# 3 -0.001888 -0.001888 0.008467 0.000000 0.000000 0.000000
# 4 0.000000 0.000000 0.000000 0.034088 0.000000 0.000000
# 5 0.000000 0.000000 0.000000 0.000000 0.034088 0.000000
# 6 0.000000 0.000000 0.000000 0.000000 0.000000 0.023178
#
#
# Mechanical properties :
#
#
# Convention : Reuss Voigt Hill
#
# Bulk Modulus (GPa) = 45.35014 47.29808 46.32411
# Shear Modulus (GPa) = 31.67589 33.92667 32.80128
#
# Velocity S-wave (km/s) = 3.73929 3.86986 3.80514
# Velocity P-wave (km/s) = 6.21783 6.39109 6.30505
#
# Compressibility (1/GPa) = 0.02205065
#
# Stress axis : x y z
#
# Youngs Moduli (GPa) = 62.24546 62.24546 118.10923
#
# Poissons Ratio (x) = 0.34218 0.22301
# Poissons Ratio (y) = 0.34218 0.22301
# Poissons Ratio (z) = 0.11753 0.11753
#
# Static dielectric constant tensor:
#      x y z
#    x 3.865770 0.000000 0.000000 
#    y 0.000000 3.865770 0.000000 
#    z 0.000000 0.000000 4.593950 
# 
# 
# High freq. dielectric constant tensor:
#      x y z
#    x 1.871720 0.000000 0.000000 
#    y 0.000000 1.871720 0.000000 
#    z 0.000000 0.000000 1.919820 
# 
# From -- ./inp_files/2167.got.cif
#   From: 2010.03.12/outbox.cif.g09.slc.cpg/sg110_2_cif.got.tgz:2167.got - 2010.04.14 01:58:01.
