data_PCOD8307790
_publ_section_title
;
Structure prediction by ZEFSAII (Michael W. Deem and Ramdas Pophale) SiO2 
 PCOD8307790
Probable space group: I 4 C M
;
_chemical_formula_sum "Si O2"
_cell_formula_units_Z 96
_cell_length_a 21.105444
_cell_length_b 21.105444
_cell_length_c 9.946645
_cell_angle_alpha 90.000000
_cell_angle_beta 90.000000
_cell_angle_gamma 90.000000
_cell_volume 4430.631226
_symmetry_space_group_name_H-M "I 4 C M"
_symmetry_group_IT_number 108
_symmetry_cell_setting 'tetragonal'
loop_
_space_group_symop_operation_xyz
x,y,z
-y,x,z
-x,-y,z
y,-x,z
-x,y,1/2+z
x,-y,1/2+z
-y,-x,1/2+z
y,x,1/2+z
1/2+x,1/2+y,1/2+z
1/2-y,1/2+x,1/2+z
1/2-x,1/2-y,1/2+z
1/2+y,1/2-x,1/2+z
1/2-x,1/2+y,z
1/2+x,1/2-y,z
1/2-y,1/2-x,z
1/2+y,1/2+x,z
loop_
_atom_site_type_symbol
_atom_site_label
_atom_site_fract_x
_atom_site_fract_y
_atom_site_fract_z
Si Si1 0.627983 0.684600 0.675440
Si Si2 0.773565 0.826349 0.401987
Si Si3 0.453144 0.341100 0.146171
Si Si4 0.932349 0.326909 0.380710
Si Si5 0.779002 0.512338 0.149407
Si Si6 0.601407 0.514353 0.908225
O O1 0.661353 0.677213 0.819844
O O2 0.671620 0.717032 0.562207
O O3 0.621236 0.612210 0.619288
O O4 0.565718 0.727480 0.696200
O O5 0.737143 0.762858 0.365553
O O6 0.733810 0.887741 0.356230
O O7 0.452636 0.266134 0.106178
O O8 0.474851 0.342585 0.302372
O O9 0.510635 0.372207 0.059469
O O10 0.892045 0.392045 0.369699
O O11 0.963781 0.323458 0.528843
O O12 0.988809 0.325104 0.269934
O O13 0.553116 0.570258 0.879861
#
# Coordination Sequence:
#
# PCOD8307790 Si02
#       6
#    16  16  16  16  16  16
#     4  11  24  37  63  96 130 170 217 273 325 402
#     4  10  22  42  64  94 131 169 213 278 341 397
#     4  12  24  36  58  89 124 168 222 269 322 391
#     4  10  23  45  69  99 137 174 224 283 341 410
#     4  11  23  40  67  96 132 179 224 275 346 402
#     4  11  23  37  51  74 118 174 220 263 305 365
#
# _framework density 21.667342000000001
#
# number of rings (size 3 to 8) (size 9 to 14) (size 15 to 20)
#    0.000    1.167    1.667    4.500    9.333    2.000 
#    0.000    0.833    0.000    1.500    0.000    0.000 
#    0.000    0.000    0.000    0.000    0.000    0.000 
#
# Total GULP energy -594750.764763 kJ/mol
# GULP energy per Si atom -12390.640933 kJ/mol
# Density = 2.161803 g / cm^3
# Si number density = 21.667342 Si / 1000 Ang^3
#
#
#
# Elastic Constant Matrix: (Units=GPa)
#
#
# Indices 1 2 3 4 5 6 
#
# 1 87.3739 51.4756 48.4640 0.0000 0.0000 0.0004
# 2 51.4756 87.3739 48.4640 0.0000 0.0000 -0.0004
# 3 48.4640 48.4640 94.0720 0.0000 0.0000 0.0000
# 4 0.0000 0.0000 0.0000 32.8818 0.0000 0.0000
# 5 0.0000 0.0000 0.0000 0.0000 32.8818 0.0000
# 6 0.0004 -0.0004 0.0000 0.0000 0.0000 37.0446
#
#
#
# Elastic Compliance Matrix: (Units=1/GPa)
#
#
# Indices 1 2 3 4 5 6 
#
# 1 0.019552 -0.008305 -0.005794 0.000000 0.000000 0.000000
# 2 -0.008305 0.019552 -0.005794 0.000000 0.000000 0.000000
# 3 -0.005794 -0.005794 0.016600 0.000000 0.000000 0.000000
# 4 0.000000 0.000000 0.000000 0.030412 0.000000 0.000000
# 5 0.000000 0.000000 0.000000 0.000000 0.030412 0.000000
# 6 0.000000 0.000000 0.000000 0.000000 0.000000 0.026994
#
#
# Mechanical properties :
#
#
# Convention : Reuss Voigt Hill
#
# Bulk Modulus (GPa) = 62.82473 62.84742 62.83607
# Shear Modulus (GPa) = 26.50919 28.58938 27.54929
#
# Velocity S-wave (km/s) = 3.50160 3.63639 3.56963
# Velocity P-wave (km/s) = 6.73842 6.83372 6.78624
#
# Compressibility (1/GPa) = 0.01591730
#
# Stress axis : x y z
#
# Youngs Moduli (GPa) = 51.14661 51.14661 60.24034
#
# Poissons Ratio (x) = 0.42476 0.34904
# Poissons Ratio (y) = 0.42476 0.34904
# Poissons Ratio (z) = 0.29635 0.29635
#
# Static dielectric constant tensor:
#      x y z
#    x 3.804290 0.000000 0.000000 
#    y 0.000000 3.804290 0.000000 
#    z 0.000000 0.000000 3.917300 
# 
# 
# High freq. dielectric constant tensor:
#      x y z
#    x 1.831110 0.000000 0.000000 
#    y 0.000000 1.831110 0.000000 
#    z 0.000000 0.000000 1.859570 
# 
# From -- ./inp_files/773.got.cif
#   From: 2010.03.12/outbox.cif.g09.slc.cpg/sg108_1_cif.got.tgz:773.got - 2010.04.14 01:53:11.
