data_PCOD8307363
_publ_section_title
;
Structure prediction by ZEFSAII (Michael W. Deem and Ramdas Pophale) SiO2 
 PCOD8307363
Probable space group: P 42 M C
;
_chemical_formula_sum "Si O2"
_cell_formula_units_Z 48
_cell_length_a 9.398489
_cell_length_b 9.398489
_cell_length_c 26.319179
_cell_angle_alpha 90.000000
_cell_angle_beta 90.000000
_cell_angle_gamma 90.000000
_cell_volume 2324.815073
_symmetry_space_group_name_H-M "P 42 M C"
_symmetry_group_IT_number 105
_symmetry_cell_setting 'tetragonal'
loop_
_space_group_symop_operation_xyz
x,y,z
-y,x,1/2+z
-x,-y,z
y,-x,1/2+z
-x,y,z
x,-y,z
-y,-x,1/2+z
y,x,1/2+z
loop_
_atom_site_type_symbol
_atom_site_label
_atom_site_fract_x
_atom_site_fract_y
_atom_site_fract_z
Si Si1 0.833475 0.000000 0.675660
Si Si2 0.000000 0.833972 0.296163
Si Si3 0.500000 0.171947 0.218023
Si Si4 0.333431 0.274294 0.652986
Si Si5 0.336552 0.794807 0.863811
Si Si6 0.342658 0.500000 0.816788
Si Si7 0.338241 0.656929 0.537689
Si Si8 0.160972 0.840360 0.464521
O O1 0.747860 0.872937 0.650398
O O2 0.818222 0.000000 0.736068
O O3 0.000000 0.000000 0.659882
O O4 0.863352 0.753324 0.318100
O O5 0.000000 0.000000 0.312734
O O6 0.637389 0.243478 0.193637
O O7 0.500000 0.213835 0.277077
O O8 0.500000 0.000000 0.212170
O O9 0.500000 0.260636 0.669596
O O10 0.321414 0.344941 0.598187
O O11 0.500000 0.850459 0.864007
O O12 0.329403 0.628484 0.855600
O O13 0.263046 0.829949 0.916692
O O14 0.500000 0.500000 0.789919
O O15 0.500000 0.687523 0.522365
O O16 0.291628 0.500000 0.518261
O O17 0.246922 0.779095 0.511908
O O18 0.000000 0.847955 0.483227
O O19 0.216008 0.000000 0.451208
#
# Coordination Sequence:
#
# PCOD8307363 Si02
#       8
#     4   4   4   8   8   4   8   8
#     4  11  25  41  63  99 137 175 217 273 330 391
#     4  11  23  41  63  91 133 173 215 265 320 385
#     4  12  24  40  66 100 134 174 220 274 331 390
#     4  11  23  43  67  93 130 174 220 272 330 397
#     4  11  23  41  66  94 126 169 220 269 321 387
#     4  10  24  42  64  96 132 172 220 272 323 390
#     4  10  23  44  68  93 123 165 215 268 321 383
#     4  11  25  43  64  94 129 166 207 264 331 392
#
# _framework density 20.646805000000001
#
# number of rings (size 3 to 8) (size 9 to 14) (size 15 to 20)
#    0.000    1.167    1.667    3.750    2.333    8.000 
#    0.000    0.000    0.000    0.000    0.000    0.000 
#    0.000    0.000    0.000    0.000    0.000    0.000 
#
# Total GULP energy -595166.095677 kJ/mol
# GULP energy per Si atom -12399.293660 kJ/mol
# Density = 2.059981 g / cm^3
# Si number density = 20.646805 Si / 1000 Ang^3
#
#
#
# Elastic Constant Matrix: (Units=GPa)
#
#
# Indices 1 2 3 4 5 6 
#
# 1 152.1494 57.8561 29.0786 0.0000 0.0000 0.0000
# 2 57.8561 152.1494 29.0786 0.0000 0.0000 0.0000
# 3 29.0786 29.0786 57.5146 0.0000 0.0000 0.0000
# 4 0.0000 0.0000 0.0000 36.8348 0.0000 0.0000
# 5 0.0000 0.0000 0.0000 0.0000 36.8348 0.0000
# 6 0.0000 0.0000 0.0000 0.0000 0.0000 68.3208
#
#
#
# Elastic Compliance Matrix: (Units=1/GPa)
#
#
# Indices 1 2 3 4 5 6 
#
# 1 0.008071 -0.002534 -0.002799 0.000000 0.000000 0.000000
# 2 -0.002534 0.008071 -0.002799 0.000000 0.000000 0.000000
# 3 -0.002799 -0.002799 0.020218 0.000000 0.000000 0.000000
# 4 0.000000 0.000000 0.000000 0.027148 0.000000 0.000000
# 5 0.000000 0.000000 0.000000 0.000000 0.027148 0.000000
# 6 0.000000 0.000000 0.000000 0.000000 0.000000 0.014637
#
#
# Mechanical properties :
#
#
# Convention : Reuss Voigt Hill
#
# Bulk Modulus (GPa) = 49.76640 65.98224 57.87432
# Shear Modulus (GPa) = 38.98421 44.78476 41.88448
#
# Velocity S-wave (km/s) = 4.35000 4.66240 4.50890
# Velocity P-wave (km/s) = 7.02751 7.81095 7.42957
#
# Compressibility (1/GPa) = 0.02009388
#
# Stress axis : x y z
#
# Youngs Moduli (GPa) = 123.89847 123.89847 49.46182
#
# Poissons Ratio (x) = 0.31397 0.13847
# Poissons Ratio (y) = 0.31397 0.13847
# Poissons Ratio (z) = 0.34685 0.34685
#
# Static dielectric constant tensor:
#      x y z
#    x 3.616530 0.000000 0.000000 
#    y 0.000000 3.616530 0.000000 
#    z 0.000000 0.000000 3.540490 
# 
# 
# High freq. dielectric constant tensor:
#      x y z
#    x 1.822670 0.000000 0.000000 
#    y 0.000000 1.822670 0.000000 
#    z 0.000000 0.000000 1.803370 
# 
# From -- ./inp_files/4949.got.cif
#   From: 2010.03.12/outbox.cif.g09.slc.cpg/sg105_3_cif.got.tgz:4949.got - 2010.04.14 01:45:32.
