data_PCOD8307010
_publ_section_title
;
Structure prediction by ZEFSAII (Michael W. Deem and Ramdas Pophale) SiO2 
 PCOD8307010
Probable space group: P 4 C C
;
_chemical_formula_sum "Si O2"
_cell_formula_units_Z 40
_cell_length_a 9.435824
_cell_length_b 9.435824
_cell_length_c 23.124690
_cell_angle_alpha 90.000000
_cell_angle_beta 90.000000
_cell_angle_gamma 90.000000
_cell_volume 2058.901561
_symmetry_space_group_name_H-M "P 4 C C"
_symmetry_group_IT_number 103
_symmetry_cell_setting 'tetragonal'
loop_
_space_group_symop_operation_xyz
x,y,z
-y,x,z
-x,-y,z
y,-x,z
-x,y,1/2+z
x,-y,1/2+z
-y,-x,1/2+z
y,x,1/2+z
loop_
_atom_site_type_symbol
_atom_site_label
_atom_site_fract_x
_atom_site_fract_y
_atom_site_fract_z
Si Si1 0.211506 0.104261 0.473560
Si Si2 0.288382 0.400118 0.054106
Si Si3 0.718302 0.424417 0.685517
Si Si4 0.637975 0.146865 0.298982
Si Si5 0.135258 0.335130 0.846885
O O1 0.329955 0.161603 0.517845
O O2 0.276768 0.133492 0.411273
O O3 0.063607 0.187736 0.482280
O O4 0.433672 0.314716 0.040665
O O5 0.234243 0.392924 0.120147
O O6 0.676562 0.585651 0.697093
O O7 0.845843 0.395531 0.730523
O O8 0.725595 0.283937 0.314807
O O9 0.504284 0.143153 0.342396
O O10 0.723374 0.002311 0.312110
#
# Coordination Sequence:
#
# PCOD8307010 Si02
#       5
#     8   8   8   8   8
#     4  11  24  43  62  84 125 169 205 249 310 367
#     4   9  21  40  65  95 122 158 205 254 306 360
#     4   9  17  37  64  90 125 160 197 251 308 358
#     4  11  22  39  61  92 124 160 205 243 309 366
#     4  11  24  38  61  91 122 162 206 248 304 365
#
# _framework density 19.427834000000001
#
# number of rings (size 3 to 8) (size 9 to 14) (size 15 to 20)
#    0.000    1.800    4.000    1.200    2.800    1.600 
#    3.600    0.000    0.000    0.000    0.000    0.000 
#    0.000    0.000    0.000    0.000    0.000    0.000 
#
# Total GULP energy -495750.308321 kJ/mol
# GULP energy per Si atom -12393.757708 kJ/mol
# Density = 1.938362 g / cm^3
# Si number density = 19.427834 Si / 1000 Ang^3
#
#
#
# Elastic Constant Matrix: (Units=GPa)
#
#
# Indices 1 2 3 4 5 6 
#
# 1 84.1337 35.1213 52.0494 0.0000 0.0000 0.0000
# 2 35.1213 84.1337 52.0494 0.0000 0.0000 0.0000
# 3 52.0494 52.0494 136.6725 0.0000 0.0000 0.0000
# 4 0.0000 0.0000 0.0000 22.0117 0.0000 0.0000
# 5 0.0000 0.0000 0.0000 0.0000 22.0117 0.0000
# 6 0.0000 0.0000 0.0000 0.0000 0.0000 45.2114
#
#
#
# Elastic Compliance Matrix: (Units=1/GPa)
#
#
# Indices 1 2 3 4 5 6 
#
# 1 0.016482 -0.003921 -0.004784 0.000000 0.000000 0.000000
# 2 -0.003921 0.016482 -0.004784 0.000000 0.000000 0.000000
# 3 -0.004784 -0.004784 0.010960 0.000000 0.000000 0.000000
# 4 0.000000 0.000000 0.000000 0.045430 0.000000 0.000000
# 5 0.000000 0.000000 0.000000 0.000000 0.045430 0.000000
# 6 0.000000 0.000000 0.000000 0.000000 0.000000 0.022118
#
#
# Mechanical properties :
#
#
# Convention : Reuss Voigt Hill
#
# Bulk Modulus (GPa) = 59.00467 64.82002 61.91234
# Shear Modulus (GPa) = 26.38115 28.89497 27.63806
#
# Velocity S-wave (km/s) = 3.68897 3.86073 3.77583
# Velocity P-wave (km/s) = 6.97007 7.30141 7.13766
#
# Compressibility (1/GPa) = 0.01694781
#
# Stress axis : x y z
#
# Youngs Moduli (GPa) = 60.67209 60.67209 91.23819
#
# Poissons Ratio (x) = 0.23789 0.43645
# Poissons Ratio (y) = 0.23789 0.43645
# Poissons Ratio (z) = 0.29024 0.29024
#
# Static dielectric constant tensor:
#      x y z
#    x 3.579400 0.000000 0.000000 
#    y 0.000000 3.579400 0.000000 
#    z 0.000000 0.000000 3.547430 
# 
# 
# High freq. dielectric constant tensor:
#      x y z
#    x 1.753130 0.000000 0.000000 
#    y 0.000000 1.753130 0.000000 
#    z 0.000000 0.000000 1.758710 
# 
# From -- ./inp_files/1340.got.cif
#   From: 2010.03.12/outbox.cif.g09.slc.cpg/sg103_cif.got.tgz:1340.got - 2010.04.14 01:42:52.
