data_PCOD8307404
_publ_section_title
;
Structure prediction by ZEFSAII (Michael W. Deem and Ramdas Pophale) SiO2 
 PCOD8307404
Probable space group: P 42 B C
;
_chemical_formula_sum "Si O2"
_cell_formula_units_Z 52
_cell_length_a 16.727090
_cell_length_b 16.727090
_cell_length_c 9.646462
_cell_angle_alpha 90.000000
_cell_angle_beta 90.000000
_cell_angle_gamma 90.000000
_cell_volume 2699.037043
_symmetry_space_group_name_H-M "P 42 B C"
_symmetry_group_IT_number 106
_symmetry_cell_setting 'tetragonal'
loop_
_space_group_symop_operation_xyz
x,y,z
-y,x,1/2+z
-x,-y,z
y,-x,1/2+z
1/2-x,1/2+y,z
1/2+x,1/2-y,z
1/2-y,1/2-x,1/2+z
1/2+y,1/2+x,1/2+z
loop_
_atom_site_type_symbol
_atom_site_label
_atom_site_fract_x
_atom_site_fract_y
_atom_site_fract_z
Si Si1 0.500000 0.500000 0.324551
Si Si2 0.250234 0.847159 0.419827
Si Si3 0.378178 0.215351 0.725266
Si Si4 0.977271 0.826047 0.417115
Si Si5 0.826047 0.022729 0.231986
Si Si6 0.847159 0.749766 0.229274
Si Si7 0.621822 0.784649 0.423835
O O1 0.500614 0.419838 0.417026
O O2 0.580162 0.500614 0.232075
O O3 0.192586 0.908604 0.341615
O O4 0.274602 0.878668 0.574551
O O5 0.328684 0.828684 0.324551
O O6 0.202574 0.765491 0.439623
O O7 0.448125 0.272336 0.782235
O O8 0.297426 0.265491 0.709478
O O9 0.402227 0.180997 0.574550
O O10 0.360623 0.139377 0.824550
O O11 0.951541 0.804375 0.574550
O O12 0.908604 0.807414 0.307486
O O13 0.051875 0.772336 0.366865
#
# Coordination Sequence:
#
# PCOD8307404 Si02
#       7
#     4   8   8   8   8   8   8
#     4  12  22  36  52  82 122 156 184 218 274 332
#     4  10  20  36  55  79 108 146 189 227 273 327
#     4   9  19  35  52  76 106 142 186 226 267 323
#     4  11  22  36  55  81 115 149 184 229 274 329
#     4  11  22  36  55  81 115 149 184 229 274 329
#     4  10  20  36  55  79 108 146 189 227 273 327
#     4   9  19  35  52  76 106 142 186 226 267 323
#
# _framework density 19.266131999999999
#
# number of rings (size 3 to 8) (size 9 to 14) (size 15 to 20)
#    0.000    1.846    3.077    1.385    0.000    3.692 
#    0.000    0.000    0.000    0.923    0.000    6.462 
#    0.000    0.000    0.000    0.000    0.000    0.000 
#
# Total GULP energy -644407.472970 kJ/mol
# GULP energy per Si atom -12392.451403 kJ/mol
# Density = 1.922228 g / cm^3
# Si number density = 19.266132 Si / 1000 Ang^3
#
#
#
# Elastic Constant Matrix: (Units=GPa)
#
#
# Indices 1 2 3 4 5 6 
#
# 1 52.4123 27.4220 36.9766 0.0000 0.0000 0.0000
# 2 27.4220 52.4123 36.9766 0.0000 0.0000 0.0000
# 3 36.9766 36.9766 132.7713 0.0000 0.0000 0.0000
# 4 0.0000 0.0000 0.0000 23.5093 0.0000 0.0000
# 5 0.0000 0.0000 0.0000 0.0000 23.5093 0.0000
# 6 0.0000 0.0000 0.0000 0.0000 0.0000 37.1342
#
#
#
# Elastic Compliance Matrix: (Units=1/GPa)
#
#
# Indices 1 2 3 4 5 6 
#
# 1 0.028448 -0.011567 -0.004701 0.000000 0.000000 0.000000
# 2 -0.011567 0.028448 -0.004701 0.000000 0.000000 0.000000
# 3 -0.004701 -0.004701 0.010150 0.000000 0.000000 0.000000
# 4 0.000000 0.000000 0.000000 0.042536 0.000000 0.000000
# 5 0.000000 0.000000 0.000000 0.000000 0.042536 0.000000
# 6 0.000000 0.000000 0.000000 0.000000 0.000000 0.026929
#
#
# Mechanical properties :
#
#
# Convention : Reuss Voigt Hill
#
# Bulk Modulus (GPa) = 39.82956 48.92735 44.37845
# Shear Modulus (GPa) = 21.80002 25.91195 23.85599
#
# Velocity S-wave (km/s) = 3.36746 3.67133 3.52267
# Velocity P-wave (km/s) = 5.98648 6.58955 6.29524
#
# Compressibility (1/GPa) = 0.02510698
#
# Stress axis : x y z
#
# Youngs Moduli (GPa) = 35.15164 35.15164 98.51869
#
# Poissons Ratio (x) = 0.40661 0.46317
# Poissons Ratio (y) = 0.40661 0.46317
# Poissons Ratio (z) = 0.16526 0.16526
#
# Static dielectric constant tensor:
#      x y z
#    x 3.262860 0.000000 0.000000 
#    y 0.000000 3.262860 0.000000 
#    z 0.000000 0.000000 4.051760 
# 
# 
# High freq. dielectric constant tensor:
#      x y z
#    x 1.721400 0.000000 0.000000 
#    y 0.000000 1.721400 0.000000 
#    z 0.000000 0.000000 1.763430 
# 
# From -- ./inp_files/519.got.cif
#   From: 2010.03.12/outbox.cif.g09.slc.cpg/sg106_cif.got.tgz:519.got - 2010.04.14 01:48:02.
