data_PCOD8307154
_publ_section_title
;
Structure prediction by ZEFSAII (Michael W. Deem and Ramdas Pophale) SiO2 
 PCOD8307154
Probable space group: P 42 M C
;
_chemical_formula_sum "Si O2"
_cell_formula_units_Z 48
_cell_length_a 8.176890
_cell_length_b 8.176890
_cell_length_c 34.008186
_cell_angle_alpha 90.000000
_cell_angle_beta 90.000000
_cell_angle_gamma 90.000000
_cell_volume 2273.839351
_symmetry_space_group_name_H-M "P 42 M C"
_symmetry_group_IT_number 105
_symmetry_cell_setting 'tetragonal'
loop_
_space_group_symop_operation_xyz
x,y,z
-y,x,1/2+z
-x,-y,z
y,-x,1/2+z
-x,y,z
x,-y,z
-y,-x,1/2+z
y,x,1/2+z
loop_
_atom_site_type_symbol
_atom_site_label
_atom_site_fract_x
_atom_site_fract_y
_atom_site_fract_z
Si Si1 0.316938 0.184758 0.427430
Si Si2 0.311119 0.178723 0.849086
Si Si3 0.688190 0.683524 0.587578
Si Si4 0.694359 0.000000 0.722333
Si Si5 0.695266 0.000000 0.632803
Si Si6 0.316100 0.184885 0.004562
Si Si7 0.694702 0.681454 0.768952
O O1 0.500000 0.236217 0.438460
O O2 0.258198 0.295198 0.391693
O O3 0.212301 0.202499 0.466946
O O4 0.303900 0.000000 0.412511
O O5 0.500000 0.154742 0.840114
O O6 0.240761 0.289887 0.813681
O O7 0.225567 0.000000 0.848695
O O8 0.500000 0.671202 0.598981
O O9 0.766802 0.500000 0.595177
O O10 0.704094 0.732237 0.541716
O O11 0.766600 0.832599 0.612923
O O12 0.762185 0.832534 0.742473
O O13 0.500000 0.000000 0.725071
O O14 0.755256 0.000000 0.677588
O O15 0.500000 0.000000 0.628736
O O16 0.500000 0.223966 0.990751
O O17 0.296279 0.000000 0.019110
O O18 0.500000 0.679955 0.766719
O O19 0.758829 0.500000 0.755430
#
# Coordination Sequence:
#
# PCOD8307154 Si02
#       7
#     8   8   8   4   4   8   8
#     4  11  24  37  50  74 107 141 178 221 267 321
#     4  10  19  33  53  76 104 138 180 227 271 322
#     4   9  18  33  52  75 105 141 178 218 272 336
#     4   9  16  28  44  73 109 137 175 227 277 335
#     4   9  18  30  49  75 107 143 179 223 277 335
#     4  10  21  37  56  78 103 134 176 224 272 321
#     4   9  16  27  46  72 104 142 179 221 277 334
#
# _framework density 21.109673000000001
#
# number of rings (size 3 to 8) (size 9 to 14) (size 15 to 20)
#    0.000    2.333    0.833    2.000    1.167    6.000 
#    0.000    3.333    0.000    0.000    0.000    2.333 
#    0.000    2.667    0.000    0.000    0.000    0.000 
#
# Total GULP energy -594837.264079 kJ/mol
# GULP energy per Si atom -12392.443002 kJ/mol
# Density = 2.106163 g / cm^3
# Si number density = 21.109673 Si / 1000 Ang^3
#
#
#
# Elastic Constant Matrix: (Units=GPa)
#
#
# Indices 1 2 3 4 5 6 
#
# 1 79.8360 25.5788 41.4606 0.0000 0.0000 0.0000
# 2 25.5788 79.8360 41.4606 0.0000 0.0000 0.0000
# 3 41.4606 41.4606 147.6046 0.0000 0.0000 0.0000
# 4 0.0000 0.0000 0.0000 6.3997 0.0000 0.0000
# 5 0.0000 0.0000 0.0000 0.0000 6.3997 0.0000
# 6 0.0000 0.0000 0.0000 0.0000 0.0000 10.4060
#
#
#
# Elastic Compliance Matrix: (Units=1/GPa)
#
#
# Indices 1 2 3 4 5 6 
#
# 1 0.015304 -0.003127 -0.003420 0.000000 0.000000 0.000000
# 2 -0.003127 0.015304 -0.003420 0.000000 0.000000 0.000000
# 3 -0.003420 -0.003420 0.008696 0.000000 0.000000 0.000000
# 4 0.000000 0.000000 0.000000 0.156258 0.000000 0.000000
# 5 0.000000 0.000000 0.000000 0.000000 0.156258 0.000000
# 6 0.000000 0.000000 0.000000 0.000000 0.000000 0.096098
#
#
# Mechanical properties :
#
#
# Convention : Reuss Voigt Hill
#
# Bulk Modulus (GPa) = 51.62988 58.25296 54.94142
# Shear Modulus (GPa) = 10.54165 17.89285 14.21725
#
# Velocity S-wave (km/s) = 2.23709 2.91454 2.59799
# Velocity P-wave (km/s) = 5.58425 6.24350 5.92305
#
# Compressibility (1/GPa) = 0.01936863
#
# Stress axis : x y z
#
# Youngs Moduli (GPa) = 65.34328 65.34328 114.99092
#
# Poissons Ratio (x) = 0.20432 0.39331
# Poissons Ratio (y) = 0.20432 0.39331
# Poissons Ratio (z) = 0.22350 0.22350
#
# Static dielectric constant tensor:
#      x y z
#    x 3.760530 0.000000 0.000000 
#    y 0.000000 3.760530 0.000000 
#    z 0.000000 0.000000 3.669540 
# 
# 
# High freq. dielectric constant tensor:
#      x y z
#    x 1.808650 0.000000 0.000000 
#    y 0.000000 1.808650 0.000000 
#    z 0.000000 0.000000 1.820930 
# 
# From -- ./inp_files/4730.got.cif
#   From: 2010.03.12/outbox.cif.g09.slc.cpg/sg105_3_cif.got.tgz:4730.got - 2010.04.14 01:45:32.
