data_PCOD8307900
_publ_section_title
;
Structure prediction by ZEFSAII (Michael W. Deem and Ramdas Pophale) SiO2 
 PCOD8307900
Probable space group: I 41 M D
;
_chemical_formula_sum "Si O2"
_cell_formula_units_Z 128
_cell_length_a 23.146418
_cell_length_b 23.146418
_cell_length_c 12.323380
_cell_angle_alpha 90.000000
_cell_angle_beta 90.000000
_cell_angle_gamma 90.000000
_cell_volume 6602.332985
_symmetry_space_group_name_H-M "I 41 M D"
_symmetry_group_IT_number 109
_symmetry_cell_setting 'tetragonal'
loop_
_space_group_symop_operation_xyz
x,y,z
-y,1/2+x,1/4+z
-x,-y,z
y,1/2-x,1/4+z
-x,y,z
x,-y,z
-y,1/2-x,1/4+z
y,1/2+x,1/4+z
1/2+x,1/2+y,1/2+z
1/2-y,x,3/4+z
1/2-x,1/2-y,1/2+z
1/2+y,-x,3/4+z
1/2-x,1/2+y,1/2+z
1/2+x,1/2-y,1/2+z
1/2-y,-x,3/4+z
1/2+y,x,3/4+z
loop_
_atom_site_type_symbol
_atom_site_label
_atom_site_fract_x
_atom_site_fract_y
_atom_site_fract_z
Si Si1 0.757158 0.639959 0.537920
Si Si2 0.568631 0.660744 0.653197
Si Si3 0.435048 0.256432 0.992989
Si Si4 0.324897 0.343028 0.225062
Si Si5 0.932744 0.065084 0.331072
Si Si6 0.872993 0.383637 0.777199
Si Si7 0.719300 0.656148 0.893527
Si Si8 0.808236 0.641572 0.210690
O O1 0.779135 0.593530 0.449737
O O2 0.738072 0.604095 0.642378
O O3 0.806537 0.687596 0.552309
O O4 0.704825 0.678933 0.502210
O O5 0.500000 0.663887 0.643781
O O6 0.587357 0.608606 0.735280
O O7 0.595191 0.654772 0.531974
O O8 0.500000 0.235221 0.974719
O O9 0.433872 0.325800 0.008598
O O10 0.409351 0.225977 0.099439
O O11 0.369998 0.384325 0.155068
O O12 0.316359 0.280595 0.170564
O O13 0.358817 0.332560 0.338119
O O14 0.260647 0.371184 0.226930
O O15 0.899544 0.074689 0.446466
O O16 0.000000 0.073606 0.354770
O O17 0.918990 0.000000 0.292321
O O18 0.845056 0.321498 0.747700
#
# Coordination Sequence:
#
# PCOD8307900 Si02
#       8
#    16  16  16  16  16  16  16  16
#     4  11  21  34  57  87 116 159 200 247 302 361
#     4  11  23  41  60  89 126 159 203 256 307 361
#     4  10  20  33  53  82 120 152 185 240 306 354
#     4  11  22  37  59  84 126 161 206 248 292 370
#     4  10  21  41  68  91 117 154 197 256 319 367
#     4  10  20  35  56  82 117 151 194 243 296 359
#     4  10  20  33  52  89 119 153 195 242 301 359
#     4  12  23  38  60  85 121 169 210 242 301 368
#
# _framework density 19.387084999999999
#
# number of rings (size 3 to 8) (size 9 to 14) (size 15 to 20)
#    0.000    1.375    5.000    2.250    3.500    0.500 
#    0.000    4.375    0.000    0.000    0.000    1.750 
#    0.000    0.000    0.000    0.000    0.000    0.000 
#
# Total GULP energy -792976.122914 kJ/mol
# GULP energy per Si atom -12390.251921 kJ/mol
# Density = 1.934296 g / cm^3
# Si number density = 19.387085 Si / 1000 Ang^3
#
#
#
# Elastic Constant Matrix: (Units=GPa)
#
#
# Indices 1 2 3 4 5 6 
#
# 1 65.8313 20.4038 33.9525 0.0000 0.0000 0.0000
# 2 20.4038 65.8313 33.9525 0.0000 0.0000 0.0000
# 3 33.9525 33.9525 127.7309 0.0000 0.0000 0.0000
# 4 0.0000 0.0000 0.0000 19.7245 0.0000 0.0000
# 5 0.0000 0.0000 0.0000 0.0000 19.7245 0.0000
# 6 0.0000 0.0000 0.0000 0.0000 0.0000 21.5920
#
#
#
# Elastic Compliance Matrix: (Units=1/GPa)
#
#
# Indices 1 2 3 4 5 6 
#
# 1 0.018340 -0.003674 -0.003898 0.000000 0.000000 0.000000
# 2 -0.003674 0.018340 -0.003898 0.000000 0.000000 0.000000
# 3 -0.003898 -0.003898 0.009901 0.000000 0.000000 0.000000
# 4 0.000000 0.000000 0.000000 0.050698 0.000000 0.000000
# 5 0.000000 0.000000 0.000000 0.000000 0.050698 0.000000
# 6 0.000000 0.000000 0.000000 0.000000 0.000000 0.046313
#
#
# Mechanical properties :
#
#
# Convention : Reuss Voigt Hill
#
# Bulk Modulus (GPa) = 42.30162 48.44571 45.37367
# Shear Modulus (GPa) = 22.21121 23.61383 22.91252
#
# Velocity S-wave (km/s) = 3.38845 3.49380 3.44153
# Velocity P-wave (km/s) = 6.09718 6.42794 6.26474
#
# Compressibility (1/GPa) = 0.02363975
#
# Stress axis : x y z
#
# Youngs Moduli (GPa) = 54.52702 54.52702 100.99531
#
# Poissons Ratio (x) = 0.20031 0.39372
# Poissons Ratio (y) = 0.20031 0.39372
# Poissons Ratio (z) = 0.21257 0.21257
#
# Static dielectric constant tensor:
#      x y z
#    x 3.400850 0.000000 0.000000 
#    y 0.000000 3.400850 0.000000 
#    z 0.000000 0.000000 4.053000 
# 
# 
# High freq. dielectric constant tensor:
#      x y z
#    x 1.736000 0.000000 0.000000 
#    y 0.000000 1.736000 0.000000 
#    z 0.000000 0.000000 1.758370 
# 
# From -- ./inp_files/2177.got.cif
#   From: 2010.03.12/outbox.cif.g09.slc.cpg/sg109_2_cif.got.tgz:2177.got - 2010.04.14 01:55:16.
