data_PCOD8307796
_publ_section_title
;
Structure prediction by ZEFSAII (Michael W. Deem and Ramdas Pophale) SiO2 
 PCOD8307796
Probable space group: I 4 C M
;
_chemical_formula_sum "Si O2"
_cell_formula_units_Z 112
_cell_length_a 15.045304
_cell_length_b 15.045304
_cell_length_c 25.655798
_cell_angle_alpha 90.000000
_cell_angle_beta 90.000000
_cell_angle_gamma 90.000000
_cell_volume 5807.476515
_symmetry_space_group_name_H-M "I 4 C M"
_symmetry_group_IT_number 108
_symmetry_cell_setting 'tetragonal'
loop_
_space_group_symop_operation_xyz
x,y,z
-y,x,z
-x,-y,z
y,-x,z
-x,y,1/2+z
x,-y,1/2+z
-y,-x,1/2+z
y,x,1/2+z
1/2+x,1/2+y,1/2+z
1/2-y,1/2+x,1/2+z
1/2-x,1/2-y,1/2+z
1/2+y,1/2-x,1/2+z
1/2-x,1/2+y,z
1/2+x,1/2-y,z
1/2-y,1/2-x,z
1/2+y,1/2+x,z
loop_
_atom_site_type_symbol
_atom_site_label
_atom_site_fract_x
_atom_site_fract_y
_atom_site_fract_z
Si Si1 0.994217 0.643208 0.590170
Si Si2 0.274055 0.626806 0.628552
Si Si3 0.108551 0.902807 0.839882
Si Si4 0.097193 0.108551 0.222497
Si Si5 0.626805 0.274055 0.933827
Si Si6 0.643208 0.005783 0.472208
Si Si7 0.595019 0.388718 0.031189
O O1 0.065677 0.565677 0.590087
O O2 0.030389 0.723645 0.626395
O O3 0.983249 0.679942 0.531189
O O4 0.899733 0.600268 0.609741
O O5 0.203887 0.703887 0.620073
O O6 0.323683 0.644049 0.683153
O O7 0.345263 0.635950 0.582714
O O8 0.129440 0.870559 0.781189
O O9 0.176317 0.855951 0.879226
O O10 0.007060 0.877555 0.850196
O O11 0.992939 0.122445 0.212183
O O12 0.703885 0.203885 0.942305
O O13 0.530388 0.223645 0.935983
O O14 0.635951 0.345262 0.979666
O O15 0.565677 0.934324 0.472290
O O16 0.600268 0.100268 0.452637
O O17 0.623527 0.490004 0.031189
#
# Coordination Sequence:
#
# PCOD8307796 Si02
#       7
#    16  16  16  16  16  16  16
#     4   8  14  27  47  71 106 152 186 206 250 323
#     4  11  20  33  55  84 115 141 179 236 285 325
#     4   9  19  38  61  79 101 141 187 226 276 343
#     4   9  19  38  61  79 101 141 187 226 276 343
#     4  11  20  33  55  84 115 141 179 236 285 325
#     4   8  14  27  47  71 106 152 186 206 250 323
#     4  11  23  38  54  73 105 149 188 221 270 333
#
# _framework density 19.285485000000001
#
# number of rings (size 3 to 8) (size 9 to 14) (size 15 to 20)
#    0.000    2.429    1.429    3.857    0.000    2.857 
#    0.000    7.143    0.000    1.714    0.000    0.000 
#    0.000    0.000    0.000    0.000    0.000    0.000 
#
# Total GULP energy -693991.221847 kJ/mol
# GULP energy per Si atom -12392.700390 kJ/mol
# Density = 1.924159 g / cm^3
# Si number density = 19.285485 Si / 1000 Ang^3
#
#
#
# Elastic Constant Matrix: (Units=GPa)
#
#
# Indices 1 2 3 4 5 6 
#
# 1 67.1316 21.1589 48.4778 0.0000 0.0000 0.0000
# 2 21.1589 67.1316 48.4778 0.0000 0.0000 0.0000
# 3 48.4778 48.4778 125.9067 0.0000 0.0000 0.0000
# 4 0.0000 0.0000 0.0000 13.9527 0.0000 0.0000
# 5 0.0000 0.0000 0.0000 0.0000 13.9527 0.0000
# 6 0.0000 0.0000 0.0000 0.0000 0.0000 14.6979
#
#
#
# Elastic Compliance Matrix: (Units=1/GPa)
#
#
# Indices 1 2 3 4 5 6 
#
# 1 0.020688 -0.001064 -0.007556 0.000000 0.000000 0.000000
# 2 -0.001064 0.020688 -0.007556 0.000000 0.000000 0.000000
# 3 -0.007556 -0.007556 0.013761 0.000000 0.000000 0.000000
# 4 0.000000 0.000000 0.000000 0.071671 0.000000 0.000000
# 5 0.000000 0.000000 0.000000 0.000000 0.071671 0.000000
# 6 0.000000 0.000000 0.000000 0.000000 0.000000 0.068037
#
#
# Mechanical properties :
#
#
# Convention : Reuss Voigt Hill
#
# Bulk Modulus (GPa) = 43.88847 55.15543 49.52195
# Shear Modulus (GPa) = 16.31532 17.99102 17.15317
#
# Velocity S-wave (km/s) = 2.91175 3.05762 2.98557
# Velocity P-wave (km/s) = 5.84046 6.41303 6.13343
#
# Compressibility (1/GPa) = 0.02278503
#
# Stress axis : x y z
#
# Youngs Moduli (GPa) = 48.33793 48.33793 72.67115
#
# Poissons Ratio (x) = 0.05145 0.54907
# Poissons Ratio (y) = 0.05145 0.54907
# Poissons Ratio (z) = 0.36522 0.36522
#
# Static dielectric constant tensor:
#      x y z
#    x 3.566320 0.000000 0.000000 
#    y 0.000000 3.566320 0.000000 
#    z 0.000000 0.000000 3.368670 
# 
# 
# High freq. dielectric constant tensor:
#      x y z
#    x 1.746950 0.000000 0.000000 
#    y 0.000000 1.746950 0.000000 
#    z 0.000000 0.000000 1.724980 
# 
# From -- ./inp_files/3203.got.cif
#   From: 2010.03.12/outbox.cif.g09.slc.cpg/sg108_2_cif.got.tgz:3203.got - 2010.04.14 01:53:11.
