data_PCOD8307596
_publ_section_title
;
Structure prediction by ZEFSAII (Michael W. Deem and Ramdas Pophale) SiO2 
 PCOD8307596
Probable space group: I 4 M M
;
_chemical_formula_sum "Si O2"
_cell_formula_units_Z 92
_cell_length_a 25.043086
_cell_length_b 25.043086
_cell_length_c 7.554185
_cell_angle_alpha 90.000000
_cell_angle_beta 90.000000
_cell_angle_gamma 90.000000
_cell_volume 4737.653629
_symmetry_space_group_name_H-M "I 4 M M"
_symmetry_group_IT_number 107
_symmetry_cell_setting 'tetragonal'
loop_
_space_group_symop_operation_xyz
x,y,z
-y,x,z
-x,-y,z
y,-x,z
-x,y,z
x,-y,z
-y,-x,z
y,x,z
1/2+x,1/2+y,1/2+z
1/2-y,1/2+x,1/2+z
1/2-x,1/2-y,1/2+z
1/2+y,1/2-x,1/2+z
1/2-x,1/2+y,1/2+z
1/2+x,1/2-y,1/2+z
1/2-y,1/2-x,1/2+z
1/2+y,1/2+x,1/2+z
loop_
_atom_site_type_symbol
_atom_site_label
_atom_site_fract_x
_atom_site_fract_y
_atom_site_fract_z
Si Si1 0.903946 0.500000 0.051310
Si Si2 0.436538 0.736443 0.961391
Si Si3 0.337650 0.059708 0.968393
Si Si4 0.937283 0.148553 0.168700
Si Si5 0.912318 0.650069 0.362202
Si Si6 0.219309 0.938988 0.853806
Si Si7 0.000000 0.500000 0.299318
O O1 0.867071 0.448261 0.030524
O O2 0.941537 0.500000 0.217635
O O3 0.944408 0.500000 0.891077
O O4 0.500000 0.751400 0.961183
O O5 0.401016 0.787329 0.897727
O O6 0.414243 0.720409 0.156505
O O7 0.424757 0.687760 0.831377
O O8 0.355759 0.059163 0.172515
O O9 0.361876 0.109982 0.861729
O O10 0.274738 0.067493 0.957119
O O11 0.353537 0.000000 0.889468
O O12 0.906683 0.093318 0.201363
O O13 0.915122 0.174535 0.985383
O O14 0.000000 0.135940 0.158985
O O15 0.204480 0.000000 0.826065
#
# Coordination Sequence:
#
# PCOD8307596 Si02
#       7
#     8  16  16  16  16  16   4
#     4  11  22  34  44  64 104 154 193 258 300 378
#     4  10  19  37  59  85 115 157 203 242 284 341
#     4  11  22  36  50  78 110 152 204 265 312 354
#     4  10  21  39  66  96 129 157 186 229 280 349
#     4  12  21  34  52  74 109 151 205 260 306 353
#     4   9  19  36  59  84 115 151 199 242 286 344
#     4  10  24  34  40  62 108 154 204 238 336 370
#
# _framework density 19.418897000000001
#
# number of rings (size 3 to 8) (size 9 to 14) (size 15 to 20)
#    0.000    1.565    3.478    2.087    2.435    0.870 
#    1.565    0.000    0.000    1.043    0.000    4.870 
#    0.000    0.000    0.000    0.000    0.000    0.000 
#
# Total GULP energy -569943.175320 kJ/mol
# GULP energy per Si atom -12390.069029 kJ/mol
# Density = 1.937470 g / cm^3
# Si number density = 19.418897 Si / 1000 Ang^3
#
#
#
# Elastic Constant Matrix: (Units=GPa)
#
#
# Indices 1 2 3 4 5 6 
#
# 1 86.0261 54.3455 31.9469 0.0000 0.0000 -0.0013
# 2 54.3455 86.0261 31.9469 0.0000 0.0000 0.0013
# 3 31.9469 31.9469 86.4264 0.0000 0.0000 0.0000
# 4 0.0000 0.0000 0.0000 17.8554 0.0000 0.0000
# 5 0.0000 0.0000 0.0000 0.0000 17.8554 0.0000
# 6 -0.0013 0.0013 0.0000 0.0000 0.0000 18.7443
#
#
#
# Elastic Compliance Matrix: (Units=1/GPa)
#
#
# Indices 1 2 3 4 5 6 
#
# 1 0.020065 -0.011500 -0.003166 0.000000 0.000000 0.000002
# 2 -0.011500 0.020065 -0.003166 0.000000 0.000000 -0.000002
# 3 -0.003166 -0.003166 0.013911 0.000000 0.000000 0.000000
# 4 0.000000 0.000000 0.000000 0.056006 0.000000 0.000000
# 5 0.000000 0.000000 0.000000 0.000000 0.056006 0.000000
# 6 0.000002 -0.000002 0.000000 0.000000 0.000000 0.053350
#
#
# Mechanical properties :
#
#
# Convention : Reuss Voigt Hill
#
# Bulk Modulus (GPa) = 54.41532 54.99524 54.70528
# Shear Modulus (GPa) = 19.14300 20.24027 19.69164
#
# Velocity S-wave (km/s) = 3.14314 3.23197 3.18786
# Velocity P-wave (km/s) = 6.42301 6.50457 6.46392
#
# Compressibility (1/GPa) = 0.01837718
#
# Stress axis : x y z
#
# Youngs Moduli (GPa) = 49.83780 49.83780 71.88497
#
# Poissons Ratio (x) = 0.57314 0.22759
# Poissons Ratio (y) = 0.57314 0.22759
# Poissons Ratio (z) = 0.15779 0.15779
#
# Static dielectric constant tensor:
#      x y z
#    x 3.250440 0.000000 0.000000 
#    y 0.000000 3.250440 0.000000 
#    z 0.000000 0.000000 3.891130 
# 
# 
# High freq. dielectric constant tensor:
#      x y z
#    x 1.722720 0.000000 0.000000 
#    y 0.000000 1.722720 0.000000 
#    z 0.000000 0.000000 1.781130 
# 
# From -- ./inp_files/1531.got.cif
#   From: 2010.03.12/outbox.cif.g09.slc.cpg/sg107_1_cif.got.tgz:1531.got - 2010.04.14 01:49:11.
