data_PCOD8307156
_publ_section_title
;
Structure prediction by ZEFSAII (Michael W. Deem and Ramdas Pophale) SiO2 
 PCOD8307156
Probable space group: P 42 M C
;
_chemical_formula_sum "Si O2"
_cell_formula_units_Z 48
_cell_length_a 7.905412
_cell_length_b 7.905412
_cell_length_c 37.600329
_cell_angle_alpha 90.000000
_cell_angle_beta 90.000000
_cell_angle_gamma 90.000000
_cell_volume 2349.852823
_symmetry_space_group_name_H-M "P 42 M C"
_symmetry_group_IT_number 105
_symmetry_cell_setting 'tetragonal'
loop_
_space_group_symop_operation_xyz
x,y,z
-y,x,1/2+z
-x,-y,z
y,-x,1/2+z
-x,y,z
x,-y,z
-y,-x,1/2+z
y,x,1/2+z
loop_
_atom_site_type_symbol
_atom_site_label
_atom_site_fract_x
_atom_site_fract_y
_atom_site_fract_z
Si Si1 0.197022 0.000000 0.084661
Si Si2 0.000000 0.692668 0.336523
Si Si3 0.298480 0.686724 0.879317
Si Si4 0.810767 0.000000 0.759333
Si Si5 0.194821 0.000000 0.006543
Si Si6 0.301327 0.307935 0.711878
Si Si7 0.687800 0.300504 0.459218
Si Si8 0.313455 0.698537 0.631858
O O1 0.246673 0.170914 0.104601
O O2 0.000000 0.000000 0.080825
O O3 0.284260 0.000000 0.045504
O O4 0.170179 0.777658 0.352922
O O5 0.000000 0.500000 0.349364
O O6 0.000000 0.694485 0.294033
O O7 0.500000 0.684466 0.877981
O O8 0.231622 0.500000 0.867812
O O9 0.235769 0.727902 0.919362
O O10 0.783838 0.171426 0.737337
O O11 0.000000 0.000000 0.773695
O O12 0.237990 0.829887 0.985852
O O13 0.000000 0.000000 0.014054
O O14 0.500000 0.304689 0.718618
O O15 0.233358 0.500000 0.719141
O O16 0.259429 0.248572 0.671728
O O17 0.500000 0.236197 0.470941
O O18 0.689880 0.500000 0.459413
O O19 0.500000 0.776323 0.622361
O O20 0.331780 0.500000 0.630994
#
# Coordination Sequence:
#
# PCOD8307156 Si02
#       8
#     4   4   8   4   4   8   8   8
#     4  11  25  38  54  82 117 155 193 229 285 347
#     4  10  19  33  53  77 109 149 189 229 277 339
#     4   8  15  30  55  84 107 135 185 244 290 329
#     4  12  26  37  53  84 121 157 187 227 289 351
#     4  11  24  38  50  77 121 161 189 227 281 349
#     4   9  20  40  63  85 108 139 187 241 286 339
#     4   9  18  35  61  88 110 141 193 248 291 335
#     4   9  20  39  62  86 109 138 183 239 291 342
#
# _framework density 20.426812000000002
#
# number of rings (size 3 to 8) (size 9 to 14) (size 15 to 20)
#    0.000    2.500    0.000    3.750    2.333    5.000 
#    0.000    6.667    0.000    1.000    0.000    0.000 
#    0.000    0.000    0.000    0.000    0.000    0.000 
#
# Total GULP energy -594822.669181 kJ/mol
# GULP energy per Si atom -12392.138941 kJ/mol
# Density = 2.038032 g / cm^3
# Si number density = 20.426812 Si / 1000 Ang^3
#
#
#
# Elastic Constant Matrix: (Units=GPa)
#
#
# Indices 1 2 3 4 5 6 
#
# 1 90.4928 32.1201 63.5108 0.0000 0.0000 0.0000
# 2 32.1201 90.4928 63.5108 0.0000 0.0000 0.0000
# 3 63.5108 63.5108 150.0661 0.0000 0.0000 0.0000
# 4 0.0000 0.0000 0.0000 26.0982 0.0000 0.0000
# 5 0.0000 0.0000 0.0000 0.0000 26.0982 0.0000
# 6 0.0000 0.0000 0.0000 0.0000 0.0000 -16.3098
#
#
#
# Elastic Compliance Matrix: (Units=1/GPa)
#
#
# Indices 1 2 3 4 5 6 
#
# 1 0.015827 -0.001304 -0.006147 0.000000 0.000000 0.000000
# 2 -0.001304 0.015827 -0.006147 0.000000 0.000000 0.000000
# 3 -0.006147 -0.006147 0.011866 0.000000 0.000000 0.000000
# 4 0.000000 0.000000 0.000000 0.038317 0.000000 0.000000
# 5 0.000000 0.000000 0.000000 0.000000 0.038317 0.000000
# 6 0.000000 0.000000 0.000000 0.000000 0.000000 -0.061313
#
#
# Mechanical properties :
#
#
# Convention : Reuss Voigt Hill
#
# Bulk Modulus (GPa) = 61.24883 72.14832 66.69858
# Shear Modulus (GPa) = 54.65772 18.63797 36.64785
#
# Velocity S-wave (km/s) = 5.17841 3.02392 4.24028
# Velocity P-wave (km/s) = 8.11198 6.89849 7.52972
#
# Compressibility (1/GPa) = 0.01632684
#
# Stress axis : x y z
#
# Youngs Moduli (GPa) = 63.18205 63.18205 84.27177
#
# Poissons Ratio (x) = 0.08239 0.51798
# Poissons Ratio (y) = 0.08239 0.51798
# Poissons Ratio (z) = 0.38835 0.38835
#
# Static dielectric constant tensor:
#      x y z
#    x 3.678880 0.000000 0.000000 
#    y 0.000000 3.678880 0.000000 
#    z 0.000000 0.000000 4.379020 
# 
# 
# High freq. dielectric constant tensor:
#      x y z
#    x 1.795010 0.000000 0.000000 
#    y 0.000000 1.795010 0.000000 
#    z 0.000000 0.000000 1.791330 
# 
# From -- ./inp_files/4936.got.cif
#   From: 2010.03.12/outbox.cif.g09.slc.cpg/sg105_3_cif.got.tgz:4936.got - 2010.04.14 01:45:32.
