data_PCOD8307362
_publ_section_title
;
Structure prediction by ZEFSAII (Michael W. Deem and Ramdas Pophale) SiO2 
 PCOD8307362
Probable space group: P 42 M C
;
_chemical_formula_sum "Si O2"
_cell_formula_units_Z 48
_cell_length_a 9.344927
_cell_length_b 9.344927
_cell_length_c 26.068511
_cell_angle_alpha 90.000000
_cell_angle_beta 90.000000
_cell_angle_gamma 90.000000
_cell_volume 2276.502082
_symmetry_space_group_name_H-M "P 42 M C"
_symmetry_group_IT_number 105
_symmetry_cell_setting 'tetragonal'
loop_
_space_group_symop_operation_xyz
x,y,z
-y,x,1/2+z
-x,-y,z
y,-x,1/2+z
-x,y,z
x,-y,z
-y,-x,1/2+z
y,x,1/2+z
loop_
_atom_site_type_symbol
_atom_site_label
_atom_site_fract_x
_atom_site_fract_y
_atom_site_fract_z
Si Si1 0.279500 0.173586 0.269880
Si Si2 0.660267 0.659255 0.869882
Si Si3 0.833412 0.774726 0.559648
Si Si4 0.500000 0.334653 0.080999
Si Si5 0.000000 0.334659 0.122197
Si Si6 0.500000 0.667504 0.202722
Si Si7 0.843423 0.163017 0.943646
Si Si8 0.000000 0.666086 0.243724
O O1 0.343914 0.226592 0.323464
O O2 0.363382 0.246462 0.222937
O O3 0.125102 0.241587 0.267821
O O4 0.282071 0.000000 0.266002
O O5 0.500000 0.712507 0.853483
O O6 0.648827 0.500000 0.891403
O O7 0.716984 0.750878 0.917275
O O8 0.750708 0.627949 0.555739
O O9 0.750025 0.862514 0.602883
O O10 0.819143 0.848315 0.504738
O O11 0.000000 0.757280 0.575679
O O12 0.500000 0.500000 0.063531
O O13 0.500000 0.324388 0.142024
O O14 0.000000 0.330167 0.182951
O O15 0.000000 0.500000 0.103005
O O16 0.500000 0.500000 0.221053
O O17 0.000000 0.212302 0.923324
O O18 0.815570 0.000000 0.928489
O O19 0.000000 0.500000 0.262487
#
# Coordination Sequence:
#
# PCOD8307362 Si02
#       8
#     8   8   8   4   4   4   8   4
#     4  12  25  42  67  98 131 170 224 278 331 395
#     4  11  25  44  67  95 128 169 215 268 334 399
#     4  11  23  42  66  94 132 173 220 274 334 397
#     4  11  25  41  63  97 135 177 221 273 328 397
#     4  11  23  41  67  99 133 177 221 271 328 393
#     4  11  23  43  67  93 135 179 219 269 332 395
#     4  10  23  44  67  93 127 168 214 269 331 390
#     4  11  25  43  65  95 137 179 223 267 330 397
#
# _framework density 21.084978
#
# number of rings (size 3 to 8) (size 9 to 14) (size 15 to 20)
#    0.000    1.000    1.667    4.500    2.333    9.333 
#    0.000    0.000    0.000    0.000    0.000    0.000 
#    0.000    0.000    0.000    0.000    0.000    0.000 
#
# Total GULP energy -595066.505732 kJ/mol
# GULP energy per Si atom -12397.218869 kJ/mol
# Density = 2.103699 g / cm^3
# Si number density = 21.084978 Si / 1000 Ang^3
#
#
#
# Elastic Constant Matrix: (Units=GPa)
#
#
# Indices 1 2 3 4 5 6 
#
# 1 161.9084 64.1565 25.0615 0.0000 0.0000 0.0000
# 2 64.1565 161.9084 25.0615 0.0000 0.0000 0.0000
# 3 25.0615 25.0615 50.6388 0.0000 0.0000 0.0000
# 4 0.0000 0.0000 0.0000 32.7064 0.0000 0.0000
# 5 0.0000 0.0000 0.0000 0.0000 32.7064 0.0000
# 6 0.0000 0.0000 0.0000 0.0000 0.0000 42.5384
#
#
#
# Elastic Compliance Matrix: (Units=1/GPa)
#
#
# Indices 1 2 3 4 5 6 
#
# 1 0.007599 -0.002631 -0.002459 0.000000 0.000000 0.000000
# 2 -0.002631 0.007599 -0.002459 0.000000 0.000000 0.000000
# 3 -0.002459 -0.002459 0.022182 0.000000 0.000000 0.000000
# 4 0.000000 0.000000 0.000000 0.030575 0.000000 0.000000
# 5 0.000000 0.000000 0.000000 0.000000 0.030575 0.000000
# 6 0.000000 0.000000 0.000000 0.000000 0.000000 0.023508
#
#
# Mechanical properties :
#
#
# Convention : Reuss Voigt Hill
#
# Bulk Modulus (GPa) = 44.87737 67.00163 55.93950
# Shear Modulus (GPa) = 34.58678 38.93531 36.76105
#
# Velocity S-wave (km/s) = 4.05452 4.30186 4.18002
# Velocity P-wave (km/s) = 6.57640 7.51802 7.06292
#
# Compressibility (1/GPa) = 0.02228295
#
# Stress axis : x y z
#
# Youngs Moduli (GPa) = 131.59012 131.59012 45.08213
#
# Poissons Ratio (x) = 0.34616 0.11086
# Poissons Ratio (y) = 0.34616 0.11086
# Poissons Ratio (z) = 0.32359 0.32359
#
# Static dielectric constant tensor:
#      x y z
#    x 4.582400 0.000000 0.000000 
#    y 0.000000 4.582400 0.000000 
#    z 0.000000 0.000000 3.609350 
# 
# 
# High freq. dielectric constant tensor:
#      x y z
#    x 1.842280 0.000000 0.000000 
#    y 0.000000 1.842280 0.000000 
#    z 0.000000 0.000000 1.822420 
# 
# From -- ./inp_files/4905.got.cif
#   From: 2010.03.12/outbox.cif.g09.slc.cpg/sg105_3_cif.got.tgz:4905.got - 2010.04.14 01:45:32.
