data_PCOD8307807
_publ_section_title
;
Structure prediction by ZEFSAII (Michael W. Deem and Ramdas Pophale) SiO2 
 PCOD8307807
Probable space group: I 4 C M
;
_chemical_formula_sum "Si O2"
_cell_formula_units_Z 96
_cell_length_a 14.466103
_cell_length_b 14.466103
_cell_length_c 20.532061
_cell_angle_alpha 90.000000
_cell_angle_beta 90.000000
_cell_angle_gamma 90.000000
_cell_volume 4296.706134
_symmetry_space_group_name_H-M "I 4 C M"
_symmetry_group_IT_number 108
_symmetry_cell_setting 'tetragonal'
loop_
_space_group_symop_operation_xyz
x,y,z
-y,x,z
-x,-y,z
y,-x,z
-x,y,1/2+z
x,-y,1/2+z
-y,-x,1/2+z
y,x,1/2+z
1/2+x,1/2+y,1/2+z
1/2-y,1/2+x,1/2+z
1/2-x,1/2-y,1/2+z
1/2+y,1/2-x,1/2+z
1/2-x,1/2+y,z
1/2+x,1/2-y,z
1/2-y,1/2-x,z
1/2+y,1/2+x,z
loop_
_atom_site_type_symbol
_atom_site_label
_atom_site_fract_x
_atom_site_fract_y
_atom_site_fract_z
Si Si1 0.283299 0.367945 0.692160
Si Si2 0.132374 0.216190 0.443937
Si Si3 0.107139 0.106717 0.069501
Si Si4 0.891320 0.105169 0.319264
Si Si5 0.649666 0.994350 0.639980
Si Si6 0.351205 0.993757 0.993032
O O1 0.208871 0.291130 0.709519
O O2 0.333843 0.340628 0.624813
O O3 0.360247 0.365218 0.747849
O O4 0.232661 0.469002 0.686293
O O5 0.210995 0.289006 0.460448
O O6 0.139501 0.136103 0.497758
O O7 0.153330 0.171212 0.374123
O O8 0.031811 0.267965 0.447697
O O9 0.000836 0.128212 0.079352
O O10 0.997777 0.128534 0.329134
O O11 0.573916 0.073916 0.636514
O O12 0.687609 0.978255 0.566458
O O13 0.600612 0.899388 0.666372
O O14 0.431532 0.068469 0.995383
O O15 0.396627 0.896627 0.967025
#
# Coordination Sequence:
#
# PCOD8307807 Si02
#       6
#    16  16  16  16  16  16
#     4  11  21  39  66  96 127 163 214 277 331 396
#     4  11  21  39  66  96 127 163 214 277 331 396
#     4  11  23  40  62  89 125 169 214 259 316 391
#     4  11  25  46  66  84 119 173 224 270 330 393
#     4   8  14  28  54  90 131 167 195 238 313 397
#     4   8  14  28  54  90 131 167 195 238 313 397
#
# _framework density 22.342696
#
# number of rings (size 3 to 8) (size 9 to 14) (size 15 to 20)
#    0.000    2.000    1.667    4.000    0.000    2.667 
#    0.000   10.000    0.000    0.000    0.000    0.000 
#    0.000    0.000    0.000    0.000    0.000    0.000 
#
# Total GULP energy -594971.718391 kJ/mol
# GULP energy per Si atom -12395.244133 kJ/mol
# Density = 2.229184 g / cm^3
# Si number density = 22.342696 Si / 1000 Ang^3
#
#
#
# Elastic Constant Matrix: (Units=GPa)
#
#
# Indices 1 2 3 4 5 6 
#
# 1 58.7891 22.2670 31.0933 0.0000 0.0000 0.0002
# 2 22.2670 58.7891 31.0933 0.0000 0.0000 -0.0002
# 3 31.0933 31.0933 111.6606 0.0000 0.0000 0.0000
# 4 0.0000 0.0000 0.0000 34.0196 0.0000 0.0000
# 5 0.0000 0.0000 0.0000 0.0000 34.0196 0.0000
# 6 0.0002 -0.0002 0.0000 0.0000 0.0000 13.2666
#
#
#
# Elastic Compliance Matrix: (Units=1/GPa)
#
#
# Indices 1 2 3 4 5 6 
#
# 1 0.021535 -0.005846 -0.004369 0.000000 0.000000 0.000000
# 2 -0.005846 0.021535 -0.004369 0.000000 0.000000 0.000000
# 3 -0.004369 -0.004369 0.011389 0.000000 0.000000 0.000000
# 4 0.000000 0.000000 0.000000 0.029395 0.000000 0.000000
# 5 0.000000 0.000000 0.000000 0.000000 0.029395 0.000000
# 6 0.000000 0.000000 0.000000 0.000000 0.000000 0.075377
#
#
# Mechanical properties :
#
#
# Convention : Reuss Voigt Hill
#
# Bulk Modulus (GPa) = 39.53903 44.23844 41.88874
# Shear Modulus (GPa) = 22.10213 25.91350 24.00781
#
# Velocity S-wave (km/s) = 3.14862 3.40931 3.28155
# Velocity P-wave (km/s) = 5.56358 5.94481 5.75735
#
# Compressibility (1/GPa) = 0.02529147
#
# Stress axis : x y z
#
# Youngs Moduli (GPa) = 46.43654 46.43654 87.80570
#
# Poissons Ratio (x) = 0.27146 0.38360
# Poissons Ratio (y) = 0.27146 0.38360
# Poissons Ratio (z) = 0.20287 0.20287
#
# Static dielectric constant tensor:
#      x y z
#    x 4.177230 0.000000 0.000000 
#    y 0.000000 4.177230 0.000000 
#    z 0.000000 0.000000 3.655720 
# 
# 
# High freq. dielectric constant tensor:
#      x y z
#    x 1.887290 0.000000 0.000000 
#    y 0.000000 1.887290 0.000000 
#    z 0.000000 0.000000 1.845380 
# 
# From -- ./inp_files/2916.got.cif
#   From: 2010.03.12/outbox.cif.g09.slc.cpg/sg108_2_cif.got.tgz:2916.got - 2010.04.14 01:53:11.
