data_PCOD8307866
_publ_section_title
;
Structure prediction by ZEFSAII (Michael W. Deem and Ramdas Pophale) SiO2 
 PCOD8307866
Probable space group: I 41 M D
;
_chemical_formula_sum "Si O2"
_cell_formula_units_Z 96
_cell_length_a 21.655414
_cell_length_b 21.655414
_cell_length_c 14.550103
_cell_angle_alpha 90.000000
_cell_angle_beta 90.000000
_cell_angle_gamma 90.000000
_cell_volume 6823.372005
_symmetry_space_group_name_H-M "I 41 M D"
_symmetry_group_IT_number 109
_symmetry_cell_setting 'tetragonal'
loop_
_space_group_symop_operation_xyz
x,y,z
-y,1/2+x,1/4+z
-x,-y,z
y,1/2-x,1/4+z
-x,y,z
x,-y,z
-y,1/2-x,1/4+z
y,1/2+x,1/4+z
1/2+x,1/2+y,1/2+z
1/2-y,x,3/4+z
1/2-x,1/2-y,1/2+z
1/2+y,-x,3/4+z
1/2-x,1/2+y,1/2+z
1/2+x,1/2-y,1/2+z
1/2-y,-x,3/4+z
1/2+y,x,3/4+z
loop_
_atom_site_type_symbol
_atom_site_label
_atom_site_fract_x
_atom_site_fract_y
_atom_site_fract_z
Si Si1 0.168270 0.429925 0.134230
Si Si2 0.217246 0.343624 0.983714
Si Si3 0.343624 0.217246 0.845759
Si Si4 0.616421 0.750000 0.539737
Si Si5 0.831730 0.929925 0.945243
Si Si6 0.680929 0.750000 0.039737
O O1 0.148009 0.500000 0.115821
O O2 0.199970 0.404261 0.041447
O O3 0.217413 0.427477 0.216264
O O4 0.108419 0.391581 0.164736
O O5 0.159117 0.297769 0.984555
O O6 0.276208 0.309798 0.026714
O O7 0.234732 0.361491 0.878432
O O8 0.297769 0.159118 0.844919
O O9 0.404261 0.199970 0.788026
O O10 0.309798 0.276208 0.802759
O O11 0.361491 0.234732 0.951041
O O12 0.572522 0.782587 0.613209
O O13 0.851991 0.000000 0.963653
#
# Coordination Sequence:
#
# PCOD8307866 Si02
#       6
#    16  16  16  16  16  16
#     4  10  19  29  42  59  85 114 143 174 202 242
#     4   9  15  25  42  65  85 106 135 166 209 258
#     4   9  15  25  42  65  85 106 135 166 209 258
#     4   9  15  28  41  62  83 108 138 168 206 248
#     4  10  19  29  42  59  85 114 143 174 202 242
#     4   9  14  24  44  64  86 108 127 168 214 264
#
# _framework density 14.069291
#
# number of rings (size 3 to 8) (size 9 to 14) (size 15 to 20)
#    0.000    2.667    3.333    0.500    0.000    0.333 
#    0.000    0.833    0.000    0.000    0.000    0.000 
#    0.000    0.000    0.000    0.000    0.000    0.000 
#
# Total GULP energy -594895.193326 kJ/mol
# GULP energy per Si atom -12393.649861 kJ/mol
# Density = 1.403727 g / cm^3
# Si number density = 14.069291 Si / 1000 Ang^3
#
#
#
# Elastic Constant Matrix: (Units=GPa)
#
#
# Indices 1 2 3 4 5 6 
#
# 1 72.0987 28.0055 44.3460 0.0000 0.0000 0.0000
# 2 28.0055 72.0987 44.3460 0.0000 0.0000 0.0000
# 3 44.3460 44.3460 124.7785 0.0000 0.0000 0.0000
# 4 0.0000 0.0000 0.0000 15.5201 0.0000 0.0000
# 5 0.0000 0.0000 0.0000 0.0000 15.5201 0.0000
# 6 0.0000 0.0000 0.0000 0.0000 0.0000 7.1103
#
#
#
# Elastic Compliance Matrix: (Units=1/GPa)
#
#
# Indices 1 2 3 4 5 6 
#
# 1 0.018630 -0.004049 -0.005182 0.000000 0.000000 0.000000
# 2 -0.004049 0.018630 -0.005182 0.000000 0.000000 0.000000
# 3 -0.005182 -0.005182 0.011698 0.000000 0.000000 0.000000
# 4 0.000000 0.000000 0.000000 0.064433 0.000000 0.000000
# 5 0.000000 0.000000 0.000000 0.000000 0.064433 0.000000
# 6 0.000000 0.000000 0.000000 0.000000 0.000000 0.140641
#
#
# Mechanical properties :
#
#
# Convention : Reuss Voigt Hill
#
# Bulk Modulus (GPa) = 49.67412 55.81901 52.74656
# Shear Modulus (GPa) = 14.12427 17.78199 15.95313
#
# Velocity S-wave (km/s) = 3.17189 3.55898 3.37099
# Velocity P-wave (km/s) = 6.98555 7.52655 7.26109
#
# Compressibility (1/GPa) = 0.02013121
#
# Stress axis : x y z
#
# Youngs Moduli (GPa) = 53.67676 53.67676 85.48811
#
# Poissons Ratio (x) = 0.21735 0.44300
# Poissons Ratio (y) = 0.21735 0.44300
# Poissons Ratio (z) = 0.27815 0.27815
#
# Static dielectric constant tensor:
#      x y z
#    x 2.480660 0.000000 0.000000 
#    y 0.000000 2.480660 0.000000 
#    z 0.000000 0.000000 3.148280 
# 
# 
# High freq. dielectric constant tensor:
#      x y z
#    x 1.507170 0.000000 0.000000 
#    y 0.000000 1.507170 0.000000 
#    z 0.000000 0.000000 1.548430 
# 
# From -- ./inp_files/2611.got.cif
#   From: 2010.03.12/outbox.cif.g09.slc.cpg/sg109_2_cif.got.tgz:2611.got - 2010.04.14 01:55:16.
