data_PCOD8307070
_publ_section_title
;
Structure prediction by ZEFSAII (Michael W. Deem and Ramdas Pophale) SiO2 
 PCOD8307070
Probable space group: P 4 N C 
;
_chemical_formula_sum "Si O2"
_cell_formula_units_Z 64
_cell_length_a 12.115329
_cell_length_b 12.115329
_cell_length_c 21.133720
_cell_angle_alpha 90.000000
_cell_angle_beta 90.000000
_cell_angle_gamma 90.000000
_cell_volume 3102.032714
_symmetry_space_group_name_H-M "P 4 N C "
_symmetry_group_IT_number 104
_symmetry_cell_setting 'tetragonal'
loop_
_space_group_symop_operation_xyz
x,y,z
-y,x,z
-x,-y,z
y,-x,z
1/2-x,1/2+y,1/2+z
1/2+x,1/2-y,1/2+z
1/2-y,1/2-x,1/2+z
1/2+y,1/2+x,1/2+z
loop_
_atom_site_type_symbol
_atom_site_label
_atom_site_fract_x
_atom_site_fract_y
_atom_site_fract_z
Si Si1 0.295120 0.873233 0.782700
Si Si2 0.295119 0.873233 0.414926
Si Si3 0.601935 0.769246 0.236822
Si Si4 0.184815 0.011534 0.098813
Si Si5 0.378967 0.999405 0.195236
Si Si6 0.330374 0.569809 0.098813
Si Si7 0.500595 0.121032 0.502390
Si Si8 0.601935 0.769246 0.960805
O O1 0.357177 0.857175 0.848813
O O2 0.202785 0.781866 0.774160
O O3 0.382743 0.861165 0.727277
O O4 0.234282 0.991362 0.774572
O O5 0.382744 0.861164 0.470349
O O6 0.202786 0.781866 0.423466
O O7 0.234280 0.991361 0.423055
O O8 0.614896 0.900725 0.245089
O O9 0.598971 0.738020 0.161987
O O10 0.267732 0.018798 0.156846
O O11 0.267732 0.018799 0.040780
O O12 0.102343 0.115806 0.098813
O O13 0.500000 0.000000 0.159255
O O14 0.357218 0.440487 0.098813
O O15 0.261980 0.598972 0.035639
O O16 0.400724 0.114895 0.452536
O O17 0.500000 0.000000 0.538371
#
# Coordination Sequence:
#
# PCOD8307070 Si02
#       8
#     8   8   8   8   8   8   8   8
#     4  11  26  42  66  97 132 178 226 271 336 403
#     4  11  26  42  66  97 132 178 226 271 336 403
#     4  11  23  43  70  99 135 177 222 282 340 401
#     4  11  22  39  63  91 132 169 214 262 320 393
#     4  10  23  41  64  93 127 170 217 270 327 394
#     4  11  21  39  66 102 138 168 227 292 353 399
#     4  10  23  41  64  93 127 170 217 270 327 394
#     4  11  23  43  70  99 135 177 222 282 340 401
#
# _framework density 20.631633999999998
#
# number of rings (size 3 to 8) (size 9 to 14) (size 15 to 20)
#    0.000    1.250    2.500    2.625    3.500    8.000 
#    0.000    0.000    0.000    0.000    0.000    0.000 
#    0.000    0.000    0.000    0.000    0.000    0.000 
#
# Total GULP energy -793159.377565 kJ/mol
# GULP energy per Si atom -12393.115274 kJ/mol
# Density = 2.058468 g / cm^3
# Si number density = 20.631634 Si / 1000 Ang^3
#
#
#
# Elastic Constant Matrix: (Units=GPa)
#
#
# Indices 1 2 3 4 5 6 
#
# 1 116.5345 48.7212 12.5979 0.0000 0.0000 0.0000
# 2 48.7212 116.5345 12.5979 0.0000 0.0000 0.0000
# 3 12.5979 12.5979 74.7053 0.0000 0.0000 0.0000
# 4 0.0000 0.0000 0.0000 20.1263 0.0000 0.0000
# 5 0.0000 0.0000 0.0000 0.0000 20.1263 0.0000
# 6 0.0000 0.0000 0.0000 0.0000 0.0000 37.1677
#
#
#
# Elastic Compliance Matrix: (Units=1/GPa)
#
#
# Indices 1 2 3 4 5 6 
#
# 1 0.010479 -0.004268 -0.001047 0.000000 0.000000 0.000000
# 2 -0.004268 0.010479 -0.001047 0.000000 0.000000 0.000000
# 3 -0.001047 -0.001047 0.013739 0.000000 0.000000 0.000000
# 4 0.000000 0.000000 0.000000 0.049686 0.000000 0.000000
# 5 0.000000 0.000000 0.000000 0.000000 0.049686 0.000000
# 6 0.000000 0.000000 0.000000 0.000000 0.000000 0.026905
#
#
# Mechanical properties :
#
#
# Convention : Reuss Voigt Hill
#
# Bulk Modulus (GPa) = 45.51350 50.62317 48.06834
# Shear Modulus (GPa) = 27.62080 31.07452 29.34766
#
# Velocity S-wave (km/s) = 3.66288 3.88514 3.77564
# Velocity P-wave (km/s) = 6.32430 6.68698 6.50817
#
# Compressibility (1/GPa) = 0.02197150
#
# Stress axis : x y z
#
# Youngs Moduli (GPa) = 95.43216 95.43216 72.78453
#
# Poissons Ratio (x) = 0.40728 0.07623
# Poissons Ratio (y) = 0.40728 0.07623
# Poissons Ratio (z) = 0.09995 0.09995
#
# Static dielectric constant tensor:
#      x y z
#    x 3.943580 0.000000 0.000000 
#    y 0.000000 3.943580 0.000000 
#    z 0.000000 0.000000 3.418560 
# 
# 
# High freq. dielectric constant tensor:
#      x y z
#    x 1.825440 0.000000 0.000000 
#    y 0.000000 1.825440 0.000000 
#    z 0.000000 0.000000 1.780650 
# 
# From -- ./inp_files/1820.got.cif
#   From: 2010.03.12/outbox.cif.g09.slc.cpg/sg104_cif.got.tgz:1820.got - 2010.04.14 01:44:05.
