data_PCOD8307506
_publ_section_title
;
Structure prediction by ZEFSAII (Michael W. Deem and Ramdas Pophale) SiO2 
 PCOD8307506
Probable space group: I 4 M M
;
_chemical_formula_sum "Si O2"
_cell_formula_units_Z 128
_cell_length_a 24.475466
_cell_length_b 24.475466
_cell_length_c 12.250583
_cell_angle_alpha 90.000000
_cell_angle_beta 90.000000
_cell_angle_gamma 90.000000
_cell_volume 7338.692585
_symmetry_space_group_name_H-M "I 4 M M"
_symmetry_group_IT_number 107
_symmetry_cell_setting 'tetragonal'
loop_
_space_group_symop_operation_xyz
x,y,z
-y,x,z
-x,-y,z
y,-x,z
-x,y,z
x,-y,z
-y,-x,z
y,x,z
1/2+x,1/2+y,1/2+z
1/2-y,1/2+x,1/2+z
1/2-x,1/2-y,1/2+z
1/2+y,1/2-x,1/2+z
1/2-x,1/2+y,1/2+z
1/2+x,1/2-y,1/2+z
1/2-y,1/2-x,1/2+z
1/2+y,1/2+x,1/2+z
loop_
_atom_site_type_symbol
_atom_site_label
_atom_site_fract_x
_atom_site_fract_y
_atom_site_fract_z
Si Si1 0.737353 0.351600 0.446880
Si Si2 0.598484 0.315622 0.844350
Si Si3 0.298767 0.062043 0.402250
Si Si4 0.349859 0.562219 0.071978
Si Si5 0.334906 0.147906 0.562580
Si Si6 0.939791 0.210361 0.116709
Si Si7 0.163448 0.558195 0.676022
Si Si8 0.271018 0.361382 0.197026
O O1 0.705924 0.294077 0.452367
O O2 0.799460 0.341191 0.484670
O O3 0.704346 0.395021 0.521554
O O4 0.737036 0.375796 0.324424
O O5 0.659937 0.340064 0.848070
O O6 0.601121 0.251504 0.868283
O O7 0.573655 0.326538 0.723687
O O8 0.563087 0.343633 0.940458
O O9 0.326391 0.090653 0.503695
O O10 0.343572 0.061042 0.306483
O O11 0.279145 0.000000 0.430667
O O12 0.357813 0.500000 0.110866
O O13 0.403016 0.596985 0.108137
O O14 0.295859 0.586929 0.131171
O O15 0.391433 0.133661 0.621838
O O16 0.287008 0.157598 0.649251
O O17 0.940252 0.272333 0.154485
O O18 0.000000 0.192981 0.073364
O O19 0.139502 0.500000 0.632891
O O20 0.310367 0.310367 0.180531
#
# Coordination Sequence:
#
# PCOD8307506 Si02
#       8
#    16  16  16  16  16  16  16  16
#     4  10  21  34  48  73 108 138 170 213 265 323
#     4  10  18  29  50  76 104 137 174 218 266 308
#     4  10  19  32  51  75 104 135 174 214 255 314
#     4  10  20  34  52  74 103 138 176 221 267 312
#     4  11  19  31  54  75  97 136 174 210 260 317
#     4   9  17  31  50  71  98 136 178 214 254 308
#     4   8  17  32  48  70  99 127 160 209 256 300
#     4  10  21  34  47  71 107 140 169 211 265 318
#
# _framework density 17.441799
#
# number of rings (size 3 to 8) (size 9 to 14) (size 15 to 20)
#    0.000    2.250    1.250    3.375    0.000    1.125 
#    0.000    3.125    0.000    2.625    0.000    1.750 
#    0.000    3.250    0.000    0.500    0.000    0.000 
#
# Total GULP energy -793188.880953 kJ/mol
# GULP energy per Si atom -12393.576265 kJ/mol
# Density = 1.740210 g / cm^3
# Si number density = 17.441799 Si / 1000 Ang^3
#
#
#
# Elastic Constant Matrix: (Units=GPa)
#
#
# Indices 1 2 3 4 5 6 
#
# 1 96.2732 40.0577 41.9255 0.0000 0.0000 -0.0003
# 2 40.0577 96.2732 41.9255 0.0000 0.0000 0.0003
# 3 41.9255 41.9255 103.3474 0.0000 0.0000 0.0000
# 4 0.0000 0.0000 0.0000 20.0621 0.0000 0.0000
# 5 0.0000 0.0000 0.0000 0.0000 20.0621 0.0000
# 6 -0.0003 0.0003 0.0000 0.0000 0.0000 14.5113
#
#
#
# Elastic Compliance Matrix: (Units=1/GPa)
#
#
# Indices 1 2 3 4 5 6 
#
# 1 0.013781 -0.004007 -0.003965 0.000000 0.000000 0.000000
# 2 -0.004007 0.013781 -0.003965 0.000000 0.000000 0.000000
# 3 -0.003965 -0.003965 0.012893 0.000000 0.000000 0.000000
# 4 0.000000 0.000000 0.000000 0.049845 0.000000 0.000000
# 5 0.000000 0.000000 0.000000 0.000000 0.049845 0.000000
# 6 0.000000 0.000000 0.000000 0.000000 0.000000 0.068912
#
#
# Mechanical properties :
#
#
# Convention : Reuss Voigt Hill
#
# Bulk Modulus (GPa) = 60.31099 60.41235 60.36167
# Shear Modulus (GPa) = 20.96792 22.39277 21.68035
#
# Velocity S-wave (km/s) = 3.47099 3.58698 3.52946
# Velocity P-wave (km/s) = 7.12160 7.20187 7.16185
#
# Compressibility (1/GPa) = 0.01658072
#
# Stress axis : x y z
#
# Youngs Moduli (GPa) = 72.56245 72.56245 77.56096
#
# Poissons Ratio (x) = 0.29079 0.30753
# Poissons Ratio (y) = 0.29079 0.30753
# Poissons Ratio (z) = 0.28771 0.28771
#
# Static dielectric constant tensor:
#      x y z
#    x 3.184170 0.000000 0.000000 
#    y 0.000000 3.184170 0.000000 
#    z 0.000000 0.000000 3.445820 
# 
# 
# High freq. dielectric constant tensor:
#      x y z
#    x 1.654760 0.000000 0.000000 
#    y 0.000000 1.654760 0.000000 
#    z 0.000000 0.000000 1.678020 
# 
# From -- ./inp_files/2638.got.cif
#   From: 2010.03.12/outbox.cif.g09.slc.cpg/sg107_2_cif.got.tgz:2638.got - 2010.04.14 01:49:11.
