data_PCOD8307666
_publ_section_title
;
Structure prediction by ZEFSAII (Michael W. Deem and Ramdas Pophale) SiO2 
 PCOD8307666
Probable space group: I 4 M M
;
_chemical_formula_sum "Si O2"
_cell_formula_units_Z 96
_cell_length_a 20.609417
_cell_length_b 20.609417
_cell_length_c 12.193148
_cell_angle_alpha 90.000000
_cell_angle_beta 90.000000
_cell_angle_gamma 90.000000
_cell_volume 5179.016069
_symmetry_space_group_name_H-M "I 4 M M"
_symmetry_group_IT_number 107
_symmetry_cell_setting 'tetragonal'
loop_
_space_group_symop_operation_xyz
x,y,z
-y,x,z
-x,-y,z
y,-x,z
-x,y,z
x,-y,z
-y,-x,z
y,x,z
1/2+x,1/2+y,1/2+z
1/2-y,1/2+x,1/2+z
1/2-x,1/2-y,1/2+z
1/2+y,1/2-x,1/2+z
1/2-x,1/2+y,1/2+z
1/2+x,1/2-y,1/2+z
1/2-y,1/2-x,1/2+z
1/2+y,1/2+x,1/2+z
loop_
_atom_site_type_symbol
_atom_site_label
_atom_site_fract_x
_atom_site_fract_y
_atom_site_fract_z
Si Si1 0.074068 0.180841 0.189120
Si Si2 0.857355 0.246737 0.750829
Si Si3 0.379304 0.805466 0.816076
Si Si4 0.927137 0.572771 0.195897
Si Si5 0.178484 0.074143 0.938024
Si Si6 0.574338 0.807600 0.052099
O O1 0.122358 0.122358 0.223483
O O2 0.086109 0.244836 0.259667
O O3 0.000000 0.156969 0.208021
O O4 0.084670 0.201255 0.062876
O O5 0.816014 0.183987 0.719892
O O6 0.808270 0.305608 0.774756
O O7 0.900067 0.235644 0.859778
O O8 0.904547 0.259554 0.649087
O O9 0.414746 0.873676 0.789404
O O10 0.381351 0.795093 0.946424
O O11 0.914470 0.500000 0.244342
O O12 0.881378 0.584869 0.091527
O O13 0.000000 0.579325 0.151905
O O14 0.111869 0.111869 0.914955
O O15 0.163904 0.000000 0.910693
O O16 0.500000 0.793269 0.021409
#
# Coordination Sequence:
#
# PCOD8307666 Si02
#       6
#    16  16  16  16  16  16
#     4  10  21  37  59  85 113 146 186 234 289 346
#     4  10  22  36  54  79 109 145 183 225 272 328
#     4  11  22  36  54  81 111 149 186 229 280 335
#     4   9  19  35  53  76 107 144 186 229 274 325
#     4   9  19  36  58  84 112 143 182 230 285 342
#     4  10  21  36  54  77 106 140 180 224 272 324
#
# _framework density 18.536339000000002
#
# number of rings (size 3 to 8) (size 9 to 14) (size 15 to 20)
#    0.000    2.167    0.000    2.500    4.667    3.000 
#    0.000    3.333    0.000    0.000    0.000    0.000 
#    0.000    4.000    0.000    0.000    0.000    0.000 
#
# Total GULP energy -595261.425852 kJ/mol
# GULP energy per Si atom -12401.279705 kJ/mol
# Density = 1.849415 g / cm^3
# Si number density = 18.536339 Si / 1000 Ang^3
#
#
#
# Elastic Constant Matrix: (Units=GPa)
#
#
# Indices 1 2 3 4 5 6 
#
# 1 96.0740 35.6800 41.8190 0.0000 0.0000 -0.0005
# 2 35.6800 96.0740 41.8190 0.0000 0.0000 0.0005
# 3 41.8190 41.8190 99.7897 0.0000 0.0000 0.0000
# 4 0.0000 0.0000 0.0000 21.9465 0.0000 0.0000
# 5 0.0000 0.0000 0.0000 0.0000 21.9465 0.0000
# 6 -0.0005 0.0005 0.0000 0.0000 0.0000 27.7527
#
#
#
# Elastic Compliance Matrix: (Units=1/GPa)
#
#
# Indices 1 2 3 4 5 6 
#
# 1 0.013449 -0.003109 -0.004334 0.000000 0.000000 0.000000
# 2 -0.003109 0.013449 -0.004334 0.000000 0.000000 0.000000
# 3 -0.004334 -0.004334 0.013653 0.000000 0.000000 0.000000
# 4 0.000000 0.000000 0.000000 0.045565 0.000000 0.000000
# 5 0.000000 0.000000 0.000000 0.000000 0.045565 0.000000
# 6 0.000000 0.000000 0.000000 0.000000 0.000000 0.036033
#
#
# Mechanical properties :
#
#
# Convention : Reuss Voigt Hill
#
# Bulk Modulus (GPa) = 58.82108 58.95263 58.88685
# Shear Modulus (GPa) = 25.38929 25.83712 25.61320
#
# Velocity S-wave (km/s) = 3.70497 3.73750 3.72127
# Velocity P-wave (km/s) = 7.07842 7.10620 7.09232
#
# Compressibility (1/GPa) = 0.01700071
#
# Stress axis : x y z
#
# Youngs Moduli (GPa) = 74.35271 74.35271 73.24279
#
# Poissons Ratio (x) = 0.23113 0.31740
# Poissons Ratio (y) = 0.23113 0.31740
# Poissons Ratio (z) = 0.32221 0.32221
#
# Static dielectric constant tensor:
#      x y z
#    x 3.462030 0.000000 0.000000 
#    y 0.000000 3.462030 0.000000 
#    z 0.000000 0.000000 3.295780 
# 
# 
# High freq. dielectric constant tensor:
#      x y z
#    x 1.721940 0.000000 0.000000 
#    y 0.000000 1.721940 0.000000 
#    z 0.000000 0.000000 1.709990 
# 
# From -- ./inp_files/2420.got.cif
#   From: 2010.03.12/outbox.cif.g09.slc.cpg/sg107_2_cif.got.tgz:2420.got - 2010.04.14 01:49:11.
