data_PCOD8307040
_publ_section_title
;
Structure prediction by ZEFSAII (Michael W. Deem and Ramdas Pophale) SiO2 
 PCOD8307040
Probable space group: P 4 N C 
;
_chemical_formula_sum "Si O2"
_cell_formula_units_Z 64
_cell_length_a 11.632305
_cell_length_b 11.632305
_cell_length_c 24.136071
_cell_angle_alpha 90.000000
_cell_angle_beta 90.000000
_cell_angle_gamma 90.000000
_cell_volume 3265.864308
_symmetry_space_group_name_H-M "P 4 N C "
_symmetry_group_IT_number 104
_symmetry_cell_setting 'tetragonal'
loop_
_space_group_symop_operation_xyz
x,y,z
-y,x,z
-x,-y,z
y,-x,z
1/2-x,1/2+y,1/2+z
1/2+x,1/2-y,1/2+z
1/2-y,1/2-x,1/2+z
1/2+y,1/2+x,1/2+z
loop_
_atom_site_type_symbol
_atom_site_label
_atom_site_fract_x
_atom_site_fract_y
_atom_site_fract_z
Si Si1 0.003939 0.627554 0.416100
Si Si2 0.146288 0.690372 0.834365
Si Si3 0.882216 0.674741 0.817329
Si Si4 0.185740 0.977256 0.505754
Si Si5 0.476321 0.686549 0.132146
Si Si6 0.983013 0.825218 0.157820
Si Si7 0.905003 0.594752 0.197532
Si Si8 0.329678 0.544667 0.783934
O O1 0.134664 0.653571 0.396023
O O2 0.961804 0.708450 0.464902
O O3 0.000000 0.500000 0.440871
O O4 0.922348 0.639902 0.362766
O O5 0.210536 0.812032 0.832389
O O6 0.203160 0.595045 0.793725
O O7 0.016072 0.709465 0.814773
O O8 0.844990 0.626822 0.756394
O O9 0.229547 0.971591 0.568826
O O10 0.125630 0.098349 0.494018
O O11 0.373518 0.597934 0.144233
O O12 0.465963 0.793429 0.172758
O O13 0.021693 0.850826 0.220177
O O14 0.875462 0.897945 0.130963
O O15 0.952697 0.690182 0.153636
O O16 0.000000 0.500000 0.208229
O O17 0.360418 0.419320 0.810844
#
# Coordination Sequence:
#
# PCOD8307040 Si02
#       8
#     8   8   8   8   8   8   8   8
#     4  10  20  35  57  84 117 144 182 239 301 348
#     4  11  21  35  49  74 113 150 190 230 279 347
#     4  11  24  35  51  78 114 155 195 238 282 350
#     4   9  18  37  64  89 112 141 186 244 303 354
#     4   9  22  42  61  84 116 154 199 250 294 348
#     4   9  18  32  50  72 103 141 181 230 284 335
#     4  12  24  34  57  82 115 155 204 244 291 348
#     4   9  16  28  49  70  97 138 180 226 282 331
#
# _framework density 19.596651000000001
#
# number of rings (size 3 to 8) (size 9 to 14) (size 15 to 20)
#    0.000    2.000    0.000    7.125    3.500    0.750 
#    0.000    1.250    0.000    1.500    0.000    0.000 
#    0.000    0.000    0.000    0.000    0.000    0.000 
#
# Total GULP energy -792964.638712 kJ/mol
# GULP energy per Si atom -12390.072480 kJ/mol
# Density = 1.955205 g / cm^3
# Si number density = 19.596651 Si / 1000 Ang^3
#
#
#
# Elastic Constant Matrix: (Units=GPa)
#
#
# Indices 1 2 3 4 5 6 
#
# 1 108.2816 44.4926 32.4518 0.0000 0.0000 0.0000
# 2 44.4926 108.2816 32.4518 0.0000 0.0000 0.0000
# 3 32.4518 32.4518 71.3167 0.0000 0.0000 0.0000
# 4 0.0000 0.0000 0.0000 23.2269 0.0000 0.0000
# 5 0.0000 0.0000 0.0000 0.0000 23.2269 0.0000
# 6 0.0000 0.0000 0.0000 0.0000 0.0000 30.5977
#
#
#
# Elastic Compliance Matrix: (Units=1/GPa)
#
#
# Indices 1 2 3 4 5 6 
#
# 1 0.011895 -0.003781 -0.003692 0.000000 0.000000 0.000000
# 2 -0.003781 0.011895 -0.003692 0.000000 0.000000 0.000000
# 3 -0.003692 -0.003692 0.017382 0.000000 0.000000 0.000000
# 4 0.000000 0.000000 0.000000 0.043053 0.000000 0.000000
# 5 0.000000 0.000000 0.000000 0.000000 0.043053 0.000000
# 6 0.000000 0.000000 0.000000 0.000000 0.000000 0.032682
#
#
# Mechanical properties :
#
#
# Convention : Reuss Voigt Hill
#
# Bulk Modulus (GPa) = 53.07420 56.29690 54.68555
# Shear Modulus (GPa) = 26.51475 27.30923 26.91199
#
# Velocity S-wave (km/s) = 3.68234 3.73710 3.70982
# Velocity P-wave (km/s) = 6.72470 6.88559 6.80562
#
# Compressibility (1/GPa) = 0.01884155
#
# Stress axis : x y z
#
# Youngs Moduli (GPa) = 84.06581 84.06581 57.53009
#
# Poissons Ratio (x) = 0.31787 0.21242
# Poissons Ratio (y) = 0.31787 0.21242
# Poissons Ratio (z) = 0.31039 0.31039
#
# Static dielectric constant tensor:
#      x y z
#    x 3.720620 0.000000 0.000000 
#    y 0.000000 3.720620 0.000000 
#    z 0.000000 0.000000 3.133710 
# 
# 
# High freq. dielectric constant tensor:
#      x y z
#    x 1.773570 0.000000 0.000000 
#    y 0.000000 1.773570 0.000000 
#    z 0.000000 0.000000 1.713670 
# 
# From -- ./inp_files/1830.got.cif
#   From: 2010.03.12/outbox.cif.g09.slc.cpg/sg104_cif.got.tgz:1830.got - 2010.04.14 01:44:05.
