data_PCOD8307388
_publ_section_title
;
Structure prediction by ZEFSAII (Michael W. Deem and Ramdas Pophale) SiO2 
 PCOD8307388
Probable space group: P 42 M C
;
_chemical_formula_sum "Si O2"
_cell_formula_units_Z 32
_cell_length_a 7.880972
_cell_length_b 7.880972
_cell_length_c 24.236902
_cell_angle_alpha 90.000000
_cell_angle_beta 90.000000
_cell_angle_gamma 90.000000
_cell_volume 1505.347189
_symmetry_space_group_name_H-M "P 42 M C"
_symmetry_group_IT_number 105
_symmetry_cell_setting 'tetragonal'
loop_
_space_group_symop_operation_xyz
x,y,z
-y,x,1/2+z
-x,-y,z
y,-x,1/2+z
-x,y,z
x,-y,z
-y,-x,1/2+z
y,x,1/2+z
loop_
_atom_site_type_symbol
_atom_site_label
_atom_site_fract_x
_atom_site_fract_y
_atom_site_fract_z
Si Si1 0.798587 0.687038 0.155690
Si Si2 0.797243 0.000000 0.084832
Si Si3 0.802640 0.197360 0.772589
Si Si4 0.202757 0.000000 0.960345
Si Si5 0.687038 0.201413 0.389487
O O1 0.743675 0.500000 0.134283
O O2 0.725023 0.831769 0.115228
O O3 0.730792 0.709781 0.218155
O O4 0.000000 0.705656 0.157049
O O5 0.727421 0.000000 0.022589
O O6 0.000000 0.000000 0.085418
O O7 0.730792 0.290219 0.827023
O O8 0.000000 0.233457 0.763730
O O9 0.766542 0.000000 0.781448
O O10 0.274977 0.168231 0.929950
O O11 0.000000 0.000000 0.959760
O O12 0.500000 0.256325 0.410894
O O13 0.705656 0.000000 0.388129
#
# Coordination Sequence:
#
# PCOD8307388 Si02
#       5
#     8   4   8   4   8
#     4   9  16  25  39  62  89 124 172 218 264 320
#     4   9  16  26  38  58  93 135 175 215 263 314
#     4   9  14  24  42  59  84 122 162 209 266 321
#     4   9  16  26  38  58  93 135 175 215 263 314
#     4   9  16  25  39  62  89 124 172 218 264 320
#
# _framework density 21.257555
#
# number of rings (size 3 to 8) (size 9 to 14) (size 15 to 20)
#    0.000    3.000    2.500    0.000    0.000    1.000 
#    0.000    5.000    0.000    0.750    0.000    0.000 
#    0.000    4.000    0.000    4.500    0.000    5.000 
#
# Total GULP energy -396590.655978 kJ/mol
# GULP energy per Si atom -12393.457999 kJ/mol
# Density = 2.120917 g / cm^3
# Si number density = 21.257555 Si / 1000 Ang^3
#
#
#
# Elastic Constant Matrix: (Units=GPa)
#
#
# Indices 1 2 3 4 5 6 
#
# 1 78.7934 31.2452 57.8758 0.0000 0.0000 0.0000
# 2 31.2452 78.7934 57.8758 0.0000 0.0000 0.0000
# 3 57.8758 57.8758 183.0332 0.0000 0.0000 0.0000
# 4 0.0000 0.0000 0.0000 5.6461 0.0000 0.0000
# 5 0.0000 0.0000 0.0000 0.0000 5.6461 0.0000
# 6 0.0000 0.0000 0.0000 0.0000 0.0000 0.5432
#
#
#
# Elastic Compliance Matrix: (Units=1/GPa)
#
#
# Indices 1 2 3 4 5 6 
#
# 1 0.017324 -0.003707 -0.004306 0.000000 0.000000 0.000000
# 2 -0.003707 0.017324 -0.004306 0.000000 0.000000 0.000000
# 3 -0.004306 -0.004306 0.008186 0.000000 0.000000 0.000000
# 4 0.000000 0.000000 0.000000 0.177114 0.000000 0.000000
# 5 0.000000 0.000000 0.000000 0.000000 0.177114 0.000000
# 6 0.000000 0.000000 0.000000 0.000000 0.000000 1.840836
#
#
# Mechanical properties :
#
#
# Convention : Reuss Voigt Hill
#
# Bulk Modulus (GPa) = 54.95257 70.51264 62.73260
# Shear Modulus (GPa) = 2.20400 15.27528 8.73964
#
# Velocity S-wave (km/s) = 1.01934 2.68355 2.02984
# Velocity P-wave (km/s) = 5.22421 6.54557 5.92186
#
# Compressibility (1/GPa) = 0.01819751
#
# Stress axis : x y z
#
# Youngs Moduli (GPa) = 57.72287 57.72287 122.15249
#
# Poissons Ratio (x) = 0.21399 0.52596
# Poissons Ratio (y) = 0.21399 0.52596
# Poissons Ratio (z) = 0.24854 0.24854
#
# Static dielectric constant tensor:
#      x y z
#    x 3.500450 0.000000 0.000000 
#    y 0.000000 3.500450 0.000000 
#    z 0.000000 0.000000 4.024310 
# 
# 
# High freq. dielectric constant tensor:
#      x y z
#    x 1.797960 0.000000 0.000000 
#    y 0.000000 1.797960 0.000000 
#    z 0.000000 0.000000 1.830140 
# 
# From -- ./inp_files/3389.got.cif
#   From: 2010.03.12/outbox.cif.g09.slc.cpg/sg105_2_cif.got.tgz:3389.got - 2010.04.14 01:45:32.
