data_PCOD8307452
_publ_section_title
;
Structure prediction by ZEFSAII (Michael W. Deem and Ramdas Pophale) SiO2 
 PCOD8307452
Probable space group: P 42 B C
;
_chemical_formula_sum "Si O2"
_cell_formula_units_Z 56
_cell_length_a 12.738377
_cell_length_b 12.738377
_cell_length_c 13.203935
_cell_angle_alpha 90.000000
_cell_angle_beta 90.000000
_cell_angle_gamma 90.000000
_cell_volume 2142.552999
_symmetry_space_group_name_H-M "P 42 B C"
_symmetry_group_IT_number 106
_symmetry_cell_setting 'tetragonal'
loop_
_space_group_symop_operation_xyz
x,y,z
-y,x,1/2+z
-x,-y,z
y,-x,1/2+z
1/2-x,1/2+y,z
1/2+x,1/2-y,z
1/2-y,1/2-x,1/2+z
1/2+y,1/2+x,1/2+z
loop_
_atom_site_type_symbol
_atom_site_label
_atom_site_fract_x
_atom_site_fract_y
_atom_site_fract_z
Si Si1 0.618062 0.068291 0.570810
Si Si2 0.704783 0.722198 0.089728
Si Si3 0.788619 0.450471 0.749092
Si Si4 0.936054 0.323147 0.472987
Si Si5 0.295058 0.524913 0.454910
Si Si6 0.417467 0.413618 0.765744
Si Si7 0.951573 0.110552 0.535674
O O1 0.668972 0.182332 0.592232
O O2 0.625971 0.002409 0.674144
O O3 0.497858 0.086732 0.535274
O O4 0.670595 0.993317 0.481278
O O5 0.659740 0.743846 0.203353
O O6 0.709704 0.827759 0.024513
O O7 0.612058 0.654149 0.034149
O O8 0.847773 0.424962 0.853880
O O9 0.697560 0.536804 0.765309
O O10 0.002348 0.213015 0.482955
O O11 0.314586 0.566955 0.341576
O O12 0.336175 0.409231 0.485796
O O13 0.500000 0.500000 0.802760
O O14 0.446766 0.369863 0.655644
O O15 0.000000 0.000000 0.500257
#
# Coordination Sequence:
#
# PCOD8307452 Si02
#       7
#     8   8   8   8   8   8   8
#     4  11  25  46  68 106 148 187 248 300 372 454
#     4  11  24  46  72 100 148 185 239 313 368 437
#     4  11  25  46  68 104 141 191 246 298 368 450
#     4  12  26  44  73 101 141 195 239 300 367 456
#     4  11  22  43  67 101 144 185 237 305 360 437
#     4  11  22  37  71 104 139 187 242 306 367 412
#     4  11  21  41  65 102 135 177 244 303 358 413
#
# _framework density 26.137042000000001
#
# number of rings (size 3 to 8) (size 9 to 14) (size 15 to 20)
#    0.000    0.857    4.286    3.857    2.000    6.857 
#    0.000    4.286    0.000    0.000    0.000    0.000 
#    0.000    0.000    0.000    0.000    0.000    0.000 
#
# Total GULP energy -693975.211742 kJ/mol
# GULP energy per Si atom -12392.414495 kJ/mol
# Density = 2.607755 g / cm^3
# Si number density = 26.137042 Si / 1000 Ang^3
#
#
#
# Elastic Constant Matrix: (Units=GPa)
#
#
# Indices 1 2 3 4 5 6 
#
# 1 76.8965 2.0493 30.9623 0.0000 0.0000 0.0000
# 2 2.0493 76.8965 30.9623 0.0000 0.0000 0.0000
# 3 30.9623 30.9623 185.1632 0.0000 0.0000 0.0000
# 4 0.0000 0.0000 0.0000 28.5863 0.0000 0.0000
# 5 0.0000 0.0000 0.0000 0.0000 28.5863 0.0000
# 6 0.0000 0.0000 0.0000 0.0000 0.0000 32.1283
#
#
#
# Elastic Compliance Matrix: (Units=1/GPa)
#
#
# Indices 1 2 3 4 5 6 
#
# 1 0.013970 0.000609 -0.002438 0.000000 0.000000 0.000000
# 2 0.000609 0.013970 -0.002438 0.000000 0.000000 0.000000
# 3 -0.002438 -0.002438 0.006216 0.000000 0.000000 0.000000
# 4 0.000000 0.000000 0.000000 0.034982 0.000000 0.000000
# 5 0.000000 0.000000 0.000000 0.000000 0.034982 0.000000
# 6 0.000000 0.000000 0.000000 0.000000 0.000000 0.031125
#
#
# Mechanical properties :
#
#
# Convention : Reuss Voigt Hill
#
# Bulk Modulus (GPa) = 39.02778 51.87826 45.45302
# Shear Modulus (GPa) = 32.82602 36.19235 34.50919
#
# Velocity S-wave (km/s) = 3.54774 3.72521 3.63756
# Velocity P-wave (km/s) = 5.63439 6.19634 5.92203
#
# Compressibility (1/GPa) = 0.02562277
#
# Stress axis : x y z
#
# Youngs Moduli (GPa) = 71.58268 71.58268 160.87654
#
# Poissons Ratio (x) = -0.04362 0.39220
# Poissons Ratio (y) = -0.04362 0.39220
# Poissons Ratio (z) = 0.17451 0.17451
#
# Static dielectric constant tensor:
#      x y z
#    x 5.788590 0.000000 0.000000 
#    y 0.000000 5.788590 0.000000 
#    z 0.000000 0.000000 4.614440 
# 
# 
# High freq. dielectric constant tensor:
#      x y z
#    x 2.068970 0.000000 0.000000 
#    y 0.000000 2.068970 0.000000 
#    z 0.000000 0.000000 2.035190 
# 
# From -- ./inp_files/1318.got.cif
#   From: 2010.03.12/outbox.cif.g09.slc.cpg/sg106_cif.got.tgz:1318.got - 2010.04.14 01:48:02.
