data_PCOD8307001
_publ_section_title
;
Structure prediction by ZEFSAII (Michael W. Deem and Ramdas Pophale) SiO2 
 PCOD8307001
Probable space group: P 4 C C
;
_chemical_formula_sum "Si O2"
_cell_formula_units_Z 56
_cell_length_a 14.130093
_cell_length_b 14.130093
_cell_length_c 12.716389
_cell_angle_alpha 90.000000
_cell_angle_beta 90.000000
_cell_angle_gamma 90.000000
_cell_volume 2538.948228
_symmetry_space_group_name_H-M "P 4 C C"
_symmetry_group_IT_number 103
_symmetry_cell_setting 'tetragonal'
loop_
_space_group_symop_operation_xyz
x,y,z
-y,x,z
-x,-y,z
y,-x,z
-x,y,1/2+z
x,-y,1/2+z
-y,-x,1/2+z
y,x,1/2+z
loop_
_atom_site_type_symbol
_atom_site_label
_atom_site_fract_x
_atom_site_fract_y
_atom_site_fract_z
Si Si1 0.112322 0.718046 0.857180
Si Si2 0.576469 0.638045 0.399235
Si Si3 0.385344 0.153931 0.070029
Si Si4 0.775353 0.589843 0.081759
Si Si5 0.294562 0.723661 0.739689
Si Si6 0.985095 0.155203 0.012996
Si Si7 0.966471 0.666596 0.139439
O O1 0.210107 0.764505 0.813759
O O2 0.036658 0.794308 0.901126
O O3 0.059911 0.663845 0.762218
O O4 0.143310 0.646649 0.949485
O O5 0.463733 0.627379 0.399312
O O6 0.618645 0.695227 0.498074
O O7 0.607752 0.702240 0.300232
O O8 0.477987 0.216731 0.075640
O O9 0.306549 0.204415 0.142832
O O10 0.408447 0.050589 0.119347
O O11 0.738651 0.621572 0.195694
O O12 0.877203 0.641201 0.064005
O O13 0.083979 0.102241 0.023428
O O14 0.987957 0.232536 0.105570
#
# Coordination Sequence:
#
# PCOD8307001 Si02
#       7
#     8   8   8   8   8   8   8
#     4  10  24  41  68 100 131 177 228 281 346 408
#     4  11  24  41  66 102 139 181 232 282 341 409
#     4  11  24  44  66  98 137 179 234 281 344 406
#     4  11  23  43  66  97 137 182 229 288 339 406
#     4  11  23  39  68  96 135 182 225 285 348 406
#     4  10  24  42  67 100 133 171 222 280 341 413
#     4  10  25  42  68  97 134 178 226 284 344 410
#
# _framework density 22.056377999999999
#
# number of rings (size 3 to 8) (size 9 to 14) (size 15 to 20)
#    0.000    1.429    0.000    3.857   12.000    2.286 
#    0.000    8.571    0.000    0.000    0.000    0.000 
#    0.000    0.000    0.000    0.000    0.000    0.000 
#
# Total GULP energy -694096.889829 kJ/mol
# GULP energy per Si atom -12394.587318 kJ/mol
# Density = 2.200618 g / cm^3
# Si number density = 22.056378 Si / 1000 Ang^3
#
#
#
# Elastic Constant Matrix: (Units=GPa)
#
#
# Indices 1 2 3 4 5 6 
#
# 1 94.4436 18.2124 45.6924 0.0000 0.0000 0.0000
# 2 18.2124 94.4436 45.6924 0.0000 0.0000 0.0000
# 3 45.6924 45.6924 135.4277 0.0000 0.0000 0.0000
# 4 0.0000 0.0000 0.0000 38.6187 0.0000 0.0000
# 5 0.0000 0.0000 0.0000 0.0000 38.6187 0.0000
# 6 0.0000 0.0000 0.0000 0.0000 0.0000 31.8068
#
#
#
# Elastic Compliance Matrix: (Units=1/GPa)
#
#
# Indices 1 2 3 4 5 6 
#
# 1 0.012670 -0.000448 -0.004123 0.000000 0.000000 0.000000
# 2 -0.000448 0.012670 -0.004123 0.000000 0.000000 0.000000
# 3 -0.004123 -0.004123 0.010166 0.000000 0.000000 0.000000
# 4 0.000000 0.000000 0.000000 0.025894 0.000000 0.000000
# 5 0.000000 0.000000 0.000000 0.000000 0.025894 0.000000
# 6 0.000000 0.000000 0.000000 0.000000 0.000000 0.031440
#
#
# Mechanical properties :
#
#
# Convention : Reuss Voigt Hill
#
# Bulk Modulus (GPa) = 55.20104 60.38993 57.79549
# Shear Modulus (GPa) = 35.17094 36.12337 35.64715
#
# Velocity S-wave (km/s) = 3.99757 4.05133 4.02454
# Velocity P-wave (km/s) = 6.81094 7.02308 6.91783
#
# Compressibility (1/GPa) = 0.01811560
#
# Stress axis : x y z
#
# Youngs Moduli (GPa) = 78.92842 78.92842 98.36281
#
# Poissons Ratio (x) = 0.03538 0.40559
# Poissons Ratio (y) = 0.03538 0.40559
# Poissons Ratio (z) = 0.32546 0.32546
#
# Static dielectric constant tensor:
#      x y z
#    x 4.062170 0.000000 0.000000 
#    y 0.000000 4.062170 0.000000 
#    z 0.000000 0.000000 3.890150 
# 
# 
# High freq. dielectric constant tensor:
#      x y z
#    x 1.873380 0.000000 0.000000 
#    y 0.000000 1.873380 0.000000 
#    z 0.000000 0.000000 1.863320 
# 
# From -- ./inp_files/662.got.cif
#   From: 2010.03.12/outbox.cif.g09.slc.cpg/sg103_cif.got.tgz:662.got - 2010.04.14 01:42:52.
