data_PCOD8307003
_publ_section_title
;
Structure prediction by ZEFSAII (Michael W. Deem and Ramdas Pophale) SiO2 
 PCOD8307003
Probable space group: P 4 C C
;
_chemical_formula_sum "Si O2"
_cell_formula_units_Z 60
_cell_length_a 16.912581
_cell_length_b 16.912581
_cell_length_c 9.499384
_cell_angle_alpha 90.000000
_cell_angle_beta 90.000000
_cell_angle_gamma 90.000000
_cell_volume 2717.160065
_symmetry_space_group_name_H-M "P 4 C C"
_symmetry_group_IT_number 103
_symmetry_cell_setting 'tetragonal'
loop_
_space_group_symop_operation_xyz
x,y,z
-y,x,z
-x,-y,z
y,-x,z
-x,y,1/2+z
x,-y,1/2+z
-y,-x,1/2+z
y,x,1/2+z
loop_
_atom_site_type_symbol
_atom_site_label
_atom_site_fract_x
_atom_site_fract_y
_atom_site_fract_z
Si Si1 0.397681 0.027937 0.695970
Si Si2 0.836920 0.687104 0.321602
Si Si3 0.598046 0.585914 0.000578
Si Si4 0.060183 0.886279 0.502600
Si Si5 0.145062 0.665035 0.138538
Si Si6 0.163932 0.855373 0.742805
Si Si7 0.662386 0.679962 0.250292
Si Si8 0.000000 0.500000 0.944556
O O1 0.379209 0.933417 0.698508
O O2 0.443197 0.050072 0.550549
O O3 0.325989 0.089267 0.713930
O O4 0.448465 0.051883 0.835305
O O5 0.847442 0.645830 0.473124
O O6 0.829612 0.780764 0.346878
O O7 0.756023 0.661279 0.244433
O O8 0.507128 0.609942 0.975504
O O9 0.661679 0.632133 0.906350
O O10 0.618444 0.614497 0.156959
O O11 0.095259 0.834754 0.629822
O O12 0.071103 0.852598 0.345818
O O13 0.967954 0.893513 0.522780
O O14 0.127016 0.756642 0.158840
O O15 0.228229 0.640892 0.212740
#
# Coordination Sequence:
#
# PCOD8307003 Si02
#       8
#     8   8   8   8   8   8   8   4
#     4  11  24  46  72  98 139 182 224 290 339 410
#     4  11  24  45  68 100 140 177 236 280 345 406
#     4  11  24  47  76 110 144 179 228 281 354 436
#     4  11  24  39  56  90 130 167 220 285 348 400
#     4  11  24  45  68 100 140 177 236 280 345 406
#     4  11  24  39  68  92 126 175 224 287 324 420
#     4  11  24  47  70 108 146 185 230 295 346 426
#     4  10  24  46  64 102 136 166 228 290 332 406
#
# _framework density 22.081879000000001
#
# number of rings (size 3 to 8) (size 9 to 14) (size 15 to 20)
#    0.000    1.067    4.000    1.600    3.733    4.267 
#   14.400    0.000    0.000    0.000    0.000    0.000 
#    0.000    0.000    0.000    0.000    0.000    0.000 
#
# Total GULP energy -743521.691251 kJ/mol
# GULP energy per Si atom -12392.028188 kJ/mol
# Density = 2.203162 g / cm^3
# Si number density = 22.081879 Si / 1000 Ang^3
#
#
#
# Elastic Constant Matrix: (Units=GPa)
#
#
# Indices 1 2 3 4 5 6 
#
# 1 86.1698 51.4902 23.1137 0.0000 0.0000 0.0000
# 2 51.4902 86.1698 23.1137 0.0000 0.0000 0.0000
# 3 23.1137 23.1137 105.4213 0.0000 0.0000 0.0000
# 4 0.0000 0.0000 0.0000 35.1903 0.0000 0.0000
# 5 0.0000 0.0000 0.0000 0.0000 35.1903 0.0000
# 6 0.0000 0.0000 0.0000 0.0000 0.0000 32.9946
#
#
#
# Elastic Compliance Matrix: (Units=1/GPa)
#
#
# Indices 1 2 3 4 5 6 
#
# 1 0.018339 -0.010497 -0.001719 0.000000 0.000000 0.000000
# 2 -0.010497 0.018339 -0.001719 0.000000 0.000000 0.000000
# 3 -0.001719 -0.001719 0.010240 0.000000 0.000000 0.000000
# 4 0.000000 0.000000 0.000000 0.028417 0.000000 0.000000
# 5 0.000000 0.000000 0.000000 0.000000 0.028417 0.000000
# 6 0.000000 0.000000 0.000000 0.000000 0.000000 0.030308
#
#
# Mechanical properties :
#
#
# Convention : Reuss Voigt Hill
#
# Bulk Modulus (GPa) = 52.50508 52.57735 52.54121
# Shear Modulus (GPa) = 29.71275 32.67794 31.19534
#
# Velocity S-wave (km/s) = 3.67218 3.85106 3.76268
# Velocity P-wave (km/s) = 6.46599 6.60576 6.53625
#
# Compressibility (1/GPa) = 0.01904578
#
# Stress axis : x y z
#
# Youngs Moduli (GPa) = 54.53008 54.53008 97.65953
#
# Poissons Ratio (x) = 0.57240 0.16790
# Poissons Ratio (y) = 0.57240 0.16790
# Poissons Ratio (z) = 0.09375 0.09375
#
# Static dielectric constant tensor:
#      x y z
#    x 3.945360 0.000000 0.000000 
#    y 0.000000 3.945360 0.000000 
#    z 0.000000 0.000000 3.938380 
# 
# 
# High freq. dielectric constant tensor:
#      x y z
#    x 1.863620 0.000000 0.000000 
#    y 0.000000 1.863620 0.000000 
#    z 0.000000 0.000000 1.881140 
# 
# From -- ./inp_files/336.got.cif
#   From: 2010.03.12/outbox.cif.g09.slc.cpg/sg103_cif.got.tgz:336.got - 2010.04.14 01:42:52.
