data_PCOD8307871
_publ_section_title
;
Structure prediction by ZEFSAII (Michael W. Deem and Ramdas Pophale) SiO2 
 PCOD8307871
Probable space group: I 41 M D
;
_chemical_formula_sum "Si O2"
_cell_formula_units_Z 80
_cell_length_a 17.997993
_cell_length_b 17.997993
_cell_length_c 15.282610
_cell_angle_alpha 90.000000
_cell_angle_beta 90.000000
_cell_angle_gamma 90.000000
_cell_volume 4950.461502
_symmetry_space_group_name_H-M "I 41 M D"
_symmetry_group_IT_number 109
_symmetry_cell_setting 'tetragonal'
loop_
_space_group_symop_operation_xyz
x,y,z
-y,1/2+x,1/4+z
-x,-y,z
y,1/2-x,1/4+z
-x,y,z
x,-y,z
-y,1/2-x,1/4+z
y,1/2+x,1/4+z
1/2+x,1/2+y,1/2+z
1/2-y,x,3/4+z
1/2-x,1/2-y,1/2+z
1/2+y,-x,3/4+z
1/2-x,1/2+y,1/2+z
1/2+x,1/2-y,1/2+z
1/2-y,-x,3/4+z
1/2+y,x,3/4+z
loop_
_atom_site_type_symbol
_atom_site_label
_atom_site_fract_x
_atom_site_fract_y
_atom_site_fract_z
Si Si1 0.416420 0.416420 0.378170
Si Si2 0.307970 0.699560 0.081571
Si Si3 0.913544 0.708967 0.265290
Si Si4 0.586456 0.708967 0.241049
Si Si5 0.192030 0.699560 0.424768
O O1 0.500000 0.403814 0.412381
O O2 0.403811 0.500000 0.343960
O O3 0.364222 0.398760 0.459284
O O4 0.398763 0.364222 0.297056
O O5 0.375314 0.690211 0.148697
O O6 0.237470 0.737470 0.128170
O O7 0.280270 0.621402 0.040802
O O8 0.338771 0.750000 0.003170
O O9 0.875315 0.690212 0.357642
O O10 0.878599 0.780270 0.215537
O O11 0.000000 0.725960 0.280590
O O12 0.500000 0.725962 0.225748
#
# Coordination Sequence:
#
# PCOD8307871 Si02
#       5
#    16  16  16  16  16
#     4   9  18  30  44  70 104 128 152 190 237 292
#     4   9  18  33  49  69  97 125 161 208 244 282
#     4  10  19  31  50  72  96 131 164 197 246 294
#     4  10  19  31  50  72  96 131 164 197 246 294
#     4   9  18  33  49  69  97 125 161 208 244 282
#
# _framework density 16.160108999999999
#
# number of rings (size 3 to 8) (size 9 to 14) (size 15 to 20)
#    0.000    2.600    2.000    0.000    0.000    2.400 
#    0.000    4.000    0.000    0.000    0.000    0.000 
#    0.000    0.000    0.000    0.000    0.000    0.000 
#
# Total GULP energy -495941.348838 kJ/mol
# GULP energy per Si atom -12398.533721 kJ/mol
# Density = 1.612333 g / cm^3
# Si number density = 16.160109 Si / 1000 Ang^3
#
#
#
# Elastic Constant Matrix: (Units=GPa)
#
#
# Indices 1 2 3 4 5 6 
#
# 1 103.9796 63.2905 69.1004 0.0000 0.0000 0.0000
# 2 63.2905 103.9796 69.1004 0.0000 0.0000 0.0000
# 3 69.1004 69.1004 129.3493 0.0000 0.0000 0.0000
# 4 0.0000 0.0000 0.0000 18.2091 0.0000 0.0000
# 5 0.0000 0.0000 0.0000 0.0000 18.2091 0.0000
# 6 0.0000 0.0000 0.0000 0.0000 0.0000 15.6066
#
#
#
# Elastic Compliance Matrix: (Units=1/GPa)
#
#
# Indices 1 2 3 4 5 6 
#
# 1 0.017639 -0.006937 -0.005717 0.000000 0.000000 0.000000
# 2 -0.006937 0.017639 -0.005717 0.000000 0.000000 0.000000
# 3 -0.005717 -0.005717 0.013839 0.000000 0.000000 0.000000
# 4 0.000000 0.000000 0.000000 0.054918 0.000000 0.000000
# 5 0.000000 0.000000 0.000000 0.000000 0.054918 0.000000
# 6 0.000000 0.000000 0.000000 0.000000 0.000000 0.064076
#
#
# Mechanical properties :
#
#
# Convention : Reuss Voigt Hill
#
# Bulk Modulus (GPa) = 80.81015 82.25457 81.53236
# Shear Modulus (GPa) = 18.94679 19.45942 19.20311
#
# Velocity S-wave (km/s) = 3.42781 3.47387 3.45092
# Velocity P-wave (km/s) = 8.11055 8.19150 8.15112
#
# Compressibility (1/GPa) = 0.01237468
#
# Stress axis : x y z
#
# Youngs Moduli (GPa) = 56.69173 56.69173 72.25762
#
# Poissons Ratio (x) = 0.39329 0.41311
# Poissons Ratio (y) = 0.39329 0.41311
# Poissons Ratio (z) = 0.32411 0.32411
#
# Static dielectric constant tensor:
#      x y z
#    x 2.969430 0.000000 0.000000 
#    y 0.000000 2.969430 0.000000 
#    z 0.000000 0.000000 3.263090 
# 
# 
# High freq. dielectric constant tensor:
#      x y z
#    x 1.612230 0.000000 0.000000 
#    y 0.000000 1.612230 0.000000 
#    z 0.000000 0.000000 1.628540 
# 
# From -- ./inp_files/2477.got.cif
#   From: 2010.03.12/outbox.cif.g09.slc.cpg/sg109_2_cif.got.tgz:2477.got - 2010.04.14 01:55:16.
