data_PCOD8307887
_publ_section_title
;
Structure prediction by ZEFSAII (Michael W. Deem and Ramdas Pophale) SiO2 
 PCOD8307887
Probable space group: I 41 M D
;
_chemical_formula_sum "Si O2"
_cell_formula_units_Z 112
_cell_length_a 19.280592
_cell_length_b 19.280592
_cell_length_c 16.379261
_cell_angle_alpha 90.000000
_cell_angle_beta 90.000000
_cell_angle_gamma 90.000000
_cell_volume 6088.846596
_symmetry_space_group_name_H-M "I 41 M D"
_symmetry_group_IT_number 109
_symmetry_cell_setting 'tetragonal'
loop_
_space_group_symop_operation_xyz
x,y,z
-y,1/2+x,1/4+z
-x,-y,z
y,1/2-x,1/4+z
-x,y,z
x,-y,z
-y,1/2-x,1/4+z
y,1/2+x,1/4+z
1/2+x,1/2+y,1/2+z
1/2-y,x,3/4+z
1/2-x,1/2-y,1/2+z
1/2+y,-x,3/4+z
1/2-x,1/2+y,1/2+z
1/2+x,1/2-y,1/2+z
1/2-y,-x,3/4+z
1/2+y,x,3/4+z
loop_
_atom_site_type_symbol
_atom_site_label
_atom_site_fract_x
_atom_site_fract_y
_atom_site_fract_z
Si Si1 0.080282 0.421598 0.310250
Si Si2 0.189150 0.164954 0.959936
Si Si3 0.734809 0.194638 0.542113
Si Si4 0.376537 0.924318 0.149018
Si Si5 0.222916 0.926367 0.434391
Si Si6 0.382358 0.661018 0.717476
Si Si7 0.115741 0.762084 0.515584
O O1 0.083017 0.500000 0.276428
O O2 0.119595 0.373429 0.245234
O O3 0.119489 0.421895 0.397124
O O4 0.000000 0.397812 0.321066
O O5 0.168299 0.193502 0.870969
O O6 0.255927 0.114425 0.955193
O O7 0.202112 0.232189 0.016018
O O8 0.731088 0.134136 0.474273
O O9 0.816634 0.203415 0.557848
O O10 0.419276 0.860847 0.187442
O O11 0.306568 0.926898 0.201278
O O12 0.413515 0.000000 0.158867
O O13 0.359042 0.914370 0.054316
O O14 0.241637 0.933648 0.339413
O O15 0.241066 0.000000 0.476695
O O16 0.302336 0.640236 0.711354
#
# Coordination Sequence:
#
# PCOD8307887 Si02
#       7
#    16  16  16  16  16  16  16
#     4  11  25  41  56  83 122 155 188 236 288 343
#     4  11  20  38  62  85 111 147 193 238 286 342
#     4  10  19  35  59  85 109 139 186 244 283 328
#     4  10  20  32  49  76 113 153 188 223 270 343
#     4  10  20  33  52  79 109 145 187 236 290 331
#     4  10  20  33  56  83 111 151 190 232 282 343
#     4   9  18  32  52  80 112 141 186 239 287 331
#
# _framework density 18.394289000000001
#
# number of rings (size 3 to 8) (size 9 to 14) (size 15 to 20)
#    0.000    1.857    2.857    1.714    4.000    6.000 
#    0.000    0.000    0.000    0.000    0.000    0.000 
#    0.000    0.000    0.000    0.000    0.000    0.000 
#
# Total GULP energy -693963.741157 kJ/mol
# GULP energy per Si atom -12392.209664 kJ/mol
# Density = 1.835242 g / cm^3
# Si number density = 18.394289 Si / 1000 Ang^3
#
#
#
# Elastic Constant Matrix: (Units=GPa)
#
#
# Indices 1 2 3 4 5 6 
#
# 1 93.3292 41.2240 35.8459 0.0000 0.0000 0.0000
# 2 41.2240 93.3292 35.8459 0.0000 0.0000 0.0000
# 3 35.8459 35.8459 87.3072 0.0000 0.0000 0.0000
# 4 0.0000 0.0000 0.0000 19.0741 0.0000 0.0000
# 5 0.0000 0.0000 0.0000 0.0000 19.0741 0.0000
# 6 0.0000 0.0000 0.0000 0.0000 0.0000 13.9648
#
#
#
# Elastic Compliance Matrix: (Units=1/GPa)
#
#
# Indices 1 2 3 4 5 6 
#
# 1 0.014353 -0.004839 -0.003906 0.000000 0.000000 0.000000
# 2 -0.004839 0.014353 -0.003906 0.000000 0.000000 0.000000
# 3 -0.003906 -0.003906 0.014661 0.000000 0.000000 0.000000
# 4 0.000000 0.000000 0.000000 0.052427 0.000000 0.000000
# 5 0.000000 0.000000 0.000000 0.000000 0.052427 0.000000
# 6 0.000000 0.000000 0.000000 0.000000 0.000000 0.071608
#
#
# Mechanical properties :
#
#
# Convention : Reuss Voigt Hill
#
# Bulk Modulus (GPa) = 55.35879 55.53299 55.44589
# Shear Modulus (GPa) = 19.90825 21.15925 20.53375
#
# Velocity S-wave (km/s) = 3.29341 3.39531 3.34475
# Velocity P-wave (km/s) = 6.68005 6.75476 6.71751
#
# Compressibility (1/GPa) = 0.01806398
#
# Stress axis : x y z
#
# Youngs Moduli (GPa) = 69.67424 69.67424 68.20802
#
# Poissons Ratio (x) = 0.33718 0.26641
# Poissons Ratio (y) = 0.33718 0.26641
# Poissons Ratio (z) = 0.27213 0.27213
#
# Static dielectric constant tensor:
#      x y z
#    x 3.346890 0.000000 0.000000 
#    y 0.000000 3.346890 0.000000 
#    z 0.000000 0.000000 3.246420 
# 
# 
# High freq. dielectric constant tensor:
#      x y z
#    x 1.706040 0.000000 0.000000 
#    y 0.000000 1.706040 0.000000 
#    z 0.000000 0.000000 1.704870 
# 
# From -- ./inp_files/3286.got.cif
#   From: 2010.03.12/outbox.cif.g09.slc.cpg/sg109_2_cif.got.tgz:3286.got - 2010.04.14 01:55:16.
