data_PCOD8307217
_publ_section_title
;
Structure prediction by ZEFSAII (Michael W. Deem and Ramdas Pophale) SiO2 
 PCOD8307217
Probable space group: P 42 M C
;
_chemical_formula_sum "Si O2"
_cell_formula_units_Z 48
_cell_length_a 9.384347
_cell_length_b 9.384347
_cell_length_c 30.816433
_cell_angle_alpha 90.000000
_cell_angle_beta 90.000000
_cell_angle_gamma 90.000000
_cell_volume 2713.879021
_symmetry_space_group_name_H-M "P 42 M C"
_symmetry_group_IT_number 105
_symmetry_cell_setting 'tetragonal'
loop_
_space_group_symop_operation_xyz
x,y,z
-y,x,1/2+z
-x,-y,z
y,-x,1/2+z
-x,y,z
x,-y,z
-y,-x,1/2+z
y,x,1/2+z
loop_
_atom_site_type_symbol
_atom_site_label
_atom_site_fract_x
_atom_site_fract_y
_atom_site_fract_z
Si Si1 0.162422 0.666873 0.919000
Si Si2 0.332776 0.333771 0.670357
Si Si3 0.167224 0.833771 0.096826
Si Si4 0.337578 0.166873 0.848183
Si Si5 0.342244 0.169057 0.514966
Si Si6 0.157756 0.669057 0.252217
O O1 0.175930 0.500000 0.909980
O O2 0.250000 0.750000 0.883591
O O3 0.000000 0.717893 0.915327
O O4 0.223968 0.702942 0.967138
O O5 0.500000 0.304527 0.663023
O O6 0.296800 0.500000 0.669471
O O7 0.245115 0.254885 0.633591
O O8 0.280427 0.271762 0.716574
O O9 0.219574 0.771762 0.050609
O O10 0.000000 0.804527 0.104160
O O11 0.203200 0.000000 0.097712
O O12 0.500000 0.217892 0.851856
O O13 0.276031 0.202941 0.800044
O O14 0.324068 0.000000 0.857203
O O15 0.500000 0.227668 0.527364
O O16 0.349823 0.000000 0.512656
O O17 0.150178 0.500000 0.254527
O O18 0.000000 0.727667 0.239819
#
# Coordination Sequence:
#
# PCOD8307217 Si02
#       6
#     8   8   8   8   8   8
#     4   9  18  32  50  74 102 130 163 202 243 289
#     4  10  20  33  51  75  99 125 160 200 243 292
#     4  10  20  33  51  75  99 125 160 200 243 292
#     4   9  18  32  50  74 102 130 163 202 243 289
#     4   8  15  30  51  72  95 126 165 206 242 280
#     4   8  15  30  51  72  95 126 165 206 242 280
#
# _framework density 17.686861
#
# number of rings (size 3 to 8) (size 9 to 14) (size 15 to 20)
#    0.000    3.000    0.000    3.000    0.000    4.000 
#    0.000    5.000    0.000    2.000    0.000    0.000 
#    0.000    0.000    0.000    0.000    0.000    0.000 
#
# Total GULP energy -594988.137170 kJ/mol
# GULP energy per Si atom -12395.586191 kJ/mol
# Density = 1.764660 g / cm^3
# Si number density = 17.686861 Si / 1000 Ang^3
#
#
#
# Elastic Constant Matrix: (Units=GPa)
#
#
# Indices 1 2 3 4 5 6 
#
# 1 73.5737 50.2596 74.7816 0.0000 0.0000 0.0000
# 2 50.2596 73.5737 74.7816 0.0000 0.0000 0.0000
# 3 74.7816 74.7816 173.5220 0.0000 0.0000 0.0000
# 4 0.0000 0.0000 0.0000 31.9881 0.0000 0.0000
# 5 0.0000 0.0000 0.0000 0.0000 31.9881 0.0000
# 6 0.0000 0.0000 0.0000 0.0000 0.0000 25.6857
#
#
#
# Elastic Compliance Matrix: (Units=1/GPa)
#
#
# Indices 1 2 3 4 5 6 
#
# 1 0.029867 -0.013026 -0.007258 0.000000 0.000000 0.000000
# 2 -0.013026 0.029867 -0.007258 0.000000 0.000000 0.000000
# 3 -0.007258 -0.007258 0.012019 0.000000 0.000000 0.000000
# 4 0.000000 0.000000 0.000000 0.031262 0.000000 0.000000
# 5 0.000000 0.000000 0.000000 0.000000 0.031262 0.000000
# 6 0.000000 0.000000 0.000000 0.000000 0.000000 0.038932
#
#
# Mechanical properties :
#
#
# Convention : Reuss Voigt Hill
#
# Bulk Modulus (GPa) = 59.98937 80.03498 70.01218
# Shear Modulus (GPa) = 21.38140 25.98881 23.68510
#
# Velocity S-wave (km/s) = 3.48068 3.83741 3.66339
# Velocity P-wave (km/s) = 7.08128 8.06124 7.58710
#
# Compressibility (1/GPa) = 0.01666962
#
# Stress axis : x y z
#
# Youngs Moduli (GPa) = 33.48176 33.48176 83.20248
#
# Poissons Ratio (x) = 0.43612 0.60389
# Poissons Ratio (y) = 0.43612 0.60389
# Poissons Ratio (z) = 0.24301 0.24301
#
# Static dielectric constant tensor:
#      x y z
#    x 3.065160 0.000000 0.000000 
#    y 0.000000 3.065160 0.000000 
#    z 0.000000 0.000000 3.599680 
# 
# 
# High freq. dielectric constant tensor:
#      x y z
#    x 1.662240 0.000000 0.000000 
#    y 0.000000 1.662240 0.000000 
#    z 0.000000 0.000000 1.700800 
# 
# From -- ./inp_files/4690.got.cif
#   From: 2010.03.12/outbox.cif.g09.slc.cpg/sg105_3_cif.got.tgz:4690.got - 2010.04.14 01:45:32.
