data_PCOD8307912
_publ_section_title
;
Structure prediction by ZEFSAII (Michael W. Deem and Ramdas Pophale) SiO2 
 PCOD8307912
Probable space group: I 41 M D
;
_chemical_formula_sum "Si O2"
_cell_formula_units_Z 96
_cell_length_a 18.352043
_cell_length_b 18.352043
_cell_length_c 14.787072
_cell_angle_alpha 90.000000
_cell_angle_beta 90.000000
_cell_angle_gamma 90.000000
_cell_volume 4980.248620
_symmetry_space_group_name_H-M "I 41 M D"
_symmetry_group_IT_number 109
_symmetry_cell_setting 'tetragonal'
loop_
_space_group_symop_operation_xyz
x,y,z
-y,1/2+x,1/4+z
-x,-y,z
y,1/2-x,1/4+z
-x,y,z
x,-y,z
-y,1/2-x,1/4+z
y,1/2+x,1/4+z
1/2+x,1/2+y,1/2+z
1/2-y,x,3/4+z
1/2-x,1/2-y,1/2+z
1/2+y,-x,3/4+z
1/2-x,1/2+y,1/2+z
1/2+x,1/2-y,1/2+z
1/2-y,-x,3/4+z
1/2+y,x,3/4+z
loop_
_atom_site_type_symbol
_atom_site_label
_atom_site_fract_x
_atom_site_fract_y
_atom_site_fract_z
Si Si1 0.085131 0.584626 0.294130
Si Si2 0.584358 0.349504 0.729109
Si Si3 0.797922 0.086090 0.551904
Si Si4 0.705238 0.351099 0.428402
Si Si5 0.805101 0.821187 0.729307
Si Si6 0.584250 0.081400 0.159291
O O1 0.106056 0.500000 0.285701
O O2 0.110583 0.617541 0.390870
O O3 0.128403 0.625274 0.214566
O O4 0.000000 0.597911 0.282215
O O5 0.500000 0.369396 0.733218
O O6 0.596735 0.263375 0.725616
O O7 0.619495 0.378377 0.822063
O O8 0.816636 0.120055 0.649724
O O9 0.732049 0.126333 0.498526
O O10 0.871245 0.100314 0.496921
O O11 0.779313 0.000000 0.560357
O O12 0.708871 0.365708 0.321399
O O13 0.724665 0.267046 0.452100
O O14 0.500000 0.078212 0.136011
O O15 0.614861 0.000000 0.178172
#
# Coordination Sequence:
#
# PCOD8307912 Si02
#       6
#    16  16  16  16  16  16
#     4  10  21  37  58  86 119 154 194 239 292 356
#     4  10  20  34  57  86 120 154 188 234 291 355
#     4  10  23  42  64  90 121 162 210 259 311 374
#     4  11  21  39  58  85 116 157 198 244 298 354
#     4  10  24  40  61  84 118 162 199 255 308 360
#     4   9  19  37  60  87 120 156 194 242 299 356
#
# _framework density 19.276146000000001
#
# number of rings (size 3 to 8) (size 9 to 14) (size 15 to 20)
#    0.000    2.000    1.667    1.000    4.667    6.667 
#    0.000    0.000    0.000    2.000    0.000    0.000 
#    0.000    0.000    0.000    0.000    0.000    0.000 
#
# Total GULP energy -595113.907896 kJ/mol
# GULP energy per Si atom -12398.206414 kJ/mol
# Density = 1.923227 g / cm^3
# Si number density = 19.276146 Si / 1000 Ang^3
#
#
#
# Elastic Constant Matrix: (Units=GPa)
#
#
# Indices 1 2 3 4 5 6 
#
# 1 78.3665 35.7977 54.7149 0.0000 0.0000 0.0000
# 2 35.7977 78.3665 54.7149 0.0000 0.0000 0.0000
# 3 54.7149 54.7149 157.2741 0.0000 0.0000 0.0000
# 4 0.0000 0.0000 0.0000 27.7763 0.0000 0.0000
# 5 0.0000 0.0000 0.0000 0.0000 27.7763 0.0000
# 6 0.0000 0.0000 0.0000 0.0000 0.0000 30.5663
#
#
#
# Elastic Compliance Matrix: (Units=1/GPa)
#
#
# Indices 1 2 3 4 5 6 
#
# 1 0.018317 -0.005175 -0.004572 0.000000 0.000000 0.000000
# 2 -0.005175 0.018317 -0.004572 0.000000 0.000000 0.000000
# 3 -0.004572 -0.004572 0.009539 0.000000 0.000000 0.000000
# 4 0.000000 0.000000 0.000000 0.036002 0.000000 0.000000
# 5 0.000000 0.000000 0.000000 0.000000 0.036002 0.000000
# 6 0.000000 0.000000 0.000000 0.000000 0.000000 0.032716
#
#
# Mechanical properties :
#
#
# Convention : Reuss Voigt Hill
#
# Bulk Modulus (GPa) = 57.02873 67.16248 62.09560
# Shear Modulus (GPa) = 26.97244 28.47576 27.72410
#
# Velocity S-wave (km/s) = 3.74473 3.84768 3.79655
# Velocity P-wave (km/s) = 6.95318 7.39306 7.17649
#
# Compressibility (1/GPa) = 0.01753502
#
# Stress axis : x y z
#
# Youngs Moduli (GPa) = 54.59558 54.59558 104.82829
#
# Poissons Ratio (x) = 0.28253 0.47926
# Poissons Ratio (y) = 0.28253 0.47926
# Poissons Ratio (z) = 0.24961 0.24961
#
# Static dielectric constant tensor:
#      x y z
#    x 3.487170 0.000000 0.000000 
#    y 0.000000 3.487170 0.000000 
#    z 0.000000 0.000000 3.711480 
# 
# 
# High freq. dielectric constant tensor:
#      x y z
#    x 1.743430 0.000000 0.000000 
#    y 0.000000 1.743430 0.000000 
#    z 0.000000 0.000000 1.763050 
# 
# From -- ./inp_files/2061.got.cif
#   From: 2010.03.12/outbox.cif.g09.slc.cpg/sg109_2_cif.got.tgz:2061.got - 2010.04.14 01:55:16.
