data_PCOD8307815
_publ_section_title
;
Structure prediction by ZEFSAII (Michael W. Deem and Ramdas Pophale) SiO2 
 PCOD8307815
Probable space group: I 4 C M
;
_chemical_formula_sum "Si O2"
_cell_formula_units_Z 80
_cell_length_a 11.961547
_cell_length_b 11.961547
_cell_length_c 28.747519
_cell_angle_alpha 90.000000
_cell_angle_beta 90.000000
_cell_angle_gamma 90.000000
_cell_volume 4113.154963
_symmetry_space_group_name_H-M "I 4 C M"
_symmetry_group_IT_number 108
_symmetry_cell_setting 'tetragonal'
loop_
_space_group_symop_operation_xyz
x,y,z
-y,x,z
-x,-y,z
y,-x,z
-x,y,1/2+z
x,-y,1/2+z
-y,-x,1/2+z
y,x,1/2+z
1/2+x,1/2+y,1/2+z
1/2-y,1/2+x,1/2+z
1/2-x,1/2-y,1/2+z
1/2+y,1/2-x,1/2+z
1/2-x,1/2+y,z
1/2+x,1/2-y,z
1/2-y,1/2-x,z
1/2+y,1/2+x,z
loop_
_atom_site_type_symbol
_atom_site_label
_atom_site_fract_x
_atom_site_fract_y
_atom_site_fract_z
Si Si1 0.905950 0.594051 0.520061
Si Si2 0.819386 0.496984 0.762260
Si Si3 0.001178 0.819732 0.850044
Si Si4 0.405426 0.094575 0.124333
Si Si5 0.180712 0.975986 0.675632
Si Si6 0.824150 0.500807 0.935444
O O1 0.870683 0.629318 0.571650
O O2 0.803135 0.540102 0.489422
O O3 0.000000 0.500000 0.522830
O O4 0.878285 0.378285 0.750816
O O5 0.786766 0.499892 0.816403
O O6 0.710462 0.516584 0.730360
O O7 0.904702 0.595299 0.751048
O O8 0.110964 0.890332 0.839463
O O9 0.002449 0.786295 0.904356
O O10 0.455473 0.205343 0.147619
O O11 0.500000 0.000000 0.126453
O O12 0.123908 0.095079 0.663541
O O13 0.915996 0.415996 0.913547
O O14 0.873200 0.626801 0.934705
#
# Coordination Sequence:
#
# PCOD8307815 Si02
#       6
#     8  16  16   8  16  16
#     4   7  16  36  62  89 111 143 201 258 301 364
#     4  11  23  38  59  88 118 160 208 257 303 379
#     4  11  23  35  50  79 121 162 199 245 303 367
#     4  11  22  40  72  94 123 167 217 263 321 392
#     4  11  25  42  63  94 133 169 207 265 321 375
#     4   8  16  34  58  79 106 138 189 245 292 349
#
# _framework density 19.449791000000001
#
# number of rings (size 3 to 8) (size 9 to 14) (size 15 to 20)
#    0.600    1.400    1.000    3.000    2.800    8.000 
#    0.000    2.000    0.000    2.400    0.000    0.000 
#    0.000    0.000    0.000    0.000    0.000    0.000 
#
# Total GULP energy -495647.003877 kJ/mol
# GULP energy per Si atom -12391.175097 kJ/mol
# Density = 1.940552 g / cm^3
# Si number density = 19.449791 Si / 1000 Ang^3
#
#
#
# Elastic Constant Matrix: (Units=GPa)
#
#
# Indices 1 2 3 4 5 6 
#
# 1 97.7189 39.5821 38.8660 0.0000 0.0000 -0.0003
# 2 39.5821 97.7189 38.8660 0.0000 0.0000 0.0003
# 3 38.8660 38.8660 122.5804 0.0000 0.0000 0.0000
# 4 0.0000 0.0000 0.0000 15.7503 0.0000 0.0000
# 5 0.0000 0.0000 0.0000 0.0000 15.7503 0.0000
# 6 -0.0003 0.0003 0.0000 0.0000 0.0000 8.7569
#
#
#
# Elastic Compliance Matrix: (Units=1/GPa)
#
#
# Indices 1 2 3 4 5 6 
#
# 1 0.013039 -0.004162 -0.002814 0.000000 0.000000 0.000001
# 2 -0.004162 0.013039 -0.002814 0.000000 0.000000 -0.000001
# 3 -0.002814 -0.002814 0.009943 0.000000 0.000000 0.000000
# 4 0.000000 0.000000 0.000000 0.063491 0.000000 0.000000
# 5 0.000000 0.000000 0.000000 0.000000 0.063491 0.000000
# 6 0.000001 -0.000001 0.000000 0.000000 0.000000 0.114195
#
#
# Mechanical properties :
#
#
# Convention : Reuss Voigt Hill
#
# Bulk Modulus (GPa) = 60.83443 61.40516 61.11980
# Shear Modulus (GPa) = 16.54213 21.43178 18.98696
#
# Velocity S-wave (km/s) = 2.91950 3.32309 3.12782
# Velocity P-wave (km/s) = 6.53531 6.80908 6.67360
#
# Compressibility (1/GPa) = 0.01643806
#
# Stress axis : x y z
#
# Youngs Moduli (GPa) = 76.69450 76.69450 100.57671
#
# Poissons Ratio (x) = 0.31921 0.28307
# Poissons Ratio (y) = 0.31921 0.28307
# Poissons Ratio (z) = 0.21586 0.21586
#
# Static dielectric constant tensor:
#      x y z
#    x 3.391420 0.000000 0.000000 
#    y 0.000000 3.391420 0.000000 
#    z 0.000000 0.000000 3.674680 
# 
# 
# High freq. dielectric constant tensor:
#      x y z
#    x 1.747360 0.000000 0.000000 
#    y 0.000000 1.747360 0.000000 
#    z 0.000000 0.000000 1.753170 
# 
# From -- ./inp_files/3452.got.cif
#   From: 2010.03.12/outbox.cif.g09.slc.cpg/sg108_2_cif.got.tgz:3452.got - 2010.04.14 01:53:11.
