data_PCOD8307361
_publ_section_title
;
Structure prediction by ZEFSAII (Michael W. Deem and Ramdas Pophale) SiO2 
 PCOD8307361
Probable space group: P 42 M C
;
_chemical_formula_sum "Si O2"
_cell_formula_units_Z 40
_cell_length_a 18.970696
_cell_length_b 18.970696
_cell_length_c 5.180189
_cell_angle_alpha 90.000000
_cell_angle_beta 90.000000
_cell_angle_gamma 90.000000
_cell_volume 1864.284268
_symmetry_space_group_name_H-M "P 42 M C"
_symmetry_group_IT_number 105
_symmetry_cell_setting 'tetragonal'
loop_
_space_group_symop_operation_xyz
x,y,z
-y,x,1/2+z
-x,-y,z
y,-x,1/2+z
-x,y,z
x,-y,z
-y,-x,1/2+z
y,x,1/2+z
loop_
_atom_site_type_symbol
_atom_site_label
_atom_site_fract_x
_atom_site_fract_y
_atom_site_fract_z
Si Si1 0.917740 0.852910 0.902120
Si Si2 0.147989 0.702070 0.868323
Si Si3 0.352910 0.417740 0.339881
Si Si4 0.579395 0.920605 0.121001
Si Si5 0.647990 0.797931 0.873679
O O1 0.876937 0.898996 0.690704
O O2 0.898623 0.771560 0.868601
O O3 0.000000 0.863159 0.855434
O O4 0.095371 0.634535 0.852639
O O5 0.200862 0.700862 0.621001
O O6 0.196338 0.696339 0.121001
O O7 0.363158 0.500000 0.386567
O O8 0.376937 0.398996 0.051298
O O9 0.271560 0.398622 0.373399
O O10 0.500000 0.909777 0.225084
O O11 0.590223 0.000000 0.016917
O O12 0.595371 0.865465 0.889362
#
# Coordination Sequence:
#
# PCOD8307361 Si02
#       5
#     8   8   8   8   8
#     4  12  27  46  71 101 136 180 231 288 347 403
#     4  10  23  42  68  96 136 172 223 270 334 403
#     4  12  27  46  71 101 136 180 231 288 347 403
#     4   9  20  38  62  94 134 178 222 270 325 396
#     4  10  23  42  68  96 136 172 223 270 334 403
#
# _framework density 21.455956
#
# number of rings (size 3 to 8) (size 9 to 14) (size 15 to 20)
#    1.200    0.200    0.000    4.800    0.000   10.400 
#    0.000    2.000    0.000    0.000    0.000    0.000 
#    0.000    0.000    0.000    0.000    0.000    0.000 
#
# Total GULP energy -495900.627092 kJ/mol
# GULP energy per Si atom -12397.515677 kJ/mol
# Density = 2.140712 g / cm^3
# Si number density = 21.455956 Si / 1000 Ang^3
#
#
#
# Elastic Constant Matrix: (Units=GPa)
#
#
# Indices 1 2 3 4 5 6 
#
# 1 120.2645 42.7494 23.2309 0.0000 0.0000 0.0000
# 2 42.7494 120.2645 23.2309 0.0000 0.0000 0.0000
# 3 23.2309 23.2309 126.2627 0.0000 0.0000 0.0000
# 4 0.0000 0.0000 0.0000 1.8166 0.0000 0.0000
# 5 0.0000 0.0000 0.0000 0.0000 1.8166 0.0000
# 6 0.0000 0.0000 0.0000 0.0000 0.0000 30.0849
#
#
#
# Elastic Compliance Matrix: (Units=1/GPa)
#
#
# Indices 1 2 3 4 5 6 
#
# 1 0.009687 -0.003213 -0.001191 0.000000 0.000000 0.000000
# 2 -0.003213 0.009687 -0.001191 0.000000 0.000000 0.000000
# 3 -0.001191 -0.001191 0.008358 0.000000 0.000000 0.000000
# 4 0.000000 0.000000 0.000000 0.550478 0.000000 0.000000
# 5 0.000000 0.000000 0.000000 0.000000 0.550478 0.000000
# 6 0.000000 0.000000 0.000000 0.000000 0.000000 0.033239
#
#
# Mechanical properties :
#
#
# Convention : Reuss Voigt Hill
#
# Bulk Modulus (GPa) = 60.45344 60.57935 60.51639
# Shear Modulus (GPa) = 4.24220 25.24897 14.74559
#
# Velocity S-wave (km/s) = 1.40764 3.43415 2.62439
# Velocity P-wave (km/s) = 5.55686 6.63476 6.11959
#
# Compressibility (1/GPa) = 0.01654166
#
# Stress axis : x y z
#
# Youngs Moduli (GPa) = 103.22761 103.22761 119.64147
#
# Poissons Ratio (x) = 0.33171 0.14251
# Poissons Ratio (y) = 0.33171 0.14251
# Poissons Ratio (z) = 0.12296 0.12296
#
# Static dielectric constant tensor:
#      x y z
#    x 3.814890 0.000000 0.000000 
#    y 0.000000 3.814890 0.000000 
#    z 0.000000 0.000000 3.952430 
# 
# 
# High freq. dielectric constant tensor:
#      x y z
#    x 1.849640 0.000000 0.000000 
#    y 0.000000 1.849640 0.000000 
#    z 0.000000 0.000000 1.837740 
# 
# From -- ./inp_files/191.got.cif
#   From: 2010.03.12/outbox.cif.g09.slc.cpg/sg105_1_cif.got.tgz:191.got - 2010.04.14 01:45:32.
