data_PCOD8307307
_publ_section_title
;
Structure prediction by ZEFSAII (Michael W. Deem and Ramdas Pophale) SiO2 
 PCOD8307307
Probable space group: P 42 M C
;
_chemical_formula_sum "Si O2"
_cell_formula_units_Z 48
_cell_length_a 9.258095
_cell_length_b 9.258095
_cell_length_c 31.191290
_cell_angle_alpha 90.000000
_cell_angle_beta 90.000000
_cell_angle_gamma 90.000000
_cell_volume 2673.477924
_symmetry_space_group_name_H-M "P 42 M C"
_symmetry_group_IT_number 105
_symmetry_cell_setting 'tetragonal'
loop_
_space_group_symop_operation_xyz
x,y,z
-y,x,1/2+z
-x,-y,z
y,-x,1/2+z
-x,y,z
x,-y,z
-y,-x,1/2+z
y,x,1/2+z
loop_
_atom_site_type_symbol
_atom_site_label
_atom_site_fract_x
_atom_site_fract_y
_atom_site_fract_z
Si Si1 0.342891 0.170441 0.469260
Si Si2 0.833135 0.331012 0.634718
Si Si3 0.166864 0.668988 0.303802
Si Si4 0.167182 0.167182 0.719260
Si Si5 0.327487 0.835508 0.561844
Si Si6 0.835508 0.672513 0.876676
O O1 0.500000 0.245609 0.469260
O O2 0.265555 0.211300 0.514412
O O3 0.265555 0.211300 0.424108
O O4 0.365393 0.000000 0.469260
O O5 0.806651 0.500000 0.639168
O O6 0.779042 0.257223 0.678434
O O7 0.740208 0.272631 0.595610
O O8 0.000000 0.292943 0.626294
O O9 0.193349 0.500000 0.299353
O O10 0.220958 0.742777 0.260086
O O11 0.259791 0.727370 0.342910
O O12 0.000000 0.707057 0.312226
O O13 0.000000 0.197162 0.729257
O O14 0.197162 0.000000 0.709263
O O15 0.500000 0.821759 0.562393
O O16 0.281335 0.000000 0.572660
O O17 0.821758 0.500000 0.876126
O O18 0.000000 0.718664 0.865860
#
# Coordination Sequence:
#
# PCOD8307307 Si02
#       6
#     8   8   8   8   8   8
#     4   7  12  26  48  73  98 124 160 205 244 279
#     4  10  21  35  50  72 103 133 160 196 244 295
#     4  10  21  35  50  72 103 133 160 196 244 295
#     4   9  18  34  54  71  90 124 168 207 242 285
#     4   9  17  31  53  77  99 127 165 206 245 286
#     4   9  17  31  53  77  99 127 165 206 245 286
#
# _framework density 17.954139000000001
#
# number of rings (size 3 to 8) (size 9 to 14) (size 15 to 20)
#    0.000    3.000    0.000    3.000    0.000    4.000 
#    0.000    5.000    0.000    8.000    0.000    0.000 
#    0.000    0.000    0.000    0.000    0.000    0.000 
#
# Total GULP energy -594831.576130 kJ/mol
# GULP energy per Si atom -12392.324503 kJ/mol
# Density = 1.791327 g / cm^3
# Si number density = 17.954139 Si / 1000 Ang^3
#
#
#
# Elastic Constant Matrix: (Units=GPa)
#
#
# Indices 1 2 3 4 5 6 
#
# 1 51.4549 26.7441 56.8945 0.0000 0.0000 0.0000
# 2 26.7441 51.4549 56.8945 0.0000 0.0000 0.0000
# 3 56.8945 56.8945 181.3063 0.0000 0.0000 0.0000
# 4 0.0000 0.0000 0.0000 73.9845 0.0000 0.0000
# 5 0.0000 0.0000 0.0000 0.0000 73.9845 0.0000
# 6 0.0000 0.0000 0.0000 0.0000 0.0000 24.9493
#
#
#
# Elastic Compliance Matrix: (Units=1/GPa)
#
#
# Indices 1 2 3 4 5 6 
#
# 1 0.032001 -0.008467 -0.007385 0.000000 0.000000 0.000000
# 2 -0.008467 0.032001 -0.007385 0.000000 0.000000 0.000000
# 3 -0.007385 -0.007385 0.010150 0.000000 0.000000 0.000000
# 4 0.000000 0.000000 0.000000 0.013516 0.000000 0.000000
# 5 0.000000 0.000000 0.000000 0.000000 0.013516 0.000000
# 6 0.000000 0.000000 0.000000 0.000000 0.000000 0.040081
#
#
# Mechanical properties :
#
#
# Convention : Reuss Voigt Hill
#
# Bulk Modulus (GPa) = 36.12939 62.80913 49.46926
# Shear Modulus (GPa) = 25.38495 44.16253 34.77374
#
# Velocity S-wave (km/s) = 3.76424 4.96496 4.40569
# Velocity P-wave (km/s) = 6.24976 8.24177 7.31390
#
# Compressibility (1/GPa) = 0.02767830
#
# Stress axis : x y z
#
# Youngs Moduli (GPa) = 31.24890 31.24890 98.51793
#
# Poissons Ratio (x) = 0.26459 0.72756
# Poissons Ratio (y) = 0.26459 0.72756
# Poissons Ratio (z) = 0.23077 0.23077
#
# Static dielectric constant tensor:
#      x y z
#    x 3.066580 0.000000 0.000000 
#    y 0.000000 3.066580 0.000000 
#    z 0.000000 0.000000 3.720190 
# 
# 
# High freq. dielectric constant tensor:
#      x y z
#    x 1.669160 0.000000 0.000000 
#    y 0.000000 1.669160 0.000000 
#    z 0.000000 0.000000 1.717750 
# 
# From -- ./inp_files/4684.got.cif
#   From: 2010.03.12/outbox.cif.g09.slc.cpg/sg105_3_cif.got.tgz:4684.got - 2010.04.14 01:45:32.
