data_PCOD8307478
_publ_section_title
;
Structure prediction by ZEFSAII (Michael W. Deem and Ramdas Pophale) SiO2 
 PCOD8307478
Probable space group: I 4 M M
;
_chemical_formula_sum "Si O2"
_cell_formula_units_Z 128
_cell_length_a 17.710403
_cell_length_b 17.710403
_cell_length_c 26.602959
_cell_angle_alpha 90.000000
_cell_angle_beta 90.000000
_cell_angle_gamma 90.000000
_cell_volume 8344.240875
_symmetry_space_group_name_H-M "I 4 M M"
_symmetry_group_IT_number 107
_symmetry_cell_setting 'tetragonal'
loop_
_space_group_symop_operation_xyz
x,y,z
-y,x,z
-x,-y,z
y,-x,z
-x,y,z
x,-y,z
-y,-x,z
y,x,z
1/2+x,1/2+y,1/2+z
1/2-y,1/2+x,1/2+z
1/2-x,1/2-y,1/2+z
1/2+y,1/2-x,1/2+z
1/2-x,1/2+y,1/2+z
1/2+x,1/2-y,1/2+z
1/2-y,1/2-x,1/2+z
1/2+y,1/2+x,1/2+z
loop_
_atom_site_type_symbol
_atom_site_label
_atom_site_fract_x
_atom_site_fract_y
_atom_site_fract_z
Si Si1 0.087162 0.206025 0.781100
Si Si2 0.227780 0.587381 0.979821
Si Si3 0.082936 0.587320 0.929216
Si Si4 0.914586 0.412298 0.225136
Si Si5 0.362558 0.856999 0.328055
Si Si6 0.411695 0.293387 0.082431
Si Si7 0.646628 0.768513 0.182005
Si Si8 0.792328 0.087929 0.371874
O O1 0.125845 0.125845 0.793483
O O2 0.131641 0.269720 0.812381
O O3 0.094329 0.224235 0.721901
O O4 0.000000 0.202168 0.796872
O O5 0.220164 0.500000 0.992081
O O6 0.143885 0.620374 0.968576
O O7 0.279613 0.601667 0.931252
O O8 0.261021 0.624000 0.030403
O O9 0.103336 0.500000 0.917392
O O10 0.086181 0.631574 0.876985
O O11 0.000000 0.596246 0.953073
O O12 0.892306 0.500000 0.215468
O O13 0.909936 0.395627 0.284377
O O14 0.857665 0.355323 0.195872
O O15 0.000000 0.396632 0.206675
O O16 0.276282 0.878814 0.339429
O O17 0.500000 0.307261 0.079061
O O18 0.374355 0.374355 0.093265
O O19 0.390284 0.236841 0.127158
O O20 0.731506 0.731506 0.182995
O O21 0.868373 0.131628 0.356203
O O22 0.802973 0.000000 0.359502
#
# Coordination Sequence:
#
# PCOD8307478 Si02
#       8
#    16  16  16  16  16  16  16  16
#     4  10  19  30  44  62  84 110 139 170 205 246
#     4   8  16  28  40  56  78 103 133 169 207 245
#     4   9  15  24  40  61  83 107 135 167 203 244
#     4  10  18  28  44  66  89 110 136 171 207 244
#     4  10  17  28  43  62  85 109 138 169 206 245
#     4  10  18  29  44  58  76 104 137 174 212 246
#     4   9  18  31  45  61  83 111 140 168 203 247
#     4  10  19  30  43  60  83 110 141 175 209 247
#
# _framework density 15.339922
#
# number of rings (size 3 to 8) (size 9 to 14) (size 15 to 20)
#    0.000    2.500    0.000    5.625    0.000    1.875 
#    0.000    0.625    0.000    6.750    0.000    0.000 
#    0.000    0.250    0.000    0.000    0.000    0.000 
#
# Total GULP energy -793251.393495 kJ/mol
# GULP energy per Si atom -12394.553023 kJ/mol
# Density = 1.530501 g / cm^3
# Si number density = 15.339922 Si / 1000 Ang^3
#
#
#
# Elastic Constant Matrix: (Units=GPa)
#
#
# Indices 1 2 3 4 5 6 
#
# 1 86.0924 56.2829 29.2534 0.0000 0.0000 0.0000
# 2 56.2829 86.0924 29.2534 0.0000 0.0000 0.0000
# 3 29.2534 29.2534 67.8587 0.0000 0.0000 0.0000
# 4 0.0000 0.0000 0.0000 16.1344 0.0000 0.0000
# 5 0.0000 0.0000 0.0000 0.0000 16.1344 0.0000
# 6 0.0000 0.0000 0.0000 0.0000 0.0000 22.3622
#
#
#
# Elastic Compliance Matrix: (Units=1/GPa)
#
#
# Indices 1 2 3 4 5 6 
#
# 1 0.021041 -0.012505 -0.003680 0.000000 0.000000 0.000000
# 2 -0.012505 0.021041 -0.003680 0.000000 0.000000 0.000000
# 3 -0.003680 -0.003680 0.017909 0.000000 0.000000 0.000000
# 4 0.000000 0.000000 0.000000 0.061979 0.000000 0.000000
# 5 0.000000 0.000000 0.000000 0.000000 0.061979 0.000000
# 6 0.000000 0.000000 0.000000 0.000000 0.000000 0.044718
#
#
# Mechanical properties :
#
#
# Convention : Reuss Voigt Hill
#
# Bulk Modulus (GPa) = 49.35391 52.18034 50.76712
# Shear Modulus (GPa) = 18.17180 19.27646 18.72413
#
# Velocity S-wave (km/s) = 3.44555 3.54873 3.49752
# Velocity P-wave (km/s) = 6.93343 7.13311 7.03398
#
# Compressibility (1/GPa) = 0.02026182
#
# Stress axis : x y z
#
# Youngs Moduli (GPa) = 47.52611 47.52611 55.83754
#
# Poissons Ratio (x) = 0.59433 0.20547
# Poissons Ratio (y) = 0.59433 0.20547
# Poissons Ratio (z) = 0.17488 0.17488
#
# Static dielectric constant tensor:
#      x y z
#    x 2.894780 0.000000 0.000000 
#    y 0.000000 2.894780 0.000000 
#    z 0.000000 0.000000 2.970190 
# 
# 
# High freq. dielectric constant tensor:
#      x y z
#    x 1.576720 0.000000 0.000000 
#    y 0.000000 1.576720 0.000000 
#    z 0.000000 0.000000 1.575750 
# 
# From -- ./inp_files/5451.got.cif
#   From: 2010.03.12/outbox.cif.g09.slc.cpg/sg107_3_cif.got.tgz:5451.got - 2010.04.14 01:49:11.
