data_PCOD8307271
_publ_section_title
;
Structure prediction by ZEFSAII (Michael W. Deem and Ramdas Pophale) SiO2 
 PCOD8307271
Probable space group: P 42 M C
;
_chemical_formula_sum "Si O2"
_cell_formula_units_Z 48
_cell_length_a 8.151660
_cell_length_b 8.151660
_cell_length_c 33.717263
_cell_angle_alpha 90.000000
_cell_angle_beta 90.000000
_cell_angle_gamma 90.000000
_cell_volume 2240.497316
_symmetry_space_group_name_H-M "P 42 M C"
_symmetry_group_IT_number 105
_symmetry_cell_setting 'tetragonal'
loop_
_space_group_symop_operation_xyz
x,y,z
-y,x,1/2+z
-x,-y,z
y,-x,1/2+z
-x,y,z
x,-y,z
-y,-x,1/2+z
y,x,1/2+z
loop_
_atom_site_type_symbol
_atom_site_label
_atom_site_fract_x
_atom_site_fract_y
_atom_site_fract_z
Si Si1 0.187192 0.812646 0.696030
Si Si2 0.813022 0.308705 0.032333
Si Si3 0.691172 0.680149 0.274955
Si Si4 0.315067 0.690725 0.615553
Si Si5 0.320137 0.809566 0.953516
Si Si6 0.804752 0.000000 0.409244
Si Si7 0.000000 0.304946 0.819418
O O1 0.298558 0.720868 0.728125
O O2 0.204322 0.731411 0.653158
O O3 0.000000 0.794975 0.709782
O O4 0.243735 0.000000 0.693592
O O5 0.768996 0.500000 0.030955
O O6 0.778955 0.241516 0.076575
O O7 0.000000 0.272933 0.020988
O O8 0.701198 0.216661 0.000457
O O9 0.500000 0.678092 0.283450
O O10 0.763489 0.500000 0.287723
O O11 0.769594 0.833814 0.299167
O O12 0.500000 0.752785 0.624034
O O13 0.311483 0.500000 0.606663
O O14 0.500000 0.735808 0.940966
O O15 0.165753 0.730273 0.929665
O O16 0.322755 0.000000 0.943923
O O17 0.748922 0.000000 0.364377
O O18 0.000000 0.000000 0.413145
O O19 0.000000 0.500000 0.814904
#
# Coordination Sequence:
#
# PCOD8307271 Si02
#       7
#     8   8   8   8   8   4   4
#     4  11  23  37  55  82 115 152 197 244 292 350
#     4  10  20  35  57  84 115 152 196 247 302 356
#     4  10  21  39  63  88 116 154 194 237 296 358
#     4  10  21  36  54  79 112 151 195 243 295 351
#     4  10  21  38  60  85 115 155 198 240 296 361
#     4  10  22  40  60  86 120 154 192 244 296 354
#     4  10  22  40  62  90 122 152 192 244 294 358
#
# _framework density 21.423815000000001
#
# number of rings (size 3 to 8) (size 9 to 14) (size 15 to 20)
#    0.000    1.833    1.667    2.000    0.000    8.000 
#    0.000    0.000    0.000    0.000    0.000    0.000 
#    0.000    0.000    0.000    0.000    0.000    0.000 
#
# Total GULP energy -595092.761704 kJ/mol
# GULP energy per Si atom -12397.765869 kJ/mol
# Density = 2.137505 g / cm^3
# Si number density = 21.423815 Si / 1000 Ang^3
#
#
#
# Elastic Constant Matrix: (Units=GPa)
#
#
# Indices 1 2 3 4 5 6 
#
# 1 89.1125 30.2282 37.4788 0.0000 0.0000 0.0000
# 2 30.2282 89.1125 37.4788 0.0000 0.0000 0.0000
# 3 37.4788 37.4788 134.0349 0.0000 0.0000 0.0000
# 4 0.0000 0.0000 0.0000 19.3822 0.0000 0.0000
# 5 0.0000 0.0000 0.0000 0.0000 19.3822 0.0000
# 6 0.0000 0.0000 0.0000 0.0000 0.0000 16.6031
#
#
#
# Elastic Compliance Matrix: (Units=1/GPa)
#
#
# Indices 1 2 3 4 5 6 
#
# 1 0.013574 -0.003409 -0.002842 0.000000 0.000000 0.000000
# 2 -0.003409 0.013574 -0.002842 0.000000 0.000000 0.000000
# 3 -0.002842 -0.002842 0.009050 0.000000 0.000000 0.000000
# 4 0.000000 0.000000 0.000000 0.051594 0.000000 0.000000
# 5 0.000000 0.000000 0.000000 0.000000 0.051594 0.000000
# 6 0.000000 0.000000 0.000000 0.000000 0.000000 0.060230
#
#
# Mechanical properties :
#
#
# Convention : Reuss Voigt Hill
#
# Bulk Modulus (GPa) = 55.52319 58.07016 56.79667
# Shear Modulus (GPa) = 22.34091 24.87843 23.60967
#
# Velocity S-wave (km/s) = 3.23276 3.41141 3.32328
# Velocity P-wave (km/s) = 6.31721 6.53309 6.42605
#
# Compressibility (1/GPa) = 0.01801049
#
# Stress axis : x y z
#
# Youngs Moduli (GPa) = 73.67293 73.67293 110.49456
#
# Poissons Ratio (x) = 0.25115 0.31405
# Poissons Ratio (y) = 0.25115 0.31405
# Poissons Ratio (z) = 0.20939 0.20939
#
# Static dielectric constant tensor:
#      x y z
#    x 4.583360 0.000000 0.000000 
#    y 0.000000 4.583360 0.000000 
#    z 0.000000 0.000000 3.749880 
# 
# 
# High freq. dielectric constant tensor:
#      x y z
#    x 1.835170 0.000000 0.000000 
#    y 0.000000 1.835170 0.000000 
#    z 0.000000 0.000000 1.835390 
# 
# From -- ./inp_files/4752.got.cif
#   From: 2010.03.12/outbox.cif.g09.slc.cpg/sg105_3_cif.got.tgz:4752.got - 2010.04.14 01:45:32.
