data_PCOD8307845
_publ_section_title
;
Structure prediction by ZEFSAII (Michael W. Deem and Ramdas Pophale) SiO2 
 PCOD8307845
Probable space group: I 41 M D
;
_chemical_formula_sum "Si O2"
_cell_formula_units_Z 112
_cell_length_a 23.145306
_cell_length_b 23.145306
_cell_length_c 12.810132
_cell_angle_alpha 90.000000
_cell_angle_beta 90.000000
_cell_angle_gamma 90.000000
_cell_volume 6862.454195
_symmetry_space_group_name_H-M "I 41 M D"
_symmetry_group_IT_number 109
_symmetry_cell_setting 'tetragonal'
loop_
_space_group_symop_operation_xyz
x,y,z
-y,1/2+x,1/4+z
-x,-y,z
y,1/2-x,1/4+z
-x,y,z
x,-y,z
-y,1/2-x,1/4+z
y,1/2+x,1/4+z
1/2+x,1/2+y,1/2+z
1/2-y,x,3/4+z
1/2-x,1/2-y,1/2+z
1/2+y,-x,3/4+z
1/2-x,1/2+y,1/2+z
1/2+x,1/2-y,1/2+z
1/2-y,-x,3/4+z
1/2+y,x,3/4+z
loop_
_atom_site_type_symbol
_atom_site_label
_atom_site_fract_x
_atom_site_fract_y
_atom_site_fract_z
Si Si1 0.563998 0.568013 0.393160
Si Si2 0.745437 0.065702 0.793826
Si Si3 0.378649 0.373366 0.580645
Si Si4 0.931478 0.363030 0.952096
Si Si5 0.862167 0.567247 0.549773
Si Si6 0.933140 0.932287 0.502507
Si Si7 0.768371 0.934976 0.032609
O O1 0.500000 0.594936 0.385591
O O2 0.561269 0.500000 0.379881
O O3 0.590688 0.581064 0.505505
O O4 0.601801 0.595489 0.299512
O O5 0.691132 0.108764 0.787611
O O6 0.795173 0.085865 0.711938
O O7 0.724543 0.000000 0.770367
O O8 0.773618 0.067745 0.907885
O O9 0.400022 0.383985 0.697570
O O10 0.310523 0.387038 0.581542
O O11 0.908947 0.391826 0.845003
O O12 0.000000 0.368385 0.956486
O O13 0.869932 0.500000 0.525676
O O14 0.899648 0.587029 0.648367
O O15 0.795416 0.581805 0.571850
O O16 0.000000 0.918461 0.530289
O O17 0.924559 0.000000 0.483237
O O18 0.784346 0.000000 0.070000
#
# Coordination Sequence:
#
# PCOD8307845 Si02
#       7
#    16  16  16  16  16  16  16
#     4  10  18  26  42  74 105 120 142 194 252 289
#     4   9  17  30  47  69  96 126 161 196 235 290
#     4  11  18  28  49  71  94 122 162 202 244 282
#     4   9  16  29  48  68  95 131 160 186 230 295
#     4   9  19  33  49  71  99 129 163 199 238 292
#     4   9  17  30  50  74 100 132 164 193 233 287
#     4   9  17  31  49  69  95 130 163 193 240 297
#
# _framework density 16.320692999999999
#
# number of rings (size 3 to 8) (size 9 to 14) (size 15 to 20)
#    0.000    2.571    1.429    3.000    0.000    2.857 
#    0.000    1.429    3.143    6.857    0.000    0.000 
#    0.000    0.000    0.000    0.000    0.000    0.000 
#
# Total GULP energy -694236.297932 kJ/mol
# GULP energy per Si atom -12397.076749 kJ/mol
# Density = 1.628355 g / cm^3
# Si number density = 16.320693 Si / 1000 Ang^3
#
#
#
# Elastic Constant Matrix: (Units=GPa)
#
#
# Indices 1 2 3 4 5 6 
#
# 1 64.1789 39.1577 45.8149 0.0000 0.0000 0.0000
# 2 39.1577 64.1789 45.8149 0.0000 0.0000 0.0000
# 3 45.8149 45.8149 102.3520 0.0000 0.0000 0.0000
# 4 0.0000 0.0000 0.0000 19.6578 0.0000 0.0000
# 5 0.0000 0.0000 0.0000 0.0000 19.6578 0.0000
# 6 0.0000 0.0000 0.0000 0.0000 0.0000 23.7539
#
#
#
# Elastic Compliance Matrix: (Units=1/GPa)
#
#
# Indices 1 2 3 4 5 6 
#
# 1 0.028006 -0.011960 -0.007182 0.000000 0.000000 0.000000
# 2 -0.011960 0.028006 -0.007182 0.000000 0.000000 0.000000
# 3 -0.007182 -0.007182 0.016200 0.000000 0.000000 0.000000
# 4 0.000000 0.000000 0.000000 0.050870 0.000000 0.000000
# 5 0.000000 0.000000 0.000000 0.000000 0.050870 0.000000
# 6 0.000000 0.000000 0.000000 0.000000 0.000000 0.042098
#
#
# Mechanical properties :
#
#
# Convention : Reuss Voigt Hill
#
# Bulk Modulus (GPa) = 51.11914 54.69830 52.90872
# Shear Modulus (GPa) = 18.16716 19.27541 18.72128
#
# Velocity S-wave (km/s) = 3.33999 3.44036 3.39054
# Velocity P-wave (km/s) = 6.80174 7.02630 6.91493
#
# Compressibility (1/GPa) = 0.01956214
#
# Stress axis : x y z
#
# Youngs Moduli (GPa) = 35.70670 35.70670 61.72738
#
# Poissons Ratio (x) = 0.42705 0.44336
# Poissons Ratio (y) = 0.42705 0.44336
# Poissons Ratio (z) = 0.25646 0.25646
#
# Static dielectric constant tensor:
#      x y z
#    x 3.014220 0.000000 0.000000 
#    y 0.000000 3.014220 0.000000 
#    z 0.000000 0.000000 3.062430 
# 
# 
# High freq. dielectric constant tensor:
#      x y z
#    x 1.610950 0.000000 0.000000 
#    y 0.000000 1.610950 0.000000 
#    z 0.000000 0.000000 1.619280 
# 
# From -- ./inp_files/2143.got.cif
#   From: 2010.03.12/outbox.cif.g09.slc.cpg/sg109_2_cif.got.tgz:2143.got - 2010.04.14 01:55:16.
