data_PCOD8307735
_publ_section_title
;
Structure prediction by ZEFSAII (Michael W. Deem and Ramdas Pophale) SiO2 
 PCOD8307735
Probable space group: I 4 C M
;
_chemical_formula_sum "Si O2"
_cell_formula_units_Z 112
_cell_length_a 15.145506
_cell_length_b 15.145506
_cell_length_c 23.733813
_cell_angle_alpha 90.000000
_cell_angle_beta 90.000000
_cell_angle_gamma 90.000000
_cell_volume 5444.212783
_symmetry_space_group_name_H-M "I 4 C M"
_symmetry_group_IT_number 108
_symmetry_cell_setting 'tetragonal'
loop_
_space_group_symop_operation_xyz
x,y,z
-y,x,z
-x,-y,z
y,-x,z
-x,y,1/2+z
x,-y,1/2+z
-y,-x,1/2+z
y,x,1/2+z
1/2+x,1/2+y,1/2+z
1/2-y,1/2+x,1/2+z
1/2-x,1/2-y,1/2+z
1/2+y,1/2-x,1/2+z
1/2-x,1/2+y,z
1/2+x,1/2-y,z
1/2-y,1/2-x,z
1/2+y,1/2+x,z
loop_
_atom_site_type_symbol
_atom_site_label
_atom_site_fract_x
_atom_site_fract_y
_atom_site_fract_z
Si Si1 0.191495 0.830907 0.313580
Si Si2 0.642010 0.003291 0.921252
Si Si3 0.748200 0.604179 0.505103
Si Si4 0.026090 0.334371 0.298300
Si Si5 0.642005 0.541796 0.611684
Si Si6 0.394727 0.599136 0.923477
Si Si7 0.602330 0.242137 0.714255
O O1 0.242561 0.742561 0.334634
O O2 0.261147 0.900293 0.291066
O O3 0.130744 0.871163 0.361550
O O4 0.129426 0.812943 0.260892
O O5 0.581519 0.918482 0.911778
O O6 0.713352 0.977066 0.967954
O O7 0.681943 0.023501 0.858857
O O8 0.587723 0.087723 0.943638
O O9 0.821873 0.678128 0.519446
O O10 0.708286 0.561429 0.560811
O O11 0.668696 0.648264 0.468693
O O12 0.067876 0.432125 0.296158
O O13 0.961489 0.327631 0.245151
O O14 0.559097 0.608468 0.609832
O O15 0.702021 0.554167 0.666466
O O16 0.377447 0.495559 0.933688
O O17 0.686841 0.186841 0.690690
#
# Coordination Sequence:
#
# PCOD8307735 Si02
#       7
#    16  16  16  16  16  16  16
#     4  10  20  35  57  88 125 162 204 256 307 359
#     4   9  18  34  58  89 126 165 199 240 304 375
#     4  11  22  41  66  91 123 158 205 262 312 367
#     4  10  19  36  60  89 130 173 206 246 311 382
#     4  11  25  47  70  87 116 164 213 257 312 377
#     4  11  22  36  56  85 123 164 207 251 302 364
#     4  11  23  39  63  96 128 159 207 262 312 369
#
# _framework density 20.572303000000002
#
# number of rings (size 3 to 8) (size 9 to 14) (size 15 to 20)
#    0.000    1.571    1.429    3.857    0.000    2.000 
#    0.000    6.429    0.000    1.714    0.000    0.000 
#    0.000    0.000    0.000    0.000    0.000    0.000 
#
# Total GULP energy -694222.263978 kJ/mol
# GULP energy per Si atom -12396.826142 kJ/mol
# Density = 2.052548 g / cm^3
# Si number density = 20.572303 Si / 1000 Ang^3
#
#
#
# Elastic Constant Matrix: (Units=GPa)
#
#
# Indices 1 2 3 4 5 6 
#
# 1 92.6171 40.0256 57.1689 0.0000 0.0000 -0.0002
# 2 40.0256 92.6171 57.1689 0.0000 0.0000 0.0002
# 3 57.1689 57.1689 137.5014 0.0000 0.0000 0.0000
# 4 0.0000 0.0000 0.0000 28.6216 0.0000 0.0000
# 5 0.0000 0.0000 0.0000 0.0000 28.6216 0.0000
# 6 -0.0002 0.0002 0.0000 0.0000 0.0000 32.3843
#
#
#
# Elastic Compliance Matrix: (Units=1/GPa)
#
#
# Indices 1 2 3 4 5 6 
#
# 1 0.015382 -0.003632 -0.004885 0.000000 0.000000 0.000000
# 2 -0.003632 0.015382 -0.004885 0.000000 0.000000 0.000000
# 3 -0.004885 -0.004885 0.011335 0.000000 0.000000 0.000000
# 4 0.000000 0.000000 0.000000 0.034939 0.000000 0.000000
# 5 0.000000 0.000000 0.000000 0.000000 0.034939 0.000000
# 6 0.000000 0.000000 0.000000 0.000000 0.000000 0.030879
#
#
# Mechanical properties :
#
#
# Convention : Reuss Voigt Hill
#
# Bulk Modulus (GPa) = 65.38523 70.16247 67.77385
# Shear Modulus (GPa) = 28.61066 29.15032 28.88049
#
# Velocity S-wave (km/s) = 3.73330 3.76835 3.75087
# Velocity P-wave (km/s) = 7.10180 7.28789 7.19544
#
# Compressibility (1/GPa) = 0.01529397
#
# Stress axis : x y z
#
# Youngs Moduli (GPa) = 65.00945 65.00945 88.22197
#
# Poissons Ratio (x) = 0.23612 0.43100
# Poissons Ratio (y) = 0.23612 0.43100
# Poissons Ratio (z) = 0.31760 0.31760
#
# Static dielectric constant tensor:
#      x y z
#    x 3.849290 0.000000 0.000000 
#    y 0.000000 3.849290 0.000000 
#    z 0.000000 0.000000 3.647220 
# 
# 
# High freq. dielectric constant tensor:
#      x y z
#    x 1.811490 0.000000 0.000000 
#    y 0.000000 1.811490 0.000000 
#    z 0.000000 0.000000 1.790880 
# 
# From -- ./inp_files/3208.got.cif
#   From: 2010.03.12/outbox.cif.g09.slc.cpg/sg108_2_cif.got.tgz:3208.got - 2010.04.14 01:53:11.
