data_PCOD8307497
_publ_section_title
;
Structure prediction by ZEFSAII (Michael W. Deem and Ramdas Pophale) SiO2 
 PCOD8307497
Probable space group: I 4 M M
;
_chemical_formula_sum "Si O2"
_cell_formula_units_Z 128
_cell_length_a 17.581294
_cell_length_b 17.581294
_cell_length_c 26.804386
_cell_angle_alpha 90.000000
_cell_angle_beta 90.000000
_cell_angle_gamma 90.000000
_cell_volume 8285.286606
_symmetry_space_group_name_H-M "I 4 M M"
_symmetry_group_IT_number 107
_symmetry_cell_setting 'tetragonal'
loop_
_space_group_symop_operation_xyz
x,y,z
-y,x,z
-x,-y,z
y,-x,z
-x,y,z
x,-y,z
-y,-x,z
y,x,z
1/2+x,1/2+y,1/2+z
1/2-y,1/2+x,1/2+z
1/2-x,1/2-y,1/2+z
1/2+y,1/2-x,1/2+z
1/2-x,1/2+y,1/2+z
1/2+x,1/2-y,1/2+z
1/2-y,1/2-x,1/2+z
1/2+y,1/2+x,1/2+z
loop_
_atom_site_type_symbol
_atom_site_label
_atom_site_fract_x
_atom_site_fract_y
_atom_site_fract_z
Si Si1 0.308999 0.813090 0.681710
Si Si2 0.586049 0.806792 0.530391
Si Si3 0.913951 0.306794 0.587682
Si Si4 0.191002 0.686910 0.436364
Si Si5 0.913691 0.412363 0.250403
Si Si6 0.703236 0.585019 0.622516
Si Si7 0.585020 0.703236 0.995558
Si Si8 0.086309 0.412363 0.367672
O O1 0.234171 0.765830 0.700240
O O2 0.284070 0.869670 0.637648
O O3 0.349066 0.859937 0.725767
O O4 0.370568 0.754964 0.661222
O O5 0.500000 0.828355 0.516312
O O6 0.620847 0.879152 0.559037
O O7 0.630331 0.784068 0.480426
O O8 0.590337 0.734593 0.566469
O O9 0.909663 0.234594 0.551605
O O10 0.000000 0.328357 0.601760
O O11 0.265831 0.734170 0.417833
O O12 0.129434 0.745038 0.456852
O O13 0.150934 0.640063 0.392308
O O14 0.897322 0.500000 0.236343
O O15 0.906984 0.399786 0.309037
O O16 0.000000 0.391205 0.232783
O O17 0.698520 0.500000 0.642415
O O18 0.618907 0.618907 0.621804
O O19 0.500000 0.698521 0.975659
O O20 0.618906 0.618906 0.996270
O O21 0.102678 0.500000 0.381732
O O22 0.000000 0.391205 0.385292
#
# Coordination Sequence:
#
# PCOD8307497 Si02
#       8
#    16  16  16  16  16  16  16  16
#     4  10  18  28  44  64  87 114 141 172 213 257
#     4   9  17  28  41  60  86 114 143 174 209 249
#     4   9  17  28  41  60  86 114 143 174 209 249
#     4  10  18  28  44  64  87 114 141 172 213 257
#     4   9  18  32  48  65  86 112 141 175 217 263
#     4   9  17  28  41  58  81 109 141 173 204 241
#     4   9  17  28  41  58  81 109 141 173 204 241
#     4   9  18  32  48  65  86 112 141 175 217 263
#
# _framework density 15.449073
#
# number of rings (size 3 to 8) (size 9 to 14) (size 15 to 20)
#    0.000    2.750    0.000    3.000    0.000    5.000 
#    0.000    0.000    0.000    0.000    0.000    0.000 
#    0.000    4.500    0.000   34.250    0.000    0.000 
#
# Total GULP energy -793320.708159 kJ/mol
# GULP energy per Si atom -12395.636065 kJ/mol
# Density = 1.541391 g / cm^3
# Si number density = 15.449073 Si / 1000 Ang^3
#
#
#
# Elastic Constant Matrix: (Units=GPa)
#
#
# Indices 1 2 3 4 5 6 
#
# 1 94.3884 55.8021 33.2814 0.0000 0.0000 0.0000
# 2 55.8021 94.3884 33.2814 0.0000 0.0000 0.0000
# 3 33.2814 33.2814 55.9666 0.0000 0.0000 0.0000
# 4 0.0000 0.0000 0.0000 20.2486 0.0000 0.0000
# 5 0.0000 0.0000 0.0000 0.0000 20.2486 0.0000
# 6 0.0000 0.0000 0.0000 0.0000 0.0000 26.2666
#
#
#
# Elastic Compliance Matrix: (Units=1/GPa)
#
#
# Indices 1 2 3 4 5 6 
#
# 1 0.017478 -0.008438 -0.005376 0.000000 0.000000 0.000000
# 2 -0.008438 0.017478 -0.005376 0.000000 0.000000 0.000000
# 3 -0.005376 -0.005376 0.024262 0.000000 0.000000 0.000000
# 4 0.000000 0.000000 0.000000 0.049386 0.000000 0.000000
# 5 0.000000 0.000000 0.000000 0.000000 0.049386 0.000000
# 6 0.000000 0.000000 0.000000 0.000000 0.000000 0.038071
#
#
# Mechanical properties :
#
#
# Convention : Reuss Voigt Hill
#
# Bulk Modulus (GPa) = 47.98792 54.38594 51.18693
# Shear Modulus (GPa) = 20.71346 21.51132 21.11239
#
# Velocity S-wave (km/s) = 3.66561 3.73554 3.70074
# Velocity P-wave (km/s) = 7.00321 7.34067 7.17393
#
# Compressibility (1/GPa) = 0.02083858
#
# Stress axis : x y z
#
# Youngs Moduli (GPa) = 57.21330 57.21330 41.21659
#
# Poissons Ratio (x) = 0.48274 0.22159
# Poissons Ratio (y) = 0.48274 0.22159
# Poissons Ratio (z) = 0.30760 0.30760
#
# Static dielectric constant tensor:
#      x y z
#    x 3.055050 0.000000 0.000000 
#    y 0.000000 3.055050 0.000000 
#    z 0.000000 0.000000 2.760020 
# 
# 
# High freq. dielectric constant tensor:
#      x y z
#    x 1.589410 0.000000 0.000000 
#    y 0.000000 1.589410 0.000000 
#    z 0.000000 0.000000 1.576380 
# 
# From -- ./inp_files/5493.got.cif
#   From: 2010.03.12/outbox.cif.g09.slc.cpg/sg107_3_cif.got.tgz:5493.got - 2010.04.14 01:49:11.
