data_PCOD8307242
_publ_section_title
;
Structure prediction by ZEFSAII (Michael W. Deem and Ramdas Pophale) SiO2 
 PCOD8307242
Probable space group: P 42 M C
;
_chemical_formula_sum "Si O2"
_cell_formula_units_Z 48
_cell_length_a 8.121908
_cell_length_b 8.121908
_cell_length_c 34.290930
_cell_angle_alpha 90.000000
_cell_angle_beta 90.000000
_cell_angle_gamma 90.000000
_cell_volume 2262.014556
_symmetry_space_group_name_H-M "P 42 M C"
_symmetry_group_IT_number 105
_symmetry_cell_setting 'tetragonal'
loop_
_space_group_symop_operation_xyz
x,y,z
-y,x,1/2+z
-x,-y,z
y,-x,1/2+z
-x,y,z
x,-y,z
-y,-x,1/2+z
y,x,1/2+z
loop_
_atom_site_type_symbol
_atom_site_label
_atom_site_fract_x
_atom_site_fract_y
_atom_site_fract_z
Si Si1 0.816942 0.806471 0.771380
Si Si2 0.687936 0.310391 0.933754
Si Si3 0.689206 0.185004 0.689536
Si Si4 0.693930 0.186732 0.852044
Si Si5 0.500000 0.695168 0.143812
Si Si6 0.500000 0.803921 0.055416
Si Si7 0.819580 0.190280 0.011225
O O1 0.705252 0.757076 0.734532
O O2 0.760500 0.726434 0.812435
O O3 0.000000 0.746931 0.761431
O O4 0.804528 0.000000 0.777711
O O5 0.500000 0.246246 0.935721
O O6 0.700298 0.500000 0.944885
O O7 0.759007 0.282475 0.890236
O O8 0.793986 0.210404 0.964986
O O9 0.500000 0.168931 0.678578
O O10 0.768559 0.331166 0.663140
O O11 0.770110 0.000000 0.683057
O O12 0.500000 0.196242 0.849428
O O13 0.756873 0.000000 0.855880
O O14 0.500000 0.500000 0.149452
O O15 0.500000 0.745451 0.099333
O O16 0.334772 0.729899 0.034773
O O17 0.500000 0.000000 0.052205
O O18 0.000000 0.267202 0.022606
O O19 0.825267 0.000000 0.021746
#
# Coordination Sequence:
#
# PCOD8307242 Si02
#       7
#     8   8   8   8   4   4   8
#     4   9  17  30  50  76 105 139 182 229 274 322
#     4  10  20  34  53  79 112 148 187 233 284 335
#     4   9  18  35  57  79 107 143 183 227 275 333
#     4   9  17  30  50  74 104 147 191 228 272 329
#     4  10  22  38  58  86 112 142 184 226 278 342
#     4  10  22  40  60  84 116 144 178 232 282 340
#     4  10  21  38  61  85 109 146 191 231 280 341
#
# _framework density 21.220020000000002
#
# number of rings (size 3 to 8) (size 9 to 14) (size 15 to 20)
#    0.000    2.500    0.833    1.000    0.000    5.667 
#    1.500    1.667    0.000    0.000    0.000    0.000 
#    0.000    0.000    0.000    0.000    0.000    0.000 
#
# Total GULP energy -594796.170172 kJ/mol
# GULP energy per Si atom -12391.586879 kJ/mol
# Density = 2.117172 g / cm^3
# Si number density = 21.220020 Si / 1000 Ang^3
#
#
#
# Elastic Constant Matrix: (Units=GPa)
#
#
# Indices 1 2 3 4 5 6 
#
# 1 73.0664 23.9466 42.7620 0.0000 0.0000 0.0000
# 2 23.9466 73.0664 42.7620 0.0000 0.0000 0.0000
# 3 42.7620 42.7620 158.1702 0.0000 0.0000 0.0000
# 4 0.0000 0.0000 0.0000 26.5446 0.0000 0.0000
# 5 0.0000 0.0000 0.0000 0.0000 26.5446 0.0000
# 6 0.0000 0.0000 0.0000 0.0000 0.0000 8.5901
#
#
#
# Elastic Compliance Matrix: (Units=1/GPa)
#
#
# Indices 1 2 3 4 5 6 
#
# 1 0.016946 -0.003413 -0.003659 0.000000 0.000000 0.000000
# 2 -0.003413 0.016946 -0.003659 0.000000 0.000000 0.000000
# 3 -0.003659 -0.003659 0.008301 0.000000 0.000000 0.000000
# 4 0.000000 0.000000 0.000000 0.037672 0.000000 0.000000
# 5 0.000000 0.000000 0.000000 0.000000 0.037672 0.000000
# 6 0.000000 0.000000 0.000000 0.000000 0.000000 0.116412
#
#
# Mechanical properties :
#
#
# Convention : Reuss Voigt Hill
#
# Bulk Modulus (GPa) = 48.23415 58.13826 53.18620
# Shear Modulus (GPa) = 19.06062 25.32468 22.19265
#
# Velocity S-wave (km/s) = 3.00031 3.45836 3.23745
# Velocity P-wave (km/s) = 5.89766 6.58819 6.25247
#
# Compressibility (1/GPa) = 0.02073220
#
# Stress axis : x y z
#
# Youngs Moduli (GPa) = 59.01131 59.01131 120.47240
#
# Poissons Ratio (x) = 0.20138 0.44079
# Poissons Ratio (y) = 0.20138 0.44079
# Poissons Ratio (z) = 0.21591 0.21591
#
# Static dielectric constant tensor:
#      x y z
#    x 3.820770 0.000000 0.000000 
#    y 0.000000 3.820770 0.000000 
#    z 0.000000 0.000000 3.933660 
# 
# 
# High freq. dielectric constant tensor:
#      x y z
#    x 1.810770 0.000000 0.000000 
#    y 0.000000 1.810770 0.000000 
#    z 0.000000 0.000000 1.833430 
# 
# From -- ./inp_files/4728.got.cif
#   From: 2010.03.12/outbox.cif.g09.slc.cpg/sg105_3_cif.got.tgz:4728.got - 2010.04.14 01:45:32.
