data_PCOD8307891
_publ_section_title
;
Structure prediction by ZEFSAII (Michael W. Deem and Ramdas Pophale) SiO2 
 PCOD8307891
Probable space group: I 41 M D
;
_chemical_formula_sum "Si O2"
_cell_formula_units_Z 128
_cell_length_a 16.691088
_cell_length_b 16.691088
_cell_length_c 25.388244
_cell_angle_alpha 90.000000
_cell_angle_beta 90.000000
_cell_angle_gamma 90.000000
_cell_volume 7072.972301
_symmetry_space_group_name_H-M "I 41 M D"
_symmetry_group_IT_number 109
_symmetry_cell_setting 'tetragonal'
loop_
_space_group_symop_operation_xyz
x,y,z
-y,1/2+x,1/4+z
-x,-y,z
y,1/2-x,1/4+z
-x,y,z
x,-y,z
-y,1/2-x,1/4+z
y,1/2+x,1/4+z
1/2+x,1/2+y,1/2+z
1/2-y,x,3/4+z
1/2-x,1/2-y,1/2+z
1/2+y,-x,3/4+z
1/2-x,1/2+y,1/2+z
1/2+x,1/2-y,1/2+z
1/2-y,-x,3/4+z
1/2+y,x,3/4+z
loop_
_atom_site_type_symbol
_atom_site_label
_atom_site_fract_x
_atom_site_fract_y
_atom_site_fract_z
Si Si1 0.090918 0.213560 0.004290
Si Si2 0.089870 0.769919 0.326338
Si Si3 0.408097 0.163059 0.126047
Si Si4 0.750000 0.320428 0.359202
Si Si5 0.336941 0.908097 0.342357
Si Si6 0.409082 0.213560 0.714114
Si Si7 0.090160 0.590160 0.734202
Si Si8 0.089870 0.269919 0.892067
O O1 0.127920 0.255053 0.055865
O O2 0.000000 0.191685 0.017744
O O3 0.131982 0.131982 0.984202
O O4 0.099894 0.273620 0.955085
O O5 0.093989 0.861588 0.344773
O O6 0.164652 0.726447 0.356056
O O7 0.099894 0.773620 0.263320
O O8 0.000000 0.735141 0.340499
O O9 0.500000 0.152323 0.110787
O O10 0.375394 0.250000 0.109202
O O11 0.392925 0.153565 0.188299
O O12 0.755053 0.372080 0.412539
O O13 0.664652 0.273553 0.362349
O O14 0.346435 0.892925 0.280105
O O15 0.406011 0.861588 0.373631
O O16 0.347677 0.000000 0.357617
O O17 0.500000 0.191685 0.700660
O O18 0.101032 0.500000 0.712087
O O19 0.000000 0.601032 0.756317
O O20 0.000000 0.235141 0.877906
#
# Coordination Sequence:
#
# PCOD8307891 Si02
#       8
#    16  16  16  16  16  16  16  16
#     4   9  19  34  56  82 108 141 179 219 271 327
#     4  10  20  35  53  77 107 142 181 225 277 331
#     4  10  20  34  52  76 105 140 182 228 276 328
#     4  10  19  36  57  78 108 144 180 228 277 336
#     4  10  20  34  52  76 105 140 182 228 276 328
#     4   9  19  34  56  82 108 141 179 219 271 327
#     4   9  18  32  50  72 100 138 180 220 269 330
#     4  10  20  35  53  77 107 142 181 225 277 331
#
# _framework density 18.097059000000002
#
# number of rings (size 3 to 8) (size 9 to 14) (size 15 to 20)
#    0.000    2.375    1.250    1.125    0.000    3.750 
#    0.000    3.750    0.000    3.750    0.000    0.000 
#    0.000    0.000    0.000    0.000    0.000    0.000 
#
# Total GULP energy -792926.305730 kJ/mol
# GULP energy per Si atom -12389.473527 kJ/mol
# Density = 1.805587 g / cm^3
# Si number density = 18.097059 Si / 1000 Ang^3
#
#
#
# Elastic Constant Matrix: (Units=GPa)
#
#
# Indices 1 2 3 4 5 6 
#
# 1 102.4914 53.5027 62.5225 0.0000 0.0000 0.0000
# 2 53.5027 102.4914 62.5225 0.0000 0.0000 0.0000
# 3 62.5225 62.5225 116.7537 0.0000 0.0000 0.0000
# 4 0.0000 0.0000 0.0000 31.2555 0.0000 0.0000
# 5 0.0000 0.0000 0.0000 0.0000 31.2555 0.0000
# 6 0.0000 0.0000 0.0000 0.0000 0.0000 16.7276
#
#
#
# Elastic Compliance Matrix: (Units=1/GPa)
#
#
# Indices 1 2 3 4 5 6 
#
# 1 0.015822 -0.004590 -0.006015 0.000000 0.000000 0.000000
# 2 -0.004590 0.015822 -0.006015 0.000000 0.000000 0.000000
# 3 -0.006015 -0.006015 0.015007 0.000000 0.000000 0.000000
# 4 0.000000 0.000000 0.000000 0.031994 0.000000 0.000000
# 5 0.000000 0.000000 0.000000 0.000000 0.031994 0.000000
# 6 0.000000 0.000000 0.000000 0.000000 0.000000 0.059782
#
#
# Mechanical properties :
#
#
# Convention : Reuss Voigt Hill
#
# Bulk Modulus (GPa) = 74.56175 75.42578 74.99376
# Shear Modulus (GPa) = 24.02311 25.39362 24.70837
#
# Velocity S-wave (km/s) = 3.64738 3.74998 3.69904
# Velocity P-wave (km/s) = 7.68299 7.77938 7.73134
#
# Compressibility (1/GPa) = 0.01341170
#
# Stress axis : x y z
#
# Youngs Moduli (GPa) = 63.20145 63.20145 66.63562
#
# Poissons Ratio (x) = 0.29012 0.40080
# Poissons Ratio (y) = 0.29012 0.40080
# Poissons Ratio (z) = 0.38014 0.38014
#
# Static dielectric constant tensor:
#      x y z
#    x 3.437640 0.000000 0.000000 
#    y 0.000000 3.437640 0.000000 
#    z 0.000000 0.000000 3.423850 
# 
# 
# High freq. dielectric constant tensor:
#      x y z
#    x 1.697230 0.000000 0.000000 
#    y 0.000000 1.697230 0.000000 
#    z 0.000000 0.000000 1.704060 
# 
# From -- ./inp_files/4545.got.cif
#   From: 2010.03.12/outbox.cif.g09.slc.cpg/sg109_3_cif.got.tgz:4545.got - 2010.04.14 01:55:16.
