data_PCOD8307069
_publ_section_title
;
Structure prediction by ZEFSAII (Michael W. Deem and Ramdas Pophale) SiO2 
 PCOD8307069
Probable space group: P 4 N C 
;
_chemical_formula_sum "Si O2"
_cell_formula_units_Z 56
_cell_length_a 14.425796
_cell_length_b 14.425796
_cell_length_c 12.270249
_cell_angle_alpha 90.000000
_cell_angle_beta 90.000000
_cell_angle_gamma 90.000000
_cell_volume 2553.482870
_symmetry_space_group_name_H-M "P 4 N C "
_symmetry_group_IT_number 104
_symmetry_cell_setting 'tetragonal'
loop_
_space_group_symop_operation_xyz
x,y,z
-y,x,z
-x,-y,z
y,-x,z
1/2-x,1/2+y,1/2+z
1/2+x,1/2-y,1/2+z
1/2-y,1/2-x,1/2+z
1/2+y,1/2+x,1/2+z
loop_
_atom_site_type_symbol
_atom_site_label
_atom_site_fract_x
_atom_site_fract_y
_atom_site_fract_z
Si Si1 0.243403 0.546289 0.188310
Si Si2 0.865316 0.049058 0.013177
Si Si3 0.315168 0.914326 0.129790
Si Si4 0.174009 0.881916 0.795294
Si Si5 0.190951 0.234616 0.333438
Si Si6 0.917475 0.331281 0.283437
Si Si7 0.539711 0.185966 0.982224
O O1 0.250067 0.440396 0.228571
O O2 0.338382 0.601305 0.210086
O O3 0.158267 0.591971 0.253394
O O4 0.233320 0.539371 0.057430
O O5 0.873628 0.049161 0.881623
O O6 0.945626 0.116905 0.058903
O O7 0.765135 0.084618 0.041582
O O8 0.280755 0.843399 0.221271
O O9 0.325477 0.017017 0.178280
O O10 0.406886 0.885983 0.061791
O O11 0.222539 0.799755 0.865683
O O12 0.231184 0.130702 0.312243
O O13 0.111192 0.239381 0.426793
O O14 0.981304 0.363997 0.385737
#
# Coordination Sequence:
#
# PCOD8307069 Si02
#       7
#     8   8   8   8   8   8   8
#     4  11  25  43  66  97 134 176 222 288 344 408
#     4  11  22  37  64  99 130 171 223 281 339 401
#     4  11  22  43  67  99 135 181 224 284 346 413
#     4  11  21  40  66  95 131 170 223 277 337 404
#     4  10  22  44  68  94 134 181 232 279 338 417
#     4  10  26  45  66 102 140 180 230 287 343 425
#     4  11  24  43  71  99 134 183 234 281 347 419
#
# _framework density 21.93083
#
# number of rings (size 3 to 8) (size 9 to 14) (size 15 to 20)
#    0.000    1.286    4.286    0.857    2.000    2.000 
#    2.571    0.000    0.000    3.857    0.000    0.000 
#    0.000    0.000    0.000    0.000    0.000    0.000 
#
# Total GULP energy -693940.635764 kJ/mol
# GULP energy per Si atom -12391.797067 kJ/mol
# Density = 2.188091 g / cm^3
# Si number density = 21.930830 Si / 1000 Ang^3
#
#
#
# Elastic Constant Matrix: (Units=GPa)
#
#
# Indices 1 2 3 4 5 6 
#
# 1 103.9273 48.1353 54.6274 0.0000 0.0000 0.0000
# 2 48.1353 103.9273 54.6274 0.0000 0.0000 0.0000
# 3 54.6274 54.6274 125.0778 0.0000 0.0000 0.0000
# 4 0.0000 0.0000 0.0000 35.2711 0.0000 0.0000
# 5 0.0000 0.0000 0.0000 0.0000 35.2711 0.0000
# 6 0.0000 0.0000 0.0000 0.0000 0.0000 28.0420
#
#
#
# Elastic Compliance Matrix: (Units=1/GPa)
#
#
# Indices 1 2 3 4 5 6 
#
# 1 0.013754 -0.004170 -0.004186 0.000000 0.000000 0.000000
# 2 -0.004170 0.013754 -0.004186 0.000000 0.000000 0.000000
# 3 -0.004186 -0.004186 0.011651 0.000000 0.000000 0.000000
# 4 0.000000 0.000000 0.000000 0.028352 0.000000 0.000000
# 5 0.000000 0.000000 0.000000 0.000000 0.028352 0.000000
# 6 0.000000 0.000000 0.000000 0.000000 0.000000 0.035661
#
#
# Mechanical properties :
#
#
# Convention : Reuss Voigt Hill
#
# Bulk Modulus (GPa) = 71.04379 71.96809 71.50594
# Shear Modulus (GPa) = 30.99868 31.41967 31.20918
#
# Velocity S-wave (km/s) = 3.76370 3.78917 3.77646
# Velocity P-wave (km/s) = 7.16604 7.21325 7.18968
#
# Compressibility (1/GPa) = 0.01407583
#
# Stress axis : x y z
#
# Youngs Moduli (GPa) = 72.70818 72.70818 85.82884
#
# Poissons Ratio (x) = 0.30320 0.35924
# Poissons Ratio (y) = 0.30320 0.35924
# Poissons Ratio (z) = 0.30433 0.30433
#
# Static dielectric constant tensor:
#      x y z
#    x 3.900340 0.000000 0.000000 
#    y 0.000000 3.900340 0.000000 
#    z 0.000000 0.000000 3.942600 
# 
# 
# High freq. dielectric constant tensor:
#      x y z
#    x 1.859450 0.000000 0.000000 
#    y 0.000000 1.859450 0.000000 
#    z 0.000000 0.000000 1.862690 
# 
# From -- ./inp_files/1028.got.cif
#   From: 2010.03.12/outbox.cif.g09.slc.cpg/sg104_cif.got.tgz:1028.got - 2010.04.14 01:44:05.
