data_PCOD8307227
_publ_section_title
;
Structure prediction by ZEFSAII (Michael W. Deem and Ramdas Pophale) SiO2 
 PCOD8307227
Probable space group: P 42 M C
;
_chemical_formula_sum "Si O2"
_cell_formula_units_Z 40
_cell_length_a 9.055757
_cell_length_b 9.055757
_cell_length_c 25.916286
_cell_angle_alpha 90.000000
_cell_angle_beta 90.000000
_cell_angle_gamma 90.000000
_cell_volume 2125.309994
_symmetry_space_group_name_H-M "P 42 M C"
_symmetry_group_IT_number 105
_symmetry_cell_setting 'tetragonal'
loop_
_space_group_symop_operation_xyz
x,y,z
-y,x,1/2+z
-x,-y,z
y,-x,1/2+z
-x,y,z
x,-y,z
-y,-x,1/2+z
y,x,1/2+z
loop_
_atom_site_type_symbol
_atom_site_label
_atom_site_fract_x
_atom_site_fract_y
_atom_site_fract_z
Si Si1 0.665622 0.824608 0.581000
Si Si2 0.672145 0.327855 0.887769
Si Si3 0.168207 0.824637 0.794264
Si Si4 0.175363 0.168207 0.981274
Si Si5 0.824608 0.334378 0.194538
O O1 0.500000 0.766579 0.569550
O O2 0.775882 0.765969 0.536948
O O3 0.717720 0.768498 0.637769
O O4 0.665272 0.000000 0.580705
O O5 0.500000 0.294176 0.893390
O O6 0.705823 0.500000 0.882147
O O7 0.730953 0.246029 0.837603
O O8 0.753970 0.269047 0.937935
O O9 0.224118 0.765969 0.738589
O O10 0.000000 0.773129 0.801590
O O11 0.182545 0.000000 0.798609
O O12 0.000000 0.182545 0.976928
O O13 0.226871 0.000000 0.973947
O O14 0.766579 0.500000 0.205988
O O15 0.000000 0.334727 0.194833
#
# Coordination Sequence:
#
# PCOD8307227 Si02
#       5
#     8   8   8   8   8
#     4   8  14  26  46  73 105 140 174 206 244 293
#     4  11  24  39  54  72  96 131 174 215 258 310
#     4  10  20  33  52  79 107 134 167 209 257 306
#     4  10  20  33  52  79 107 134 167 209 257 306
#     4   8  14  26  46  73 105 140 174 206 244 293
#
# _framework density 18.820785000000001
#
# number of rings (size 3 to 8) (size 9 to 14) (size 15 to 20)
#    0.000    2.600    0.000    3.600    0.000    7.200 
#    0.000    4.000    0.000    1.200    0.000    8.400 
#    0.000    0.000    0.000    0.000    0.000    0.000 
#
# Total GULP energy -495869.088274 kJ/mol
# GULP energy per Si atom -12396.727207 kJ/mol
# Density = 1.877795 g / cm^3
# Si number density = 18.820785 Si / 1000 Ang^3
#
#
#
# Elastic Constant Matrix: (Units=GPa)
#
#
# Indices 1 2 3 4 5 6 
#
# 1 36.2643 27.2938 30.0486 0.0000 0.0000 0.0000
# 2 27.2938 36.2643 30.0486 0.0000 0.0000 0.0000
# 3 30.0486 30.0486 137.8696 0.0000 0.0000 0.0000
# 4 0.0000 0.0000 0.0000 -36.4532 0.0000 0.0000
# 5 0.0000 0.0000 0.0000 0.0000 -36.4532 0.0000
# 6 0.0000 0.0000 0.0000 0.0000 0.0000 20.8832
#
#
#
# Elastic Compliance Matrix: (Units=1/GPa)
#
#
# Indices 1 2 3 4 5 6 
#
# 1 0.065647 -0.045829 -0.004319 0.000000 0.000000 0.000000
# 2 -0.045829 0.065647 -0.004319 0.000000 0.000000 0.000000
# 3 -0.004319 -0.004319 0.009136 0.000000 0.000000 0.000000
# 4 0.000000 0.000000 0.000000 -0.027432 0.000000 0.000000
# 5 0.000000 0.000000 0.000000 0.000000 -0.027432 0.000000
# 6 0.000000 0.000000 0.000000 0.000000 0.000000 0.047885
#
#
# Mechanical properties :
#
#
# Convention : Reuss Voigt Hill
#
# Bulk Modulus (GPa) = 31.75168 42.79778 37.27473
# Shear Modulus (GPa) = 19.77189 -2.20416 8.78386
#
# Velocity S-wave (km/s) = 3.24471 -1.08336 2.16269
# Velocity P-wave (km/s) = 5.56280 4.60696 5.10729
#
# Compressibility (1/GPa) = 0.03149439
#
# Stress axis : x y z
#
# Youngs Moduli (GPa) = 15.23299 15.23299 109.45725
#
# Poissons Ratio (x) = 0.69812 0.47277
# Poissons Ratio (y) = 0.69812 0.47277
# Poissons Ratio (z) = 0.06580 0.06580
#
# Static dielectric constant tensor:
#      x y z
#    x 3.312130 0.000000 0.000000 
#    y 0.000000 3.312130 0.000000 
#    z 0.000000 0.000000 3.975880 
# 
# 
# High freq. dielectric constant tensor:
#      x y z
#    x 1.706840 0.000000 0.000000 
#    y 0.000000 1.706840 0.000000 
#    z 0.000000 0.000000 1.753290 
# 
# From -- ./inp_files/3917.got.cif
#   From: 2010.03.12/outbox.cif.g09.slc.cpg/sg105_2_cif.got.tgz:3917.got - 2010.04.14 01:45:32.
