data_PCOD8307855
_publ_section_title
;
Structure prediction by ZEFSAII (Michael W. Deem and Ramdas Pophale) SiO2 
 PCOD8307855
Probable space group: I 41 M D
;
_chemical_formula_sum "Si O2"
_cell_formula_units_Z 48
_cell_length_a 10.591503
_cell_length_b 10.591503
_cell_length_c 23.510767
_cell_angle_alpha 90.000000
_cell_angle_beta 90.000000
_cell_angle_gamma 90.000000
_cell_volume 2637.436333
_symmetry_space_group_name_H-M "I 41 M D"
_symmetry_group_IT_number 109
_symmetry_cell_setting 'tetragonal'
loop_
_space_group_symop_operation_xyz
x,y,z
-y,1/2+x,1/4+z
-x,-y,z
y,1/2-x,1/4+z
-x,y,z
x,-y,z
-y,1/2-x,1/4+z
y,1/2+x,1/4+z
1/2+x,1/2+y,1/2+z
1/2-y,x,3/4+z
1/2-x,1/2-y,1/2+z
1/2+y,-x,3/4+z
1/2-x,1/2+y,1/2+z
1/2+x,1/2-y,1/2+z
1/2-y,-x,3/4+z
1/2+y,x,3/4+z
loop_
_atom_site_type_symbol
_atom_site_label
_atom_site_fract_x
_atom_site_fract_y
_atom_site_fract_z
Si Si1 0.151817 0.500000 0.449121
Si Si2 0.147848 0.500000 0.887605
Si Si3 0.000000 0.851060 0.509302
Si Si4 0.500000 0.646373 0.832597
Si Si5 0.229078 0.303942 0.669678
O O1 0.172862 0.500000 0.516329
O O2 0.225357 0.378995 0.422490
O O3 0.000000 0.500000 0.435331
O O4 0.202702 0.500000 0.823214
O O5 0.188041 0.370061 0.919240
O O6 0.000000 0.500000 0.885919
O O7 0.121414 0.798073 0.477570
O O8 0.000000 0.000000 0.506886
O O9 0.500000 0.500000 0.849165
O O10 0.621514 0.708328 0.861385
#
# Coordination Sequence:
#
# PCOD8307855 Si02
#       5
#     8   8   8   8  16
#     4  11  21  32  56  89 121 139 182 244 307 341
#     4  11  23  37  61  82 116 161 203 237 294 348
#     4  10  18  33  62  88 106 142 204 260 290 331
#     4  10  18  31  58  88 114 144 184 250 294 331
#     4  11  19  35  57  87 118 147 193 244 293 344
#
# _framework density 18.199490000000001
#
# number of rings (size 3 to 8) (size 9 to 14) (size 15 to 20)
#    0.000    1.333    6.667    3.000    0.000    0.000 
#    0.000    0.833   18.333    0.000    0.000    0.000 
#    0.000    0.000    0.000    0.000    0.000    0.000 
#
# Total GULP energy -297428.781987 kJ/mol
# GULP energy per Si atom -12392.865916 kJ/mol
# Density = 1.815807 g / cm^3
# Si number density = 18.199490 Si / 1000 Ang^3
#
#
#
# Elastic Constant Matrix: (Units=GPa)
#
#
# Indices 1 2 3 4 5 6 
#
# 1 109.8374 39.9633 42.9781 0.0000 0.0000 0.0000
# 2 39.9633 109.8374 42.9781 0.0000 0.0000 0.0000
# 3 42.9781 42.9781 87.3972 0.0000 0.0000 0.0000
# 4 0.0000 0.0000 0.0000 28.2869 0.0000 0.0000
# 5 0.0000 0.0000 0.0000 0.0000 28.2869 0.0000
# 6 0.0000 0.0000 0.0000 0.0000 0.0000 12.4573
#
#
#
# Elastic Compliance Matrix: (Units=1/GPa)
#
#
# Indices 1 2 3 4 5 6 
#
# 1 0.011806 -0.002506 -0.004573 0.000000 0.000000 0.000000
# 2 -0.002506 0.011806 -0.004573 0.000000 0.000000 0.000000
# 3 -0.004573 -0.004573 0.015940 0.000000 0.000000 0.000000
# 4 0.000000 0.000000 0.000000 0.035352 0.000000 0.000000
# 5 0.000000 0.000000 0.000000 0.000000 0.035352 0.000000
# 6 0.000000 0.000000 0.000000 0.000000 0.000000 0.080274
#
#
# Mechanical properties :
#
#
# Convention : Reuss Voigt Hill
#
# Bulk Modulus (GPa) = 61.55200 62.10121 61.82661
# Shear Modulus (GPa) = 22.80515 25.88307 24.34411
#
# Velocity S-wave (km/s) = 3.54371 3.77528 3.66132
# Velocity P-wave (km/s) = 7.11604 7.29385 7.20549
#
# Compressibility (1/GPa) = 0.01624643
#
# Stress axis : x y z
#
# Youngs Moduli (GPa) = 84.70601 84.70601 62.73627
#
# Poissons Ratio (x) = 0.21227 0.28690
# Poissons Ratio (y) = 0.21227 0.28690
# Poissons Ratio (z) = 0.38737 0.38737
#
# Static dielectric constant tensor:
#      x y z
#    x 3.426320 0.000000 0.000000 
#    y 0.000000 3.426320 0.000000 
#    z 0.000000 0.000000 3.441310 
# 
# 
# High freq. dielectric constant tensor:
#      x y z
#    x 1.689850 0.000000 0.000000 
#    y 0.000000 1.689850 0.000000 
#    z 0.000000 0.000000 1.705090 
# 
# From -- ./inp_files/2937.got.cif
#   From: 2010.03.12/outbox.cif.g09.slc.cpg/sg109_2_cif.got.tgz:2937.got - 2010.04.14 01:55:16.
