data_PCOD8307015
_publ_section_title
;
Structure prediction by ZEFSAII (Michael W. Deem and Ramdas Pophale) SiO2 
 PCOD8307015
Probable space group: P 4 C C
;
_chemical_formula_sum "Si O2"
_cell_formula_units_Z 40
_cell_length_a 10.837418
_cell_length_b 10.837418
_cell_length_c 15.440814
_cell_angle_alpha 90.000000
_cell_angle_beta 90.000000
_cell_angle_gamma 90.000000
_cell_volume 1813.517874
_symmetry_space_group_name_H-M "P 4 C C"
_symmetry_group_IT_number 103
_symmetry_cell_setting 'tetragonal'
loop_
_space_group_symop_operation_xyz
x,y,z
-y,x,z
-x,-y,z
y,-x,z
-x,y,1/2+z
x,-y,1/2+z
-y,-x,1/2+z
y,x,1/2+z
loop_
_atom_site_type_symbol
_atom_site_label
_atom_site_fract_x
_atom_site_fract_y
_atom_site_fract_z
Si Si1 0.233109 0.739700 0.672110
Si Si2 0.595009 0.324570 0.325463
Si Si3 0.007713 0.642750 0.224609
Si Si4 0.642750 0.007713 0.926316
Si Si5 0.766891 0.260300 0.978815
O O1 0.257478 0.624715 0.735602
O O2 0.295926 0.859265 0.712638
O O3 0.283823 0.716177 0.575463
O O4 0.083375 0.734837 0.670604
O O5 0.667696 0.450542 0.325463
O O6 0.624715 0.257478 0.415323
O O7 0.971333 0.646220 0.325463
O O8 0.000000 0.500000 0.191247
O O9 0.704074 0.140735 0.938287
O O10 0.500000 0.000000 0.959678
O O11 0.734837 0.916625 0.980321
#
# Coordination Sequence:
#
# PCOD8307015 Si02
#       5
#     8   8   8   8   8
#     4  12  25  42  68 101 134 174 226 278 334 401
#     4  11  24  42  64  93 132 178 224 275 338 399
#     4  11  23  44  71  97 135 183 225 275 338 399
#     4  11  23  44  71  97 135 183 225 275 338 399
#     4  12  25  42  68 101 134 174 226 278 334 401
#
# _framework density 22.056577000000001
#
# number of rings (size 3 to 8) (size 9 to 14) (size 15 to 20)
#    0.000    0.600    4.000    3.600    0.000    8.800 
#    0.000    6.000    0.000    0.000    0.000    0.000 
#    0.000    0.000    0.000    0.000    0.000    0.000 
#
# Total GULP energy -495827.315638 kJ/mol
# GULP energy per Si atom -12395.682891 kJ/mol
# Density = 2.200638 g / cm^3
# Si number density = 22.056577 Si / 1000 Ang^3
#
#
#
# Elastic Constant Matrix: (Units=GPa)
#
#
# Indices 1 2 3 4 5 6 
#
# 1 109.5143 10.1773 8.2845 0.0000 0.0000 0.0000
# 2 10.1773 109.5143 8.2845 0.0000 0.0000 0.0000
# 3 8.2845 8.2845 148.0569 0.0000 0.0000 0.0000
# 4 0.0000 0.0000 0.0000 11.0015 0.0000 0.0000
# 5 0.0000 0.0000 0.0000 0.0000 11.0015 0.0000
# 6 0.0000 0.0000 0.0000 0.0000 0.0000 47.5580
#
#
#
# Elastic Compliance Matrix: (Units=1/GPa)
#
#
# Indices 1 2 3 4 5 6 
#
# 1 0.009243 -0.000823 -0.000471 0.000000 0.000000 0.000000
# 2 -0.000823 0.009243 -0.000471 0.000000 0.000000 0.000000
# 3 -0.000471 -0.000471 0.006807 0.000000 0.000000 0.000000
# 4 0.000000 0.000000 0.000000 0.090897 0.000000 0.000000
# 5 0.000000 0.000000 0.000000 0.000000 0.090897 0.000000
# 6 0.000000 0.000000 0.000000 0.000000 0.000000 0.021027
#
#
# Mechanical properties :
#
#
# Convention : Reuss Voigt Hill
#
# Bulk Modulus (GPa) = 45.95088 46.73090 46.34089
# Shear Modulus (GPa) = 20.92932 36.60148 28.76540
#
# Velocity S-wave (km/s) = 3.08375 4.07804 3.61524
# Velocity P-wave (km/s) = 5.79291 6.58837 6.20340
#
# Compressibility (1/GPa) = 0.02176237
#
# Stress axis : x y z
#
# Youngs Moduli (GPa) = 108.18544 108.18544 146.91002
#
# Poissons Ratio (x) = 0.08908 0.06922
# Poissons Ratio (y) = 0.08908 0.06922
# Poissons Ratio (z) = 0.05097 0.05097
#
# Static dielectric constant tensor:
#      x y z
#    x 4.050590 0.000000 0.000000 
#    y 0.000000 4.050590 0.000000 
#    z 0.000000 0.000000 4.011740 
# 
# 
# High freq. dielectric constant tensor:
#      x y z
#    x 1.872940 0.000000 0.000000 
#    y 0.000000 1.872940 0.000000 
#    z 0.000000 0.000000 1.873090 
# 
# From -- ./inp_files/819.got.cif
#   From: 2010.03.12/outbox.cif.g09.slc.cpg/sg103_cif.got.tgz:819.got - 2010.04.14 01:42:52.
