data_PCOD8307066
_publ_section_title
;
Structure prediction by ZEFSAII (Michael W. Deem and Ramdas Pophale) SiO2 
 PCOD8307066
Probable space group: P 4 N C 
;
_chemical_formula_sum "Si O2"
_cell_formula_units_Z 48
_cell_length_a 13.974147
_cell_length_b 13.974147
_cell_length_c 11.421407
_cell_angle_alpha 90.000000
_cell_angle_beta 90.000000
_cell_angle_gamma 90.000000
_cell_volume 2230.335632
_symmetry_space_group_name_H-M "P 4 N C "
_symmetry_group_IT_number 104
_symmetry_cell_setting 'tetragonal'
loop_
_space_group_symop_operation_xyz
x,y,z
-y,x,z
-x,-y,z
y,-x,z
1/2-x,1/2+y,1/2+z
1/2+x,1/2-y,1/2+z
1/2-y,1/2-x,1/2+z
1/2+y,1/2+x,1/2+z
loop_
_atom_site_type_symbol
_atom_site_label
_atom_site_fract_x
_atom_site_fract_y
_atom_site_fract_z
Si Si1 0.237920 0.684709 0.060470
Si Si2 0.476765 0.238534 0.510718
Si Si3 0.814297 0.452619 0.258790
Si Si4 0.042980 0.688110 0.374857
Si Si5 0.987922 0.849721 0.216101
Si Si6 0.393467 0.853921 0.071696
O O1 0.248077 0.617046 0.175226
O O2 0.314252 0.769956 0.064876
O O3 0.130171 0.723889 0.059057
O O4 0.253015 0.622422 0.942432
O O5 0.481530 0.251307 0.370646
O O6 0.515724 0.333641 0.575393
O O7 0.541778 0.151553 0.557685
O O8 0.908335 0.400612 0.308991
O O9 0.845555 0.550120 0.194326
O O10 0.983056 0.749340 0.282135
O O11 0.968609 0.649581 0.467741
O O12 0.899271 0.913349 0.254132
#
# Coordination Sequence:
#
# PCOD8307066 Si02
#       6
#     8   8   8   8   8   8
#     4  10  22  43  63  94 134 175 224 273 330 397
#     4  11  24  39  62  93 133 166 220 268 329 396
#     4  10  24  42  65  97 135 169 224 276 328 397
#     4  10  22  42  66  95 133 166 227 280 333 393
#     4  11  23  40  63  92 130 175 221 274 334 403
#     4  11  25  41  70  97 132 184 216 273 340 391
#
# _framework density 21.521426000000002
#
# number of rings (size 3 to 8) (size 9 to 14) (size 15 to 20)
#    0.000    1.500    1.667    2.000    2.333   11.333 
#    0.000    0.000    0.000    4.500    0.000    0.000 
#    0.000    0.000    0.000    0.000    0.000    0.000 
#
# Total GULP energy -595043.907818 kJ/mol
# GULP energy per Si atom -12396.748080 kJ/mol
# Density = 2.147244 g / cm^3
# Si number density = 21.521426 Si / 1000 Ang^3
#
#
#
# Elastic Constant Matrix: (Units=GPa)
#
#
# Indices 1 2 3 4 5 6 
#
# 1 103.9410 5.1913 26.0006 0.0000 0.0000 0.0000
# 2 5.1913 103.9410 26.0006 0.0000 0.0000 0.0000
# 3 26.0006 26.0006 105.5632 0.0000 0.0000 0.0000
# 4 0.0000 0.0000 0.0000 21.9480 0.0000 0.0000
# 5 0.0000 0.0000 0.0000 0.0000 21.9480 0.0000
# 6 0.0000 0.0000 0.0000 0.0000 0.0000 12.1790
#
#
#
# Elastic Compliance Matrix: (Units=1/GPa)
#
#
# Indices 1 2 3 4 5 6 
#
# 1 0.010254 0.000127 -0.002557 0.000000 0.000000 0.000000
# 2 0.000127 0.010254 -0.002557 0.000000 0.000000 0.000000
# 3 -0.002557 -0.002557 0.010733 0.000000 0.000000 0.000000
# 4 0.000000 0.000000 0.000000 0.045562 0.000000 0.000000
# 5 0.000000 0.000000 0.000000 0.000000 0.045562 0.000000
# 6 0.000000 0.000000 0.000000 0.000000 0.000000 0.082109
#
#
# Mechanical properties :
#
#
# Convention : Reuss Voigt Hill
#
# Bulk Modulus (GPa) = 47.01965 47.53670 47.27818
# Shear Modulus (GPa) = 22.56964 28.29850 25.43407
#
# Velocity S-wave (km/s) = 3.24189 3.63009 3.44146
# Velocity P-wave (km/s) = 5.99236 6.30128 6.14876
#
# Compressibility (1/GPa) = 0.02126770
#
# Stress axis : x y z
#
# Youngs Moduli (GPa) = 97.52190 97.52190 93.17396
#
# Poissons Ratio (x) = -0.01243 0.23825
# Poissons Ratio (y) = -0.01243 0.23825
# Poissons Ratio (z) = 0.24937 0.24937
#
# Static dielectric constant tensor:
#      x y z
#    x 3.834740 0.000000 0.000000 
#    y 0.000000 3.834740 0.000000 
#    z 0.000000 0.000000 4.250070 
# 
# 
# High freq. dielectric constant tensor:
#      x y z
#    x 1.838280 0.000000 0.000000 
#    y 0.000000 1.838280 0.000000 
#    z 0.000000 0.000000 1.863280 
# 
# From -- ./inp_files/950.got.cif
#   From: 2010.03.12/outbox.cif.g09.slc.cpg/sg104_cif.got.tgz:950.got - 2010.04.14 01:44:05.
