data_PCOD8307203
_publ_section_title
;
Structure prediction by ZEFSAII (Michael W. Deem and Ramdas Pophale) SiO2 
 PCOD8307203
Probable space group: P 42 M C
;
_chemical_formula_sum "Si O2"
_cell_formula_units_Z 40
_cell_length_a 14.084298
_cell_length_b 14.084298
_cell_length_c 10.310888
_cell_angle_alpha 90.000000
_cell_angle_beta 90.000000
_cell_angle_gamma 90.000000
_cell_volume 2045.344561
_symmetry_space_group_name_H-M "P 42 M C"
_symmetry_group_IT_number 105
_symmetry_cell_setting 'tetragonal'
loop_
_space_group_symop_operation_xyz
x,y,z
-y,x,1/2+z
-x,-y,z
y,-x,1/2+z
-x,y,z
x,-y,z
-y,-x,1/2+z
y,x,1/2+z
loop_
_atom_site_type_symbol
_atom_site_label
_atom_site_fract_x
_atom_site_fract_y
_atom_site_fract_z
Si Si1 0.203787 0.605330 0.826300
Si Si2 0.704378 0.781107 0.078216
Si Si3 0.392348 0.609534 0.475078
Si Si4 0.108959 0.606024 0.355999
Si Si5 0.891219 0.316049 0.073158
O O1 0.187149 0.500000 0.774148
O O2 0.167531 0.675221 0.711963
O O3 0.315975 0.621988 0.856657
O O4 0.137523 0.618610 0.951955
O O5 0.818554 0.772452 0.075414
O O6 0.646305 0.680869 0.084343
O O7 0.678554 0.834888 0.946365
O O8 0.500000 0.617264 0.529298
O O9 0.371190 0.500000 0.432739
O O10 0.145669 0.500000 0.384874
O O11 0.124382 0.625486 0.204540
O O12 0.000000 0.616883 0.393859
O O13 0.000000 0.280530 0.060113
#
# Coordination Sequence:
#
# PCOD8307203 Si02
#       5
#     8   8   8   8   8
#     4  10  20  32  51  81 112 143 181 226 273 318
#     4  11  21  35  55  81 110 140 180 231 279 319
#     4   9  18  31  47  72 110 152 184 209 250 318
#     4  10  21  38  60  83 109 145 185 224 271 329
#     4  10  21  37  56  78 109 150 189 222 266 327
#
# _framework density 19.556607
#
# number of rings (size 3 to 8) (size 9 to 14) (size 15 to 20)
#    0.000    2.000    0.000    4.800    0.000    3.600 
#    0.000    2.000    0.000    0.600    0.000    2.800 
#    0.000    0.000    0.000    0.000    0.000    0.000 
#
# Total GULP energy -495721.211799 kJ/mol
# GULP energy per Si atom -12393.030295 kJ/mol
# Density = 1.951209 g / cm^3
# Si number density = 19.556607 Si / 1000 Ang^3
#
#
#
# Elastic Constant Matrix: (Units=GPa)
#
#
# Indices 1 2 3 4 5 6 
#
# 1 110.9600 44.3987 45.8453 0.0000 0.0000 0.0000
# 2 44.3987 110.9600 45.8453 0.0000 0.0000 0.0000
# 3 45.8453 45.8453 108.4726 0.0000 0.0000 0.0000
# 4 0.0000 0.0000 0.0000 19.4878 0.0000 0.0000
# 5 0.0000 0.0000 0.0000 0.0000 19.4878 0.0000
# 6 0.0000 0.0000 0.0000 0.0000 0.0000 16.8734
#
#
#
# Elastic Compliance Matrix: (Units=1/GPa)
#
#
# Indices 1 2 3 4 5 6 
#
# 1 0.011800 -0.003224 -0.003625 0.000000 0.000000 0.000000
# 2 -0.003224 0.011800 -0.003625 0.000000 0.000000 0.000000
# 3 -0.003625 -0.003625 0.012283 0.000000 0.000000 0.000000
# 4 0.000000 0.000000 0.000000 0.051314 0.000000 0.000000
# 5 0.000000 0.000000 0.000000 0.000000 0.051314 0.000000
# 6 0.000000 0.000000 0.000000 0.000000 0.000000 0.059265
#
#
# Mechanical properties :
#
#
# Convention : Reuss Voigt Hill
#
# Bulk Modulus (GPa) = 66.95107 66.95235 66.95171
# Shear Modulus (GPa) = 22.35132 24.12334 23.23733
#
# Velocity S-wave (km/s) = 3.38435 3.51595 3.45078
# Velocity P-wave (km/s) = 7.04135 7.12685 7.08423
#
# Compressibility (1/GPa) = 0.01493628
#
# Stress axis : x y z
#
# Youngs Moduli (GPa) = 84.74716 84.74716 81.41532
#
# Poissons Ratio (x) = 0.27322 0.29509
# Poissons Ratio (y) = 0.27322 0.29509
# Poissons Ratio (z) = 0.30717 0.30717
#
# Static dielectric constant tensor:
#      x y z
#    x 3.552500 0.000000 0.000000 
#    y 0.000000 3.552500 0.000000 
#    z 0.000000 0.000000 3.431740 
# 
# 
# High freq. dielectric constant tensor:
#      x y z
#    x 1.744020 0.000000 0.000000 
#    y 0.000000 1.744020 0.000000 
#    z 0.000000 0.000000 1.766550 
# 
# From -- ./inp_files/878.got.cif
#   From: 2010.03.12/outbox.cif.g09.slc.cpg/sg105_1_cif.got.tgz:878.got - 2010.04.14 01:45:32.
