data_PCOD8307778
_publ_section_title
;
Structure prediction by ZEFSAII (Michael W. Deem and Ramdas Pophale) SiO2 
 PCOD8307778
Probable space group: I 4 C M
;
_chemical_formula_sum "Si O2"
_cell_formula_units_Z 96
_cell_length_a 14.767062
_cell_length_b 14.767062
_cell_length_c 23.961686
_cell_angle_alpha 90.000000
_cell_angle_beta 90.000000
_cell_angle_gamma 90.000000
_cell_volume 5225.231897
_symmetry_space_group_name_H-M "I 4 C M"
_symmetry_group_IT_number 108
_symmetry_cell_setting 'tetragonal'
loop_
_space_group_symop_operation_xyz
x,y,z
-y,x,z
-x,-y,z
y,-x,z
-x,y,1/2+z
x,-y,1/2+z
-y,-x,1/2+z
y,x,1/2+z
1/2+x,1/2+y,1/2+z
1/2-y,1/2+x,1/2+z
1/2-x,1/2-y,1/2+z
1/2+y,1/2-x,1/2+z
1/2-x,1/2+y,z
1/2+x,1/2-y,z
1/2-y,1/2-x,z
1/2+y,1/2+x,z
loop_
_atom_site_type_symbol
_atom_site_label
_atom_site_fract_x
_atom_site_fract_y
_atom_site_fract_z
Si Si1 0.728009 0.449630 0.122160
Si Si2 0.929461 0.429461 0.971093
Si Si3 0.862227 0.054730 0.734329
Si Si4 0.950030 0.859049 0.858171
Si Si5 0.069690 0.430311 0.602392
Si Si6 0.434621 0.783629 0.953203
Si Si7 0.864670 0.785815 0.069076
O O1 0.702984 0.415969 0.184173
O O2 0.833973 0.459010 0.123546
O O3 0.695975 0.376658 0.075216
O O4 0.693946 0.551258 0.110172
O O5 0.827374 0.462804 0.954401
O O6 0.000000 0.500000 0.943837
O O7 0.935543 0.435543 0.036682
O O8 0.819450 0.068060 0.795943
O O9 0.950111 0.115257 0.727912
O O10 0.923572 0.781600 0.901011
O O11 0.054050 0.886631 0.867380
O O12 0.000000 0.500000 0.629899
O O13 0.364792 0.864792 0.946893
O O14 0.409379 0.725724 0.008128
O O15 0.802513 0.697488 0.083661
#
# Coordination Sequence:
#
# PCOD8307778 Si02
#       7
#    16   8  16  16   8  16  16
#     4  12  21  37  62  85 119 152 196 243 294 355
#     4   9  18  36  60  79 108 162 189 217 282 350
#     4   9  18  36  60  83 111 149 190 235 296 353
#     4   9  20  39  60  81 110 149 192 241 291 342
#     4  11  22  38  58  83 116 167 195 225 294 363
#     4  10  21  38  59  84 120 152 194 240 288 352
#     4  11  24  37  55  92 121 151 196 245 293 356
#
# _framework density 18.372389999999999
#
# number of rings (size 3 to 8) (size 9 to 14) (size 15 to 20)
#    0.000    1.833    4.167    1.500    2.333    0.333 
#    3.000    0.000    3.667    0.000    0.000    0.000 
#    0.000    0.000    0.000    0.000    0.000    0.000 
#
# Total GULP energy -594780.225357 kJ/mol
# GULP energy per Si atom -12391.254695 kJ/mol
# Density = 1.833057 g / cm^3
# Si number density = 18.372390 Si / 1000 Ang^3
#
#
#
# Elastic Constant Matrix: (Units=GPa)
#
#
# Indices 1 2 3 4 5 6 
#
# 1 83.0668 21.2198 33.8965 0.0000 0.0000 0.0001
# 2 21.2198 83.0668 33.8965 0.0000 0.0000 -0.0001
# 3 33.8965 33.8965 106.0613 0.0000 0.0000 0.0000
# 4 0.0000 0.0000 0.0000 27.7250 0.0000 0.0000
# 5 0.0000 0.0000 0.0000 0.0000 27.7250 0.0000
# 6 0.0001 -0.0001 0.0000 0.0000 0.0000 21.1997
#
#
#
# Elastic Compliance Matrix: (Units=1/GPa)
#
#
# Indices 1 2 3 4 5 6 
#
# 1 0.014136 -0.002033 -0.003868 0.000000 0.000000 0.000000
# 2 -0.002033 0.014136 -0.003868 0.000000 0.000000 0.000000
# 3 -0.003868 -0.003868 0.011901 0.000000 0.000000 0.000000
# 4 0.000000 0.000000 0.000000 0.036069 0.000000 0.000000
# 5 0.000000 0.000000 0.000000 0.000000 0.036069 0.000000
# 6 0.000000 0.000000 0.000000 0.000000 0.000000 0.047171
#
#
# Mechanical properties :
#
#
# Convention : Reuss Voigt Hill
#
# Bulk Modulus (GPa) = 48.46077 50.02453 49.24265
# Shear Modulus (GPa) = 26.89649 27.54206 27.21927
#
# Velocity S-wave (km/s) = 3.83033 3.87602 3.85324
# Velocity P-wave (km/s) = 6.78204 6.87885 6.83062
#
# Compressibility (1/GPa) = 0.02063525
#
# Stress axis : x y z
#
# Youngs Moduli (GPa) = 70.74015 70.74015 84.02636
#
# Poissons Ratio (x) = 0.14379 0.32503
# Poissons Ratio (y) = 0.14379 0.32503
# Poissons Ratio (z) = 0.27364 0.27364
#
# Static dielectric constant tensor:
#      x y z
#    x 3.479230 0.000000 0.000000 
#    y 0.000000 3.479230 0.000000 
#    z 0.000000 0.000000 3.378420 
# 
# 
# High freq. dielectric constant tensor:
#      x y z
#    x 1.709430 0.000000 0.000000 
#    y 0.000000 1.709430 0.000000 
#    z 0.000000 0.000000 1.702230 
# 
# From -- ./inp_files/2926.got.cif
#   From: 2010.03.12/outbox.cif.g09.slc.cpg/sg108_2_cif.got.tgz:2926.got - 2010.04.14 01:53:11.
