data_PCOD8307521
_publ_section_title
;
Structure prediction by ZEFSAII (Michael W. Deem and Ramdas Pophale) SiO2 
 PCOD8307521
Probable space group: I 4 M M
;
_chemical_formula_sum "Si O2"
_cell_formula_units_Z 96
_cell_length_a 14.125955
_cell_length_b 14.125955
_cell_length_c 31.028278
_cell_angle_alpha 90.000000
_cell_angle_beta 90.000000
_cell_angle_gamma 90.000000
_cell_volume 6191.463410
_symmetry_space_group_name_H-M "I 4 M M"
_symmetry_group_IT_number 107
_symmetry_cell_setting 'tetragonal'
loop_
_space_group_symop_operation_xyz
x,y,z
-y,x,z
-x,-y,z
y,-x,z
-x,y,z
x,-y,z
-y,-x,z
y,x,z
1/2+x,1/2+y,1/2+z
1/2-y,1/2+x,1/2+z
1/2-x,1/2-y,1/2+z
1/2+y,1/2-x,1/2+z
1/2-x,1/2+y,1/2+z
1/2+x,1/2-y,1/2+z
1/2-y,1/2-x,1/2+z
1/2+y,1/2+x,1/2+z
loop_
_atom_site_type_symbol
_atom_site_label
_atom_site_fract_x
_atom_site_fract_y
_atom_site_fract_z
Si Si1 0.263777 0.112380 0.718410
Si Si2 0.387620 0.236223 0.468456
Si Si3 0.112295 0.605122 0.045921
Si Si4 0.605122 0.112295 0.640944
Si Si5 0.894474 0.612294 0.391324
Si Si6 0.887706 0.605526 0.795541
O O1 0.161364 0.161364 0.717956
O O2 0.322236 0.148334 0.676921
O O3 0.320243 0.149260 0.760400
O O4 0.247616 0.000000 0.718473
O O5 0.500000 0.252384 0.468393
O O6 0.338637 0.338637 0.468910
O O7 0.351667 0.177764 0.509945
O O8 0.350740 0.179757 0.426466
O O9 0.154652 0.500000 0.037013
O O10 0.142426 0.642424 0.093433
O O11 0.000000 0.597743 0.044021
O O12 0.500000 0.154653 0.649851
O O13 0.597741 0.000000 0.642845
O O14 0.897887 0.500000 0.393566
O O15 0.862711 0.645378 0.343433
O O16 0.000000 0.651407 0.401616
O O17 0.848593 0.500000 0.785250
O O18 0.000000 0.602113 0.793300
#
# Coordination Sequence:
#
# PCOD8307521 Si02
#       6
#    16  16  16  16  16  16
#     4  10  19  28  39  57  83 115 144 165 189 229
#     4  10  19  28  39  57  83 115 144 165 189 229
#     4   8  14  26  44  63  80  98 126 171 223 261
#     4   8  14  26  44  63  80  98 126 171 223 261
#     4   8  14  26  44  62  77  95 124 167 214 245
#     4   8  14  26  44  62  77  95 124 167 214 245
#
# _framework density 15.505219
#
# number of rings (size 3 to 8) (size 9 to 14) (size 15 to 20)
#    0.000    3.333    0.000    3.000    0.000    5.667 
#    0.000    0.000    0.000    0.000    0.000    4.667 
#    0.000   10.667    0.000   14.667    0.000    1.333 
#
# Total GULP energy -594797.525381 kJ/mol
# GULP energy per Si atom -12391.615112 kJ/mol
# Density = 1.546993 g / cm^3
# Si number density = 15.505219 Si / 1000 Ang^3
#
#
#
# Elastic Constant Matrix: (Units=GPa)
#
#
# Indices 1 2 3 4 5 6 
#
# 1 53.5536 33.4797 44.9923 0.0000 0.0000 0.0000
# 2 33.4797 53.5536 44.9923 0.0000 0.0000 0.0000
# 3 44.9923 44.9923 133.3848 0.0000 0.0000 0.0000
# 4 0.0000 0.0000 0.0000 10.4834 0.0000 0.0000
# 5 0.0000 0.0000 0.0000 0.0000 10.4834 0.0000
# 6 0.0000 0.0000 0.0000 0.0000 0.0000 13.6930
#
#
#
# Elastic Compliance Matrix: (Units=1/GPa)
#
#
# Indices 1 2 3 4 5 6 
#
# 1 0.033729 -0.016087 -0.005951 0.000000 0.000000 0.000000
# 2 -0.016087 0.033729 -0.005951 0.000000 0.000000 0.000000
# 3 -0.005951 -0.005951 0.011512 0.000000 0.000000 0.000000
# 4 0.000000 0.000000 0.000000 0.095389 0.000000 0.000000
# 5 0.000000 0.000000 0.000000 0.000000 0.095389 0.000000
# 6 0.000000 0.000000 0.000000 0.000000 0.000000 0.073030
#
#
# Mechanical properties :
#
#
# Convention : Reuss Voigt Hill
#
# Bulk Modulus (GPa) = 43.49158 54.15782 48.82470
# Shear Modulus (GPa) = 12.30252 14.73380 13.51816
#
# Velocity S-wave (km/s) = 2.81987 3.08595 2.95591
# Velocity P-wave (km/s) = 6.22196 6.90667 6.57323
#
# Compressibility (1/GPa) = 0.02299296
#
# Stress axis : x y z
#
# Youngs Moduli (GPa) = 29.64779 29.64779 86.86688
#
# Poissons Ratio (x) = 0.47693 0.51695
# Poissons Ratio (y) = 0.47693 0.51695
# Poissons Ratio (z) = 0.17644 0.17644
#
# Static dielectric constant tensor:
#      x y z
#    x 2.645500 0.000000 0.000000 
#    y 0.000000 2.645500 0.000000 
#    z 0.000000 0.000000 3.521920 
# 
# 
# High freq. dielectric constant tensor:
#      x y z
#    x 1.553540 0.000000 0.000000 
#    y 0.000000 1.553540 0.000000 
#    z 0.000000 0.000000 1.618240 
# 
# From -- ./inp_files/6094.got.cif
#   From: 2010.03.12/outbox.cif.g09.slc.cpg/sg107_4_cif.got.tgz:6094.got - 2010.04.14 01:49:11.
