data_PCOD8307068
_publ_section_title
;
Structure prediction by ZEFSAII (Michael W. Deem and Ramdas Pophale) SiO2 
 PCOD8307068
Probable space group: P 4 N C 
;
_chemical_formula_sum "Si O2"
_cell_formula_units_Z 40
_cell_length_a 13.165326
_cell_length_b 13.165326
_cell_length_c 9.319226
_cell_angle_alpha 90.000000
_cell_angle_beta 90.000000
_cell_angle_gamma 90.000000
_cell_volume 1615.262383
_symmetry_space_group_name_H-M "P 4 N C "
_symmetry_group_IT_number 104
_symmetry_cell_setting 'tetragonal'
loop_
_space_group_symop_operation_xyz
x,y,z
-y,x,z
-x,-y,z
y,-x,z
1/2-x,1/2+y,1/2+z
1/2+x,1/2-y,1/2+z
1/2-y,1/2-x,1/2+z
1/2+y,1/2+x,1/2+z
loop_
_atom_site_type_symbol
_atom_site_label
_atom_site_fract_x
_atom_site_fract_y
_atom_site_fract_z
Si Si1 0.339515 0.756699 0.825780
Si Si2 0.995704 0.364791 0.998710
Si Si3 0.840922 0.046448 0.082270
Si Si4 0.432234 0.813217 0.112919
Si Si5 0.131328 0.660147 0.736064
O O1 0.424941 0.689080 0.746661
O O2 0.338247 0.870128 0.758493
O O3 0.224000 0.721007 0.802786
O O4 0.369606 0.748161 0.995043
O O5 0.925950 0.327855 0.131438
O O6 0.063952 0.259016 0.981327
O O7 0.076076 0.454297 0.037487
O O8 0.929212 0.395359 0.863275
O O9 0.931944 0.123542 0.048513
O O10 0.544696 0.770262 0.153082
#
# Coordination Sequence:
#
# PCOD8307068 Si02
#       5
#     8   8   8   8   8
#     4  11  24  44  69 107 140 192 251 304 378 458
#     4  11  25  42  69 105 138 188 240 305 383 453
#     4  10  22  43  69 100 141 188 241 298 367 457
#     4  11  25  44  68 101 149 185 245 310 375 456
#     4  12  25  43  71 104 143 189 241 314 376 444
#
# _framework density 24.763780000000001
#
# number of rings (size 3 to 8) (size 9 to 14) (size 15 to 20)
#    0.000    1.000    4.000    1.800    8.400    3.200 
#    0.000    0.000    0.000    0.600    0.000    0.000 
#    0.000    0.000    0.000    0.000    0.000    0.000 
#
# Total GULP energy -495523.940158 kJ/mol
# GULP energy per Si atom -12388.098504 kJ/mol
# Density = 2.470742 g / cm^3
# Si number density = 24.763780 Si / 1000 Ang^3
#
#
#
# Elastic Constant Matrix: (Units=GPa)
#
#
# Indices 1 2 3 4 5 6 
#
# 1 98.8291 11.5369 26.0033 0.0000 0.0000 0.0000
# 2 11.5369 98.8291 26.0033 0.0000 0.0000 0.0000
# 3 26.0033 26.0033 112.7682 0.0000 0.0000 0.0000
# 4 0.0000 0.0000 0.0000 37.3817 0.0000 0.0000
# 5 0.0000 0.0000 0.0000 0.0000 37.3817 0.0000
# 6 0.0000 0.0000 0.0000 0.0000 0.0000 30.7303
#
#
#
# Elastic Compliance Matrix: (Units=1/GPa)
#
#
# Indices 1 2 3 4 5 6 
#
# 1 0.010811 -0.000645 -0.002344 0.000000 0.000000 0.000000
# 2 -0.000645 0.010811 -0.002344 0.000000 0.000000 0.000000
# 3 -0.002344 -0.002344 0.009949 0.000000 0.000000 0.000000
# 4 0.000000 0.000000 0.000000 0.026751 0.000000 0.000000
# 5 0.000000 0.000000 0.000000 0.000000 0.026751 0.000000
# 6 0.000000 0.000000 0.000000 0.000000 0.000000 0.032541
#
#
# Mechanical properties :
#
#
# Convention : Reuss Voigt Hill
#
# Bulk Modulus (GPa) = 47.83938 48.61261 48.22600
# Shear Modulus (GPa) = 36.96924 37.55758 37.26341
#
# Velocity S-wave (km/s) = 3.86797 3.89862 3.88332
# Velocity P-wave (km/s) = 6.26964 6.31972 6.29473
#
# Compressibility (1/GPa) = 0.02090328
#
# Stress axis : x y z
#
# Youngs Moduli (GPa) = 92.50224 92.50224 100.51492
#
# Poissons Ratio (x) = 0.05969 0.23561
# Poissons Ratio (y) = 0.05969 0.23561
# Poissons Ratio (z) = 0.21683 0.21683
#
# Static dielectric constant tensor:
#      x y z
#    x 4.436210 0.000000 0.000000 
#    y 0.000000 4.436210 0.000000 
#    z 0.000000 0.000000 4.464830 
# 
# 
# High freq. dielectric constant tensor:
#      x y z
#    x 1.985450 0.000000 0.000000 
#    y 0.000000 1.985450 0.000000 
#    z 0.000000 0.000000 1.987040 
# 
# From -- ./inp_files/457.got.cif
#   From: 2010.03.12/outbox.cif.g09.slc.cpg/sg104_cif.got.tgz:457.got - 2010.04.14 01:44:05.
