data_PCOD8307804
_publ_section_title
;
Structure prediction by ZEFSAII (Michael W. Deem and Ramdas Pophale) SiO2 
 PCOD8307804
Probable space group: I 4 C M
;
_chemical_formula_sum "Si O2"
_cell_formula_units_Z 112
_cell_length_a 13.583438
_cell_length_b 13.583438
_cell_length_c 32.458736
_cell_angle_alpha 90.000000
_cell_angle_beta 90.000000
_cell_angle_gamma 90.000000
_cell_volume 5988.954495
_symmetry_space_group_name_H-M "I 4 C M"
_symmetry_group_IT_number 108
_symmetry_cell_setting 'tetragonal'
loop_
_space_group_symop_operation_xyz
x,y,z
-y,x,z
-x,-y,z
y,-x,z
-x,y,1/2+z
x,-y,1/2+z
-y,-x,1/2+z
y,x,1/2+z
1/2+x,1/2+y,1/2+z
1/2-y,1/2+x,1/2+z
1/2-x,1/2-y,1/2+z
1/2+y,1/2-x,1/2+z
1/2-x,1/2+y,z
1/2+x,1/2-y,z
1/2-y,1/2-x,z
1/2+y,1/2+x,z
loop_
_atom_site_type_symbol
_atom_site_label
_atom_site_fract_x
_atom_site_fract_y
_atom_site_fract_z
Si Si1 0.909009 0.753100 0.486480
Si Si2 0.606441 0.622548 0.607782
Si Si3 0.339128 0.469218 0.402894
Si Si4 0.893557 0.877453 0.698008
Si Si5 0.264325 0.389908 0.777682
Si Si6 0.264324 0.610091 0.528108
Si Si7 0.246903 0.090990 0.819309
O O1 0.849391 0.650610 0.488798
O O2 0.957601 0.767473 0.441945
O O3 0.837883 0.845909 0.493940
O O4 0.993567 0.753531 0.521536
O O5 0.490093 0.635543 0.602540
O O6 0.650437 0.650438 0.652895
O O7 0.647180 0.693115 0.572228
O O8 0.422969 0.386170 0.402894
O O9 0.267470 0.457600 0.363845
O O10 0.852818 0.806888 0.733562
O O11 0.009905 0.864457 0.703250
O O12 0.156271 0.343729 0.782494
O O13 0.253533 0.506432 0.784254
O O14 0.337882 0.345906 0.811851
O O15 0.156270 0.656270 0.523295
O O16 0.349395 0.150606 0.816991
#
# Coordination Sequence:
#
# PCOD8307804 Si02
#       7
#    16  16  16  16  16  16  16
#     4  11  23  39  58  84 119 152 191 244 294 348
#     4   9  17  31  55  85 115 146 186 238 294 338
#     4  11  21  36  62  89 112 148 196 249 300 344
#     4   9  17  31  55  85 115 146 186 238 294 338
#     4  11  22  36  59  85 112 154 197 234 288 354
#     4  11  22  36  59  85 112 154 197 234 288 354
#     4  11  23  39  58  84 119 152 191 244 294 348
#
# _framework density 18.701093
#
# number of rings (size 3 to 8) (size 9 to 14) (size 15 to 20)
#    0.000    1.571    5.714    1.286    0.000    1.714 
#    0.000    0.714    0.000    1.714    0.000    0.000 
#    0.000    0.000    0.000    0.000    0.000    0.000 
#
# Total GULP energy -694080.075375 kJ/mol
# GULP energy per Si atom -12394.287060 kJ/mol
# Density = 1.865853 g / cm^3
# Si number density = 18.701093 Si / 1000 Ang^3
#
#
#
# Elastic Constant Matrix: (Units=GPa)
#
#
# Indices 1 2 3 4 5 6 
#
# 1 74.4462 37.9903 21.8054 0.0000 0.0000 0.0004
# 2 37.9903 74.4462 21.8054 0.0000 0.0000 -0.0004
# 3 21.8054 21.8054 111.3860 0.0000 0.0000 0.0000
# 4 0.0000 0.0000 0.0000 18.5669 0.0000 0.0000
# 5 0.0000 0.0000 0.0000 0.0000 18.5669 0.0000
# 6 0.0004 -0.0004 0.0000 0.0000 0.0000 26.1739
#
#
#
# Elastic Compliance Matrix: (Units=1/GPa)
#
#
# Indices 1 2 3 4 5 6 
#
# 1 0.018528 -0.008903 -0.001884 0.000000 0.000000 0.000000
# 2 -0.008903 0.018528 -0.001884 0.000000 0.000000 0.000000
# 3 -0.001884 -0.001884 0.009716 0.000000 0.000000 0.000000
# 4 0.000000 0.000000 0.000000 0.053859 0.000000 0.000000
# 5 0.000000 0.000000 0.000000 0.000000 0.053859 0.000000
# 6 0.000000 0.000000 0.000000 0.000000 0.000000 0.038206
#
#
# Mechanical properties :
#
#
# Convention : Reuss Voigt Hill
#
# Bulk Modulus (GPa) = 46.66740 47.05341 46.86041
# Shear Modulus (GPa) = 22.20443 24.57336 23.38889
#
# Velocity S-wave (km/s) = 3.44951 3.62886 3.54032
# Velocity P-wave (km/s) = 6.39328 6.54015 6.46713
#
# Compressibility (1/GPa) = 0.02142824
#
# Stress axis : x y z
#
# Youngs Moduli (GPa) = 53.97357 53.97357 102.92826
#
# Poissons Ratio (x) = 0.48052 0.19394
# Poissons Ratio (y) = 0.48052 0.19394
# Poissons Ratio (z) = 0.10170 0.10170
#
# Static dielectric constant tensor:
#      x y z
#    x 3.164810 0.000000 0.000000 
#    y 0.000000 3.164810 0.000000 
#    z 0.000000 0.000000 3.589030 
# 
# 
# High freq. dielectric constant tensor:
#      x y z
#    x 1.706330 0.000000 0.000000 
#    y 0.000000 1.706330 0.000000 
#    z 0.000000 0.000000 1.739850 
# 
# From -- ./inp_files/3539.got.cif
#   From: 2010.03.12/outbox.cif.g09.slc.cpg/sg108_2_cif.got.tgz:3539.got - 2010.04.14 01:53:11.
