data_PCOD8307575
_publ_section_title
;
Structure prediction by ZEFSAII (Michael W. Deem and Ramdas Pophale) SiO2 
 PCOD8307575
Probable space group: I 4 M M
;
_chemical_formula_sum "Si O2"
_cell_formula_units_Z 128
_cell_length_a 23.332305
_cell_length_b 23.332305
_cell_length_c 13.039390
_cell_angle_alpha 90.000000
_cell_angle_beta 90.000000
_cell_angle_gamma 90.000000
_cell_volume 7098.597712
_symmetry_space_group_name_H-M "I 4 M M"
_symmetry_group_IT_number 107
_symmetry_cell_setting 'tetragonal'
loop_
_space_group_symop_operation_xyz
x,y,z
-y,x,z
-x,-y,z
y,-x,z
-x,y,z
x,-y,z
-y,-x,z
y,x,z
1/2+x,1/2+y,1/2+z
1/2-y,1/2+x,1/2+z
1/2-x,1/2-y,1/2+z
1/2+y,1/2-x,1/2+z
1/2-x,1/2+y,1/2+z
1/2+x,1/2-y,1/2+z
1/2-y,1/2-x,1/2+z
1/2+y,1/2+x,1/2+z
loop_
_atom_site_type_symbol
_atom_site_label
_atom_site_fract_x
_atom_site_fract_y
_atom_site_fract_z
Si Si1 0.563221 0.873707 0.862930
Si Si2 0.643396 0.138328 0.692933
Si Si3 0.261179 0.436507 0.888239
Si Si4 0.934697 0.362562 0.010480
Si Si5 0.933840 0.235900 0.995639
Si Si6 0.432784 0.251344 0.118405
Si Si7 0.767335 0.860750 0.200269
Si Si8 0.567032 0.338730 0.299584
O O1 0.500000 0.897932 0.834105
O O2 0.615185 0.894271 0.789421
O O3 0.560214 0.806022 0.868246
O O4 0.583422 0.898813 0.970587
O O5 0.587031 0.147078 0.624515
O O6 0.694413 0.102207 0.645217
O O7 0.663563 0.203072 0.717016
O O8 0.288105 0.500000 0.876369
O O9 0.288280 0.395867 0.801260
O O10 0.272654 0.414085 0.004583
O O11 0.925277 0.301076 0.954131
O O12 0.000000 0.381399 0.010537
O O13 0.897618 0.223232 0.097396
O O14 0.000000 0.225822 0.025192
O O15 0.914775 0.194985 0.902446
O O16 0.500000 0.235394 0.119048
O O17 0.418362 0.300407 0.200288
O O18 0.804791 0.804791 0.189374
O O19 0.500000 0.354727 0.301485
O O20 0.602739 0.397262 0.292809
#
# Coordination Sequence:
#
# PCOD8307575 Si02
#       8
#    16  16  16  16  16  16  16  16
#     4  10  19  32  49  71  98 132 174 219 264 308
#     4  10  20  34  52  71 102 135 172 212 261 309
#     4   9  18  34  55  75  99 136 178 217 258 311
#     4  10  19  32  50  73  99 133 173 215 259 301
#     4   9  18  34  55  77 105 141 179 213 252 312
#     4  10  20  36  57  76  99 139 184 217 254 312
#     4  10  20  33  52  80 110 137 170 216 270 318
#     4  10  21  36  56  81 106 135 171 212 259 313
#
# _framework density 18.03173
#
# number of rings (size 3 to 8) (size 9 to 14) (size 15 to 20)
#    0.000    2.250    1.250    1.875    0.000    5.875 
#    0.000    0.000    0.000    2.250    0.000    0.000 
#    0.000    2.250    0.000    0.500    0.000    0.000 
#
# Total GULP energy -793179.101742 kJ/mol
# GULP energy per Si atom -12393.423465 kJ/mol
# Density = 1.799069 g / cm^3
# Si number density = 18.031730 Si / 1000 Ang^3
#
#
#
# Elastic Constant Matrix: (Units=GPa)
#
#
# Indices 1 2 3 4 5 6 
#
# 1 66.7596 45.1810 37.9012 0.0000 0.0000 0.0000
# 2 45.1810 66.7596 37.9012 0.0000 0.0000 0.0000
# 3 37.9012 37.9012 109.8766 0.0000 0.0000 0.0000
# 4 0.0000 0.0000 0.0000 21.8950 0.0000 0.0000
# 5 0.0000 0.0000 0.0000 0.0000 21.8950 0.0000
# 6 0.0000 0.0000 0.0000 0.0000 0.0000 21.0819
#
#
#
# Elastic Compliance Matrix: (Units=1/GPa)
#
#
# Indices 1 2 3 4 5 6 
#
# 1 0.028999 -0.017343 -0.004021 0.000000 0.000000 0.000000
# 2 -0.017343 0.028999 -0.004021 0.000000 0.000000 0.000000
# 3 -0.004021 -0.004021 0.011875 0.000000 0.000000 0.000000
# 4 0.000000 0.000000 0.000000 0.045673 0.000000 0.000000
# 5 0.000000 0.000000 0.000000 0.000000 0.045673 0.000000
# 6 0.000000 0.000000 0.000000 0.000000 0.000000 0.047434
#
#
# Mechanical properties :
#
#
# Convention : Reuss Voigt Hill
#
# Bulk Modulus (GPa) = 52.34440 53.92917 53.13679
# Shear Modulus (GPa) = 18.81189 21.13520 19.97354
#
# Velocity S-wave (km/s) = 3.23347 3.42733 3.33181
# Velocity P-wave (km/s) = 6.55991 6.75536 6.65836
#
# Compressibility (1/GPa) = 0.01910424
#
# Stress axis : x y z
#
# Youngs Moduli (GPa) = 34.48377 34.48377 84.21116
#
# Poissons Ratio (x) = 0.59806 0.33858
# Poissons Ratio (y) = 0.59806 0.33858
# Poissons Ratio (z) = 0.13865 0.13865
#
# Static dielectric constant tensor:
#      x y z
#    x 3.178900 0.000000 0.000000 
#    y 0.000000 3.178900 0.000000 
#    z 0.000000 0.000000 3.554260 
# 
# 
# High freq. dielectric constant tensor:
#      x y z
#    x 1.681920 0.000000 0.000000 
#    y 0.000000 1.681920 0.000000 
#    z 0.000000 0.000000 1.712290 
# 
# From -- ./inp_files/2646.got.cif
#   From: 2010.03.12/outbox.cif.g09.slc.cpg/sg107_2_cif.got.tgz:2646.got - 2010.04.14 01:49:11.
