data_PCOD8307459
_publ_section_title
;
Structure prediction by ZEFSAII (Michael W. Deem and Ramdas Pophale) SiO2 
 PCOD8307459
Probable space group: P 42 B C
;
_chemical_formula_sum "Si O2"
_cell_formula_units_Z 24
_cell_length_a 9.751152
_cell_length_b 9.751152
_cell_length_c 12.518008
_cell_angle_alpha 90.000000
_cell_angle_beta 90.000000
_cell_angle_gamma 90.000000
_cell_volume 1190.274357
_symmetry_space_group_name_H-M "P 42 B C"
_symmetry_group_IT_number 106
_symmetry_cell_setting 'tetragonal'
loop_
_space_group_symop_operation_xyz
x,y,z
-y,x,1/2+z
-x,-y,z
y,-x,1/2+z
1/2-x,1/2+y,z
1/2+x,1/2-y,z
1/2-y,1/2-x,1/2+z
1/2+y,1/2+x,1/2+z
loop_
_atom_site_type_symbol
_atom_site_label
_atom_site_fract_x
_atom_site_fract_y
_atom_site_fract_z
Si Si1 0.662946 0.993092 0.309980
Si Si2 0.744054 0.244055 0.683430
Si Si3 0.662946 0.993093 0.556880
O O1 0.752688 0.095580 0.237929
O O2 0.689283 0.024605 0.433430
O O3 0.500000 0.000000 0.284222
O O4 0.727152 0.846941 0.280747
O O5 0.752688 0.095581 0.628931
O O6 0.772847 0.346942 0.586113
O O7 0.500000 0.000000 0.582637
#
# Coordination Sequence:
#
# PCOD8307459 Si02
#       3
#     8   8   8
#     4  11  24  43  66  93 131 171 209 259 320 379
#     4  12  20  46  64  96 126 168 212 262 316 372
#     4  11  24  43  66  93 131 171 209 259 320 379
#
# _framework density 20.163418
#
# number of rings (size 3 to 8) (size 9 to 14) (size 15 to 20)
#    0.000    0.667    6.667    2.000    0.000    1.333 
#    0.000    3.333    0.000    0.000    0.000    0.000 
#    0.000    0.000    0.000    0.000    0.000    0.000 
#
# Total GULP energy -297462.097525 kJ/mol
# GULP energy per Si atom -12394.254064 kJ/mol
# Density = 2.011753 g / cm^3
# Si number density = 20.163418 Si / 1000 Ang^3
#
#
#
# Elastic Constant Matrix: (Units=GPa)
#
#
# Indices 1 2 3 4 5 6 
#
# 1 83.6976 48.0384 27.8198 0.0000 0.0000 0.0000
# 2 48.0384 83.6976 27.8198 0.0000 0.0000 0.0000
# 3 27.8198 27.8198 115.9751 0.0000 0.0000 0.0000
# 4 0.0000 0.0000 0.0000 26.5667 0.0000 0.0000
# 5 0.0000 0.0000 0.0000 0.0000 26.5667 0.0000
# 6 0.0000 0.0000 0.0000 0.0000 0.0000 39.5728
#
#
#
# Elastic Compliance Matrix: (Units=1/GPa)
#
#
# Indices 1 2 3 4 5 6 
#
# 1 0.018245 -0.009798 -0.002026 0.000000 0.000000 0.000000
# 2 -0.009798 0.018245 -0.002026 0.000000 0.000000 0.000000
# 3 -0.002026 -0.002026 0.009595 0.000000 0.000000 0.000000
# 4 0.000000 0.000000 0.000000 0.037641 0.000000 0.000000
# 5 0.000000 0.000000 0.000000 0.000000 0.037641 0.000000
# 6 0.000000 0.000000 0.000000 0.000000 0.000000 0.025270
#
#
# Mechanical properties :
#
#
# Convention : Reuss Voigt Hill
#
# Bulk Modulus (GPa) = 54.39714 54.52517 54.46115
# Shear Modulus (GPa) = 27.70607 30.52070 29.11338
#
# Velocity S-wave (km/s) = 3.71087 3.89481 3.80395
# Velocity P-wave (km/s) = 6.73777 6.87942 6.80896
#
# Compressibility (1/GPa) = 0.01838332
#
# Stress axis : x y z
#
# Youngs Moduli (GPa) = 54.80958 54.80958 104.22517
#
# Poissons Ratio (x) = 0.53704 0.21118
# Poissons Ratio (y) = 0.53704 0.21118
# Poissons Ratio (z) = 0.11105 0.11105
#
# Static dielectric constant tensor:
#      x y z
#    x 3.585670 0.000000 0.000000 
#    y 0.000000 3.585670 0.000000 
#    z 0.000000 0.000000 3.857100 
# 
# 
# High freq. dielectric constant tensor:
#      x y z
#    x 1.779500 0.000000 0.000000 
#    y 0.000000 1.779500 0.000000 
#    z 0.000000 0.000000 1.815220 
# 
# From -- ./inp_files/660.got.cif
#   From: 2010.03.12/outbox.cif.g09.slc.cpg/sg106_cif.got.tgz:660.got - 2010.04.14 01:48:02.
