data_PCOD8307989
_publ_section_title
;
Structure prediction by ZEFSAII (Michael W. Deem and Ramdas Pophale) SiO2 
 PCOD8307989
Probable space group: I 41 M D
;
_chemical_formula_sum "Si O2"
_cell_formula_units_Z 96
_cell_length_a 15.648800
_cell_length_b 15.648800
_cell_length_c 21.111055
_cell_angle_alpha 90.000000
_cell_angle_beta 90.000000
_cell_angle_gamma 90.000000
_cell_volume 5169.779467
_symmetry_space_group_name_H-M "I 41 M D"
_symmetry_group_IT_number 109
_symmetry_cell_setting 'tetragonal'
loop_
_space_group_symop_operation_xyz
x,y,z
-y,1/2+x,1/4+z
-x,-y,z
y,1/2-x,1/4+z
-x,y,z
x,-y,z
-y,1/2-x,1/4+z
y,1/2+x,1/4+z
1/2+x,1/2+y,1/2+z
1/2-y,x,3/4+z
1/2-x,1/2-y,1/2+z
1/2+y,-x,3/4+z
1/2-x,1/2+y,1/2+z
1/2+x,1/2-y,1/2+z
1/2-y,-x,3/4+z
1/2+y,x,3/4+z
loop_
_atom_site_type_symbol
_atom_site_label
_atom_site_fract_x
_atom_site_fract_y
_atom_site_fract_z
Si Si1 0.405530 0.400031 0.568750
Si Si2 0.754965 0.695377 0.889954
Si Si3 0.304623 0.245035 0.763098
Si Si4 0.594470 0.900031 0.334302
Si Si5 0.600473 0.903398 0.190219
Si Si6 0.399527 0.403398 0.712833
O O1 0.500000 0.359864 0.555828
O O2 0.412854 0.500000 0.560015
O O3 0.335896 0.367154 0.519039
O O4 0.376317 0.379051 0.640588
O O5 0.773878 0.750000 0.951526
O O6 0.752675 0.752675 0.826526
O O7 0.835896 0.632846 0.884013
O O8 0.664327 0.646590 0.895055
O O9 0.353410 0.335673 0.757997
O O10 0.500000 0.859864 0.347224
O O11 0.623683 0.879051 0.262464
O O12 0.587146 0.000000 0.343038
O O13 0.500000 0.898083 0.178681
O O14 0.632464 0.000000 0.174401
O O15 0.500000 0.398083 0.724371
O O16 0.367536 0.500000 0.728652
#
# Coordination Sequence:
#
# PCOD8307989 Si02
#       6
#    16  16  16  16  16  16
#     4   9  19  38  61  82 108 149 194 236 285 338
#     4  12  23  36  55  85 117 150 188 230 285 340
#     4  12  23  36  55  85 117 150 188 230 285 340
#     4   9  19  38  61  82 108 149 194 236 285 338
#     4   9  19  36  57  83 116 151 188 228 276 340
#     4   9  19  36  57  83 116 151 188 228 276 340
#
# _framework density 18.569458000000001
#
# number of rings (size 3 to 8) (size 9 to 14) (size 15 to 20)
#    0.000    2.000    3.333    3.000    0.000    4.000 
#    0.000    1.667    0.000    0.000    0.000    2.333 
#    0.000    0.000    0.000    0.000    0.000    0.000 
#
# Total GULP energy -595111.506576 kJ/mol
# GULP energy per Si atom -12398.156387 kJ/mol
# Density = 1.852719 g / cm^3
# Si number density = 18.569458 Si / 1000 Ang^3
#
#
#
# Elastic Constant Matrix: (Units=GPa)
#
#
# Indices 1 2 3 4 5 6 
#
# 1 74.6479 36.8459 45.5345 0.0000 0.0000 0.0000
# 2 36.8459 74.6479 45.5345 0.0000 0.0000 0.0000
# 3 45.5345 45.5345 106.1490 0.0000 0.0000 0.0000
# 4 0.0000 0.0000 0.0000 21.3657 0.0000 0.0000
# 5 0.0000 0.0000 0.0000 0.0000 21.3657 0.0000
# 6 0.0000 0.0000 0.0000 0.0000 0.0000 30.2549
#
#
#
# Elastic Compliance Matrix: (Units=1/GPa)
#
#
# Indices 1 2 3 4 5 6 
#
# 1 0.020130 -0.006323 -0.005923 0.000000 0.000000 0.000000
# 2 -0.006323 0.020130 -0.005923 0.000000 0.000000 0.000000
# 3 -0.005923 -0.005923 0.014502 0.000000 0.000000 0.000000
# 4 0.000000 0.000000 0.000000 0.046804 0.000000 0.000000
# 5 0.000000 0.000000 0.000000 0.000000 0.046804 0.000000
# 6 0.000000 0.000000 0.000000 0.000000 0.000000 0.033052
#
#
# Mechanical properties :
#
#
# Convention : Reuss Voigt Hill
#
# Bulk Modulus (GPa) = 54.27443 56.80832 55.54137
# Shear Modulus (GPa) = 22.33118 23.09925 22.71521
#
# Velocity S-wave (km/s) = 3.47158 3.53078 3.50130
# Velocity P-wave (km/s) = 6.73501 6.87609 6.80592
#
# Compressibility (1/GPa) = 0.01842488
#
# Stress axis : x y z
#
# Youngs Moduli (GPa) = 49.67656 49.67657 68.95597
#
# Poissons Ratio (x) = 0.31413 0.40840
# Poissons Ratio (y) = 0.31413 0.40840
# Poissons Ratio (z) = 0.29422 0.29422
#
# Static dielectric constant tensor:
#      x y z
#    x 3.447680 0.000000 0.000000 
#    y 0.000000 3.447680 0.000000 
#    z 0.000000 0.000000 3.425990 
# 
# 
# High freq. dielectric constant tensor:
#      x y z
#    x 1.716230 0.000000 0.000000 
#    y 0.000000 1.716230 0.000000 
#    z 0.000000 0.000000 1.710230 
# 
# From -- ./inp_files/3793.got.cif
#   From: 2010.03.12/outbox.cif.g09.slc.cpg/sg109_2_cif.got.tgz:3793.got - 2010.04.14 01:55:16.
