data_PCOD8307089
_publ_section_title
;
Structure prediction by ZEFSAII (Michael W. Deem and Ramdas Pophale) SiO2 
 PCOD8307089
Probable space group: P 4 N C 
;
_chemical_formula_sum "Si O2"
_cell_formula_units_Z 44
_cell_length_a 7.979532
_cell_length_b 7.979532
_cell_length_c 28.980169
_cell_angle_alpha 90.000000
_cell_angle_beta 90.000000
_cell_angle_gamma 90.000000
_cell_volume 1845.252299
_symmetry_space_group_name_H-M "P 4 N C "
_symmetry_group_IT_number 104
_symmetry_cell_setting 'tetragonal'
loop_
_space_group_symop_operation_xyz
x,y,z
-y,x,z
-x,-y,z
y,-x,z
1/2-x,1/2+y,1/2+z
1/2+x,1/2-y,1/2+z
1/2-y,1/2-x,1/2+z
1/2+y,1/2+x,1/2+z
loop_
_atom_site_type_symbol
_atom_site_label
_atom_site_fract_x
_atom_site_fract_y
_atom_site_fract_z
Si Si1 0.764966 0.587784 0.915350
Si Si2 0.769019 0.542875 0.748772
Si Si3 0.267932 0.924472 0.003791
Si Si4 0.230981 0.457124 0.081927
Si Si5 0.924472 0.732068 0.826909
Si Si6 0.000000 0.500000 0.165350
O O1 0.604486 0.708815 0.915350
O O2 0.881946 0.621203 0.959290
O O3 0.881946 0.621202 0.871410
O O4 0.634592 0.687645 0.758656
O O5 0.914486 0.606392 0.783040
O O6 0.835814 0.519345 0.696864
O O7 0.113411 0.796171 0.004156
O O8 0.393608 0.914486 0.047660
O O9 0.365408 0.312355 0.072044
O O10 0.164186 0.480654 0.133836
O O11 0.113411 0.796171 0.826544
#
# Coordination Sequence:
#
# PCOD8307089 Si02
#       6
#     8   8   8   8   8   4
#     4  11  24  41  64  98 140 187 238 288 340 400
#     4  11  24  42  66  96 130 172 223 279 344 415
#     4  11  24  42  66  99 139 184 234 287 344 408
#     4  11  24  42  66  96 130 172 223 279 344 415
#     4  11  24  42  66  99 139 184 234 287 344 408
#     4  12  24  44  68  94 128 168 216 280 348 414
#
# _framework density 23.844975999999999
#
# number of rings (size 3 to 8) (size 9 to 14) (size 15 to 20)
#    0.000    0.909    0.000    6.545    0.000   10.182 
#    0.000    3.636    0.000    0.000    0.000    0.000 
#    0.000    0.000    0.000    0.000    0.000    0.000 
#
# Total GULP energy -545324.882998 kJ/mol
# GULP energy per Si atom -12393.747341 kJ/mol
# Density = 2.379070 g / cm^3
# Si number density = 23.844976 Si / 1000 Ang^3
#
#
#
# Elastic Constant Matrix: (Units=GPa)
#
#
# Indices 1 2 3 4 5 6 
#
# 1 105.9564 28.2072 33.3263 0.0000 0.0000 0.0000
# 2 28.2072 105.9564 33.3263 0.0000 0.0000 0.0000
# 3 33.3263 33.3263 160.4504 0.0000 0.0000 0.0000
# 4 0.0000 0.0000 0.0000 -24.4084 0.0000 0.0000
# 5 0.0000 0.0000 0.0000 0.0000 -24.4084 0.0000
# 6 0.0000 0.0000 0.0000 0.0000 0.0000 42.1943
#
#
#
# Elastic Compliance Matrix: (Units=1/GPa)
#
#
# Indices 1 2 3 4 5 6 
#
# 1 0.010587 -0.002275 -0.001726 0.000000 0.000000 0.000000
# 2 -0.002275 0.010587 -0.001726 0.000000 0.000000 0.000000
# 3 -0.001726 -0.001726 0.006950 0.000000 0.000000 0.000000
# 4 0.000000 0.000000 0.000000 -0.040970 0.000000 0.000000
# 5 0.000000 0.000000 0.000000 0.000000 -0.040970 0.000000
# 6 0.000000 0.000000 0.000000 0.000000 0.000000 0.023700
#
#
# Mechanical properties :
#
#
# Convention : Reuss Voigt Hill
#
# Bulk Modulus (GPa) = 59.99930 62.45366 61.22648
# Shear Modulus (GPa) = -381.52721 17.17574 -182.17573
#
# Velocity S-wave (km/s) = -12.66296 2.68677 -8.75019
# Velocity P-wave (km/s) = 13.73258 5.98944 8.73815
#
# Compressibility (1/GPa) = 0.01666686
#
# Stress axis : x y z
#
# Youngs Moduli (GPa) = 94.45965 94.45965 143.89384
#
# Poissons Ratio (x) = 0.21493 0.24840
# Poissons Ratio (y) = 0.21493 0.24840
# Poissons Ratio (z) = 0.16306 0.16306
#
# Static dielectric constant tensor:
#      x y z
#    x 4.466300 0.000000 0.000000 
#    y 0.000000 4.466300 0.000000 
#    z 0.000000 0.000000 4.172310 
# 
# 
# High freq. dielectric constant tensor:
#      x y z
#    x 1.972390 0.000000 0.000000 
#    y 0.000000 1.972390 0.000000 
#    z 0.000000 0.000000 1.941330 
# 
# From -- ./inp_files/1917.got.cif
#   From: 2010.03.12/outbox.cif.g09.slc.cpg/sg104_cif.got.tgz:1917.got - 2010.04.14 01:44:05.
