data_PCOD8307906
_publ_section_title
;
Structure prediction by ZEFSAII (Michael W. Deem and Ramdas Pophale) SiO2 
 PCOD8307906
Probable space group: I 41 M D
;
_chemical_formula_sum "Si O2"
_cell_formula_units_Z 128
_cell_length_a 18.143813
_cell_length_b 18.143813
_cell_length_c 21.650400
_cell_angle_alpha 90.000000
_cell_angle_beta 90.000000
_cell_angle_gamma 90.000000
_cell_volume 7127.267301
_symmetry_space_group_name_H-M "I 41 M D"
_symmetry_group_IT_number 109
_symmetry_cell_setting 'tetragonal'
loop_
_space_group_symop_operation_xyz
x,y,z
-y,1/2+x,1/4+z
-x,-y,z
y,1/2-x,1/4+z
-x,y,z
x,-y,z
-y,1/2-x,1/4+z
y,1/2+x,1/4+z
1/2+x,1/2+y,1/2+z
1/2-y,x,3/4+z
1/2-x,1/2-y,1/2+z
1/2+y,-x,3/4+z
1/2-x,1/2+y,1/2+z
1/2+x,1/2-y,1/2+z
1/2-y,-x,3/4+z
1/2+y,x,3/4+z
loop_
_atom_site_type_symbol
_atom_site_label
_atom_site_fract_x
_atom_site_fract_y
_atom_site_fract_z
Si Si1 0.917612 0.230034 0.355160
Si Si2 0.083716 0.146183 0.901304
Si Si3 0.790650 0.730393 0.439226
Si Si4 0.781379 0.917432 0.967895
Si Si5 0.359733 0.181466 0.269079
Si Si6 0.914332 0.918734 0.409778
Si Si7 0.857845 0.695930 0.906365
Si Si8 0.158014 0.415708 0.010972
O O1 0.864654 0.272499 0.400680
O O2 0.910539 0.271143 0.290671
O O3 0.897457 0.141757 0.355780
O O4 0.000000 0.238667 0.381190
O O5 0.134830 0.098843 0.947205
O O6 0.090085 0.233249 0.915344
O O7 0.105929 0.130106 0.829802
O O8 0.000000 0.121650 0.913760
O O9 0.771675 0.644383 0.440679
O O10 0.804418 0.772297 0.504550
O O11 0.726461 0.776569 0.406026
O O12 0.759111 0.000000 0.945877
O O13 0.392264 0.120108 0.224227
O O14 0.369363 0.156529 0.340127
O O15 0.407291 0.254500 0.257758
O O16 0.000000 0.924718 0.422956
O O17 0.883955 0.000000 0.390046
O O18 0.878638 0.638293 0.960362
O O19 0.136696 0.500000 0.995621
#
# Coordination Sequence:
#
# PCOD8307906 Si02
#       8
#    16  16  16  16  16  16  16  16
#     4   9  18  33  51  72 100 131 163 202 246 292
#     4   9  19  35  52  70  95 126 160 204 259 312
#     4   9  17  31  49  71  99 128 161 203 251 296
#     4  10  20  34  54  75  93 121 163 207 251 302
#     4   9  16  27  46  71  98 130 166 200 234 281
#     4   9  17  29  46  70 102 137 166 193 231 280
#     4   9  17  29  49  73  96 128 168 204 239 289
#     4   9  17  30  47  68  97 129 161 202 248 291
#
# _framework density 17.959197
#
# number of rings (size 3 to 8) (size 9 to 14) (size 15 to 20)
#    0.000    2.875    0.000    1.125    0.000    4.250 
#    0.000    3.125    0.000    6.000    0.000    0.000 
#    0.000    0.000    0.000    0.000    0.000    0.000 
#
# Total GULP energy -793027.544165 kJ/mol
# GULP energy per Si atom -12391.055378 kJ/mol
# Density = 1.791832 g / cm^3
# Si number density = 17.959197 Si / 1000 Ang^3
#
#
#
# Elastic Constant Matrix: (Units=GPa)
#
#
# Indices 1 2 3 4 5 6 
#
# 1 88.4194 38.9408 43.0169 0.0000 0.0000 0.0000
# 2 38.9408 88.4194 43.0169 0.0000 0.0000 0.0000
# 3 43.0169 43.0169 94.9624 0.0000 0.0000 0.0000
# 4 0.0000 0.0000 0.0000 21.0836 0.0000 0.0000
# 5 0.0000 0.0000 0.0000 0.0000 21.0836 0.0000
# 6 0.0000 0.0000 0.0000 0.0000 0.0000 16.4719
#
#
#
# Elastic Compliance Matrix: (Units=1/GPa)
#
#
# Indices 1 2 3 4 5 6 
#
# 1 0.015762 -0.004449 -0.005125 0.000000 0.000000 0.000000
# 2 -0.004449 0.015762 -0.005125 0.000000 0.000000 0.000000
# 3 -0.005125 -0.005125 0.015174 0.000000 0.000000 0.000000
# 4 0.000000 0.000000 0.000000 0.047430 0.000000 0.000000
# 5 0.000000 0.000000 0.000000 0.000000 0.047430 0.000000
# 6 0.000000 0.000000 0.000000 0.000000 0.000000 0.060709
#
#
# Mechanical properties :
#
#
# Convention : Reuss Voigt Hill
#
# Bulk Modulus (GPa) = 57.79971 57.97227 57.88599
# Shear Modulus (GPa) = 21.05865 21.51626 21.28746
#
# Velocity S-wave (km/s) = 3.42802 3.46506 3.44659
# Velocity P-wave (km/s) = 6.92258 6.95406 6.93834
#
# Compressibility (1/GPa) = 0.01730113
#
# Stress axis : x y z
#
# Youngs Moduli (GPa) = 63.44262 63.44263 65.90380
#
# Poissons Ratio (x) = 0.28222 0.33776
# Poissons Ratio (y) = 0.28222 0.33776
# Poissons Ratio (z) = 0.32514 0.32514
#
# Static dielectric constant tensor:
#      x y z
#    x 3.371450 0.000000 0.000000 
#    y 0.000000 3.371450 0.000000 
#    z 0.000000 0.000000 3.319430 
# 
# 
# High freq. dielectric constant tensor:
#      x y z
#    x 1.688950 0.000000 0.000000 
#    y 0.000000 1.688950 0.000000 
#    z 0.000000 0.000000 1.683280 
# 
# From -- ./inp_files/4559.got.cif
#   From: 2010.03.12/outbox.cif.g09.slc.cpg/sg109_3_cif.got.tgz:4559.got - 2010.04.14 01:55:16.
