data_PCOD8307081
_publ_section_title
;
Structure prediction by ZEFSAII (Michael W. Deem and Ramdas Pophale) SiO2 
 PCOD8307081
Probable space group: P 4 N C 
;
_chemical_formula_sum "Si O2"
_cell_formula_units_Z 60
_cell_length_a 11.571556
_cell_length_b 11.571556
_cell_length_c 21.741342
_cell_angle_alpha 90.000000
_cell_angle_beta 90.000000
_cell_angle_gamma 90.000000
_cell_volume 2911.185441
_symmetry_space_group_name_H-M "P 4 N C "
_symmetry_group_IT_number 104
_symmetry_cell_setting 'tetragonal'
loop_
_space_group_symop_operation_xyz
x,y,z
-y,x,z
-x,-y,z
y,-x,z
1/2-x,1/2+y,1/2+z
1/2+x,1/2-y,1/2+z
1/2-y,1/2-x,1/2+z
1/2+y,1/2+x,1/2+z
loop_
_atom_site_type_symbol
_atom_site_label
_atom_site_fract_x
_atom_site_fract_y
_atom_site_fract_z
Si Si1 0.364033 0.364033 0.027640
Si Si2 0.000000 0.500000 0.277640
Si Si3 0.164507 0.259677 0.652479
Si Si4 0.240323 0.664507 0.902801
Si Si5 0.771545 0.565525 0.830252
Si Si6 0.823755 0.941682 0.859237
Si Si7 0.176245 0.941682 0.196043
Si Si8 0.228455 0.565524 0.225028
O O1 0.500000 0.338936 0.027640
O O2 0.293358 0.315217 0.085374
O O3 0.315218 0.293357 0.969906
O O4 0.069803 0.408486 0.318291
O O5 0.091514 0.569803 0.236989
O O6 0.209879 0.392446 0.659777
O O7 0.245121 0.190610 0.699129
O O8 0.032441 0.243533 0.674264
O O9 0.309390 0.745122 0.856151
O O10 0.256467 0.532441 0.881016
O O11 0.107554 0.709878 0.895503
O O12 0.696812 0.550764 0.769053
O O13 0.803188 0.949236 0.786227
O O14 0.928623 0.856224 0.878655
O O15 0.071377 0.856224 0.176625
#
# Coordination Sequence:
#
# PCOD8307081 Si02
#       8
#     8   4   8   8   8   8   8   8
#     4  11  24  44  66  91 128 174 222 269 320 394
#     4  12  24  36  60 102 136 168 208 272 342 396
#     4  12  24  40  64  96 130 172 216 272 323 397
#     4  12  24  40  64  96 130 172 216 272 323 397
#     4  12  22  37  63  95 135 168 210 266 336 394
#     4  11  23  40  63  94 132 171 209 262 333 406
#     4  11  23  40  63  94 132 171 209 262 333 406
#     4  12  22  37  63  95 135 168 210 266 336 394
#
# _framework density 20.610158999999999
#
# number of rings (size 3 to 8) (size 9 to 14) (size 15 to 20)
#    0.000    0.400    8.000    2.400    0.000    0.533 
#    0.000    1.333    0.000    4.800    0.000    0.000 
#    0.000    0.000    0.000    0.000    0.000    0.000 
#
# Total GULP energy -743866.326896 kJ/mol
# GULP energy per Si atom -12397.772115 kJ/mol
# Density = 2.056325 g / cm^3
# Si number density = 20.610159 Si / 1000 Ang^3
#
#
#
# Elastic Constant Matrix: (Units=GPa)
#
#
# Indices 1 2 3 4 5 6 
#
# 1 63.0222 3.7113 4.7086 0.0000 0.0000 0.0000
# 2 3.7113 63.0222 4.7086 0.0000 0.0000 0.0000
# 3 4.7086 4.7086 84.9298 0.0000 0.0000 0.0000
# 4 0.0000 0.0000 0.0000 25.7271 0.0000 0.0000
# 5 0.0000 0.0000 0.0000 0.0000 25.7271 0.0000
# 6 0.0000 0.0000 0.0000 0.0000 0.0000 40.9292
#
#
#
# Elastic Compliance Matrix: (Units=1/GPa)
#
#
# Indices 1 2 3 4 5 6 
#
# 1 0.015982 -0.000879 -0.000837 0.000000 0.000000 0.000000
# 2 -0.000879 0.015982 -0.000837 0.000000 0.000000 0.000000
# 3 -0.000837 -0.000837 0.011867 0.000000 0.000000 0.000000
# 4 0.000000 0.000000 0.000000 0.038870 0.000000 0.000000
# 5 0.000000 0.000000 0.000000 0.000000 0.038870 0.000000
# 6 0.000000 0.000000 0.000000 0.000000 0.000000 0.024432
#
#
# Mechanical properties :
#
#
# Convention : Reuss Voigt Hill
#
# Bulk Modulus (GPa) = 25.82364 26.35904 26.09134
# Shear Modulus (GPa) = 30.48467 31.66638 31.07553
#
# Velocity S-wave (km/s) = 3.85009 3.92400 3.88722
# Velocity P-wave (km/s) = 5.68516 5.77473 5.73012
#
# Compressibility (1/GPa) = 0.03872420
#
# Stress axis : x y z
#
# Youngs Moduli (GPa) = 62.57147 62.57147 84.26537
#
# Poissons Ratio (x) = 0.05497 0.07056
# Poissons Ratio (y) = 0.05497 0.07056
# Poissons Ratio (z) = 0.05239 0.05239
#
# Static dielectric constant tensor:
#      x y z
#    x 3.835500 0.000000 0.000000 
#    y 0.000000 3.835500 0.000000 
#    z 0.000000 0.000000 3.438860 
# 
# 
# High freq. dielectric constant tensor:
#      x y z
#    x 1.817280 0.000000 0.000000 
#    y 0.000000 1.817280 0.000000 
#    z 0.000000 0.000000 1.766410 
# 
# From -- ./inp_files/1693.got.cif
#   From: 2010.03.12/outbox.cif.g09.slc.cpg/sg104_cif.got.tgz:1693.got - 2010.04.14 01:44:05.
