data_PCOD8307248
_publ_section_title
;
Structure prediction by ZEFSAII (Michael W. Deem and Ramdas Pophale) SiO2 
 PCOD8307248
Probable space group: P 42 M C
;
_chemical_formula_sum "Si O2"
_cell_formula_units_Z 48
_cell_length_a 9.062099
_cell_length_b 9.062099
_cell_length_c 30.961285
_cell_angle_alpha 90.000000
_cell_angle_beta 90.000000
_cell_angle_gamma 90.000000
_cell_volume 2542.591448
_symmetry_space_group_name_H-M "P 42 M C"
_symmetry_group_IT_number 105
_symmetry_cell_setting 'tetragonal'
loop_
_space_group_symop_operation_xyz
x,y,z
-y,x,1/2+z
-x,-y,z
y,-x,1/2+z
-x,y,z
x,-y,z
-y,-x,1/2+z
y,x,1/2+z
loop_
_atom_site_type_symbol
_atom_site_label
_atom_site_fract_x
_atom_site_fract_y
_atom_site_fract_z
Si Si1 0.324441 0.833598 0.251470
Si Si2 0.674526 0.832145 0.579708
Si Si3 0.675322 0.332205 0.336037
Si Si4 0.172344 0.828553 0.914281
Si Si5 0.329264 0.672194 0.165993
Si Si6 0.172038 0.670946 0.501755
O O1 0.500000 0.831645 0.251955
O O2 0.263538 0.741764 0.292190
O O3 0.267545 0.759143 0.207452
O O4 0.263184 0.000000 0.254276
O O5 0.500000 0.822959 0.575717
O O6 0.726767 0.764781 0.625194
O O7 0.741671 0.735718 0.541920
O O8 0.731262 0.000000 0.576484
O O9 0.500000 0.326173 0.337404
O O10 0.732827 0.500000 0.337965
O O11 0.735545 0.241603 0.376076
O O12 0.000000 0.794178 0.917071
O O13 0.204850 0.000000 0.905844
O O14 0.245746 0.775480 0.958760
O O15 0.500000 0.709244 0.156804
O O16 0.307171 0.500000 0.175312
O O17 0.211937 0.500000 0.496418
O O18 0.000000 0.696344 0.510050
#
# Coordination Sequence:
#
# PCOD8307248 Si02
#       6
#     8   8   8   8   8   8
#     4   9  17  30  50  76 104 134 172 219 266 310
#     4  10  21  36  54  78 108 140 174 214 261 311
#     4  10  20  34  54  80 108 140 179 220 262 311
#     4  10  21  37  56  78 106 140 176 216 265 318
#     4   9  17  31  51  73  99 133 171 211 257 310
#     4  10  21  37  57  79 103 135 176 218 261 313
#
# _framework density 18.878378999999999
#
# number of rings (size 3 to 8) (size 9 to 14) (size 15 to 20)
#    0.000    2.333    0.000    2.500    0.000    7.333 
#    0.000    2.500    0.000    3.000    0.000    0.000 
#    0.000    0.000    0.000    0.000    0.000    0.000 
#
# Total GULP energy -595350.686297 kJ/mol
# GULP energy per Si atom -12403.139298 kJ/mol
# Density = 1.883541 g / cm^3
# Si number density = 18.878379 Si / 1000 Ang^3
#
#
#
# Elastic Constant Matrix: (Units=GPa)
#
#
# Indices 1 2 3 4 5 6 
#
# 1 72.0326 27.7908 53.9885 0.0000 0.0000 0.0000
# 2 27.7908 72.0326 53.9885 0.0000 0.0000 0.0000
# 3 53.9885 53.9885 164.4487 0.0000 0.0000 0.0000
# 4 0.0000 0.0000 0.0000 -62.6052 0.0000 0.0000
# 5 0.0000 0.0000 0.0000 0.0000 -62.6052 0.0000
# 6 0.0000 0.0000 0.0000 0.0000 0.0000 20.6486
#
#
#
# Elastic Compliance Matrix: (Units=1/GPa)
#
#
# Indices 1 2 3 4 5 6 
#
# 1 0.019069 -0.003535 -0.005100 0.000000 0.000000 0.000000
# 2 -0.003535 0.019069 -0.005100 0.000000 0.000000 0.000000
# 3 -0.005100 -0.005100 0.009429 0.000000 0.000000 0.000000
# 4 0.000000 0.000000 0.000000 -0.015973 0.000000 0.000000
# 5 0.000000 0.000000 0.000000 0.000000 -0.015973 0.000000
# 6 0.000000 0.000000 0.000000 0.000000 0.000000 0.048430
#
#
# Mechanical properties :
#
#
# Convention : Reuss Voigt Hill
#
# Bulk Modulus (GPa) = 49.75546 64.44994 57.10270
# Shear Modulus (GPa) = 50.90726 -9.39599 20.75564
#
# Velocity S-wave (km/s) = 5.19850 -2.23336 3.31938
# Velocity P-wave (km/s) = 7.90225 5.25006 6.70853
#
# Compressibility (1/GPa) = 0.02009830
#
# Stress axis : x y z
#
# Youngs Moduli (GPa) = 52.44224 52.44224 106.05032
#
# Poissons Ratio (x) = 0.18536 0.54084
# Poissons Ratio (y) = 0.18536 0.54084
# Poissons Ratio (z) = 0.26745 0.26745
#
# Static dielectric constant tensor:
#      x y z
#    x 3.527830 0.000000 0.000000 
#    y 0.000000 3.527830 0.000000 
#    z 0.000000 0.000000 3.629330 
# 
# 
# High freq. dielectric constant tensor:
#      x y z
#    x 1.725110 0.000000 0.000000 
#    y 0.000000 1.725110 0.000000 
#    z 0.000000 0.000000 1.750150 
# 
# From -- ./inp_files/4677.got.cif
#   From: 2010.03.12/outbox.cif.g09.slc.cpg/sg105_3_cif.got.tgz:4677.got - 2010.04.14 01:45:32.
