data_PCOD8307449
_publ_section_title
;
Structure prediction by ZEFSAII (Michael W. Deem and Ramdas Pophale) SiO2 
 PCOD8307449
Probable space group: P 42 B C
;
_chemical_formula_sum "Si O2"
_cell_formula_units_Z 60
_cell_length_a 17.869506
_cell_length_b 17.869506
_cell_length_c 8.954809
_cell_angle_alpha 90.000000
_cell_angle_beta 90.000000
_cell_angle_gamma 90.000000
_cell_volume 2859.442846
_symmetry_space_group_name_H-M "P 42 B C"
_symmetry_group_IT_number 106
_symmetry_cell_setting 'tetragonal'
loop_
_space_group_symop_operation_xyz
x,y,z
-y,x,1/2+z
-x,-y,z
y,-x,1/2+z
1/2-x,1/2+y,z
1/2+x,1/2-y,z
1/2-y,1/2-x,1/2+z
1/2+y,1/2+x,1/2+z
loop_
_atom_site_type_symbol
_atom_site_label
_atom_site_fract_x
_atom_site_fract_y
_atom_site_fract_z
Si Si1 0.744828 0.102405 0.674920
Si Si2 0.494904 0.638286 0.043886
Si Si3 0.139655 0.728871 0.383063
Si Si4 0.621949 0.993137 0.794394
Si Si5 0.000000 0.500000 0.042587
Si Si6 0.040712 0.874317 0.382617
Si Si7 0.760016 0.764959 0.613119
Si Si8 0.878328 0.850653 0.437434
O O1 0.781318 0.046260 0.554852
O O2 0.681016 0.060366 0.769854
O O3 0.717127 0.177557 0.594669
O O4 0.812784 0.132432 0.777389
O O5 0.521073 0.610019 0.208460
O O6 0.446162 0.576109 0.960783
O O7 0.565312 0.654281 0.936906
O O8 0.093978 0.804234 0.401196
O O9 0.211461 0.744633 0.281047
O O10 0.182670 0.708784 0.534715
O O11 0.085683 0.662817 0.325420
O O12 0.572354 0.985244 0.645205
O O13 0.572040 0.014751 0.937987
O O14 0.966328 0.854335 0.476058
O O15 0.835053 0.806057 0.563743
#
# Coordination Sequence:
#
# PCOD8307449 Si02
#       8
#     8   8   8   8   4   8   8   8
#     4  11  24  41  71  99 139 173 230 283 338 408
#     4  11  23  44  65 100 134 180 221 279 339 410
#     4  12  23  43  70  96 137 172 230 278 345 406
#     4  11  23  47  69 101 137 180 231 291 345 411
#     4  10  26  44  72 100 134 184 232 290 356 396
#     4  11  24  43  66  99 133 182 222 278 339 409
#     4  12  24  42  67 100 130 183 218 283 337 409
#     4  11  23  41  65  93 137 174 226 272 338 400
#
# _framework density 20.983108000000001
#
# number of rings (size 3 to 8) (size 9 to 14) (size 15 to 20)
#    0.000    0.800    6.667    1.200    1.867    4.267 
#    0.000    0.000    0.000    0.000    0.000    0.000 
#    0.000    0.000    0.000    0.000    0.000    0.000 
#
# Total GULP energy -743841.942143 kJ/mol
# GULP energy per Si atom -12397.365702 kJ/mol
# Density = 2.093535 g / cm^3
# Si number density = 20.983108 Si / 1000 Ang^3
#
#
#
# Elastic Constant Matrix: (Units=GPa)
#
#
# Indices 1 2 3 4 5 6 
#
# 1 129.2236 62.8968 36.5569 0.0000 0.0000 0.0000
# 2 62.8968 129.2236 36.5569 0.0000 0.0000 0.0000
# 3 36.5569 36.5569 54.5467 0.0000 0.0000 0.0000
# 4 0.0000 0.0000 0.0000 33.0524 0.0000 0.0000
# 5 0.0000 0.0000 0.0000 0.0000 33.0524 0.0000
# 6 0.0000 0.0000 0.0000 0.0000 0.0000 28.4811
#
#
#
# Elastic Compliance Matrix: (Units=1/GPa)
#
#
# Indices 1 2 3 4 5 6 
#
# 1 0.011032 -0.004045 -0.004683 0.000000 0.000000 0.000000
# 2 -0.004045 0.011032 -0.004683 0.000000 0.000000 0.000000
# 3 -0.004683 -0.004683 0.024610 0.000000 0.000000 0.000000
# 4 0.000000 0.000000 0.000000 0.030255 0.000000 0.000000
# 5 0.000000 0.000000 0.000000 0.000000 0.030255 0.000000
# 6 0.000000 0.000000 0.000000 0.000000 0.000000 0.035111
#
#
# Mechanical properties :
#
#
# Convention : Reuss Voigt Hill
#
# Bulk Modulus (GPa) = 50.37043 65.00170 57.68607
# Shear Modulus (GPa) = 28.45225 30.71607 29.58416
#
# Velocity S-wave (km/s) = 3.68633 3.83018 3.75894
# Velocity P-wave (km/s) = 6.49431 7.11377 6.81108
#
# Compressibility (1/GPa) = 0.01985292
#
# Stress axis : x y z
#
# Youngs Moduli (GPa) = 90.64531 90.64531 40.63447
#
# Poissons Ratio (x) = 0.36665 0.19028
# Poissons Ratio (y) = 0.36665 0.19028
# Poissons Ratio (z) = 0.42447 0.42447
#
# Static dielectric constant tensor:
#      x y z
#    x 4.107350 0.000000 0.000000 
#    y 0.000000 4.107350 0.000000 
#    z 0.000000 0.000000 3.763970 
# 
# 
# High freq. dielectric constant tensor:
#      x y z
#    x 1.832180 0.000000 0.000000 
#    y 0.000000 1.832180 0.000000 
#    z 0.000000 0.000000 1.815370 
# 
# From -- ./inp_files/538.got.cif
#   From: 2010.03.12/outbox.cif.g09.slc.cpg/sg106_cif.got.tgz:538.got - 2010.04.14 01:48:02.
