data_PCOD8307875
_publ_section_title
;
Structure prediction by ZEFSAII (Michael W. Deem and Ramdas Pophale) SiO2 
 PCOD8307875
Probable space group: I 41 M D
;
_chemical_formula_sum "Si O2"
_cell_formula_units_Z 128
_cell_length_a 17.109390
_cell_length_b 17.109390
_cell_length_c 24.353883
_cell_angle_alpha 90.000000
_cell_angle_beta 90.000000
_cell_angle_gamma 90.000000
_cell_volume 7129.142033
_symmetry_space_group_name_H-M "I 41 M D"
_symmetry_group_IT_number 109
_symmetry_cell_setting 'tetragonal'
loop_
_space_group_symop_operation_xyz
x,y,z
-y,1/2+x,1/4+z
-x,-y,z
y,1/2-x,1/4+z
-x,y,z
x,-y,z
-y,1/2-x,1/4+z
y,1/2+x,1/4+z
1/2+x,1/2+y,1/2+z
1/2-y,x,3/4+z
1/2-x,1/2-y,1/2+z
1/2+y,-x,3/4+z
1/2-x,1/2+y,1/2+z
1/2+x,1/2-y,1/2+z
1/2-y,-x,3/4+z
1/2+y,x,3/4+z
loop_
_atom_site_type_symbol
_atom_site_label
_atom_site_fract_x
_atom_site_fract_y
_atom_site_fract_z
Si Si1 0.911377 0.408883 0.468880
Si Si2 0.678924 0.822312 0.881139
Si Si3 0.416943 0.591789 0.925695
Si Si4 0.087931 0.810758 0.833652
Si Si5 0.409010 0.772629 0.545378
Si Si6 0.411612 0.244609 0.216768
Si Si7 0.761942 0.177212 0.682830
Si Si8 0.412403 0.691012 0.820986
O O1 0.902350 0.500000 0.454428
O O2 0.892641 0.356815 0.415666
O O3 0.848918 0.383941 0.514860
O O4 0.000000 0.390106 0.487364
O O5 0.712700 0.892481 0.844479
O O6 0.744357 0.787895 0.922442
O O7 0.648146 0.757244 0.838948
O O8 0.500000 0.619692 0.952418
O O9 0.414406 0.500000 0.922187
O O10 0.343271 0.621979 0.960052
O O11 0.411763 0.621512 0.864160
O O12 0.142145 0.884503 0.818592
O O13 0.090290 0.754019 0.781750
O O14 0.116212 0.759206 0.885123
O O15 0.000000 0.841293 0.845229
O O16 0.500000 0.774475 0.530497
O O17 0.360844 0.743621 0.492016
O O18 0.500000 0.256422 0.193864
O O19 0.354941 0.303236 0.183256
O O20 0.500000 0.726182 0.814516
#
# Coordination Sequence:
#
# PCOD8307875 Si02
#       8
#    16  16  16  16  16  16  16  16
#     4  10  21  36  53  74 104 141 178 216 262 315
#     4  11  20  34  53  78 106 134 171 218 264 311
#     4   9  16  28  47  70 102 144 181 213 249 294
#     4   9  19  34  55  77 101 133 168 213 262 309
#     4  10  21  35  55  78 100 132 170 211 262 316
#     4   9  17  32  50  73 104 138 175 212 252 299
#     4  10  19  34  54  76 106 133 170 211 263 313
#     4  10  19  32  51  76 105 139 179 216 251 304
#
# _framework density 17.954474000000001
#
# number of rings (size 3 to 8) (size 9 to 14) (size 15 to 20)
#    0.000    2.250    1.250    2.250    0.000    1.750 
#    0.000    0.625    0.000    2.625    0.000    0.000 
#    0.000    0.000    0.000    0.000    0.000    0.000 
#
# Total GULP energy -793198.871452 kJ/mol
# GULP energy per Si atom -12393.732366 kJ/mol
# Density = 1.791361 g / cm^3
# Si number density = 17.954474 Si / 1000 Ang^3
#
#
#
# Elastic Constant Matrix: (Units=GPa)
#
#
# Indices 1 2 3 4 5 6 
#
# 1 75.2402 44.2091 51.8667 0.0000 0.0000 0.0000
# 2 44.2091 75.2402 51.8667 0.0000 0.0000 0.0000
# 3 51.8667 51.8667 66.9115 0.0000 0.0000 0.0000
# 4 0.0000 0.0000 0.0000 30.5487 0.0000 0.0000
# 5 0.0000 0.0000 0.0000 0.0000 30.5487 0.0000
# 6 0.0000 0.0000 0.0000 0.0000 0.0000 20.3290
#
#
#
# Elastic Compliance Matrix: (Units=1/GPa)
#
#
# Indices 1 2 3 4 5 6 
#
# 1 0.028920 -0.003305 -0.019855 0.000000 0.000000 0.000000
# 2 -0.003305 0.028920 -0.019855 0.000000 0.000000 0.000000
# 3 -0.019855 -0.019855 0.045727 0.000000 0.000000 0.000000
# 4 0.000000 0.000000 0.000000 0.032735 0.000000 0.000000
# 5 0.000000 0.000000 0.000000 0.000000 0.032735 0.000000
# 6 0.000000 0.000000 0.000000 0.000000 0.000000 0.049191
#
#
# Mechanical properties :
#
#
# Convention : Reuss Voigt Hill
#
# Bulk Modulus (GPa) = 57.02858 57.03077 57.02967
# Shear Modulus (GPa) = 16.12355 20.91523 18.51939
#
# Velocity S-wave (km/s) = 2.99996 3.41677 3.21513
# Velocity P-wave (km/s) = 6.62053 6.88468 6.75390
#
# Compressibility (1/GPa) = 0.01753507
#
# Stress axis : x y z
#
# Youngs Moduli (GPa) = 34.57780 34.57781 21.86883
#
# Poissons Ratio (x) = 0.11430 0.43422
# Poissons Ratio (y) = 0.11430 0.43422
# Poissons Ratio (z) = 0.68656 0.68656
#
# Static dielectric constant tensor:
#      x y z
#    x 3.237530 0.000000 0.000000 
#    y 0.000000 3.237530 0.000000 
#    z 0.000000 0.000000 3.293680 
# 
# 
# High freq. dielectric constant tensor:
#      x y z
#    x 1.693380 0.000000 0.000000 
#    y 0.000000 1.693380 0.000000 
#    z 0.000000 0.000000 1.689240 
# 
# From -- ./inp_files/4550.got.cif
#   From: 2010.03.12/outbox.cif.g09.slc.cpg/sg109_3_cif.got.tgz:4550.got - 2010.04.14 01:55:16.
