data_PCOD8307754
_publ_section_title
;
Structure prediction by ZEFSAII (Michael W. Deem and Ramdas Pophale) SiO2 
 PCOD8307754
Probable space group: I 4 C M
;
_chemical_formula_sum "Si O2"
_cell_formula_units_Z 128
_cell_length_a 22.428680
_cell_length_b 22.428680
_cell_length_c 12.731782
_cell_angle_alpha 90.000000
_cell_angle_beta 90.000000
_cell_angle_gamma 90.000000
_cell_volume 6404.668017
_symmetry_space_group_name_H-M "I 4 C M"
_symmetry_group_IT_number 108
_symmetry_cell_setting 'tetragonal'
loop_
_space_group_symop_operation_xyz
x,y,z
-y,x,z
-x,-y,z
y,-x,z
-x,y,1/2+z
x,-y,1/2+z
-y,-x,1/2+z
y,x,1/2+z
1/2+x,1/2+y,1/2+z
1/2-y,1/2+x,1/2+z
1/2-x,1/2-y,1/2+z
1/2+y,1/2-x,1/2+z
1/2-x,1/2+y,z
1/2+x,1/2-y,z
1/2-y,1/2-x,z
1/2+y,1/2+x,z
loop_
_atom_site_type_symbol
_atom_site_label
_atom_site_fract_x
_atom_site_fract_y
_atom_site_fract_z
Si Si1 0.038384 0.286598 0.212320
Si Si2 0.898574 0.132206 0.057291
Si Si3 0.148273 0.256457 0.592960
Si Si4 0.476312 0.349398 0.661388
Si Si5 0.682967 0.089159 0.773156
Si Si6 0.072634 0.330378 0.431942
Si Si7 0.913962 0.043731 0.367000
Si Si8 0.657972 0.061477 0.996477
O O1 0.026073 0.216902 0.205182
O O2 0.076236 0.299859 0.317005
O O3 0.976243 0.321471 0.223640
O O4 0.071848 0.308223 0.106740
O O5 0.851160 0.185644 0.074457
O O6 0.861437 0.070630 0.067867
O O7 0.955512 0.136201 0.134461
O O8 0.926352 0.136088 0.940742
O O9 0.213339 0.286662 0.572530
O O10 0.128312 0.267047 0.713727
O O11 0.098984 0.284290 0.515918
O O12 0.450449 0.394574 0.747594
O O13 0.618371 0.118371 0.751409
O O14 0.696631 0.088687 0.898799
O O15 0.109415 0.390586 0.427910
O O16 0.007690 0.350167 0.470242
O O17 0.974382 0.078642 0.392532
O O18 0.593712 0.093712 0.002779
#
# Coordination Sequence:
#
# PCOD8307754 Si02
#       8
#    16  16  16  16  16  16  16  16
#     4  11  21  37  57  89 118 159 202 249 309 365
#     4  12  23  41  62  95 122 161 209 252 314 371
#     4  10  20  40  65  86 117 160 208 256 301 362
#     4  12  24  39  62  91 124 158 207 259 304 377
#     4   9  18  34  57  81 112 153 200 244 293 361
#     4  10  20  36  60  84 117 160 204 251 305 372
#     4  11  23  39  61  89 131 168 197 250 316 373
#     4  10  20  34  55  86 122 154 196 252 315 375
#
# _framework density 19.985423000000001
#
# number of rings (size 3 to 8) (size 9 to 14) (size 15 to 20)
#    0.000    1.375    5.000    1.125    0.000    1.500 
#    2.250    1.250    0.000    3.000    0.000    0.000 
#    0.000    0.000    0.000    0.000    0.000    0.000 
#
# Total GULP energy -793301.598197 kJ/mol
# GULP energy per Si atom -12395.337472 kJ/mol
# Density = 1.993993 g / cm^3
# Si number density = 19.985423 Si / 1000 Ang^3
#
#
#
# Elastic Constant Matrix: (Units=GPa)
#
#
# Indices 1 2 3 4 5 6 
#
# 1 43.6647 64.7394 16.1304 0.0000 0.0000 0.0004
# 2 64.7394 43.6647 16.1304 0.0000 0.0000 -0.0004
# 3 16.1304 16.1304 101.5734 0.0000 0.0000 0.0000
# 4 0.0000 0.0000 0.0000 22.6372 0.0000 0.0000
# 5 0.0000 0.0000 0.0000 0.0000 22.6372 0.0000
# 6 0.0004 -0.0004 0.0000 0.0000 0.0000 14.4534
#
#
#
# Elastic Compliance Matrix: (Units=1/GPa)
#
#
# Indices 1 2 3 4 5 6 
#
# 1 -0.018884 0.028566 -0.001538 0.000000 0.000000 0.000001
# 2 0.028566 -0.018884 -0.001538 0.000000 0.000000 -0.000001
# 3 -0.001538 -0.001538 0.010333 0.000000 0.000000 0.000000
# 4 0.000000 0.000000 0.000000 0.044175 0.000000 0.000000
# 5 0.000000 0.000000 0.000000 0.000000 0.044175 0.000000
# 6 0.000001 -0.000001 0.000000 0.000000 0.000000 0.069188
#
#
# Mechanical properties :
#
#
# Convention : Reuss Voigt Hill
#
# Bulk Modulus (GPa) = 42.46698 42.54478 42.50588
# Shear Modulus (GPa) = 57.49054 18.07239 37.78147
#
# Velocity S-wave (km/s) = 5.36924 3.01039 4.35265
# Velocity P-wave (km/s) = 7.72874 5.78077 6.82461
#
# Compressibility (1/GPa) = 0.02354771
#
# Stress axis : x y z
#
# Youngs Moduli (GPa) = -52.95503 -52.95503 96.77307
#
# Poissons Ratio (x) = 1.51273 0.14880
# Poissons Ratio (y) = 1.51273 0.14880
# Poissons Ratio (z) = -0.08142 -0.08142
#
# Static dielectric constant tensor:
#      x y z
#    x 3.500490 0.000000 0.000000 
#    y 0.000000 3.500490 0.000000 
#    z 0.000000 0.000000 3.929480 
# 
# 
# High freq. dielectric constant tensor:
#      x y z
#    x 1.764700 0.000000 0.000000 
#    y 0.000000 1.764700 0.000000 
#    z 0.000000 0.000000 1.797120 
# 
# From -- ./inp_files/1622.got.cif
#   From: 2010.03.12/outbox.cif.g09.slc.cpg/sg108_1_cif.got.tgz:1622.got - 2010.04.14 01:53:11.
