data_PCOD8307474
_publ_section_title
;
Structure prediction by ZEFSAII (Michael W. Deem and Ramdas Pophale) SiO2 
 PCOD8307474
Probable space group: I 4 M M
;
_chemical_formula_sum "Si O2"
_cell_formula_units_Z 80
_cell_length_a 36.962484
_cell_length_b 36.962484
_cell_length_c 5.137665
_cell_angle_alpha 90.000000
_cell_angle_beta 90.000000
_cell_angle_gamma 90.000000
_cell_volume 7019.207513
_symmetry_space_group_name_H-M "I 4 M M"
_symmetry_group_IT_number 107
_symmetry_cell_setting 'tetragonal'
loop_
_space_group_symop_operation_xyz
x,y,z
-y,x,z
-x,-y,z
y,-x,z
-x,y,z
x,-y,z
-y,-x,z
y,x,z
1/2+x,1/2+y,1/2+z
1/2-y,1/2+x,1/2+z
1/2-x,1/2-y,1/2+z
1/2+y,1/2-x,1/2+z
1/2-x,1/2+y,1/2+z
1/2+x,1/2-y,1/2+z
1/2-y,1/2-x,1/2+z
1/2+y,1/2+x,1/2+z
loop_
_atom_site_type_symbol
_atom_site_label
_atom_site_fract_x
_atom_site_fract_y
_atom_site_fract_z
Si Si1 0.883933 0.823534 0.413330
Si Si2 0.959119 0.855500 0.318469
Si Si3 0.098693 0.040023 0.819937
Si Si4 0.204420 0.734501 0.876923
Si Si5 0.351676 0.707706 0.402989
O O1 0.862193 0.862193 0.423363
O O2 0.926937 0.827495 0.372208
O O3 0.880753 0.800636 0.678447
O O4 0.868573 0.798647 0.184632
O O5 0.954627 0.887576 0.526906
O O6 0.000000 0.838674 0.345693
O O7 0.952972 0.869343 0.025633
O O8 0.066848 0.066848 0.885082
O O9 0.082942 0.000000 0.858871
O O10 0.234094 0.765907 0.884642
O O11 0.207966 0.710220 0.620296
O O12 0.164113 0.751618 0.887856
O O13 0.318716 0.681285 0.346023
#
# Coordination Sequence:
#
# PCOD8307474 Si02
#       5
#    16  16  16  16  16
#     4  10  17  26  39  51  66  82 100 129 155 179
#     4  10  20  31  42  54  66  82 102 124 155 192
#     4  10  19  30  42  54  66  78  95 117 146 190
#     4   9  15  23  34  47  67  90 106 121 139 162
#     4   9  17  25  35  53  68  83 106 124 144 172
#
# _framework density 11.397299
#
# number of rings (size 3 to 8) (size 9 to 14) (size 15 to 20)
#    0.000    2.400    0.000    4.200    0.000    6.600 
#    0.000    0.000    0.000    3.600    0.000    0.000 
#    0.000    0.000    0.000    0.000    0.000    0.000 
#
# Total GULP energy -495813.880379 kJ/mol
# GULP energy per Si atom -12395.347009 kJ/mol
# Density = 1.137136 g / cm^3
# Si number density = 11.397299 Si / 1000 Ang^3
#
#
#
# Elastic Constant Matrix: (Units=GPa)
#
#
# Indices 1 2 3 4 5 6 
#
# 1 34.6337 28.6249 3.8731 0.0000 0.0000 0.0002
# 2 28.6249 34.6337 3.8731 0.0000 0.0000 -0.0002
# 3 3.8731 3.8731 49.7928 0.0000 0.0000 0.0000
# 4 0.0000 0.0000 0.0000 12.6219 0.0000 0.0000
# 5 0.0000 0.0000 0.0000 0.0000 12.6219 0.0000
# 6 0.0002 -0.0002 0.0000 0.0000 0.0000 17.1618
#
#
#
# Elastic Compliance Matrix: (Units=1/GPa)
#
#
# Indices 1 2 3 4 5 6 
#
# 1 0.091192 -0.075232 -0.001241 0.000000 0.000000 -0.000002
# 2 -0.075232 0.091192 -0.001241 0.000000 0.000000 0.000002
# 3 -0.001241 -0.001241 0.020276 0.000000 0.000000 0.000000
# 4 0.000000 0.000000 0.000000 0.079227 0.000000 0.000000
# 5 0.000000 0.000000 0.000000 0.000000 0.079227 0.000000
# 6 -0.000002 0.000002 0.000000 0.000000 0.000000 0.058269
#
#
# Mechanical properties :
#
#
# Convention : Reuss Voigt Hill
#
# Bulk Modulus (GPa) = 21.17263 21.31141 21.24202
# Shear Modulus (GPa) = 8.46657 13.99372 11.23014
#
# Velocity S-wave (km/s) = 2.72850 3.50781 3.14241
# Velocity P-wave (km/s) = 5.34261 5.92837 5.64310
#
# Compressibility (1/GPa) = 0.04723079
#
# Stress axis : x y z
#
# Youngs Moduli (GPa) = 10.96586 10.96586 49.31850
#
# Poissons Ratio (x) = 0.82498 0.06123
# Poissons Ratio (y) = 0.82498 0.06123
# Poissons Ratio (z) = 0.01361 0.01361
#
# Static dielectric constant tensor:
#      x y z
#    x 2.253240 0.000000 0.000000 
#    y 0.000000 2.253240 0.000000 
#    z 0.000000 0.000000 2.626290 
# 
# 
# High freq. dielectric constant tensor:
#      x y z
#    x 1.393260 0.000000 0.000000 
#    y 0.000000 1.393260 0.000000 
#    z 0.000000 0.000000 1.457610 
# 
# From -- ./inp_files/504.got.cif
#   From: 2010.03.12/outbox.cif.g09.slc.cpg/sg107_1_cif.got.tgz:504.got - 2010.04.14 01:49:11.
