data_PCOD8307383
_publ_section_title
;
Structure prediction by ZEFSAII (Michael W. Deem and Ramdas Pophale) SiO2 
 PCOD8307383
Probable space group: P 42 M C
;
_chemical_formula_sum "Si O2"
_cell_formula_units_Z 56
_cell_length_a 22.979666
_cell_length_b 22.979666
_cell_length_c 9.320428
_cell_angle_alpha 90.000000
_cell_angle_beta 90.000000
_cell_angle_gamma 90.000000
_cell_volume 4921.792273
_symmetry_space_group_name_H-M "P 42 M C"
_symmetry_group_IT_number 105
_symmetry_cell_setting 'tetragonal'
loop_
_space_group_symop_operation_xyz
x,y,z
-y,x,1/2+z
-x,-y,z
y,-x,1/2+z
-x,y,z
x,-y,z
-y,-x,1/2+z
y,x,1/2+z
loop_
_atom_site_type_symbol
_atom_site_label
_atom_site_fract_x
_atom_site_fract_y
_atom_site_fract_z
Si Si1 0.930580 0.389157 0.461380
Si Si2 0.933471 0.151493 0.630861
Si Si3 0.930667 0.500000 0.637205
Si Si4 0.500000 0.069333 0.462240
Si Si5 0.933471 0.151493 0.968584
Si Si6 0.930840 0.718834 0.959121
Si Si7 0.069160 0.281166 0.640324
Si Si8 0.930580 0.389157 0.138065
O O1 0.907096 0.443234 0.554416
O O2 0.906338 0.329462 0.530885
O O3 0.906367 0.394203 0.299723
O O4 0.000000 0.389220 0.460343
O O5 0.926974 0.142108 0.799722
O O6 0.894534 0.105466 0.549722
O O7 0.912486 0.216660 0.588646
O O8 0.000000 0.141764 0.582823
O O9 0.906477 0.500000 0.799723
O O10 0.000000 0.500000 0.639041
O O11 0.443234 0.092904 0.545030
O O12 0.500000 0.000000 0.460404
O O13 0.912486 0.216660 0.010798
O O14 0.000000 0.141764 0.016621
O O15 0.906026 0.706043 0.799722
O O16 0.000000 0.715776 0.952042
O O17 0.906337 0.670538 0.068559
O O18 0.000000 0.284224 0.647404
O O19 0.000000 0.389219 0.139102
#
# Coordination Sequence:
#
# PCOD8307383 Si02
#       8
#     8   8   4   4   8   8   8   8
#     4   9  15  21  30  45  62  77  95 118 138 156
#     4   9  18  30  41  52  64  77  94 118 149 187
#     4   9  15  21  29  41  59  83 103 115 131 155
#     4   9  15  21  29  41  59  83 103 115 131 155
#     4   9  18  30  41  52  64  77  94 118 149 187
#     4   8  14  25  37  46  58  76  95 113 137 172
#     4   8  14  25  37  46  58  76  95 113 137 172
#     4   9  15  21  30  45  62  77  95 118 138 156
#
# _framework density 11.377969999999999
#
# number of rings (size 3 to 8) (size 9 to 14) (size 15 to 20)
#    0.000    3.286    0.000    3.000    0.000    7.143 
#    0.000    4.286    0.000    0.000    0.000    0.000 
#    0.000    0.000    0.000    0.000    0.000    0.000 
#
# Total GULP energy -694063.957097 kJ/mol
# GULP energy per Si atom -12393.999234 kJ/mol
# Density = 1.135207 g / cm^3
# Si number density = 11.377970 Si / 1000 Ang^3
#
#
#
# Elastic Constant Matrix: (Units=GPa)
#
#
# Indices 1 2 3 4 5 6 
#
# 1 57.0650 28.4553 40.0149 0.0000 0.0000 0.0000
# 2 28.4553 57.0650 40.0149 0.0000 0.0000 0.0000
# 3 40.0149 40.0149 88.4469 0.0000 0.0000 0.0000
# 4 0.0000 0.0000 0.0000 15.1634 0.0000 0.0000
# 5 0.0000 0.0000 0.0000 0.0000 15.1634 0.0000
# 6 0.0000 0.0000 0.0000 0.0000 0.0000 -0.2822
#
#
#
# Elastic Compliance Matrix: (Units=1/GPa)
#
#
# Indices 1 2 3 4 5 6 
#
# 1 0.027616 -0.007337 -0.009174 0.000000 0.000000 0.000000
# 2 -0.007337 0.027616 -0.009174 0.000000 0.000000 0.000000
# 3 -0.009174 -0.009174 0.019607 0.000000 0.000000 0.000000
# 4 0.000000 0.000000 0.000000 0.065948 0.000000 0.000000
# 5 0.000000 0.000000 0.000000 0.000000 0.065948 0.000000
# 6 0.000000 0.000000 0.000000 0.000000 0.000000 -3.544017
#
#
# Mechanical properties :
#
#
# Convention : Reuss Voigt Hill
#
# Bulk Modulus (GPa) = 42.61291 46.61637 44.61464
# Shear Modulus (GPa) = -1.52528 12.28172 5.37822
#
# Velocity S-wave (km/s) = -1.15908 3.28903 2.17650
# Velocity P-wave (km/s) = 5.97847 7.44871 6.75372
#
# Compressibility (1/GPa) = 0.02346707
#
# Stress axis : x y z
#
# Youngs Moduli (GPa) = 36.21110 36.21110 51.00101
#
# Poissons Ratio (x) = 0.26570 0.46790
# Poissons Ratio (y) = 0.26570 0.46790
# Poissons Ratio (z) = 0.33221 0.33221
#
# Static dielectric constant tensor:
#      x y z
#    x 2.239640 0.000000 0.000000 
#    y 0.000000 2.239640 0.000000 
#    z 0.000000 0.000000 2.575250 
# 
# 
# High freq. dielectric constant tensor:
#      x y z
#    x 1.391120 0.000000 0.000000 
#    y 0.000000 1.391120 0.000000 
#    z 0.000000 0.000000 1.444420 
# 
# From -- ./inp_files/1188.got.cif
#   From: 2010.03.12/outbox.cif.g09.slc.cpg/sg105_1_cif.got.tgz:1188.got - 2010.04.14 01:45:32.
