data_PCOD8307053
_publ_section_title
;
Structure prediction by ZEFSAII (Michael W. Deem and Ramdas Pophale) SiO2 
 PCOD8307053
Probable space group: P 4 N C 
;
_chemical_formula_sum "Si O2"
_cell_formula_units_Z 52
_cell_length_a 16.539544
_cell_length_b 16.539544
_cell_length_c 9.304251
_cell_angle_alpha 90.000000
_cell_angle_beta 90.000000
_cell_angle_gamma 90.000000
_cell_volume 2545.238485
_symmetry_space_group_name_H-M "P 4 N C "
_symmetry_group_IT_number 104
_symmetry_cell_setting 'tetragonal'
loop_
_space_group_symop_operation_xyz
x,y,z
-y,x,z
-x,-y,z
y,-x,z
1/2-x,1/2+y,1/2+z
1/2+x,1/2-y,1/2+z
1/2-y,1/2-x,1/2+z
1/2+y,1/2+x,1/2+z
loop_
_atom_site_type_symbol
_atom_site_label
_atom_site_fract_x
_atom_site_fract_y
_atom_site_fract_z
Si Si1 0.774809 0.046149 0.363220
Si Si2 0.670578 0.978424 0.826017
Si Si3 0.232531 0.672135 0.155247
Si Si4 0.000000 0.500000 0.723759
Si Si5 0.550863 0.160778 0.610136
Si Si6 0.878642 0.720290 0.642521
Si Si7 0.865914 0.210518 0.337047
O O1 0.695126 0.035741 0.267993
O O2 0.755681 0.057693 0.529464
O O3 0.823633 0.124467 0.311404
O O4 0.817518 0.959362 0.344072
O O5 0.722360 0.912044 0.740512
O O6 0.573996 0.962009 0.816741
O O7 0.688099 0.069068 0.773450
O O8 0.696964 0.987259 0.993562
O O9 0.317244 0.712183 0.203043
O O10 0.158527 0.731437 0.202793
O O11 0.239157 0.659252 0.982204
O O12 0.934488 0.536087 0.616002
O O13 0.646181 0.172139 0.570219
#
# Coordination Sequence:
#
# PCOD8307053 Si02
#       7
#     8   8   8   4   8   8   8
#     4  11  23  43  63  93 125 166 218 266 318 379
#     4  11  23  38  60  91 128 165 211 262 315 387
#     4  11  24  40  66  93 127 170 213 262 318 392
#     4  10  22  36  56  92 128 168 204 258 320 386
#     4  11  22  37  61  90 128 170 203 258 325 381
#     4  10  21  42  62  91 126 168 210 259 321 383
#     4  11  25  43  68  94 128 169 219 269 320 389
#
# _framework density 20.430306000000002
#
# number of rings (size 3 to 8) (size 9 to 14) (size 15 to 20)
#    0.000    1.231    3.077    3.231    6.462    1.538 
#    0.000    0.000    0.000    0.462    0.000    0.000 
#    0.000    0.000    0.000    0.000    0.000    0.000 
#
# Total GULP energy -644254.750937 kJ/mol
# GULP energy per Si atom -12389.514441 kJ/mol
# Density = 2.038381 g / cm^3
# Si number density = 20.430306 Si / 1000 Ang^3
#
#
#
# Elastic Constant Matrix: (Units=GPa)
#
#
# Indices 1 2 3 4 5 6 
#
# 1 97.9580 41.8088 38.3398 0.0000 0.0000 0.0000
# 2 41.8088 97.9580 38.3398 0.0000 0.0000 0.0000
# 3 38.3398 38.3398 66.9872 0.0000 0.0000 0.0000
# 4 0.0000 0.0000 0.0000 27.3855 0.0000 0.0000
# 5 0.0000 0.0000 0.0000 0.0000 27.3855 0.0000
# 6 0.0000 0.0000 0.0000 0.0000 0.0000 28.7833
#
#
#
# Elastic Compliance Matrix: (Units=1/GPa)
#
#
# Indices 1 2 3 4 5 6 
#
# 1 0.014120 -0.003690 -0.005969 0.000000 0.000000 0.000000
# 2 -0.003690 0.014120 -0.005969 0.000000 0.000000 0.000000
# 3 -0.005969 -0.005969 0.021761 0.000000 0.000000 0.000000
# 4 0.000000 0.000000 0.000000 0.036516 0.000000 0.000000
# 5 0.000000 0.000000 0.000000 0.000000 0.036516 0.000000
# 6 0.000000 0.000000 0.000000 0.000000 0.000000 0.034742
#
#
# Mechanical properties :
#
#
# Convention : Reuss Voigt Hill
#
# Bulk Modulus (GPa) = 53.35272 55.54223 54.44748
# Shear Modulus (GPa) = 25.60427 26.33851 25.97139
#
# Velocity S-wave (km/s) = 3.54397 3.59442 3.56928
# Velocity P-wave (km/s) = 6.55114 6.66871 6.61019
#
# Compressibility (1/GPa) = 0.01874319
#
# Stress axis : x y z
#
# Youngs Moduli (GPa) = 70.82290 70.82290 45.95301
#
# Poissons Ratio (x) = 0.26133 0.27431
# Poissons Ratio (y) = 0.26133 0.27431
# Poissons Ratio (z) = 0.42277 0.42277
#
# Static dielectric constant tensor:
#      x y z
#    x 3.744550 0.000000 0.000000 
#    y 0.000000 3.744550 0.000000 
#    z 0.000000 0.000000 3.624700 
# 
# 
# High freq. dielectric constant tensor:
#      x y z
#    x 1.792470 0.000000 0.000000 
#    y 0.000000 1.792470 0.000000 
#    z 0.000000 0.000000 1.796930 
# 
# From -- ./inp_files/602.got.cif
#   From: 2010.03.12/outbox.cif.g09.slc.cpg/sg104_cif.got.tgz:602.got - 2010.04.14 01:44:05.
