data_PCOD8307384
_publ_section_title
;
Structure prediction by ZEFSAII (Michael W. Deem and Ramdas Pophale) SiO2 
 PCOD8307384
Probable space group: P 42 M C
;
_chemical_formula_sum "Si O2"
_cell_formula_units_Z 40
_cell_length_a 9.595825
_cell_length_b 9.595825
_cell_length_c 25.615240
_cell_angle_alpha 90.000000
_cell_angle_beta 90.000000
_cell_angle_gamma 90.000000
_cell_volume 2358.647647
_symmetry_space_group_name_H-M "P 42 M C"
_symmetry_group_IT_number 105
_symmetry_cell_setting 'tetragonal'
loop_
_space_group_symop_operation_xyz
x,y,z
-y,x,1/2+z
-x,-y,z
y,-x,1/2+z
-x,y,z
x,-y,z
-y,-x,1/2+z
y,x,1/2+z
loop_
_atom_site_type_symbol
_atom_site_label
_atom_site_fract_x
_atom_site_fract_y
_atom_site_fract_z
Si Si1 0.343043 0.666472 0.472000
Si Si2 0.665533 0.845293 0.065421
Si Si3 0.334467 0.154707 0.878579
Si Si4 0.659326 0.836370 0.761733
Si Si5 0.340674 0.163630 0.182267
O O1 0.500000 0.725329 0.472000
O O2 0.343673 0.500000 0.472000
O O3 0.264283 0.724555 0.523329
O O4 0.264283 0.724555 0.420671
O O5 0.500000 0.851760 0.062400
O O6 0.709486 0.798443 0.123594
O O7 0.724545 0.000000 0.052878
O O8 0.500000 0.148240 0.881600
O O9 0.290514 0.201557 0.820406
O O10 0.275455 0.000000 0.891122
O O11 0.500000 0.789352 0.753239
O O12 0.755957 0.755957 0.722000
O O13 0.675150 0.000000 0.751953
O O14 0.500000 0.210648 0.190761
O O15 0.324850 0.000000 0.192047
#
# Coordination Sequence:
#
# PCOD8307384 Si02
#       5
#     8   8   8   8   8
#     4   9  15  21  33  57  86 113 144 181 218 260
#     4   8  14  25  39  55  80 114 147 179 218 264
#     4   8  14  25  39  55  80 114 147 179 218 264
#     4   9  18  31  46  66  91 119 153 190 228 273
#     4   9  18  31  46  66  91 119 153 190 228 273
#
# _framework density 16.958870000000001
#
# number of rings (size 3 to 8) (size 9 to 14) (size 15 to 20)
#    0.000    3.400    0.000    3.000    0.000    4.800 
#    0.000    4.000    0.000    0.000    0.000    1.400 
#    0.000   11.200    0.000    0.000    0.000    0.000 
#
# Total GULP energy -495761.087088 kJ/mol
# GULP energy per Si atom -12394.027177 kJ/mol
# Density = 1.692027 g / cm^3
# Si number density = 16.958870 Si / 1000 Ang^3
#
#
#
# Elastic Constant Matrix: (Units=GPa)
#
#
# Indices 1 2 3 4 5 6 
#
# 1 58.2874 29.3589 63.7950 0.0000 0.0000 0.0000
# 2 29.3589 58.2874 63.7950 0.0000 0.0000 0.0000
# 3 63.7950 63.7950 165.0185 0.0000 0.0000 0.0000
# 4 0.0000 0.0000 0.0000 -0.2139 0.0000 0.0000
# 5 0.0000 0.0000 0.0000 0.0000 -0.2139 0.0000
# 6 0.0000 0.0000 0.0000 0.0000 0.0000 17.9431
#
#
#
# Elastic Compliance Matrix: (Units=1/GPa)
#
#
# Indices 1 2 3 4 5 6 
#
# 1 0.030332 -0.004236 -0.010088 0.000000 0.000000 0.000000
# 2 -0.004236 0.030332 -0.010088 0.000000 0.000000 0.000000
# 3 -0.010088 -0.010088 0.013860 0.000000 0.000000 0.000000
# 4 0.000000 0.000000 0.000000 -4.674946 0.000000 0.000000
# 5 0.000000 0.000000 0.000000 0.000000 -4.674946 0.000000
# 6 0.000000 0.000000 0.000000 0.000000 0.000000 0.055732
#
#
# Mechanical properties :
#
#
# Convention : Reuss Voigt Hill
#
# Bulk Modulus (GPa) = 38.91397 66.16568 52.53982
# Shear Modulus (GPa) = -0.54572 11.81267 5.63347
#
# Velocity S-wave (km/s) = -0.56788 2.64208 1.82457
# Velocity P-wave (km/s) = 4.75036 6.95755 5.95707
#
# Compressibility (1/GPa) = 0.02569772
#
# Stress axis : x y z
#
# Youngs Moduli (GPa) = 32.96876 32.96876 72.14955
#
# Poissons Ratio (x) = 0.13966 0.72787
# Poissons Ratio (y) = 0.13966 0.72787
# Poissons Ratio (z) = 0.33260 0.33260
#
# Static dielectric constant tensor:
#      x y z
#    x 2.941130 0.000000 0.000000 
#    y 0.000000 2.941130 0.000000 
#    z 0.000000 0.000000 3.470600 
# 
# 
# High freq. dielectric constant tensor:
#      x y z
#    x 1.618180 0.000000 0.000000 
#    y 0.000000 1.618180 0.000000 
#    z 0.000000 0.000000 1.670060 
# 
# From -- ./inp_files/3915.got.cif
#   From: 2010.03.12/outbox.cif.g09.slc.cpg/sg105_2_cif.got.tgz:3915.got - 2010.04.14 01:45:32.
