data_PCOD8307429
_publ_section_title
;
Structure prediction by ZEFSAII (Michael W. Deem and Ramdas Pophale) SiO2 
 PCOD8307429
Probable space group: P 42 B C
;
_chemical_formula_sum "Si O2"
_cell_formula_units_Z 60
_cell_length_a 19.053456
_cell_length_b 19.053456
_cell_length_c 8.986595
_cell_angle_alpha 90.000000
_cell_angle_beta 90.000000
_cell_angle_gamma 90.000000
_cell_volume 3262.441197
_symmetry_space_group_name_H-M "P 42 B C"
_symmetry_group_IT_number 106
_symmetry_cell_setting 'tetragonal'
loop_
_space_group_symop_operation_xyz
x,y,z
-y,x,1/2+z
-x,-y,z
y,-x,1/2+z
1/2-x,1/2+y,z
1/2+x,1/2-y,z
1/2-y,1/2-x,1/2+z
1/2+y,1/2+x,1/2+z
loop_
_atom_site_type_symbol
_atom_site_label
_atom_site_fract_x
_atom_site_fract_y
_atom_site_fract_z
Si Si1 0.043023 0.589939 0.175350
Si Si2 0.247289 0.680509 0.105479
Si Si3 0.000000 0.500000 0.928812
Si Si4 0.275348 0.873240 0.647172
Si Si5 0.280262 0.890239 0.300726
Si Si6 0.785478 0.839155 0.775547
Si Si7 0.968638 0.303834 0.632516
Si Si8 0.733623 0.981915 0.793621
O O1 0.001459 0.568159 0.324525
O O2 0.114412 0.546694 0.156844
O O3 0.052430 0.672480 0.190901
O O4 0.995636 0.569891 0.032001
O O5 0.320152 0.710862 0.167504
O O6 0.183979 0.732461 0.146168
O O7 0.238269 0.602481 0.172540
O O8 0.245699 0.679871 0.927828
O O9 0.293349 0.889577 0.476647
O O10 0.345214 0.841843 0.723054
O O11 0.246956 0.942534 0.729507
O O12 0.202937 0.858611 0.262735
O O13 0.280153 0.969739 0.242754
O O14 0.796436 0.924265 0.773365
O O15 0.991502 0.288544 0.464163
#
# Coordination Sequence:
#
# PCOD8307429 Si02
#       8
#     8   8   4   8   8   8   8   8
#     4  11  22  34  48  74 106 148 176 211 256 312
#     4   9  19  37  55  78 106 139 180 226 267 319
#     4  10  24  34  44  66 112 146 172 210 248 312
#     4  10  22  36  55  79 110 143 179 221 271 321
#     4  10  22  36  55  79 110 143 179 221 271 321
#     4   9  19  37  55  78 106 139 180 226 267 319
#     4  11  22  35  56  79 106 141 182 222 268 318
#     4  11  22  35  56  79 106 141 182 222 268 318
#
# _framework density 18.391134999999998
#
# number of rings (size 3 to 8) (size 9 to 14) (size 15 to 20)
#    0.000    1.867    2.667    0.800    5.600    2.133 
#    0.000    0.000    0.000    0.800    0.000    5.600 
#    0.000    0.000    0.000    0.000    0.000    0.000 
#
# Total GULP energy -743712.584810 kJ/mol
# GULP energy per Si atom -12395.209747 kJ/mol
# Density = 1.834928 g / cm^3
# Si number density = 18.391135 Si / 1000 Ang^3
#
#
#
# Elastic Constant Matrix: (Units=GPa)
#
#
# Indices 1 2 3 4 5 6 
#
# 1 86.5679 36.8189 31.2068 0.0000 0.0000 0.0000
# 2 36.8189 86.5679 31.2068 0.0000 0.0000 0.0000
# 3 31.2068 31.2068 84.6772 0.0000 0.0000 0.0000
# 4 0.0000 0.0000 0.0000 22.8392 0.0000 0.0000
# 5 0.0000 0.0000 0.0000 0.0000 22.8392 0.0000
# 6 0.0000 0.0000 0.0000 0.0000 0.0000 27.2061
#
#
#
# Elastic Compliance Matrix: (Units=1/GPa)
#
#
# Indices 1 2 3 4 5 6 
#
# 1 0.015031 -0.005070 -0.003671 0.000000 0.000000 0.000000
# 2 -0.005070 0.015031 -0.003671 0.000000 0.000000 0.000000
# 3 -0.003671 -0.003671 0.014516 0.000000 0.000000 0.000000
# 4 0.000000 0.000000 0.000000 0.043784 0.000000 0.000000
# 5 0.000000 0.000000 0.000000 0.000000 0.043784 0.000000
# 6 0.000000 0.000000 0.000000 0.000000 0.000000 0.036756
#
#
# Mechanical properties :
#
#
# Convention : Reuss Voigt Hill
#
# Bulk Modulus (GPa) = 50.62307 50.69757 50.66032
# Shear Modulus (GPa) = 24.96104 25.14894 25.05499
#
# Velocity S-wave (km/s) = 3.68806 3.70192 3.69499
# Velocity P-wave (km/s) = 6.76175 6.77483 6.76830
#
# Compressibility (1/GPa) = 0.01975384
#
# Stress axis : x y z
#
# Youngs Moduli (GPa) = 66.52797 66.52797 68.89161
#
# Poissons Ratio (x) = 0.33727 0.25292
# Poissons Ratio (y) = 0.33727 0.25292
# Poissons Ratio (z) = 0.24424 0.24424
#
# Static dielectric constant tensor:
#      x y z
#    x 3.342760 0.000000 0.000000 
#    y 0.000000 3.342760 0.000000 
#    z 0.000000 0.000000 3.535670 
# 
# 
# High freq. dielectric constant tensor:
#      x y z
#    x 1.696100 0.000000 0.000000 
#    y 0.000000 1.696100 0.000000 
#    z 0.000000 0.000000 1.727650 
# 
# From -- ./inp_files/554.got.cif
#   From: 2010.03.12/outbox.cif.g09.slc.cpg/sg106_cif.got.tgz:554.got - 2010.04.14 01:48:02.
