data_PCOD8307759
_publ_section_title
;
Structure prediction by ZEFSAII (Michael W. Deem and Ramdas Pophale) SiO2 
 PCOD8307759
Probable space group: I 4 C M
;
_chemical_formula_sum "Si O2"
_cell_formula_units_Z 96
_cell_length_a 22.694935
_cell_length_b 22.694935
_cell_length_c 9.590603
_cell_angle_alpha 90.000000
_cell_angle_beta 90.000000
_cell_angle_gamma 90.000000
_cell_volume 4939.736697
_symmetry_space_group_name_H-M "I 4 C M"
_symmetry_group_IT_number 108
_symmetry_cell_setting 'tetragonal'
loop_
_space_group_symop_operation_xyz
x,y,z
-y,x,z
-x,-y,z
y,-x,z
-x,y,1/2+z
x,-y,1/2+z
-y,-x,1/2+z
y,x,1/2+z
1/2+x,1/2+y,1/2+z
1/2-y,1/2+x,1/2+z
1/2-x,1/2-y,1/2+z
1/2+y,1/2-x,1/2+z
1/2-x,1/2+y,z
1/2+x,1/2-y,z
1/2-y,1/2-x,z
1/2+y,1/2+x,z
loop_
_atom_site_type_symbol
_atom_site_label
_atom_site_fract_x
_atom_site_fract_y
_atom_site_fract_z
Si Si1 0.877783 0.377783 0.318918
Si Si2 0.704383 0.204383 0.080570
Si Si3 0.255479 0.500510 0.998338
Si Si4 0.385001 0.885001 0.152080
Si Si5 0.379896 0.701523 0.595275
Si Si6 0.797762 0.875204 0.425487
Si Si7 0.327644 0.995432 0.248505
Si Si8 0.702365 0.202365 0.642796
O O1 0.886551 0.386551 0.483360
O O2 0.856065 0.439590 0.254308
O O3 0.828569 0.328569 0.277487
O O4 0.664754 0.164754 0.186785
O O5 0.740943 0.160296 0.980129
O O6 0.746940 0.246940 0.173601
O O7 0.297882 0.551926 0.054311
O O8 0.293870 0.444551 0.953991
O O9 0.211695 0.482597 0.116719
O O10 0.214437 0.521771 0.874187
O O11 0.377104 0.947012 0.228700
O O12 0.354743 0.647259 0.507755
O O13 0.348072 0.763756 0.553230
O O14 0.366929 0.693911 0.759920
#
# Coordination Sequence:
#
# PCOD8307759 Si02
#       8
#     8   8  16   8  16  16  16   8
#     4  12  22  44  63  87 132 166 221 276 327 372
#     4  10  20  36  60  91 130 161 208 264 325 390
#     4  12  23  43  65  95 130 168 218 260 325 386
#     4  12  24  43  64  91 124 173 221 274 324 381
#     4  11  24  38  63  94 130 169 210 265 321 390
#     4  11  23  39  62  93 129 169 211 265 322 388
#     4  12  25  41  69  91 123 178 218 270 320 375
#     4  10  20  35  59  89 126 164 202 258 328 381
#
# _framework density 19.434234
#
# number of rings (size 3 to 8) (size 9 to 14) (size 15 to 20)
#    0.000    0.667    6.667    1.500    2.333    1.667 
#    0.000    2.500    0.000    0.500    0.000    2.333 
#    0.000    0.000    0.000    0.000    0.000    0.000 
#
# Total GULP energy -594742.585062 kJ/mol
# GULP energy per Si atom -12390.470522 kJ/mol
# Density = 1.939000 g / cm^3
# Si number density = 19.434234 Si / 1000 Ang^3
#
#
#
# Elastic Constant Matrix: (Units=GPa)
#
#
# Indices 1 2 3 4 5 6 
#
# 1 109.9260 50.0059 34.5569 0.0000 0.0000 0.0000
# 2 50.0059 109.9260 34.5569 0.0000 0.0000 0.0000
# 3 34.5569 34.5569 106.3587 0.0000 0.0000 0.0000
# 4 0.0000 0.0000 0.0000 25.3741 0.0000 0.0000
# 5 0.0000 0.0000 0.0000 0.0000 25.3741 0.0000
# 6 0.0000 0.0000 0.0000 0.0000 0.0000 37.4821
#
#
#
# Elastic Compliance Matrix: (Units=1/GPa)
#
#
# Indices 1 2 3 4 5 6 
#
# 1 0.011981 -0.004707 -0.002363 0.000000 0.000000 0.000000
# 2 -0.004707 0.011981 -0.002363 0.000000 0.000000 0.000000
# 3 -0.002363 -0.002363 0.010938 0.000000 0.000000 0.000000
# 4 0.000000 0.000000 0.000000 0.039410 0.000000 0.000000
# 5 0.000000 0.000000 0.000000 0.000000 0.039410 0.000000
# 6 0.000000 0.000000 0.000000 0.000000 0.000000 0.026679
#
#
# Mechanical properties :
#
#
# Convention : Reuss Voigt Hill
#
# Bulk Modulus (GPa) = 62.37390 62.71670 62.54530
# Shear Modulus (GPa) = 30.37424 31.45215 30.91319
#
# Velocity S-wave (km/s) = 3.95767 4.02728 3.99263
# Velocity P-wave (km/s) = 7.28346 7.34620 7.31490
#
# Compressibility (1/GPa) = 0.01603235
#
# Stress axis : x y z
#
# Youngs Moduli (GPa) = 83.46250 83.46250 91.42506
#
# Poissons Ratio (x) = 0.39289 0.21607
# Poissons Ratio (y) = 0.39289 0.21607
# Poissons Ratio (z) = 0.19725 0.19725
#
# Static dielectric constant tensor:
#      x y z
#    x 3.695920 0.000000 0.000000 
#    y 0.000000 3.695920 0.000000 
#    z 0.000000 0.000000 3.573760 
# 
# 
# High freq. dielectric constant tensor:
#      x y z
#    x 1.751810 0.000000 0.000000 
#    y 0.000000 1.751810 0.000000 
#    z 0.000000 0.000000 1.760970 
# 
# From -- ./inp_files/839.got.cif
#   From: 2010.03.12/outbox.cif.g09.slc.cpg/sg108_1_cif.got.tgz:839.got - 2010.04.14 01:53:11.
