data_PCOD8307416
_publ_section_title
;
Structure prediction by ZEFSAII (Michael W. Deem and Ramdas Pophale) SiO2 
 PCOD8307416
Probable space group: P 42 B C
;
_chemical_formula_sum "Si O2"
_cell_formula_units_Z 56
_cell_length_a 12.299262
_cell_length_b 12.299262
_cell_length_c 18.503588
_cell_angle_alpha 90.000000
_cell_angle_beta 90.000000
_cell_angle_gamma 90.000000
_cell_volume 2799.071910
_symmetry_space_group_name_H-M "P 42 B C"
_symmetry_group_IT_number 106
_symmetry_cell_setting 'tetragonal'
loop_
_space_group_symop_operation_xyz
x,y,z
-y,x,1/2+z
-x,-y,z
y,-x,1/2+z
1/2-x,1/2+y,z
1/2+x,1/2-y,z
1/2-y,1/2-x,1/2+z
1/2+y,1/2+x,1/2+z
loop_
_atom_site_type_symbol
_atom_site_label
_atom_site_fract_x
_atom_site_fract_y
_atom_site_fract_z
Si Si1 0.623010 0.127421 0.754530
Si Si2 0.280155 0.260814 0.854943
Si Si3 0.462620 0.379392 0.924994
Si Si4 0.127421 0.623010 0.233381
Si Si5 0.179488 0.179488 0.993955
Si Si6 0.620608 0.537380 0.062917
Si Si7 0.280155 0.739186 0.632968
O O1 0.676138 0.164060 0.831750
O O2 0.500000 0.172575 0.743955
O O3 0.704064 0.170596 0.693534
O O4 0.622273 1.000000 0.743955
O O5 0.392917 0.329165 0.859740
O O6 0.295936 0.170596 0.794377
O O7 0.267030 0.197950 0.930881
O O8 0.500000 0.500000 0.901236
O O9 0.565063 0.307814 0.951499
O O10 0.383711 0.383711 0.993955
O O11 0.164060 0.676138 0.156161
O O12 0.197950 0.267030 0.057030
O O13 0.192186 0.065063 0.036412
O O14 0.500000 0.500000 0.086675
O O15 0.670835 0.607083 0.128171
#
# Coordination Sequence:
#
# PCOD8307416 Si02
#       7
#     8   8   8   8   8   8   8
#     4  10  24  41  58  85 124 162 205 250 301 370
#     4  11  21  39  64  86 121 164 199 250 313 359
#     4   9  20  36  57  91 122 148 195 257 298 364
#     4  10  24  41  58  85 124 162 205 250 301 370
#     4  10  21  34  63  90 118 148 204 248 303 362
#     4   9  20  36  57  91 122 148 195 257 298 364
#     4  11  21  39  64  86 121 164 199 250 313 359
#
# _framework density 20.006632
#
# number of rings (size 3 to 8) (size 9 to 14) (size 15 to 20)
#    0.000    2.286    1.429    1.714    8.000    0.000 
#    0.000    0.000    0.000    3.429    0.000    0.000 
#    0.000    0.000    0.000    0.000    0.000    0.000 
#
# Total GULP energy -693888.538824 kJ/mol
# GULP energy per Si atom -12390.866765 kJ/mol
# Density = 1.996110 g / cm^3
# Si number density = 20.006632 Si / 1000 Ang^3
#
#
#
# Elastic Constant Matrix: (Units=GPa)
#
#
# Indices 1 2 3 4 5 6 
#
# 1 90.3910 51.6456 39.0269 0.0000 0.0000 0.0000
# 2 51.6456 90.3910 39.0269 0.0000 0.0000 0.0000
# 3 39.0269 39.0269 87.5793 0.0000 0.0000 0.0000
# 4 0.0000 0.0000 0.0000 27.9348 0.0000 0.0000
# 5 0.0000 0.0000 0.0000 0.0000 27.9348 0.0000
# 6 0.0000 0.0000 0.0000 0.0000 0.0000 32.8799
#
#
#
# Elastic Compliance Matrix: (Units=1/GPa)
#
#
# Indices 1 2 3 4 5 6 
#
# 1 0.017567 -0.008243 -0.004155 0.000000 0.000000 0.000000
# 2 -0.008243 0.017567 -0.004155 0.000000 0.000000 0.000000
# 3 -0.004155 -0.004155 0.015121 0.000000 0.000000 0.000000
# 4 0.000000 0.000000 0.000000 0.035798 0.000000 0.000000
# 5 0.000000 0.000000 0.000000 0.000000 0.035798 0.000000
# 6 0.000000 0.000000 0.000000 0.000000 0.000000 0.030414
#
#
# Mechanical properties :
#
#
# Convention : Reuss Voigt Hill
#
# Bulk Modulus (GPa) = 58.31156 58.64001 58.47578
# Shear Modulus (GPa) = 26.16640 26.99402 26.58021
#
# Velocity S-wave (km/s) = 3.62039 3.67720 3.64891
# Velocity P-wave (km/s) = 6.83270 6.88498 6.85889
#
# Compressibility (1/GPa) = 0.01714926
#
# Stress axis : x y z
#
# Youngs Moduli (GPa) = 56.92627 56.92627 66.13281
#
# Poissons Ratio (x) = 0.46924 0.27477
# Poissons Ratio (y) = 0.46924 0.27477
# Poissons Ratio (z) = 0.23652 0.23652
#
# Static dielectric constant tensor:
#      x y z
#    x 3.670070 0.000000 0.000000 
#    y 0.000000 3.670070 0.000000 
#    z 0.000000 0.000000 3.598110 
# 
# 
# High freq. dielectric constant tensor:
#      x y z
#    x 1.777240 0.000000 0.000000 
#    y 0.000000 1.777240 0.000000 
#    z 0.000000 0.000000 1.774720 
# 
# From -- ./inp_files/1595.got.cif
#   From: 2010.03.12/outbox.cif.g09.slc.cpg/sg106_cif.got.tgz:1595.got - 2010.04.14 01:48:02.
