data_PCOD8307835
_publ_section_title
;
Structure prediction by ZEFSAII (Michael W. Deem and Ramdas Pophale) SiO2 
 PCOD8307835
Probable space group: I 41 M D
;
_chemical_formula_sum "Si O2"
_cell_formula_units_Z 128
_cell_length_a 20.536741
_cell_length_b 20.536741
_cell_length_c 18.091481
_cell_angle_alpha 90.000000
_cell_angle_beta 90.000000
_cell_angle_gamma 90.000000
_cell_volume 7630.221975
_symmetry_space_group_name_H-M "I 41 M D"
_symmetry_group_IT_number 109
_symmetry_cell_setting 'tetragonal'
loop_
_space_group_symop_operation_xyz
x,y,z
-y,1/2+x,1/4+z
-x,-y,z
y,1/2-x,1/4+z
-x,y,z
x,-y,z
-y,1/2-x,1/4+z
y,1/2+x,1/4+z
1/2+x,1/2+y,1/2+z
1/2-y,x,3/4+z
1/2-x,1/2-y,1/2+z
1/2+y,-x,3/4+z
1/2-x,1/2+y,1/2+z
1/2+x,1/2-y,1/2+z
1/2-y,-x,3/4+z
1/2+y,x,3/4+z
loop_
_atom_site_type_symbol
_atom_site_label
_atom_site_fract_x
_atom_site_fract_y
_atom_site_fract_z
Si Si1 0.923699 0.314704 0.339710
Si Si2 0.211897 0.928947 0.501627
Si Si3 0.256979 0.195776 0.587254
Si Si4 0.072114 0.832768 0.359231
Si Si5 0.428273 0.611938 0.021454
Si Si6 0.684982 0.213000 0.736447
Si Si7 0.663679 0.636015 0.736772
Si Si8 0.233702 0.387341 0.849222
O O1 0.903439 0.241212 0.359829
O O2 0.875730 0.328860 0.270521
O O3 0.903835 0.356016 0.412654
O O4 0.000000 0.325656 0.319950
O O5 0.249535 0.871645 0.543149
O O6 0.135314 0.933567 0.525071
O O7 0.222806 0.918310 0.414020
O O8 0.240759 0.000000 0.522746
O O9 0.301041 0.179241 0.658016
O O10 0.291380 0.251167 0.538058
O O11 0.188369 0.222378 0.617672
O O12 0.078260 0.856648 0.441658
O O13 0.111942 0.876790 0.301877
O O14 0.000000 0.835671 0.328014
O O15 0.500000 0.577159 0.028982
O O16 0.424850 0.665692 0.086808
O O17 0.667192 0.287654 0.718544
O O18 0.730710 0.607904 0.769900
#
# Coordination Sequence:
#
# PCOD8307835 Si02
#       8
#    16  16  16  16  16  16  16  16
#     4  10  19  29  47  76 105 131 164 205 247 291
#     4  11  22  33  48  72  99 129 171 218 256 299
#     4  10  19  32  52  75 100 129 164 211 256 300
#     4   9  17  28  41  63  98 138 172 199 233 288
#     4  10  19  31  45  63  98 141 169 196 240 298
#     4  10  18  31  52  76 101 132 167 205 252 299
#     4  10  17  26  45  70 102 133 165 203 242 285
#     4  10  18  28  46  73 100 126 165 207 247 291
#
# _framework density 16.775397000000002
#
# number of rings (size 3 to 8) (size 9 to 14) (size 15 to 20)
#    0.000    2.000    5.000    0.375    0.000    0.750 
#    0.000    0.000    0.000    1.875    0.000    0.000 
#    0.000    0.000    0.000    0.000    0.000    0.000 
#
# Total GULP energy -792962.963363 kJ/mol
# GULP energy per Si atom -12390.046303 kJ/mol
# Density = 1.673721 g / cm^3
# Si number density = 16.775397 Si / 1000 Ang^3
#
#
#
# Elastic Constant Matrix: (Units=GPa)
#
#
# Indices 1 2 3 4 5 6 
#
# 1 61.3308 10.6827 33.9099 0.0000 0.0000 0.0000
# 2 10.6827 61.3308 33.9099 0.0000 0.0000 0.0000
# 3 33.9099 33.9099 92.0558 0.0000 0.0000 0.0000
# 4 0.0000 0.0000 0.0000 17.6432 0.0000 0.0000
# 5 0.0000 0.0000 0.0000 0.0000 17.6432 0.0000
# 6 0.0000 0.0000 0.0000 0.0000 0.0000 8.8025
#
#
#
# Elastic Compliance Matrix: (Units=1/GPa)
#
#
# Indices 1 2 3 4 5 6 
#
# 1 0.020503 0.000759 -0.007832 0.000000 0.000000 0.000000
# 2 0.000759 0.020503 -0.007832 0.000000 0.000000 0.000000
# 3 -0.007832 -0.007832 0.016633 0.000000 0.000000 0.000000
# 4 0.000000 0.000000 0.000000 0.056679 0.000000 0.000000
# 5 0.000000 0.000000 0.000000 0.000000 0.056679 0.000000
# 6 0.000000 0.000000 0.000000 0.000000 0.000000 0.113604
#
#
# Mechanical properties :
#
#
# Convention : Reuss Voigt Hill
#
# Bulk Modulus (GPa) = 35.93375 41.30249 38.61812
# Shear Modulus (GPa) = 15.44690 17.89877 16.67284
#
# Velocity S-wave (km/s) = 3.03777 3.26999 3.15602
# Velocity P-wave (km/s) = 5.81129 6.23950 6.02920
#
# Compressibility (1/GPa) = 0.02782899
#
# Stress axis : x y z
#
# Youngs Moduli (GPa) = 48.77268 48.77268 60.12059
#
# Poissons Ratio (x) = -0.03703 0.47088
# Poissons Ratio (y) = -0.03703 0.47088
# Poissons Ratio (z) = 0.38200 0.38200
#
# Static dielectric constant tensor:
#      x y z
#    x 3.017220 0.000000 0.000000 
#    y 0.000000 3.017220 0.000000 
#    z 0.000000 0.000000 3.065990 
# 
# 
# High freq. dielectric constant tensor:
#      x y z
#    x 1.620430 0.000000 0.000000 
#    y 0.000000 1.620430 0.000000 
#    z 0.000000 0.000000 1.638300 
# 
# From -- ./inp_files/3300.got.cif
#   From: 2010.03.12/outbox.cif.g09.slc.cpg/sg109_2_cif.got.tgz:3300.got - 2010.04.14 01:55:16.
