data_PCOD8307325
_publ_section_title
;
Structure prediction by ZEFSAII (Michael W. Deem and Ramdas Pophale) SiO2 
 PCOD8307325
Probable space group: P 42 M C
;
_chemical_formula_sum "Si O2"
_cell_formula_units_Z 48
_cell_length_a 9.131766
_cell_length_b 9.131766
_cell_length_c 31.629426
_cell_angle_alpha 90.000000
_cell_angle_beta 90.000000
_cell_angle_gamma 90.000000
_cell_volume 2637.550958
_symmetry_space_group_name_H-M "P 42 M C"
_symmetry_group_IT_number 105
_symmetry_cell_setting 'tetragonal'
loop_
_space_group_symop_operation_xyz
x,y,z
-y,x,1/2+z
-x,-y,z
y,-x,1/2+z
-x,y,z
x,-y,z
-y,-x,1/2+z
y,x,1/2+z
loop_
_atom_site_type_symbol
_atom_site_label
_atom_site_fract_x
_atom_site_fract_y
_atom_site_fract_z
Si Si1 0.331707 0.171830 0.469260
Si Si2 0.830521 0.327435 0.636751
Si Si3 0.171653 0.832571 0.297068
Si Si4 0.328901 0.829044 0.712927
Si Si5 0.326774 0.828397 0.560907
Si Si6 0.825235 0.666051 0.878941
O O1 0.500000 0.214594 0.466622
O O2 0.271153 0.230088 0.514399
O O3 0.264242 0.229900 0.424406
O O4 0.311723 0.000000 0.471630
O O5 0.808136 0.500000 0.636996
O O6 0.747293 0.261198 0.676403
O O7 0.763277 0.264535 0.594080
O O8 0.000000 0.282990 0.639472
O O9 0.224404 0.737119 0.257434
O O10 0.242070 0.764193 0.339495
O O11 0.000000 0.822013 0.303343
O O12 0.222044 0.000000 0.289486
O O13 0.500000 0.794581 0.712713
O O14 0.296886 0.000000 0.705430
O O15 0.500000 0.800882 0.566458
O O16 0.292692 0.000000 0.567298
O O17 0.769376 0.500000 0.873868
O O18 0.000000 0.670497 0.878915
#
# Coordination Sequence:
#
# PCOD8307325 Si02
#       6
#     8   8   8   8   8   8
#     4   7  11  22  42  69  98 125 156 196 237 276
#     4  11  24  38  51  71 100 130 160 198 246 298
#     4   9  17  29  46  70  99 127 155 193 241 287
#     4  10  21  37  56  75  95 124 164 205 244 291
#     4   9  17  31  53  78 101 128 165 205 243 286
#     4   8  13  23  42  68  97 128 160 194 233 277
#
# _framework density 18.198699999999999
#
# number of rings (size 3 to 8) (size 9 to 14) (size 15 to 20)
#    0.000    3.000    0.000    3.500    0.000    5.333 
#    0.000    2.500    0.000    4.000    0.000    4.667 
#    0.000    0.000    0.000    0.000    0.000    0.000 
#
# Total GULP energy -594646.270086 kJ/mol
# GULP energy per Si atom -12388.463960 kJ/mol
# Density = 1.815728 g / cm^3
# Si number density = 18.198700 Si / 1000 Ang^3
#
#
#
# Elastic Constant Matrix: (Units=GPa)
#
#
# Indices 1 2 3 4 5 6 
#
# 1 58.9546 38.7388 66.7880 0.0000 0.0000 0.0000
# 2 38.7388 58.9546 66.7880 0.0000 0.0000 0.0000
# 3 66.7880 66.7880 219.5447 0.0000 0.0000 0.0000
# 4 0.0000 0.0000 0.0000 62.3241 0.0000 0.0000
# 5 0.0000 0.0000 0.0000 0.0000 62.3241 0.0000
# 6 0.0000 0.0000 0.0000 0.0000 0.0000 19.0923
#
#
#
# Elastic Compliance Matrix: (Units=1/GPa)
#
#
# Indices 1 2 3 4 5 6 
#
# 1 0.033496 -0.015970 -0.005332 0.000000 0.000000 0.000000
# 2 -0.015970 0.033496 -0.005332 0.000000 0.000000 0.000000
# 3 -0.005332 -0.005332 0.007799 0.000000 0.000000 0.000000
# 4 0.000000 0.000000 0.000000 0.016045 0.000000 0.000000
# 5 0.000000 0.000000 0.000000 0.000000 0.016045 0.000000
# 6 0.000000 0.000000 0.000000 0.000000 0.000000 0.052377
#
#
# Mechanical properties :
#
#
# Convention : Reuss Voigt Hill
#
# Bulk Modulus (GPa) = 46.45912 75.78705 61.12308
# Shear Modulus (GPa) = 22.75832 39.75739 31.25785
#
# Velocity S-wave (km/s) = 3.54014 4.67907 4.14887
# Velocity P-wave (km/s) = 6.50341 8.42177 7.52398
#
# Compressibility (1/GPa) = 0.02152430
#
# Stress axis : x y z
#
# Youngs Moduli (GPa) = 29.85421 29.85421 128.22577
#
# Poissons Ratio (x) = 0.47678 0.68365
# Poissons Ratio (y) = 0.47678 0.68365
# Poissons Ratio (z) = 0.15917 0.15917
#
# Static dielectric constant tensor:
#      x y z
#    x 3.106680 0.000000 0.000000 
#    y 0.000000 3.106680 0.000000 
#    z 0.000000 0.000000 4.001590 
# 
# 
# High freq. dielectric constant tensor:
#      x y z
#    x 1.670940 0.000000 0.000000 
#    y 0.000000 1.670940 0.000000 
#    z 0.000000 0.000000 1.738150 
# 
# From -- ./inp_files/4700.got.cif
#   From: 2010.03.12/outbox.cif.g09.slc.cpg/sg105_3_cif.got.tgz:4700.got - 2010.04.14 01:45:32.
