data_PCOD8307094
_publ_section_title
;
Structure prediction by ZEFSAII (Michael W. Deem and Ramdas Pophale) SiO2 
 PCOD8307094
Probable space group: P 4 N C 
;
_chemical_formula_sum "Si O2"
_cell_formula_units_Z 50
_cell_length_a 8.566292
_cell_length_b 8.566292
_cell_length_c 30.737293
_cell_angle_alpha 90.000000
_cell_angle_beta 90.000000
_cell_angle_gamma 90.000000
_cell_volume 2255.544321
_symmetry_space_group_name_H-M "P 4 N C "
_symmetry_group_IT_number 104
_symmetry_cell_setting 'tetragonal'
loop_
_space_group_symop_operation_xyz
x,y,z
-y,x,z
-x,-y,z
y,-x,z
1/2-x,1/2+y,1/2+z
1/2+x,1/2-y,1/2+z
1/2-y,1/2-x,1/2+z
1/2+y,1/2+x,1/2+z
loop_
_atom_site_type_symbol
_atom_site_label
_atom_site_fract_x
_atom_site_fract_y
_atom_site_fract_z
Si Si1 0.226273 0.116509 0.984200
Si Si2 0.385969 0.269393 0.654004
Si Si3 0.772429 0.882714 0.731927
Si Si4 0.500000 0.500000 0.053136
Si Si5 0.264803 0.603383 0.906761
Si Si6 0.110685 0.769955 0.830416
Si Si7 0.587813 0.835952 0.068515
O O1 0.358267 0.172630 0.950671
O O2 0.066150 0.206733 0.975462
O O3 0.275736 0.159103 0.032662
O O4 0.569699 0.293100 0.650079
O O5 0.357391 0.187063 0.700315
O O6 0.321458 0.158956 0.616494
O O7 0.713206 0.857566 0.781309
O O8 0.934265 0.793878 0.723412
O O9 0.472136 0.687500 0.060749
O O10 0.297114 0.421630 0.907375
O O11 0.167246 0.638112 0.863475
O O12 0.928765 0.796152 0.839209
O O13 0.500000 0.000000 0.063571
#
# Coordination Sequence:
#
# PCOD8307094 Si02
#       7
#     8   8   8   2   8   8   8
#     4  11  25  45  69  98 133 177 225 285 350 417
#     4  11  25  43  63  96 138 179 225 287 351 417
#     4   9  21  39  66  97 130 173 230 284 341 418
#     4  12  28  44  76 104 132 188 236 288 348 436
#     4  11  26  41  62  95 135 175 226 283 343 418
#     4   9  19  41  66  94 129 172 224 282 341 412
#     4  12  28  47  72 105 137 184 231 291 353 422
#
# _framework density 22.167598999999999
#
# number of rings (size 3 to 8) (size 9 to 14) (size 15 to 20)
#    0.000    1.440    0.000    4.800    8.960    5.760 
#    0.000    4.800    0.000    0.000    0.000    0.000 
#    0.000    0.000    0.000    0.000    0.000    0.000 
#
# Total GULP energy -619463.940599 kJ/mol
# GULP energy per Si atom -12389.278812 kJ/mol
# Density = 2.211714 g / cm^3
# Si number density = 22.167599 Si / 1000 Ang^3
#
#
#
# Elastic Constant Matrix: (Units=GPa)
#
#
# Indices 1 2 3 4 5 6 
#
# 1 62.3402 29.3946 17.5038 0.0000 0.0000 0.0000
# 2 29.3946 62.3402 17.5038 0.0000 0.0000 0.0000
# 3 17.5038 17.5038 109.4147 0.0000 0.0000 0.0000
# 4 0.0000 0.0000 0.0000 33.9126 0.0000 0.0000
# 5 0.0000 0.0000 0.0000 0.0000 33.9126 0.0000
# 6 0.0000 0.0000 0.0000 0.0000 0.0000 67.1448
#
#
#
# Elastic Compliance Matrix: (Units=1/GPa)
#
#
# Indices 1 2 3 4 5 6 
#
# 1 0.020981 -0.009372 -0.001857 0.000000 0.000000 0.000000
# 2 -0.009372 0.020981 -0.001857 0.000000 0.000000 0.000000
# 3 -0.001857 -0.001857 0.009734 0.000000 0.000000 0.000000
# 4 0.000000 0.000000 0.000000 0.029488 0.000000 0.000000
# 5 0.000000 0.000000 0.000000 0.000000 0.029488 0.000000
# 6 0.000000 0.000000 0.000000 0.000000 0.000000 0.014893
#
#
# Mechanical properties :
#
#
# Convention : Reuss Voigt Hill
#
# Bulk Modulus (GPa) = 39.17857 40.32216 39.75036
# Shear Modulus (GPa) = 31.20215 38.30688 34.75452
#
# Velocity S-wave (km/s) = 3.75581 4.16150 3.96385
# Velocity P-wave (km/s) = 6.04321 6.42806 6.23860
#
# Compressibility (1/GPa) = 0.02552416
#
# Stress axis : x y z
#
# Youngs Moduli (GPa) = 47.66123 47.66123 102.73497
#
# Poissons Ratio (x) = 0.44666 0.19081
# Poissons Ratio (y) = 0.44666 0.19081
# Poissons Ratio (z) = 0.08852 0.08852
#
# Static dielectric constant tensor:
#      x y z
#    x 4.830350 0.000000 0.000000 
#    y 0.000000 4.830350 0.000000 
#    z 0.000000 0.000000 3.933500 
# 
# 
# High freq. dielectric constant tensor:
#      x y z
#    x 1.886460 0.000000 0.000000 
#    y 0.000000 1.886460 0.000000 
#    z 0.000000 0.000000 1.869940 
# 
# From -- ./inp_files/1949.got.cif
#   From: 2010.03.12/outbox.cif.g09.slc.cpg/sg104_cif.got.tgz:1949.got - 2010.04.14 01:44:05.
