data_PCOD8307782
_publ_section_title
;
Structure prediction by ZEFSAII (Michael W. Deem and Ramdas Pophale) SiO2 
 PCOD8307782
Probable space group: I 4 C M
;
_chemical_formula_sum "Si O2"
_cell_formula_units_Z 96
_cell_length_a 14.657380
_cell_length_b 14.657380
_cell_length_c 23.495196
_cell_angle_alpha 90.000000
_cell_angle_beta 90.000000
_cell_angle_gamma 90.000000
_cell_volume 5047.679443
_symmetry_space_group_name_H-M "I 4 C M"
_symmetry_group_IT_number 108
_symmetry_cell_setting 'tetragonal'
loop_
_space_group_symop_operation_xyz
x,y,z
-y,x,z
-x,-y,z
y,-x,z
-x,y,1/2+z
x,-y,1/2+z
-y,-x,1/2+z
y,x,1/2+z
1/2+x,1/2+y,1/2+z
1/2-y,1/2+x,1/2+z
1/2-x,1/2-y,1/2+z
1/2+y,1/2-x,1/2+z
1/2-x,1/2+y,z
1/2+x,1/2-y,z
1/2-y,1/2-x,z
1/2+y,1/2+x,z
loop_
_atom_site_type_symbol
_atom_site_label
_atom_site_fract_x
_atom_site_fract_y
_atom_site_fract_z
Si Si1 0.865625 0.067326 0.170010
Si Si2 0.426928 0.926928 0.023260
Si Si3 0.574120 0.074120 0.887543
Si Si4 0.208379 0.141770 0.781191
Si Si5 0.615933 0.257207 0.059815
Si Si6 0.128326 0.074366 0.455298
Si Si7 0.048074 0.772873 0.341326
O O1 0.794875 0.105833 0.216331
O O2 0.825582 0.081716 0.107499
O O3 0.960052 0.120397 0.177832
O O4 0.419716 0.919716 0.955364
O O5 0.500000 0.000000 0.044031
O O6 0.454195 0.827930 0.049659
O O7 0.669085 0.044259 0.860681
O O8 0.500000 0.000000 0.868574
O O9 0.302282 0.197719 0.790481
O O10 0.121675 0.208280 0.791550
O O11 0.201458 0.053834 0.822154
O O12 0.716200 0.216200 0.074930
O O13 0.624118 0.306653 0.999600
O O14 0.164097 0.087265 0.391650
O O15 0.032892 0.123216 0.465833
#
# Coordination Sequence:
#
# PCOD8307782 Si02
#       7
#    16   8   8  16  16  16  16
#     4  11  23  42  68  91 120 164 212 268 331 382
#     4   9  20  38  65  88 126 172 203 251 315 376
#     4  11  22  42  65  94 138 177 214 258 320 398
#     4  12  25  41  66  95 131 170 217 267 325 390
#     4  10  21  40  63  87 126 160 209 262 313 386
#     4  11  22  37  60  92 127 161 205 262 321 372
#     4  12  22  40  64  95 131 172 215 263 321 387
#
# _framework density 19.018639
#
# number of rings (size 3 to 8) (size 9 to 14) (size 15 to 20)
#    0.500    0.500    5.833    2.000    0.000    1.667 
#    0.000    4.167    1.833    0.000    0.000    0.000 
#    0.000    0.000    0.000    0.000    0.000    0.000 
#
# Total GULP energy -595037.562701 kJ/mol
# GULP energy per Si atom -12396.615890 kJ/mol
# Density = 1.897535 g / cm^3
# Si number density = 19.018639 Si / 1000 Ang^3
#
#
#
# Elastic Constant Matrix: (Units=GPa)
#
#
# Indices 1 2 3 4 5 6 
#
# 1 38.5683 73.1550 24.9592 0.0000 0.0000 0.0006
# 2 73.1550 38.5683 24.9592 0.0000 0.0000 -0.0006
# 3 24.9592 24.9592 90.4695 0.0000 0.0000 0.0000
# 4 0.0000 0.0000 0.0000 30.6798 0.0000 0.0000
# 5 0.0000 0.0000 0.0000 0.0000 30.6798 0.0000
# 6 0.0006 -0.0006 0.0000 0.0000 0.0000 -1.8927
#
#
#
# Elastic Compliance Matrix: (Units=1/GPa)
#
#
# Indices 1 2 3 4 5 6 
#
# 1 -0.009352 0.019561 -0.002817 0.000000 0.000000 -0.000010
# 2 0.019561 -0.009352 -0.002817 0.000000 0.000000 0.000010
# 3 -0.002817 -0.002817 0.012608 0.000000 0.000000 0.000000
# 4 0.000000 0.000000 0.000000 0.032595 0.000000 0.000000
# 5 0.000000 0.000000 0.000000 0.000000 0.032595 0.000000
# 6 -0.000010 0.000010 0.000000 0.000000 0.000000 -0.528336
#
#
# Mechanical properties :
#
#
# Convention : Reuss Voigt Hill
#
# Bulk Modulus (GPa) = 45.95672 45.97254 45.96463
# Shear Modulus (GPa) = -10.20732 14.86220 2.32744
#
# Velocity S-wave (km/s) = -2.31919 2.79848 1.10744
# Velocity P-wave (km/s) = 4.12855 5.88786 5.08487
#
# Compressibility (1/GPa) = 0.02175960
#
# Stress axis : x y z
#
# Youngs Moduli (GPa) = -106.93087 -106.93087 79.31767
#
# Poissons Ratio (x) = 2.09167 0.22340
# Poissons Ratio (y) = 2.09167 0.22340
# Poissons Ratio (z) = -0.30118 -0.30118
#
# Static dielectric constant tensor:
#      x y z
#    x 3.593030 0.000000 0.000000 
#    y 0.000000 3.593030 0.000000 
#    z 0.000000 0.000000 3.400480 
# 
# 
# High freq. dielectric constant tensor:
#      x y z
#    x 1.738630 0.000000 0.000000 
#    y 0.000000 1.738630 0.000000 
#    z 0.000000 0.000000 1.742380 
# 
# From -- ./inp_files/2949.got.cif
#   From: 2010.03.12/outbox.cif.g09.slc.cpg/sg108_2_cif.got.tgz:2949.got - 2010.04.14 01:53:11.
