data_PCOD8307557
_publ_section_title
;
Structure prediction by ZEFSAII (Michael W. Deem and Ramdas Pophale) SiO2 
 PCOD8307557
Probable space group: I 4 M M
;
_chemical_formula_sum "Si O2"
_cell_formula_units_Z 80
_cell_length_a 12.401802
_cell_length_b 12.401802
_cell_length_c 32.343920
_cell_angle_alpha 90.000000
_cell_angle_beta 90.000000
_cell_angle_gamma 90.000000
_cell_volume 4974.646681
_symmetry_space_group_name_H-M "I 4 M M"
_symmetry_group_IT_number 107
_symmetry_cell_setting 'tetragonal'
loop_
_space_group_symop_operation_xyz
x,y,z
-y,x,z
-x,-y,z
y,-x,z
-x,y,z
x,-y,z
-y,-x,z
y,x,z
1/2+x,1/2+y,1/2+z
1/2-y,1/2+x,1/2+z
1/2-x,1/2-y,1/2+z
1/2+y,1/2-x,1/2+z
1/2-x,1/2+y,1/2+z
1/2+x,1/2-y,1/2+z
1/2-y,1/2-x,1/2+z
1/2+y,1/2+x,1/2+z
loop_
_atom_site_type_symbol
_atom_site_label
_atom_site_fract_x
_atom_site_fract_y
_atom_site_fract_z
Si Si1 0.875231 0.500000 0.030690
Si Si2 0.500000 0.674193 0.186133
Si Si3 0.376550 0.793644 0.380115
Si Si4 0.000000 0.174159 0.588792
Si Si5 0.624654 0.000000 0.744182
Si Si6 0.119959 0.293378 0.298714
Si Si7 0.201495 0.377384 0.473233
O O1 0.792535 0.500000 0.068656
O O2 0.000000 0.500000 0.046305
O O3 0.850342 0.396102 0.003266
O O4 0.393707 0.606294 0.199246
O O5 0.500000 0.692942 0.137435
O O6 0.500000 0.792532 0.206183
O O7 0.500000 0.781294 0.368066
O O8 0.325293 0.674708 0.377034
O O9 0.319843 0.872748 0.347504
O O10 0.359627 0.840306 0.426253
O O11 0.106266 0.106266 0.575588
O O12 0.649571 0.102733 0.772157
O O13 0.500000 0.000000 0.728336
O O14 0.198958 0.198958 0.284848
O O15 0.000000 0.253048 0.289294
O O16 0.241725 0.500000 0.478820
O O17 0.301200 0.301200 0.484653
#
# Coordination Sequence:
#
# PCOD8307557 Si02
#       7
#     8   8  16   8   8  16  16
#     4  10  19  30  46  72  97 122 155 196 236 277
#     4   9  18  33  53  75  99 126 153 187 237 291
#     4   9  17  29  44  63  89 120 156 195 238 281
#     4   9  18  33  53  73  95 128 159 187 233 287
#     4  10  19  32  50  74  97 122 153 192 236 281
#     4  10  20  32  47  66  89 122 158 194 233 275
#     4   9  18  30  45  65  88 120 156 194 237 278
#
# _framework density 16.081544000000001
#
# number of rings (size 3 to 8) (size 9 to 14) (size 15 to 20)
#    0.000    2.600    1.000    1.800    1.400    1.000 
#    0.000    2.000    0.000    0.000    0.000    0.000 
#    0.000    0.000    0.000   37.200    0.000    0.200 
#
# Total GULP energy -495884.886196 kJ/mol
# GULP energy per Si atom -12397.122155 kJ/mol
# Density = 1.604494 g / cm^3
# Si number density = 16.081544 Si / 1000 Ang^3
#
#
#
# Elastic Constant Matrix: (Units=GPa)
#
#
# Indices 1 2 3 4 5 6 
#
# 1 110.2998 63.1031 45.0915 0.0000 0.0000 0.0003
# 2 63.1031 110.2998 45.0915 0.0000 0.0000 -0.0003
# 3 45.0915 45.0915 62.4614 0.0000 0.0000 0.0000
# 4 0.0000 0.0000 0.0000 25.7664 0.0000 0.0000
# 5 0.0000 0.0000 0.0000 0.0000 25.7664 0.0000
# 6 0.0003 -0.0003 0.0000 0.0000 0.0000 24.2564
#
#
#
# Elastic Compliance Matrix: (Units=1/GPa)
#
#
# Indices 1 2 3 4 5 6 
#
# 1 0.015211 -0.005977 -0.006666 0.000000 0.000000 0.000000
# 2 -0.005977 0.015211 -0.006666 0.000000 0.000000 0.000000
# 3 -0.006666 -0.006666 0.025634 0.000000 0.000000 0.000000
# 4 0.000000 0.000000 0.000000 0.038810 0.000000 0.000000
# 5 0.000000 0.000000 0.000000 0.000000 0.038810 0.000000
# 6 0.000000 0.000000 0.000000 0.000000 0.000000 0.041226
#
#
# Mechanical properties :
#
#
# Convention : Reuss Voigt Hill
#
# Bulk Modulus (GPa) = 57.34587 65.51483 61.43035
# Shear Modulus (GPa) = 22.79637 23.80950 23.30293
#
# Velocity S-wave (km/s) = 3.76912 3.85196 3.81077
# Velocity P-wave (km/s) = 7.39449 7.78531 7.59242
#
# Compressibility (1/GPa) = 0.01743805
#
# Stress axis : x y z
#
# Youngs Moduli (GPa) = 65.74269 65.74269 39.01025
#
# Poissons Ratio (x) = 0.39295 0.26004
# Poissons Ratio (y) = 0.39295 0.26004
# Poissons Ratio (z) = 0.43824 0.43824
#
# Static dielectric constant tensor:
#      x y z
#    x 3.031840 0.000000 0.000000 
#    y 0.000000 3.031840 0.000000 
#    z 0.000000 0.000000 2.896240 
# 
# 
# High freq. dielectric constant tensor:
#      x y z
#    x 1.618290 0.000000 0.000000 
#    y 0.000000 1.618290 0.000000 
#    z 0.000000 0.000000 1.604060 
# 
# From -- ./inp_files/6006.got.cif
#   From: 2010.03.12/outbox.cif.g09.slc.cpg/sg107_4_cif.got.tgz:6006.got - 2010.04.14 01:49:11.
