data_PCOD8307818
_publ_section_title
;
Structure prediction by ZEFSAII (Michael W. Deem and Ramdas Pophale) SiO2 
 PCOD8307818
Probable space group: I 4 C M
;
_chemical_formula_sum "Si O2"
_cell_formula_units_Z 80
_cell_length_a 11.804342
_cell_length_b 11.804342
_cell_length_c 28.612989
_cell_angle_alpha 90.000000
_cell_angle_beta 90.000000
_cell_angle_gamma 90.000000
_cell_volume 3987.005135
_symmetry_space_group_name_H-M "I 4 C M"
_symmetry_group_IT_number 108
_symmetry_cell_setting 'tetragonal'
loop_
_space_group_symop_operation_xyz
x,y,z
-y,x,z
-x,-y,z
y,-x,z
-x,y,1/2+z
x,-y,1/2+z
-y,-x,1/2+z
y,x,1/2+z
1/2+x,1/2+y,1/2+z
1/2-y,1/2+x,1/2+z
1/2-x,1/2-y,1/2+z
1/2+y,1/2-x,1/2+z
1/2-x,1/2+y,z
1/2+x,1/2-y,z
1/2-y,1/2-x,z
1/2+y,1/2+x,z
loop_
_atom_site_type_symbol
_atom_site_label
_atom_site_fract_x
_atom_site_fract_y
_atom_site_fract_z
Si Si1 0.906688 0.593313 0.507970
Si Si2 0.819473 0.497775 0.760114
Si Si3 0.031588 0.817723 0.848201
Si Si4 0.592721 0.907280 0.117501
Si Si5 0.182350 0.972633 0.670896
Si Si6 0.534079 0.683546 0.953704
O O1 0.891510 0.608491 0.562825
O O2 0.786578 0.553530 0.488381
O O3 0.000000 0.500000 0.495097
O O4 0.900906 0.400906 0.738228
O O5 0.779695 0.452204 0.810336
O O6 0.716218 0.525320 0.725471
O O7 0.886732 0.613269 0.768124
O O8 0.041719 0.769511 0.900752
O O9 0.909079 0.871263 0.840238
O O10 0.709979 0.950164 0.138844
O O11 0.500000 0.000000 0.130372
O O12 0.093997 0.872812 0.659832
O O13 0.410836 0.629945 0.962781
#
# Coordination Sequence:
#
# PCOD8307818 Si02
#       6
#     8  16  16   8  16  16
#     4  11  26  42  66 100 127 165 215 267 327 386
#     4  11  23  36  56  91 132 173 209 260 314 379
#     4   9  19  37  59  86 122 166 214 259 309 376
#     4  11  26  46  68  94 131 167 209 271 327 384
#     4  11  25  44  69  97 125 167 216 266 322 385
#     4   9  21  43  67  92 130 172 214 268 323 379
#
# _framework density 20.065187000000002
#
# number of rings (size 3 to 8) (size 9 to 14) (size 15 to 20)
#    0.000    1.800    1.000    3.000    5.600    6.400 
#    3.600    2.000    0.000    0.000    0.000    0.000 
#    0.000    0.000    0.000    0.000    0.000    0.000 
#
# Total GULP energy -496066.368932 kJ/mol
# GULP energy per Si atom -12401.659223 kJ/mol
# Density = 2.001952 g / cm^3
# Si number density = 20.065187 Si / 1000 Ang^3
#
#
#
# Elastic Constant Matrix: (Units=GPa)
#
#
# Indices 1 2 3 4 5 6 
#
# 1 132.3609 66.3240 71.5425 0.0000 0.0000 -0.0002
# 2 66.3240 132.3609 71.5425 0.0000 0.0000 0.0002
# 3 71.5425 71.5425 117.0470 0.0000 0.0000 0.0000
# 4 0.0000 0.0000 0.0000 28.9773 0.0000 0.0000
# 5 0.0000 0.0000 0.0000 0.0000 28.9773 0.0000
# 6 -0.0002 0.0002 0.0000 0.0000 0.0000 20.5032
#
#
#
# Elastic Compliance Matrix: (Units=1/GPa)
#
#
# Indices 1 2 3 4 5 6 
#
# 1 0.012067 -0.003076 -0.005495 0.000000 0.000000 0.000000
# 2 -0.003076 0.012067 -0.005495 0.000000 0.000000 0.000000
# 3 -0.005495 -0.005495 0.015261 0.000000 0.000000 0.000000
# 4 0.000000 0.000000 0.000000 0.034510 0.000000 0.000000
# 5 0.000000 0.000000 0.000000 0.000000 0.034510 0.000000
# 6 0.000000 0.000000 0.000000 0.000000 0.000000 0.048773
#
#
# Mechanical properties :
#
#
# Convention : Reuss Voigt Hill
#
# Bulk Modulus (GPa) = 88.79962 88.95410 88.87686
# Shear Modulus (GPa) = 26.44453 27.18221 26.81337
#
# Velocity S-wave (km/s) = 3.63427 3.68461 3.65953
# Velocity P-wave (km/s) = 7.87161 7.90763 7.88964
#
# Compressibility (1/GPa) = 0.01126131
#
# Stress axis : x y z
#
# Youngs Moduli (GPa) = 82.87180 82.87180 65.52485
#
# Poissons Ratio (x) = 0.25493 0.36008
# Poissons Ratio (y) = 0.25493 0.36008
# Poissons Ratio (z) = 0.45541 0.45541
#
# Static dielectric constant tensor:
#      x y z
#    x 3.652490 0.000000 0.000000 
#    y 0.000000 3.652490 0.000000 
#    z 0.000000 0.000000 3.598570 
# 
# 
# High freq. dielectric constant tensor:
#      x y z
#    x 1.790010 0.000000 0.000000 
#    y 0.000000 1.790010 0.000000 
#    z 0.000000 0.000000 1.781560 
# 
# From -- ./inp_files/3439.got.cif
#   From: 2010.03.12/outbox.cif.g09.slc.cpg/sg108_2_cif.got.tgz:3439.got - 2010.04.14 01:53:11.
