data_PCOD8307193
_publ_section_title
;
Structure prediction by ZEFSAII (Michael W. Deem and Ramdas Pophale) SiO2 
 PCOD8307193
Probable space group: P 42 M C
;
_chemical_formula_sum "Si O2"
_cell_formula_units_Z 48
_cell_length_a 9.415999
_cell_length_b 9.415999
_cell_length_c 30.546826
_cell_angle_alpha 90.000000
_cell_angle_beta 90.000000
_cell_angle_gamma 90.000000
_cell_volume 2708.313275
_symmetry_space_group_name_H-M "P 42 M C"
_symmetry_group_IT_number 105
_symmetry_cell_setting 'tetragonal'
loop_
_space_group_symop_operation_xyz
x,y,z
-y,x,1/2+z
-x,-y,z
y,-x,1/2+z
-x,y,z
x,-y,z
-y,-x,1/2+z
y,x,1/2+z
loop_
_atom_site_type_symbol
_atom_site_label
_atom_site_fract_x
_atom_site_fract_y
_atom_site_fract_z
Si Si1 0.662007 0.666004 0.436990
Si Si2 0.835149 0.167023 0.507069
Si Si3 0.841607 0.830791 0.671371
Si Si4 0.660122 0.830949 0.591024
Si Si5 0.167846 0.159647 0.768254
Si Si6 0.665367 0.659205 0.336742
O O1 0.500000 0.709198 0.448629
O O2 0.684631 0.500000 0.446021
O O3 0.772672 0.755290 0.465004
O O4 0.695270 0.703007 0.386703
O O5 0.750773 0.222145 0.549637
O O6 0.000000 0.206456 0.512816
O O7 0.814175 0.000000 0.500382
O O8 0.733202 0.770302 0.635106
O O9 0.789942 0.783504 0.719762
O O10 0.000000 0.771791 0.661538
O O11 0.847141 0.000000 0.669745
O O12 0.500000 0.770651 0.587790
O O13 0.658411 0.000000 0.592422
O O14 0.233256 0.257321 0.805068
O O15 0.000000 0.163387 0.773287
O O16 0.225130 0.000000 0.774762
O O17 0.500000 0.667637 0.326573
O O18 0.721544 0.500000 0.328211
#
# Coordination Sequence:
#
# PCOD8307193 Si02
#       6
#     8   8   8   8   8   8
#     4   9  19  36  54  70  92 125 163 201 242 289
#     4  10  20  32  48  73 102 129 158 196 243 292
#     4   8  14  26  43  64  94 128 157 191 239 289
#     4   9  16  26  43  68  96 126 162 202 241 283
#     4   9  18  31  48  73 102 129 159 197 241 288
#     4   9  19  35  52  70  94 126 163 200 240 288
#
# _framework density 17.723206999999999
#
# number of rings (size 3 to 8) (size 9 to 14) (size 15 to 20)
#    0.000    3.000    0.000    3.000    0.000    6.000 
#    0.000    6.667    0.000    1.000    0.000    4.667 
#    0.000    0.000    0.000    0.000    0.000    0.000 
#
# Total GULP energy -595077.367077 kJ/mol
# GULP energy per Si atom -12397.445147 kJ/mol
# Density = 1.768287 g / cm^3
# Si number density = 17.723207 Si / 1000 Ang^3
#
#
#
# Elastic Constant Matrix: (Units=GPa)
#
#
# Indices 1 2 3 4 5 6 
#
# 1 67.4699 36.1853 62.3451 0.0000 0.0000 0.0000
# 2 36.1853 67.4699 62.3451 0.0000 0.0000 0.0000
# 3 62.3451 62.3451 138.3584 0.0000 0.0000 0.0000
# 4 0.0000 0.0000 0.0000 4.6343 0.0000 0.0000
# 5 0.0000 0.0000 0.0000 0.0000 4.6343 0.0000
# 6 0.0000 0.0000 0.0000 0.0000 0.0000 25.2754
#
#
#
# Elastic Compliance Matrix: (Units=1/GPa)
#
#
# Indices 1 2 3 4 5 6 
#
# 1 0.026515 -0.005449 -0.009493 0.000000 0.000000 0.000000
# 2 -0.005449 0.026515 -0.009493 0.000000 0.000000 0.000000
# 3 -0.009493 -0.009493 0.015782 0.000000 0.000000 0.000000
# 4 0.000000 0.000000 0.000000 0.215782 0.000000 0.000000
# 5 0.000000 0.000000 0.000000 0.000000 0.215782 0.000000
# 6 0.000000 0.000000 0.000000 0.000000 0.000000 0.039564
#
#
# Mechanical properties :
#
#
# Convention : Reuss Voigt Hill
#
# Bulk Modulus (GPa) = 50.13869 66.11657 58.12763
# Shear Modulus (GPa) = 8.39689 14.40365 11.40027
#
# Velocity S-wave (km/s) = 2.17901 2.85388 2.53897
# Velocity P-wave (km/s) = 5.88915 6.94590 6.43924
#
# Compressibility (1/GPa) = 0.01994468
#
# Stress axis : x y z
#
# Youngs Moduli (GPa) = 37.71381 37.71381 63.36152
#
# Poissons Ratio (x) = 0.20551 0.60147
# Poissons Ratio (y) = 0.20551 0.60147
# Poissons Ratio (z) = 0.35800 0.35800
#
# Static dielectric constant tensor:
#      x y z
#    x 3.134260 0.000000 0.000000 
#    y 0.000000 3.134260 0.000000 
#    z 0.000000 0.000000 3.439570 
# 
# 
# High freq. dielectric constant tensor:
#      x y z
#    x 1.664840 0.000000 0.000000 
#    y 0.000000 1.664840 0.000000 
#    z 0.000000 0.000000 1.698540 
# 
# From -- ./inp_files/4693.got.cif
#   From: 2010.03.12/outbox.cif.g09.slc.cpg/sg105_3_cif.got.tgz:4693.got - 2010.04.14 01:45:32.
