data_PCOD8307176
_publ_section_title
;
Structure prediction by ZEFSAII (Michael W. Deem and Ramdas Pophale) SiO2 
 PCOD8307176
Probable space group: P 42 M C
;
_chemical_formula_sum "Si O2"
_cell_formula_units_Z 48
_cell_length_a 9.578081
_cell_length_b 9.578081
_cell_length_c 27.704240
_cell_angle_alpha 90.000000
_cell_angle_beta 90.000000
_cell_angle_gamma 90.000000
_cell_volume 2541.576883
_symmetry_space_group_name_H-M "P 42 M C"
_symmetry_group_IT_number 105
_symmetry_cell_setting 'tetragonal'
loop_
_space_group_symop_operation_xyz
x,y,z
-y,x,1/2+z
-x,-y,z
y,-x,1/2+z
-x,y,z
x,-y,z
-y,-x,1/2+z
y,x,1/2+z
loop_
_atom_site_type_symbol
_atom_site_label
_atom_site_fract_x
_atom_site_fract_y
_atom_site_fract_z
Si Si1 0.844048 0.000000 0.681421
Si Si2 0.000000 0.661410 0.277316
Si Si3 0.500000 0.331649 0.180512
Si Si4 0.163243 0.277239 0.623232
Si Si5 0.335566 0.756652 0.849379
Si Si6 0.335596 0.500000 0.788707
Si Si7 0.340153 0.662972 0.531508
Si Si8 0.338492 0.836739 0.435530
O O1 0.743102 0.000000 0.727215
O O2 0.819254 0.873856 0.645341
O O3 0.000000 0.000000 0.702905
O O4 0.125116 0.701603 0.311809
O O5 0.000000 0.500000 0.262311
O O6 0.500000 0.500000 0.174973
O O7 0.632717 0.264301 0.156169
O O8 0.500000 0.275595 0.235038
O O9 0.226350 0.284627 0.569780
O O10 0.000000 0.325402 0.622677
O O11 0.500000 0.753293 0.863613
O O12 0.281237 0.627649 0.819097
O O13 0.241374 0.762442 0.897354
O O14 0.500000 0.500000 0.783810
O O15 0.500000 0.683244 0.550076
O O16 0.315026 0.500000 0.518808
O O17 0.311904 0.759851 0.485732
O O18 0.500000 0.818902 0.420149
O O19 0.297713 0.000000 0.439580
#
# Coordination Sequence:
#
# PCOD8307176 Si02
#       8
#     4   4   4   8   8   4   8   8
#     4  10  24  42  60  84 124 170 202 242 307 370
#     4  10  22  38  60  90 122 158 206 252 291 350
#     4  11  21  37  61  93 125 155 203 255 294 357
#     4  11  23  40  60  86 122 161 202 247 305 367
#     4  10  19  36  59  85 119 156 194 244 298 352
#     4   9  18  31  57  87 115 153 193 233 294 345
#     4  10  21  38  61  87 114 150 195 247 305 363
#     4  10  21  37  59  89 118 150 197 250 300 355
#
# _framework density 18.885912000000001
#
# number of rings (size 3 to 8) (size 9 to 14) (size 15 to 20)
#    0.000    1.833    1.667    2.250    1.167    4.000 
#    1.500    1.667    0.000    0.000    0.000    0.000 
#    0.000    0.000    0.000    0.000    0.000    0.000 
#
# Total GULP energy -594870.837162 kJ/mol
# GULP energy per Si atom -12393.142441 kJ/mol
# Density = 1.884293 g / cm^3
# Si number density = 18.885912 Si / 1000 Ang^3
#
#
#
# Elastic Constant Matrix: (Units=GPa)
#
#
# Indices 1 2 3 4 5 6 
#
# 1 119.9438 47.8473 59.8906 0.0000 0.0000 0.0000
# 2 47.8473 119.9438 59.8906 0.0000 0.0000 0.0000
# 3 59.8906 59.8906 127.9182 0.0000 0.0000 0.0000
# 4 0.0000 0.0000 0.0000 57.6461 0.0000 0.0000
# 5 0.0000 0.0000 0.0000 0.0000 57.6461 0.0000
# 6 0.0000 0.0000 0.0000 0.0000 0.0000 24.9542
#
#
#
# Elastic Compliance Matrix: (Units=1/GPa)
#
#
# Indices 1 2 3 4 5 6 
#
# 1 0.011411 -0.002459 -0.004191 0.000000 0.000000 0.000000
# 2 -0.002459 0.011411 -0.004191 0.000000 0.000000 0.000000
# 3 -0.004191 -0.004191 0.011742 0.000000 0.000000 0.000000
# 4 0.000000 0.000000 0.000000 0.017347 0.000000 0.000000
# 5 0.000000 0.000000 0.000000 0.000000 0.017347 0.000000
# 6 0.000000 0.000000 0.000000 0.000000 0.000000 0.040073
#
#
# Mechanical properties :
#
#
# Convention : Reuss Voigt Hill
#
# Bulk Modulus (GPa) = 77.63431 78.11808 77.87620
# Shear Modulus (GPa) = 36.95254 41.39443 39.17348
#
# Velocity S-wave (km/s) = 4.42817 4.68676 4.55930
# Velocity P-wave (km/s) = 8.20616 8.41074 8.30908
#
# Compressibility (1/GPa) = 0.01288090
#
# Stress axis : x y z
#
# Youngs Moduli (GPa) = 87.63467 87.63467 85.16414
#
# Poissons Ratio (x) = 0.21552 0.35694
# Poissons Ratio (y) = 0.21552 0.35694
# Poissons Ratio (z) = 0.36729 0.36729
#
# Static dielectric constant tensor:
#      x y z
#    x 3.500370 0.000000 0.000000 
#    y 0.000000 3.500370 0.000000 
#    z 0.000000 0.000000 3.596010 
# 
# 
# High freq. dielectric constant tensor:
#      x y z
#    x 1.733170 0.000000 0.000000 
#    y 0.000000 1.733170 0.000000 
#    z 0.000000 0.000000 1.745220 
# 
# From -- ./inp_files/4947.got.cif
#   From: 2010.03.12/outbox.cif.g09.slc.cpg/sg105_3_cif.got.tgz:4947.got - 2010.04.14 01:45:32.
