data_PCOD8307683
_publ_section_title
;
Structure prediction by ZEFSAII (Michael W. Deem and Ramdas Pophale) SiO2 
 PCOD8307683
Probable space group: I 4 M M
;
_chemical_formula_sum "Si O2"
_cell_formula_units_Z 80
_cell_length_a 20.051218
_cell_length_b 20.051218
_cell_length_c 15.252610
_cell_angle_alpha 90.000000
_cell_angle_beta 90.000000
_cell_angle_gamma 90.000000
_cell_volume 6132.332339
_symmetry_space_group_name_H-M "I 4 M M"
_symmetry_group_IT_number 107
_symmetry_cell_setting 'tetragonal'
loop_
_space_group_symop_operation_xyz
x,y,z
-y,x,z
-x,-y,z
y,-x,z
-x,y,z
x,-y,z
-y,-x,z
y,x,z
1/2+x,1/2+y,1/2+z
1/2-y,1/2+x,1/2+z
1/2-x,1/2-y,1/2+z
1/2+y,1/2-x,1/2+z
1/2-x,1/2+y,1/2+z
1/2+x,1/2-y,1/2+z
1/2-y,1/2-x,1/2+z
1/2+y,1/2+x,1/2+z
loop_
_atom_site_type_symbol
_atom_site_label
_atom_site_fract_x
_atom_site_fract_y
_atom_site_fract_z
Si Si1 0.327583 0.079066 0.702150
Si Si2 0.425705 0.320455 0.194821
Si Si3 0.425705 0.679546 0.403320
Si Si4 0.579066 0.827584 0.395991
Si Si5 0.577679 0.077679 0.549071
O O1 0.253648 0.099605 0.669035
O O2 0.342583 0.109350 0.799071
O O3 0.382626 0.104953 0.633675
O O4 0.330621 0.000000 0.709163
O O5 0.500000 0.334324 0.157075
O O6 0.374821 0.374821 0.154652
O O7 0.427933 0.325629 0.299071
O O8 0.500000 0.665676 0.441066
O O9 0.374820 0.625181 0.443489
O O10 0.400396 0.753649 0.429106
O O11 0.500000 0.830624 0.388979
O O12 0.604954 0.882626 0.464466
O O13 0.500000 0.091610 0.566532
O O14 0.591609 0.000000 0.531610
#
# Coordination Sequence:
#
# PCOD8307683 Si02
#       5
#    16  16  16  16  16
#     4   8  14  24  35  47  66  89 109 133 167 199
#     4   8  13  21  33  48  66  88 110 131 158 192
#     4   8  13  21  33  48  66  88 110 131 158 192
#     4   8  14  24  35  47  66  89 109 133 167 199
#     4   9  16  24  35  50  64  82 113 146 168 191
#
# _framework density 13.045607
#
# number of rings (size 3 to 8) (size 9 to 14) (size 15 to 20)
#    0.000    3.800    0.000    2.400    0.000    1.200 
#    0.000    7.000    0.000    0.000    0.000    0.000 
#    0.000    0.000    0.000    0.000    0.000    0.400 
#
# Total GULP energy -495610.103325 kJ/mol
# GULP energy per Si atom -12390.252583 kJ/mol
# Density = 1.301591 g / cm^3
# Si number density = 13.045607 Si / 1000 Ang^3
#
#
#
# Elastic Constant Matrix: (Units=GPa)
#
#
# Indices 1 2 3 4 5 6 
#
# 1 66.2258 41.2310 38.1420 0.0000 0.0000 -0.0003
# 2 41.2310 66.2258 38.1420 0.0000 0.0000 0.0003
# 3 38.1420 38.1420 59.2911 0.0000 0.0000 0.0000
# 4 0.0000 0.0000 0.0000 8.3643 0.0000 0.0000
# 5 0.0000 0.0000 0.0000 0.0000 8.3643 0.0000
# 6 -0.0003 0.0003 0.0000 0.0000 0.0000 11.3786
#
#
#
# Elastic Compliance Matrix: (Units=1/GPa)
#
#
# Indices 1 2 3 4 5 6 
#
# 1 0.028568 -0.011440 -0.011019 0.000000 0.000000 0.000001
# 2 -0.011440 0.028568 -0.011019 0.000000 0.000000 -0.000001
# 3 -0.011019 -0.011019 0.031042 0.000000 0.000000 0.000000
# 4 0.000000 0.000000 0.000000 0.119556 0.000000 0.000000
# 5 0.000000 0.000000 0.000000 0.000000 0.119556 0.000000
# 6 0.000001 -0.000001 0.000000 0.000000 0.000000 0.087884
#
#
# Mechanical properties :
#
#
# Convention : Reuss Voigt Hill
#
# Bulk Modulus (GPa) = 47.11527 47.41916 47.26722
# Shear Modulus (GPa) = 10.22069 10.56996 10.39532
#
# Velocity S-wave (km/s) = 2.80207 2.84954 2.82591
# Velocity P-wave (km/s) = 6.83103 6.87417 6.85263
#
# Compressibility (1/GPa) = 0.02122454
#
# Stress axis : x y z
#
# Youngs Moduli (GPa) = 35.00385 35.00385 32.21402
#
# Poissons Ratio (x) = 0.40045 0.35495
# Poissons Ratio (y) = 0.40045 0.35495
# Poissons Ratio (z) = 0.38569 0.38569
#
# Static dielectric constant tensor:
#      x y z
#    x 2.726660 0.000000 0.000000 
#    y 0.000000 2.726660 0.000000 
#    z 0.000000 0.000000 2.687730 
# 
# 
# High freq. dielectric constant tensor:
#      x y z
#    x 1.482380 0.000000 0.000000 
#    y 0.000000 1.482380 0.000000 
#    z 0.000000 0.000000 1.456120 
# 
# From -- ./inp_files/3243.got.cif
#   From: 2010.03.12/outbox.cif.g09.slc.cpg/sg107_2_cif.got.tgz:3243.got - 2010.04.14 01:49:11.
