data_PCOD8307540
_publ_section_title
;
Structure prediction by ZEFSAII (Michael W. Deem and Ramdas Pophale) SiO2 
 PCOD8307540
Probable space group: I 4 M M
;
_chemical_formula_sum "Si O2"
_cell_formula_units_Z 112
_cell_length_a 13.882301
_cell_length_b 13.882301
_cell_length_c 36.287412
_cell_angle_alpha 90.000000
_cell_angle_beta 90.000000
_cell_angle_gamma 90.000000
_cell_volume 6993.247665
_symmetry_space_group_name_H-M "I 4 M M"
_symmetry_group_IT_number 107
_symmetry_cell_setting 'tetragonal'
loop_
_space_group_symop_operation_xyz
x,y,z
-y,x,z
-x,-y,z
y,-x,z
-x,y,z
x,-y,z
-y,-x,z
y,x,z
1/2+x,1/2+y,1/2+z
1/2-y,1/2+x,1/2+z
1/2-x,1/2-y,1/2+z
1/2+y,1/2-x,1/2+z
1/2-x,1/2+y,1/2+z
1/2+x,1/2-y,1/2+z
1/2-y,1/2-x,1/2+z
1/2+y,1/2+x,1/2+z
loop_
_atom_site_type_symbol
_atom_site_label
_atom_site_fract_x
_atom_site_fract_y
_atom_site_fract_z
Si Si1 0.108750 0.262470 0.035010
Si Si2 0.113010 0.729031 0.396617
Si Si3 0.886347 0.273108 0.954702
Si Si4 0.767475 0.612938 0.253377
Si Si5 0.231205 0.387911 0.614492
Si Si6 0.109652 0.388993 0.824506
Si Si7 0.112774 0.390161 0.684022
O O1 0.162421 0.162421 0.035082
O O2 0.131869 0.317988 0.073747
O O3 0.000000 0.229576 0.035089
O O4 0.130969 0.316768 0.996291
O O5 0.170756 0.829245 0.400045
O O6 0.144851 0.653566 0.427840
O O7 0.137256 0.680491 0.357656
O O8 0.000000 0.751221 0.401017
O O9 0.826924 0.173076 0.948907
O O10 0.000000 0.254156 0.947066
O O11 0.747309 0.500000 0.251347
O O12 0.664928 0.664928 0.254526
O O13 0.827238 0.641257 0.289476
O O14 0.826531 0.649911 0.217969
O O15 0.255407 0.500000 0.619531
O O16 0.330628 0.330628 0.618565
O O17 0.158322 0.352335 0.645922
O O18 0.118981 0.500000 0.813068
O O19 0.000000 0.365288 0.836430
O O20 0.142248 0.500000 0.692342
O O21 0.000000 0.379574 0.679068
#
# Coordination Sequence:
#
# PCOD8307540 Si02
#       7
#    16  16  16  16  16  16  16
#     4   8  14  24  38  58  85 115 144 174 208 249
#     4  10  20  33  49  68  90 117 149 185 223 261
#     4   9  17  29  45  66  92 120 150 183 219 262
#     4  10  19  30  45  64  87 114 142 173 209 250
#     4   9  16  26  41  61  86 114 141 171 209 254
#     4   9  17  30  49  71  91 111 138 172 211 256
#     4   9  17  29  44  61  81 107 142 182 219 251
#
# _framework density 16.015449
#
# number of rings (size 3 to 8) (size 9 to 14) (size 15 to 20)
#    0.000    2.857    0.000    1.714    0.000    3.286 
#    0.000    3.571    0.000    2.571    0.000    2.000 
#    0.000   10.286    0.000    9.000    0.000    0.000 
#
# Total GULP energy -693866.916898 kJ/mol
# GULP energy per Si atom -12390.480659 kJ/mol
# Density = 1.597900 g / cm^3
# Si number density = 16.015449 Si / 1000 Ang^3
#
#
#
# Elastic Constant Matrix: (Units=GPa)
#
#
# Indices 1 2 3 4 5 6 
#
# 1 63.6277 38.2698 53.6199 0.0000 0.0000 0.0001
# 2 38.2698 63.6277 53.6199 0.0000 0.0000 -0.0001
# 3 53.6199 53.6199 143.6311 0.0000 0.0000 0.0000
# 4 0.0000 0.0000 0.0000 24.4007 0.0000 0.0000
# 5 0.0000 0.0000 0.0000 0.0000 24.4007 0.0000
# 6 0.0001 -0.0001 0.0000 0.0000 0.0000 20.7302
#
#
#
# Elastic Compliance Matrix: (Units=1/GPa)
#
#
# Indices 1 2 3 4 5 6 
#
# 1 0.027800 -0.011635 -0.006035 0.000000 0.000000 0.000000
# 2 -0.011635 0.027800 -0.006035 0.000000 0.000000 0.000000
# 3 -0.006035 -0.006035 0.011468 0.000000 0.000000 0.000000
# 4 0.000000 0.000000 0.000000 0.040982 0.000000 0.000000
# 5 0.000000 0.000000 0.000000 0.000000 0.040982 0.000000
# 6 0.000000 0.000000 0.000000 0.000000 0.000000 0.048239
#
#
# Mechanical properties :
#
#
# Convention : Reuss Voigt Hill
#
# Bulk Modulus (GPa) = 50.86706 62.43395 56.65051
# Shear Modulus (GPa) = 19.90179 22.26478 21.08329
#
# Velocity S-wave (km/s) = 3.52897 3.73259 3.63221
# Velocity P-wave (km/s) = 6.95953 7.59240 7.28284
#
# Compressibility (1/GPa) = 0.01965909
#
# Stress axis : x y z
#
# Youngs Moduli (GPa) = 35.97114 35.97114 87.20010
#
# Poissons Ratio (x) = 0.41854 0.52621
# Poissons Ratio (y) = 0.41854 0.52621
# Poissons Ratio (z) = 0.21707 0.21707
#
# Static dielectric constant tensor:
#      x y z
#    x 2.849880 0.000000 0.000000 
#    y 0.000000 2.849880 0.000000 
#    z 0.000000 0.000000 3.503000 
# 
# 
# High freq. dielectric constant tensor:
#      x y z
#    x 1.596010 0.000000 0.000000 
#    y 0.000000 1.596010 0.000000 
#    z 0.000000 0.000000 1.639560 
# 
# From -- ./inp_files/6189.got.cif
#   From: 2010.03.12/outbox.cif.g09.slc.cpg/sg107_4_cif.got.tgz:6189.got - 2010.04.14 01:49:11.
