data_PCOD8307631
_publ_section_title
;
Structure prediction by ZEFSAII (Michael W. Deem and Ramdas Pophale) SiO2 
 PCOD8307631
Probable space group: I 4 M M
;
_chemical_formula_sum "Si O2"
_cell_formula_units_Z 80
_cell_length_a 13.128072
_cell_length_b 13.128072
_cell_length_c 25.802213
_cell_angle_alpha 90.000000
_cell_angle_beta 90.000000
_cell_angle_gamma 90.000000
_cell_volume 4446.915283
_symmetry_space_group_name_H-M "I 4 M M"
_symmetry_group_IT_number 107
_symmetry_cell_setting 'tetragonal'
loop_
_space_group_symop_operation_xyz
x,y,z
-y,x,z
-x,-y,z
y,-x,z
-x,y,z
x,-y,z
-y,-x,z
y,x,z
1/2+x,1/2+y,1/2+z
1/2-y,1/2+x,1/2+z
1/2-x,1/2-y,1/2+z
1/2+y,1/2-x,1/2+z
1/2-x,1/2+y,1/2+z
1/2+x,1/2-y,1/2+z
1/2-y,1/2-x,1/2+z
1/2+y,1/2+x,1/2+z
loop_
_atom_site_type_symbol
_atom_site_label
_atom_site_fract_x
_atom_site_fract_y
_atom_site_fract_z
Si Si1 0.117801 0.285241 0.272230
Si Si2 0.117801 0.714760 0.673366
Si Si3 0.386688 0.120747 0.972798
Si Si4 0.782387 0.380781 0.367513
Si Si5 0.782386 0.619219 0.578084
O O1 0.180275 0.180275 0.274624
O O2 0.148522 0.351479 0.222798
O O3 0.137108 0.353726 0.322902
O O4 0.000000 0.255669 0.268874
O O5 0.180275 0.819726 0.670972
O O6 0.137108 0.646276 0.622694
O O7 0.000000 0.744332 0.676722
O O8 0.500000 0.168401 0.972799
O O9 0.327636 0.158072 0.921915
O O10 0.394659 0.000000 0.972798
O O11 0.327634 0.158072 0.023681
O O12 0.759019 0.500000 0.367802
O O13 0.675852 0.324149 0.356833
O O14 0.759019 0.500000 0.577795
O O15 0.675851 0.675851 0.588764
#
# Coordination Sequence:
#
# PCOD8307631 Si02
#       5
#    16  16  16  16  16
#     4  10  21  36  54  77 103 132 168 208 251 301
#     4  10  21  36  54  77 103 132 168 208 251 301
#     4   9  17  30  49  71  95 127 167 209 252 295
#     4  10  20  33  50  74 103 135 172 211 252 301
#     4  10  20  33  50  74 103 135 172 211 252 301
#
# _framework density 17.989999000000001
#
# number of rings (size 3 to 8) (size 9 to 14) (size 15 to 20)
#    0.000    2.200    0.000    3.000    0.000    5.200 
#    0.000    0.000    0.000   10.800    0.000    0.000 
#    0.000   14.400    0.000    0.000    0.000    0.000 
#
# Total GULP energy -496118.817403 kJ/mol
# GULP energy per Si atom -12402.970435 kJ/mol
# Density = 1.794905 g / cm^3
# Si number density = 17.989999 Si / 1000 Ang^3
#
#
#
# Elastic Constant Matrix: (Units=GPa)
#
#
# Indices 1 2 3 4 5 6 
#
# 1 105.5578 41.6649 37.4846 0.0000 0.0000 -0.0005
# 2 41.6649 105.5578 37.4846 0.0000 0.0000 0.0005
# 3 37.4846 37.4846 149.2800 0.0000 0.0000 0.0000
# 4 0.0000 0.0000 0.0000 24.7080 0.0000 0.0000
# 5 0.0000 0.0000 0.0000 0.0000 24.7080 0.0000
# 6 -0.0005 0.0005 0.0000 0.0000 0.0000 13.4447
#
#
#
# Elastic Compliance Matrix: (Units=1/GPa)
#
#
# Indices 1 2 3 4 5 6 
#
# 1 0.011720 -0.003931 -0.001956 0.000000 0.000000 0.000001
# 2 -0.003931 0.011720 -0.001956 0.000000 0.000000 -0.000001
# 3 -0.001956 -0.001956 0.007681 0.000000 0.000000 0.000000
# 4 0.000000 0.000000 0.000000 0.040473 0.000000 0.000000
# 5 0.000000 0.000000 0.000000 0.000000 0.040473 0.000000
# 6 0.000001 -0.000001 0.000000 0.000000 0.000000 0.074379
#
#
# Mechanical properties :
#
#
# Convention : Reuss Voigt Hill
#
# Bulk Modulus (GPa) = 64.78819 65.96266 65.37543
# Shear Modulus (GPa) = 24.12252 28.82291 26.47271
#
# Velocity S-wave (km/s) = 3.66578 4.00705 3.84021
# Velocity P-wave (km/s) = 7.34908 7.62591 7.48877
#
# Compressibility (1/GPa) = 0.01543491
#
# Stress axis : x y z
#
# Youngs Moduli (GPa) = 85.32610 85.32610 130.19198
#
# Poissons Ratio (x) = 0.33545 0.25461
# Poissons Ratio (y) = 0.33545 0.25461
# Poissons Ratio (z) = 0.16687 0.16687
#
# Static dielectric constant tensor:
#      x y z
#    x 3.140010 0.000000 0.000000 
#    y 0.000000 3.140010 0.000000 
#    z 0.000000 0.000000 3.643730 
# 
# 
# High freq. dielectric constant tensor:
#      x y z
#    x 1.686110 0.000000 0.000000 
#    y 0.000000 1.686110 0.000000 
#    z 0.000000 0.000000 1.720520 
# 
# From -- ./inp_files/5969.got.cif
#   From: 2010.03.12/outbox.cif.g09.slc.cpg/sg107_3_cif.got.tgz:5969.got - 2010.04.14 01:49:11.
