data_PCOD8307468
_publ_section_title
;
Structure prediction by ZEFSAII (Michael W. Deem and Ramdas Pophale) SiO2 
 PCOD8307468
Probable space group: P 42 B C
;
_chemical_formula_sum "Si O2"
_cell_formula_units_Z 32
_cell_length_a 9.147257
_cell_length_b 9.147257
_cell_length_c 16.606263
_cell_angle_alpha 90.000000
_cell_angle_beta 90.000000
_cell_angle_gamma 90.000000
_cell_volume 1389.484396
_symmetry_space_group_name_H-M "P 42 B C"
_symmetry_group_IT_number 106
_symmetry_cell_setting 'tetragonal'
loop_
_space_group_symop_operation_xyz
x,y,z
-y,x,1/2+z
-x,-y,z
y,-x,1/2+z
1/2-x,1/2+y,z
1/2+x,1/2-y,z
1/2-y,1/2-x,1/2+z
1/2+y,1/2+x,1/2+z
loop_
_atom_site_type_symbol
_atom_site_label
_atom_site_fract_x
_atom_site_fract_y
_atom_site_fract_z
Si Si1 0.603358 0.871167 0.676710
Si Si2 0.085459 0.143206 0.759423
Si Si3 0.816244 0.408856 0.991230
Si Si4 0.715671 0.092580 0.426482
O O1 0.765634 0.892602 0.711698
O O2 0.530227 0.718579 0.700109
O O3 0.605544 0.877215 0.580657
O O4 0.500000 0.000000 0.710376
O O5 0.125877 0.248454 0.833630
O O6 0.000000 0.000000 0.790777
O O7 0.822733 0.570783 0.955481
O O8 0.652073 0.348467 0.982063
O O9 0.919600 0.303494 0.937190
#
# Coordination Sequence:
#
# PCOD8307468 Si02
#       4
#     8   8   8   8
#     4  12  26  50  76 110 152 194 257 312 384 457
#     4  12  29  46  78 112 151 201 248 318 385 457
#     4  11  26  48  75 107 150 197 248 311 366 453
#     4  11  26  47  72 108 147 193 248 302 375 444
#
# _framework density 23.030128000000001
#
# number of rings (size 3 to 8) (size 9 to 14) (size 15 to 20)
#    0.000    0.500    2.500    4.500   17.500    0.000 
#    0.000    0.000    0.000    0.000    0.000    0.000 
#    0.000    0.000    0.000    0.000    0.000    0.000 
#
# Total GULP energy -396873.596315 kJ/mol
# GULP energy per Si atom -12402.299885 kJ/mol
# Density = 2.297771 g / cm^3
# Si number density = 23.030128 Si / 1000 Ang^3
#
#
#
# Elastic Constant Matrix: (Units=GPa)
#
#
# Indices 1 2 3 4 5 6 
#
# 1 108.7373 45.0703 49.1724 0.0000 0.0000 0.0000
# 2 45.0703 108.7373 49.1724 0.0000 0.0000 0.0000
# 3 49.1724 49.1724 128.5047 0.0000 0.0000 0.0000
# 4 0.0000 0.0000 0.0000 31.1920 0.0000 0.0000
# 5 0.0000 0.0000 0.0000 0.0000 31.1920 0.0000
# 6 0.0000 0.0000 0.0000 0.0000 0.0000 59.7338
#
#
#
# Elastic Compliance Matrix: (Units=1/GPa)
#
#
# Indices 1 2 3 4 5 6 
#
# 1 0.012157 -0.003550 -0.003294 0.000000 0.000000 0.000000
# 2 -0.003550 0.012157 -0.003294 0.000000 0.000000 0.000000
# 3 -0.003294 -0.003294 0.010302 0.000000 0.000000 0.000000
# 4 0.000000 0.000000 0.000000 0.032060 0.000000 0.000000
# 5 0.000000 0.000000 0.000000 0.000000 0.032060 0.000000
# 6 0.000000 0.000000 0.000000 0.000000 0.000000 0.016741
#
#
# Mechanical properties :
#
#
# Convention : Reuss Voigt Hill
#
# Bulk Modulus (GPa) = 69.72088 70.31217 70.01652
# Shear Modulus (GPa) = 35.57915 37.92785 36.75350
#
# Velocity S-wave (km/s) = 3.93478 4.06258 3.99919
# Velocity P-wave (km/s) = 7.14023 7.25278 7.19672
#
# Compressibility (1/GPa) = 0.01434291
#
# Stress axis : x y z
#
# Youngs Moduli (GPa) = 82.25593 82.25593 97.06385
#
# Poissons Ratio (x) = 0.29197 0.31970
# Poissons Ratio (y) = 0.29197 0.31970
# Poissons Ratio (z) = 0.27093 0.27093
#
# Static dielectric constant tensor:
#      x y z
#    x 4.223940 0.000000 0.000000 
#    y 0.000000 4.223940 0.000000 
#    z 0.000000 0.000000 4.006990 
# 
# 
# High freq. dielectric constant tensor:
#      x y z
#    x 1.919700 0.000000 0.000000 
#    y 0.000000 1.919700 0.000000 
#    z 0.000000 0.000000 1.913940 
# 
# From -- ./inp_files/1537.got.cif
#   From: 2010.03.12/outbox.cif.g09.slc.cpg/sg106_cif.got.tgz:1537.got - 2010.04.14 01:48:02.
