data_PCOD8307564
_publ_section_title
;
Structure prediction by ZEFSAII (Michael W. Deem and Ramdas Pophale) SiO2 
 PCOD8307564
Probable space group: I 4 M M
;
_chemical_formula_sum "Si O2"
_cell_formula_units_Z 112
_cell_length_a 20.181272
_cell_length_b 20.181272
_cell_length_c 16.873352
_cell_angle_alpha 90.000000
_cell_angle_beta 90.000000
_cell_angle_gamma 90.000000
_cell_volume 6872.241901
_symmetry_space_group_name_H-M "I 4 M M"
_symmetry_group_IT_number 107
_symmetry_cell_setting 'tetragonal'
loop_
_space_group_symop_operation_xyz
x,y,z
-y,x,z
-x,-y,z
y,-x,z
-x,y,z
x,-y,z
-y,-x,z
y,x,z
1/2+x,1/2+y,1/2+z
1/2-y,1/2+x,1/2+z
1/2-x,1/2-y,1/2+z
1/2+y,1/2-x,1/2+z
1/2-x,1/2+y,1/2+z
1/2+x,1/2-y,1/2+z
1/2-y,1/2-x,1/2+z
1/2+y,1/2+x,1/2+z
loop_
_atom_site_type_symbol
_atom_site_label
_atom_site_fract_x
_atom_site_fract_y
_atom_site_fract_z
Si Si1 0.822213 0.574206 0.419820
Si Si2 0.767771 0.657086 0.740972
Si Si3 0.921586 0.324754 0.098255
Si Si4 0.263860 0.633085 0.293823
Si Si5 0.810839 0.575277 0.063849
Si Si6 0.819429 0.923990 0.644951
Si Si7 0.423802 0.182225 0.882241
O O1 0.846875 0.500000 0.412357
O O2 0.796908 0.588796 0.509265
O O3 0.759007 0.588151 0.366010
O O4 0.885181 0.613006 0.385262
O O5 0.699445 0.699445 0.735831
O O6 0.774910 0.609830 0.663361
O O7 0.832114 0.704140 0.745168
O O8 0.767243 0.611041 0.820202
O O9 0.879011 0.392419 0.095219
O O10 0.000000 0.337740 0.116705
O O11 0.308613 0.691388 0.330376
O O12 0.307616 0.585677 0.238335
O O13 0.819562 0.500000 0.090499
O O14 0.746140 0.606154 0.104483
O O15 0.791561 0.581483 0.971542
O O16 0.882729 0.882729 0.615236
O O17 0.832650 0.000000 0.623131
O O18 0.500000 0.170791 0.856372
#
# Coordination Sequence:
#
# PCOD8307564 Si02
#       7
#    16  16  16  16  16  16  16
#     4   9  18  30  46  68  95 127 159 195 240 289
#     4  10  19  31  47  68  94 125 160 201 244 285
#     4  10  19  31  47  69  98 128 159 201 246 286
#     4   9  17  30  47  66  89 122 162 199 236 280
#     4   9  18  32  49  68  93 127 163 198 241 294
#     4  10  19  31  49  70  94 125 159 199 245 292
#     4   9  18  32  48  68  94 123 159 200 240 288
#
# _framework density 16.297446999999998
#
# number of rings (size 3 to 8) (size 9 to 14) (size 15 to 20)
#    0.000    2.571    1.429    0.857    0.000    1.857 
#    0.000    5.714    0.000    1.714    0.000    0.000 
#    0.000    4.571    0.000   10.571    0.000    0.429 
#
# Total GULP energy -693797.150396 kJ/mol
# GULP energy per Si atom -12389.234829 kJ/mol
# Density = 1.626035 g / cm^3
# Si number density = 16.297447 Si / 1000 Ang^3
#
#
#
# Elastic Constant Matrix: (Units=GPa)
#
#
# Indices 1 2 3 4 5 6 
#
# 1 75.3862 48.7577 43.4519 0.0000 0.0000 0.0001
# 2 48.7577 75.3862 43.4519 0.0000 0.0000 -0.0001
# 3 43.4519 43.4519 82.5757 0.0000 0.0000 0.0000
# 4 0.0000 0.0000 0.0000 24.0138 0.0000 0.0000
# 5 0.0000 0.0000 0.0000 0.0000 24.0138 0.0000
# 6 0.0001 -0.0001 0.0000 0.0000 0.0000 21.3269
#
#
#
# Elastic Compliance Matrix: (Units=1/GPa)
#
#
# Indices 1 2 3 4 5 6 
#
# 1 0.025153 -0.012400 -0.006711 0.000000 0.000000 0.000000
# 2 -0.012400 0.025153 -0.006711 0.000000 0.000000 0.000000
# 3 -0.006711 -0.006711 0.019172 0.000000 0.000000 0.000000
# 4 0.000000 0.000000 0.000000 0.041643 0.000000 0.000000
# 5 0.000000 0.000000 0.000000 0.000000 0.041643 0.000000
# 6 0.000000 0.000000 0.000000 0.000000 0.000000 0.046889
#
#
# Mechanical properties :
#
#
# Convention : Reuss Voigt Hill
#
# Bulk Modulus (GPa) = 56.06772 56.07455 56.07113
# Shear Modulus (GPa) = 19.43697 20.38336 19.91017
#
# Velocity S-wave (km/s) = 3.45721 3.54037 3.49904
# Velocity P-wave (km/s) = 7.10027 7.15500 7.12769
#
# Compressibility (1/GPa) = 0.01783557
#
# Stress axis : x y z
#
# Youngs Moduli (GPa) = 39.75636 39.75636 52.15825
#
# Poissons Ratio (x) = 0.49300 0.35001
# Poissons Ratio (y) = 0.49300 0.35001
# Poissons Ratio (z) = 0.26679 0.26679
#
# Static dielectric constant tensor:
#      x y z
#    x 3.007720 0.000000 0.000000 
#    y 0.000000 3.007720 0.000000 
#    z 0.000000 0.000000 3.187540 
# 
# 
# High freq. dielectric constant tensor:
#      x y z
#    x 1.611490 0.000000 0.000000 
#    y 0.000000 1.611490 0.000000 
#    z 0.000000 0.000000 1.634240 
# 
# From -- ./inp_files/4294.got.cif
#   From: 2010.03.12/outbox.cif.g09.slc.cpg/sg107_3_cif.got.tgz:4294.got - 2010.04.14 01:49:11.
