data_PCOD8307200
_publ_section_title
;
Structure prediction by ZEFSAII (Michael W. Deem and Ramdas Pophale) SiO2 
 PCOD8307200
Probable space group: P 42 M C
;
_chemical_formula_sum "Si O2"
_cell_formula_units_Z 48
_cell_length_a 9.341656
_cell_length_b 9.341656
_cell_length_c 30.988317
_cell_angle_alpha 90.000000
_cell_angle_beta 90.000000
_cell_angle_gamma 90.000000
_cell_volume 2704.243107
_symmetry_space_group_name_H-M "P 42 M C"
_symmetry_group_IT_number 105
_symmetry_cell_setting 'tetragonal'
loop_
_space_group_symop_operation_xyz
x,y,z
-y,x,1/2+z
-x,-y,z
y,-x,1/2+z
-x,y,z
x,-y,z
-y,-x,1/2+z
y,x,1/2+z
loop_
_atom_site_type_symbol
_atom_site_label
_atom_site_fract_x
_atom_site_fract_y
_atom_site_fract_z
Si Si1 0.333774 0.332158 0.286620
Si Si2 0.169961 0.339718 0.631016
Si Si3 0.832123 0.167105 0.213163
Si Si4 0.661894 0.169629 0.036254
Si Si5 0.165668 0.833246 0.455484
Si Si6 0.333684 0.164373 0.371861
O O1 0.500000 0.301130 0.276642
O O2 0.300867 0.500000 0.288445
O O3 0.238720 0.259715 0.250293
O O4 0.288352 0.262762 0.331913
O O5 0.226593 0.500000 0.641470
O O6 0.223239 0.230616 0.667602
O O7 0.226714 0.289725 0.583699
O O8 0.000000 0.342468 0.629710
O O9 0.000000 0.195614 0.212882
O O10 0.796220 0.000000 0.220654
O O11 0.500000 0.217841 0.027336
O O12 0.676278 0.000000 0.035907
O O13 0.759043 0.233111 0.997980
O O14 0.247930 0.778362 0.413234
O O15 0.000000 0.793361 0.449217
O O16 0.189847 0.000000 0.462185
O O17 0.500000 0.179860 0.382536
O O18 0.293310 0.000000 0.361003
#
# Coordination Sequence:
#
# PCOD8307200 Si02
#       6
#     8   8   8   8   8   8
#     4  10  21  36  53  72  94 124 162 201 243 292
#     4   8  14  26  45  68  94 125 161 199 236 277
#     4  10  20  32  49  75 102 127 158 198 244 292
#     4   8  14  25  42  66  95 125 157 193 233 276
#     4   9  17  28  44  68  95 121 151 191 237 280
#     4   9  18  33  51  69  92 124 159 194 235 286
#
# _framework density 17.749884000000002
#
# number of rings (size 3 to 8) (size 9 to 14) (size 15 to 20)
#    0.000    3.000    0.000    2.000    0.000    4.000 
#    0.000    5.000    0.000    1.000    0.000    4.667 
#    0.000    0.000    0.000    0.000    0.000    0.000 
#
# Total GULP energy -595037.430622 kJ/mol
# GULP energy per Si atom -12396.613138 kJ/mol
# Density = 1.770948 g / cm^3
# Si number density = 17.749884 Si / 1000 Ang^3
#
#
#
# Elastic Constant Matrix: (Units=GPa)
#
#
# Indices 1 2 3 4 5 6 
#
# 1 65.5602 42.2061 77.3782 0.0000 0.0000 0.0000
# 2 42.2061 65.5602 77.3782 0.0000 0.0000 0.0000
# 3 77.3782 77.3782 196.0231 0.0000 0.0000 0.0000
# 4 0.0000 0.0000 0.0000 3.7297 0.0000 0.0000
# 5 0.0000 0.0000 0.0000 0.0000 3.7297 0.0000
# 6 0.0000 0.0000 0.0000 0.0000 0.0000 17.2410
#
#
#
# Elastic Compliance Matrix: (Units=1/GPa)
#
#
# Indices 1 2 3 4 5 6 
#
# 1 0.032121 -0.010698 -0.008457 0.000000 0.000000 0.000000
# 2 -0.010698 0.032121 -0.008457 0.000000 0.000000 0.000000
# 3 -0.008457 -0.008457 0.011778 0.000000 0.000000 0.000000
# 4 0.000000 0.000000 0.000000 0.268119 0.000000 0.000000
# 5 0.000000 0.000000 0.000000 0.000000 0.268119 0.000000
# 6 0.000000 0.000000 0.000000 0.000000 0.000000 0.058001
#
#
# Mechanical properties :
#
#
# Convention : Reuss Voigt Hill
#
# Bulk Modulus (GPa) = 48.08160 80.11874 64.10017
# Shear Modulus (GPa) = 6.82674 13.61881 10.22278
#
# Velocity S-wave (km/s) = 1.96327 2.77295 2.40247
# Velocity P-wave (km/s) = 5.68212 7.44902 6.62474
#
# Compressibility (1/GPa) = 0.02079798
#
# Stress axis : x y z
#
# Youngs Moduli (GPa) = 31.13198 31.13198 84.90509
#
# Poissons Ratio (x) = 0.33304 0.71802
# Poissons Ratio (y) = 0.33304 0.71802
# Poissons Ratio (z) = 0.26327 0.26327
#
# Static dielectric constant tensor:
#      x y z
#    x 3.137540 0.000000 0.000000 
#    y 0.000000 3.137540 0.000000 
#    z 0.000000 0.000000 3.773300 
# 
# 
# High freq. dielectric constant tensor:
#      x y z
#    x 1.662340 0.000000 0.000000 
#    y 0.000000 1.662340 0.000000 
#    z 0.000000 0.000000 1.703930 
# 
# From -- ./inp_files/4717.got.cif
#   From: 2010.03.12/outbox.cif.g09.slc.cpg/sg105_3_cif.got.tgz:4717.got - 2010.04.14 01:45:32.
