data_PCOD8307052
_publ_section_title
;
Structure prediction by ZEFSAII (Michael W. Deem and Ramdas Pophale) SiO2 
 PCOD8307052
Probable space group: P 4 N C 
;
_chemical_formula_sum "Si O2"
_cell_formula_units_Z 56
_cell_length_a 14.263932
_cell_length_b 14.263932
_cell_length_c 13.931608
_cell_angle_alpha 90.000000
_cell_angle_beta 90.000000
_cell_angle_gamma 90.000000
_cell_volume 2834.521566
_symmetry_space_group_name_H-M "P 4 N C "
_symmetry_group_IT_number 104
_symmetry_cell_setting 'tetragonal'
loop_
_space_group_symop_operation_xyz
x,y,z
-y,x,z
-x,-y,z
y,-x,z
1/2-x,1/2+y,1/2+z
1/2+x,1/2-y,1/2+z
1/2-y,1/2-x,1/2+z
1/2+y,1/2+x,1/2+z
loop_
_atom_site_type_symbol
_atom_site_label
_atom_site_fract_x
_atom_site_fract_y
_atom_site_fract_z
Si Si1 0.438545 0.182300 0.635330
Si Si2 0.571842 0.080204 0.756056
Si Si3 0.571759 0.635780 0.334209
Si Si4 0.886425 0.233523 0.649192
Si Si5 0.135833 0.068295 0.050090
Si Si6 0.233217 0.414829 0.104429
Si Si7 0.091331 0.441923 0.479338
O O1 0.506736 0.170515 0.728633
O O2 0.345621 0.119374 0.638224
O O3 0.398959 0.288200 0.628426
O O4 0.500247 0.170625 0.536886
O O5 0.669041 0.085519 0.699710
O O6 0.500000 0.000000 0.718897
O O7 0.602912 0.064046 0.865102
O O8 0.461725 0.624113 0.314682
O O9 0.615115 0.712013 0.262735
O O10 0.589416 0.670660 0.442025
O O11 0.804322 0.173361 0.598667
O O12 0.987957 0.207190 0.603477
O O13 0.041577 0.123438 0.068060
O O14 0.165932 0.410613 0.012215
O O15 0.000000 0.500000 0.507811
#
# Coordination Sequence:
#
# PCOD8307052 Si02
#       7
#     8   8   8   8   8   8   8
#     4  11  22  36  60  92 117 153 207 244 297 363
#     4  10  21  41  63  83 116 155 193 249 304 346
#     4   9  18  34  56  84 118 158 192 238 308 362
#     4  12  22  36  57  85 123 156 199 245 296 359
#     4   9  21  38  59  88 124 158 194 249 310 360
#     4  11  23  40  56  90 119 154 195 245 300 363
#     4  10  21  41  63  80 119 156 195 250 297 349
#
# _framework density 19.756421
#
# number of rings (size 3 to 8) (size 9 to 14) (size 15 to 20)
#    0.000    1.714    4.286    1.714    6.000    0.286 
#    0.000    0.000    0.000    0.000    0.000    0.000 
#    0.000    0.000    0.000    0.000    0.000    0.000 
#
# Total GULP energy -693909.136990 kJ/mol
# GULP energy per Si atom -12391.234589 kJ/mol
# Density = 1.971145 g / cm^3
# Si number density = 19.756421 Si / 1000 Ang^3
#
#
#
# Elastic Constant Matrix: (Units=GPa)
#
#
# Indices 1 2 3 4 5 6 
#
# 1 79.4024 23.2739 19.1619 0.0000 0.0000 0.0000
# 2 23.2739 79.4024 19.1619 0.0000 0.0000 0.0000
# 3 19.1619 19.1619 66.0234 0.0000 0.0000 0.0000
# 4 0.0000 0.0000 0.0000 24.2389 0.0000 0.0000
# 5 0.0000 0.0000 0.0000 0.0000 24.2389 0.0000
# 6 0.0000 0.0000 0.0000 0.0000 0.0000 22.6005
#
#
#
# Elastic Compliance Matrix: (Units=1/GPa)
#
#
# Indices 1 2 3 4 5 6 
#
# 1 0.014369 -0.003447 -0.003170 0.000000 0.000000 0.000000
# 2 -0.003447 0.014369 -0.003170 0.000000 0.000000 0.000000
# 3 -0.003170 -0.003170 0.016986 0.000000 0.000000 0.000000
# 4 0.000000 0.000000 0.000000 0.041256 0.000000 0.000000
# 5 0.000000 0.000000 0.000000 0.000000 0.041256 0.000000
# 6 0.000000 0.000000 0.000000 0.000000 0.000000 0.044247
#
#
# Mechanical properties :
#
#
# Convention : Reuss Voigt Hill
#
# Bulk Modulus (GPa) = 38.23923 38.66932 38.45428
# Shear Modulus (GPa) = 24.90350 25.09767 25.00059
#
# Velocity S-wave (km/s) = 3.55424 3.56807 3.56116
# Velocity P-wave (km/s) = 6.02004 6.04900 6.03454
#
# Compressibility (1/GPa) = 0.02615115
#
# Stress axis : x y z
#
# Youngs Moduli (GPa) = 69.59225 69.59225 58.87121
#
# Poissons Ratio (x) = 0.23987 0.18662
# Poissons Ratio (y) = 0.23987 0.18662
# Poissons Ratio (z) = 0.22061 0.22061
#
# Static dielectric constant tensor:
#      x y z
#    x 3.581800 0.000000 0.000000 
#    y 0.000000 3.581800 0.000000 
#    z 0.000000 0.000000 3.383070 
# 
# 
# High freq. dielectric constant tensor:
#      x y z
#    x 1.770780 0.000000 0.000000 
#    y 0.000000 1.770780 0.000000 
#    z 0.000000 0.000000 1.746340 
# 
# From -- ./inp_files/1281.got.cif
#   From: 2010.03.12/outbox.cif.g09.slc.cpg/sg104_cif.got.tgz:1281.got - 2010.04.14 01:44:05.
