data_PCOD8307292
_publ_section_title
;
Structure prediction by ZEFSAII (Michael W. Deem and Ramdas Pophale) SiO2 
 PCOD8307292
Probable space group: P 42 M C
;
_chemical_formula_sum "Si O2"
_cell_formula_units_Z 48
_cell_length_a 9.511769
_cell_length_b 9.511769
_cell_length_c 26.942086
_cell_angle_alpha 90.000000
_cell_angle_beta 90.000000
_cell_angle_gamma 90.000000
_cell_volume 2437.551540
_symmetry_space_group_name_H-M "P 42 M C"
_symmetry_group_IT_number 105
_symmetry_cell_setting 'tetragonal'
loop_
_space_group_symop_operation_xyz
x,y,z
-y,x,1/2+z
-x,-y,z
y,-x,1/2+z
-x,y,z
x,-y,z
-y,-x,1/2+z
y,x,1/2+z
loop_
_atom_site_type_symbol
_atom_site_label
_atom_site_fract_x
_atom_site_fract_y
_atom_site_fract_z
Si Si1 0.660246 0.338722 0.014420
Si Si2 0.156341 0.837139 0.586554
Si Si3 0.666149 0.000000 0.380853
Si Si4 0.500000 0.836338 0.734488
Si Si5 0.000000 0.334898 0.763819
Si Si6 0.834844 0.500000 0.343304
Si Si7 0.830759 0.736608 0.418462
Si Si8 0.835788 0.205082 0.198775
O O1 0.500000 0.338762 0.032314
O O2 0.707549 0.500000 0.002089
O O3 0.751545 0.277486 0.059351
O O4 0.673433 0.232454 0.968618
O O5 0.151156 0.796397 0.644451
O O6 0.000000 0.806065 0.564761
O O7 0.195288 0.000000 0.580182
O O8 0.692651 0.000000 0.322323
O O9 0.745464 0.875082 0.407558
O O10 0.500000 0.000000 0.393222
O O11 0.500000 0.762059 0.788901
O O12 0.632143 0.794703 0.701345
O O13 0.500000 0.000000 0.745870
O O14 0.865261 0.260138 0.740440
O O15 0.000000 0.500000 0.751368
O O16 0.788042 0.636769 0.373172
O O17 0.000000 0.500000 0.338428
O O18 0.000000 0.758385 0.423464
O O19 0.000000 0.175872 0.210889
#
# Coordination Sequence:
#
# PCOD8307292 Si02
#       8
#     8   8   4   4   4   4   8   8
#     4  11  25  43  63  89 122 164 205 252 317 382
#     4  10  22  40  63  91 120 158 207 260 312 366
#     4  11  25  41  59  91 133 169 209 255 312 369
#     4   9  18  32  59  93 123 155 197 247 304 361
#     4  11  23  39  61  91 129 171 209 249 304 369
#     4   9  18  34  59  93 123 153 199 251 296 365
#     4  11  22  40  65  91 122 161 210 260 311 368
#     4  10  20  38  63  90 124 160 205 256 308 367
#
# _framework density 19.691890000000001
#
# number of rings (size 3 to 8) (size 9 to 14) (size 15 to 20)
#    0.000    1.667    1.667    2.500    2.333    4.667 
#    0.000    0.417    0.000    3.000    0.000    0.000 
#    0.000    0.000    0.000    0.000    0.000    0.000 
#
# Total GULP energy -595026.192661 kJ/mol
# GULP energy per Si atom -12396.379014 kJ/mol
# Density = 1.964707 g / cm^3
# Si number density = 19.691890 Si / 1000 Ang^3
#
#
#
# Elastic Constant Matrix: (Units=GPa)
#
#
# Indices 1 2 3 4 5 6 
#
# 1 114.9318 39.0271 31.3076 0.0000 0.0000 0.0000
# 2 39.0271 114.9318 31.3076 0.0000 0.0000 0.0000
# 3 31.3076 31.3076 71.9359 0.0000 0.0000 0.0000
# 4 0.0000 0.0000 0.0000 35.9840 0.0000 0.0000
# 5 0.0000 0.0000 0.0000 0.0000 35.9840 0.0000
# 6 0.0000 0.0000 0.0000 0.0000 0.0000 29.9708
#
#
#
# Elastic Compliance Matrix: (Units=1/GPa)
#
#
# Indices 1 2 3 4 5 6 
#
# 1 0.010533 -0.002641 -0.003435 0.000000 0.000000 0.000000
# 2 -0.002641 0.010533 -0.003435 0.000000 0.000000 0.000000
# 3 -0.003435 -0.003435 0.016891 0.000000 0.000000 0.000000
# 4 0.000000 0.000000 0.000000 0.027790 0.000000 0.000000
# 5 0.000000 0.000000 0.000000 0.000000 0.027790 0.000000
# 6 0.000000 0.000000 0.000000 0.000000 0.000000 0.033366
#
#
# Mechanical properties :
#
#
# Convention : Reuss Voigt Hill
#
# Bulk Modulus (GPa) = 52.80895 56.12045 54.46470
# Shear Modulus (GPa) = 32.84348 33.73156 33.28752
#
# Velocity S-wave (km/s) = 4.08838 4.14329 4.11593
# Velocity P-wave (km/s) = 7.01159 7.17289 7.09269
#
# Compressibility (1/GPa) = 0.01893619
#
# Stress axis : x y z
#
# Youngs Moduli (GPa) = 94.93711 94.93711 59.20308
#
# Poissons Ratio (x) = 0.25074 0.20335
# Poissons Ratio (y) = 0.25074 0.20335
# Poissons Ratio (z) = 0.32609 0.32609
#
# Static dielectric constant tensor:
#      x y z
#    x 3.668130 0.000000 0.000000 
#    y 0.000000 3.668130 0.000000 
#    z 0.000000 0.000000 3.627320 
# 
# 
# High freq. dielectric constant tensor:
#      x y z
#    x 1.767770 0.000000 0.000000 
#    y 0.000000 1.767770 0.000000 
#    z 0.000000 0.000000 1.773150 
# 
# From -- ./inp_files/4929.got.cif
#   From: 2010.03.12/outbox.cif.g09.slc.cpg/sg105_3_cif.got.tgz:4929.got - 2010.04.14 01:45:32.
