data_PCOD8307718
_publ_section_title
;
Structure prediction by ZEFSAII (Michael W. Deem and Ramdas Pophale) SiO2 
 PCOD8307718
Probable space group: I 4 C M
;
_chemical_formula_sum "Si O2"
_cell_formula_units_Z 96
_cell_length_a 16.517164
_cell_length_b 16.517164
_cell_length_c 18.158832
_cell_angle_alpha 90.000000
_cell_angle_beta 90.000000
_cell_angle_gamma 90.000000
_cell_volume 4954.032742
_symmetry_space_group_name_H-M "I 4 C M"
_symmetry_group_IT_number 108
_symmetry_cell_setting 'tetragonal'
loop_
_space_group_symop_operation_xyz
x,y,z
-y,x,z
-x,-y,z
y,-x,z
-x,y,1/2+z
x,-y,1/2+z
-y,-x,1/2+z
y,x,1/2+z
1/2+x,1/2+y,1/2+z
1/2-y,1/2+x,1/2+z
1/2-x,1/2-y,1/2+z
1/2+y,1/2-x,1/2+z
1/2-x,1/2+y,z
1/2+x,1/2-y,z
1/2-y,1/2-x,z
1/2+y,1/2+x,z
loop_
_atom_site_type_symbol
_atom_site_label
_atom_site_fract_x
_atom_site_fract_y
_atom_site_fract_z
Si Si1 0.583556 0.784173 0.769080
Si Si2 0.146441 0.775399 0.911469
Si Si3 0.750919 0.883292 0.493310
Si Si4 0.826947 0.804292 0.140660
Si Si5 0.953172 0.326949 0.014012
Si Si6 0.572929 0.796493 0.177600
O O1 0.629171 0.870830 0.777639
O O2 0.581119 0.732379 0.845556
O O3 0.627561 0.728098 0.711119
O O4 0.492077 0.798848 0.742980
O O5 0.220411 0.720411 0.883496
O O6 0.109379 0.742740 0.988619
O O7 0.181728 0.865642 0.929059
O O8 0.693575 0.806426 0.496569
O O9 0.799330 0.889026 0.571304
O O10 0.695093 0.961249 0.476340
O O11 0.748224 0.751777 0.120939
O O12 0.794468 0.894080 0.161127
O O13 0.914612 0.414612 0.989220
O O14 0.965867 0.328953 0.101596
O O15 0.645226 0.854775 0.204377
#
# Coordination Sequence:
#
# PCOD8307718 Si02
#       6
#    16  16  16  16  16  16
#     4  10  20  34  53  80 112 147 188 237 288 342
#     4   9  19  35  52  74 109 149 187 229 283 348
#     4  10  18  32  55  79 107 147 190 234 286 347
#     4   9  17  31  51  77 105 139 187 231 273 337
#     4  10  19  32  53  83 113 142 184 241 297 346
#     4  10  19  32  54  81 112 146 184 236 293 344
#
# _framework density 19.378152
#
# number of rings (size 3 to 8) (size 9 to 14) (size 15 to 20)
#    0.000    2.333    3.333    0.000    0.000    2.000 
#    0.000    4.167    0.000    4.000    0.000    2.333 
#    0.000    0.000    0.000    0.000    0.000    0.000 
#
# Total GULP energy -594648.536793 kJ/mol
# GULP energy per Si atom -12388.511183 kJ/mol
# Density = 1.933405 g / cm^3
# Si number density = 19.378152 Si / 1000 Ang^3
#
#
#
# Elastic Constant Matrix: (Units=GPa)
#
#
# Indices 1 2 3 4 5 6 
#
# 1 67.2182 58.4910 41.7101 0.0000 0.0000 0.0011
# 2 58.4910 67.2182 41.7101 0.0000 0.0000 -0.0011
# 3 41.7101 41.7101 89.2583 0.0000 0.0000 0.0000
# 4 0.0000 0.0000 0.0000 25.2037 0.0000 0.0000
# 5 0.0000 0.0000 0.0000 0.0000 25.2037 0.0000
# 6 0.0011 -0.0011 0.0000 0.0000 0.0000 22.5912
#
#
#
# Elastic Compliance Matrix: (Units=1/GPa)
#
#
# Indices 1 2 3 4 5 6 
#
# 1 0.063058 -0.051527 -0.005388 0.000000 0.000000 -0.000006
# 2 -0.051527 0.063058 -0.005388 0.000000 0.000000 0.000006
# 3 -0.005388 -0.005388 0.016239 0.000000 0.000000 0.000000
# 4 0.000000 0.000000 0.000000 0.039677 0.000000 0.000000
# 5 0.000000 0.000000 0.000000 0.000000 0.039677 0.000000
# 6 -0.000006 0.000006 0.000000 0.000000 0.000000 0.044265
#
#
# Mechanical properties :
#
#
# Convention : Reuss Voigt Hill
#
# Bulk Modulus (GPa) = 56.34602 56.39076 56.36839
# Shear Modulus (GPa) = 12.61050 20.05197 16.33124
#
# Velocity S-wave (km/s) = 2.55376 3.22028 2.90619
# Velocity P-wave (km/s) = 6.15108 6.55670 6.35713
#
# Compressibility (1/GPa) = 0.01774748
#
# Stress axis : x y z
#
# Youngs Moduli (GPa) = 15.85854 15.85854 61.57959
#
# Poissons Ratio (x) = 0.81714 0.33180
# Poissons Ratio (y) = 0.81714 0.33180
# Poissons Ratio (z) = 0.08545 0.08545
#
# Static dielectric constant tensor:
#      x y z
#    x 3.391260 0.000000 0.000000 
#    y 0.000000 3.391260 0.000000 
#    z 0.000000 0.000000 3.577240 
# 
# 
# High freq. dielectric constant tensor:
#      x y z
#    x 1.726080 0.000000 0.000000 
#    y 0.000000 1.726080 0.000000 
#    z 0.000000 0.000000 1.755880 
# 
# From -- ./inp_files/2475.got.cif
#   From: 2010.03.12/outbox.cif.g09.slc.cpg/sg108_2_cif.got.tgz:2475.got - 2010.04.14 01:53:11.
