data_PCOD8307583
_publ_section_title
;
Structure prediction by ZEFSAII (Michael W. Deem and Ramdas Pophale) SiO2 
 PCOD8307583
Probable space group: I 4 M M
;
_chemical_formula_sum "Si O2"
_cell_formula_units_Z 80
_cell_length_a 19.481575
_cell_length_b 19.481575
_cell_length_c 12.076361
_cell_angle_alpha 90.000000
_cell_angle_beta 90.000000
_cell_angle_gamma 90.000000
_cell_volume 4583.362599
_symmetry_space_group_name_H-M "I 4 M M"
_symmetry_group_IT_number 107
_symmetry_cell_setting 'tetragonal'
loop_
_space_group_symop_operation_xyz
x,y,z
-y,x,z
-x,-y,z
y,-x,z
-x,y,z
x,-y,z
-y,-x,z
y,x,z
1/2+x,1/2+y,1/2+z
1/2-y,1/2+x,1/2+z
1/2-x,1/2-y,1/2+z
1/2+y,1/2-x,1/2+z
1/2-x,1/2+y,1/2+z
1/2+x,1/2-y,1/2+z
1/2-y,1/2-x,1/2+z
1/2+y,1/2+x,1/2+z
loop_
_atom_site_type_symbol
_atom_site_label
_atom_site_fract_x
_atom_site_fract_y
_atom_site_fract_z
Si Si1 0.659013 0.227573 0.703620
Si Si2 0.689268 0.920970 0.992230
Si Si3 0.767859 0.875371 0.618388
Si Si4 0.921265 0.684408 0.419671
Si Si5 0.075445 0.814851 0.839497
O O1 0.700890 0.299111 0.709129
O O2 0.607089 0.227735 0.600652
O O3 0.709423 0.163580 0.688270
O O4 0.615397 0.218460 0.814878
O O5 0.670152 0.000000 0.010763
O O6 0.618581 0.882948 0.961752
O O7 0.741138 0.908976 0.891684
O O8 0.819141 0.819141 0.565561
O O9 0.739150 0.921349 0.519434
O O10 0.807472 0.922632 0.706509
O O11 0.000000 0.665004 0.391440
O O12 0.130588 0.869413 0.883620
O O13 0.000000 0.841075 0.873999
#
# Coordination Sequence:
#
# PCOD8307583 Si02
#       5
#    16  16  16  16  16
#     4  10  19  33  55  78 101 132 178 228 272 311
#     4  10  21  36  52  73 105 143 182 218 261 318
#     4   9  18  32  52  75 101 134 172 216 264 313
#     4  11  21  33  51  77 109 140 178 222 264 316
#     4  10  19  33  53  76 103 134 171 217 271 325
#
# _framework density 17.454435
#
# number of rings (size 3 to 8) (size 9 to 14) (size 15 to 20)
#    0.000    2.000    2.000    2.400    0.000    2.200 
#    0.000    0.000    0.000    2.400    0.000    0.000 
#    0.000   16.400    0.000    0.000    0.000    0.000 
#
# Total GULP energy -495934.883470 kJ/mol
# GULP energy per Si atom -12398.372087 kJ/mol
# Density = 1.741471 g / cm^3
# Si number density = 17.454435 Si / 1000 Ang^3
#
#
#
# Elastic Constant Matrix: (Units=GPa)
#
#
# Indices 1 2 3 4 5 6 
#
# 1 87.5975 61.1562 35.6122 0.0000 0.0000 -0.0006
# 2 61.1562 87.5975 35.6122 0.0000 0.0000 0.0006
# 3 35.6122 35.6122 88.2387 0.0000 0.0000 0.0000
# 4 0.0000 0.0000 0.0000 22.2663 0.0000 0.0000
# 5 0.0000 0.0000 0.0000 0.0000 22.2663 0.0000
# 6 -0.0006 0.0006 0.0000 0.0000 0.0000 21.2996
#
#
#
# Elastic Compliance Matrix: (Units=1/GPa)
#
#
# Indices 1 2 3 4 5 6 
#
# 1 0.023076 -0.014743 -0.003363 0.000000 0.000000 0.000001
# 2 -0.014743 0.023076 -0.003363 0.000000 0.000000 -0.000001
# 3 -0.003363 -0.003363 0.014047 0.000000 0.000000 0.000000
# 4 0.000000 0.000000 0.000000 0.044911 0.000000 0.000000
# 5 0.000000 0.000000 0.000000 0.000000 0.044911 0.000000
# 6 0.000001 -0.000001 0.000000 0.000000 0.000000 0.046949
#
#
# Mechanical properties :
#
#
# Convention : Reuss Voigt Hill
#
# Bulk Modulus (GPa) = 57.93440 58.68836 58.31138
# Shear Modulus (GPa) = 20.35305 21.90331 21.12818
#
# Velocity S-wave (km/s) = 3.41848 3.54628 3.48296
# Velocity P-wave (km/s) = 6.98893 7.10386 7.04663
#
# Compressibility (1/GPa) = 0.01726090
#
# Stress axis : x y z
#
# Youngs Moduli (GPa) = 43.33472 43.33472 71.18733
#
# Poissons Ratio (x) = 0.63890 0.23940
# Poissons Ratio (y) = 0.63890 0.23940
# Poissons Ratio (z) = 0.14574 0.14574
#
# Static dielectric constant tensor:
#      x y z
#    x 3.143500 0.000000 0.000000 
#    y 0.000000 3.143500 0.000000 
#    z 0.000000 0.000000 3.260700 
# 
# 
# High freq. dielectric constant tensor:
#      x y z
#    x 1.665150 0.000000 0.000000 
#    y 0.000000 1.665150 0.000000 
#    z 0.000000 0.000000 1.681170 
# 
# From -- ./inp_files/3060.got.cif
#   From: 2010.03.12/outbox.cif.g09.slc.cpg/sg107_2_cif.got.tgz:3060.got - 2010.04.14 01:49:11.
