data_PCOD8307627
_publ_section_title
;
Structure prediction by ZEFSAII (Michael W. Deem and Ramdas Pophale) SiO2 
 PCOD8307627
Probable space group: I 4 M M
;
_chemical_formula_sum "Si O2"
_cell_formula_units_Z 96
_cell_length_a 13.630200
_cell_length_b 13.630200
_cell_length_c 30.855798
_cell_angle_alpha 90.000000
_cell_angle_beta 90.000000
_cell_angle_gamma 90.000000
_cell_volume 5732.462727
_symmetry_space_group_name_H-M "I 4 M M"
_symmetry_group_IT_number 107
_symmetry_cell_setting 'tetragonal'
loop_
_space_group_symop_operation_xyz
x,y,z
-y,x,z
-x,-y,z
y,-x,z
-x,y,z
x,-y,z
-y,-x,z
y,x,z
1/2+x,1/2+y,1/2+z
1/2-y,1/2+x,1/2+z
1/2-x,1/2-y,1/2+z
1/2+y,1/2-x,1/2+z
1/2-x,1/2+y,1/2+z
1/2+x,1/2-y,1/2+z
1/2-y,1/2-x,1/2+z
1/2+y,1/2+x,1/2+z
loop_
_atom_site_type_symbol
_atom_site_label
_atom_site_fract_x
_atom_site_fract_y
_atom_site_fract_z
Si Si1 0.116080 0.608250 0.627600
Si Si2 0.612719 0.771118 0.046739
Si Si3 0.387281 0.228882 0.949860
Si Si4 0.615963 0.775141 0.211887
Si Si5 0.724859 0.884037 0.284713
Si Si6 0.608250 0.883920 0.369000
O O1 0.162811 0.500000 0.633760
O O2 0.152447 0.650135 0.581380
O O3 0.149655 0.679766 0.666021
O O4 0.000000 0.598993 0.628059
O O5 0.500000 0.745294 0.056081
O O6 0.669685 0.669685 0.052301
O O7 0.627067 0.814960 0.998300
O O8 0.500000 0.254706 0.940519
O O9 0.330315 0.330315 0.944299
O O10 0.347553 0.150135 0.915220
O O11 0.500000 0.755088 0.214352
O O12 0.672164 0.672164 0.218744
O O13 0.646308 0.853692 0.248300
O O14 0.827836 0.827836 0.277855
O O15 0.679766 0.850345 0.330579
O O16 0.744912 0.000000 0.282248
O O17 0.500000 0.837189 0.362840
O O18 0.598993 0.000000 0.368540
#
# Coordination Sequence:
#
# PCOD8307627 Si02
#       6
#    16  16  16  16  16  16
#     4   9  17  29  45  64  87 117 152 189 230 276
#     4   9  17  28  42  62  89 120 153 189 230 278
#     4   9  17  28  42  62  89 120 153 189 230 278
#     4  10  20  33  50  72  97 126 160 196 235 281
#     4  10  20  33  50  72  97 126 160 196 235 281
#     4   9  17  29  45  64  87 117 152 189 230 276
#
# _framework density 16.746729999999999
#
# number of rings (size 3 to 8) (size 9 to 14) (size 15 to 20)
#    0.000    2.667    0.000    2.000    0.000    3.000 
#    0.000    5.000    0.000    6.000    0.000    0.000 
#    0.000    6.000    0.000   14.667    0.000    1.333 
#
# Total GULP energy -595070.431890 kJ/mol
# GULP energy per Si atom -12397.300664 kJ/mol
# Density = 1.670861 g / cm^3
# Si number density = 16.746730 Si / 1000 Ang^3
#
#
#
# Elastic Constant Matrix: (Units=GPa)
#
#
# Indices 1 2 3 4 5 6 
#
# 1 77.6595 35.8743 39.5628 0.0000 0.0000 0.0000
# 2 35.8743 77.6595 39.5628 0.0000 0.0000 0.0000
# 3 39.5628 39.5628 121.6963 0.0000 0.0000 0.0000
# 4 0.0000 0.0000 0.0000 25.0619 0.0000 0.0000
# 5 0.0000 0.0000 0.0000 0.0000 25.0619 0.0000
# 6 0.0000 0.0000 0.0000 0.0000 0.0000 13.0671
#
#
#
# Elastic Compliance Matrix: (Units=1/GPa)
#
#
# Indices 1 2 3 4 5 6 
#
# 1 0.017660 -0.006272 -0.003702 0.000000 0.000000 0.000000
# 2 -0.006272 0.017660 -0.003702 0.000000 0.000000 0.000000
# 3 -0.003702 -0.003702 0.010624 0.000000 0.000000 0.000000
# 4 0.000000 0.000000 0.000000 0.039901 0.000000 0.000000
# 5 0.000000 0.000000 0.000000 0.000000 0.039901 0.000000
# 6 0.000000 0.000000 0.000000 0.000000 0.000000 0.076528
#
#
# Mechanical properties :
#
#
# Convention : Reuss Voigt Hill
#
# Bulk Modulus (GPa) = 53.78736 56.33502 55.06119
# Shear Modulus (GPa) = 21.20218 23.43920 22.32069
#
# Velocity S-wave (km/s) = 3.56202 3.74522 3.65477
# Velocity P-wave (km/s) = 7.00751 7.23980 7.12460
#
# Compressibility (1/GPa) = 0.01859173
#
# Stress axis : x y z
#
# Youngs Moduli (GPa) = 56.62501 56.62501 94.12360
#
# Poissons Ratio (x) = 0.35515 0.34847
# Poissons Ratio (y) = 0.35515 0.34847
# Poissons Ratio (z) = 0.20964 0.20964
#
# Static dielectric constant tensor:
#      x y z
#    x 2.990960 0.000000 0.000000 
#    y 0.000000 2.990960 0.000000 
#    z 0.000000 0.000000 3.479720 
# 
# 
# High freq. dielectric constant tensor:
#      x y z
#    x 1.622780 0.000000 0.000000 
#    y 0.000000 1.622780 0.000000 
#    z 0.000000 0.000000 1.666690 
# 
# From -- ./inp_files/6089.got.cif
#   From: 2010.03.12/outbox.cif.g09.slc.cpg/sg107_4_cif.got.tgz:6089.got - 2010.04.14 01:49:11.
