data_PCOD8307605
_publ_section_title
;
Structure prediction by ZEFSAII (Michael W. Deem and Ramdas Pophale) SiO2 
 PCOD8307605
Probable space group: I 4 M M
;
_chemical_formula_sum "Si O2"
_cell_formula_units_Z 112
_cell_length_a 13.396162
_cell_length_b 13.396162
_cell_length_c 36.175126
_cell_angle_alpha 90.000000
_cell_angle_beta 90.000000
_cell_angle_gamma 90.000000
_cell_volume 6491.885242
_symmetry_space_group_name_H-M "I 4 M M"
_symmetry_group_IT_number 107
_symmetry_cell_setting 'tetragonal'
loop_
_space_group_symop_operation_xyz
x,y,z
-y,x,z
-x,-y,z
y,-x,z
-x,y,z
x,-y,z
-y,-x,z
y,x,z
1/2+x,1/2+y,1/2+z
1/2-y,1/2+x,1/2+z
1/2-x,1/2-y,1/2+z
1/2+y,1/2-x,1/2+z
1/2-x,1/2+y,1/2+z
1/2+x,1/2-y,1/2+z
1/2-y,1/2-x,1/2+z
1/2+y,1/2+x,1/2+z
loop_
_atom_site_type_symbol
_atom_site_label
_atom_site_fract_x
_atom_site_fract_y
_atom_site_fract_z
Si Si1 0.882857 0.723221 0.294520
Si Si2 0.883066 0.721212 0.583132
Si Si3 0.116934 0.278788 0.730860
Si Si4 0.618611 0.889378 0.447306
Si Si5 0.388526 0.118228 0.656996
Si Si6 0.776779 0.617143 0.519472
Si Si7 0.389378 0.118611 0.366686
O O1 0.826726 0.826726 0.285941
O O2 0.855130 0.640456 0.264036
O O3 0.845439 0.683743 0.334333
O O4 0.000000 0.744397 0.293589
O O5 0.825256 0.825256 0.577444
O O6 0.845349 0.670287 0.620875
O O7 0.859544 0.644870 0.549956
O O8 0.000000 0.745491 0.583938
O O9 0.174744 0.174744 0.736549
O O10 0.154651 0.329713 0.693117
O O11 0.000000 0.254509 0.730054
O O12 0.500000 0.897406 0.447497
O O13 0.654561 0.816257 0.479659
O O14 0.652570 0.847430 0.406996
O O15 0.663921 0.000000 0.454206
O O16 0.500000 0.164805 0.656996
O O17 0.396772 0.000000 0.656996
O O18 0.755603 0.500000 0.520403
O O19 0.673274 0.673274 0.528052
O O20 0.500000 0.163921 0.359786
O O21 0.397405 0.000000 0.366495
#
# Coordination Sequence:
#
# PCOD8307605 Si02
#       7
#    16  16  16  16  16  16  16
#     4  10  20  32  47  68  93 124 162 201 241 284
#     4  10  20  33  50  73  99 127 160 197 240 290
#     4  10  20  33  50  73  99 127 160 197 240 290
#     4   8  14  26  45  68  92 117 148 190 238 285
#     4   9  17  30  49  71  95 125 159 193 226 261
#     4  10  20  32  47  68  93 124 162 201 241 284
#     4   8  14  26  45  68  92 117 148 190 238 285
#
# _framework density 17.252307999999999
#
# number of rings (size 3 to 8) (size 9 to 14) (size 15 to 20)
#    0.000    2.714    0.000    3.000    0.000    4.000 
#    0.000    0.000    0.000    2.571    0.000    0.000 
#    0.000   17.143    0.000    0.000    0.000    0.000 
#
# Total GULP energy -694265.322054 kJ/mol
# GULP energy per Si atom -12397.595037 kJ/mol
# Density = 1.721304 g / cm^3
# Si number density = 17.252308 Si / 1000 Ang^3
#
#
#
# Elastic Constant Matrix: (Units=GPa)
#
#
# Indices 1 2 3 4 5 6 
#
# 1 73.2653 32.1889 32.9405 0.0000 0.0000 0.0000
# 2 32.1889 73.2653 32.9405 0.0000 0.0000 0.0000
# 3 32.9405 32.9405 135.9452 0.0000 0.0000 0.0000
# 4 0.0000 0.0000 0.0000 21.2430 0.0000 0.0000
# 5 0.0000 0.0000 0.0000 0.0000 21.2430 0.0000
# 6 0.0000 0.0000 0.0000 0.0000 0.0000 14.4101
#
#
#
# Elastic Compliance Matrix: (Units=1/GPa)
#
#
# Indices 1 2 3 4 5 6 
#
# 1 0.017760 -0.006585 -0.002708 0.000000 0.000000 0.000000
# 2 -0.006585 0.017760 -0.002708 0.000000 0.000000 0.000000
# 3 -0.002708 -0.002708 0.008668 0.000000 0.000000 0.000000
# 4 0.000000 0.000000 0.000000 0.047074 0.000000 0.000000
# 5 0.000000 0.000000 0.000000 0.000000 0.047074 0.000000
# 6 0.000000 0.000000 0.000000 0.000000 0.000000 0.069396
#
#
# Mechanical properties :
#
#
# Convention : Reuss Voigt Hill
#
# Bulk Modulus (GPa) = 49.53870 53.17951 51.35910
# Shear Modulus (GPa) = 20.96774 23.67294 22.32034
#
# Velocity S-wave (km/s) = 3.48998 3.70829 3.60079
# Velocity P-wave (km/s) = 6.70944 7.01617 6.86452
#
# Compressibility (1/GPa) = 0.02018624
#
# Stress axis : x y z
#
# Youngs Moduli (GPa) = 56.30754 56.30754 115.36617
#
# Poissons Ratio (x) = 0.37080 0.31237
# Poissons Ratio (y) = 0.37080 0.31237
# Poissons Ratio (z) = 0.15246 0.15246
#
# Static dielectric constant tensor:
#      x y z
#    x 2.950230 0.000000 0.000000 
#    y 0.000000 2.950230 0.000000 
#    z 0.000000 0.000000 3.626390 
# 
# 
# High freq. dielectric constant tensor:
#      x y z
#    x 1.643070 0.000000 0.000000 
#    y 0.000000 1.643070 0.000000 
#    z 0.000000 0.000000 1.688470 
# 
# From -- ./inp_files/6208.got.cif
#   From: 2010.03.12/outbox.cif.g09.slc.cpg/sg107_4_cif.got.tgz:6208.got - 2010.04.14 01:49:11.
