data_PCOD8307644
_publ_section_title
;
Structure prediction by ZEFSAII (Michael W. Deem and Ramdas Pophale) SiO2 
 PCOD8307644
Probable space group: I 4 M M
;
_chemical_formula_sum "Si O2"
_cell_formula_units_Z 96
_cell_length_a 18.741680
_cell_length_b 18.741680
_cell_length_c 14.400153
_cell_angle_alpha 90.000000
_cell_angle_beta 90.000000
_cell_angle_gamma 90.000000
_cell_volume 5058.061938
_symmetry_space_group_name_H-M "I 4 M M"
_symmetry_group_IT_number 107
_symmetry_cell_setting 'tetragonal'
loop_
_space_group_symop_operation_xyz
x,y,z
-y,x,z
-x,-y,z
y,-x,z
-x,y,z
x,-y,z
-y,-x,z
y,x,z
1/2+x,1/2+y,1/2+z
1/2-y,1/2+x,1/2+z
1/2-x,1/2-y,1/2+z
1/2+y,1/2-x,1/2+z
1/2-x,1/2+y,1/2+z
1/2+x,1/2-y,1/2+z
1/2-y,1/2-x,1/2+z
1/2+y,1/2+x,1/2+z
loop_
_atom_site_type_symbol
_atom_site_label
_atom_site_fract_x
_atom_site_fract_y
_atom_site_fract_z
Si Si1 0.196714 0.582728 0.550870
Si Si2 0.084015 0.196964 0.208883
Si Si3 0.187492 0.582746 0.038128
Si Si4 0.665635 0.781601 0.853538
Si Si5 0.212723 0.580756 0.245615
Si Si6 0.192684 0.920848 0.904164
O O1 0.189047 0.500000 0.559174
O O2 0.247730 0.611744 0.631450
O O3 0.115499 0.609591 0.559015
O O4 0.234226 0.606604 0.453711
O O5 0.120825 0.120825 0.189932
O O6 0.109147 0.228938 0.306128
O O7 0.000000 0.184633 0.207736
O O8 0.183286 0.500000 0.007371
O O9 0.217231 0.633858 0.957741
O O10 0.228713 0.592869 0.136273
O O11 0.745096 0.745096 0.854133
O O12 0.665900 0.856842 0.795656
O O13 0.178700 0.500000 0.259758
O O14 0.290703 0.581269 0.294519
O O15 0.126030 0.873971 0.932678
O O16 0.174287 0.000000 0.940485
#
# Coordination Sequence:
#
# PCOD8307644 Si02
#       6
#    16  16  16  16  16  16
#     4  10  20  35  55  80 112 147 190 237 285 346
#     4  10  21  37  57  84 117 151 193 246 301 360
#     4  11  23  38  57  84 119 152 190 239 291 349
#     4  11  22  36  60  88 114 152 201 249 295 348
#     4  10  21  37  56  83 117 151 193 243 293 347
#     4  10  20  35  56  82 114 150 190 239 293 349
#
# _framework density 18.979600000000001
#
# number of rings (size 3 to 8) (size 9 to 14) (size 15 to 20)
#    0.000    1.667    3.333    1.500    0.000    2.667 
#    0.000    0.000    0.000    4.500    0.000    0.000 
#    0.000    4.000    0.000    0.000    0.000    0.000 
#
# Total GULP energy -594636.550954 kJ/mol
# GULP energy per Si atom -12388.261478 kJ/mol
# Density = 1.893640 g / cm^3
# Si number density = 18.979600 Si / 1000 Ang^3
#
#
#
# Elastic Constant Matrix: (Units=GPa)
#
#
# Indices 1 2 3 4 5 6 
#
# 1 85.9757 43.5436 22.7866 0.0000 0.0000 -0.0001
# 2 43.5436 85.9757 22.7866 0.0000 0.0000 0.0001
# 3 22.7866 22.7866 92.4725 0.0000 0.0000 0.0000
# 4 0.0000 0.0000 0.0000 22.4724 0.0000 0.0000
# 5 0.0000 0.0000 0.0000 0.0000 22.4724 0.0000
# 6 -0.0001 0.0001 0.0000 0.0000 0.0000 25.7228
#
#
#
# Elastic Compliance Matrix: (Units=1/GPa)
#
#
# Indices 1 2 3 4 5 6 
#
# 1 0.016010 -0.007557 -0.002083 0.000000 0.000000 0.000000
# 2 -0.007557 0.016010 -0.002083 0.000000 0.000000 0.000000
# 3 -0.002083 -0.002083 0.011841 0.000000 0.000000 0.000000
# 4 0.000000 0.000000 0.000000 0.044499 0.000000 0.000000
# 5 0.000000 0.000000 0.000000 0.000000 0.044499 0.000000
# 6 0.000000 0.000000 0.000000 0.000000 0.000000 0.038876
#
#
# Mechanical properties :
#
#
# Convention : Reuss Voigt Hill
#
# Bulk Modulus (GPa) = 48.98182 49.18418 49.08300
# Shear Modulus (GPa) = 24.75409 25.82064 25.28737
#
# Velocity S-wave (km/s) = 3.61535 3.69242 3.65409
# Velocity P-wave (km/s) = 6.57962 6.64448 6.61213
#
# Compressibility (1/GPa) = 0.02041574
#
# Stress axis : x y z
#
# Youngs Moduli (GPa) = 62.45909 62.45909 84.45467
#
# Poissons Ratio (x) = 0.47198 0.17593
# Poissons Ratio (y) = 0.47198 0.17593
# Poissons Ratio (z) = 0.13011 0.13011
#
# Static dielectric constant tensor:
#      x y z
#    x 3.445510 0.000000 0.000000 
#    y 0.000000 3.445510 0.000000 
#    z 0.000000 0.000000 3.971880 
# 
# 
# High freq. dielectric constant tensor:
#      x y z
#    x 1.724940 0.000000 0.000000 
#    y 0.000000 1.724940 0.000000 
#    z 0.000000 0.000000 1.755600 
# 
# From -- ./inp_files/2432.got.cif
#   From: 2010.03.12/outbox.cif.g09.slc.cpg/sg107_2_cif.got.tgz:2432.got - 2010.04.14 01:49:11.
