data_PCOD8307813
_publ_section_title
;
Structure prediction by ZEFSAII (Michael W. Deem and Ramdas Pophale) SiO2 
 PCOD8307813
Probable space group: I 4 C M
;
_chemical_formula_sum "Si O2"
_cell_formula_units_Z 96
_cell_length_a 14.623427
_cell_length_b 14.623427
_cell_length_c 20.752241
_cell_angle_alpha 90.000000
_cell_angle_beta 90.000000
_cell_angle_gamma 90.000000
_cell_volume 4437.755033
_symmetry_space_group_name_H-M "I 4 C M"
_symmetry_group_IT_number 108
_symmetry_cell_setting 'tetragonal'
loop_
_space_group_symop_operation_xyz
x,y,z
-y,x,z
-x,-y,z
y,-x,z
-x,y,1/2+z
x,-y,1/2+z
-y,-x,1/2+z
y,x,1/2+z
1/2+x,1/2+y,1/2+z
1/2-y,1/2+x,1/2+z
1/2-x,1/2-y,1/2+z
1/2+y,1/2-x,1/2+z
1/2-x,1/2+y,z
1/2+x,1/2-y,z
1/2-y,1/2-x,z
1/2+y,1/2+x,z
loop_
_atom_site_type_symbol
_atom_site_label
_atom_site_fract_x
_atom_site_fract_y
_atom_site_fract_z
Si Si1 0.117554 0.093330 0.280690
Si Si2 0.995323 0.353619 0.955459
Si Si3 0.628828 0.719671 0.406480
Si Si4 0.394510 0.607232 0.529261
Si Si5 0.494429 0.146967 0.601358
Si Si6 0.870780 0.218906 0.151634
O O1 0.176971 0.140464 0.336239
O O2 0.151365 0.125511 0.211419
O O3 0.014667 0.126338 0.288568
O O4 0.061274 0.438727 0.945406
O O5 0.028715 0.269485 0.910893
O O6 0.891622 0.391622 0.940419
O O7 0.004686 0.315972 0.028252
O O8 0.706789 0.793212 0.418903
O O9 0.642482 0.641432 0.460344
O O10 0.372784 0.501089 0.535325
O O11 0.345799 0.660509 0.587957
O O12 0.393431 0.106570 0.620965
O O13 0.530508 0.229119 0.646413
O O14 0.563905 0.063905 0.605367
O O15 0.791295 0.291295 0.162864
#
# Coordination Sequence:
#
# PCOD8307813 Si02
#       6
#    16  16  16  16  16  16
#     4  11  25  46  64  79 113 165 208 245 302 373
#     4   8  15  30  54  86 123 157 188 235 307 375
#     4  11  22  39  64  93 122 153 201 261 312 365
#     4  11  23  40  62  90 125 167 210 246 292 359
#     4   8  15  30  54  86 123 157 188 235 307 375
#     4  11  22  39  64  93 122 153 201 261 312 365
#
# _framework density 21.632560000000002
#
# number of rings (size 3 to 8) (size 9 to 14) (size 15 to 20)
#    0.000    2.000    0.000    5.000    0.000    2.667 
#    0.000   12.500    0.000    4.000    0.000    0.000 
#    0.000    0.000    0.000    0.000    0.000    0.000 
#
# Total GULP energy -595034.124762 kJ/mol
# GULP energy per Si atom -12396.544266 kJ/mol
# Density = 2.158332 g / cm^3
# Si number density = 21.632560 Si / 1000 Ang^3
#
#
#
# Elastic Constant Matrix: (Units=GPa)
#
#
# Indices 1 2 3 4 5 6 
#
# 1 66.5550 23.2502 16.6412 0.0000 0.0000 0.0002
# 2 23.2502 66.5550 16.6412 0.0000 0.0000 -0.0002
# 3 16.6412 16.6412 97.9179 0.0000 0.0000 0.0000
# 4 0.0000 0.0000 0.0000 26.9436 0.0000 0.0000
# 5 0.0000 0.0000 0.0000 0.0000 26.9436 0.0000
# 6 0.0002 -0.0002 0.0000 0.0000 0.0000 6.9397
#
#
#
# Elastic Compliance Matrix: (Units=1/GPa)
#
#
# Indices 1 2 3 4 5 6 
#
# 1 0.017488 -0.005604 -0.002020 0.000000 0.000000 -0.000001
# 2 -0.005604 0.017488 -0.002020 0.000000 0.000000 0.000001
# 3 -0.002020 -0.002020 0.010899 0.000000 0.000000 0.000000
# 4 0.000000 0.000000 0.000000 0.037115 0.000000 0.000000
# 5 0.000000 0.000000 0.000000 0.000000 0.037115 0.000000
# 6 -0.000001 0.000001 0.000000 0.000000 0.000000 0.144098
#
#
# Mechanical properties :
#
#
# Convention : Reuss Voigt Hill
#
# Bulk Modulus (GPa) = 37.61100 38.23255 37.92178
# Shear Modulus (GPa) = 17.10270 23.79842 20.45056
#
# Velocity S-wave (km/s) = 2.81481 3.32040 3.07801
# Velocity P-wave (km/s) = 5.29039 5.69316 5.49547
#
# Compressibility (1/GPa) = 0.02658797
#
# Stress axis : x y z
#
# Youngs Moduli (GPa) = 57.18241 57.18242 91.75063
#
# Poissons Ratio (x) = 0.32046 0.18530
# Poissons Ratio (y) = 0.32046 0.18530
# Poissons Ratio (z) = 0.11549 0.11549
#
# Static dielectric constant tensor:
#      x y z
#    x 4.197930 0.000000 0.000000 
#    y 0.000000 4.197930 0.000000 
#    z 0.000000 0.000000 3.642570 
# 
# 
# High freq. dielectric constant tensor:
#      x y z
#    x 1.857780 0.000000 0.000000 
#    y 0.000000 1.857780 0.000000 
#    z 0.000000 0.000000 1.821320 
# 
# From -- ./inp_files/2896.got.cif
#   From: 2010.03.12/outbox.cif.g09.slc.cpg/sg108_2_cif.got.tgz:2896.got - 2010.04.14 01:53:11.
