data_PCOD8307348
_publ_section_title
;
Structure prediction by ZEFSAII (Michael W. Deem and Ramdas Pophale) SiO2 
 PCOD8307348
Probable space group: P 42 M C
;
_chemical_formula_sum "Si O2"
_cell_formula_units_Z 40
_cell_length_a 8.145642
_cell_length_b 8.145642
_cell_length_c 28.374128
_cell_angle_alpha 90.000000
_cell_angle_beta 90.000000
_cell_angle_gamma 90.000000
_cell_volume 1882.665488
_symmetry_space_group_name_H-M "P 42 M C"
_symmetry_group_IT_number 105
_symmetry_cell_setting 'tetragonal'
loop_
_space_group_symop_operation_xyz
x,y,z
-y,x,1/2+z
-x,-y,z
y,-x,1/2+z
-x,y,z
x,-y,z
-y,-x,1/2+z
y,x,1/2+z
loop_
_atom_site_type_symbol
_atom_site_label
_atom_site_fract_x
_atom_site_fract_y
_atom_site_fract_z
Si Si1 0.688283 0.682955 0.732290
Si Si2 0.500000 0.688774 0.989798
Si Si3 0.184757 0.189388 0.325994
Si Si4 0.178275 0.810421 0.141960
Si Si5 0.500000 0.189970 0.092804
Si Si6 0.813463 0.804783 0.931872
O O1 0.500000 0.707007 0.719209
O O2 0.748783 0.500000 0.721110
O O3 0.710696 0.713419 0.787748
O O4 0.790747 0.802799 0.698442
O O5 0.500000 0.500000 0.003987
O O6 0.668844 0.725861 0.962370
O O7 0.500000 0.795248 0.036846
O O8 0.257404 0.215235 0.378377
O O9 0.000000 0.256385 0.324909
O O10 0.191285 0.000000 0.311879
O O11 0.333269 0.727462 0.114478
O O12 0.000000 0.733433 0.127223
O O13 0.172776 0.000000 0.128632
O O14 0.500000 0.000000 0.107263
O O15 0.000000 0.753399 0.948183
O O16 0.799263 0.000000 0.934410
#
# Coordination Sequence:
#
# PCOD8307348 Si02
#       6
#     8   4   8   8   4   8
#     4  11  23  35  51  82 124 163 199 238 293 367
#     4  12  26  40  62  94 130 164 200 258 322 385
#     4   9  19  36  58  84 113 151 202 253 300 354
#     4  10  21  39  64  89 114 150 199 253 304 361
#     4  10  22  42  64  88 118 156 206 254 306 367
#     4   9  20  41  66  90 120 162 213 264 311 369
#
# _framework density 21.246473999999999
#
# number of rings (size 3 to 8) (size 9 to 14) (size 15 to 20)
#    0.000    2.000    1.000    3.300    1.400    7.200 
#    0.000    4.000    0.000    0.000    0.000    0.000 
#    0.000    0.000    0.000    0.000    0.000    0.000 
#
# Total GULP energy -495767.529089 kJ/mol
# GULP energy per Si atom -12394.188227 kJ/mol
# Density = 2.119812 g / cm^3
# Si number density = 21.246474 Si / 1000 Ang^3
#
#
#
# Elastic Constant Matrix: (Units=GPa)
#
#
# Indices 1 2 3 4 5 6 
#
# 1 96.2798 34.2824 36.7005 0.0000 0.0000 0.0000
# 2 34.2824 96.2798 36.7005 0.0000 0.0000 0.0000
# 3 36.7005 36.7005 107.4665 0.0000 0.0000 0.0000
# 4 0.0000 0.0000 0.0000 26.7934 0.0000 0.0000
# 5 0.0000 0.0000 0.0000 0.0000 26.7934 0.0000
# 6 0.0000 0.0000 0.0000 0.0000 0.0000 23.1025
#
#
#
# Elastic Compliance Matrix: (Units=1/GPa)
#
#
# Indices 1 2 3 4 5 6 
#
# 1 0.012804 -0.003325 -0.003237 0.000000 0.000000 0.000000
# 2 -0.003325 0.012804 -0.003237 0.000000 0.000000 0.000000
# 3 -0.003237 -0.003237 0.011516 0.000000 0.000000 0.000000
# 4 0.000000 0.000000 0.000000 0.037323 0.000000 0.000000
# 5 0.000000 0.000000 0.000000 0.000000 0.037323 0.000000
# 6 0.000000 0.000000 0.000000 0.000000 0.000000 0.043285
#
#
# Mechanical properties :
#
#
# Convention : Reuss Voigt Hill
#
# Bulk Modulus (GPa) = 57.05887 57.26588 57.16237
# Shear Modulus (GPa) = 27.70130 28.16069 27.93100
#
# Velocity S-wave (km/s) = 3.61474 3.64459 3.62970
# Velocity P-wave (km/s) = 6.65851 6.68748 6.67301
#
# Compressibility (1/GPa) = 0.01752576
#
# Stress axis : x y z
#
# Youngs Moduli (GPa) = 78.09811 78.09811 86.83376
#
# Poissons Ratio (x) = 0.25970 0.28110
# Poissons Ratio (y) = 0.25970 0.28110
# Poissons Ratio (z) = 0.25282 0.25282
#
# Static dielectric constant tensor:
#      x y z
#    x 3.881760 0.000000 0.000000 
#    y 0.000000 3.881760 0.000000 
#    z 0.000000 0.000000 3.696160 
# 
# 
# High freq. dielectric constant tensor:
#      x y z
#    x 1.827070 0.000000 0.000000 
#    y 0.000000 1.827070 0.000000 
#    z 0.000000 0.000000 1.826030 
# 
# From -- ./inp_files/4326.got.cif
#   From: 2010.03.12/outbox.cif.g09.slc.cpg/sg105_3_cif.got.tgz:4326.got - 2010.04.14 01:45:32.
