data_PCOD8307629
_publ_section_title
;
Structure prediction by ZEFSAII (Michael W. Deem and Ramdas Pophale) SiO2 
 PCOD8307629
Probable space group: I 4 M M
;
_chemical_formula_sum "Si O2"
_cell_formula_units_Z 48
_cell_length_a 13.281223
_cell_length_b 13.281223
_cell_length_c 15.487508
_cell_angle_alpha 90.000000
_cell_angle_beta 90.000000
_cell_angle_gamma 90.000000
_cell_volume 2731.855233
_symmetry_space_group_name_H-M "I 4 M M"
_symmetry_group_IT_number 107
_symmetry_cell_setting 'tetragonal'
loop_
_space_group_symop_operation_xyz
x,y,z
-y,x,z
-x,-y,z
y,-x,z
-x,y,z
x,-y,z
-y,-x,z
y,x,z
1/2+x,1/2+y,1/2+z
1/2-y,1/2+x,1/2+z
1/2-x,1/2-y,1/2+z
1/2+y,1/2-x,1/2+z
1/2-x,1/2+y,1/2+z
1/2+x,1/2-y,1/2+z
1/2-y,1/2-x,1/2+z
1/2+y,1/2+x,1/2+z
loop_
_atom_site_type_symbol
_atom_site_label
_atom_site_fract_x
_atom_site_fract_y
_atom_site_fract_z
Si Si1 0.780277 0.617715 0.542730
Si Si2 0.117715 0.719724 0.695382
Si Si3 0.380672 0.112248 0.369055
O O1 0.755587 0.500000 0.540513
O O2 0.675716 0.675716 0.558455
O O3 0.858890 0.641111 0.619056
O O4 0.828963 0.656283 0.453628
O O5 0.175716 0.824285 0.679656
O O6 0.156284 0.671039 0.784484
O O7 0.000000 0.744414 0.697599
O O8 0.500000 0.104242 0.369055
O O9 0.333690 0.000000 0.369055
#
# Coordination Sequence:
#
# PCOD8307629 Si02
#       3
#    16  16  16
#     4  10  20  33  50  73 100 131 168 208 251 299
#     4  10  20  33  50  73 100 131 168 208 251 299
#     4   9  17  30  49  71  95 125 161 201 244 289
#
# _framework density 17.570478000000001
#
# number of rings (size 3 to 8) (size 9 to 14) (size 15 to 20)
#    0.000    2.333    0.000    3.000    0.000    4.000 
#    0.000    0.000    0.000    6.000    0.000    0.000 
#    0.000   24.000    0.000    0.000    0.000    0.000 
#
# Total GULP energy -297649.026429 kJ/mol
# GULP energy per Si atom -12402.042768 kJ/mol
# Density = 1.753049 g / cm^3
# Si number density = 17.570478 Si / 1000 Ang^3
#
#
#
# Elastic Constant Matrix: (Units=GPa)
#
#
# Indices 1 2 3 4 5 6 
#
# 1 83.0407 35.1109 30.9352 0.0000 0.0000 -0.0001
# 2 35.1109 83.0407 30.9352 0.0000 0.0000 0.0001
# 3 30.9352 30.9352 145.8538 0.0000 0.0000 0.0000
# 4 0.0000 0.0000 0.0000 26.9590 0.0000 0.0000
# 5 0.0000 0.0000 0.0000 0.0000 26.9590 0.0000
# 6 -0.0001 0.0001 0.0000 0.0000 0.0000 16.0982
#
#
#
# Elastic Compliance Matrix: (Units=1/GPa)
#
#
# Indices 1 2 3 4 5 6 
#
# 1 0.015193 -0.005671 -0.002019 0.000000 0.000000 0.000000
# 2 -0.005671 0.015193 -0.002019 0.000000 0.000000 0.000000
# 3 -0.002019 -0.002019 0.007713 0.000000 0.000000 0.000000
# 4 0.000000 0.000000 0.000000 0.037093 0.000000 0.000000
# 5 0.000000 0.000000 0.000000 0.000000 0.037093 0.000000
# 6 0.000000 0.000000 0.000000 0.000000 0.000000 0.062119
#
#
# Mechanical properties :
#
#
# Convention : Reuss Voigt Hill
#
# Bulk Modulus (GPa) = 53.54037 56.21086 54.87561
# Shear Modulus (GPa) = 24.99379 28.33347 26.66363
#
# Velocity S-wave (km/s) = 3.77568 4.02003 3.89977
# Velocity P-wave (km/s) = 7.03886 7.32179 7.18172
#
# Compressibility (1/GPa) = 0.01867750
#
# Stress axis : x y z
#
# Youngs Moduli (GPa) = 65.82190 65.82189 129.65443
#
# Poissons Ratio (x) = 0.37330 0.26183
# Poissons Ratio (y) = 0.37330 0.26183
# Poissons Ratio (z) = 0.13292 0.13292
#
# Static dielectric constant tensor:
#      x y z
#    x 3.057370 0.000000 0.000000 
#    y 0.000000 3.057370 0.000000 
#    z 0.000000 0.000000 3.541930 
# 
# 
# High freq. dielectric constant tensor:
#      x y z
#    x 1.664810 0.000000 0.000000 
#    y 0.000000 1.664810 0.000000 
#    z 0.000000 0.000000 1.700500 
# 
# From -- ./inp_files/1889.got.cif
#   From: 2010.03.12/outbox.cif.g09.slc.cpg/sg107_1_cif.got.tgz:1889.got - 2010.04.14 01:49:11.
