data_PCOD8307931
_publ_section_title
;
Structure prediction by ZEFSAII (Michael W. Deem and Ramdas Pophale) SiO2 
 PCOD8307931
Probable space group: I 41 M D
;
_chemical_formula_sum "Si O2"
_cell_formula_units_Z 64
_cell_length_a 10.593666
_cell_length_b 10.593666
_cell_length_c 28.832198
_cell_angle_alpha 90.000000
_cell_angle_beta 90.000000
_cell_angle_gamma 90.000000
_cell_volume 3235.715313
_symmetry_space_group_name_H-M "I 41 M D"
_symmetry_group_IT_number 109
_symmetry_cell_setting 'tetragonal'
loop_
_space_group_symop_operation_xyz
x,y,z
-y,1/2+x,1/4+z
-x,-y,z
y,1/2-x,1/4+z
-x,y,z
x,-y,z
-y,1/2-x,1/4+z
y,1/2+x,1/4+z
1/2+x,1/2+y,1/2+z
1/2-y,x,3/4+z
1/2-x,1/2-y,1/2+z
1/2+y,-x,3/4+z
1/2-x,1/2+y,1/2+z
1/2+x,1/2-y,1/2+z
1/2-y,-x,3/4+z
1/2+y,x,3/4+z
loop_
_atom_site_type_symbol
_atom_site_label
_atom_site_fract_x
_atom_site_fract_y
_atom_site_fract_z
Si Si1 0.856371 0.500000 0.847740
Si Si2 0.142120 0.757261 0.899220
Si Si3 0.356046 0.767243 0.740213
Si Si4 0.500000 0.143101 0.018646
Si Si5 0.139763 0.356251 0.339569
O O1 0.835246 0.383165 0.881765
O O2 0.750924 0.500000 0.808045
O O3 0.000000 0.500000 0.826913
O O4 0.158768 0.764997 0.954880
O O5 0.252102 0.844407 0.878212
O O6 0.000000 0.803202 0.886072
O O7 0.500000 0.813852 0.732652
O O8 0.342117 0.617160 0.733627
O O9 0.312161 0.787998 0.793120
O O10 0.500000 0.000000 0.040946
O O11 0.124202 0.500000 0.326355
O O12 0.000000 0.303898 0.354949
#
# Coordination Sequence:
#
# PCOD8307931 Si02
#       5
#     8  16  16   8  16
#     4  10  22  42  62  86 124 160 200 250 302 359
#     4  11  23  40  61  87 123 160 198 247 306 362
#     4  10  21  38  62  88 118 154 198 245 296 356
#     4  10  20  40  66  88 118 160 206 252 304 359
#     4  10  21  37  60  89 120 154 197 247 298 359
#
# _framework density 19.779243999999998
#
# number of rings (size 3 to 8) (size 9 to 14) (size 15 to 20)
#    0.000    1.750    2.500    1.500    1.750    3.000 
#    4.500    0.000    0.000    0.000    0.000    0.000 
#    0.000    0.000    0.000    0.000    0.000    0.000 
#
# Total GULP energy -396619.282585 kJ/mol
# GULP energy per Si atom -12394.352581 kJ/mol
# Density = 1.973423 g / cm^3
# Si number density = 19.779244 Si / 1000 Ang^3
#
#
#
# Elastic Constant Matrix: (Units=GPa)
#
#
# Indices 1 2 3 4 5 6 
#
# 1 100.9165 35.2387 32.9547 0.0000 0.0000 0.0000
# 2 35.2387 100.9165 32.9547 0.0000 0.0000 0.0000
# 3 32.9547 32.9547 71.0224 0.0000 0.0000 0.0000
# 4 0.0000 0.0000 0.0000 32.5710 0.0000 0.0000
# 5 0.0000 0.0000 0.0000 0.0000 32.5710 0.0000
# 6 0.0000 0.0000 0.0000 0.0000 0.0000 26.5726
#
#
#
# Elastic Compliance Matrix: (Units=1/GPa)
#
#
# Indices 1 2 3 4 5 6 
#
# 1 0.012349 -0.002877 -0.004395 0.000000 0.000000 0.000000
# 2 -0.002877 0.012349 -0.004395 0.000000 0.000000 0.000000
# 3 -0.004395 -0.004395 0.018159 0.000000 0.000000 0.000000
# 4 0.000000 0.000000 0.000000 0.030702 0.000000 0.000000
# 5 0.000000 0.000000 0.000000 0.000000 0.030702 0.000000
# 6 0.000000 0.000000 0.000000 0.000000 0.000000 0.037633
#
#
# Mechanical properties :
#
#
# Convention : Reuss Voigt Hill
#
# Bulk Modulus (GPa) = 51.22273 52.79463 52.00868
# Shear Modulus (GPa) = 29.11454 29.79007 29.45230
#
# Velocity S-wave (km/s) = 3.84079 3.88510 3.86301
# Velocity P-wave (km/s) = 6.75443 6.84655 6.80065
#
# Compressibility (1/GPa) = 0.01952258
#
# Stress axis : x y z
#
# Youngs Moduli (GPa) = 80.97831 80.97832 55.06979
#
# Poissons Ratio (x) = 0.23296 0.24204
# Poissons Ratio (y) = 0.23296 0.24204
# Poissons Ratio (z) = 0.35591 0.35591
#
# Static dielectric constant tensor:
#      x y z
#    x 3.733600 0.000000 0.000000 
#    y 0.000000 3.733600 0.000000 
#    z 0.000000 0.000000 3.350630 
# 
# 
# High freq. dielectric constant tensor:
#      x y z
#    x 1.775320 0.000000 0.000000 
#    y 0.000000 1.775320 0.000000 
#    z 0.000000 0.000000 1.754310 
# 
# From -- ./inp_files/4299.got.cif
#   From: 2010.03.12/outbox.cif.g09.slc.cpg/sg109_3_cif.got.tgz:4299.got - 2010.04.14 01:55:16.
