data_PCOD8307240
_publ_section_title
;
Structure prediction by ZEFSAII (Michael W. Deem and Ramdas Pophale) SiO2 
 PCOD8307240
Probable space group: P 42 M C
;
_chemical_formula_sum "Si O2"
_cell_formula_units_Z 40
_cell_length_a 9.076350
_cell_length_b 9.076350
_cell_length_c 25.989176
_cell_angle_alpha 90.000000
_cell_angle_beta 90.000000
_cell_angle_gamma 90.000000
_cell_volume 2140.991680
_symmetry_space_group_name_H-M "P 42 M C"
_symmetry_group_IT_number 105
_symmetry_cell_setting 'tetragonal'
loop_
_space_group_symop_operation_xyz
x,y,z
-y,x,1/2+z
-x,-y,z
y,-x,1/2+z
-x,y,z
x,-y,z
-y,-x,1/2+z
y,x,1/2+z
loop_
_atom_site_type_symbol
_atom_site_label
_atom_site_fract_x
_atom_site_fract_y
_atom_site_fract_z
Si Si1 0.833817 0.824775 0.550320
Si Si2 0.330614 0.825556 0.448964
Si Si3 0.171818 0.671704 0.151832
Si Si4 0.675183 0.333859 0.753276
Si Si5 0.673604 0.170618 0.854920
O O1 0.742857 0.766117 0.501430
O O2 0.757994 0.766368 0.602336
O O3 0.000000 0.763603 0.547155
O O4 0.831864 0.000000 0.550604
O O5 0.500000 0.775809 0.448696
O O6 0.247500 0.753089 0.401891
O O7 0.314689 0.000000 0.444424
O O8 0.202747 0.500000 0.142535
O O9 0.257398 0.733978 0.201422
O O10 0.000000 0.701582 0.161065
O O11 0.500000 0.331449 0.752719
O O12 0.736327 0.500000 0.756203
O O13 0.733165 0.244024 0.802481
O O14 0.500000 0.193791 0.860993
O O15 0.716904 0.000000 0.853711
#
# Coordination Sequence:
#
# PCOD8307240 Si02
#       5
#     8   8   8   8   8
#     4   9  17  30  49  72  98 129 165 205 250 301
#     4  10  20  34  53  77 104 135 172 213 257 305
#     4   9  16  28  48  71  92 118 158 205 248 294
#     4   9  17  30  49  72  98 129 165 205 250 301
#     4  10  20  34  53  77 104 135 172 213 257 305
#
# _framework density 18.682929000000001
#
# number of rings (size 3 to 8) (size 9 to 14) (size 15 to 20)
#    0.000    2.600    0.000    2.400    0.000    7.200 
#    0.000    2.000    0.000    7.800    0.000    0.000 
#    0.000    0.000    0.000    0.000    0.000    0.000 
#
# Total GULP energy -496040.163293 kJ/mol
# GULP energy per Si atom -12401.004082 kJ/mol
# Density = 1.864041 g / cm^3
# Si number density = 18.682929 Si / 1000 Ang^3
#
#
#
# Elastic Constant Matrix: (Units=GPa)
#
#
# Indices 1 2 3 4 5 6 
#
# 1 64.1457 24.3890 48.6704 0.0000 0.0000 0.0000
# 2 24.3890 64.1457 48.6704 0.0000 0.0000 0.0000
# 3 48.6704 48.6704 181.4787 0.0000 0.0000 0.0000
# 4 0.0000 0.0000 0.0000 34.1898 0.0000 0.0000
# 5 0.0000 0.0000 0.0000 0.0000 34.1898 0.0000
# 6 0.0000 0.0000 0.0000 0.0000 0.0000 19.2860
#
#
#
# Elastic Compliance Matrix: (Units=1/GPa)
#
#
# Indices 1 2 3 4 5 6 
#
# 1 0.020586 -0.004567 -0.004296 0.000000 0.000000 0.000000
# 2 -0.004567 0.020586 -0.004296 0.000000 0.000000 0.000000
# 3 -0.004296 -0.004296 0.007814 0.000000 0.000000 0.000000
# 4 0.000000 0.000000 0.000000 0.029248 0.000000 0.000000
# 5 0.000000 0.000000 0.000000 0.000000 0.029248 0.000000
# 6 0.000000 0.000000 0.000000 0.000000 0.000000 0.051851
#
#
# Mechanical properties :
#
#
# Convention : Reuss Voigt Hill
#
# Bulk Modulus (GPa) = 44.11640 61.46996 52.79318
# Shear Modulus (GPa) = 25.87889 30.06916 27.97403
#
# Velocity S-wave (km/s) = 3.72581 4.01614 3.87370
# Velocity P-wave (km/s) = 6.49411 7.38099 6.95170
#
# Compressibility (1/GPa) = 0.02266731
#
# Stress axis : x y z
#
# Youngs Moduli (GPa) = 48.57772 48.57772 127.96742
#
# Poissons Ratio (x) = 0.22187 0.54973
# Poissons Ratio (y) = 0.22187 0.54973
# Poissons Ratio (z) = 0.20868 0.20868
#
# Static dielectric constant tensor:
#      x y z
#    x 3.382920 0.000000 0.000000 
#    y 0.000000 3.382920 0.000000 
#    z 0.000000 0.000000 3.694560 
# 
# 
# High freq. dielectric constant tensor:
#      x y z
#    x 1.704650 0.000000 0.000000 
#    y 0.000000 1.704650 0.000000 
#    z 0.000000 0.000000 1.745480 
# 
# From -- ./inp_files/3913.got.cif
#   From: 2010.03.12/outbox.cif.g09.slc.cpg/sg105_2_cif.got.tgz:3913.got - 2010.04.14 01:45:32.
