data_PCOD8307062
_publ_section_title
;
Structure prediction by ZEFSAII (Michael W. Deem and Ramdas Pophale) SiO2 
 PCOD8307062
Probable space group: P 4 N C 
;
_chemical_formula_sum "Si O2"
_cell_formula_units_Z 48
_cell_length_a 8.007337
_cell_length_b 8.007337
_cell_length_c 33.357435
_cell_angle_alpha 90.000000
_cell_angle_beta 90.000000
_cell_angle_gamma 90.000000
_cell_volume 2138.793532
_symmetry_space_group_name_H-M "P 4 N C "
_symmetry_group_IT_number 104
_symmetry_cell_setting 'tetragonal'
loop_
_space_group_symop_operation_xyz
x,y,z
-y,x,z
-x,-y,z
y,-x,z
1/2-x,1/2+y,1/2+z
1/2+x,1/2-y,1/2+z
1/2-y,1/2-x,1/2+z
1/2+y,1/2+x,1/2+z
loop_
_atom_site_type_symbol
_atom_site_label
_atom_site_fract_x
_atom_site_fract_y
_atom_site_fract_z
Si Si1 0.738190 0.090402 0.014350
Si Si2 0.000000 0.500000 0.235599
Si Si3 0.761810 0.590402 0.091983
Si Si4 0.582908 0.236564 0.668546
Si Si5 0.000000 0.500000 0.370734
Si Si6 0.236564 0.417092 0.937787
Si Si7 0.923353 0.264467 0.803166
O O1 0.627010 0.127011 0.053166
O O2 0.898503 0.209529 0.014140
O O3 0.621699 0.123295 0.976139
O O4 0.890625 0.625445 0.208240
O O5 0.874550 0.393178 0.263448
O O6 0.601497 0.709529 0.092193
O O7 0.878301 0.623295 0.130194
O O8 0.707482 0.391340 0.668110
O O9 0.109375 0.374555 0.398093
O O10 0.125451 0.606821 0.342884
O O11 0.391340 0.292518 0.938222
O O12 0.114998 0.205919 0.803166
#
# Coordination Sequence:
#
# PCOD8307062 Si02
#       7
#     8   4   8   8   4   8   8
#     4  11  24  41  62  90 125 167 214 263 315 370
#     4  11  22  40  63  90 124 160 201 252 310 369
#     4  11  24  41  62  90 125 167 214 263 315 370
#     4  11  23  39  61  90 124 164 210 259 313 372
#     4  11  22  40  63  90 124 160 201 252 310 369
#     4  11  23  39  61  90 124 164 210 259 313 372
#     4  10  22  40  64  92 122 158 200 247 304 372
#
# _framework density 22.442557999999998
#
# number of rings (size 3 to 8) (size 9 to 14) (size 15 to 20)
#    0.000    1.167    0.000    6.000    0.000    6.000 
#    0.000    3.333    0.000    8.000    0.000    0.000 
#    0.000    0.000    0.000    0.000    0.000    0.000 
#
# Total GULP energy -595472.047050 kJ/mol
# GULP energy per Si atom -12405.667647 kJ/mol
# Density = 2.239148 g / cm^3
# Si number density = 22.442558 Si / 1000 Ang^3
#
#
#
# Elastic Constant Matrix: (Units=GPa)
#
#
# Indices 1 2 3 4 5 6 
#
# 1 89.5108 18.7275 46.4024 0.0000 0.0000 0.0000
# 2 18.7275 89.5108 46.4024 0.0000 0.0000 0.0000
# 3 46.4024 46.4024 191.8113 0.0000 0.0000 0.0000
# 4 0.0000 0.0000 0.0000 -49.3219 0.0000 0.0000
# 5 0.0000 0.0000 0.0000 0.0000 -49.3219 0.0000
# 6 0.0000 0.0000 0.0000 0.0000 0.0000 36.3958
#
#
#
# Elastic Compliance Matrix: (Units=1/GPa)
#
#
# Indices 1 2 3 4 5 6 
#
# 1 0.012892 -0.001235 -0.002820 0.000000 0.000000 0.000000
# 2 -0.001235 0.012892 -0.002820 0.000000 0.000000 0.000000
# 3 -0.002820 -0.002820 0.006578 0.000000 0.000000 0.000000
# 4 0.000000 0.000000 0.000000 -0.020275 0.000000 0.000000
# 5 0.000000 0.000000 0.000000 0.000000 -0.020275 0.000000
# 6 0.000000 0.000000 0.000000 0.000000 0.000000 0.027476
#
#
# Mechanical properties :
#
#
# Convention : Reuss Voigt Hill
#
# Bulk Modulus (GPa) = 53.73029 65.98863 59.85946
# Shear Modulus (GPa) = 127.41293 4.83713 66.12503
#
# Velocity S-wave (km/s) = 7.54295 1.46970 5.43398
# Velocity P-wave (km/s) = 9.99274 5.68746 8.13025
#
# Compressibility (1/GPa) = 0.01861148
#
# Stress axis : x y z
#
# Youngs Moduli (GPa) = 77.56642 77.56642 152.02539
#
# Poissons Ratio (x) = 0.09583 0.42871
# Poissons Ratio (y) = 0.09583 0.42871
# Poissons Ratio (z) = 0.21873 0.21873
#
# Static dielectric constant tensor:
#      x y z
#    x 3.995580 0.000000 0.000000 
#    y 0.000000 3.995580 0.000000 
#    z 0.000000 0.000000 4.126410 
# 
# 
# High freq. dielectric constant tensor:
#      x y z
#    x 1.891120 0.000000 0.000000 
#    y 0.000000 1.891120 0.000000 
#    z 0.000000 0.000000 1.896980 
# 
# From -- ./inp_files/1965.got.cif
#   From: 2010.03.12/outbox.cif.g09.slc.cpg/sg104_cif.got.tgz:1965.got - 2010.04.14 01:44:05.
