data_PCOD8307905
_publ_section_title
;
Structure prediction by ZEFSAII (Michael W. Deem and Ramdas Pophale) SiO2 
 PCOD8307905
Probable space group: I 41 M D
;
_chemical_formula_sum "Si O2"
_cell_formula_units_Z 64
_cell_length_a 18.425491
_cell_length_b 18.425491
_cell_length_c 10.419974
_cell_angle_alpha 90.000000
_cell_angle_beta 90.000000
_cell_angle_gamma 90.000000
_cell_volume 3537.567821
_symmetry_space_group_name_H-M "I 41 M D"
_symmetry_group_IT_number 109
_symmetry_cell_setting 'tetragonal'
loop_
_space_group_symop_operation_xyz
x,y,z
-y,1/2+x,1/4+z
-x,-y,z
y,1/2-x,1/4+z
-x,y,z
x,-y,z
-y,1/2-x,1/4+z
y,1/2+x,1/4+z
1/2+x,1/2+y,1/2+z
1/2-y,x,3/4+z
1/2-x,1/2-y,1/2+z
1/2+y,-x,3/4+z
1/2-x,1/2+y,1/2+z
1/2+x,1/2-y,1/2+z
1/2-y,-x,3/4+z
1/2+y,x,3/4+z
loop_
_atom_site_type_symbol
_atom_site_label
_atom_site_fract_x
_atom_site_fract_y
_atom_site_fract_z
Si Si1 0.586314 0.580521 0.609700
Si Si2 0.919479 0.913686 0.388096
Si Si3 0.415230 0.334698 0.362524
Si Si4 0.665302 0.584770 0.135272
O O1 0.500000 0.576706 0.613030
O O2 0.618351 0.500000 0.585373
O O3 0.611765 0.611765 0.748898
O O4 0.613563 0.631801 0.495875
O O5 0.868199 0.886437 0.501920
O O6 0.000000 0.881649 0.412423
O O7 0.923295 0.000000 0.384765
O O8 0.500000 0.352253 0.338336
O O9 0.400698 0.250000 0.373898
O O10 0.368699 0.368699 0.248898
O O11 0.647747 0.500000 0.159461
#
# Coordination Sequence:
#
# PCOD8307905 Si02
#       4
#    16  16  16  16
#     4   8  14  27  49  74  96 121 160 209 255 300
#     4   8  14  27  49  74  96 121 160 209 255 300
#     4  10  20  34  52  75 103 134 171 214 259 312
#     4  10  20  34  52  75 103 134 171 214 259 312
#
# _framework density 18.091525000000001
#
# number of rings (size 3 to 8) (size 9 to 14) (size 15 to 20)
#    0.000    3.000    0.000    3.000    0.000    2.500 
#    0.000    5.000    0.000   12.000    0.000    0.000 
#    0.000    0.000    0.000    0.000    0.000    0.000 
#
# Total GULP energy -396631.338294 kJ/mol
# GULP energy per Si atom -12394.729322 kJ/mol
# Density = 1.805035 g / cm^3
# Si number density = 18.091525 Si / 1000 Ang^3
#
#
#
# Elastic Constant Matrix: (Units=GPa)
#
#
# Indices 1 2 3 4 5 6 
#
# 1 72.5139 40.1530 70.8018 0.0000 0.0000 0.0000
# 2 40.1530 72.5139 70.8018 0.0000 0.0000 0.0000
# 3 70.8018 70.8018 208.4922 0.0000 0.0000 0.0000
# 4 0.0000 0.0000 0.0000 10.5633 0.0000 0.0000
# 5 0.0000 0.0000 0.0000 0.0000 10.5633 0.0000
# 6 0.0000 0.0000 0.0000 0.0000 0.0000 12.3816
#
#
#
# Elastic Compliance Matrix: (Units=1/GPa)
#
#
# Indices 1 2 3 4 5 6 
#
# 1 0.023193 -0.007708 -0.005258 0.000000 0.000000 0.000000
# 2 -0.007708 0.023193 -0.005258 0.000000 0.000000 0.000000
# 3 -0.005258 -0.005258 0.008368 0.000000 0.000000 0.000000
# 4 0.000000 0.000000 0.000000 0.094667 0.000000 0.000000
# 5 0.000000 0.000000 0.000000 0.000000 0.094667 0.000000
# 6 0.000000 0.000000 0.000000 0.000000 0.000000 0.080765
#
#
# Mechanical properties :
#
#
# Convention : Reuss Voigt Hill
#
# Bulk Modulus (GPa) = 54.63463 79.67034 67.15248
# Shear Modulus (GPa) = 13.60896 18.15255 15.88075
#
# Velocity S-wave (km/s) = 2.74565 3.17104 2.96598
# Velocity P-wave (km/s) = 6.34949 7.58553 6.99487
#
# Compressibility (1/GPa) = 0.01830341
#
# Stress axis : x y z
#
# Youngs Moduli (GPa) = 43.11626 43.11626 119.50611
#
# Poissons Ratio (x) = 0.33236 0.62842
# Poissons Ratio (y) = 0.33236 0.62842
# Poissons Ratio (z) = 0.22672 0.22672
#
# Static dielectric constant tensor:
#      x y z
#    x 2.875010 0.000000 0.000000 
#    y 0.000000 2.875010 0.000000 
#    z 0.000000 0.000000 3.867490 
# 
# 
# High freq. dielectric constant tensor:
#      x y z
#    x 1.667370 0.000000 0.000000 
#    y 0.000000 1.667370 0.000000 
#    z 0.000000 0.000000 1.724430 
# 
# From -- ./inp_files/1175.got.cif
#   From: 2010.03.12/outbox.cif.g09.slc.cpg/sg109_1_cif.got.tgz:1175.got - 2010.04.14 01:55:16.
