data_PCOD8307464
_publ_section_title
;
Structure prediction by ZEFSAII (Michael W. Deem and Ramdas Pophale) SiO2 
 PCOD8307464
Probable space group: P 42 B C
;
_chemical_formula_sum "Si O2"
_cell_formula_units_Z 48
_cell_length_a 8.978127
_cell_length_b 8.978127
_cell_length_c 26.288541
_cell_angle_alpha 90.000000
_cell_angle_beta 90.000000
_cell_angle_gamma 90.000000
_cell_volume 2119.034232
_symmetry_space_group_name_H-M "P 42 B C"
_symmetry_group_IT_number 106
_symmetry_cell_setting 'tetragonal'
loop_
_space_group_symop_operation_xyz
x,y,z
-y,x,1/2+z
-x,-y,z
y,-x,1/2+z
1/2-x,1/2+y,z
1/2+x,1/2-y,z
1/2-y,1/2-x,1/2+z
1/2+y,1/2+x,1/2+z
loop_
_atom_site_type_symbol
_atom_site_label
_atom_site_fract_x
_atom_site_fract_y
_atom_site_fract_z
Si Si1 0.633243 0.615888 0.344170
Si Si2 0.361519 0.898336 0.018691
Si Si3 0.861428 0.896572 0.957353
Si Si4 0.583509 0.853844 0.786362
Si Si5 0.140116 0.391152 0.132006
Si Si6 0.643249 0.411475 0.192050
O O1 0.500000 0.500000 0.339565
O O2 0.654166 0.685584 0.400692
O O3 0.781596 0.526744 0.328104
O O4 0.599958 0.757434 0.309019
O O5 0.306619 0.848791 0.074671
O O6 0.500000 0.000000 0.029509
O O7 0.403273 0.749664 0.988716
O O8 0.255289 0.002084 0.986138
O O9 0.000000 0.000000 0.949799
O O10 0.621857 0.746008 0.740082
O O11 0.500000 0.000000 0.765022
O O12 0.281863 0.476122 0.153075
O O13 0.102312 0.242673 0.163930
O O14 0.000000 0.500000 0.134488
O O15 0.500000 0.500000 0.212735
#
# Coordination Sequence:
#
# PCOD8307464 Si02
#       6
#     8   8   8   8   8   8
#     4  11  27  45  70 104 138 188 243 294 364 430
#     4  11  25  44  71 103 145 186 238 294 363 433
#     4  11  26  43  68 102 140 186 240 295 360 432
#     4  12  27  47  73 101 144 187 238 301 362 437
#     4  11  25  45  71 105 140 189 235 295 364 432
#     4  12  26  46  73 103 143 184 240 297 363 436
#
# _framework density 22.651828999999999
#
# number of rings (size 3 to 8) (size 9 to 14) (size 15 to 20)
#    0.000    0.667    0.000    6.000    9.333    9.333 
#    0.000    1.667    0.000    0.000    0.000    0.000 
#    0.000    0.000    0.000    0.000    0.000    0.000 
#
# Total GULP energy -595276.101690 kJ/mol
# GULP energy per Si atom -12401.585452 kJ/mol
# Density = 2.260027 g / cm^3
# Si number density = 22.651829 Si / 1000 Ang^3
#
#
#
# Elastic Constant Matrix: (Units=GPa)
#
#
# Indices 1 2 3 4 5 6 
#
# 1 120.5689 26.2660 55.4457 0.0000 0.0000 0.0000
# 2 26.2660 120.5689 55.4457 0.0000 0.0000 0.0000
# 3 55.4457 55.4457 184.8239 0.0000 0.0000 0.0000
# 4 0.0000 0.0000 0.0000 92.3839 0.0000 0.0000
# 5 0.0000 0.0000 0.0000 0.0000 92.3839 0.0000
# 6 0.0000 0.0000 0.0000 0.0000 0.0000 42.4897
#
#
#
# Elastic Compliance Matrix: (Units=1/GPa)
#
#
# Indices 1 2 3 4 5 6 
#
# 1 0.009705 -0.000899 -0.002642 0.000000 0.000000 0.000000
# 2 -0.000899 0.009705 -0.002642 0.000000 0.000000 0.000000
# 3 -0.002642 -0.002642 0.006995 0.000000 0.000000 0.000000
# 4 0.000000 0.000000 0.000000 0.010824 0.000000 0.000000
# 5 0.000000 0.000000 0.000000 0.000000 0.010824 0.000000
# 6 0.000000 0.000000 0.000000 0.000000 0.000000 0.023535
#
#
# Mechanical properties :
#
#
# Convention : Reuss Voigt Hill
#
# Bulk Modulus (GPa) = 71.22550 77.80849 74.51699
# Shear Modulus (GPa) = 56.41203 64.70513 60.55858
#
# Velocity S-wave (km/s) = 4.99580 5.35043 5.17615
# Velocity P-wave (km/s) = 8.04918 8.52020 8.28803
#
# Compressibility (1/GPa) = 0.01403992
#
# Stress axis : x y z
#
# Youngs Moduli (GPa) = 103.04291 103.04291 142.95069
#
# Poissons Ratio (x) = 0.09268 0.37761
# Poissons Ratio (y) = 0.09268 0.37761
# Poissons Ratio (z) = 0.27219 0.27219
#
# Static dielectric constant tensor:
#      x y z
#    x 3.071540 0.000000 0.000000 
#    y 0.000000 3.071540 0.000000 
#    z 0.000000 0.000000 5.097530 
# 
# 
# High freq. dielectric constant tensor:
#      x y z
#    x 1.903750 0.000000 0.000000 
#    y 0.000000 1.903750 0.000000 
#    z 0.000000 0.000000 1.915640 
# 
# From -- ./inp_files/1777.got.cif
#   From: 2010.03.12/outbox.cif.g09.slc.cpg/sg106_cif.got.tgz:1777.got - 2010.04.14 01:48:02.
