data_PCOD8307272
_publ_section_title
;
Structure prediction by ZEFSAII (Michael W. Deem and Ramdas Pophale) SiO2 
 PCOD8307272
Probable space group: P 42 M C
;
_chemical_formula_sum "Si O2"
_cell_formula_units_Z 40
_cell_length_a 8.859943
_cell_length_b 8.859943
_cell_length_c 25.752139
_cell_angle_alpha 90.000000
_cell_angle_beta 90.000000
_cell_angle_gamma 90.000000
_cell_volume 2021.506600
_symmetry_space_group_name_H-M "P 42 M C"
_symmetry_group_IT_number 105
_symmetry_cell_setting 'tetragonal'
loop_
_space_group_symop_operation_xyz
x,y,z
-y,x,1/2+z
-x,-y,z
y,-x,1/2+z
-x,y,z
x,-y,z
-y,-x,1/2+z
y,x,1/2+z
loop_
_atom_site_type_symbol
_atom_site_label
_atom_site_fract_x
_atom_site_fract_y
_atom_site_fract_z
Si Si1 0.177850 0.672878 0.128720
Si Si2 0.825358 0.675222 0.934882
Si Si3 0.675221 0.825357 0.031918
Si Si4 0.672878 0.177850 0.838080
Si Si5 0.330287 0.320707 0.233400
O O1 0.229369 0.500000 0.118695
O O2 0.233196 0.777345 0.082401
O O3 0.247017 0.738599 0.181939
O O4 0.000000 0.683643 0.133291
O O5 0.794518 0.500000 0.924606
O O6 0.777345 0.766801 0.884398
O O7 0.000000 0.707425 0.947129
O O8 0.727147 0.727148 0.983400
O O9 0.500000 0.794516 0.042195
O O10 0.707423 0.000000 0.019670
O O11 0.500000 0.229369 0.848104
O O12 0.738599 0.247015 0.784861
O O13 0.683643 0.000000 0.833510
O O14 0.500000 0.257634 0.233400
O O15 0.326006 0.500000 0.233400
#
# Coordination Sequence:
#
# PCOD8307272 Si02
#       5
#     8   8   8   8   8
#     4  10  20  35  57  85 115 147 185 229 277 330
#     4  11  24  40  58  82 111 144 184 229 277 331
#     4  11  24  40  58  82 111 144 184 229 277 331
#     4  10  20  35  57  85 115 147 185 229 277 330
#     4   9  17  31  54  83 114 149 188 230 276 325
#
# _framework density 19.787223999999998
#
# number of rings (size 3 to 8) (size 9 to 14) (size 15 to 20)
#    0.000    1.800    0.000    4.200    0.000   12.800 
#    0.000    1.000    0.000    6.000    0.000    0.000 
#    0.000    0.000    0.000    0.000    0.000    0.000 
#
# Total GULP energy -496192.038620 kJ/mol
# GULP energy per Si atom -12404.800966 kJ/mol
# Density = 1.974219 g / cm^3
# Si number density = 19.787224 Si / 1000 Ang^3
#
#
#
# Elastic Constant Matrix: (Units=GPa)
#
#
# Indices 1 2 3 4 5 6 
#
# 1 67.6537 27.5539 29.7302 0.0000 0.0000 0.0000
# 2 27.5539 67.6537 29.7302 0.0000 0.0000 0.0000
# 3 29.7302 29.7302 139.9477 0.0000 0.0000 0.0000
# 4 0.0000 0.0000 0.0000 287.7788 0.0000 0.0000
# 5 0.0000 0.0000 0.0000 0.0000 287.7788 0.0000
# 6 0.0000 0.0000 0.0000 0.0000 0.0000 27.5069
#
#
#
# Elastic Compliance Matrix: (Units=1/GPa)
#
#
# Indices 1 2 3 4 5 6 
#
# 1 0.018524 -0.006414 -0.002573 0.000000 0.000000 0.000000
# 2 -0.006414 0.018524 -0.002573 0.000000 0.000000 0.000000
# 3 -0.002573 -0.002573 0.008239 0.000000 0.000000 0.000000
# 4 0.000000 0.000000 0.000000 0.003475 0.000000 0.000000
# 5 0.000000 0.000000 0.000000 0.000000 0.003475 0.000000
# 6 0.000000 0.000000 0.000000 0.000000 0.000000 0.036354
#
#
# Mechanical properties :
#
#
# Convention : Reuss Voigt Hill
#
# Bulk Modulus (GPa) = 45.10977 49.92041 47.51509
# Shear Modulus (GPa) = 41.98212 133.16231 87.57222
#
# Velocity S-wave (km/s) = 4.61117 8.21238 6.65981
# Velocity P-wave (km/s) = 7.15523 10.73348 9.12154
#
# Compressibility (1/GPa) = 0.02216815
#
# Stress axis : x y z
#
# Youngs Moduli (GPa) = 53.98428 53.98428 121.38017
#
# Poissons Ratio (x) = 0.34625 0.31227
# Poissons Ratio (y) = 0.34625 0.31227
# Poissons Ratio (z) = 0.13888 0.13888
#
# Static dielectric constant tensor:
#      x y z
#    x 3.583830 0.000000 0.000000 
#    y 0.000000 3.583830 0.000000 
#    z 0.000000 0.000000 4.005650 
# 
# 
# High freq. dielectric constant tensor:
#      x y z
#    x 1.766610 0.000000 0.000000 
#    y 0.000000 1.766610 0.000000 
#    z 0.000000 0.000000 1.789110 
# 
# From -- ./inp_files/3900.got.cif
#   From: 2010.03.12/outbox.cif.g09.slc.cpg/sg105_2_cif.got.tgz:3900.got - 2010.04.14 01:45:32.
