data_PCOD8307503
_publ_section_title
;
Structure prediction by ZEFSAII (Michael W. Deem and Ramdas Pophale) SiO2 
 PCOD8307503
Probable space group: I 4 M M
;
_chemical_formula_sum "Si O2"
_cell_formula_units_Z 128
_cell_length_a 17.976084
_cell_length_b 17.976084
_cell_length_c 22.874791
_cell_angle_alpha 90.000000
_cell_angle_beta 90.000000
_cell_angle_gamma 90.000000
_cell_volume 7391.750722
_symmetry_space_group_name_H-M "I 4 M M"
_symmetry_group_IT_number 107
_symmetry_cell_setting 'tetragonal'
loop_
_space_group_symop_operation_xyz
x,y,z
-y,x,z
-x,-y,z
y,-x,z
-x,y,z
x,-y,z
-y,-x,z
y,x,z
1/2+x,1/2+y,1/2+z
1/2-y,1/2+x,1/2+z
1/2-x,1/2-y,1/2+z
1/2+y,1/2-x,1/2+z
1/2-x,1/2+y,1/2+z
1/2+x,1/2-y,1/2+z
1/2-y,1/2-x,1/2+z
1/2+y,1/2+x,1/2+z
loop_
_atom_site_type_symbol
_atom_site_label
_atom_site_fract_x
_atom_site_fract_y
_atom_site_fract_z
Si Si1 0.296386 0.585270 0.093270
Si Si2 0.276018 0.843982 0.490975
Si Si3 0.081603 0.634707 0.337515
Si Si4 0.304128 0.917404 0.924556
Si Si5 0.731648 0.151285 0.704294
Si Si6 0.418040 0.085639 0.707209
Si Si7 0.709344 0.413284 0.877644
Si Si8 0.795568 0.913338 0.818669
O O1 0.313882 0.500000 0.082365
O O2 0.369661 0.630340 0.073456
O O3 0.227340 0.612688 0.052830
O O4 0.279072 0.599171 0.161190
O O5 0.233366 0.766635 0.495341
O O6 0.360560 0.820059 0.476998
O O7 0.239023 0.897507 0.442849
O O8 0.127807 0.582208 0.379820
O O9 0.078866 0.594318 0.276181
O O10 0.109201 0.721615 0.334617
O O11 0.000000 0.639061 0.365796
O O12 0.233099 0.895945 0.884225
O O13 0.294753 0.000000 0.951456
O O14 0.763867 0.236134 0.699828
O O15 0.645224 0.143225 0.684233
O O16 0.738897 0.120992 0.770612
O O17 0.500000 0.105246 0.680856
O O18 0.397067 0.000000 0.691793
O O19 0.685670 0.500000 0.871608
O O20 0.638269 0.361732 0.861954
O O21 0.875934 0.875934 0.810909
O O22 0.804310 0.000000 0.806811
#
# Coordination Sequence:
#
# PCOD8307503 Si02
#       8
#    16  16  16  16  16  16  16  16
#     4  10  20  34  52  71  95 129 166 205 243 283
#     4   9  18  32  47  63  87 119 153 190 236 282
#     4   9  17  27  40  61  88 116 144 178 225 277
#     4  10  18  29  47  69  92 117 151 193 234 286
#     4  10  20  33  50  72 100 133 169 204 242 292
#     4  10  18  29  47  70  96 124 157 199 243 286
#     4   9  17  28  42  60  83 111 146 187 230 277
#     4  10  19  30  46  69  97 128 161 198 239 287
#
# _framework density 17.316600999999999
#
# number of rings (size 3 to 8) (size 9 to 14) (size 15 to 20)
#    0.000    2.375    1.250    2.250    0.000    2.625 
#    0.000    0.625    0.000    5.250    0.000    0.000 
#    0.000    0.250    0.000    0.000    0.000    8.500 
#
# Total GULP energy -793084.390697 kJ/mol
# GULP energy per Si atom -12391.943605 kJ/mol
# Density = 1.727719 g / cm^3
# Si number density = 17.316601 Si / 1000 Ang^3
#
#
#
# Elastic Constant Matrix: (Units=GPa)
#
#
# Indices 1 2 3 4 5 6 
#
# 1 101.3794 48.1998 11.7476 0.0000 0.0000 0.0004
# 2 48.1998 101.3794 11.7476 0.0000 0.0000 -0.0004
# 3 11.7476 11.7476 35.3341 0.0000 0.0000 0.0000
# 4 0.0000 0.0000 0.0000 18.9241 0.0000 0.0000
# 5 0.0000 0.0000 0.0000 0.0000 18.9241 0.0000
# 6 0.0004 -0.0004 0.0000 0.0000 0.0000 24.2853
#
#
#
# Elastic Compliance Matrix: (Units=1/GPa)
#
#
# Indices 1 2 3 4 5 6 
#
# 1 0.012929 -0.005875 -0.002345 0.000000 0.000000 0.000000
# 2 -0.005875 0.012929 -0.002345 0.000000 0.000000 0.000000
# 3 -0.002345 -0.002345 0.029861 0.000000 0.000000 0.000000
# 4 0.000000 0.000000 0.000000 0.052843 0.000000 0.000000
# 5 0.000000 0.000000 0.000000 0.000000 0.052843 0.000000
# 6 0.000000 0.000000 0.000000 0.000000 0.000000 0.041177
#
#
# Mechanical properties :
#
#
# Convention : Reuss Voigt Hill
#
# Bulk Modulus (GPa) = 28.91215 42.38699 35.64957
# Shear Modulus (GPa) = 21.25475 23.51990 22.38733
#
# Velocity S-wave (km/s) = 3.50726 3.68941 3.59949
# Velocity P-wave (km/s) = 5.75618 6.53298 6.15684
#
# Compressibility (1/GPa) = 0.03458754
#
# Stress axis : x y z
#
# Youngs Moduli (GPa) = 77.34553 77.34553 33.48886
#
# Poissons Ratio (x) = 0.45442 0.07854
# Poissons Ratio (y) = 0.45442 0.07854
# Poissons Ratio (z) = 0.18139 0.18139
#
# Static dielectric constant tensor:
#      x y z
#    x 3.327720 0.000000 0.000000 
#    y 0.000000 3.327720 0.000000 
#    z 0.000000 0.000000 3.039800 
# 
# 
# High freq. dielectric constant tensor:
#      x y z
#    x 1.665410 0.000000 0.000000 
#    y 0.000000 1.665410 0.000000 
#    z 0.000000 0.000000 1.636210 
# 
# From -- ./inp_files/5496.got.cif
#   From: 2010.03.12/outbox.cif.g09.slc.cpg/sg107_3_cif.got.tgz:5496.got - 2010.04.14 01:49:11.
