data_PCOD8307664
_publ_section_title
;
Structure prediction by ZEFSAII (Michael W. Deem and Ramdas Pophale) SiO2 
 PCOD8307664
Probable space group: I 4 M M
;
_chemical_formula_sum "Si O2"
_cell_formula_units_Z 64
_cell_length_a 13.307953
_cell_length_b 13.307953
_cell_length_c 20.180342
_cell_angle_alpha 90.000000
_cell_angle_beta 90.000000
_cell_angle_gamma 90.000000
_cell_volume 3573.971120
_symmetry_space_group_name_H-M "I 4 M M"
_symmetry_group_IT_number 107
_symmetry_cell_setting 'tetragonal'
loop_
_space_group_symop_operation_xyz
x,y,z
-y,x,z
-x,-y,z
y,-x,z
-x,y,z
x,-y,z
-y,-x,z
y,x,z
1/2+x,1/2+y,1/2+z
1/2-y,1/2+x,1/2+z
1/2-x,1/2-y,1/2+z
1/2+y,1/2-x,1/2+z
1/2-x,1/2+y,1/2+z
1/2+x,1/2-y,1/2+z
1/2-y,1/2-x,1/2+z
1/2+y,1/2+x,1/2+z
loop_
_atom_site_type_symbol
_atom_site_label
_atom_site_fract_x
_atom_site_fract_y
_atom_site_fract_z
Si Si1 0.616123 0.780670 0.156260
Si Si2 0.277310 0.884754 0.890356
Si Si3 0.780670 0.383877 0.775830
Si Si4 0.722691 0.884755 0.041734
O O1 0.500000 0.752802 0.161285
O O2 0.676836 0.676836 0.160342
O O3 0.646285 0.853715 0.216045
O O4 0.636079 0.837972 0.087304
O O5 0.172369 0.827631 0.877565
O O6 0.363921 0.837972 0.844787
O O7 0.258179 0.000000 0.871416
O O8 0.313456 0.872895 0.966046
O O9 0.752802 0.500000 0.770805
O O10 0.676837 0.323164 0.771748
O O11 0.827631 0.827631 0.054526
O O12 0.741821 0.000000 0.060675
#
# Coordination Sequence:
#
# PCOD8307664 Si02
#       4
#    16  16  16  16
#     4  10  21  36  53  74 100 129 163 203 245 291
#     4   9  18  32  50  74 103 133 166 204 245 290
#     4  10  21  36  53  74 100 129 163 203 245 291
#     4   9  18  32  50  74 103 133 166 204 245 290
#
# _framework density 17.907252
#
# number of rings (size 3 to 8) (size 9 to 14) (size 15 to 20)
#    0.000    2.500    0.000    1.500    0.000    5.500 
#    0.000    5.000    0.000    9.000    0.000    7.000 
#    0.000    0.000    0.000    0.000    0.000    0.000 
#
# Total GULP energy -396882.856403 kJ/mol
# GULP energy per Si atom -12402.589263 kJ/mol
# Density = 1.786649 g / cm^3
# Si number density = 17.907252 Si / 1000 Ang^3
#
#
#
# Elastic Constant Matrix: (Units=GPa)
#
#
# Indices 1 2 3 4 5 6 
#
# 1 130.4564 50.7994 54.0351 0.0000 0.0000 -0.0007
# 2 50.7994 130.4564 54.0351 0.0000 0.0000 0.0007
# 3 54.0351 54.0351 97.6873 0.0000 0.0000 0.0000
# 4 0.0000 0.0000 0.0000 24.0902 0.0000 0.0000
# 5 0.0000 0.0000 0.0000 0.0000 24.0902 0.0000
# 6 -0.0007 0.0007 0.0000 0.0000 0.0000 10.8531
#
#
#
# Elastic Compliance Matrix: (Units=1/GPa)
#
#
# Indices 1 2 3 4 5 6 
#
# 1 0.010393 -0.002161 -0.004553 0.000000 0.000000 0.000001
# 2 -0.002161 0.010393 -0.004553 0.000000 0.000000 -0.000001
# 3 -0.004553 -0.004553 0.015274 0.000000 0.000000 0.000000
# 4 0.000000 0.000000 0.000000 0.041511 0.000000 0.000000
# 5 0.000000 0.000000 0.000000 0.000000 0.041511 0.000000
# 6 0.000001 -0.000001 0.000000 0.000000 0.000000 0.092139
#
#
# Mechanical properties :
#
#
# Convention : Reuss Voigt Hill
#
# Bulk Modulus (GPa) = 73.94109 75.14882 74.54495
# Shear Modulus (GPa) = 20.98506 25.12205 23.05356
#
# Velocity S-wave (km/s) = 3.42698 3.74959 3.59191
# Velocity P-wave (km/s) = 7.55246 7.79760 7.67601
#
# Compressibility (1/GPa) = 0.01352428
#
# Stress axis : x y z
#
# Youngs Moduli (GPa) = 96.21947 96.21947 65.46987
#
# Poissons Ratio (x) = 0.20792 0.29812
# Poissons Ratio (y) = 0.20792 0.29812
# Poissons Ratio (z) = 0.43813 0.43813
#
# Static dielectric constant tensor:
#      x y z
#    x 3.163550 0.000000 0.000000 
#    y 0.000000 3.163550 0.000000 
#    z 0.000000 0.000000 3.585760 
# 
# 
# High freq. dielectric constant tensor:
#      x y z
#    x 1.684280 0.000000 0.000000 
#    y 0.000000 1.684280 0.000000 
#    z 0.000000 0.000000 1.712370 
# 
# From -- ./inp_files/4503.got.cif
#   From: 2010.03.12/outbox.cif.g09.slc.cpg/sg107_3_cif.got.tgz:4503.got - 2010.04.14 01:49:11.
