data_PCOD8307435
_publ_section_title
;
Structure prediction by ZEFSAII (Michael W. Deem and Ramdas Pophale) SiO2 
 PCOD8307435
Probable space group: P 42 B C
;
_chemical_formula_sum "Si O2"
_cell_formula_units_Z 44
_cell_length_a 13.227121
_cell_length_b 13.227121
_cell_length_c 11.275755
_cell_angle_alpha 90.000000
_cell_angle_beta 90.000000
_cell_angle_gamma 90.000000
_cell_volume 1972.769223
_symmetry_space_group_name_H-M "P 42 B C"
_symmetry_group_IT_number 106
_symmetry_cell_setting 'tetragonal'
loop_
_space_group_symop_operation_xyz
x,y,z
-y,x,1/2+z
-x,-y,z
y,-x,1/2+z
1/2-x,1/2+y,z
1/2+x,1/2-y,z
1/2-y,1/2-x,1/2+z
1/2+y,1/2+x,1/2+z
loop_
_atom_site_type_symbol
_atom_site_label
_atom_site_fract_x
_atom_site_fract_y
_atom_site_fract_z
Si Si1 0.640443 0.457041 0.303120
Si Si2 0.191203 0.157269 0.530228
Si Si3 0.037909 0.312972 0.649497
Si Si4 0.593564 0.831155 0.431106
Si Si5 0.000000 0.500000 0.781391
Si Si6 0.165010 0.034642 0.754882
O O1 0.632894 0.414138 0.437312
O O2 0.750115 0.474167 0.247147
O O3 0.579691 0.372319 0.225257
O O4 0.590613 0.565998 0.301265
O O5 0.128485 0.252729 0.583349
O O6 0.288973 0.194754 0.456961
O O7 0.217843 0.085821 0.641507
O O8 0.071987 0.420921 0.707220
O O9 0.955709 0.347962 0.556782
O O10 0.538008 0.740804 0.364231
O O11 0.576541 0.933060 0.357955
#
# Coordination Sequence:
#
# PCOD8307435 Si02
#       6
#     8   8   8   8   4   8
#     4  10  22  45  70 103 138 181 241 295 360 416
#     4  11  24  44  70 105 140 183 239 290 359 431
#     4  11  25  45  70 103 140 190 238 298 354 429
#     4  12  25  45  70 101 143 188 235 293 357 433
#     4  12  26  46  68 102 150 190 242 288 364 426
#     4  10  24  41  74 104 136 182 236 302 355 420
#
# _framework density 22.303674000000001
#
# number of rings (size 3 to 8) (size 9 to 14) (size 15 to 20)
#    0.000    1.091    3.636    1.636    2.545    5.818 
#    3.273    0.000    0.000    0.000    0.000    0.000 
#    0.000    0.000    0.000    0.000    0.000    0.000 
#
# Total GULP energy -545131.355214 kJ/mol
# GULP energy per Si atom -12389.348982 kJ/mol
# Density = 2.225291 g / cm^3
# Si number density = 22.303674 Si / 1000 Ang^3
#
#
#
# Elastic Constant Matrix: (Units=GPa)
#
#
# Indices 1 2 3 4 5 6 
#
# 1 111.3423 38.0769 39.6555 0.0000 0.0000 0.0000
# 2 38.0769 111.3423 39.6555 0.0000 0.0000 0.0000
# 3 39.6555 39.6555 99.3480 0.0000 0.0000 0.0000
# 4 0.0000 0.0000 0.0000 57.2593 0.0000 0.0000
# 5 0.0000 0.0000 0.0000 0.0000 57.2593 0.0000
# 6 0.0000 0.0000 0.0000 0.0000 0.0000 13.7356
#
#
#
# Elastic Compliance Matrix: (Units=1/GPa)
#
#
# Indices 1 2 3 4 5 6 
#
# 1 0.011070 -0.002579 -0.003390 0.000000 0.000000 0.000000
# 2 -0.002579 0.011070 -0.003390 0.000000 0.000000 0.000000
# 3 -0.003390 -0.003390 0.012772 0.000000 0.000000 0.000000
# 4 0.000000 0.000000 0.000000 0.017464 0.000000 0.000000
# 5 0.000000 0.000000 0.000000 0.000000 0.017464 0.000000
# 6 0.000000 0.000000 0.000000 0.000000 0.000000 0.072804
#
#
# Mechanical properties :
#
#
# Convention : Reuss Voigt Hill
#
# Bulk Modulus (GPa) = 61.74039 61.86761 61.80400
# Shear Modulus (GPa) = 29.98336 39.29382 34.63859
#
# Velocity S-wave (km/s) = 3.67048 4.20189 3.94514
# Velocity P-wave (km/s) = 6.76055 7.16520 6.96582
#
# Compressibility (1/GPa) = 0.01619685
#
# Stress axis : x y z
#
# Youngs Moduli (GPa) = 90.33124 90.33124 78.29904
#
# Poissons Ratio (x) = 0.23293 0.26540
# Poissons Ratio (y) = 0.23293 0.26540
# Poissons Ratio (z) = 0.30618 0.30618
#
# Static dielectric constant tensor:
#      x y z
#    x 3.463710 0.000000 0.000000 
#    y 0.000000 3.463710 0.000000 
#    z 0.000000 0.000000 4.163460 
# 
# 
# High freq. dielectric constant tensor:
#      x y z
#    x 1.878180 0.000000 0.000000 
#    y 0.000000 1.878180 0.000000 
#    z 0.000000 0.000000 1.886710 
# 
# From -- ./inp_files/872.got.cif
#   From: 2010.03.12/outbox.cif.g09.slc.cpg/sg106_cif.got.tgz:872.got - 2010.04.14 01:48:02.
