data_PCOD8307780
_publ_section_title
;
Structure prediction by ZEFSAII (Michael W. Deem and Ramdas Pophale) SiO2 
 PCOD8307780
Probable space group: I 4 C M
;
_chemical_formula_sum "Si O2"
_cell_formula_units_Z 112
_cell_length_a 13.779259
_cell_length_b 13.779259
_cell_length_c 27.177130
_cell_angle_alpha 90.000000
_cell_angle_beta 90.000000
_cell_angle_gamma 90.000000
_cell_volume 5160.066737
_symmetry_space_group_name_H-M "I 4 C M"
_symmetry_group_IT_number 108
_symmetry_cell_setting 'tetragonal'
loop_
_space_group_symop_operation_xyz
x,y,z
-y,x,z
-x,-y,z
y,-x,z
-x,y,1/2+z
x,-y,1/2+z
-y,-x,1/2+z
y,x,1/2+z
1/2+x,1/2+y,1/2+z
1/2-y,1/2+x,1/2+z
1/2-x,1/2-y,1/2+z
1/2+y,1/2-x,1/2+z
1/2-x,1/2+y,z
1/2+x,1/2-y,z
1/2-y,1/2-x,z
1/2+y,1/2+x,z
loop_
_atom_site_type_symbol
_atom_site_label
_atom_site_fract_x
_atom_site_fract_y
_atom_site_fract_z
Si Si1 0.126163 0.212397 0.002070
Si Si2 0.494439 0.847592 0.554676
Si Si3 0.064810 0.282121 0.657361
Si Si4 0.098435 0.122106 0.594057
Si Si5 0.089256 0.247352 0.340491
Si Si6 0.015602 0.838483 0.741838
Si Si7 0.767616 0.108079 0.892119
O O1 0.211753 0.288248 0.008733
O O2 0.023856 0.256265 0.021330
O O3 0.151415 0.121279 0.037498
O O4 0.113492 0.180839 0.945611
O O5 0.568427 0.931574 0.542600
O O6 0.499944 0.823735 0.612652
O O7 0.385923 0.885923 0.540834
O O8 0.133661 0.366340 0.680487
O O9 0.138043 0.199886 0.633677
O O10 0.990746 0.239317 0.697844
O O11 0.984355 0.133610 0.605373
O O12 0.154519 0.345481 0.338532
O O13 0.156738 0.155131 0.353764
O O14 0.033062 0.226504 0.289993
O O15 0.003424 0.258274 0.380425
O O16 0.104549 0.913485 0.739544
O O17 0.666861 0.166861 0.892616
#
# Coordination Sequence:
#
# PCOD8307780 Si02
#       7
#    16  16  16  16  16  16  16
#     4  10  21  39  62  91 129 171 218 271 324 390
#     4   9  19  37  60  87 124 170 214 257 317 391
#     4  11  23  39  62  92 129 169 216 274 332 399
#     4  11  22  37  55  87 130 171 218 266 318 391
#     4  11  24  45  74  99 133 180 226 287 353 415
#     4  11  24  44  68  94 127 169 217 276 344 412
#     4  10  24  43  66 103 137 174 234 286 343 416
#
# _framework density 21.705147
#
# number of rings (size 3 to 8) (size 9 to 14) (size 15 to 20)
#    0.000    1.571    2.857    1.286    2.000    4.000 
#    0.000    1.429    0.000    0.000    0.000    0.000 
#    0.000    0.000    0.000    0.000    0.000    0.000 
#
# Total GULP energy -693804.450633 kJ/mol
# GULP energy per Si atom -12389.365190 kJ/mol
# Density = 2.165575 g / cm^3
# Si number density = 21.705147 Si / 1000 Ang^3
#
#
#
# Elastic Constant Matrix: (Units=GPa)
#
#
# Indices 1 2 3 4 5 6 
#
# 1 80.4013 23.1983 22.8299 0.0000 0.0000 0.0001
# 2 23.1983 80.4013 22.8299 0.0000 0.0000 -0.0001
# 3 22.8299 22.8299 109.0559 0.0000 0.0000 0.0000
# 4 0.0000 0.0000 0.0000 36.6315 0.0000 0.0000
# 5 0.0000 0.0000 0.0000 0.0000 36.6315 0.0000
# 6 0.0001 -0.0001 0.0000 0.0000 0.0000 23.4963
#
#
#
# Elastic Compliance Matrix: (Units=1/GPa)
#
#
# Indices 1 2 3 4 5 6 
#
# 1 0.014058 -0.003424 -0.002226 0.000000 0.000000 0.000000
# 2 -0.003424 0.014058 -0.002226 0.000000 0.000000 0.000000
# 3 -0.002226 -0.002226 0.010102 0.000000 0.000000 0.000000
# 4 0.000000 0.000000 0.000000 0.027299 0.000000 0.000000
# 5 0.000000 0.000000 0.000000 0.000000 0.027299 0.000000
# 6 0.000000 0.000000 0.000000 0.000000 0.000000 0.042560
#
#
# Mechanical properties :
#
#
# Convention : Reuss Voigt Hill
#
# Bulk Modulus (GPa) = 44.51435 45.28609 44.90022
# Shear Modulus (GPa) = 31.52284 32.75186 32.13735
#
# Velocity S-wave (km/s) = 3.81507 3.88873 3.85207
# Velocity P-wave (km/s) = 6.32135 6.40878 6.36522
#
# Compressibility (1/GPa) = 0.02246467
#
# Stress axis : x y z
#
# Youngs Moduli (GPa) = 71.13570 71.13570 98.99399
#
# Poissons Ratio (x) = 0.24357 0.22037
# Poissons Ratio (y) = 0.24357 0.22037
# Poissons Ratio (z) = 0.15835 0.15835
#
# Static dielectric constant tensor:
#      x y z
#    x 4.033560 0.000000 0.000000 
#    y 0.000000 4.033560 0.000000 
#    z 0.000000 0.000000 3.892680 
# 
# 
# High freq. dielectric constant tensor:
#      x y z
#    x 1.853240 0.000000 0.000000 
#    y 0.000000 1.853240 0.000000 
#    z 0.000000 0.000000 1.845720 
# 
# From -- ./inp_files/3210.got.cif
#   From: 2010.03.12/outbox.cif.g09.slc.cpg/sg108_2_cif.got.tgz:3210.got - 2010.04.14 01:53:11.
