data_PCOD8307689
_publ_section_title
;
Structure prediction by ZEFSAII (Michael W. Deem and Ramdas Pophale) SiO2 
 PCOD8307689
Probable space group: I 4 M M
;
_chemical_formula_sum "Si O2"
_cell_formula_units_Z 96
_cell_length_a 16.489720
_cell_length_b 16.489720
_cell_length_c 23.960916
_cell_angle_alpha 90.000000
_cell_angle_beta 90.000000
_cell_angle_gamma 90.000000
_cell_volume 6515.233412
_symmetry_space_group_name_H-M "I 4 M M"
_symmetry_group_IT_number 107
_symmetry_cell_setting 'tetragonal'
loop_
_space_group_symop_operation_xyz
x,y,z
-y,x,z
-x,-y,z
y,-x,z
-x,y,z
x,-y,z
-y,-x,z
y,x,z
1/2+x,1/2+y,1/2+z
1/2-y,1/2+x,1/2+z
1/2-x,1/2-y,1/2+z
1/2+y,1/2-x,1/2+z
1/2-x,1/2+y,1/2+z
1/2+x,1/2-y,1/2+z
1/2-y,1/2-x,1/2+z
1/2+y,1/2+x,1/2+z
loop_
_atom_site_type_symbol
_atom_site_label
_atom_site_fract_x
_atom_site_fract_y
_atom_site_fract_z
Si Si1 0.274495 0.407003 0.269520
Si Si2 0.339553 0.204615 0.499050
Si Si3 0.795385 0.660446 0.165177
Si Si4 0.591953 0.727395 0.607217
Si Si5 0.772606 0.091953 0.557010
Si Si6 0.407003 0.274495 0.394707
O O1 0.299287 0.500000 0.261069
O O2 0.355594 0.355594 0.257733
O O3 0.203723 0.382131 0.225966
O O4 0.241245 0.391262 0.332114
O O5 0.266958 0.266958 0.500456
O O6 0.403695 0.232923 0.545701
O O7 0.298078 0.118356 0.513224
O O8 0.382131 0.203723 0.438261
O O9 0.733041 0.733041 0.163770
O O10 0.881644 0.701922 0.151004
O O11 0.767077 0.596305 0.118526
O O12 0.500000 0.701883 0.620249
O O13 0.647285 0.647285 0.612219
O O14 0.852716 0.147285 0.552008
O O15 0.798117 0.000000 0.543978
O O16 0.500000 0.299287 0.403159
O O17 0.355594 0.355594 0.406494
#
# Coordination Sequence:
#
# PCOD8307689 Si02
#       6
#    16  16  16  16  16  16
#     4   9  16  25  39  59  82 108 135 162 191 224
#     4   8  15  27  40  56  80 109 137 158 183 228
#     4   8  15  27  40  56  80 109 137 158 183 228
#     4   9  16  26  42  61  80 103 129 162 201 235
#     4   9  16  26  42  61  80 103 129 162 201 235
#     4   9  16  25  39  59  82 108 135 162 191 224
#
# _framework density 14.734699000000001
#
# number of rings (size 3 to 8) (size 9 to 14) (size 15 to 20)
#    0.000    3.333    0.000    3.000    0.000    0.667 
#    0.000    1.667    0.000   24.000    0.000    2.333 
#    0.000    0.000    0.000   13.000    0.000    0.000 
#
# Total GULP energy -594751.393673 kJ/mol
# GULP energy per Si atom -12390.654035 kJ/mol
# Density = 1.470116 g / cm^3
# Si number density = 14.734699 Si / 1000 Ang^3
#
#
#
# Elastic Constant Matrix: (Units=GPa)
#
#
# Indices 1 2 3 4 5 6 
#
# 1 70.8980 45.4668 44.4862 0.0000 0.0000 -0.0001
# 2 45.4668 70.8980 44.4862 0.0000 0.0000 0.0001
# 3 44.4862 44.4862 113.8705 0.0000 0.0000 0.0000
# 4 0.0000 0.0000 0.0000 18.2718 0.0000 0.0000
# 5 0.0000 0.0000 0.0000 0.0000 18.2718 0.0000
# 6 -0.0001 0.0001 0.0000 0.0000 0.0000 13.0059
#
#
#
# Elastic Compliance Matrix: (Units=1/GPa)
#
#
# Indices 1 2 3 4 5 6 
#
# 1 0.025788 -0.013534 -0.004787 0.000000 0.000000 0.000000
# 2 -0.013534 0.025788 -0.004787 0.000000 0.000000 0.000000
# 3 -0.004787 -0.004787 0.012522 0.000000 0.000000 0.000000
# 4 0.000000 0.000000 0.000000 0.054729 0.000000 0.000000
# 5 0.000000 0.000000 0.000000 0.000000 0.054729 0.000000
# 6 0.000000 0.000000 0.000000 0.000000 0.000000 0.076888
#
#
# Mechanical properties :
#
#
# Convention : Reuss Voigt Hill
#
# Bulk Modulus (GPa) = 55.92452 58.28278 57.10365
# Shear Modulus (GPa) = 16.52225 17.99173 17.25699
#
# Velocity S-wave (km/s) = 3.35224 3.49814 3.42596
# Velocity P-wave (km/s) = 7.28149 7.48041 7.38162
#
# Compressibility (1/GPa) = 0.01788124
#
# Stress axis : x y z
#
# Youngs Moduli (GPa) = 38.77777 38.77777 79.85639
#
# Poissons Ratio (x) = 0.52481 0.38230
# Poissons Ratio (y) = 0.52481 0.38230
# Poissons Ratio (z) = 0.18564 0.18564
#
# Static dielectric constant tensor:
#      x y z
#    x 2.731490 0.000000 0.000000 
#    y 0.000000 2.731490 0.000000 
#    z 0.000000 0.000000 3.426680 
# 
# 
# High freq. dielectric constant tensor:
#      x y z
#    x 1.541800 0.000000 0.000000 
#    y 0.000000 1.541800 0.000000 
#    z 0.000000 0.000000 1.562530 
# 
# From -- ./inp_files/4830.got.cif
#   From: 2010.03.12/outbox.cif.g09.slc.cpg/sg107_3_cif.got.tgz:4830.got - 2010.04.14 01:49:11.
