data_PCOD8307280
_publ_section_title
;
Structure prediction by ZEFSAII (Michael W. Deem and Ramdas Pophale) SiO2 
 PCOD8307280
Probable space group: P 42 M C
;
_chemical_formula_sum "Si O2"
_cell_formula_units_Z 64
_cell_length_a 17.521038
_cell_length_b 17.521038
_cell_length_c 10.867750
_cell_angle_alpha 90.000000
_cell_angle_beta 90.000000
_cell_angle_gamma 90.000000
_cell_volume 3336.255498
_symmetry_space_group_name_H-M "P 42 M C"
_symmetry_group_IT_number 105
_symmetry_cell_setting 'tetragonal'
loop_
_space_group_symop_operation_xyz
x,y,z
-y,x,1/2+z
-x,-y,z
y,-x,1/2+z
-x,y,z
x,-y,z
-y,-x,1/2+z
y,x,1/2+z
loop_
_atom_site_type_symbol
_atom_site_label
_atom_site_fract_x
_atom_site_fract_y
_atom_site_fract_z
Si Si1 0.274512 0.589888 0.900540
Si Si2 0.303485 0.192970 0.588609
Si Si3 0.227001 0.655411 0.650819
Si Si4 0.584956 0.841251 0.785782
Si Si5 0.585842 0.313442 0.930128
Si Si6 0.413101 0.086361 0.038307
Si Si7 0.909668 0.824849 0.003204
Si Si8 0.911514 0.911702 0.254373
O O1 0.269920 0.500000 0.919495
O O2 0.228328 0.617325 0.783055
O O3 0.362420 0.615806 0.887874
O O4 0.236542 0.630855 0.015727
O O5 0.247770 0.255115 0.652180
O O6 0.348057 0.142217 0.688973
O O7 0.255143 0.135574 0.503484
O O8 0.284233 0.608124 0.564858
O O9 0.139763 0.647340 0.606786
O O10 0.500000 0.849594 0.728092
O O11 0.596252 0.755342 0.834730
O O12 0.595715 0.903286 0.892318
O O13 0.500000 0.344161 0.932991
O O14 0.500000 0.108290 0.076158
O O15 0.393780 0.000000 0.074384
O O16 0.886167 0.868667 0.129322
O O17 0.000000 0.810501 0.000298
O O18 0.883504 0.868276 0.878359
O O19 0.000000 0.897198 0.281375
O O20 0.894370 0.000000 0.229989
#
# Coordination Sequence:
#
# PCOD8307280 Si02
#       8
#     8   8   8   8   8   8   8   8
#     4  11  22  36  56  82 111 154 195 225 282 353
#     4  11  23  36  56  79 116 151 188 231 281 337
#     4  10  20  36  57  81 112 150 190 232 283 339
#     4   9  17  34  56  78 107 143 184 230 285 342
#     4   9  18  34  56  81 110 143 182 238 289 332
#     4   9  18  34  59  86 109 139 185 242 290 326
#     4  10  22  37  59  87 119 154 194 241 287 340
#     4   9  18  36  61  89 120 155 190 229 285 350
#
# _framework density 19.183184000000001
#
# number of rings (size 3 to 8) (size 9 to 14) (size 15 to 20)
#    0.000    2.250    1.250    2.625    1.750    2.250 
#    0.000    3.125    0.000    3.375    0.000    0.000 
#    0.000    0.000    0.000    0.000    0.000    0.000 
#
# Total GULP energy -793525.270905 kJ/mol
# GULP energy per Si atom -12398.832358 kJ/mol
# Density = 1.913952 g / cm^3
# Si number density = 19.183184 Si / 1000 Ang^3
#
#
#
# Elastic Constant Matrix: (Units=GPa)
#
#
# Indices 1 2 3 4 5 6 
#
# 1 75.9650 25.4626 15.8825 0.0000 0.0000 0.0000
# 2 25.4626 75.9650 15.8825 0.0000 0.0000 0.0000
# 3 15.8825 15.8825 63.4952 0.0000 0.0000 0.0000
# 4 0.0000 0.0000 0.0000 21.2323 0.0000 0.0000
# 5 0.0000 0.0000 0.0000 0.0000 21.2323 0.0000
# 6 0.0000 0.0000 0.0000 0.0000 0.0000 22.0522
#
#
#
# Elastic Compliance Matrix: (Units=1/GPa)
#
#
# Indices 1 2 3 4 5 6 
#
# 1 0.015249 -0.004552 -0.002676 0.000000 0.000000 0.000000
# 2 -0.004552 0.015249 -0.002676 0.000000 0.000000 0.000000
# 3 -0.002676 -0.002676 0.017088 0.000000 0.000000 0.000000
# 4 0.000000 0.000000 0.000000 0.047098 0.000000 0.000000
# 5 0.000000 0.000000 0.000000 0.000000 0.047098 0.000000
# 6 0.000000 0.000000 0.000000 0.000000 0.000000 0.045347
#
#
# Mechanical properties :
#
#
# Convention : Reuss Voigt Hill
#
# Bulk Modulus (GPa) = 35.99809 36.65335 36.32572
# Shear Modulus (GPa) = 23.12715 23.44985 23.28850
#
# Velocity S-wave (km/s) = 3.47594 3.50010 3.48804
# Velocity P-wave (km/s) = 5.90895 5.95674 5.93289
#
# Compressibility (1/GPa) = 0.02777925
#
# Stress axis : x y z
#
# Youngs Moduli (GPa) = 65.57749 65.57749 58.52112
#
# Poissons Ratio (x) = 0.29850 0.15659
# Poissons Ratio (y) = 0.29850 0.15659
# Poissons Ratio (z) = 0.17547 0.17547
#
# Static dielectric constant tensor:
#      x y z
#    x 3.423060 0.000000 0.000000 
#    y 0.000000 3.423060 0.000000 
#    z 0.000000 0.000000 3.518760 
# 
# 
# High freq. dielectric constant tensor:
#      x y z
#    x 1.738150 0.000000 0.000000 
#    y 0.000000 1.738150 0.000000 
#    z 0.000000 0.000000 1.744300 
# 
# From -- ./inp_files/2044.got.cif
#   From: 2010.03.12/outbox.cif.g09.slc.cpg/sg105_2_cif.got.tgz:2044.got - 2010.04.14 01:45:32.
