data_PCOD8307656
_publ_section_title
;
Structure prediction by ZEFSAII (Michael W. Deem and Ramdas Pophale) SiO2 
 PCOD8307656
Probable space group: I 4 M M
;
_chemical_formula_sum "Si O2"
_cell_formula_units_Z 40
_cell_length_a 18.175372
_cell_length_b 18.175372
_cell_length_c 4.887347
_cell_angle_alpha 90.000000
_cell_angle_beta 90.000000
_cell_angle_gamma 90.000000
_cell_volume 1614.506477
_symmetry_space_group_name_H-M "I 4 M M"
_symmetry_group_IT_number 107
_symmetry_cell_setting 'tetragonal'
loop_
_space_group_symop_operation_xyz
x,y,z
-y,x,z
-x,-y,z
y,-x,z
-x,y,z
x,-y,z
-y,-x,z
y,x,z
1/2+x,1/2+y,1/2+z
1/2-y,1/2+x,1/2+z
1/2-x,1/2-y,1/2+z
1/2+y,1/2-x,1/2+z
1/2-x,1/2+y,1/2+z
1/2+x,1/2-y,1/2+z
1/2-y,1/2-x,1/2+z
1/2+y,1/2+x,1/2+z
loop_
_atom_site_type_symbol
_atom_site_label
_atom_site_fract_x
_atom_site_fract_y
_atom_site_fract_z
Si Si1 0.416112 0.699184 0.827360
Si Si2 0.786049 0.786049 0.675282
Si Si3 0.417156 0.846798 0.533819
O O1 0.500000 0.682025 0.914436
O O2 0.375796 0.624205 0.719163
O O3 0.371286 0.730207 0.093263
O O4 0.412162 0.759625 0.588715
O O5 0.767343 0.767343 0.989105
O O6 0.500000 0.874885 0.581495
O O7 0.392458 0.861955 0.225412
#
# Coordination Sequence:
#
# PCOD8307656 Si02
#       3
#    16   8  16
#     4   9  21  39  64  95 125 164 209 258 310 371
#     4  10  20  38  65  90 121 164 202 246 304 362
#     4  11  23  39  61  91 125 164 210 257 311 374
#
# _framework density 24.775371
#
# number of rings (size 3 to 8) (size 9 to 14) (size 15 to 20)
#    1.200    0.800    0.000    3.600    0.000    2.800 
#    0.000    6.000    0.000    0.000    0.000    2.800 
#    0.000    0.000    0.000    0.000    0.000    0.000 
#
# Total GULP energy -247871.019764 kJ/mol
# GULP energy per Si atom -12393.550988 kJ/mol
# Density = 2.471898 g / cm^3
# Si number density = 24.775371 Si / 1000 Ang^3
#
#
#
# Elastic Constant Matrix: (Units=GPa)
#
#
# Indices 1 2 3 4 5 6 
#
# 1 174.6214 48.7497 12.8512 0.0000 0.0000 0.0006
# 2 48.7497 174.6214 12.8512 0.0000 0.0000 -0.0006
# 3 12.8512 12.8512 63.5592 0.0000 0.0000 0.0000
# 4 0.0000 0.0000 0.0000 14.3720 0.0000 0.0000
# 5 0.0000 0.0000 0.0000 0.0000 14.3720 0.0000
# 6 0.0006 -0.0006 0.0000 0.0000 0.0000 35.0567
#
#
#
# Elastic Compliance Matrix: (Units=1/GPa)
#
#
# Indices 1 2 3 4 5 6 
#
# 1 0.006264 -0.001681 -0.000927 0.000000 0.000000 0.000000
# 2 -0.001681 0.006264 -0.000927 0.000000 0.000000 0.000000
# 3 -0.000927 -0.000927 0.016108 0.000000 0.000000 0.000000
# 4 0.000000 0.000000 0.000000 0.069580 0.000000 0.000000
# 5 0.000000 0.000000 0.000000 0.000000 0.069580 0.000000
# 6 0.000000 0.000000 0.000000 0.000000 0.000000 0.028525
#
#
# Mechanical properties :
#
#
# Convention : Reuss Voigt Hill
#
# Bulk Modulus (GPa) = 46.36472 62.41179 54.38826
# Shear Modulus (GPa) = 23.74414 35.31682 29.53048
#
# Velocity S-wave (km/s) = 3.09912 3.77965 3.45618
# Velocity P-wave (km/s) = 5.61790 6.65533 6.15850
#
# Compressibility (1/GPa) = 0.02156812
#
# Stress axis : x y z
#
# Youngs Moduli (GPa) = 159.64131 159.64131 62.08047
#
# Poissons Ratio (x) = 0.26829 0.05753
# Poissons Ratio (y) = 0.26829 0.05753
# Poissons Ratio (z) = 0.14795 0.14795
#
# Static dielectric constant tensor:
#      x y z
#    x 4.636260 0.000000 0.000000 
#    y 0.000000 4.636260 0.000000 
#    z 0.000000 0.000000 3.904670 
# 
# 
# High freq. dielectric constant tensor:
#      x y z
#    x 1.987220 0.000000 0.000000 
#    y 0.000000 1.987220 0.000000 
#    z 0.000000 0.000000 1.971660 
# 
# From -- ./inp_files/109.got.cif
#   From: 2010.03.12/outbox.cif.g09.slc.cpg/sg107_1_cif.got.tgz:109.got - 2010.04.14 01:49:11.
