data_PCOD8307111
_publ_section_title
;
Structure prediction by ZEFSAII (Michael W. Deem and Ramdas Pophale) SiO2 
 PCOD8307111
Probable space group: P 42 M C
;
_chemical_formula_sum "Si O2"
_cell_formula_units_Z 56
_cell_length_a 13.953131
_cell_length_b 13.953131
_cell_length_c 17.384127
_cell_angle_alpha 90.000000
_cell_angle_beta 90.000000
_cell_angle_gamma 90.000000
_cell_volume 3384.513334
_symmetry_space_group_name_H-M "P 42 M C"
_symmetry_group_IT_number 105
_symmetry_cell_setting 'tetragonal'
loop_
_space_group_symop_operation_xyz
x,y,z
-y,x,1/2+z
-x,-y,z
y,-x,1/2+z
-x,y,z
x,-y,z
-y,-x,1/2+z
y,x,1/2+z
loop_
_atom_site_type_symbol
_atom_site_label
_atom_site_fract_x
_atom_site_fract_y
_atom_site_fract_z
Si Si1 0.387962 0.106503 0.826090
Si Si2 0.386408 0.774280 0.389638
Si Si3 0.106240 0.386356 0.035481
Si Si4 0.893497 0.387962 0.744873
Si Si5 0.259658 0.611174 0.446484
Si Si6 0.259658 0.611174 0.624479
Si Si7 0.774280 0.386408 0.181325
O O1 0.500000 0.094997 0.811029
O O2 0.367664 0.156123 0.908280
O O3 0.347078 0.173981 0.758120
O O4 0.340787 0.000000 0.825265
O O5 0.500000 0.759445 0.388292
O O6 0.350566 0.839469 0.459957
O O7 0.347078 0.826019 0.312843
O O8 0.340187 0.669770 0.400267
O O9 0.100343 0.500000 0.035481
O O10 0.160531 0.350567 0.111006
O O11 0.000000 0.341618 0.035481
O O12 0.905003 0.500000 0.759933
O O13 0.843877 0.367664 0.662683
O O14 0.000000 0.340787 0.745698
O O15 0.287571 0.500000 0.437176
O O16 0.254294 0.641453 0.535481
O O17 0.287571 0.500000 0.633787
O O18 0.340187 0.669770 0.670696
O O19 0.759444 0.500000 0.182671
#
# Coordination Sequence:
#
# PCOD8307111 Si02
#       7
#     8   8   8   8   8   8   8
#     4   9  18  32  49  67  89 122 163 207 250 283
#     4  10  18  30  47  69  98 130 163 200 236 278
#     4   9  16  26  43  67  94 125 159 199 247 284
#     4   9  18  32  49  67  89 122 163 207 250 283
#     4  10  20  32  46  68 100 136 167 193 227 281
#     4  10  20  32  46  68 100 136 167 193 227 281
#     4  10  18  30  47  69  98 130 163 200 236 278
#
# _framework density 16.545953000000001
#
# number of rings (size 3 to 8) (size 9 to 14) (size 15 to 20)
#    0.000    2.429    1.429    1.714    0.000    4.571 
#    0.000    4.286    0.000    5.143    0.000    0.000 
#    0.000   20.571    0.000    0.000    0.000    0.000 
#
# Total GULP energy -694221.714957 kJ/mol
# GULP energy per Si atom -12396.816339 kJ/mol
# Density = 1.650829 g / cm^3
# Si number density = 16.545953 Si / 1000 Ang^3
#
#
#
# Elastic Constant Matrix: (Units=GPa)
#
#
# Indices 1 2 3 4 5 6 
#
# 1 75.7073 40.7964 40.1043 0.0000 0.0000 0.0000
# 2 40.7964 75.7073 40.1043 0.0000 0.0000 0.0000
# 3 40.1043 40.1043 92.6816 0.0000 0.0000 0.0000
# 4 0.0000 0.0000 0.0000 22.1986 0.0000 0.0000
# 5 0.0000 0.0000 0.0000 0.0000 22.1986 0.0000
# 6 0.0000 0.0000 0.0000 0.0000 0.0000 3.3560
#
#
#
# Elastic Compliance Matrix: (Units=1/GPa)
#
#
# Indices 1 2 3 4 5 6 
#
# 1 0.020435 -0.008209 -0.005290 0.000000 0.000000 0.000000
# 2 -0.008209 0.020435 -0.005290 0.000000 0.000000 0.000000
# 3 -0.005290 -0.005290 0.015368 0.000000 0.000000 0.000000
# 4 0.000000 0.000000 0.000000 0.045048 0.000000 0.000000
# 5 0.000000 0.000000 0.000000 0.000000 0.045048 0.000000
# 6 0.000000 0.000000 0.000000 0.000000 0.000000 0.297972
#
#
# Mechanical properties :
#
#
# Convention : Reuss Voigt Hill
#
# Bulk Modulus (GPa) = 53.59529 54.01179 53.80354
# Shear Modulus (GPa) = 10.24371 17.75671 14.00021
#
# Velocity S-wave (km/s) = 2.49088 3.27949 2.91201
# Velocity P-wave (km/s) = 6.38238 6.85962 6.62530
#
# Compressibility (1/GPa) = 0.01865836
#
# Stress axis : x y z
#
# Youngs Moduli (GPa) = 48.93585 48.93585 65.07120
#
# Poissons Ratio (x) = 0.40174 0.34423
# Poissons Ratio (y) = 0.40174 0.34423
# Poissons Ratio (z) = 0.25887 0.25887
#
# Static dielectric constant tensor:
#      x y z
#    x 2.974270 0.000000 0.000000 
#    y 0.000000 2.974270 0.000000 
#    z 0.000000 0.000000 3.321510 
# 
# 
# High freq. dielectric constant tensor:
#      x y z
#    x 1.608150 0.000000 0.000000 
#    y 0.000000 1.608150 0.000000 
#    z 0.000000 0.000000 1.656530 
# 
# From -- ./inp_files/2623.got.cif
#   From: 2010.03.12/outbox.cif.g09.slc.cpg/sg105_2_cif.got.tgz:2623.got - 2010.04.14 01:45:32.
