data_PCOD8307412
_publ_section_title
;
Structure prediction by ZEFSAII (Michael W. Deem and Ramdas Pophale) SiO2 
 PCOD8307412
Probable space group: P 42 B C
;
_chemical_formula_sum "Si O2"
_cell_formula_units_Z 48
_cell_length_a 13.360897
_cell_length_b 13.360897
_cell_length_c 12.653845
_cell_angle_alpha 90.000000
_cell_angle_beta 90.000000
_cell_angle_gamma 90.000000
_cell_volume 2258.883028
_symmetry_space_group_name_H-M "P 42 B C"
_symmetry_group_IT_number 106
_symmetry_cell_setting 'tetragonal'
loop_
_space_group_symop_operation_xyz
x,y,z
-y,x,1/2+z
-x,-y,z
y,-x,1/2+z
1/2-x,1/2+y,z
1/2+x,1/2-y,z
1/2-y,1/2-x,1/2+z
1/2+y,1/2+x,1/2+z
loop_
_atom_site_type_symbol
_atom_site_label
_atom_site_fract_x
_atom_site_fract_y
_atom_site_fract_z
Si Si1 0.053282 0.902092 0.945030
Si Si2 0.135765 0.180031 0.842380
Si Si3 0.380346 0.008887 0.676784
Si Si4 0.159058 0.774749 0.118036
Si Si5 0.660705 0.153933 0.508095
Si Si6 0.507756 0.248495 0.381172
O O1 0.149987 0.926866 0.873034
O O2 0.977056 0.854541 0.862113
O O3 0.078584 0.827848 0.041271
O O4 0.000000 0.000000 0.995429
O O5 0.153458 0.178302 0.717954
O O6 0.140139 0.290469 0.892325
O O7 0.220415 0.107902 0.895499
O O8 0.346547 0.944733 0.576580
O O9 0.322762 0.971984 0.780937
O O10 0.500000 0.000000 0.694902
O O11 0.336626 0.119961 0.650351
O O12 0.266716 0.766397 0.064498
O O13 0.546956 0.191752 0.486683
#
# Coordination Sequence:
#
# PCOD8307412 Si02
#       6
#     8   8   8   8   8   8
#     4   9  18  38  65  94 122 160 211 280 331 384
#     4  10  20  39  64  91 125 169 216 272 338 385
#     4  11  24  42  63  93 131 176 217 265 326 400
#     4  10  22  40  62  94 127 170 222 266 331 397
#     4  11  22  41  62  90 130 169 217 270 328 392
#     4   9  22  40  59  92 126 162 218 266 325 391
#
# _framework density 21.249438000000001
#
# number of rings (size 3 to 8) (size 9 to 14) (size 15 to 20)
#    0.000    2.000    1.667    1.000    2.333    4.000 
#    6.000    5.000    0.000    0.000    0.000    0.000 
#    0.000    0.000    0.000    0.000    0.000    0.000 
#
# Total GULP energy -594735.295111 kJ/mol
# GULP energy per Si atom -12390.318648 kJ/mol
# Density = 2.120107 g / cm^3
# Si number density = 21.249438 Si / 1000 Ang^3
#
#
#
# Elastic Constant Matrix: (Units=GPa)
#
#
# Indices 1 2 3 4 5 6 
#
# 1 88.0597 17.2350 36.1312 0.0000 0.0000 0.0000
# 2 17.2350 88.0597 36.1312 0.0000 0.0000 0.0000
# 3 36.1312 36.1312 93.6693 0.0000 0.0000 0.0000
# 4 0.0000 0.0000 0.0000 34.3181 0.0000 0.0000
# 5 0.0000 0.0000 0.0000 0.0000 34.3181 0.0000
# 6 0.0000 0.0000 0.0000 0.0000 0.0000 16.8700
#
#
#
# Elastic Compliance Matrix: (Units=1/GPa)
#
#
# Indices 1 2 3 4 5 6 
#
# 1 0.013518 -0.000601 -0.004982 0.000000 0.000000 0.000000
# 2 -0.000601 0.013518 -0.004982 0.000000 0.000000 0.000000
# 3 -0.004982 -0.004982 0.014520 0.000000 0.000000 0.000000
# 4 0.000000 0.000000 0.000000 0.029139 0.000000 0.000000
# 5 0.000000 0.000000 0.000000 0.000000 0.029139 0.000000
# 6 0.000000 0.000000 0.000000 0.000000 0.000000 0.059277
#
#
# Mechanical properties :
#
#
# Convention : Reuss Voigt Hill
#
# Bulk Modulus (GPa) = 48.96380 49.86484 49.41432
# Shear Modulus (GPa) = 26.73080 29.12067 27.92574
#
# Velocity S-wave (km/s) = 3.55061 3.70594 3.62910
# Velocity P-wave (km/s) = 6.31677 6.46756 6.39261
#
# Compressibility (1/GPa) = 0.02042325
#
# Stress axis : x y z
#
# Youngs Moduli (GPa) = 73.97598 73.97598 68.87285
#
# Poissons Ratio (x) = 0.04449 0.34314
# Poissons Ratio (y) = 0.04449 0.34314
# Poissons Ratio (z) = 0.36857 0.36857
#
# Static dielectric constant tensor:
#      x y z
#    x 3.899670 0.000000 0.000000 
#    y 0.000000 3.899670 0.000000 
#    z 0.000000 0.000000 3.673050 
# 
# 
# High freq. dielectric constant tensor:
#      x y z
#    x 1.833710 0.000000 0.000000 
#    y 0.000000 1.833710 0.000000 
#    z 0.000000 0.000000 1.826130 
# 
# From -- ./inp_files/925.got.cif
#   From: 2010.03.12/outbox.cif.g09.slc.cpg/sg106_cif.got.tgz:925.got - 2010.04.14 01:48:02.
