data_PCOD8307705
_publ_section_title
;
Structure prediction by ZEFSAII (Michael W. Deem and Ramdas Pophale) SiO2 
 PCOD8307705
Probable space group: I 4 C M
;
_chemical_formula_sum "Si O2"
_cell_formula_units_Z 112
_cell_length_a 15.332100
_cell_length_b 15.332100
_cell_length_c 29.089733
_cell_angle_alpha 90.000000
_cell_angle_beta 90.000000
_cell_angle_gamma 90.000000
_cell_volume 6838.219253
_symmetry_space_group_name_H-M "I 4 C M"
_symmetry_group_IT_number 108
_symmetry_cell_setting 'tetragonal'
loop_
_space_group_symop_operation_xyz
x,y,z
-y,x,z
-x,-y,z
y,-x,z
-x,y,1/2+z
x,-y,1/2+z
-y,-x,1/2+z
y,x,1/2+z
1/2+x,1/2+y,1/2+z
1/2-y,1/2+x,1/2+z
1/2-x,1/2-y,1/2+z
1/2+y,1/2-x,1/2+z
1/2-x,1/2+y,z
1/2+x,1/2-y,z
1/2-y,1/2-x,z
1/2+y,1/2+x,z
loop_
_atom_site_type_symbol
_atom_site_label
_atom_site_fract_x
_atom_site_fract_y
_atom_site_fract_z
Si Si1 0.954514 0.134608 0.348280
Si Si2 0.995294 0.358137 0.595248
Si Si3 0.452123 0.806147 0.689989
Si Si4 0.358137 0.004707 0.995677
Si Si5 0.547877 0.193853 0.900935
Si Si6 0.073162 0.573162 0.847067
Si Si7 0.573162 0.073162 0.243858
Si Si8 0.045486 0.134607 0.742644
O O1 0.924778 0.213068 0.380952
O O2 0.944997 0.163842 0.295462
O O3 0.053953 0.108665 0.358890
O O4 0.063180 0.436821 0.594157
O O5 0.019763 0.293224 0.636722
O O6 0.899349 0.399349 0.603930
O O7 1.000000 0.309409 0.545462
O O8 0.370028 0.870028 0.694883
O O9 0.535478 0.842737 0.717770
O O10 0.424777 0.713067 0.709972
O O11 0.436820 0.936820 0.996767
O O12 0.399349 0.100652 0.986995
O O13 0.293224 0.980238 0.954202
O O14 0.629972 0.129972 0.896042
O O15 0.464523 0.157262 0.873154
O O16 0.100380 0.600380 0.795462
O O17 0.000000 0.500000 0.846299
O O18 0.500000 0.000000 0.244625
O O19 0.946047 0.108665 0.732034
#
# Coordination Sequence:
#
# PCOD8307705 Si02
#       8
#    16  16  16  16  16   8   8  16
#     4   9  19  36  52  64  87 127 165 191 224 278
#     4   8  13  23  41  66  96 128 156 185 228 283
#     4  10  17  28  47  72  98 120 152 193 237 278
#     4   8  13  23  41  66  96 128 156 185 228 283
#     4  10  17  28  47  72  98 120 152 193 237 278
#     4   9  16  24  38  64 100 127 138 171 237 292
#     4   9  16  24  38  64 100 127 138 171 237 292
#     4   9  19  36  52  64  87 127 165 191 224 278
#
# _framework density 16.378533000000001
#
# number of rings (size 3 to 8) (size 9 to 14) (size 15 to 20)
#    0.000    3.000    1.429    2.571    0.000    1.714 
#    2.571    0.000    0.000    1.714    0.000    8.000 
#    0.000    0.000    0.000    0.000    0.000    0.000 
#
# Total GULP energy -694102.488097 kJ/mol
# GULP energy per Si atom -12394.687287 kJ/mol
# Density = 1.634125 g / cm^3
# Si number density = 16.378533 Si / 1000 Ang^3
#
#
#
# Elastic Constant Matrix: (Units=GPa)
#
#
# Indices 1 2 3 4 5 6 
#
# 1 59.6357 10.6341 39.8716 0.0000 0.0000 0.0000
# 2 10.6341 59.6357 39.8716 0.0000 0.0000 0.0000
# 3 39.8716 39.8716 140.8396 0.0000 0.0000 0.0000
# 4 0.0000 0.0000 0.0000 18.1680 0.0000 0.0000
# 5 0.0000 0.0000 0.0000 0.0000 18.1680 0.0000
# 6 0.0000 0.0000 0.0000 0.0000 0.0000 8.9112
#
#
#
# Elastic Compliance Matrix: (Units=1/GPa)
#
#
# Indices 1 2 3 4 5 6 
#
# 1 0.020687 0.000280 -0.005936 0.000000 0.000000 0.000000
# 2 0.000280 0.020687 -0.005936 0.000000 0.000000 0.000000
# 3 -0.005936 -0.005936 0.010461 0.000000 0.000000 0.000000
# 4 0.000000 0.000000 0.000000 0.055042 0.000000 0.000000
# 5 0.000000 0.000000 0.000000 0.000000 0.055042 0.000000
# 6 0.000000 0.000000 0.000000 0.000000 0.000000 0.112218
#
#
# Mechanical properties :
#
#
# Convention : Reuss Voigt Hill
#
# Bulk Modulus (GPa) = 34.90174 48.98506 41.94340
# Shear Modulus (GPa) = 16.29350 20.36504 18.32927
#
# Velocity S-wave (km/s) = 3.15748 3.53001 3.34893
# Velocity P-wave (km/s) = 5.88631 6.82551 6.37324
#
# Compressibility (1/GPa) = 0.02865186
#
# Stress axis : x y z
#
# Youngs Moduli (GPa) = 48.33928 48.33928 95.59278
#
# Poissons Ratio (x) = -0.01352 0.56741
# Poissons Ratio (y) = -0.01352 0.56741
# Poissons Ratio (z) = 0.28693 0.28693
#
# Static dielectric constant tensor:
#      x y z
#    x 2.739130 0.000000 0.000000 
#    y 0.000000 2.739130 0.000000 
#    z 0.000000 0.000000 3.518100 
# 
# 
# High freq. dielectric constant tensor:
#      x y z
#    x 1.594670 0.000000 0.000000 
#    y 0.000000 1.594670 0.000000 
#    z 0.000000 0.000000 1.641930 
# 
# From -- ./inp_files/3414.got.cif
#   From: 2010.03.12/outbox.cif.g09.slc.cpg/sg108_2_cif.got.tgz:3414.got - 2010.04.14 01:53:11.
