data_PCOD8307888
_publ_section_title
;
Structure prediction by ZEFSAII (Michael W. Deem and Ramdas Pophale) SiO2 
 PCOD8307888
Probable space group: I 41 M D
;
_chemical_formula_sum "Si O2"
_cell_formula_units_Z 112
_cell_length_a 13.680367
_cell_length_b 13.680367
_cell_length_c 28.173427
_cell_angle_alpha 90.000000
_cell_angle_beta 90.000000
_cell_angle_gamma 90.000000
_cell_volume 5272.725642
_symmetry_space_group_name_H-M "I 41 M D"
_symmetry_group_IT_number 109
_symmetry_cell_setting 'tetragonal'
loop_
_space_group_symop_operation_xyz
x,y,z
-y,1/2+x,1/4+z
-x,-y,z
y,1/2-x,1/4+z
-x,y,z
x,-y,z
-y,1/2-x,1/4+z
y,1/2+x,1/4+z
1/2+x,1/2+y,1/2+z
1/2-y,x,3/4+z
1/2-x,1/2-y,1/2+z
1/2+y,-x,3/4+z
1/2-x,1/2+y,1/2+z
1/2+x,1/2-y,1/2+z
1/2-y,-x,3/4+z
1/2+y,x,3/4+z
loop_
_atom_site_type_symbol
_atom_site_label
_atom_site_fract_x
_atom_site_fract_y
_atom_site_fract_z
Si Si1 0.390126 0.742987 0.705680
Si Si2 0.383402 0.390703 0.622024
Si Si3 0.685508 0.115445 0.320985
Si Si4 0.798124 0.613718 0.275309
Si Si5 0.613365 0.895766 0.045840
Si Si6 0.107505 0.613524 0.919568
Si Si7 0.611571 0.286625 0.263858
O O1 0.500000 0.781440 0.695757
O O2 0.343894 0.692302 0.658503
O O3 0.326086 0.833500 0.725529
O O4 0.389276 0.658959 0.744351
O O5 0.500000 0.387458 0.624254
O O6 0.345597 0.500000 0.634683
O O7 0.348476 0.366990 0.568191
O O8 0.800724 0.141830 0.326526
O O9 0.637470 0.158332 0.368825
O O10 0.637499 0.174247 0.276705
O O11 0.667643 0.000000 0.312216
O O12 0.810559 0.500000 0.266834
O O13 0.686598 0.640385 0.290606
O O14 0.500000 0.893747 0.035611
O O15 0.642712 0.000000 0.070926
O O16 0.096628 0.500000 0.910266
O O17 0.192454 0.631271 0.958086
O O18 0.000000 0.655250 0.935478
O O19 0.500000 0.312016 0.277759
#
# Coordination Sequence:
#
# PCOD8307888 Si02
#       7
#    16  16  16  16  16  16  16
#     4  10  19  35  59  87 118 158 205 245 293 366
#     4   9  19  37  62  91 125 164 202 243 304 381
#     4  10  20  38  63  92 123 157 201 250 306 372
#     4  11  23  39  58  86 123 162 208 260 309 355
#     4   9  17  32  56  86 122 158 191 237 298 365
#     4   9  19  37  61  86 117 164 211 247 296 365
#     4  11  23  40  61  86 115 155 208 258 305 359
#
# _framework density 21.241385000000001
#
# number of rings (size 3 to 8) (size 9 to 14) (size 15 to 20)
#    0.000    2.143    1.429    1.714    0.000    5.429 
#    0.000    2.857    0.000    5.143    0.000    0.000 
#    0.000    0.000    0.000    0.000    0.000    0.000 
#
# Total GULP energy -693804.594668 kJ/mol
# GULP energy per Si atom -12389.367762 kJ/mol
# Density = 2.119304 g / cm^3
# Si number density = 21.241385 Si / 1000 Ang^3
#
#
#
# Elastic Constant Matrix: (Units=GPa)
#
#
# Indices 1 2 3 4 5 6 
#
# 1 108.4140 41.4100 52.2968 0.0000 0.0000 0.0000
# 2 41.4100 108.4140 52.2968 0.0000 0.0000 0.0000
# 3 52.2968 52.2968 110.2484 0.0000 0.0000 0.0000
# 4 0.0000 0.0000 0.0000 30.7808 0.0000 0.0000
# 5 0.0000 0.0000 0.0000 0.0000 30.7808 0.0000
# 6 0.0000 0.0000 0.0000 0.0000 0.0000 26.9517
#
#
#
# Elastic Compliance Matrix: (Units=1/GPa)
#
#
# Indices 1 2 3 4 5 6 
#
# 1 0.012452 -0.002473 -0.004734 0.000000 0.000000 0.000000
# 2 -0.002473 0.012452 -0.004734 0.000000 0.000000 0.000000
# 3 -0.004734 -0.004734 0.013561 0.000000 0.000000 0.000000
# 4 0.000000 0.000000 0.000000 0.032488 0.000000 0.000000
# 5 0.000000 0.000000 0.000000 0.000000 0.032488 0.000000
# 6 0.000000 0.000000 0.000000 0.000000 0.000000 0.037103
#
#
# Mechanical properties :
#
#
# Convention : Reuss Voigt Hill
#
# Bulk Modulus (GPa) = 68.56392 68.78710 68.67551
# Shear Modulus (GPa) = 29.53593 29.77418 29.65506
#
# Velocity S-wave (km/s) = 3.73297 3.74800 3.74049
# Velocity P-wave (km/s) = 7.13643 7.15429 7.14536
#
# Compressibility (1/GPa) = 0.01458493
#
# Stress axis : x y z
#
# Youngs Moduli (GPa) = 80.30979 80.30979 73.73946
#
# Poissons Ratio (x) = 0.19858 0.34905
# Poissons Ratio (y) = 0.19858 0.34905
# Poissons Ratio (z) = 0.38016 0.38016
#
# Static dielectric constant tensor:
#      x y z
#    x 4.062260 0.000000 0.000000 
#    y 0.000000 4.062260 0.000000 
#    z 0.000000 0.000000 3.761740 
# 
# 
# High freq. dielectric constant tensor:
#      x y z
#    x 1.834320 0.000000 0.000000 
#    y 0.000000 1.834320 0.000000 
#    z 0.000000 0.000000 1.809120 
# 
# From -- ./inp_files/4477.got.cif
#   From: 2010.03.12/outbox.cif.g09.slc.cpg/sg109_3_cif.got.tgz:4477.got - 2010.04.14 01:55:16.
