data_PCOD8307300
_publ_section_title
;
Structure prediction by ZEFSAII (Michael W. Deem and Ramdas Pophale) SiO2 
 PCOD8307300
Probable space group: P 42 M C
;
_chemical_formula_sum "Si O2"
_cell_formula_units_Z 48
_cell_length_a 8.184671
_cell_length_b 8.184671
_cell_length_c 34.186557
_cell_angle_alpha 90.000000
_cell_angle_beta 90.000000
_cell_angle_gamma 90.000000
_cell_volume 2290.117776
_symmetry_space_group_name_H-M "P 42 M C"
_symmetry_group_IT_number 105
_symmetry_cell_setting 'tetragonal'
loop_
_space_group_symop_operation_xyz
x,y,z
-y,x,1/2+z
-x,-y,z
y,-x,1/2+z
-x,y,z
x,-y,z
-y,-x,1/2+z
y,x,1/2+z
loop_
_atom_site_type_symbol
_atom_site_label
_atom_site_fract_x
_atom_site_fract_y
_atom_site_fract_z
Si Si1 0.318739 0.686968 0.984790
Si Si2 0.500000 0.695101 0.689241
Si Si3 0.183465 0.688029 0.644276
Si Si4 0.816068 0.184588 0.561737
Si Si5 0.809362 0.317373 0.404468
Si Si6 0.806463 0.181571 0.324317
Si Si7 0.308074 0.500000 0.278027
O O1 0.500000 0.760912 0.992073
O O2 0.329074 0.500000 0.973809
O O3 0.236078 0.772117 0.946787
O O4 0.214879 0.705332 0.024048
O O5 0.500000 0.500000 0.685040
O O6 0.332531 0.766313 0.669435
O O7 0.500000 0.756475 0.733676
O O8 0.170821 0.500000 0.655465
O O9 0.232183 0.704186 0.598639
O O10 0.000000 0.766799 0.651810
O O11 0.000000 0.221632 0.548298
O O12 0.792554 0.000000 0.575986
O O13 0.731762 0.500000 0.403285
O O14 0.738287 0.211925 0.368399
O O15 0.000000 0.329978 0.398196
O O16 0.750779 0.331336 0.297315
O O17 0.000000 0.179678 0.323765
O O18 0.742580 0.000000 0.310766
O O19 0.500000 0.500000 0.279186
#
# Coordination Sequence:
#
# PCOD8307300 Si02
#       7
#     8   4   8   8   8   8   4
#     4  10  21  34  51  79 113 148 187 233 282 336
#     4   9  20  37  59  87 113 147 191 237 293 357
#     4   9  18  35  59  82 107 144 190 238 285 345
#     4  10  21  36  53  76 109 146 186 233 284 339
#     4   9  17  33  56  79 108 147 194 242 285 338
#     4  10  21  39  63  88 117 158 204 246 295 360
#     4  11  23  39  61  91 127 157 191 247 309 369
#
# _framework density 20.959622
#
# number of rings (size 3 to 8) (size 9 to 14) (size 15 to 20)
#    0.000    2.333    0.833    1.250    1.167    4.333 
#    0.000    5.000    0.000    2.000    0.000    0.000 
#    0.000    0.000    0.000    0.000    0.000    0.000 
#
# Total GULP energy -594776.059312 kJ/mol
# GULP energy per Si atom -12391.167902 kJ/mol
# Density = 2.091192 g / cm^3
# Si number density = 20.959622 Si / 1000 Ang^3
#
#
#
# Elastic Constant Matrix: (Units=GPa)
#
#
# Indices 1 2 3 4 5 6 
#
# 1 80.0286 28.4194 49.4395 0.0000 0.0000 0.0000
# 2 28.4194 80.0286 49.4395 0.0000 0.0000 0.0000
# 3 49.4395 49.4395 155.4966 0.0000 0.0000 0.0000
# 4 0.0000 0.0000 0.0000 12.4045 0.0000 0.0000
# 5 0.0000 0.0000 0.0000 0.0000 12.4045 0.0000
# 6 0.0000 0.0000 0.0000 0.0000 0.0000 15.8180
#
#
#
# Elastic Compliance Matrix: (Units=1/GPa)
#
#
# Indices 1 2 3 4 5 6 
#
# 1 0.016181 -0.003196 -0.004129 0.000000 0.000000 0.000000
# 2 -0.003196 0.016181 -0.004129 0.000000 0.000000 0.000000
# 3 -0.004129 -0.004129 0.009056 0.000000 0.000000 0.000000
# 4 0.000000 0.000000 0.000000 0.080616 0.000000 0.000000
# 5 0.000000 0.000000 0.000000 0.000000 0.080616 0.000000
# 6 0.000000 0.000000 0.000000 0.000000 0.000000 0.063219
#
#
# Mechanical properties :
#
#
# Convention : Reuss Voigt Hill
#
# Bulk Modulus (GPa) = 54.01748 63.35007 58.68378
# Shear Modulus (GPa) = 16.95233 20.67578 18.81406
#
# Velocity S-wave (km/s) = 2.84704 3.14420 2.99930
# Velocity P-wave (km/s) = 6.05274 6.59331 6.32880
#
# Compressibility (1/GPa) = 0.01851253
#
# Stress axis : x y z
#
# Youngs Moduli (GPa) = 61.80136 61.80136 110.41945
#
# Poissons Ratio (x) = 0.19749 0.45588
# Poissons Ratio (y) = 0.19749 0.45588
# Poissons Ratio (z) = 0.25516 0.25516
#
# Static dielectric constant tensor:
#      x y z
#    x 3.745440 0.000000 0.000000 
#    y 0.000000 3.745440 0.000000 
#    z 0.000000 0.000000 3.818580 
# 
# 
# High freq. dielectric constant tensor:
#      x y z
#    x 1.806810 0.000000 0.000000 
#    y 0.000000 1.806810 0.000000 
#    z 0.000000 0.000000 1.819290 
# 
# From -- ./inp_files/4807.got.cif
#   From: 2010.03.12/outbox.cif.g09.slc.cpg/sg105_3_cif.got.tgz:4807.got - 2010.04.14 01:45:32.
