data_PCOD8307418
_publ_section_title
;
Structure prediction by ZEFSAII (Michael W. Deem and Ramdas Pophale) SiO2 
 PCOD8307418
Probable space group: P 42 B C
;
_chemical_formula_sum "Si O2"
_cell_formula_units_Z 60
_cell_length_a 17.407894
_cell_length_b 17.407894
_cell_length_c 9.335540
_cell_angle_alpha 90.000000
_cell_angle_beta 90.000000
_cell_angle_gamma 90.000000
_cell_volume 2828.993250
_symmetry_space_group_name_H-M "P 42 B C"
_symmetry_group_IT_number 106
_symmetry_cell_setting 'tetragonal'
loop_
_space_group_symop_operation_xyz
x,y,z
-y,x,1/2+z
-x,-y,z
y,-x,1/2+z
1/2-x,1/2+y,z
1/2+x,1/2-y,z
1/2-y,1/2-x,1/2+z
1/2+y,1/2+x,1/2+z
loop_
_atom_site_type_symbol
_atom_site_label
_atom_site_fract_x
_atom_site_fract_y
_atom_site_fract_z
Si Si1 0.910714 0.567525 0.640260
Si Si2 0.612143 0.543618 0.087947
Si Si3 0.792835 0.319721 0.824421
Si Si4 0.702922 0.698871 0.047033
Si Si5 0.000000 0.000000 0.837504
Si Si6 0.074457 0.602810 0.678774
Si Si7 0.818709 0.596808 0.897720
Si Si8 0.753278 0.949738 0.995019
O O1 0.895182 0.477483 0.610351
O O2 0.842777 0.608538 0.732149
O O3 0.922665 0.604663 0.485761
O O4 0.988338 0.584779 0.732451
O O5 0.648226 0.628486 0.086837
O O6 0.563603 0.537503 0.233692
O O7 0.564282 0.536094 0.940948
O O8 0.674946 0.474274 0.095484
O O9 0.752435 0.282411 0.685477
O O10 0.864388 0.377387 0.801134
O O11 0.727922 0.373622 0.901399
O O12 0.830402 0.253431 0.922584
O O13 0.782546 0.670544 0.975608
O O14 0.074196 0.677112 0.578989
O O15 0.760296 0.525255 0.898125
#
# Coordination Sequence:
#
# PCOD8307418 Si02
#       8
#     8   8   8   8   4   8   8   8
#     4  10  21  36  62  84 126 158 211 239 304 371
#     4  10  23  43  68  97 126 168 215 286 318 389
#     4  12  22  39  61  90 125 166 205 255 318 390
#     4  11  25  39  63  89 132 163 214 262 329 371
#     4  10  22  44  72  94 120 164 230 270 344 368
#     4  10  22  35  61  94 120 166 198 254 300 381
#     4  10  21  39  56  85 118 166 200 255 297 366
#     4  10  21  39  61  88 129 159 205 256 319 369
#
# _framework density 21.208957999999999
#
# number of rings (size 3 to 8) (size 9 to 14) (size 15 to 20)
#    0.000    1.600    2.667    1.600    3.733    1.067 
#    0.000    0.000    8.800    0.000    0.000    0.000 
#    0.000    0.000    0.000    0.000    0.000    0.000 
#
# Total GULP energy -743295.863939 kJ/mol
# GULP energy per Si atom -12388.264399 kJ/mol
# Density = 2.116069 g / cm^3
# Si number density = 21.208958 Si / 1000 Ang^3
#
#
#
# Elastic Constant Matrix: (Units=GPa)
#
#
# Indices 1 2 3 4 5 6 
#
# 1 79.6991 18.0235 23.5146 0.0000 0.0000 0.0000
# 2 18.0235 79.6991 23.5146 0.0000 0.0000 0.0000
# 3 23.5146 23.5146 88.3044 0.0000 0.0000 0.0000
# 4 0.0000 0.0000 0.0000 31.1198 0.0000 0.0000
# 5 0.0000 0.0000 0.0000 0.0000 31.1198 0.0000
# 6 0.0000 0.0000 0.0000 0.0000 0.0000 24.5686
#
#
#
# Elastic Compliance Matrix: (Units=1/GPa)
#
#
# Indices 1 2 3 4 5 6 
#
# 1 0.013976 -0.002238 -0.003125 0.000000 0.000000 0.000000
# 2 -0.002238 0.013976 -0.003125 0.000000 0.000000 0.000000
# 3 -0.003125 -0.003125 0.012989 0.000000 0.000000 0.000000
# 4 0.000000 0.000000 0.000000 0.032134 0.000000 0.000000
# 5 0.000000 0.000000 0.000000 0.000000 0.032134 0.000000
# 6 0.000000 0.000000 0.000000 0.000000 0.000000 0.040702
#
#
# Mechanical properties :
#
#
# Convention : Reuss Voigt Hill
#
# Bulk Modulus (GPa) = 41.73368 41.97863 41.85615
# Shear Modulus (GPa) = 29.26098 29.53831 29.39964
#
# Velocity S-wave (km/s) = 3.71840 3.73598 3.72720
# Velocity P-wave (km/s) = 6.17701 6.20047 6.18875
#
# Compressibility (1/GPa) = 0.02396146
#
# Stress axis : x y z
#
# Youngs Moduli (GPa) = 71.55360 71.55360 76.98800
#
# Poissons Ratio (x) = 0.16016 0.24063
# Poissons Ratio (y) = 0.16016 0.24063
# Poissons Ratio (z) = 0.22364 0.22364
#
# Static dielectric constant tensor:
#      x y z
#    x 3.954530 0.000000 0.000000 
#    y 0.000000 3.954530 0.000000 
#    z 0.000000 0.000000 3.653340 
# 
# 
# High freq. dielectric constant tensor:
#      x y z
#    x 1.831330 0.000000 0.000000 
#    y 0.000000 1.831330 0.000000 
#    z 0.000000 0.000000 1.822530 
# 
# From -- ./inp_files/543.got.cif
#   From: 2010.03.12/outbox.cif.g09.slc.cpg/sg106_cif.got.tgz:543.got - 2010.04.14 01:48:02.
