data_PCOD8307424
_publ_section_title
;
Structure prediction by ZEFSAII (Michael W. Deem and Ramdas Pophale) SiO2 
 PCOD8307424
Probable space group: P 42 B C
;
_chemical_formula_sum "Si O2"
_cell_formula_units_Z 60
_cell_length_a 17.849286
_cell_length_b 17.849286
_cell_length_c 9.055228
_cell_angle_alpha 90.000000
_cell_angle_beta 90.000000
_cell_angle_gamma 90.000000
_cell_volume 2884.968572
_symmetry_space_group_name_H-M "P 42 B C"
_symmetry_group_IT_number 106
_symmetry_cell_setting 'tetragonal'
loop_
_space_group_symop_operation_xyz
x,y,z
-y,x,1/2+z
-x,-y,z
y,-x,1/2+z
1/2-x,1/2+y,z
1/2+x,1/2-y,z
1/2-y,1/2-x,1/2+z
1/2+y,1/2+x,1/2+z
loop_
_atom_site_type_symbol
_atom_site_label
_atom_site_fract_x
_atom_site_fract_y
_atom_site_fract_z
Si Si1 0.076334 0.364974 0.427860
Si Si2 0.072097 0.753046 0.265985
Si Si3 0.382877 0.467987 0.852147
Si Si4 0.855148 0.421768 0.023929
Si Si5 0.863840 0.511020 0.618244
Si Si6 0.213664 0.725843 0.115614
Si Si7 0.000000 0.000000 0.101995
Si Si8 0.720877 0.669540 0.847839
O O1 0.134277 0.423172 0.497948
O O2 0.039322 0.397223 0.276338
O O3 0.119856 0.290254 0.392271
O O4 0.011401 0.344483 0.549683
O O5 0.090568 0.678023 0.360013
O O6 0.151680 0.777943 0.198518
O O7 0.032667 0.819270 0.356549
O O8 0.014467 0.723211 0.139222
O O9 0.430119 0.478090 0.703406
O O10 0.351575 0.383574 0.851520
O O11 0.430195 0.477498 0.000526
O O12 0.809728 0.362355 0.124669
O O13 0.943593 0.410004 0.043703
O O14 0.296180 0.733621 0.184903
O O15 0.214005 0.757263 0.950288
#
# Coordination Sequence:
#
# PCOD8307424 Si02
#       8
#     8   8   8   8   8   8   4   8
#     4  11  23  42  60  99 128 174 210 267 320 384
#     4  10  21  44  65  94 133 166 222 265 328 399
#     4  11  23  46  70  99 132 172 220 287 333 398
#     4  10  21  40  65  89 130 170 217 258 318 395
#     4  10  22  39  66  91 134 170 210 261 319 390
#     4  11  24  41  63  99 124 180 212 266 327 394
#     4  10  26  44  72 100 126 172 232 278 346 388
#     4  12  24  39  68  90 136 167 219 275 326 383
#
# _framework density 20.797453999999998
#
# number of rings (size 3 to 8) (size 9 to 14) (size 15 to 20)
#    0.000    1.333    4.000    2.000    1.867    5.333 
#    0.000    0.000    8.800    0.000    0.000    0.000 
#    0.000    0.000    0.000    0.000    0.000    0.000 
#
# Total GULP energy -743434.927117 kJ/mol
# GULP energy per Si atom -12390.582119 kJ/mol
# Density = 2.075012 g / cm^3
# Si number density = 20.797454 Si / 1000 Ang^3
#
#
#
# Elastic Constant Matrix: (Units=GPa)
#
#
# Indices 1 2 3 4 5 6 
#
# 1 113.6714 55.2883 48.6983 0.0000 0.0000 0.0000
# 2 55.2883 113.6714 48.6983 0.0000 0.0000 0.0000
# 3 48.6983 48.6983 94.4155 0.0000 0.0000 0.0000
# 4 0.0000 0.0000 0.0000 33.2323 0.0000 0.0000
# 5 0.0000 0.0000 0.0000 0.0000 33.2323 0.0000
# 6 0.0000 0.0000 0.0000 0.0000 0.0000 29.8643
#
#
#
# Elastic Compliance Matrix: (Units=1/GPa)
#
#
# Indices 1 2 3 4 5 6 
#
# 1 0.012776 -0.004353 -0.004344 0.000000 0.000000 0.000000
# 2 -0.004353 0.012776 -0.004344 0.000000 0.000000 0.000000
# 3 -0.004344 -0.004344 0.015073 0.000000 0.000000 0.000000
# 4 0.000000 0.000000 0.000000 0.030091 0.000000 0.000000
# 5 0.000000 0.000000 0.000000 0.000000 0.030091 0.000000
# 6 0.000000 0.000000 0.000000 0.000000 0.000000 0.033485
#
#
# Mechanical properties :
#
#
# Convention : Reuss Voigt Hill
#
# Bulk Modulus (GPa) = 68.77014 69.68088 69.22551
# Shear Modulus (GPa) = 30.26241 30.53736 30.39988
#
# Velocity S-wave (km/s) = 3.81872 3.83603 3.82738
# Velocity P-wave (km/s) = 7.25134 7.29365 7.27253
#
# Compressibility (1/GPa) = 0.01454119
#
# Stress axis : x y z
#
# Youngs Moduli (GPa) = 78.27433 78.27433 66.34344
#
# Poissons Ratio (x) = 0.34070 0.28822
# Poissons Ratio (y) = 0.34070 0.28822
# Poissons Ratio (z) = 0.34006 0.34006
#
# Static dielectric constant tensor:
#      x y z
#    x 3.853980 0.000000 0.000000 
#    y 0.000000 3.853980 0.000000 
#    z 0.000000 0.000000 3.791230 
# 
# 
# High freq. dielectric constant tensor:
#      x y z
#    x 1.816090 0.000000 0.000000 
#    y 0.000000 1.816090 0.000000 
#    z 0.000000 0.000000 1.806330 
# 
# From -- ./inp_files/547.got.cif
#   From: 2010.03.12/outbox.cif.g09.slc.cpg/sg106_cif.got.tgz:547.got - 2010.04.14 01:48:02.
