data_PCOD8307748
_publ_section_title
;
Structure prediction by ZEFSAII (Michael W. Deem and Ramdas Pophale) SiO2 
 PCOD8307748
Probable space group: I 4 C M
;
_chemical_formula_sum "Si O2"
_cell_formula_units_Z 80
_cell_length_a 23.139091
_cell_length_b 23.139091
_cell_length_c 9.620226
_cell_angle_alpha 90.000000
_cell_angle_beta 90.000000
_cell_angle_gamma 90.000000
_cell_volume 5150.837665
_symmetry_space_group_name_H-M "I 4 C M"
_symmetry_group_IT_number 108
_symmetry_cell_setting 'tetragonal'
loop_
_space_group_symop_operation_xyz
x,y,z
-y,x,z
-x,-y,z
y,-x,z
-x,y,1/2+z
x,-y,1/2+z
-y,-x,1/2+z
y,x,1/2+z
1/2+x,1/2+y,1/2+z
1/2-y,1/2+x,1/2+z
1/2-x,1/2-y,1/2+z
1/2+y,1/2-x,1/2+z
1/2-x,1/2+y,z
1/2+x,1/2-y,z
1/2-y,1/2-x,z
1/2+y,1/2+x,z
loop_
_atom_site_type_symbol
_atom_site_label
_atom_site_fract_x
_atom_site_fract_y
_atom_site_fract_z
Si Si1 0.704323 0.204323 0.037008
Si Si2 0.724569 0.224569 0.339764
Si Si3 0.207770 0.886332 0.054015
Si Si4 0.093159 0.011748 0.205392
Si Si5 0.696333 0.372740 0.873254
Si Si6 0.503876 0.670141 0.953367
O O1 0.732549 0.232549 0.174627
O O2 0.725206 0.137099 0.041051
O O3 0.729988 0.229988 0.897565
O O4 0.660209 0.241949 0.390504
O O5 0.181878 0.878354 0.209039
O O6 0.164000 0.853818 0.949106
O O7 0.211023 0.954225 0.017552
O O8 0.049743 0.063722 0.235150
O O9 0.148646 0.017725 0.303516
O O10 0.113389 0.014399 0.046425
O O11 0.704671 0.435847 0.940806
#
# Coordination Sequence:
#
# PCOD8307748 Si02
#       6
#     8   8  16  16  16  16
#     4   8  16  32  50  68  86 111 148 189 237 280
#     4   8  16  32  50  68  86 111 148 189 237 280
#     4  10  20  33  50  68  90 119 153 194 234 276
#     4  11  22  34  44  58  86 126 164 195 222 252
#     4  10  20  33  50  68  90 119 153 194 234 276
#     4  12  22  31  46  66  90 119 158 196 228 264
#
# _framework density 15.531454
#
# number of rings (size 3 to 8) (size 9 to 14) (size 15 to 20)
#    0.000    1.800    2.000    3.600    2.800    1.600 
#    0.000    0.000    0.000    0.000    0.000    0.000 
#    0.000    0.800    0.000    7.200    0.000    0.000 
#
# Total GULP energy -495629.871059 kJ/mol
# GULP energy per Si atom -12390.746776 kJ/mol
# Density = 1.549610 g / cm^3
# Si number density = 15.531454 Si / 1000 Ang^3
#
#
#
# Elastic Constant Matrix: (Units=GPa)
#
#
# Indices 1 2 3 4 5 6 
#
# 1 72.5916 46.8795 24.0609 0.0000 0.0000 0.0000
# 2 46.8795 72.5916 24.0609 0.0000 0.0000 0.0000
# 3 24.0609 24.0609 56.5980 0.0000 0.0000 0.0000
# 4 0.0000 0.0000 0.0000 19.7314 0.0000 0.0000
# 5 0.0000 0.0000 0.0000 0.0000 19.7314 0.0000
# 6 0.0000 0.0000 0.0000 0.0000 0.0000 16.3603
#
#
#
# Elastic Compliance Matrix: (Units=1/GPa)
#
#
# Indices 1 2 3 4 5 6 
#
# 1 0.024496 -0.014396 -0.004294 0.000000 0.000000 0.000000
# 2 -0.014396 0.024496 -0.004294 0.000000 0.000000 0.000000
# 3 -0.004294 -0.004294 0.021319 0.000000 0.000000 0.000000
# 4 0.000000 0.000000 0.000000 0.050681 0.000000 0.000000
# 5 0.000000 0.000000 0.000000 0.000000 0.050681 0.000000
# 6 0.000000 0.000000 0.000000 0.000000 0.000000 0.061124
#
#
# Mechanical properties :
#
#
# Convention : Reuss Voigt Hill
#
# Bulk Modulus (GPa) = 41.07773 43.53151 42.30462
# Shear Modulus (GPa) = 17.42905 18.28327 17.85616
#
# Velocity S-wave (km/s) = 3.35353 3.43472 3.39437
# Velocity P-wave (km/s) = 6.44208 6.61956 6.53142
#
# Compressibility (1/GPa) = 0.02434409
#
# Stress axis : x y z
#
# Youngs Moduli (GPa) = 40.82305 40.82305 46.90651
#
# Poissons Ratio (x) = 0.58770 0.20139
# Poissons Ratio (y) = 0.58770 0.20139
# Poissons Ratio (z) = 0.17528 0.17528
#
# Static dielectric constant tensor:
#      x y z
#    x 2.979820 0.000000 0.000000 
#    y 0.000000 2.979820 0.000000 
#    z 0.000000 0.000000 3.168910 
# 
# 
# High freq. dielectric constant tensor:
#      x y z
#    x 1.566610 0.000000 0.000000 
#    y 0.000000 1.566610 0.000000 
#    z 0.000000 0.000000 1.619730 
# 
# From -- ./inp_files/710.got.cif
#   From: 2010.03.12/outbox.cif.g09.slc.cpg/sg108_1_cif.got.tgz:710.got - 2010.04.14 01:53:11.
