data_PCOD8307022
_publ_section_title
;
Structure prediction by ZEFSAII (Michael W. Deem and Ramdas Pophale) SiO2 
 PCOD8307022
Probable space group: P 4 C C
;
_chemical_formula_sum "Si O2"
_cell_formula_units_Z 44
_cell_length_a 8.096732
_cell_length_b 8.096732
_cell_length_c 30.139138
_cell_angle_alpha 90.000000
_cell_angle_beta 90.000000
_cell_angle_gamma 90.000000
_cell_volume 1975.833552
_symmetry_space_group_name_H-M "P 4 C C"
_symmetry_group_IT_number 103
_symmetry_cell_setting 'tetragonal'
loop_
_space_group_symop_operation_xyz
x,y,z
-y,x,z
-x,-y,z
y,-x,z
-x,y,1/2+z
x,-y,1/2+z
-y,-x,1/2+z
y,x,1/2+z
loop_
_atom_site_type_symbol
_atom_site_label
_atom_site_fract_x
_atom_site_fract_y
_atom_site_fract_z
Si Si1 0.916053 0.259229 0.240440
Si Si2 0.399305 0.244530 0.157109
Si Si3 0.398647 0.751718 0.561454
Si Si4 0.259229 0.916053 0.382467
Si Si5 0.000000 0.500000 0.311454
Si Si6 0.600695 0.755470 0.965798
O O1 0.889829 0.349175 0.193512
O O2 0.105729 0.205665 0.244854
O O3 0.881714 0.387468 0.280307
O O4 0.590955 0.290119 0.162578
O O5 0.363656 0.157441 0.108595
O O6 0.290591 0.589352 0.561454
O O7 0.363656 0.842559 0.514312
O O8 0.349174 0.889829 0.429395
O O9 0.105729 0.794335 0.378053
O O10 0.387468 0.881715 0.342600
O O11 0.409045 0.709881 0.960329
#
# Coordination Sequence:
#
# PCOD8307022 Si02
#       6
#     8   8   8   8   4   8
#     4  11  24  41  61  87 119 153 190 242 308 368
#     4   9  17  33  59  90 123 161 205 247 289 345
#     4   7  12  26  52  85 120 159 202 246 288 335
#     4  11  24  41  61  87 119 153 190 242 308 368
#     4  12  24  42  64  80 104 146 196 238 292 372
#     4   9  17  33  59  90 123 161 205 247 289 345
#
# _framework density 22.269082000000001
#
# number of rings (size 3 to 8) (size 9 to 14) (size 15 to 20)
#    0.000    2.364    0.000    5.455    0.000    1.455 
#    0.000    1.818    0.000   12.000    0.000    0.000 
#    0.000    0.000    0.000    0.000    0.000    0.000 
#
# Total GULP energy -545161.208355 kJ/mol
# GULP energy per Si atom -12390.027463 kJ/mol
# Density = 2.221840 g / cm^3
# Si number density = 22.269082 Si / 1000 Ang^3
#
#
#
# Elastic Constant Matrix: (Units=GPa)
#
#
# Indices 1 2 3 4 5 6 
#
# 1 87.1750 34.5492 70.4421 0.0000 0.0000 0.0000
# 2 34.5492 87.1750 70.4421 0.0000 0.0000 0.0000
# 3 70.4421 70.4421 252.8636 0.0000 0.0000 0.0000
# 4 0.0000 0.0000 0.0000 30.3107 0.0000 0.0000
# 5 0.0000 0.0000 0.0000 0.0000 30.3107 0.0000
# 6 0.0000 0.0000 0.0000 0.0000 0.0000 29.4554
#
#
#
# Elastic Compliance Matrix: (Units=1/GPa)
#
#
# Indices 1 2 3 4 5 6 
#
# 1 0.015563 -0.003439 -0.003378 0.000000 0.000000 0.000000
# 2 -0.003439 0.015563 -0.003378 0.000000 0.000000 0.000000
# 3 -0.003378 -0.003378 0.005837 0.000000 0.000000 0.000000
# 4 0.000000 0.000000 0.000000 0.032992 0.000000 0.000000
# 5 0.000000 0.000000 0.000000 0.000000 0.032992 0.000000
# 6 0.000000 0.000000 0.000000 0.000000 0.000000 0.033950
#
#
# Mechanical properties :
#
#
# Convention : Reuss Voigt Hill
#
# Bulk Modulus (GPa) = 60.33114 86.45337 73.39225
# Shear Modulus (GPa) = 30.71080 34.80073 32.75577
#
# Velocity S-wave (km/s) = 3.71762 3.95744 3.83940
# Velocity P-wave (km/s) = 6.75117 7.73228 7.25832
#
# Compressibility (1/GPa) = 0.01657519
#
# Stress axis : x y z
#
# Youngs Moduli (GPa) = 64.25364 64.25364 171.33374
#
# Poissons Ratio (x) = 0.22095 0.57870
# Poissons Ratio (y) = 0.22095 0.57870
# Poissons Ratio (z) = 0.21702 0.21702
#
# Static dielectric constant tensor:
#      x y z
#    x 3.716480 0.000000 0.000000 
#    y 0.000000 3.716480 0.000000 
#    z 0.000000 0.000000 4.662240 
# 
# 
# High freq. dielectric constant tensor:
#      x y z
#    x 1.850370 0.000000 0.000000 
#    y 0.000000 1.850370 0.000000 
#    z 0.000000 0.000000 1.907670 
# 
# From -- ./inp_files/1527.got.cif
#   From: 2010.03.12/outbox.cif.g09.slc.cpg/sg103_cif.got.tgz:1527.got - 2010.04.14 01:42:52.
