data_PCOD8307563
_publ_section_title
;
Structure prediction by ZEFSAII (Michael W. Deem and Ramdas Pophale) SiO2 
 PCOD8307563
Probable space group: I 4 M M
;
_chemical_formula_sum "Si O2"
_cell_formula_units_Z 112
_cell_length_a 17.613993
_cell_length_b 17.613993
_cell_length_c 22.309780
_cell_angle_alpha 90.000000
_cell_angle_beta 90.000000
_cell_angle_gamma 90.000000
_cell_volume 6921.670584
_symmetry_space_group_name_H-M "I 4 M M"
_symmetry_group_IT_number 107
_symmetry_cell_setting 'tetragonal'
loop_
_space_group_symop_operation_xyz
x,y,z
-y,x,z
-x,-y,z
y,-x,z
-x,y,z
x,-y,z
-y,-x,z
y,x,z
1/2+x,1/2+y,1/2+z
1/2-y,1/2+x,1/2+z
1/2-x,1/2-y,1/2+z
1/2+y,1/2-x,1/2+z
1/2-x,1/2+y,1/2+z
1/2+x,1/2-y,1/2+z
1/2-y,1/2-x,1/2+z
1/2+y,1/2+x,1/2+z
loop_
_atom_site_type_symbol
_atom_site_label
_atom_site_fract_x
_atom_site_fract_y
_atom_site_fract_z
Si Si1 0.277998 0.085594 0.777330
Si Si2 0.813405 0.693747 0.174206
Si Si3 0.294284 0.414047 0.402078
Si Si4 0.411859 0.088683 0.588746
Si Si5 0.210532 0.911904 0.261187
Si Si6 0.913174 0.366067 0.954768
Si Si7 0.350412 0.916300 0.336996
O O1 0.267128 0.143386 0.722681
O O2 0.224706 0.107753 0.833301
O O3 0.363749 0.090149 0.802042
O O4 0.262037 0.000000 0.755269
O O5 0.750174 0.750174 0.144691
O O6 0.854249 0.638800 0.127380
O O7 0.878683 0.744634 0.204206
O O8 0.323082 0.500000 0.405340
O O9 0.361307 0.361307 0.425979
O O10 0.223857 0.401522 0.446738
O O11 0.500000 0.109640 0.601959
O O12 0.390632 0.107265 0.520556
O O13 0.397510 0.000000 0.602215
O O14 0.131506 0.868495 0.271605
O O15 0.263020 0.898271 0.319731
O O16 0.192265 0.000000 0.249648
O O17 0.858500 0.409437 0.908533
O O18 0.000000 0.388527 0.940363
O O19 0.371172 0.000000 0.314843
#
# Coordination Sequence:
#
# PCOD8307563 Si02
#       7
#    16  16  16  16  16  16  16
#     4   9  17  28  43  64  89 118 149 181 221 266
#     4  10  19  31  46  65  91 121 153 187 225 270
#     4   9  17  29  45  65  89 117 149 184 221 261
#     4  10  20  33  49  69  94 122 152 189 231 273
#     4   9  18  31  46  65  88 115 148 185 224 265
#     4   9  18  30  44  64  89 118 148 176 214 266
#     4   9  16  26  42  65  90 113 140 176 218 267
#
# _framework density 16.181066000000001
#
# number of rings (size 3 to 8) (size 9 to 14) (size 15 to 20)
#    0.000    2.714    0.000    3.000    0.000    6.571 
#    0.000    0.000    0.000    0.000    0.000    0.000 
#    0.000    6.000    0.000    0.000    0.000    2.000 
#
# Total GULP energy -694148.942474 kJ/mol
# GULP energy per Si atom -12395.516830 kJ/mol
# Density = 1.614424 g / cm^3
# Si number density = 16.181066 Si / 1000 Ang^3
#
#
#
# Elastic Constant Matrix: (Units=GPa)
#
#
# Indices 1 2 3 4 5 6 
#
# 1 80.3726 53.8949 33.9217 0.0000 0.0000 -0.0001
# 2 53.8949 80.3726 33.9217 0.0000 0.0000 0.0001
# 3 33.9217 33.9217 69.9318 0.0000 0.0000 0.0000
# 4 0.0000 0.0000 0.0000 19.6371 0.0000 0.0000
# 5 0.0000 0.0000 0.0000 0.0000 19.6371 0.0000
# 6 -0.0001 0.0001 0.0000 0.0000 0.0000 28.8286
#
#
#
# Elastic Compliance Matrix: (Units=1/GPa)
#
#
# Indices 1 2 3 4 5 6 
#
# 1 0.023817 -0.013951 -0.004786 0.000000 0.000000 0.000000
# 2 -0.013951 0.023817 -0.004786 0.000000 0.000000 0.000000
# 3 -0.004786 -0.004786 0.018942 0.000000 0.000000 0.000000
# 4 0.000000 0.000000 0.000000 0.050924 0.000000 0.000000
# 5 0.000000 0.000000 0.000000 0.000000 0.050924 0.000000
# 6 0.000000 0.000000 0.000000 0.000000 0.000000 0.034688
#
#
# Mechanical properties :
#
#
# Convention : Reuss Voigt Hill
#
# Bulk Modulus (GPa) = 51.19899 52.68374 51.94137
# Shear Modulus (GPa) = 19.48052 20.88313 20.18183
#
# Velocity S-wave (km/s) = 3.47350 3.59638 3.53547
# Velocity P-wave (km/s) = 6.91353 7.06221 6.98827
#
# Compressibility (1/GPa) = 0.01953164
#
# Stress axis : x y z
#
# Youngs Moduli (GPa) = 41.98722 41.98722 52.79166
#
# Poissons Ratio (x) = 0.58576 0.25264
# Poissons Ratio (y) = 0.58576 0.25264
# Poissons Ratio (z) = 0.20094 0.20094
#
# Static dielectric constant tensor:
#      x y z
#    x 3.008370 0.000000 0.000000 
#    y 0.000000 3.008370 0.000000 
#    z 0.000000 0.000000 2.963080 
# 
# 
# High freq. dielectric constant tensor:
#      x y z
#    x 1.616390 0.000000 0.000000 
#    y 0.000000 1.616390 0.000000 
#    z 0.000000 0.000000 1.603710 
# 
# From -- ./inp_files/4899.got.cif
#   From: 2010.03.12/outbox.cif.g09.slc.cpg/sg107_3_cif.got.tgz:4899.got - 2010.04.14 01:49:11.
