data_PCOD8307219
_publ_section_title
;
Structure prediction by ZEFSAII (Michael W. Deem and Ramdas Pophale) SiO2 
 PCOD8307219
Probable space group: P 42 M C
;
_chemical_formula_sum "Si O2"
_cell_formula_units_Z 40
_cell_length_a 8.037251
_cell_length_b 8.037251
_cell_length_c 29.079270
_cell_angle_alpha 90.000000
_cell_angle_beta 90.000000
_cell_angle_gamma 90.000000
_cell_volume 1878.445342
_symmetry_space_group_name_H-M "P 42 M C"
_symmetry_group_IT_number 105
_symmetry_cell_setting 'tetragonal'
loop_
_space_group_symop_operation_xyz
x,y,z
-y,x,1/2+z
-x,-y,z
y,-x,1/2+z
-x,y,z
x,-y,z
-y,-x,1/2+z
y,x,1/2+z
loop_
_atom_site_type_symbol
_atom_site_label
_atom_site_fract_x
_atom_site_fract_y
_atom_site_fract_z
Si Si1 0.816032 0.197881 0.289050
Si Si2 0.310227 0.803913 0.385707
Si Si3 0.307368 0.309595 0.482870
Si Si4 0.801697 0.500000 0.732756
Si Si5 0.180890 0.192404 0.075552
Si Si6 0.199102 0.500000 0.628156
O O1 0.791256 0.260190 0.341419
O O2 0.667750 0.269331 0.256973
O O3 0.000000 0.257700 0.272189
O O4 0.806071 0.000000 0.287876
O O5 0.500000 0.745788 0.378792
O O6 0.233532 0.724718 0.432084
O O7 0.297849 0.000000 0.390618
O O8 0.500000 0.257440 0.483252
O O9 0.279803 0.500000 0.496048
O O10 0.213152 0.202080 0.520900
O O11 0.738943 0.500000 0.680496
O O12 0.000000 0.500000 0.735541
O O13 0.334429 0.274739 0.103616
O O14 0.000000 0.269513 0.089675
O O15 0.177817 0.000000 0.087992
O O16 0.000000 0.500000 0.624391
#
# Coordination Sequence:
#
# PCOD8307219 Si02
#       6
#     8   8   8   4   8   4
#     4   9  16  26  43  69 100 134 174 220 272 334
#     4   9  16  28  45  66  97 132 164 207 266 323
#     4  10  20  33  51  76 104 138 179 218 264 326
#     4   9  16  28  46  69 101 139 175 223 283 330
#     4  10  20  34  52  74 104 142 180 225 282 337
#     4   9  18  32  49  71 103 141 181 229 283 340
#
# _framework density 21.294205999999999
#
# number of rings (size 3 to 8) (size 9 to 14) (size 15 to 20)
#    0.000    2.600    2.000    0.600    0.000    2.800 
#    0.000    6.000    0.000    0.000    0.000    2.800 
#    0.000    0.000    0.000    0.000    0.000    0.000 
#
# Total GULP energy -495762.126824 kJ/mol
# GULP energy per Si atom -12394.053171 kJ/mol
# Density = 2.124574 g / cm^3
# Si number density = 21.294206 Si / 1000 Ang^3
#
#
#
# Elastic Constant Matrix: (Units=GPa)
#
#
# Indices 1 2 3 4 5 6 
#
# 1 86.6552 23.4268 48.6534 0.0000 0.0000 0.0000
# 2 23.4268 86.6552 48.6534 0.0000 0.0000 0.0000
# 3 48.6534 48.6534 154.0995 0.0000 0.0000 0.0000
# 4 0.0000 0.0000 0.0000 21.9283 0.0000 0.0000
# 5 0.0000 0.0000 0.0000 0.0000 21.9283 0.0000
# 6 0.0000 0.0000 0.0000 0.0000 0.0000 9.5620
#
#
#
# Elastic Compliance Matrix: (Units=1/GPa)
#
#
# Indices 1 2 3 4 5 6 
#
# 1 0.014208 -0.001607 -0.003978 0.000000 0.000000 0.000000
# 2 -0.001607 0.014208 -0.003978 0.000000 0.000000 0.000000
# 3 -0.003978 -0.003978 0.009002 0.000000 0.000000 0.000000
# 4 0.000000 0.000000 0.000000 0.045603 0.000000 0.000000
# 5 0.000000 0.000000 0.000000 0.000000 0.045603 0.000000
# 6 0.000000 0.000000 0.000000 0.000000 0.000000 0.104581
#
#
# Mechanical properties :
#
#
# Convention : Reuss Voigt Hill
#
# Bulk Modulus (GPa) = 54.67617 63.20858 58.94237
# Shear Modulus (GPa) = 19.34759 24.46214 21.90486
#
# Velocity S-wave (km/s) = 3.01754 3.39303 3.21078
# Velocity P-wave (km/s) = 6.15411 6.71551 6.44093
#
# Compressibility (1/GPa) = 0.01828950
#
# Stress axis : x y z
#
# Youngs Moduli (GPa) = 70.38153 70.38153 111.09237
#
# Poissons Ratio (x) = 0.11313 0.44197
# Poissons Ratio (y) = 0.11313 0.44197
# Poissons Ratio (z) = 0.28001 0.28001
#
# Static dielectric constant tensor:
#      x y z
#    x 3.726070 0.000000 0.000000 
#    y 0.000000 3.726070 0.000000 
#    z 0.000000 0.000000 3.892850 
# 
# 
# High freq. dielectric constant tensor:
#      x y z
#    x 1.809160 0.000000 0.000000 
#    y 0.000000 1.809160 0.000000 
#    z 0.000000 0.000000 1.832180 
# 
# From -- ./inp_files/4304.got.cif
#   From: 2010.03.12/outbox.cif.g09.slc.cpg/sg105_3_cif.got.tgz:4304.got - 2010.04.14 01:45:32.
