data_PCOD8307538
_publ_section_title
;
Structure prediction by ZEFSAII (Michael W. Deem and Ramdas Pophale) SiO2 
 PCOD8307538
Probable space group: I 4 M M
;
_chemical_formula_sum "Si O2"
_cell_formula_units_Z 112
_cell_length_a 14.224497
_cell_length_b 14.224497
_cell_length_c 35.515731
_cell_angle_alpha 90.000000
_cell_angle_beta 90.000000
_cell_angle_gamma 90.000000
_cell_volume 7186.122132
_symmetry_space_group_name_H-M "I 4 M M"
_symmetry_group_IT_number 107
_symmetry_cell_setting 'tetragonal'
loop_
_space_group_symop_operation_xyz
x,y,z
-y,x,z
-x,-y,z
y,-x,z
-x,y,z
x,-y,z
-y,-x,z
y,x,z
1/2+x,1/2+y,1/2+z
1/2-y,1/2+x,1/2+z
1/2-x,1/2-y,1/2+z
1/2+y,1/2-x,1/2+z
1/2-x,1/2+y,1/2+z
1/2+x,1/2-y,1/2+z
1/2-y,1/2-x,1/2+z
1/2+y,1/2+x,1/2+z
loop_
_atom_site_type_symbol
_atom_site_label
_atom_site_fract_x
_atom_site_fract_y
_atom_site_fract_z
Si Si1 0.392551 0.109106 0.841690
Si Si2 0.259335 0.892242 0.189804
Si Si3 0.392552 0.890893 0.622517
Si Si4 0.764320 0.610030 0.053027
Si Si5 0.107656 0.607656 0.482104
Si Si6 0.740666 0.892242 0.274404
Si Si7 0.264321 0.889970 0.911181
O O1 0.500000 0.132834 0.852890
O O2 0.361370 0.160339 0.803460
O O3 0.325546 0.141995 0.875405
O O4 0.380121 0.000000 0.833453
O O5 0.165731 0.834270 0.181457
O O6 0.339663 0.861372 0.160748
O O7 0.297525 0.873776 0.232104
O O8 0.230879 0.000000 0.184128
O O9 0.500000 0.867165 0.611316
O O10 0.325545 0.858004 0.588803
O O11 0.380122 0.000000 0.630752
O O12 0.738857 0.500000 0.054779
O O13 0.667498 0.667498 0.052111
O O14 0.825335 0.634291 0.016468
O O15 0.122878 0.500000 0.494982
O O16 0.174664 0.634290 0.447739
O O17 0.000000 0.622878 0.469226
O O18 0.834272 0.834272 0.282750
O O19 0.769120 0.000000 0.280080
O O20 0.167500 0.832501 0.912097
O O21 0.238857 0.000000 0.909429
#
# Coordination Sequence:
#
# PCOD8307538 Si02
#       7
#    16  16  16  16  16  16  16
#     4   9  17  29  45  64  84 107 138 176 215 249
#     4   9  17  28  42  61  85 112 140 170 205 247
#     4   9  17  29  45  64  84 107 138 176 215 249
#     4  10  19  30  45  64  87 114 141 170 205 246
#     4   9  17  30  48  68  87 107 136 174 212 247
#     4   9  17  28  42  61  85 112 140 170 205 247
#     4  10  19  30  45  64  87 114 141 170 205 246
#
# _framework density 15.585597
#
# number of rings (size 3 to 8) (size 9 to 14) (size 15 to 20)
#    0.000    2.714    0.000    2.143    0.000    4.571 
#    0.000    4.286    0.000    0.000    0.000    0.000 
#    0.000   20.571    0.000   26.571    0.000    0.571 
#
# Total GULP energy -694376.023124 kJ/mol
# GULP energy per Si atom -12399.571842 kJ/mol
# Density = 1.555012 g / cm^3
# Si number density = 15.585597 Si / 1000 Ang^3
#
#
#
# Elastic Constant Matrix: (Units=GPa)
#
#
# Indices 1 2 3 4 5 6 
#
# 1 73.2774 53.3791 62.6331 0.0000 0.0000 0.0002
# 2 53.3791 73.2774 62.6331 0.0000 0.0000 -0.0002
# 3 62.6331 62.6331 125.0283 0.0000 0.0000 0.0000
# 4 0.0000 0.0000 0.0000 23.5898 0.0000 0.0000
# 5 0.0000 0.0000 0.0000 0.0000 23.5898 0.0000
# 6 0.0002 -0.0002 0.0000 0.0000 0.0000 29.2790
#
#
#
# Elastic Compliance Matrix: (Units=1/GPa)
#
#
# Indices 1 2 3 4 5 6 
#
# 1 0.032952 -0.017304 -0.007839 0.000000 0.000000 0.000000
# 2 -0.017304 0.032952 -0.007839 0.000000 0.000000 0.000000
# 3 -0.007839 -0.007839 0.015852 0.000000 0.000000 0.000000
# 4 0.000000 0.000000 0.000000 0.042391 0.000000 0.000000
# 5 0.000000 0.000000 0.000000 0.000000 0.042391 0.000000
# 6 0.000000 0.000000 0.000000 0.000000 0.000000 0.034154
#
#
# Mechanical properties :
#
#
# Convention : Reuss Voigt Hill
#
# Bulk Modulus (GPa) = 63.32059 69.87485 66.59772
# Shear Modulus (GPa) = 18.38770 21.48756 19.93763
#
# Velocity S-wave (km/s) = 3.43853 3.71709 3.58052
# Velocity P-wave (km/s) = 7.51535 7.95944 7.74058
#
# Compressibility (1/GPa) = 0.01579265
#
# Stress axis : x y z
#
# Youngs Moduli (GPa) = 30.34709 30.34709 63.08269
#
# Poissons Ratio (x) = 0.52512 0.49451
# Poissons Ratio (y) = 0.52512 0.49451
# Poissons Ratio (z) = 0.23789 0.23789
#
# Static dielectric constant tensor:
#      x y z
#    x 2.878130 0.000000 0.000000 
#    y 0.000000 2.878130 0.000000 
#    z 0.000000 0.000000 3.146950 
# 
# 
# High freq. dielectric constant tensor:
#      x y z
#    x 1.588730 0.000000 0.000000 
#    y 0.000000 1.588730 0.000000 
#    z 0.000000 0.000000 1.610240 
# 
# From -- ./inp_files/6153.got.cif
#   From: 2010.03.12/outbox.cif.g09.slc.cpg/sg107_4_cif.got.tgz:6153.got - 2010.04.14 01:49:11.
