data_PCOD8307352
_publ_section_title
;
Structure prediction by ZEFSAII (Michael W. Deem and Ramdas Pophale) SiO2 
 PCOD8307352
Probable space group: P 42 M C
;
_chemical_formula_sum "Si O2"
_cell_formula_units_Z 48
_cell_length_a 8.116887
_cell_length_b 8.116887
_cell_length_c 34.259882
_cell_angle_alpha 90.000000
_cell_angle_beta 90.000000
_cell_angle_gamma 90.000000
_cell_volume 2257.173083
_symmetry_space_group_name_H-M "P 42 M C"
_symmetry_group_IT_number 105
_symmetry_cell_setting 'tetragonal'
loop_
_space_group_symop_operation_xyz
x,y,z
-y,x,1/2+z
-x,-y,z
y,-x,1/2+z
-x,y,z
x,-y,z
-y,-x,1/2+z
y,x,1/2+z
loop_
_atom_site_type_symbol
_atom_site_label
_atom_site_fract_x
_atom_site_fract_y
_atom_site_fract_z
Si Si1 0.186799 0.000000 0.028960
Si Si2 0.000000 0.310334 0.613523
Si Si3 0.819729 0.693338 0.900454
Si Si4 0.305846 0.816438 0.739647
Si Si5 0.689010 0.688187 0.482163
Si Si6 0.685996 0.305375 0.820314
Si Si7 0.684731 0.310409 0.657540
O O1 0.215680 0.169646 0.005427
O O2 0.299584 0.000000 0.067046
O O3 0.000000 0.000000 0.043079
O O4 0.170138 0.229639 0.630738
O O5 0.000000 0.500000 0.626585
O O6 0.822779 0.500000 0.893570
O O7 0.766957 0.773892 0.859206
O O8 0.000000 0.760457 0.911927
O O9 0.698903 0.735062 0.936288
O O10 0.500000 0.805993 0.745244
O O11 0.224706 0.754312 0.780333
O O12 0.256327 0.706570 0.702467
O O13 0.243926 0.000000 0.730964
O O14 0.500000 0.756368 0.489481
O O15 0.696277 0.500000 0.495439
O O16 0.500000 0.241907 0.820938
O O17 0.696224 0.500000 0.821274
O O18 0.500000 0.229153 0.651082
O O19 0.667476 0.500000 0.646578
#
# Coordination Sequence:
#
# PCOD8307352 Si02
#       7
#     4   4   8   8   8   8   8
#     4  12  26  42  62  92 128 160 194 242 308 374
#     4  10  22  40  60  86 116 146 192 244 286 352
#     4   9  17  31  52  79 111 146 187 237 292 348
#     4   9  17  30  49  74 105 141 183 230 282 339
#     4  10  21  40  66  91 117 156 205 252 300 358
#     4   9  16  28  48  72 101 141 187 233 279 333
#     4   9  18  35  59  83 108 144 188 236 290 343
#
# _framework density 21.265540000000001
#
# number of rings (size 3 to 8) (size 9 to 14) (size 15 to 20)
#    0.000    2.500    0.000    2.250    0.000    6.333 
#    3.000    1.667    0.000    0.000    0.000    0.000 
#    0.000    0.000    0.000    0.000    0.000    0.000 
#
# Total GULP energy -594671.895358 kJ/mol
# GULP energy per Si atom -12388.997820 kJ/mol
# Density = 2.121714 g / cm^3
# Si number density = 21.265540 Si / 1000 Ang^3
#
#
#
# Elastic Constant Matrix: (Units=GPa)
#
#
# Indices 1 2 3 4 5 6 
#
# 1 67.6636 23.3966 33.4097 0.0000 0.0000 0.0000
# 2 23.3966 67.6636 33.4097 0.0000 0.0000 0.0000
# 3 33.4097 33.4097 138.0241 0.0000 0.0000 0.0000
# 4 0.0000 0.0000 0.0000 12.5516 0.0000 0.0000
# 5 0.0000 0.0000 0.0000 0.0000 12.5516 0.0000
# 6 0.0000 0.0000 0.0000 0.0000 0.0000 13.0931
#
#
#
# Elastic Compliance Matrix: (Units=1/GPa)
#
#
# Indices 1 2 3 4 5 6 
#
# 1 0.017972 -0.004618 -0.003232 0.000000 0.000000 0.000000
# 2 -0.004618 0.017972 -0.003232 0.000000 0.000000 0.000000
# 3 -0.003232 -0.003232 0.008810 0.000000 0.000000 0.000000
# 4 0.000000 0.000000 0.000000 0.079671 0.000000 0.000000
# 5 0.000000 0.000000 0.000000 0.000000 0.079671 0.000000
# 6 0.000000 0.000000 0.000000 0.000000 0.000000 0.076376
#
#
# Mechanical properties :
#
#
# Convention : Reuss Voigt Hill
#
# Bulk Modulus (GPa) = 44.27168 50.42038 47.34603
# Shear Modulus (GPa) = 16.12036 19.84829 17.98432
#
# Velocity S-wave (km/s) = 2.75626 3.05840 2.91125
# Velocity P-wave (km/s) = 5.56713 6.01939 5.79768
#
# Compressibility (1/GPa) = 0.02258780
#
# Stress axis : x y z
#
# Youngs Moduli (GPa) = 55.64240 55.64240 113.50824
#
# Poissons Ratio (x) = 0.25697 0.36690
# Poissons Ratio (y) = 0.25697 0.36690
# Poissons Ratio (z) = 0.17985 0.17985
#
# Static dielectric constant tensor:
#      x y z
#    x 3.768110 0.000000 0.000000 
#    y 0.000000 3.768110 0.000000 
#    z 0.000000 0.000000 3.914290 
# 
# 
# High freq. dielectric constant tensor:
#      x y z
#    x 1.811040 0.000000 0.000000 
#    y 0.000000 1.811040 0.000000 
#    z 0.000000 0.000000 1.838310 
# 
# From -- ./inp_files/4842.got.cif
#   From: 2010.03.12/outbox.cif.g09.slc.cpg/sg105_3_cif.got.tgz:4842.got - 2010.04.14 01:45:32.
