data_PCOD8307295
_publ_section_title
;
Structure prediction by ZEFSAII (Michael W. Deem and Ramdas Pophale) SiO2 
 PCOD8307295
Probable space group: P 42 M C
;
_chemical_formula_sum "Si O2"
_cell_formula_units_Z 34
_cell_length_a 16.258355
_cell_length_b 16.258355
_cell_length_c 7.371136
_cell_angle_alpha 90.000000
_cell_angle_beta 90.000000
_cell_angle_gamma 90.000000
_cell_volume 1948.442654
_symmetry_space_group_name_H-M "P 42 M C"
_symmetry_group_IT_number 105
_symmetry_cell_setting 'tetragonal'
loop_
_space_group_symop_operation_xyz
x,y,z
-y,x,1/2+z
-x,-y,z
y,-x,1/2+z
-x,y,z
x,-y,z
-y,-x,1/2+z
y,x,1/2+z
loop_
_atom_site_type_symbol
_atom_site_label
_atom_site_fract_x
_atom_site_fract_y
_atom_site_fract_z
Si Si1 0.000000 0.000000 0.796520
Si Si2 0.000000 0.826204 0.261461
Si Si3 0.902903 0.596177 0.546520
Si Si4 0.173796 0.000000 0.331580
Si Si5 0.715757 0.846413 0.755339
Si Si6 0.715757 0.846413 0.337701
O O1 0.000000 0.091096 0.705337
O O2 0.908904 0.000000 0.887704
O O3 0.919290 0.776300 0.315348
O O4 0.000000 0.849999 0.046520
O O5 0.886031 0.500000 0.546521
O O6 0.857728 0.632967 0.369929
O O7 0.857728 0.632967 0.723111
O O8 0.000000 0.615897 0.546518
O O9 0.223700 0.919290 0.277692
O O10 0.690381 0.853143 0.546520
O O11 0.759347 0.759347 0.796520
#
# Coordination Sequence:
#
# PCOD8307295 Si02
#       6
#     2   4   8   4   8   8
#     4  12  18  28  44  70 112 158 196 238 274 312
#     4  10  21  30  42  73 109 147 196 237 272 314
#     4  11  24  40  58  82 117 158 199 243 294 349
#     4  10  21  30  42  73 109 147 196 237 272 314
#     4  11  21  36  57  80 111 151 196 243 288 339
#     4  11  21  36  57  80 111 151 196 243 288 339
#
# _framework density 17.449833999999999
#
# number of rings (size 3 to 8) (size 9 to 14) (size 15 to 20)
#    0.000    1.176    7.059    0.353    0.000    0.941 
#    4.235    2.353    0.000    0.000    0.000    0.000 
#    0.000    2.824    0.000    0.000    0.000    0.000 
#
# Total GULP energy -421250.916962 kJ/mol
# GULP energy per Si atom -12389.732852 kJ/mol
# Density = 1.741012 g / cm^3
# Si number density = 17.449834 Si / 1000 Ang^3
#
#
#
# Elastic Constant Matrix: (Units=GPa)
#
#
# Indices 1 2 3 4 5 6 
#
# 1 112.9182 43.0577 46.7571 0.0000 0.0000 0.0000
# 2 43.0577 112.9182 46.7571 0.0000 0.0000 0.0000
# 3 46.7571 46.7571 111.4405 0.0000 0.0000 0.0000
# 4 0.0000 0.0000 0.0000 15.0643 0.0000 0.0000
# 5 0.0000 0.0000 0.0000 0.0000 15.0643 0.0000
# 6 0.0000 0.0000 0.0000 0.0000 0.0000 18.9881
#
#
#
# Elastic Compliance Matrix: (Units=1/GPa)
#
#
# Indices 1 2 3 4 5 6 
#
# 1 0.011440 -0.002874 -0.003594 0.000000 0.000000 0.000000
# 2 -0.002874 0.011440 -0.003594 0.000000 0.000000 0.000000
# 3 -0.003594 -0.003594 0.011989 0.000000 0.000000 0.000000
# 4 0.000000 0.000000 0.000000 0.066382 0.000000 0.000000
# 5 0.000000 0.000000 0.000000 0.000000 0.066382 0.000000
# 6 0.000000 0.000000 0.000000 0.000000 0.000000 0.052665
#
#
# Mechanical properties :
#
#
# Convention : Reuss Voigt Hill
#
# Bulk Modulus (GPa) = 67.81882 67.82454 67.82168
# Shear Modulus (GPa) = 20.38003 23.20365 21.79184
#
# Velocity S-wave (km/s) = 3.42119 3.65051 3.53771
# Velocity P-wave (km/s) = 7.38617 7.53133 7.45910
#
# Compressibility (1/GPa) = 0.01474517
#
# Stress axis : x y z
#
# Youngs Moduli (GPa) = 87.41150 87.41150 83.40759
#
# Poissons Ratio (x) = 0.25123 0.29977
# Poissons Ratio (y) = 0.25123 0.29977
# Poissons Ratio (z) = 0.31416 0.31416
#
# Static dielectric constant tensor:
#      x y z
#    x 3.059920 0.000000 0.000000 
#    y 0.000000 3.059920 0.000000 
#    z 0.000000 0.000000 3.218010 
# 
# 
# High freq. dielectric constant tensor:
#      x y z
#    x 1.648010 0.000000 0.000000 
#    y 0.000000 1.648010 0.000000 
#    z 0.000000 0.000000 1.684920 
# 
# From -- ./inp_files/765.got.cif
#   From: 2010.03.12/outbox.cif.g09.slc.cpg/sg105_1_cif.got.tgz:765.got - 2010.04.14 01:45:32.
