data_PCOD8307139
_publ_section_title
;
Structure prediction by ZEFSAII (Michael W. Deem and Ramdas Pophale) SiO2 
 PCOD8307139
Probable space group: P 42 M C
;
_chemical_formula_sum "Si O2"
_cell_formula_units_Z 32
_cell_length_a 18.993522
_cell_length_b 18.993522
_cell_length_c 5.329803
_cell_angle_alpha 90.000000
_cell_angle_beta 90.000000
_cell_angle_gamma 90.000000
_cell_volume 1922.747101
_symmetry_space_group_name_H-M "P 42 M C"
_symmetry_group_IT_number 105
_symmetry_cell_setting 'tetragonal'
loop_
_space_group_symop_operation_xyz
x,y,z
-y,x,1/2+z
-x,-y,z
y,-x,1/2+z
-x,y,z
x,-y,z
-y,-x,1/2+z
y,x,1/2+z
loop_
_atom_site_type_symbol
_atom_site_label
_atom_site_fract_x
_atom_site_fract_y
_atom_site_fract_z
Si Si1 0.083360 0.421253 0.768730
Si Si2 0.128637 0.922985 0.268730
Si Si3 0.195700 0.225510 0.268730
Si Si4 0.083175 0.659717 0.268730
O O1 0.115368 0.500000 0.768730
O O2 0.108543 0.382182 0.516065
O O3 0.000000 0.425660 0.768731
O O4 0.108543 0.382182 0.021394
O O5 0.081273 0.918727 0.518730
O O6 0.185293 0.859632 0.268730
O O7 0.166666 0.000000 0.268730
O O8 0.241791 0.241791 0.518730
O O9 0.121091 0.264916 0.268730
O O10 0.000000 0.673477 0.268729
#
# Coordination Sequence:
#
# PCOD8307139 Si02
#       4
#     8   8   8   8
#     4   9  17  30  49  71  90 106 128 167 230 304
#     4  10  21  34  45  56  71  97 139 191 238 271
#     4  10  21  33  45  60  82 113 149 186 224 265
#     4  10  19  31  47  66  88 113 142 182 235 288
#
# _framework density 16.642855999999998
#
# number of rings (size 3 to 8) (size 9 to 14) (size 15 to 20)
#    0.000    2.250    0.000    3.000    0.000   12.500 
#    0.000    2.500    0.000    0.000    0.000    0.000 
#    0.000    0.000    0.000    0.000    0.000    0.000 
#
# Total GULP energy -396469.224052 kJ/mol
# GULP energy per Si atom -12389.663252 kJ/mol
# Density = 1.660498 g / cm^3
# Si number density = 16.642856 Si / 1000 Ang^3
#
#
#
# Elastic Constant Matrix: (Units=GPa)
#
#
# Indices 1 2 3 4 5 6 
#
# 1 52.7944 8.2845 27.8006 0.0000 0.0000 0.0000
# 2 8.2845 52.7944 27.8006 0.0000 0.0000 0.0000
# 3 27.8006 27.8006 195.4031 0.0000 0.0000 0.0000
# 4 0.0000 0.0000 0.0000 15.5070 0.0000 0.0000
# 5 0.0000 0.0000 0.0000 0.0000 15.5070 0.0000
# 6 0.0000 0.0000 0.0000 0.0000 0.0000 7.9920
#
#
#
# Elastic Compliance Matrix: (Units=1/GPa)
#
#
# Indices 1 2 3 4 5 6 
#
# 1 0.020638 -0.001829 -0.002676 0.000000 0.000000 0.000000
# 2 -0.001829 0.020638 -0.002676 0.000000 0.000000 0.000000
# 3 -0.002676 -0.002676 0.005879 0.000000 0.000000 0.000000
# 4 0.000000 0.000000 0.000000 0.064487 0.000000 0.000000
# 5 0.000000 0.000000 0.000000 0.000000 0.064487 0.000000
# 6 0.000000 0.000000 0.000000 0.000000 0.000000 0.125125
#
#
# Mechanical properties :
#
#
# Convention : Reuss Voigt Hill
#
# Bulk Modulus (GPa) = 30.49540 47.64038 39.06789
# Shear Modulus (GPa) = 15.31178 23.60829 19.46003
#
# Velocity S-wave (km/s) = 3.03648 3.77042 3.42317
# Velocity P-wave (km/s) = 5.53686 6.90232 6.25695
#
# Compressibility (1/GPa) = 0.03279183
#
# Stress axis : x y z
#
# Youngs Moduli (GPa) = 48.45538 48.45538 170.09565
#
# Poissons Ratio (x) = 0.08864 0.45516
# Poissons Ratio (y) = 0.08864 0.45516
# Poissons Ratio (z) = 0.12966 0.12966
#
# Static dielectric constant tensor:
#      x y z
#    x 2.763000 0.000000 0.000000 
#    y 0.000000 2.763000 0.000000 
#    z 0.000000 0.000000 4.521270 
# 
# 
# High freq. dielectric constant tensor:
#      x y z
#    x 1.584110 0.000000 0.000000 
#    y 0.000000 1.584110 0.000000 
#    z 0.000000 0.000000 1.690010 
# 
# From -- ./inp_files/166.got.cif
#   From: 2010.03.12/outbox.cif.g09.slc.cpg/sg105_1_cif.got.tgz:166.got - 2010.04.14 01:45:32.
