data_PCOD8307647
_publ_section_title
;
Structure prediction by ZEFSAII (Michael W. Deem and Ramdas Pophale) SiO2 
 PCOD8307647
Probable space group: I 4 M M
;
_chemical_formula_sum "Si O2"
_cell_formula_units_Z 128
_cell_length_a 23.682093
_cell_length_b 23.682093
_cell_length_c 12.636564
_cell_angle_alpha 90.000000
_cell_angle_beta 90.000000
_cell_angle_gamma 90.000000
_cell_volume 7087.109873
_symmetry_space_group_name_H-M "I 4 M M"
_symmetry_group_IT_number 107
_symmetry_cell_setting 'tetragonal'
loop_
_space_group_symop_operation_xyz
x,y,z
-y,x,z
-x,-y,z
y,-x,z
-x,y,z
x,-y,z
-y,-x,z
y,x,z
1/2+x,1/2+y,1/2+z
1/2-y,1/2+x,1/2+z
1/2-x,1/2-y,1/2+z
1/2+y,1/2-x,1/2+z
1/2-x,1/2+y,1/2+z
1/2+x,1/2-y,1/2+z
1/2-y,1/2-x,1/2+z
1/2+y,1/2+x,1/2+z
loop_
_atom_site_type_symbol
_atom_site_label
_atom_site_fract_x
_atom_site_fract_y
_atom_site_fract_z
Si Si1 0.436131 0.343752 0.299220
Si Si2 0.744811 0.436631 0.879370
Si Si3 0.297081 0.609857 0.089214
Si Si4 0.064472 0.235213 0.991721
Si Si5 0.633094 0.934630 0.473195
Si Si6 0.864920 0.323604 0.662162
Si Si7 0.236061 0.142440 0.185699
Si Si8 0.655497 0.935478 0.866945
O O1 0.500000 0.363128 0.315296
O O2 0.399328 0.399328 0.308517
O O3 0.430272 0.314285 0.185664
O O4 0.417317 0.299726 0.388524
O O5 0.734557 0.500000 0.836962
O O6 0.810571 0.427695 0.904342
O O7 0.724100 0.392255 0.792357
O O8 0.708356 0.428586 0.985462
O O9 0.342664 0.657337 0.066686
O O10 0.238721 0.640956 0.114877
O O11 0.071634 0.301334 0.964801
O O12 0.000000 0.222231 0.024607
O O13 0.105023 0.216531 0.086481
O O14 0.637576 0.902082 0.584405
O O15 0.582674 0.906615 0.405925
O O16 0.618731 0.000000 0.495082
O O17 0.802165 0.346235 0.676325
O O18 0.896121 0.322232 0.773720
O O19 0.200238 0.200238 0.188841
O O20 0.653646 0.000000 0.827137
#
# Coordination Sequence:
#
# PCOD8307647 Si02
#       8
#    16  16  16  16  16  16  16  16
#     4  10  20  35  57  84 113 145 185 231 280 339
#     4  10  21  37  57  78 112 154 189 230 277 331
#     4  10  20  35  56  83 112 146 190 232 279 341
#     4  10  21  38  58  80 112 153 190 229 276 334
#     4  10  21  38  58  80 109 147 192 239 280 327
#     4  11  21  37  54  84 115 146 182 233 293 343
#     4  12  23  36  57  85 118 148 183 232 286 339
#     4  11  21  37  59  81 111 149 191 236 277 329
#
# _framework density 18.060957999999999
#
# number of rings (size 3 to 8) (size 9 to 14) (size 15 to 20)
#    0.000    1.500    3.750    2.250    0.000    1.375 
#    0.000    1.875    0.000    1.500    0.000    0.000 
#    0.000   10.250    0.000    0.000    0.000    0.000 
#
# Total GULP energy -793765.608900 kJ/mol
# GULP energy per Si atom -12402.587639 kJ/mol
# Density = 1.801985 g / cm^3
# Si number density = 18.060958 Si / 1000 Ang^3
#
#
#
# Elastic Constant Matrix: (Units=GPa)
#
#
# Indices 1 2 3 4 5 6 
#
# 1 85.2554 34.5176 50.0422 0.0000 0.0000 -0.0009
# 2 34.5176 85.2554 50.0422 0.0000 0.0000 0.0009
# 3 50.0422 50.0422 92.5382 0.0000 0.0000 0.0000
# 4 0.0000 0.0000 0.0000 27.7902 0.0000 0.0000
# 5 0.0000 0.0000 0.0000 0.0000 27.7902 0.0000
# 6 -0.0009 0.0009 0.0000 0.0000 0.0000 19.7522
#
#
#
# Elastic Compliance Matrix: (Units=1/GPa)
#
#
# Indices 1 2 3 4 5 6 
#
# 1 0.017471 -0.002238 -0.008237 0.000000 0.000000 0.000001
# 2 -0.002238 0.017471 -0.008237 0.000000 0.000000 -0.000001
# 3 -0.008237 -0.008237 0.019715 0.000000 0.000000 0.000000
# 4 0.000000 0.000000 0.000000 0.035984 0.000000 0.000000
# 5 0.000000 0.000000 0.000000 0.000000 0.035984 0.000000
# 6 0.000001 -0.000001 0.000000 0.000000 0.000000 0.050627
#
#
# Mechanical properties :
#
#
# Convention : Reuss Voigt Hill
#
# Bulk Modulus (GPa) = 58.03496 59.13922 58.58709
# Shear Modulus (GPa) = 22.68383 23.62964 23.15673
#
# Velocity S-wave (km/s) = 3.54780 3.62100 3.58459
# Velocity P-wave (km/s) = 6.99893 7.09208 7.04566
#
# Compressibility (1/GPa) = 0.01723099
#
# Stress axis : x y z
#
# Youngs Moduli (GPa) = 57.23857 57.23857 50.72206
#
# Poissons Ratio (x) = 0.12813 0.41781
# Poissons Ratio (y) = 0.12813 0.41781
# Poissons Ratio (z) = 0.47149 0.47149
#
# Static dielectric constant tensor:
#      x y z
#    x 3.248690 0.000000 0.000000 
#    y 0.000000 3.248690 0.000000 
#    z 0.000000 0.000000 3.363350 
# 
# 
# High freq. dielectric constant tensor:
#      x y z
#    x 1.695050 0.000000 0.000000 
#    y 0.000000 1.695050 0.000000 
#    z 0.000000 0.000000 1.706850 
# 
# From -- ./inp_files/2644.got.cif
#   From: 2010.03.12/outbox.cif.g09.slc.cpg/sg107_2_cif.got.tgz:2644.got - 2010.04.14 01:49:11.
