data_PCOD8307991
_publ_section_title
;
Structure prediction by ZEFSAII (Michael W. Deem and Ramdas Pophale) SiO2 
 PCOD8307991
Probable space group: I 41 M D
;
_chemical_formula_sum "Si O2"
_cell_formula_units_Z 64
_cell_length_a 9.498930
_cell_length_b 9.498930
_cell_length_c 41.558230
_cell_angle_alpha 90.000000
_cell_angle_beta 90.000000
_cell_angle_gamma 90.000000
_cell_volume 3749.785426
_symmetry_space_group_name_H-M "I 41 M D"
_symmetry_group_IT_number 109
_symmetry_cell_setting 'tetragonal'
loop_
_space_group_symop_operation_xyz
x,y,z
-y,1/2+x,1/4+z
-x,-y,z
y,1/2-x,1/4+z
-x,y,z
x,-y,z
-y,1/2-x,1/4+z
y,1/2+x,1/4+z
1/2+x,1/2+y,1/2+z
1/2-y,x,3/4+z
1/2-x,1/2-y,1/2+z
1/2+y,-x,3/4+z
1/2-x,1/2+y,1/2+z
1/2+x,1/2-y,1/2+z
1/2-y,-x,3/4+z
1/2+y,x,3/4+z
loop_
_atom_site_type_symbol
_atom_site_label
_atom_site_fract_x
_atom_site_fract_y
_atom_site_fract_z
Si Si1 0.667783 0.340986 0.922420
Si Si2 0.657478 0.332863 0.542771
Si Si3 0.663136 0.664728 0.733207
Si Si4 0.332437 0.158513 0.863878
O O1 0.500000 0.340950 0.921575
O O2 0.726516 0.500000 0.923963
O O3 0.721058 0.253991 0.953281
O O4 0.728962 0.265790 0.890404
O O5 0.500000 0.278546 0.535405
O O6 0.660383 0.500000 0.542749
O O7 0.761330 0.275986 0.515261
O O8 0.705373 0.279835 0.578265
O O9 0.500000 0.702544 0.726692
O O10 0.683283 0.500000 0.738457
O O11 0.500000 0.160604 0.865124
O O12 0.279788 0.000000 0.871481
#
# Coordination Sequence:
#
# PCOD8307991 Si02
#       4
#    16  16  16  16
#     4   9  16  24  35  54  81 111 139 166 200 243
#     4   8  14  24  38  57  80 106 136 169 205 243
#     4   9  16  25  38  57  81 108 137 168 202 241
#     4   8  13  22  36  54  78 106 134 167 207 245
#
# _framework density 17.067643
#
# number of rings (size 3 to 8) (size 9 to 14) (size 15 to 20)
#    0.000    3.500    0.000    2.250    0.000    4.000 
#    0.000    5.000    0.000    0.750    0.000    1.750 
#    0.000    2.000    0.000    0.000    0.000    0.000 
#
# Total GULP energy -396554.574163 kJ/mol
# GULP energy per Si atom -12392.330443 kJ/mol
# Density = 1.702880 g / cm^3
# Si number density = 17.067643 Si / 1000 Ang^3
#
#
#
# Elastic Constant Matrix: (Units=GPa)
#
#
# Indices 1 2 3 4 5 6 
#
# 1 53.7856 23.3783 61.1539 0.0000 0.0000 0.0000
# 2 23.3783 53.7856 61.1539 0.0000 0.0000 0.0000
# 3 61.1539 61.1539 190.1655 0.0000 0.0000 0.0000
# 4 0.0000 0.0000 0.0000 18.4378 0.0000 0.0000
# 5 0.0000 0.0000 0.0000 0.0000 18.4377 0.0000
# 6 0.0000 0.0000 0.0000 0.0000 0.0000 5.0360
#
#
#
# Elastic Compliance Matrix: (Units=1/GPa)
#
#
# Indices 1 2 3 4 5 6 
#
# 1 0.029660 -0.003227 -0.008500 0.000000 0.000000 0.000000
# 2 -0.003227 0.029660 -0.008500 0.000000 0.000000 0.000000
# 3 -0.008500 -0.008500 0.010726 0.000000 0.000000 0.000000
# 4 0.000000 0.000000 0.000000 0.054237 0.000000 0.000000
# 5 0.000000 0.000000 0.000000 0.000000 0.054237 0.000000
# 6 0.000000 0.000000 0.000000 0.000000 0.000000 0.198571
#
#
# Mechanical properties :
#
#
# Convention : Reuss Voigt Hill
#
# Bulk Modulus (GPa) = 33.79525 65.45657 49.62591
# Shear Modulus (GPa) = 11.69843 18.51900 15.10871
#
# Velocity S-wave (km/s) = 2.62088 3.29756 2.97850
# Velocity P-wave (km/s) = 5.38539 7.27551 6.40061
#
# Compressibility (1/GPa) = 0.02958996
#
# Stress axis : x y z
#
# Youngs Moduli (GPa) = 33.71562 33.71563 93.23409
#
# Poissons Ratio (x) = 0.10880 0.79252
# Poissons Ratio (y) = 0.10880 0.79252
# Poissons Ratio (z) = 0.28659 0.28659
#
# Static dielectric constant tensor:
#      x y z
#    x 2.891390 0.000000 0.000000 
#    y 0.000000 2.891390 0.000000 
#    z 0.000000 0.000000 3.667440 
# 
# 
# High freq. dielectric constant tensor:
#      x y z
#    x 1.611860 0.000000 0.000000 
#    y 0.000000 1.611860 0.000000 
#    z 0.000000 0.000000 1.678490 
# 
# From -- ./inp_files/5330.got.cif
#   From: 2010.03.12/outbox.cif.g09.slc.cpg/sg109_3_cif.got.tgz:5330.got - 2010.04.14 01:55:16.
