data_PCOD8307151
_publ_section_title
;
Structure prediction by ZEFSAII (Michael W. Deem and Ramdas Pophale) SiO2 
 PCOD8307151
Probable space group: P 42 M C
;
_chemical_formula_sum "Si O2"
_cell_formula_units_Z 40
_cell_length_a 8.148907
_cell_length_b 8.148907
_cell_length_c 28.789178
_cell_angle_alpha 90.000000
_cell_angle_beta 90.000000
_cell_angle_gamma 90.000000
_cell_volume 1911.736305
_symmetry_space_group_name_H-M "P 42 M C"
_symmetry_group_IT_number 105
_symmetry_cell_setting 'tetragonal'
loop_
_space_group_symop_operation_xyz
x,y,z
-y,x,1/2+z
-x,-y,z
y,-x,1/2+z
-x,y,z
x,-y,z
-y,-x,1/2+z
y,x,1/2+z
loop_
_atom_site_type_symbol
_atom_site_label
_atom_site_fract_x
_atom_site_fract_y
_atom_site_fract_z
Si Si1 0.316356 0.806859 0.563470
Si Si2 0.188268 0.804158 0.261327
Si Si3 0.806670 0.819870 0.158713
Si Si4 0.689779 0.178092 0.971465
Si Si5 0.500000 0.185211 0.420959
Si Si6 0.310370 0.500000 0.819534
O O1 0.500000 0.760240 0.548974
O O2 0.285273 0.737205 0.615553
O O3 0.198090 0.724779 0.526128
O O4 0.286719 0.000000 0.562237
O O5 0.231088 0.740792 0.209132
O O6 0.329839 0.728141 0.293192
O O7 0.000000 0.750052 0.275300
O O8 0.197985 0.000000 0.263129
O O9 0.000000 0.836044 0.153743
O O10 0.725935 0.000000 0.155770
O O11 0.500000 0.166460 0.963079
O O12 0.747097 0.331027 0.941253
O O13 0.767021 0.000000 0.956183
O O14 0.500000 0.204307 0.365925
O O15 0.500000 0.000000 0.436305
O O16 0.500000 0.500000 0.833005
#
# Coordination Sequence:
#
# PCOD8307151 Si02
#       6
#     8   8   8   8   4   4
#     4  10  19  32  55  88 124 165 209 253 304 366
#     4   9  19  39  65  91 123 165 213 264 313 368
#     4   8  15  30  54  84 119 161 209 257 304 358
#     4  11  24  42  64  91 126 163 200 252 318 380
#     4  12  26  46  70  92 118 158 210 262 314 371
#     4  12  26  42  64  94 128 164 202 258 322 385
#
# _framework density 20.923389
#
# number of rings (size 3 to 8) (size 9 to 14) (size 15 to 20)
#    0.000    2.000    1.000    4.200    0.000    4.400 
#    1.800    2.000    0.000    0.000    0.000    0.000 
#    0.000    0.000    0.000    0.000    0.000    0.000 
#
# Total GULP energy -495596.384982 kJ/mol
# GULP energy per Si atom -12389.909625 kJ/mol
# Density = 2.087577 g / cm^3
# Si number density = 20.923389 Si / 1000 Ang^3
#
#
#
# Elastic Constant Matrix: (Units=GPa)
#
#
# Indices 1 2 3 4 5 6 
#
# 1 98.6589 41.4371 39.0044 0.0000 0.0000 0.0000
# 2 41.4371 98.6589 39.0044 0.0000 0.0000 0.0000
# 3 39.0044 39.0044 120.2367 0.0000 0.0000 0.0000
# 4 0.0000 0.0000 0.0000 3.4552 0.0000 0.0000
# 5 0.0000 0.0000 0.0000 0.0000 3.4552 0.0000
# 6 0.0000 0.0000 0.0000 0.0000 0.0000 -502.2889
#
#
#
# Elastic Compliance Matrix: (Units=1/GPa)
#
#
# Indices 1 2 3 4 5 6 
#
# 1 0.013094 -0.004382 -0.002826 0.000000 0.000000 0.000000
# 2 -0.004382 0.013094 -0.002826 0.000000 0.000000 0.000000
# 3 -0.002826 -0.002826 0.010150 0.000000 0.000000 0.000000
# 4 0.000000 0.000000 0.000000 0.289421 0.000000 0.000000
# 5 0.000000 0.000000 0.000000 0.000000 0.289421 0.000000
# 6 0.000000 0.000000 0.000000 0.000000 0.000000 -0.001991
#
#
# Mechanical properties :
#
#
# Convention : Reuss Voigt Hill
#
# Bulk Modulus (GPa) = 61.46463 61.82736 61.64600
# Shear Modulus (GPa) = 7.82865 -85.86847 -39.01991
#
# Velocity S-wave (km/s) = 1.93641 -6.41316 -4.32313
# Velocity P-wave (km/s) = 5.86851 5.02240 2.14650
#
# Compressibility (1/GPa) = 0.01626952
#
# Stress axis : x y z
#
# Youngs Moduli (GPa) = 76.37261 76.37261 98.51807
#
# Poissons Ratio (x) = 0.33468 0.27841
# Poissons Ratio (y) = 0.33468 0.27841
# Poissons Ratio (z) = 0.21583 0.21583
#
# Static dielectric constant tensor:
#      x y z
#    x 3.763640 0.000000 0.000000 
#    y 0.000000 3.763640 0.000000 
#    z 0.000000 0.000000 3.980520 
# 
# 
# High freq. dielectric constant tensor:
#      x y z
#    x 1.812160 0.000000 0.000000 
#    y 0.000000 1.812160 0.000000 
#    z 0.000000 0.000000 1.821900 
# 
# From -- ./inp_files/4295.got.cif
#   From: 2010.03.12/outbox.cif.g09.slc.cpg/sg105_3_cif.got.tgz:4295.got - 2010.04.14 01:45:32.
