data_PCOD8307944
_publ_section_title
;
Structure prediction by ZEFSAII (Michael W. Deem and Ramdas Pophale) SiO2 
 PCOD8307944
Probable space group: I 41 M D
;
_chemical_formula_sum "Si O2"
_cell_formula_units_Z 112
_cell_length_a 28.369854
_cell_length_b 28.369854
_cell_length_c 6.840736
_cell_angle_alpha 90.000000
_cell_angle_beta 90.000000
_cell_angle_gamma 90.000000
_cell_volume 5505.756902
_symmetry_space_group_name_H-M "I 41 M D"
_symmetry_group_IT_number 109
_symmetry_cell_setting 'tetragonal'
loop_
_space_group_symop_operation_xyz
x,y,z
-y,1/2+x,1/4+z
-x,-y,z
y,1/2-x,1/4+z
-x,y,z
x,-y,z
-y,1/2-x,1/4+z
y,1/2+x,1/4+z
1/2+x,1/2+y,1/2+z
1/2-y,x,3/4+z
1/2-x,1/2-y,1/2+z
1/2+y,-x,3/4+z
1/2-x,1/2+y,1/2+z
1/2+x,1/2-y,1/2+z
1/2-y,-x,3/4+z
1/2+y,x,3/4+z
loop_
_atom_site_type_symbol
_atom_site_label
_atom_site_fract_x
_atom_site_fract_y
_atom_site_fract_z
Si Si1 0.629006 0.945985 0.323100
Si Si2 0.054015 0.629010 0.900389
Si Si3 0.290731 0.053944 0.627190
Si Si4 0.446057 0.790734 0.096284
Si Si5 0.822880 0.111272 0.991324
Si Si6 0.388733 0.322885 0.732144
Si Si7 0.250005 0.184716 0.986781
O O1 0.579647 0.920351 0.361761
O O2 0.659175 0.941539 0.520037
O O3 0.618311 0.000000 0.269604
O O4 0.657125 0.923429 0.143953
O O5 0.058454 0.659170 0.703422
O O6 0.000000 0.618319 0.953919
O O7 0.076577 0.657140 0.079490
O O8 0.249997 0.074654 0.486746
O O9 0.290775 0.082655 0.828185
O O10 0.278820 0.000000 0.678978
O O11 0.500000 0.778819 0.044487
O O12 0.417341 0.790775 0.895300
O O13 0.865294 0.134708 0.111718
O O14 0.789405 0.150618 0.886680
O O15 0.349391 0.289415 0.836830
O O16 0.279957 0.220056 0.861817
#
# Coordination Sequence:
#
# PCOD8307944 Si02
#       7
#    16  16  16  16  16  16  16
#     4  11  23  40  64  93 128 170 218 275 328 385
#     4  11  23  40  64  93 128 170 218 275 328 385
#     4  10  21  38  63  94 125 158 205 262 318 382
#     4  10  21  38  63  94 125 158 205 262 318 382
#     4  11  21  40  63  89 124 167 212 260 318 387
#     4  11  21  40  63  89 124 167 212 260 318 387
#     4  10  24  42  59  92 126 166 205 254 318 384
#
# _framework density 20.342343
#
# number of rings (size 3 to 8) (size 9 to 14) (size 15 to 20)
#    0.000    1.429    2.857    2.571    0.000    1.429 
#   10.286    5.714    0.000    0.000    0.000    0.000 
#    0.000    0.000    0.000    0.000    0.000    0.000 
#
# Total GULP energy -694142.359949 kJ/mol
# GULP energy per Si atom -12395.399285 kJ/mol
# Density = 2.029604 g / cm^3
# Si number density = 20.342343 Si / 1000 Ang^3
#
#
#
# Elastic Constant Matrix: (Units=GPa)
#
#
# Indices 1 2 3 4 5 6 
#
# 1 134.7780 74.8164 54.8388 0.0000 0.0000 0.0000
# 2 74.8164 134.7780 54.8388 0.0000 0.0000 0.0000
# 3 54.8388 54.8388 90.0762 0.0000 0.0000 0.0000
# 4 0.0000 0.0000 0.0000 36.3870 0.0000 0.0000
# 5 0.0000 0.0000 0.0000 0.0000 36.3870 0.0000
# 6 0.0000 0.0000 0.0000 0.0000 0.0000 47.5144
#
#
#
# Elastic Compliance Matrix: (Units=1/GPa)
#
#
# Indices 1 2 3 4 5 6 
#
# 1 0.011840 -0.004838 -0.004263 0.000000 0.000000 0.000000
# 2 -0.004838 0.011840 -0.004263 0.000000 0.000000 0.000000
# 3 -0.004263 -0.004263 0.016292 0.000000 0.000000 0.000000
# 4 0.000000 0.000000 0.000000 0.027482 0.000000 0.000000
# 5 0.000000 0.000000 0.000000 0.000000 0.027482 0.000000
# 6 0.000000 0.000000 0.000000 0.000000 0.000000 0.021046
#
#
# Mechanical properties :
#
#
# Convention : Reuss Voigt Hill
#
# Bulk Modulus (GPa) = 75.50184 80.95779 78.22982
# Shear Modulus (GPa) = 33.98512 35.73356 34.85934
#
# Velocity S-wave (km/s) = 4.09180 4.19574 4.14410
# Velocity P-wave (km/s) = 7.71492 7.95967 7.83825
#
# Compressibility (1/GPa) = 0.01324471
#
# Stress axis : x y z
#
# Youngs Moduli (GPa) = 84.46285 84.46285 61.37991
#
# Poissons Ratio (x) = 0.40862 0.26164
# Poissons Ratio (y) = 0.40862 0.26164
# Poissons Ratio (z) = 0.36004 0.36004
#
# Static dielectric constant tensor:
#      x y z
#    x 3.369050 0.000000 0.000000 
#    y 0.000000 3.369050 0.000000 
#    z 0.000000 0.000000 3.468590 
# 
# 
# High freq. dielectric constant tensor:
#      x y z
#    x 1.807540 0.000000 0.000000 
#    y 0.000000 1.807540 0.000000 
#    z 0.000000 0.000000 1.776690 
# 
# From -- ./inp_files/720.got.cif
#   From: 2010.03.12/outbox.cif.g09.slc.cpg/sg109_1_cif.got.tgz:720.got - 2010.04.14 01:55:16.
