data_PCOD8307745
_publ_section_title
;
Structure prediction by ZEFSAII (Michael W. Deem and Ramdas Pophale) SiO2 
 PCOD8307745
Probable space group: I 4 C M
;
_chemical_formula_sum "Si O2"
_cell_formula_units_Z 96
_cell_length_a 21.042457
_cell_length_b 21.042457
_cell_length_c 12.209881
_cell_angle_alpha 90.000000
_cell_angle_beta 90.000000
_cell_angle_gamma 90.000000
_cell_volume 5406.352117
_symmetry_space_group_name_H-M "I 4 C M"
_symmetry_group_IT_number 108
_symmetry_cell_setting 'tetragonal'
loop_
_space_group_symop_operation_xyz
x,y,z
-y,x,z
-x,-y,z
y,-x,z
-x,y,1/2+z
x,-y,1/2+z
-y,-x,1/2+z
y,x,1/2+z
1/2+x,1/2+y,1/2+z
1/2-y,1/2+x,1/2+z
1/2-x,1/2-y,1/2+z
1/2+y,1/2-x,1/2+z
1/2-x,1/2+y,z
1/2+x,1/2-y,z
1/2-y,1/2-x,z
1/2+y,1/2+x,z
loop_
_atom_site_type_symbol
_atom_site_label
_atom_site_fract_x
_atom_site_fract_y
_atom_site_fract_z
Si Si1 0.084304 0.689867 0.580890
Si Si2 0.630886 0.762679 0.983755
Si Si3 0.400066 0.996996 0.465203
Si Si4 0.287858 0.109421 0.234732
Si Si5 0.333903 0.268610 0.436590
Si Si6 0.533092 0.198804 0.310935
O O1 0.136775 0.636775 0.563331
O O2 0.016956 0.659720 0.540825
O O3 0.103498 0.751846 0.509853
O O4 0.078057 0.708588 0.706758
O O5 0.678798 0.821203 0.954175
O O6 0.661634 0.693470 0.961160
O O7 0.567389 0.763411 0.909785
O O8 0.610493 0.765615 0.110026
O O9 0.443842 0.056159 0.437025
O O10 0.440569 0.940569 0.523839
O O11 0.374578 0.970525 0.349356
O O12 0.358435 0.141566 0.247637
O O13 0.238753 0.150784 0.307700
O O14 0.281582 0.038970 0.284244
O O15 0.279194 0.220807 0.475224
#
# Coordination Sequence:
#
# PCOD8307745 Si02
#       6
#    16  16  16  16  16  16
#     4  10  20  33  49  70 100 145 189 228 270 316
#     4  10  22  36  55  81 106 143 193 237 278 330
#     4  10  20  33  47  70 107 150 192 226 261 312
#     4  10  21  37  55  76 111 152 183 226 281 327
#     4   9  19  37  56  73 100 143 192 233 282 331
#     4  12  21  32  51  77 108 141 182 228 270 329
#
# _framework density 17.756891
#
# number of rings (size 3 to 8) (size 9 to 14) (size 15 to 20)
#    0.000    1.833    1.667    3.000    2.333    2.667 
#    0.000    1.667    0.000    0.000    0.000    0.000 
#    0.000    0.667    2.000    0.000    0.000    0.000 
#
# Total GULP energy -594732.069136 kJ/mol
# GULP energy per Si atom -12390.251440 kJ/mol
# Density = 1.771648 g / cm^3
# Si number density = 17.756891 Si / 1000 Ang^3
#
#
#
# Elastic Constant Matrix: (Units=GPa)
#
#
# Indices 1 2 3 4 5 6 
#
# 1 80.6981 54.9316 51.6553 0.0000 0.0000 0.0000
# 2 54.9316 80.6981 51.6553 0.0000 0.0000 0.0000
# 3 51.6553 51.6553 139.5802 0.0000 0.0000 0.0000
# 4 0.0000 0.0000 0.0000 23.8651 0.0000 0.0000
# 5 0.0000 0.0000 0.0000 0.0000 23.8651 0.0000
# 6 0.0000 0.0000 0.0000 0.0000 0.0000 30.7326
#
#
#
# Elastic Compliance Matrix: (Units=1/GPa)
#
#
# Indices 1 2 3 4 5 6 
#
# 1 0.024539 -0.014271 -0.003800 0.000000 0.000000 0.000000
# 2 -0.014271 0.024539 -0.003800 0.000000 0.000000 0.000000
# 3 -0.003800 -0.003800 0.009977 0.000000 0.000000 0.000000
# 4 0.000000 0.000000 0.000000 0.041902 0.000000 0.000000
# 5 0.000000 0.000000 0.000000 0.000000 0.041902 0.000000
# 6 0.000000 0.000000 0.000000 0.000000 0.000000 0.032539
#
#
# Mechanical properties :
#
#
# Convention : Reuss Voigt Hill
#
# Bulk Modulus (GPa) = 65.30601 68.60674 66.95637
# Shear Modulus (GPa) = 22.29726 25.20819 23.75273
#
# Velocity S-wave (km/s) = 3.54743 3.77188 3.66137
# Velocity P-wave (km/s) = 7.32370 7.59540 7.46079
#
# Compressibility (1/GPa) = 0.01531253
#
# Stress axis : x y z
#
# Youngs Moduli (GPa) = 40.75196 40.75196 100.23391
#
# Poissons Ratio (x) = 0.58159 0.38086
# Poissons Ratio (y) = 0.58159 0.38086
# Poissons Ratio (z) = 0.15484 0.15484
#
# Static dielectric constant tensor:
#      x y z
#    x 3.248610 0.000000 0.000000 
#    y 0.000000 3.248610 0.000000 
#    z 0.000000 0.000000 3.443630 
# 
# 
# High freq. dielectric constant tensor:
#      x y z
#    x 1.656980 0.000000 0.000000 
#    y 0.000000 1.656980 0.000000 
#    z 0.000000 0.000000 1.700650 
# 
# From -- ./inp_files/1483.got.cif
#   From: 2010.03.12/outbox.cif.g09.slc.cpg/sg108_1_cif.got.tgz:1483.got - 2010.04.14 01:53:11.
