data_PCOD8307710
_publ_section_title
;
Structure prediction by ZEFSAII (Michael W. Deem and Ramdas Pophale) SiO2 
 PCOD8307710
Probable space group: I 4 C M
;
_chemical_formula_sum "Si O2"
_cell_formula_units_Z 112
_cell_length_a 28.372192
_cell_length_b 28.372192
_cell_length_c 9.083760
_cell_angle_alpha 90.000000
_cell_angle_beta 90.000000
_cell_angle_gamma 90.000000
_cell_volume 7312.256742
_symmetry_space_group_name_H-M "I 4 C M"
_symmetry_group_IT_number 108
_symmetry_cell_setting 'tetragonal'
loop_
_space_group_symop_operation_xyz
x,y,z
-y,x,z
-x,-y,z
y,-x,z
-x,y,1/2+z
x,-y,1/2+z
-y,-x,1/2+z
y,x,1/2+z
1/2+x,1/2+y,1/2+z
1/2-y,1/2+x,1/2+z
1/2-x,1/2-y,1/2+z
1/2+y,1/2-x,1/2+z
1/2-x,1/2+y,z
1/2+x,1/2-y,z
1/2-y,1/2-x,z
1/2+y,1/2+x,z
loop_
_atom_site_type_symbol
_atom_site_label
_atom_site_fract_x
_atom_site_fract_y
_atom_site_fract_z
Si Si1 0.864535 0.217512 0.919590
Si Si2 0.731320 0.231320 0.706632
Si Si3 0.546766 0.602800 0.428874
Si Si4 0.786601 0.051037 0.923187
Si Si5 0.540515 0.395461 0.251514
Si Si6 0.209918 0.290083 0.395942
Si Si7 0.539490 0.285633 0.251715
Si Si8 0.291753 0.351807 0.758580
O O1 0.844248 0.271941 0.908021
O O2 0.917175 0.223656 0.860815
O O3 0.835353 0.178987 0.823338
O O4 0.865232 0.198143 0.087716
O O5 0.735606 0.235606 0.531739
O O6 0.770030 0.270030 0.745667
O O7 0.679824 0.244588 0.767539
O O8 0.542972 0.658272 0.435761
O O9 0.594916 0.587637 0.346986
O O10 0.503431 0.581164 0.336322
O O11 0.546165 0.580911 0.591830
O O12 0.778414 0.101976 0.851051
O O13 0.764509 0.008678 0.823716
O O14 0.764067 0.048777 0.088183
O O15 0.532287 0.340723 0.232745
#
# Coordination Sequence:
#
# PCOD8307710 Si02
#       8
#    16   8  16  16  16   8  16  16
#     4  10  18  29  45  64  86 111 139 172 209 249
#     4   8  16  28  42  62  86 110 136 167 204 245
#     4  10  20  32  44  56  71  90 117 153 194 238
#     4  10  20  32  45  61  80 104 133 166 203 244
#     4  10  20  32  44  56  71  90 117 153 194 238
#     4   8  16  28  42  62  86 110 136 167 204 245
#     4  10  20  32  45  61  80 104 133 166 203 244
#     4  10  18  29  45  64  86 111 139 172 209 249
#
# _framework density 15.316749
#
# number of rings (size 3 to 8) (size 9 to 14) (size 15 to 20)
#    0.000    2.286    0.000    3.429    0.000    7.143 
#    0.000    1.429    0.000    0.000    0.000    0.000 
#    0.000    0.000    0.000    0.000    0.000    0.714 
#
# Total GULP energy -693732.479815 kJ/mol
# GULP energy per Si atom -12388.079997 kJ/mol
# Density = 1.528189 g / cm^3
# Si number density = 15.316749 Si / 1000 Ang^3
#
#
#
# Elastic Constant Matrix: (Units=GPa)
#
#
# Indices 1 2 3 4 5 6 
#
# 1 34.6087 18.1217 19.4712 0.0000 0.0000 0.0001
# 2 18.1217 34.6087 19.4712 0.0000 0.0000 -0.0001
# 3 19.4712 19.4712 107.8791 0.0000 0.0000 0.0000
# 4 0.0000 0.0000 0.0000 13.7157 0.0000 0.0000
# 5 0.0000 0.0000 0.0000 0.0000 13.7157 0.0000
# 6 0.0001 -0.0001 0.0000 0.0000 0.0000 17.0206
#
#
#
# Elastic Compliance Matrix: (Units=1/GPa)
#
#
# Indices 1 2 3 4 5 6 
#
# 1 0.041267 -0.019386 -0.003949 0.000000 0.000000 0.000000
# 2 -0.019386 0.041267 -0.003949 0.000000 0.000000 0.000000
# 3 -0.003949 -0.003949 0.010695 0.000000 0.000000 0.000000
# 4 0.000000 0.000000 0.000000 0.072909 0.000000 0.000000
# 5 0.000000 0.000000 0.000000 0.000000 0.072909 0.000000
# 6 0.000000 0.000000 0.000000 0.000000 0.000000 0.058752
#
#
# Mechanical properties :
#
#
# Convention : Reuss Voigt Hill
#
# Bulk Modulus (GPa) = 25.86648 32.35828 29.11238
# Shear Modulus (GPa) = 13.68895 16.89255 15.29075
#
# Velocity S-wave (km/s) = 2.99277 3.32457 3.16302
# Velocity P-wave (km/s) = 5.37276 5.99241 5.69102
#
# Compressibility (1/GPa) = 0.03866008
#
# Stress axis : x y z
#
# Youngs Moduli (GPa) = 24.23214 24.23214 93.49927
#
# Poissons Ratio (x) = 0.46978 0.36926
# Poissons Ratio (y) = 0.46978 0.36926
# Poissons Ratio (z) = 0.09570 0.09570
#
# Static dielectric constant tensor:
#      x y z
#    x 2.796130 0.000000 0.000000 
#    y 0.000000 2.796130 0.000000 
#    z 0.000000 0.000000 3.413560 
# 
# 
# High freq. dielectric constant tensor:
#      x y z
#    x 1.548510 0.000000 0.000000 
#    y 0.000000 1.548510 0.000000 
#    z 0.000000 0.000000 1.617260 
# 
# From -- ./inp_files/971.got.cif
#   From: 2010.03.12/outbox.cif.g09.slc.cpg/sg108_1_cif.got.tgz:971.got - 2010.04.14 01:53:11.
