data_PCOD8307124
_publ_section_title
;
Structure prediction by ZEFSAII (Michael W. Deem and Ramdas Pophale) SiO2 
 PCOD8307124
Probable space group: P 42 M C
;
_chemical_formula_sum "Si O2"
_cell_formula_units_Z 26
_cell_length_a 7.608556
_cell_length_b 7.608556
_cell_length_c 22.265598
_cell_angle_alpha 90.000000
_cell_angle_beta 90.000000
_cell_angle_gamma 90.000000
_cell_volume 1288.958238
_symmetry_space_group_name_H-M "P 42 M C"
_symmetry_group_IT_number 105
_symmetry_cell_setting 'tetragonal'
loop_
_space_group_symop_operation_xyz
x,y,z
-y,x,1/2+z
-x,-y,z
y,-x,1/2+z
-x,y,z
x,-y,z
-y,-x,1/2+z
y,x,1/2+z
loop_
_atom_site_type_symbol
_atom_site_label
_atom_site_fract_x
_atom_site_fract_y
_atom_site_fract_z
Si Si1 0.195912 0.291957 0.673650
Si Si2 0.707010 0.699794 0.304016
Si Si3 0.000000 0.500000 0.986609
Si Si4 0.290880 0.500000 0.084746
Si Si5 0.000000 0.807493 0.892619
O O1 0.201471 0.500000 0.677746
O O2 0.255751 0.216256 0.738071
O O3 0.328672 0.230626 0.621988
O O4 0.000000 0.223815 0.658019
O O5 0.500000 0.731800 0.304882
O O6 0.755605 0.500000 0.320639
O O7 0.792401 0.826203 0.352509
O O8 0.819620 0.500000 0.023954
O O9 0.000000 0.671565 0.946243
O O10 0.500000 0.500000 0.070502
O O11 0.000000 0.000000 0.922146
#
# Coordination Sequence:
#
# PCOD8307124 Si02
#       5
#     8   8   2   4   4
#     4   9  16  31  62  98 131 162 203 264 332 388
#     4  10  18  35  66  98 130 168 211 269 337 391
#     4  12  28  48  64  88 132 184 232 262 312 400
#     4  10  22  42  64  92 126 172 220 263 318 390
#     4  12  26  44  64  92 130 176 224 273 324 388
#
# _framework density 20.171329
#
# number of rings (size 3 to 8) (size 9 to 14) (size 15 to 20)
#    0.000    1.846    4.615    0.000    0.000    3.077 
#    2.769    0.000    0.000    0.000    0.000    0.000 
#    0.000    0.000    0.000    0.000    0.000    0.000 
#
# Total GULP energy -322388.572513 kJ/mol
# GULP energy per Si atom -12399.560481 kJ/mol
# Density = 2.012542 g / cm^3
# Si number density = 20.171329 Si / 1000 Ang^3
#
#
#
# Elastic Constant Matrix: (Units=GPa)
#
#
# Indices 1 2 3 4 5 6 
#
# 1 131.3299 45.4884 66.9884 0.0000 0.0000 0.0000
# 2 45.4884 131.3299 66.9884 0.0000 0.0000 0.0000
# 3 66.9884 66.9884 145.8596 0.0000 0.0000 0.0000
# 4 0.0000 0.0000 0.0000 289.0778 0.0000 0.0000
# 5 0.0000 0.0000 0.0000 0.0000 289.0778 0.0000
# 6 0.0000 0.0000 0.0000 0.0000 0.0000 -3.2608
#
#
#
# Elastic Compliance Matrix: (Units=1/GPa)
#
#
# Indices 1 2 3 4 5 6 
#
# 1 0.010162 -0.001488 -0.003984 0.000000 0.000000 0.000000
# 2 -0.001488 0.010162 -0.003984 0.000000 0.000000 0.000000
# 3 -0.003984 -0.003984 0.010515 0.000000 0.000000 0.000000
# 4 0.000000 0.000000 0.000000 0.003459 0.000000 0.000000
# 5 0.000000 0.000000 0.000000 0.000000 0.003459 0.000000
# 6 0.000000 0.000000 0.000000 0.000000 0.000000 -0.306671
#
#
# Mechanical properties :
#
#
# Convention : Reuss Voigt Hill
#
# Bulk Modulus (GPa) = 83.83402 85.27221 84.55312
# Shear Modulus (GPa) = -20.32289 130.24925 54.96318
#
# Velocity S-wave (km/s) = -3.17758 8.04436 5.22564
# Velocity P-wave (km/s) = 5.30929 11.34231 8.85541
#
# Compressibility (1/GPa) = 0.01192833
#
# Stress axis : x y z
#
# Youngs Moduli (GPa) = 98.40888 98.40888 95.10190
#
# Poissons Ratio (x) = 0.14640 0.37885
# Poissons Ratio (y) = 0.14640 0.37885
# Poissons Ratio (z) = 0.39203 0.39203
#
# Static dielectric constant tensor:
#      x y z
#    x 3.498140 0.000000 0.000000 
#    y 0.000000 3.498140 0.000000 
#    z 0.000000 0.000000 3.505820 
# 
# 
# High freq. dielectric constant tensor:
#      x y z
#    x 1.790230 0.000000 0.000000 
#    y 0.000000 1.790230 0.000000 
#    z 0.000000 0.000000 1.766940 
# 
# From -- ./inp_files/2806.got.cif
#   From: 2010.03.12/outbox.cif.g09.slc.cpg/sg105_2_cif.got.tgz:2806.got - 2010.04.14 01:45:32.
