data_PCOD8307261
_publ_section_title
;
Structure prediction by ZEFSAII (Michael W. Deem and Ramdas Pophale) SiO2 
 PCOD8307261
Probable space group: P 42 M C
;
_chemical_formula_sum "Si O2"
_cell_formula_units_Z 40
_cell_length_a 16.242926
_cell_length_b 16.242926
_cell_length_c 9.318326
_cell_angle_alpha 90.000000
_cell_angle_beta 90.000000
_cell_angle_gamma 90.000000
_cell_volume 2458.478596
_symmetry_space_group_name_H-M "P 42 M C"
_symmetry_group_IT_number 105
_symmetry_cell_setting 'tetragonal'
loop_
_space_group_symop_operation_xyz
x,y,z
-y,x,1/2+z
-x,-y,z
y,-x,1/2+z
-x,y,z
x,-y,z
-y,-x,1/2+z
y,x,1/2+z
loop_
_atom_site_type_symbol
_atom_site_label
_atom_site_fract_x
_atom_site_fract_y
_atom_site_fract_z
Si Si1 0.500000 0.902555 0.375000
Si Si2 0.096128 0.661429 0.382613
Si Si3 0.172335 0.826607 0.493090
Si Si4 0.500000 0.902495 0.051074
Si Si5 0.903905 0.660068 0.045238
Si Si6 0.092230 0.094299 0.244138
O O1 0.500000 0.866098 0.213027
O O2 0.420549 0.872510 0.462443
O O3 0.500000 0.000000 0.367445
O O4 0.152645 0.734989 0.441259
O O5 0.127421 0.580577 0.465717
O O6 0.111035 0.648154 0.214260
O O7 0.000000 0.680420 0.414185
O O8 0.268376 0.847338 0.478477
O O9 0.147519 0.840721 0.658270
O O10 0.116756 0.893405 0.409117
O O11 0.500000 0.000000 0.055895
O O12 0.000000 0.678677 0.014492
O O13 0.000000 0.129093 0.219115
O O14 0.097118 0.000000 0.200094
#
# Coordination Sequence:
#
# PCOD8307261 Si02
#       6
#     4   8   8   4   8   8
#     4   9  19  33  53  75  93 120 161 212 263 313
#     4  10  20  35  51  70  98 132 169 210 261 310
#     4  12  22  33  50  72  98 133 176 218 256 300
#     4   9  19  33  53  75  93 120 161 212 263 313
#     4  10  20  35  51  70  98 132 169 210 261 310
#     4  11  22  34  46  64  96 138 180 217 250 286
#
# _framework density 16.270225
#
# number of rings (size 3 to 8) (size 9 to 14) (size 15 to 20)
#    0.000    1.600    2.000    4.200    2.800    4.000 
#    0.000    0.000    0.000    0.000    0.000    0.000 
#    0.000    0.800    0.000    5.600    0.000    1.400 
#
# Total GULP energy -496016.870559 kJ/mol
# GULP energy per Si atom -12400.421764 kJ/mol
# Density = 1.623319 g / cm^3
# Si number density = 16.270225 Si / 1000 Ang^3
#
#
#
# Elastic Constant Matrix: (Units=GPa)
#
#
# Indices 1 2 3 4 5 6 
#
# 1 99.3958 53.2037 48.5441 0.0000 0.0000 0.0000
# 2 53.2037 99.3958 48.5441 0.0000 0.0000 0.0000
# 3 48.5441 48.5441 91.1830 0.0000 0.0000 0.0000
# 4 0.0000 0.0000 0.0000 27.3421 0.0000 0.0000
# 5 0.0000 0.0000 0.0000 0.0000 27.3421 0.0000
# 6 0.0000 0.0000 0.0000 0.0000 0.0000 15.8266
#
#
#
# Elastic Compliance Matrix: (Units=1/GPa)
#
#
# Indices 1 2 3 4 5 6 
#
# 1 0.015779 -0.005870 -0.005276 0.000000 0.000000 0.000000
# 2 -0.005870 0.015779 -0.005276 0.000000 0.000000 0.000000
# 3 -0.005276 -0.005276 0.016584 0.000000 0.000000 0.000000
# 4 0.000000 0.000000 0.000000 0.036574 0.000000 0.000000
# 5 0.000000 0.000000 0.000000 0.000000 0.036574 0.000000
# 6 0.000000 0.000000 0.000000 0.000000 0.000000 0.063185
#
#
# Mechanical properties :
#
#
# Convention : Reuss Voigt Hill
#
# Bulk Modulus (GPa) = 65.35605 65.61759 65.48682
# Shear Modulus (GPa) = 22.48029 23.41434 22.94732
#
# Velocity S-wave (km/s) = 3.72113 3.79765 3.75959
# Velocity P-wave (km/s) = 7.66282 7.72314 7.69304
#
# Compressibility (1/GPa) = 0.01530080
#
# Stress axis : x y z
#
# Youngs Moduli (GPa) = 63.37458 63.37458 60.29779
#
# Poissons Ratio (x) = 0.37198 0.31811
# Poissons Ratio (y) = 0.37198 0.31811
# Poissons Ratio (z) = 0.33435 0.33435
#
# Static dielectric constant tensor:
#      x y z
#    x 2.900510 0.000000 0.000000 
#    y 0.000000 2.900510 0.000000 
#    z 0.000000 0.000000 3.261580 
# 
# 
# High freq. dielectric constant tensor:
#      x y z
#    x 1.596370 0.000000 0.000000 
#    y 0.000000 1.596370 0.000000 
#    z 0.000000 0.000000 1.648830 
# 
# From -- ./inp_files/890.got.cif
#   From: 2010.03.12/outbox.cif.g09.slc.cpg/sg105_1_cif.got.tgz:890.got - 2010.04.14 01:45:32.
