data_PCOD8307181
_publ_section_title
;
Structure prediction by ZEFSAII (Michael W. Deem and Ramdas Pophale) SiO2 
 PCOD8307181
Probable space group: P 42 M C
;
_chemical_formula_sum "Si O2"
_cell_formula_units_Z 48
_cell_length_a 9.447530
_cell_length_b 9.447530
_cell_length_c 30.394082
_cell_angle_alpha 90.000000
_cell_angle_beta 90.000000
_cell_angle_gamma 90.000000
_cell_volume 2712.848806
_symmetry_space_group_name_H-M "P 42 M C"
_symmetry_group_IT_number 105
_symmetry_cell_setting 'tetragonal'
loop_
_space_group_symop_operation_xyz
x,y,z
-y,x,1/2+z
-x,-y,z
y,-x,1/2+z
-x,y,z
x,-y,z
-y,-x,1/2+z
y,x,1/2+z
loop_
_atom_site_type_symbol
_atom_site_label
_atom_site_fract_x
_atom_site_fract_y
_atom_site_fract_z
Si Si1 0.668171 0.158834 0.458520
Si Si2 0.837217 0.161631 0.608847
Si Si3 0.837217 0.838369 0.211075
Si Si4 0.667383 0.662902 0.540118
Si Si5 0.331829 0.158835 0.361402
Si Si6 0.332618 0.337098 0.279804
O O1 0.500000 0.161759 0.458778
O O2 0.727204 0.264436 0.495621
O O3 0.722442 0.206094 0.409961
O O4 0.721901 0.000000 0.468954
O O5 0.809378 0.190636 0.659961
O O6 0.737454 0.266444 0.582302
O O7 0.000000 0.192132 0.596944
O O8 0.798278 0.000000 0.597078
O O9 0.737454 0.733556 0.237620
O O10 0.000000 0.807857 0.222974
O O11 0.798290 0.000000 0.222848
O O12 0.500000 0.682666 0.544365
O O13 0.711677 0.500000 0.538295
O O14 0.500000 0.161759 0.361144
O O15 0.272796 0.264436 0.324301
O O16 0.278099 0.000000 0.350968
O O17 0.500000 0.317333 0.275557
O O18 0.288324 0.500000 0.281627
#
# Coordination Sequence:
#
# PCOD8307181 Si02
#       6
#     8   8   8   8   8   8
#     4   8  14  26  45  68  94 127 167 205 238 277
#     4   9  19  36  55  72  91 121 163 205 243 287
#     4   9  19  36  55  72  91 121 163 205 243 287
#     4  10  20  31  46  73 105 132 158 193 241 293
#     4   8  14  26  45  68  94 127 167 205 238 277
#     4  10  20  31  46  73 105 132 158 193 241 293
#
# _framework density 17.693577000000001
#
# number of rings (size 3 to 8) (size 9 to 14) (size 15 to 20)
#    0.000    3.000    0.000    3.000    0.000    4.667 
#    0.000    8.333    0.000    1.000    0.000    7.000 
#    0.000    0.000    0.000    0.000    0.000    0.000 
#
# Total GULP energy -595061.278761 kJ/mol
# GULP energy per Si atom -12397.109974 kJ/mol
# Density = 1.765331 g / cm^3
# Si number density = 17.693577 Si / 1000 Ang^3
#
#
#
# Elastic Constant Matrix: (Units=GPa)
#
#
# Indices 1 2 3 4 5 6 
#
# 1 79.0303 47.2516 63.3456 0.0000 0.0000 0.0000
# 2 47.2516 79.0303 63.3456 0.0000 0.0000 0.0000
# 3 63.3456 63.3456 121.5636 0.0000 0.0000 0.0000
# 4 0.0000 0.0000 0.0000 21.1327 0.0000 0.0000
# 5 0.0000 0.0000 0.0000 0.0000 21.1327 0.0000
# 6 0.0000 0.0000 0.0000 0.0000 0.0000 24.8006
#
#
#
# Elastic Compliance Matrix: (Units=1/GPa)
#
#
# Indices 1 2 3 4 5 6 
#
# 1 0.024031 -0.007437 -0.008647 0.000000 0.000000 0.000000
# 2 -0.007437 0.024031 -0.008647 0.000000 0.000000 0.000000
# 3 -0.008647 -0.008647 0.017238 0.000000 0.000000 0.000000
# 4 0.000000 0.000000 0.000000 0.047320 0.000000 0.000000
# 5 0.000000 0.000000 0.000000 0.000000 0.047320 0.000000
# 6 0.000000 0.000000 0.000000 0.000000 0.000000 0.040322
#
#
# Mechanical properties :
#
#
# Convention : Reuss Voigt Hill
#
# Bulk Modulus (GPa) = 63.14022 69.72329 66.43176
# Shear Modulus (GPa) = 19.60779 20.45862 20.03320
#
# Velocity S-wave (km/s) = 3.33256 3.40409 3.36851
# Velocity P-wave (km/s) = 7.11131 7.41229 7.26336
#
# Compressibility (1/GPa) = 0.01583777
#
# Stress axis : x y z
#
# Youngs Moduli (GPa) = 41.61366 41.61366 58.01271
#
# Poissons Ratio (x) = 0.30948 0.50162
# Poissons Ratio (y) = 0.30948 0.50162
# Poissons Ratio (z) = 0.35982 0.35982
#
# Static dielectric constant tensor:
#      x y z
#    x 3.103940 0.000000 0.000000 
#    y 0.000000 3.103940 0.000000 
#    z 0.000000 0.000000 3.503510 
# 
# 
# High freq. dielectric constant tensor:
#      x y z
#    x 1.662990 0.000000 0.000000 
#    y 0.000000 1.662990 0.000000 
#    z 0.000000 0.000000 1.697880 
# 
# From -- ./inp_files/4718.got.cif
#   From: 2010.03.12/outbox.cif.g09.slc.cpg/sg105_3_cif.got.tgz:4718.got - 2010.04.14 01:45:32.
