data_PCOD8307696
_publ_section_title
;
Structure prediction by ZEFSAII (Michael W. Deem and Ramdas Pophale) SiO2 
 PCOD8307696
Probable space group: I 4 M M
;
_chemical_formula_sum "Si O2"
_cell_formula_units_Z 128
_cell_length_a 17.347035
_cell_length_b 17.347035
_cell_length_c 27.511954
_cell_angle_alpha 90.000000
_cell_angle_beta 90.000000
_cell_angle_gamma 90.000000
_cell_volume 8278.886834
_symmetry_space_group_name_H-M "I 4 M M"
_symmetry_group_IT_number 107
_symmetry_cell_setting 'tetragonal'
loop_
_space_group_symop_operation_xyz
x,y,z
-y,x,z
-x,-y,z
y,-x,z
-x,y,z
x,-y,z
-y,-x,z
y,x,z
1/2+x,1/2+y,1/2+z
1/2-y,1/2+x,1/2+z
1/2-x,1/2-y,1/2+z
1/2+y,1/2-x,1/2+z
1/2-x,1/2+y,1/2+z
1/2+x,1/2-y,1/2+z
1/2-y,1/2-x,1/2+z
1/2+y,1/2+x,1/2+z
loop_
_atom_site_type_symbol
_atom_site_label
_atom_site_fract_x
_atom_site_fract_y
_atom_site_fract_z
Si Si1 0.089133 0.214184 0.996690
Si Si2 0.411139 0.283991 0.768782
Si Si3 0.795917 0.326788 0.307751
Si Si4 0.911283 0.788250 0.610061
Si Si5 0.912376 0.282390 0.711677
Si Si6 0.688659 0.913747 0.176570
Si Si7 0.668621 0.795653 0.580178
Si Si8 0.285091 0.411728 0.385471
O O1 0.133813 0.133813 0.006418
O O2 0.099052 0.240735 0.941130
O O3 0.000000 0.200661 0.010332
O O4 0.126146 0.282799 0.028774
O O5 0.500000 0.300443 0.782956
O O6 0.360493 0.360493 0.779114
O O7 0.381573 0.208675 0.799541
O O8 0.401724 0.262085 0.712045
O O9 0.745510 0.254491 0.323091
O O10 0.759652 0.363290 0.258837
O O11 0.788533 0.387801 0.352024
O O12 0.865035 0.865035 0.594432
O O13 0.902161 0.779301 0.668402
O O14 0.878085 0.712542 0.582176
O O15 0.000000 0.797707 0.594592
O O16 0.884799 0.364446 0.692048
O O17 0.000000 0.290000 0.728321
O O18 0.714326 0.894590 0.122058
O O19 0.658348 0.000000 0.179034
O O20 0.732214 0.732214 0.591093
O O21 0.307863 0.500000 0.374897
O O22 0.360224 0.360224 0.372945
#
# Coordination Sequence:
#
# PCOD8307696 Si02
#       8
#    16  16  16  16  16  16  16  16
#     4   9  17  28  43  64  88 114 143 172 201 233
#     4   9  17  28  42  61  83 106 135 171 211 255
#     4   9  16  27  43  60  80 109 143 174 202 237
#     4   9  17  28  42  61  83 106 135 171 211 255
#     4   9  16  25  38  57  81 109 139 169 201 238
#     4   9  16  25  38  57  81 109 139 169 201 238
#     4   9  16  27  43  60  80 109 143 174 202 237
#     4   9  17  28  43  64  88 114 143 172 201 233
#
# _framework density 15.461015
#
# number of rings (size 3 to 8) (size 9 to 14) (size 15 to 20)
#    0.000    3.000    0.000    1.500    0.000    3.750 
#    0.000    1.250    0.000    3.000    0.000    5.250 
#    0.000    0.000    0.000    9.750    0.000    0.000 
#
# Total GULP energy -793148.625355 kJ/mol
# GULP energy per Si atom -12392.947271 kJ/mol
# Density = 1.542582 g / cm^3
# Si number density = 15.461015 Si / 1000 Ang^3
#
#
#
# Elastic Constant Matrix: (Units=GPa)
#
#
# Indices 1 2 3 4 5 6 
#
# 1 86.5082 41.7778 36.4778 0.0000 0.0000 0.0000
# 2 41.7778 86.5082 36.4778 0.0000 0.0000 0.0000
# 3 36.4778 36.4778 73.9963 0.0000 0.0000 0.0000
# 4 0.0000 0.0000 0.0000 20.3831 0.0000 0.0000
# 5 0.0000 0.0000 0.0000 0.0000 20.3831 0.0000
# 6 0.0000 0.0000 0.0000 0.0000 0.0000 15.7438
#
#
#
# Elastic Compliance Matrix: (Units=1/GPa)
#
#
# Indices 1 2 3 4 5 6 
#
# 1 0.016594 -0.005762 -0.005340 0.000000 0.000000 0.000000
# 2 -0.005762 0.016594 -0.005340 0.000000 0.000000 0.000000
# 3 -0.005340 -0.005340 0.018779 0.000000 0.000000 0.000000
# 4 0.000000 0.000000 0.000000 0.049060 0.000000 0.000000
# 5 0.000000 0.000000 0.000000 0.000000 0.049060 0.000000
# 6 0.000000 0.000000 0.000000 0.000000 0.000000 0.063517
#
#
# Mechanical properties :
#
#
# Convention : Reuss Voigt Hill
#
# Bulk Modulus (GPa) = 52.40137 52.94218 52.67178
# Shear Modulus (GPa) = 19.77468 20.12063 19.94765
#
# Velocity S-wave (km/s) = 3.58019 3.61138 3.59582
# Velocity P-wave (km/s) = 7.14539 7.19069 7.16808
#
# Compressibility (1/GPa) = 0.01908347
#
# Stress axis : x y z
#
# Youngs Moduli (GPa) = 60.26293 60.26293 53.25151
#
# Poissons Ratio (x) = 0.34725 0.28435
# Poissons Ratio (y) = 0.34725 0.28435
# Poissons Ratio (z) = 0.32179 0.32179
#
# Static dielectric constant tensor:
#      x y z
#    x 2.927990 0.000000 0.000000 
#    y 0.000000 2.927990 0.000000 
#    z 0.000000 0.000000 2.962310 
# 
# 
# High freq. dielectric constant tensor:
#      x y z
#    x 1.583450 0.000000 0.000000 
#    y 0.000000 1.583450 0.000000 
#    z 0.000000 0.000000 1.577720 
# 
# From -- ./inp_files/5483.got.cif
#   From: 2010.03.12/outbox.cif.g09.slc.cpg/sg107_3_cif.got.tgz:5483.got - 2010.04.14 01:49:11.
