data_PCOD8307907
_publ_section_title
;
Structure prediction by ZEFSAII (Michael W. Deem and Ramdas Pophale) SiO2 
 PCOD8307907
Probable space group: I 41 M D
;
_chemical_formula_sum "Si O2"
_cell_formula_units_Z 112
_cell_length_a 17.271642
_cell_length_b 17.271642
_cell_length_c 19.966962
_cell_angle_alpha 90.000000
_cell_angle_beta 90.000000
_cell_angle_gamma 90.000000
_cell_volume 5956.336794
_symmetry_space_group_name_H-M "I 41 M D"
_symmetry_group_IT_number 109
_symmetry_cell_setting 'tetragonal'
loop_
_space_group_symop_operation_xyz
x,y,z
-y,1/2+x,1/4+z
-x,-y,z
y,1/2-x,1/4+z
-x,y,z
x,-y,z
-y,1/2-x,1/4+z
y,1/2+x,1/4+z
1/2+x,1/2+y,1/2+z
1/2-y,x,3/4+z
1/2-x,1/2-y,1/2+z
1/2+y,-x,3/4+z
1/2-x,1/2+y,1/2+z
1/2+x,1/2-y,1/2+z
1/2-y,-x,3/4+z
1/2+y,x,3/4+z
loop_
_atom_site_type_symbol
_atom_site_label
_atom_site_fract_x
_atom_site_fract_y
_atom_site_fract_z
Si Si1 0.315928 0.915486 0.809610
Si Si2 0.660815 0.640264 0.337458
Si Si3 0.088972 0.089677 0.707805
Si Si4 0.588111 0.589937 0.694519
Si Si5 0.294740 0.301142 0.754861
Si Si6 0.084556 0.674721 0.227049
Si Si7 0.707485 0.292871 0.141461
O O1 0.244234 0.855624 0.798736
O O2 0.357682 0.902006 0.879398
O O3 0.378779 0.906360 0.750781
O O4 0.279325 0.000000 0.803344
O O5 0.594819 0.612938 0.286524
O O6 0.674114 0.578537 0.396736
O O7 0.647192 0.723589 0.371662
O O8 0.138389 0.151440 0.665664
O O9 0.000000 0.098484 0.686127
O O10 0.115886 0.000000 0.697248
O O11 0.500000 0.602493 0.723559
O O12 0.600588 0.500000 0.677694
O O13 0.659359 0.618301 0.740571
O O14 0.363625 0.239767 0.761897
O O15 0.234546 0.270575 0.697234
O O16 0.251608 0.318333 0.824447
O O17 0.000000 0.686095 0.257098
#
# Coordination Sequence:
#
# PCOD8307907 Si02
#       7
#    16  16  16  16  16  16  16
#     4  11  20  33  52  81 120 157 191 230 285 356
#     4  11  20  37  61  87 114 152 193 240 289 354
#     4  11  25  43  62  88 122 157 195 244 305 361
#     4  10  20  34  54  81 119 162 196 238 302 362
#     4  11  20  36  59  86 115 151 201 251 289 353
#     4  11  20  31  53  84 120 158 194 239 290 346
#     4  11  21  39  63  89 116 152 200 246 298 346
#
# _framework density 18.803504
#
# number of rings (size 3 to 8) (size 9 to 14) (size 15 to 20)
#    0.000    1.143    5.714    3.000    0.000    2.571 
#    0.000    0.714    0.000    0.000    0.000    2.000 
#    0.000    0.000    0.000    0.000    0.000    0.000 
#
# Total GULP energy -693879.262745 kJ/mol
# GULP energy per Si atom -12390.701120 kJ/mol
# Density = 1.876071 g / cm^3
# Si number density = 18.803504 Si / 1000 Ang^3
#
#
#
# Elastic Constant Matrix: (Units=GPa)
#
#
# Indices 1 2 3 4 5 6 
#
# 1 92.8344 40.4614 33.0455 0.0000 0.0000 0.0000
# 2 40.4614 92.8344 33.0455 0.0000 0.0000 0.0000
# 3 33.0455 33.0455 72.3414 0.0000 0.0000 0.0000
# 4 0.0000 0.0000 0.0000 26.5773 0.0000 0.0000
# 5 0.0000 0.0000 0.0000 0.0000 26.5773 0.0000
# 6 0.0000 0.0000 0.0000 0.0000 0.0000 28.8911
#
#
#
# Elastic Compliance Matrix: (Units=1/GPa)
#
#
# Indices 1 2 3 4 5 6 
#
# 1 0.014396 -0.004697 -0.004430 0.000000 0.000000 0.000000
# 2 -0.004697 0.014396 -0.004430 0.000000 0.000000 0.000000
# 3 -0.004430 -0.004430 0.017871 0.000000 0.000000 0.000000
# 4 0.000000 0.000000 0.000000 0.037626 0.000000 0.000000
# 5 0.000000 0.000000 0.000000 0.000000 0.037626 0.000000
# 6 0.000000 0.000000 0.000000 0.000000 0.000000 0.034613
#
#
# Mechanical properties :
#
#
# Convention : Reuss Voigt Hill
#
# Bulk Modulus (GPa) = 51.15891 52.34611 51.75251
# Shear Modulus (GPa) = 26.29355 26.50633 26.39994
#
# Velocity S-wave (km/s) = 3.74349 3.75860 3.75105
# Velocity P-wave (km/s) = 6.77872 6.83630 6.80757
#
# Compressibility (1/GPa) = 0.01954694
#
# Stress axis : x y z
#
# Youngs Moduli (GPa) = 69.46228 69.46229 55.95671
#
# Poissons Ratio (x) = 0.32630 0.24791
# Poissons Ratio (y) = 0.32630 0.24791
# Poissons Ratio (z) = 0.30775 0.30775
#
# Static dielectric constant tensor:
#      x y z
#    x 3.529310 0.000000 0.000000 
#    y 0.000000 3.529310 0.000000 
#    z 0.000000 0.000000 3.488270 
# 
# 
# High freq. dielectric constant tensor:
#      x y z
#    x 1.726200 0.000000 0.000000 
#    y 0.000000 1.726200 0.000000 
#    z 0.000000 0.000000 1.718160 
# 
# From -- ./inp_files/3899.got.cif
#   From: 2010.03.12/outbox.cif.g09.slc.cpg/sg109_2_cif.got.tgz:3899.got - 2010.04.14 01:55:16.
