data_PCOD8307417
_publ_section_title
;
Structure prediction by ZEFSAII (Michael W. Deem and Ramdas Pophale) SiO2 
 PCOD8307417
Probable space group: P 42 B C
;
_chemical_formula_sum "Si O2"
_cell_formula_units_Z 60
_cell_length_a 17.309997
_cell_length_b 17.309997
_cell_length_c 9.566511
_cell_angle_alpha 90.000000
_cell_angle_beta 90.000000
_cell_angle_gamma 90.000000
_cell_volume 2866.471053
_symmetry_space_group_name_H-M "P 42 B C"
_symmetry_group_IT_number 106
_symmetry_cell_setting 'tetragonal'
loop_
_space_group_symop_operation_xyz
x,y,z
-y,x,1/2+z
-x,-y,z
y,-x,1/2+z
1/2-x,1/2+y,z
1/2+x,1/2-y,z
1/2-y,1/2-x,1/2+z
1/2+y,1/2+x,1/2+z
loop_
_atom_site_type_symbol
_atom_site_label
_atom_site_fract_x
_atom_site_fract_y
_atom_site_fract_z
Si Si1 0.336807 0.991639 0.097770
Si Si2 0.500000 0.000000 0.696748
Si Si3 0.527874 0.842105 0.302987
Si Si4 0.860318 0.182680 0.095143
Si Si5 0.185320 0.663643 0.196991
Si Si6 0.783463 0.160698 0.820522
Si Si7 0.229343 0.967134 0.597536
Si Si8 0.745988 0.122131 0.308358
O O1 0.291776 0.936430 0.200183
O O2 0.427918 0.973831 0.102171
O O3 0.323429 0.080756 0.129302
O O4 0.308861 0.980139 0.936291
O O5 0.566250 0.975200 0.803404
O O6 0.618187 0.818975 0.311993
O O7 0.492418 0.812755 0.156274
O O8 0.819734 0.135437 0.969386
O O9 0.827092 0.270133 0.079046
O O10 0.827912 0.149612 0.243416
O O11 0.954305 0.177293 0.087787
O O12 0.267791 0.666003 0.268277
O O13 0.803049 0.092140 0.712628
O O14 0.693119 0.186273 0.831914
O O15 0.237561 0.923455 0.451047
#
# Coordination Sequence:
#
# PCOD8307417 Si02
#       8
#     8   4   8   8   8   8   8   8
#     4  11  21  36  58  86 123 166 205 249 304 364
#     4  10  22  32  50  84 130 168 202 240 290 364
#     4  10  21  36  54  83 121 163 200 239 296 364
#     4  10  22  42  63  88 120 160 208 253 310 382
#     4   9  20  36  61  89 118 155 200 245 296 371
#     4  11  21  39  64  89 117 154 198 250 306 370
#     4  11  24  40  63  90 120 156 203 262 316 370
#     4  11  23  38  62  94 125 159 207 259 310 372
#
# _framework density 20.931660999999998
#
# number of rings (size 3 to 8) (size 9 to 14) (size 15 to 20)
#    0.000    1.600    0.000    5.200    0.000   10.667 
#    0.000    1.333    0.000    6.400    0.000    0.000 
#    0.000    0.000    0.000    0.000    0.000    0.000 
#
# Total GULP energy -743546.241620 kJ/mol
# GULP energy per Si atom -12392.437360 kJ/mol
# Density = 2.088402 g / cm^3
# Si number density = 20.931661 Si / 1000 Ang^3
#
#
#
# Elastic Constant Matrix: (Units=GPa)
#
#
# Indices 1 2 3 4 5 6 
#
# 1 101.3084 40.9602 55.2738 0.0000 0.0000 0.0000
# 2 40.9602 101.3084 55.2738 0.0000 0.0000 0.0000
# 3 55.2738 55.2738 150.0175 0.0000 0.0000 0.0000
# 4 0.0000 0.0000 0.0000 29.7712 0.0000 0.0000
# 5 0.0000 0.0000 0.0000 0.0000 29.7712 0.0000
# 6 0.0000 0.0000 0.0000 0.0000 0.0000 20.5565
#
#
#
# Elastic Compliance Matrix: (Units=1/GPa)
#
#
# Indices 1 2 3 4 5 6 
#
# 1 0.013210 -0.003361 -0.003629 0.000000 0.000000 0.000000
# 2 -0.003361 0.013210 -0.003629 0.000000 0.000000 0.000000
# 3 -0.003629 -0.003629 0.009340 0.000000 0.000000 0.000000
# 4 0.000000 0.000000 0.000000 0.033589 0.000000 0.000000
# 5 0.000000 0.000000 0.000000 0.000000 0.033589 0.000000
# 6 0.000000 0.000000 0.000000 0.000000 0.000000 0.048646
#
#
# Mechanical properties :
#
#
# Convention : Reuss Voigt Hill
#
# Bulk Modulus (GPa) = 68.85992 72.84998 70.85495
# Shear Modulus (GPa) = 28.14334 29.42821 28.78578
#
# Velocity S-wave (km/s) = 3.67077 3.75363 3.71243
# Velocity P-wave (km/s) = 7.13687 7.32568 7.23189
#
# Compressibility (1/GPa) = 0.01452224
#
# Stress axis : x y z
#
# Youngs Moduli (GPa) = 75.70280 75.70280 107.06788
#
# Poissons Ratio (x) = 0.25443 0.38852
# Poissons Ratio (y) = 0.25443 0.38852
# Poissons Ratio (z) = 0.27470 0.27470
#
# Static dielectric constant tensor:
#      x y z
#    x 3.869920 0.000000 0.000000 
#    y 0.000000 3.869920 0.000000 
#    z 0.000000 0.000000 3.813090 
# 
# 
# High freq. dielectric constant tensor:
#      x y z
#    x 1.812470 0.000000 0.000000 
#    y 0.000000 1.812470 0.000000 
#    z 0.000000 0.000000 1.826010 
# 
# From -- ./inp_files/549.got.cif
#   From: 2010.03.12/outbox.cif.g09.slc.cpg/sg106_cif.got.tgz:549.got - 2010.04.14 01:48:02.
