data_PCOD8307398
_publ_section_title
;
Structure prediction by ZEFSAII (Michael W. Deem and Ramdas Pophale) SiO2 
 PCOD8307398
Probable space group: P 42 B C
;
_chemical_formula_sum "Si O2"
_cell_formula_units_Z 48
_cell_length_a 14.612355
_cell_length_b 14.612355
_cell_length_c 12.543532
_cell_angle_alpha 90.000000
_cell_angle_beta 90.000000
_cell_angle_gamma 90.000000
_cell_volume 2678.306476
_symmetry_space_group_name_H-M "P 42 B C"
_symmetry_group_IT_number 106
_symmetry_cell_setting 'tetragonal'
loop_
_space_group_symop_operation_xyz
x,y,z
-y,x,1/2+z
-x,-y,z
y,-x,1/2+z
1/2-x,1/2+y,z
1/2+x,1/2-y,z
1/2-y,1/2-x,1/2+z
1/2+y,1/2+x,1/2+z
loop_
_atom_site_type_symbol
_atom_site_label
_atom_site_fract_x
_atom_site_fract_y
_atom_site_fract_z
Si Si1 0.686530 0.235693 0.458270
Si Si2 0.363262 0.053462 0.532858
Si Si3 0.764307 0.313470 0.658982
Si Si4 0.749638 0.901916 0.335304
Si Si5 0.749638 0.098084 0.281948
Si Si6 0.946538 0.636738 0.584394
O O1 0.756601 0.243399 0.558626
O O2 0.681772 0.331634 0.394251
O O3 0.715860 0.149098 0.387695
O O4 0.585244 0.218410 0.505580
O O5 0.281590 0.085244 0.611672
O O6 0.337164 0.071862 0.409844
O O7 0.448826 0.117448 0.561278
O O8 0.382552 0.948826 0.555974
O O9 0.850902 0.284140 0.729557
O O10 0.668366 0.318228 0.723001
O O11 0.798197 0.000000 0.308626
O O12 0.662836 0.071862 0.207408
#
# Coordination Sequence:
#
# PCOD8307398 Si02
#       6
#     8   8   8   8   8   8
#     4   9  19  33  50  77 110 145 184 222 280 330
#     4  10  19  31  49  81 116 140 177 232 288 348
#     4   9  19  33  50  77 110 145 184 222 280 330
#     4  10  18  33  54  76 109 149 184 224 279 338
#     4  10  18  33  54  76 109 149 184 224 279 338
#     4  10  19  31  49  81 116 140 177 232 288 348
#
# _framework density 17.921773000000002
#
# number of rings (size 3 to 8) (size 9 to 14) (size 15 to 20)
#    0.000    2.333    3.333    0.000    0.000    1.333 
#    0.000    0.000    0.000    0.000    0.000   49.000 
#    0.000    0.000    0.000    0.000    0.000    0.000 
#
# Total GULP energy -594699.471321 kJ/mol
# GULP energy per Si atom -12389.572319 kJ/mol
# Density = 1.788098 g / cm^3
# Si number density = 17.921773 Si / 1000 Ang^3
#
#
#
# Elastic Constant Matrix: (Units=GPa)
#
#
# Indices 1 2 3 4 5 6 
#
# 1 90.4422 28.5882 36.0775 0.0000 0.0000 0.0000
# 2 28.5882 90.4422 36.0775 0.0000 0.0000 0.0000
# 3 36.0775 36.0775 109.2351 0.0000 0.0000 0.0000
# 4 0.0000 0.0000 0.0000 22.1939 0.0000 0.0000
# 5 0.0000 0.0000 0.0000 0.0000 22.1939 0.0000
# 6 0.0000 0.0000 0.0000 0.0000 0.0000 27.5660
#
#
#
# Elastic Compliance Matrix: (Units=1/GPa)
#
#
# Indices 1 2 3 4 5 6 
#
# 1 0.013336 -0.002831 -0.003469 0.000000 0.000000 0.000000
# 2 -0.002831 0.013336 -0.003469 0.000000 0.000000 0.000000
# 3 -0.003469 -0.003469 0.011446 0.000000 0.000000 0.000000
# 4 0.000000 0.000000 0.000000 0.045057 0.000000 0.000000
# 5 0.000000 0.000000 0.000000 0.000000 0.045057 0.000000
# 6 0.000000 0.000000 0.000000 0.000000 0.000000 0.036277
#
#
# Mechanical properties :
#
#
# Convention : Reuss Voigt Hill
#
# Bulk Modulus (GPa) = 53.82832 54.62287 54.22560
# Shear Modulus (GPa) = 26.28242 27.01588 26.64915
#
# Velocity S-wave (km/s) = 3.83366 3.88678 3.86031
# Velocity P-wave (km/s) = 7.04956 7.11951 7.08462
#
# Compressibility (1/GPa) = 0.01857758
#
# Stress axis : x y z
#
# Youngs Moduli (GPa) = 74.98687 74.98687 87.36538
#
# Poissons Ratio (x) = 0.21232 0.30309
# Poissons Ratio (y) = 0.21232 0.30309
# Poissons Ratio (z) = 0.26015 0.26015
#
# Static dielectric constant tensor:
#      x y z
#    x 3.288090 0.000000 0.000000 
#    y 0.000000 3.288090 0.000000 
#    z 0.000000 0.000000 3.644360 
# 
# 
# High freq. dielectric constant tensor:
#      x y z
#    x 1.671900 0.000000 0.000000 
#    y 0.000000 1.671900 0.000000 
#    z 0.000000 0.000000 1.719440 
# 
# From -- ./inp_files/908.got.cif
#   From: 2010.03.12/outbox.cif.g09.slc.cpg/sg106_cif.got.tgz:908.got - 2010.04.14 01:48:02.
