data_PCOD8307502
_publ_section_title
;
Structure prediction by ZEFSAII (Michael W. Deem and Ramdas Pophale) SiO2 
 PCOD8307502
Probable space group: I 4 M M
;
_chemical_formula_sum "Si O2"
_cell_formula_units_Z 128
_cell_length_a 25.790376
_cell_length_b 25.790376
_cell_length_c 12.039277
_cell_angle_alpha 90.000000
_cell_angle_beta 90.000000
_cell_angle_gamma 90.000000
_cell_volume 8007.846772
_symmetry_space_group_name_H-M "I 4 M M"
_symmetry_group_IT_number 107
_symmetry_cell_setting 'tetragonal'
loop_
_space_group_symop_operation_xyz
x,y,z
-y,x,z
-x,-y,z
y,-x,z
-x,y,z
x,-y,z
-y,-x,z
y,x,z
1/2+x,1/2+y,1/2+z
1/2-y,1/2+x,1/2+z
1/2-x,1/2-y,1/2+z
1/2+y,1/2-x,1/2+z
1/2-x,1/2+y,1/2+z
1/2+x,1/2-y,1/2+z
1/2-y,1/2-x,1/2+z
1/2+y,1/2+x,1/2+z
loop_
_atom_site_type_symbol
_atom_site_label
_atom_site_fract_x
_atom_site_fract_y
_atom_site_fract_z
Si Si1 0.359277 0.560725 0.877600
Si Si2 0.352428 0.266772 0.507815
Si Si3 0.322635 0.056000 0.250670
Si Si4 0.791866 0.058702 0.173370
Si Si5 0.677366 0.056000 0.504529
Si Si6 0.291866 0.558702 0.081830
Si Si7 0.233228 0.147572 0.747385
Si Si8 0.341717 0.158283 0.127600
O O1 0.361917 0.500000 0.877601
O O2 0.416944 0.583057 0.877599
O O3 0.332129 0.580078 0.764413
O O4 0.332129 0.580078 0.990786
O O5 0.302592 0.302592 0.532621
O O6 0.402902 0.290692 0.568003
O O7 0.364965 0.264699 0.377600
O O8 0.340175 0.208768 0.549479
O O9 0.261317 0.059372 0.239696
O O10 0.338959 0.057783 0.377600
O O11 0.347548 0.105534 0.194859
O O12 0.341338 0.000000 0.200023
O O13 0.805209 0.000000 0.132331
O O14 0.738684 0.059371 0.515502
O O15 0.652453 0.105534 0.560341
O O16 0.658662 0.000000 0.555177
O O17 0.305209 0.500000 0.122868
O O18 0.290691 0.597098 0.187196
O O19 0.197407 0.197407 0.722578
O O20 0.291232 0.159826 0.705721
#
# Coordination Sequence:
#
# PCOD8307502 Si02
#       8
#    16  16  16  16  16  16  16  16
#     4  10  18  29  46  68  94 122 157 199 241 285
#     4  10  20  32  45  66  98 128 154 188 234 287
#     4   9  16  29  48  68  90 115 148 189 227 266
#     4   9  17  30  48  68  89 119 160 198 230 271
#     4   9  16  29  48  68  90 115 148 189 227 266
#     4   9  17  30  48  68  89 119 160 198 230 271
#     4  10  20  32  45  66  98 128 154 188 234 287
#     4  10  19  30  48  69  92 122 154 186 230 279
#
# _framework density 15.984321
#
# number of rings (size 3 to 8) (size 9 to 14) (size 15 to 20)
#    0.000    2.500    1.250    1.875    0.000    0.625 
#    0.000    0.000    0.000    2.625    0.000    1.750 
#    0.000    0.000    0.000   23.250    0.000    0.000 
#
# Total GULP energy -793072.031230 kJ/mol
# GULP energy per Si atom -12391.750488 kJ/mol
# Density = 1.594794 g / cm^3
# Si number density = 15.984321 Si / 1000 Ang^3
#
#
#
# Elastic Constant Matrix: (Units=GPa)
#
#
# Indices 1 2 3 4 5 6 
#
# 1 222.1237 -80.3412 54.3657 0.0000 0.0000 0.0044
# 2 -80.3412 222.1237 54.3657 0.0000 0.0000 -0.0044
# 3 54.3657 54.3657 104.7475 0.0000 0.0000 0.0000
# 4 0.0000 0.0000 0.0000 14.5848 0.0000 0.0000
# 5 0.0000 0.0000 0.0000 0.0000 14.5848 0.0000
# 6 0.0044 -0.0044 0.0000 0.0000 0.0000 22.5301
#
#
#
# Elastic Compliance Matrix: (Units=1/GPa)
#
#
# Indices 1 2 3 4 5 6 
#
# 1 0.007511 0.004205 -0.006081 0.000000 0.000000 -0.000001
# 2 0.004205 0.007511 -0.006081 0.000000 0.000000 0.000001
# 3 -0.006081 -0.006081 0.015859 0.000000 0.000000 0.000000
# 4 0.000000 0.000000 0.000000 0.068565 0.000000 0.000000
# 5 0.000000 0.000000 0.000000 0.000000 0.068565 0.000000
# 6 -0.000001 0.000001 0.000000 0.000000 0.000000 0.044385
#
#
# Mechanical properties :
#
#
# Convention : Reuss Voigt Hill
#
# Bulk Modulus (GPa) = 66.80955 67.30834 67.05895
# Shear Modulus (GPa) = 21.43165 45.04690 33.23928
#
# Velocity S-wave (km/s) = 3.66566 5.31442 4.56509
# Velocity P-wave (km/s) = 7.73329 8.93632 8.35648
#
# Compressibility (1/GPa) = 0.01496792
#
# Stress axis : x y z
#
# Youngs Moduli (GPa) = 133.13144 133.13144 63.05511
#
# Poissons Ratio (x) = -0.55985 0.38344
# Poissons Ratio (y) = -0.55985 0.38344
# Poissons Ratio (z) = 0.80959 0.80959
#
# Static dielectric constant tensor:
#      x y z
#    x 3.134510 0.000000 0.000000 
#    y 0.000000 3.134510 0.000000 
#    z 0.000000 0.000000 3.008250 
# 
# 
# High freq. dielectric constant tensor:
#      x y z
#    x 1.610350 0.000000 0.000000 
#    y 0.000000 1.610350 0.000000 
#    z 0.000000 0.000000 1.610850 
# 
# From -- ./inp_files/2671.got.cif
#   From: 2010.03.12/outbox.cif.g09.slc.cpg/sg107_2_cif.got.tgz:2671.got - 2010.04.14 01:49:11.
