data_PCOD8307541
_publ_section_title
;
Structure prediction by ZEFSAII (Michael W. Deem and Ramdas Pophale) SiO2 
 PCOD8307541
Probable space group: I 4 M M
;
_chemical_formula_sum "Si O2"
_cell_formula_units_Z 96
_cell_length_a 28.640482
_cell_length_b 28.640482
_cell_length_c 7.578156
_cell_angle_alpha 90.000000
_cell_angle_beta 90.000000
_cell_angle_gamma 90.000000
_cell_volume 6216.188655
_symmetry_space_group_name_H-M "I 4 M M"
_symmetry_group_IT_number 107
_symmetry_cell_setting 'tetragonal'
loop_
_space_group_symop_operation_xyz
x,y,z
-y,x,z
-x,-y,z
y,-x,z
-x,y,z
x,-y,z
-y,-x,z
y,x,z
1/2+x,1/2+y,1/2+z
1/2-y,1/2+x,1/2+z
1/2-x,1/2-y,1/2+z
1/2+y,1/2-x,1/2+z
1/2-x,1/2+y,1/2+z
1/2+x,1/2-y,1/2+z
1/2-y,1/2-x,1/2+z
1/2+y,1/2+x,1/2+z
loop_
_atom_site_type_symbol
_atom_site_label
_atom_site_fract_x
_atom_site_fract_y
_atom_site_fract_z
Si Si1 0.053670 0.129437 0.867370
Si Si2 0.628201 0.054146 0.465120
Si Si3 0.128201 0.554146 0.368036
Si Si4 0.870564 0.053670 0.465778
Si Si5 0.698635 0.444754 0.666576
Si Si6 0.444720 0.197751 0.666578
O O1 0.082863 0.082863 0.906292
O O2 0.060102 0.146575 0.666573
O O3 0.000000 0.116836 0.908787
O O4 0.071850 0.171126 0.991989
O O5 0.581170 0.081170 0.416578
O O6 0.643284 0.063145 0.666578
O O7 0.670411 0.072073 0.341568
O O8 0.617310 0.000000 0.429466
O O9 0.117310 0.500000 0.403689
O O10 0.170411 0.572073 0.491588
O O11 0.917139 0.082862 0.426858
O O12 0.828876 0.071851 0.341157
O O13 0.883164 0.000000 0.424359
O O14 0.703327 0.500000 0.666581
O O15 0.750420 0.422177 0.666578
O O16 0.500000 0.202105 0.666577
#
# Coordination Sequence:
#
# PCOD8307541 Si02
#       6
#    16  16  16  16  16  16
#     4   9  17  28  43  65  93 123 153 183 214 253
#     4  10  19  30  45  64  88 118 148 179 216 260
#     4  10  19  30  45  64  88 118 148 179 216 260
#     4   9  17  28  43  65  93 123 153 183 214 253
#     4   9  17  29  44  60  85 119 153 188 221 255
#     4   9  18  31  44  62  86 115 151 186 223 261
#
# _framework density 15.443546
#
# number of rings (size 3 to 8) (size 9 to 14) (size 15 to 20)
#    0.000    2.667    1.667    0.500    0.000    2.000 
#    0.000   10.000    0.000    3.000    0.000    0.000 
#    0.000    5.333    0.000    0.000    0.000    0.000 
#
# Total GULP energy -595111.951718 kJ/mol
# GULP energy per Si atom -12398.165661 kJ/mol
# Density = 1.540840 g / cm^3
# Si number density = 15.443546 Si / 1000 Ang^3
#
#
#
# Elastic Constant Matrix: (Units=GPa)
#
#
# Indices 1 2 3 4 5 6 
#
# 1 80.8076 44.4994 55.5533 0.0000 0.0000 -0.0007
# 2 44.4994 80.8076 55.5533 0.0000 0.0000 0.0007
# 3 55.5533 55.5533 133.8786 0.0000 0.0000 0.0000
# 4 0.0000 0.0000 0.0000 20.1612 0.0000 0.0000
# 5 0.0000 0.0000 0.0000 0.0000 20.1612 0.0000
# 6 -0.0007 0.0007 0.0000 0.0000 0.0000 3.3059
#
#
#
# Elastic Compliance Matrix: (Units=1/GPa)
#
#
# Indices 1 2 3 4 5 6 
#
# 1 0.020084 -0.007458 -0.005239 0.000000 0.000000 0.000006
# 2 -0.007458 0.020084 -0.005239 0.000000 0.000000 -0.000006
# 3 -0.005239 -0.005239 0.011817 0.000000 0.000000 0.000000
# 4 0.000000 0.000000 0.000000 0.049600 0.000000 0.000000
# 5 0.000000 0.000000 0.000000 0.000000 0.049600 0.000000
# 6 0.000006 -0.000006 0.000000 0.000000 0.000000 0.302489
#
#
# Mechanical properties :
#
#
# Convention : Reuss Voigt Hill
#
# Bulk Modulus (GPa) = 62.06338 67.41176 64.73757
# Shear Modulus (GPa) = 10.10269 18.05153 14.07711
#
# Velocity S-wave (km/s) = 2.56045 3.42259 3.02242
# Velocity P-wave (km/s) = 7.00112 7.70480 7.36138
#
# Compressibility (1/GPa) = 0.01611256
#
# Stress axis : x y z
#
# Youngs Moduli (GPa) = 49.79118 49.79118 84.62086
#
# Poissons Ratio (x) = 0.37135 0.44334
# Poissons Ratio (y) = 0.37135 0.44334
# Poissons Ratio (z) = 0.26086 0.26086
#
# Static dielectric constant tensor:
#      x y z
#    x 2.868750 0.000000 0.000000 
#    y 0.000000 2.868750 0.000000 
#    z 0.000000 0.000000 3.263750 
# 
# 
# High freq. dielectric constant tensor:
#      x y z
#    x 1.562510 0.000000 0.000000 
#    y 0.000000 1.562510 0.000000 
#    z 0.000000 0.000000 1.615010 
# 
# From -- ./inp_files/1622.got.cif
#   From: 2010.03.12/outbox.cif.g09.slc.cpg/sg107_1_cif.got.tgz:1622.got - 2010.04.14 01:49:11.
