data_PCOD8307863
_publ_section_title
;
Structure prediction by ZEFSAII (Michael W. Deem and Ramdas Pophale) SiO2 
 PCOD8307863
Probable space group: I 41 M D
;
_chemical_formula_sum "Si O2"
_cell_formula_units_Z 80
_cell_length_a 13.359168
_cell_length_b 13.359168
_cell_length_c 27.237540
_cell_angle_alpha 90.000000
_cell_angle_beta 90.000000
_cell_angle_gamma 90.000000
_cell_volume 4861.012120
_symmetry_space_group_name_H-M "I 41 M D"
_symmetry_group_IT_number 109
_symmetry_cell_setting 'tetragonal'
loop_
_space_group_symop_operation_xyz
x,y,z
-y,1/2+x,1/4+z
-x,-y,z
y,1/2-x,1/4+z
-x,y,z
x,-y,z
-y,1/2-x,1/4+z
y,1/2+x,1/4+z
1/2+x,1/2+y,1/2+z
1/2-y,x,3/4+z
1/2-x,1/2-y,1/2+z
1/2+y,-x,3/4+z
1/2-x,1/2+y,1/2+z
1/2+x,1/2-y,1/2+z
1/2-y,-x,3/4+z
1/2+y,x,3/4+z
loop_
_atom_site_type_symbol
_atom_site_label
_atom_site_fract_x
_atom_site_fract_y
_atom_site_fract_z
Si Si1 0.885846 0.116275 0.829880
Si Si2 0.249361 0.744317 0.515435
Si Si3 0.885856 0.227580 0.432072
Si Si4 0.383175 0.771515 0.677713
Si Si5 0.113733 0.385614 0.585405
O O1 0.819375 0.174425 0.790618
O O2 0.852945 0.137988 0.885669
O O3 0.000000 0.151900 0.824560
O O4 0.873664 0.000000 0.817500
O O5 0.169989 0.807066 0.482197
O O6 0.308734 0.666799 0.479228
O O7 0.188913 0.683000 0.555745
O O8 0.833373 0.330083 0.412240
O O9 0.876085 0.138795 0.392929
O O10 0.000000 0.253999 0.443907
O O11 0.500000 0.751927 0.685420
O O12 0.127120 0.500000 0.567817
O O13 0.000000 0.349689 0.577388
#
# Coordination Sequence:
#
# PCOD8307863 Si02
#       5
#    16  16  16  16  16
#     4  10  21  38  57  76 103 142 179 218 271 319
#     4  10  18  34  52  80 101 138 176 224 249 315
#     4   9  19  32  50  80 110 139 172 213 263 311
#     4   9  19  34  52  78 108 136 169 215 266 318
#     4  10  19  32  51  76 108 143 174 210 263 317
#
# _framework density 16.457477999999998
#
# number of rings (size 3 to 8) (size 9 to 14) (size 15 to 20)
#    1.200    1.200    2.000    1.200    0.000    2.000 
#    0.000    0.000    0.000    3.600    0.000    0.000 
#    0.000    0.000    0.000    0.000    0.000    0.000 
#
# Total GULP energy -495660.530368 kJ/mol
# GULP energy per Si atom -12391.513259 kJ/mol
# Density = 1.642002 g / cm^3
# Si number density = 16.457478 Si / 1000 Ang^3
#
#
#
# Elastic Constant Matrix: (Units=GPa)
#
#
# Indices 1 2 3 4 5 6 
#
# 1 91.0691 56.6151 49.4434 0.0000 0.0000 0.0000
# 2 56.6151 91.0691 49.4434 0.0000 0.0000 0.0000
# 3 49.4434 49.4434 92.7381 0.0000 0.0000 0.0000
# 4 0.0000 0.0000 0.0000 26.1414 0.0000 0.0000
# 5 0.0000 0.0000 0.0000 0.0000 26.1414 0.0000
# 6 0.0000 0.0000 0.0000 0.0000 0.0000 27.6968
#
#
#
# Elastic Compliance Matrix: (Units=1/GPa)
#
#
# Indices 1 2 3 4 5 6 
#
# 1 0.019777 -0.009247 -0.005614 0.000000 0.000000 0.000000
# 2 -0.009247 0.019777 -0.005614 0.000000 0.000000 0.000000
# 3 -0.005614 -0.005614 0.016770 0.000000 0.000000 0.000000
# 4 0.000000 0.000000 0.000000 0.038254 0.000000 0.000000
# 5 0.000000 0.000000 0.000000 0.000000 0.038254 0.000000
# 6 0.000000 0.000000 0.000000 0.000000 0.000000 0.036105
#
#
# Mechanical properties :
#
#
# Convention : Reuss Voigt Hill
#
# Bulk Modulus (GPa) = 65.04811 65.09781 65.07296
# Shear Modulus (GPa) = 23.25451 23.95421 23.60436
#
# Velocity S-wave (km/s) = 3.76307 3.81927 3.79128
# Velocity P-wave (km/s) = 7.64799 7.68701 7.66752
#
# Compressibility (1/GPa) = 0.01537324
#
# Stress axis : x y z
#
# Youngs Moduli (GPa) = 50.56292 50.56292 59.63158
#
# Poissons Ratio (x) = 0.46755 0.33479
# Poissons Ratio (y) = 0.46755 0.33479
# Poissons Ratio (z) = 0.28388 0.28388
#
# Static dielectric constant tensor:
#      x y z
#    x 2.973410 0.000000 0.000000 
#    y 0.000000 2.973410 0.000000 
#    z 0.000000 0.000000 3.127070 
# 
# 
# High freq. dielectric constant tensor:
#      x y z
#    x 1.623160 0.000000 0.000000 
#    y 0.000000 1.623160 0.000000 
#    z 0.000000 0.000000 1.640840 
# 
# From -- ./inp_files/4346.got.cif
#   From: 2010.03.12/outbox.cif.g09.slc.cpg/sg109_3_cif.got.tgz:4346.got - 2010.04.14 01:55:16.
