data_PCOD8307914
_publ_section_title
;
Structure prediction by ZEFSAII (Michael W. Deem and Ramdas Pophale) SiO2 
 PCOD8307914
Probable space group: I 41 M D
;
_chemical_formula_sum "Si O2"
_cell_formula_units_Z 128
_cell_length_a 23.461334
_cell_length_b 23.461334
_cell_length_c 13.166724
_cell_angle_alpha 90.000000
_cell_angle_beta 90.000000
_cell_angle_gamma 90.000000
_cell_volume 7247.415100
_symmetry_space_group_name_H-M "I 41 M D"
_symmetry_group_IT_number 109
_symmetry_cell_setting 'tetragonal'
loop_
_space_group_symop_operation_xyz
x,y,z
-y,1/2+x,1/4+z
-x,-y,z
y,1/2-x,1/4+z
-x,y,z
x,-y,z
-y,1/2-x,1/4+z
y,1/2+x,1/4+z
1/2+x,1/2+y,1/2+z
1/2-y,x,3/4+z
1/2-x,1/2-y,1/2+z
1/2+y,-x,3/4+z
1/2-x,1/2+y,1/2+z
1/2+x,1/2-y,1/2+z
1/2-y,-x,3/4+z
1/2+y,x,3/4+z
loop_
_atom_site_type_symbol
_atom_site_label
_atom_site_fract_x
_atom_site_fract_y
_atom_site_fract_z
Si Si1 0.665776 0.325816 0.956190
Si Si2 0.292177 0.707823 0.743769
Si Si3 0.435818 0.735128 0.485676
Si Si4 0.836235 0.435152 0.847423
Si Si5 0.264873 0.564182 0.001862
Si Si6 0.434782 0.434782 0.243770
Si Si7 0.674184 0.665776 0.531349
Si Si8 0.336235 0.564848 0.390117
O O1 0.668516 0.312072 0.836950
O O2 0.699737 0.275394 0.015542
O O3 0.601229 0.324365 0.996586
O O4 0.688518 0.388923 0.975382
O O5 0.312073 0.668516 0.650589
O O6 0.300263 0.775395 0.721997
O O7 0.500000 0.712082 0.507960
O O8 0.429333 0.750002 0.368770
O O9 0.388923 0.688518 0.512154
O O10 0.422964 0.790525 0.552479
O O11 0.834741 0.500000 0.810454
O O12 0.897226 0.418661 0.895854
O O13 0.790525 0.422964 0.935063
O O14 0.287918 0.500000 0.979576
O O15 0.500000 0.423467 0.276152
O O16 0.423467 0.500000 0.211388
O O17 0.397226 0.418661 0.341686
O O18 0.675635 0.601229 0.490954
O O19 0.334742 0.500000 0.427086
#
# Coordination Sequence:
#
# PCOD8307914 Si02
#       8
#    16  16  16  16  16  16  16  16
#     4  11  21  39  56  78 110 143 186 234 275 336
#     4  10  24  37  56  83 104 145 192 233 281 326
#     4  10  21  34  52  80 112 146 180 222 277 335
#     4  10  20  35  55  81 112 147 184 227 280 330
#     4  10  21  34  52  80 112 146 180 222 277 335
#     4   9  18  33  54  83 118 152 186 224 271 336
#     4  11  21  39  56  78 110 143 186 234 275 336
#     4  10  20  35  55  81 112 147 184 227 280 330
#
# _framework density 17.661469
#
# number of rings (size 3 to 8) (size 9 to 14) (size 15 to 20)
#    0.000    1.875    2.500    1.500    3.500    4.000 
#    0.000    3.750    0.000    0.000    0.000    0.000 
#    0.000    2.000    0.000    0.000    0.000    0.000 
#
# Total GULP energy -793444.550843 kJ/mol
# GULP energy per Si atom -12397.571107 kJ/mol
# Density = 1.762127 g / cm^3
# Si number density = 17.661469 Si / 1000 Ang^3
#
#
#
# Elastic Constant Matrix: (Units=GPa)
#
#
# Indices 1 2 3 4 5 6 
#
# 1 108.7472 57.5541 50.9657 0.0000 0.0000 0.0000
# 2 57.5541 108.7472 50.9657 0.0000 0.0000 0.0000
# 3 50.9657 50.9657 108.3160 0.0000 0.0000 0.0000
# 4 0.0000 0.0000 0.0000 -44.2157 0.0000 0.0000
# 5 0.0000 0.0000 0.0000 0.0000 -44.2157 0.0000
# 6 0.0000 0.0000 0.0000 0.0000 0.0000 25.8874
#
#
#
# Elastic Compliance Matrix: (Units=1/GPa)
#
#
# Indices 1 2 3 4 5 6 
#
# 1 0.013992 -0.005542 -0.003976 0.000000 0.000000 0.000000
# 2 -0.005542 0.013992 -0.003976 0.000000 0.000000 0.000000
# 3 -0.003976 -0.003976 0.012974 0.000000 0.000000 0.000000
# 4 0.000000 0.000000 0.000000 -0.022616 0.000000 0.000000
# 5 0.000000 0.000000 0.000000 0.000000 -0.022616 0.000000
# 6 0.000000 0.000000 0.000000 0.000000 0.000000 0.038629
#
#
# Mechanical properties :
#
#
# Convention : Reuss Voigt Hill
#
# Bulk Modulus (GPa) = 71.58123 71.64238 71.61180
# Shear Modulus (GPa) = 75.75904 -1.42047 37.16928
#
# Velocity S-wave (km/s) = 6.55654 -0.89779 4.59250
# Velocity P-wave (km/s) = 9.89622 6.29107 8.29195
#
# Compressibility (1/GPa) = 0.01397014
#
# Stress axis : x y z
#
# Youngs Moduli (GPa) = 71.46909 71.46909 77.07755
#
# Poissons Ratio (x) = 0.39607 0.30647
# Poissons Ratio (y) = 0.39607 0.30647
# Poissons Ratio (z) = 0.28417 0.28417
#
# Static dielectric constant tensor:
#      x y z
#    x 3.414580 0.000000 0.000000 
#    y 0.000000 3.414580 0.000000 
#    z 0.000000 0.000000 3.143560 
# 
# 
# High freq. dielectric constant tensor:
#      x y z
#    x 1.687070 0.000000 0.000000 
#    y 0.000000 1.687070 0.000000 
#    z 0.000000 0.000000 1.666870 
# 
# From -- ./inp_files/2190.got.cif
#   From: 2010.03.12/outbox.cif.g09.slc.cpg/sg109_2_cif.got.tgz:2190.got - 2010.04.14 01:55:16.
