data_PCOD8307317
_publ_section_title
;
Structure prediction by ZEFSAII (Michael W. Deem and Ramdas Pophale) SiO2 
 PCOD8307317
Probable space group: P 42 M C
;
_chemical_formula_sum "Si O2"
_cell_formula_units_Z 48
_cell_length_a 9.142453
_cell_length_b 9.142453
_cell_length_c 30.764519
_cell_angle_alpha 90.000000
_cell_angle_beta 90.000000
_cell_angle_gamma 90.000000
_cell_volume 2571.435303
_symmetry_space_group_name_H-M "P 42 M C"
_symmetry_group_IT_number 105
_symmetry_cell_setting 'tetragonal'
loop_
_space_group_symop_operation_xyz
x,y,z
-y,x,1/2+z
-x,-y,z
y,-x,1/2+z
-x,y,z
x,-y,z
-y,-x,1/2+z
y,x,1/2+z
loop_
_atom_site_type_symbol
_atom_site_label
_atom_site_fract_x
_atom_site_fract_y
_atom_site_fract_z
Si Si1 0.170511 0.169867 0.358280
Si Si2 0.167964 0.170362 0.107369
Si Si3 0.670956 0.830976 0.770475
Si Si4 0.673158 0.332928 0.435655
Si Si5 0.671598 0.832436 0.521170
Si Si6 0.327668 0.832074 0.194071
O O1 0.220043 0.247529 0.313986
O O2 0.258731 0.239816 0.397311
O O3 0.000000 0.195037 0.367072
O O4 0.210721 0.000000 0.354593
O O5 0.226700 0.252985 0.064831
O O6 0.262327 0.222335 0.148404
O O7 0.000000 0.211718 0.116851
O O8 0.188239 0.000000 0.098511
O O9 0.500000 0.802164 0.776921
O O10 0.729246 0.734201 0.731327
O O11 0.704761 0.000000 0.760188
O O12 0.500000 0.321015 0.431656
O O13 0.726996 0.500000 0.432809
O O14 0.727261 0.265669 0.481219
O O15 0.500000 0.816861 0.527871
O O16 0.717167 0.000000 0.511839
O O17 0.500000 0.813854 0.192099
O O18 0.281446 0.000000 0.203163
#
# Coordination Sequence:
#
# PCOD8307317 Si02
#       6
#     8   8   8   8   8   8
#     4  10  21  37  58  82 106 136 176 220 265 314
#     4   9  18  33  53  76 103 137 177 220 263 308
#     4  10  21  37  57  80 106 137 174 216 263 315
#     4  10  21  36  54  78 109 144 179 216 262 315
#     4   9  18  33  52  74 102 137 177 218 259 308
#     4  10  21  36  54  78 108 141 177 216 260 312
#
# _framework density 18.666616000000001
#
# number of rings (size 3 to 8) (size 9 to 14) (size 15 to 20)
#    0.000    2.333    0.000    2.000    0.000    6.667 
#    0.000    3.333    0.000    0.000    0.000    0.000 
#    0.000    0.000    0.000    0.000    0.000    0.000 
#
# Total GULP energy -595400.342302 kJ/mol
# GULP energy per Si atom -12404.173798 kJ/mol
# Density = 1.862413 g / cm^3
# Si number density = 18.666616 Si / 1000 Ang^3
#
#
#
# Elastic Constant Matrix: (Units=GPa)
#
#
# Indices 1 2 3 4 5 6 
#
# 1 74.3031 39.0624 67.1952 0.0000 0.0000 0.0000
# 2 39.0624 74.3031 67.1952 0.0000 0.0000 0.0000
# 3 67.1952 67.1952 169.3680 0.0000 0.0000 0.0000
# 4 0.0000 0.0000 0.0000 214.5132 0.0000 0.0000
# 5 0.0000 0.0000 0.0000 0.0000 214.5132 0.0000
# 6 0.0000 0.0000 0.0000 0.0000 0.0000 25.6864
#
#
#
# Elastic Compliance Matrix: (Units=1/GPa)
#
#
# Indices 1 2 3 4 5 6 
#
# 1 0.022515 -0.005861 -0.006607 0.000000 0.000000 0.000000
# 2 -0.005861 0.022515 -0.006607 0.000000 0.000000 0.000000
# 3 -0.006607 -0.006607 0.011147 0.000000 0.000000 0.000000
# 4 0.000000 0.000000 0.000000 0.004662 0.000000 0.000000
# 5 0.000000 0.000000 0.000000 0.000000 0.004662 0.000000
# 6 0.000000 0.000000 0.000000 0.000000 0.000000 0.038931
#
#
# Mechanical properties :
#
#
# Convention : Reuss Voigt Hill
#
# Bulk Modulus (GPa) = 55.47710 73.87556 64.67633
# Shear Modulus (GPa) = 33.64941 100.57733 67.11337
#
# Velocity S-wave (km/s) = 4.25037 7.34832 6.00264
# Velocity P-wave (km/s) = 7.33976 10.56690 9.09756
#
# Compressibility (1/GPa) = 0.01802546
#
# Stress axis : x y z
#
# Youngs Moduli (GPa) = 44.41505 44.41505 89.71067
#
# Poissons Ratio (x) = 0.26033 0.59273
# Poissons Ratio (y) = 0.26033 0.59273
# Poissons Ratio (z) = 0.29346 0.29346
#
# Static dielectric constant tensor:
#      x y z
#    x 3.286060 0.000000 0.000000 
#    y 0.000000 3.286060 0.000000 
#    z 0.000000 0.000000 3.575150 
# 
# 
# High freq. dielectric constant tensor:
#      x y z
#    x 1.721780 0.000000 0.000000 
#    y 0.000000 1.721780 0.000000 
#    z 0.000000 0.000000 1.737590 
# 
# From -- ./inp_files/4654.got.cif
#   From: 2010.03.12/outbox.cif.g09.slc.cpg/sg105_3_cif.got.tgz:4654.got - 2010.04.14 01:45:32.
