data_PCOD8307812
_publ_section_title
;
Structure prediction by ZEFSAII (Michael W. Deem and Ramdas Pophale) SiO2 
 PCOD8307812
Probable space group: I 4 C M
;
_chemical_formula_sum "Si O2"
_cell_formula_units_Z 112
_cell_length_a 14.399007
_cell_length_b 14.399007
_cell_length_c 28.526229
_cell_angle_alpha 90.000000
_cell_angle_beta 90.000000
_cell_angle_gamma 90.000000
_cell_volume 5914.383069
_symmetry_space_group_name_H-M "I 4 C M"
_symmetry_group_IT_number 108
_symmetry_cell_setting 'tetragonal'
loop_
_space_group_symop_operation_xyz
x,y,z
-y,x,z
-x,-y,z
y,-x,z
-x,y,1/2+z
x,-y,1/2+z
-y,-x,1/2+z
y,x,1/2+z
1/2+x,1/2+y,1/2+z
1/2-y,1/2+x,1/2+z
1/2-x,1/2-y,1/2+z
1/2+y,1/2-x,1/2+z
1/2-x,1/2+y,z
1/2+x,1/2-y,z
1/2-y,1/2-x,z
1/2+y,1/2+x,z
loop_
_atom_site_type_symbol
_atom_site_label
_atom_site_fract_x
_atom_site_fract_y
_atom_site_fract_z
Si Si1 0.320406 0.330272 0.681590
Si Si2 0.937391 0.282848 0.457728
Si Si3 0.545848 0.354235 0.041020
Si Si4 0.857501 0.055127 0.876858
Si Si5 0.576107 0.923894 0.098421
Si Si6 0.492825 0.261820 0.634508
Si Si7 0.575480 0.368285 0.771194
Si Si8 0.422157 0.922157 0.492670
O O1 0.232663 0.267338 0.668616
O O2 0.415055 0.270491 0.675416
O O3 0.326478 0.419098 0.646989
O O4 0.303536 0.370399 0.734210
O O5 0.856016 0.356016 0.463654
O O6 0.925533 0.206338 0.497124
O O7 0.924169 0.232262 0.408032
O O8 0.037303 0.333911 0.463999
O O9 0.615175 0.439725 0.039209
O O10 0.559492 0.294224 0.087651
O O11 0.829028 0.082550 0.823895
O O12 0.947977 0.117225 0.887218
O O13 0.530350 0.842192 0.128766
O O14 0.500000 0.000000 0.089665
O O15 0.608356 0.891645 0.045847
O O16 0.623707 0.466798 0.762059
O O17 0.500000 0.000000 0.496070
#
# Coordination Sequence:
#
# PCOD8307812 Si02
#       8
#    16  16  16  16   8  16  16   8
#     4  12  24  37  60  92 124 158 206 255 303 365
#     4  11  22  38  58  86 118 156 200 244 298 363
#     4  11  23  39  58  83 118 156 195 249 304 349
#     4   9  19  39  63  88 116 150 192 246 309 364
#     4  11  22  42  60  82 127 175 205 243 306 369
#     4  12  23  38  60  90 121 162 210 253 302 361
#     4   9  18  36  65  88 111 150 194 245 309 367
#     4   9  20  36  58  78 111 162 203 237 286 356
#
# _framework density 18.936886000000001
#
# number of rings (size 3 to 8) (size 9 to 14) (size 15 to 20)
#    0.000    1.429    5.000    2.143    0.000    2.571 
#    6.429    0.000    1.571    0.000    0.000    0.000 
#    0.000    0.000    0.000    0.000    0.000    0.000 
#
# Total GULP energy -694152.677194 kJ/mol
# GULP energy per Si atom -12395.583521 kJ/mol
# Density = 1.889378 g / cm^3
# Si number density = 18.936886 Si / 1000 Ang^3
#
#
#
# Elastic Constant Matrix: (Units=GPa)
#
#
# Indices 1 2 3 4 5 6 
#
# 1 61.9142 21.9040 30.3037 0.0000 0.0000 0.0001
# 2 21.9040 61.9142 30.3037 0.0000 0.0000 -0.0001
# 3 30.3037 30.3037 104.7640 0.0000 0.0000 0.0000
# 4 0.0000 0.0000 0.0000 -63.3149 0.0000 0.0000
# 5 0.0000 0.0000 0.0000 0.0000 -63.3149 0.0000
# 6 0.0001 -0.0001 0.0000 0.0000 0.0000 15.6087
#
#
#
# Elastic Compliance Matrix: (Units=1/GPa)
#
#
# Indices 1 2 3 4 5 6 
#
# 1 0.020040 -0.004954 -0.004364 0.000000 0.000000 0.000000
# 2 -0.004954 0.020040 -0.004364 0.000000 0.000000 0.000000
# 3 -0.004364 -0.004364 0.012070 0.000000 0.000000 0.000000
# 4 0.000000 0.000000 0.000000 -0.015794 0.000000 0.000000
# 5 0.000000 0.000000 0.000000 0.000000 -0.015794 0.000000
# 6 0.000000 0.000000 0.000000 0.000000 0.000000 0.064067
#
#
# Mechanical properties :
#
#
# Convention : Reuss Voigt Hill
#
# Bulk Modulus (GPa) = 40.34416 43.73499 42.03958
# Shear Modulus (GPa) = 41.57907 -12.46549 14.55679
#
# Velocity S-wave (km/s) = 4.69088 -2.56845 2.77555
# Velocity P-wave (km/s) = 7.11968 3.78805 5.70260
#
# Compressibility (1/GPa) = 0.02478673
#
# Stress axis : x y z
#
# Youngs Moduli (GPa) = 49.90077 49.90077 82.85198
#
# Poissons Ratio (x) = 0.24720 0.36154
# Poissons Ratio (y) = 0.24720 0.36154
# Poissons Ratio (z) = 0.21775 0.21775
#
# Static dielectric constant tensor:
#      x y z
#    x 3.491470 0.000000 0.000000 
#    y 0.000000 3.491470 0.000000 
#    z 0.000000 0.000000 3.541970 
# 
# 
# High freq. dielectric constant tensor:
#      x y z
#    x 1.727810 0.000000 0.000000 
#    y 0.000000 1.727810 0.000000 
#    z 0.000000 0.000000 1.736200 
# 
# From -- ./inp_files/3402.got.cif
#   From: 2010.03.12/outbox.cif.g09.slc.cpg/sg108_2_cif.got.tgz:3402.got - 2010.04.14 01:53:11.
