data_PCOD8307029
_publ_section_title
;
Structure prediction by ZEFSAII (Michael W. Deem and Ramdas Pophale) SiO2 
 PCOD8307029
Probable space group: P 4 C C
;
_chemical_formula_sum "Si O2"
_cell_formula_units_Z 20
_cell_length_a 8.480530
_cell_length_b 8.480530
_cell_length_c 13.832179
_cell_angle_alpha 90.000000
_cell_angle_beta 90.000000
_cell_angle_gamma 90.000000
_cell_volume 994.801863
_symmetry_space_group_name_H-M "P 4 C C"
_symmetry_group_IT_number 103
_symmetry_cell_setting 'tetragonal'
loop_
_space_group_symop_operation_xyz
x,y,z
-y,x,z
-x,-y,z
y,-x,z
-x,y,1/2+z
x,-y,1/2+z
-y,-x,1/2+z
y,x,1/2+z
loop_
_atom_site_type_symbol
_atom_site_label
_atom_site_fract_x
_atom_site_fract_y
_atom_site_fract_z
Si Si1 0.076314 0.246487 0.360050
Si Si2 0.923686 0.753513 0.138983
Si Si3 0.500000 0.000000 0.499517
O O1 0.094158 0.301817 0.249517
O O2 0.112066 0.392844 0.430782
O O3 0.896823 0.193410 0.381803
O O4 0.103177 0.806590 0.117230
O O5 0.887934 0.607156 0.068252
#
# Coordination Sequence:
#
# PCOD8307029 Si02
#       3
#     8   8   4
#     4   9  19  35  52  72 100 131 163 201 244 290
#     4   9  19  35  52  72 100 131 163 201 244 290
#     4  12  18  26  52  84 100 118 162 210 248 284
#
# _framework density 20.104505
#
# number of rings (size 3 to 8) (size 9 to 14) (size 15 to 20)
#    0.000    2.400    0.000    6.000    0.000    3.200 
#    0.000    0.000    0.000   19.200    0.000   44.800 
#    0.000    0.000    0.000    0.000    0.000    0.000 
#
# Total GULP energy -247927.484182 kJ/mol
# GULP energy per Si atom -12396.374209 kJ/mol
# Density = 2.005875 g / cm^3
# Si number density = 20.104505 Si / 1000 Ang^3
#
#
#
# Elastic Constant Matrix: (Units=GPa)
#
#
# Indices 1 2 3 4 5 6 
#
# 1 87.6028 5.4609 54.3459 0.0000 0.0000 0.0000
# 2 5.4609 87.6028 54.3459 0.0000 0.0000 0.0000
# 3 54.3459 54.3459 123.4946 0.0000 0.0000 0.0000
# 4 0.0000 0.0000 0.0000 41.8443 0.0000 0.0000
# 5 0.0000 0.0000 0.0000 0.0000 41.8443 0.0000
# 6 0.0000 0.0000 0.0000 0.0000 0.0000 8.1364
#
#
#
# Elastic Compliance Matrix: (Units=1/GPa)
#
#
# Indices 1 2 3 4 5 6 
#
# 1 0.017141 0.004967 -0.009729 0.000000 0.000000 0.000000
# 2 0.004967 0.017141 -0.009729 0.000000 0.000000 0.000000
# 3 -0.009729 -0.009729 0.016660 0.000000 0.000000 0.000000
# 4 0.000000 0.000000 0.000000 0.023898 0.000000 0.000000
# 5 0.000000 0.000000 0.000000 0.000000 0.023898 0.000000
# 6 0.000000 0.000000 0.000000 0.000000 0.000000 0.122904
#
#
# Mechanical properties :
#
#
# Convention : Reuss Voigt Hill
#
# Bulk Modulus (GPa) = 45.53635 58.55617 52.04626
# Shear Modulus (GPa) = 19.38394 30.66818 25.02606
#
# Velocity S-wave (km/s) = 3.10846 3.90992 3.53200
# Velocity P-wave (km/s) = 5.96509 7.04077 6.52514
#
# Compressibility (1/GPa) = 0.02196048
#
# Stress axis : x y z
#
# Youngs Moduli (GPa) = 58.33921 58.33921 60.02251
#
# Poissons Ratio (x) = -0.28977 0.58396
# Poissons Ratio (y) = -0.28977 0.58396
# Poissons Ratio (z) = 0.56759 0.56759
#
# Static dielectric constant tensor:
#      x y z
#    x 3.369660 0.000000 0.000000 
#    y 0.000000 3.369660 0.000000 
#    z 0.000000 0.000000 4.037880 
# 
# 
# High freq. dielectric constant tensor:
#      x y z
#    x 1.744700 0.000000 0.000000 
#    y 0.000000 1.744700 0.000000 
#    z 0.000000 0.000000 1.826120 
# 
# From -- ./inp_files/408.got.cif
#   From: 2010.03.12/outbox.cif.g09.slc.cpg/sg103_cif.got.tgz:408.got - 2010.04.14 01:42:52.
