data_PCOD8307028
_publ_section_title
;
Structure prediction by ZEFSAII (Michael W. Deem and Ramdas Pophale) SiO2 
 PCOD8307028
Probable space group: P 4 C C
;
_chemical_formula_sum "Si O2"
_cell_formula_units_Z 36
_cell_length_a 12.545415
_cell_length_b 12.545415
_cell_length_c 9.495344
_cell_angle_alpha 90.000000
_cell_angle_beta 90.000000
_cell_angle_gamma 90.000000
_cell_volume 1494.447861
_symmetry_space_group_name_H-M "P 4 C C"
_symmetry_group_IT_number 103
_symmetry_cell_setting 'tetragonal'
loop_
_space_group_symop_operation_xyz
x,y,z
-y,x,z
-x,-y,z
y,-x,z
-x,y,1/2+z
x,-y,1/2+z
-y,-x,1/2+z
y,x,1/2+z
loop_
_atom_site_type_symbol
_atom_site_label
_atom_site_fract_x
_atom_site_fract_y
_atom_site_fract_z
Si Si1 0.809300 0.532073 0.375000
Si Si2 0.962102 0.170940 0.266651
Si Si3 0.000000 0.500000 0.189545
Si Si4 0.462102 0.670940 0.112438
Si Si5 0.032073 0.309300 0.504089
O O1 0.900758 0.468962 0.288778
O O2 0.713512 0.559617 0.269101
O O3 0.765513 0.454104 0.497626
O O4 0.859309 0.640691 0.439545
O O5 0.954104 0.265513 0.381463
O O6 0.874535 0.080853 0.289708
O O7 0.940383 0.213512 0.109988
O O8 0.031038 0.400758 0.090311
O O9 0.374535 0.580853 0.089381
#
# Coordination Sequence:
#
# PCOD8307028 Si02
#       5
#     8   8   4   8   8
#     4  12  25  45  75 105 146 196 244 304 371 437
#     4  11  26  50  76 109 151 196 248 310 376 446
#     4  12  26  48  66 104 158 188 242 324 374 424
#     4  11  26  50  76 109 151 196 248 310 376 446
#     4  12  25  45  75 105 146 196 244 304 371 437
#
# _framework density 24.089162999999999
#
# number of rings (size 3 to 8) (size 9 to 14) (size 15 to 20)
#    0.000    0.444    4.444    3.333    0.000    5.333 
#    8.000    0.000    0.000    0.000    0.000    0.000 
#    0.000    0.000    0.000    0.000    0.000    0.000 
#
# Total GULP energy -446475.891444 kJ/mol
# GULP energy per Si atom -12402.108096 kJ/mol
# Density = 2.403433 g / cm^3
# Si number density = 24.089163 Si / 1000 Ang^3
#
#
#
# Elastic Constant Matrix: (Units=GPa)
#
#
# Indices 1 2 3 4 5 6 
#
# 1 102.7032 39.2150 50.3927 0.0000 0.0000 0.0000
# 2 39.2150 102.7032 50.3927 0.0000 0.0000 0.0000
# 3 50.3927 50.3927 171.4803 0.0000 0.0000 0.0000
# 4 0.0000 0.0000 0.0000 41.5061 0.0000 0.0000
# 5 0.0000 0.0000 0.0000 0.0000 41.5061 0.0000
# 6 0.0000 0.0000 0.0000 0.0000 0.0000 39.2517
#
#
#
# Elastic Compliance Matrix: (Units=1/GPa)
#
#
# Indices 1 2 3 4 5 6 
#
# 1 0.012328 -0.003423 -0.002617 0.000000 0.000000 0.000000
# 2 -0.003423 0.012328 -0.002617 0.000000 0.000000 0.000000
# 3 -0.002617 -0.002617 0.007370 0.000000 0.000000 0.000000
# 4 0.000000 0.000000 0.000000 0.024093 0.000000 0.000000
# 5 0.000000 0.000000 0.000000 0.000000 0.024093 0.000000
# 6 0.000000 0.000000 0.000000 0.000000 0.000000 0.025477
#
#
# Mechanical properties :
#
#
# Convention : Reuss Voigt Hill
#
# Bulk Modulus (GPa) = 67.97310 72.98748 70.48029
# Shear Modulus (GPa) = 39.09154 40.24520 39.66837
#
# Velocity S-wave (km/s) = 4.03275 4.09183 4.06240
# Velocity P-wave (km/s) = 7.06843 7.25870 7.16419
#
# Compressibility (1/GPa) = 0.01471170
#
# Stress axis : x y z
#
# Youngs Moduli (GPa) = 81.11731 81.11731 135.69324
#
# Poissons Ratio (x) = 0.27768 0.35508
# Poissons Ratio (y) = 0.27768 0.35508
# Poissons Ratio (z) = 0.21227 0.21227
#
# Static dielectric constant tensor:
#      x y z
#    x 4.139860 0.000000 0.000000 
#    y 0.000000 4.139860 0.000000 
#    z 0.000000 0.000000 4.691080 
# 
# 
# High freq. dielectric constant tensor:
#      x y z
#    x 1.945160 0.000000 0.000000 
#    y 0.000000 1.945160 0.000000 
#    z 0.000000 0.000000 1.987050 
# 
# From -- ./inp_files/174.got.cif
#   From: 2010.03.12/outbox.cif.g09.slc.cpg/sg103_cif.got.tgz:174.got - 2010.04.14 01:42:52.
