data_PCOD8307344
_publ_section_title
;
Structure prediction by ZEFSAII (Michael W. Deem and Ramdas Pophale) SiO2 
 PCOD8307344
Probable space group: P 42 M C
;
_chemical_formula_sum "Si O2"
_cell_formula_units_Z 32
_cell_length_a 7.915055
_cell_length_b 7.915055
_cell_length_c 23.943755
_cell_angle_alpha 90.000000
_cell_angle_beta 90.000000
_cell_angle_gamma 90.000000
_cell_volume 1500.030654
_symmetry_space_group_name_H-M "P 42 M C"
_symmetry_group_IT_number 105
_symmetry_cell_setting 'tetragonal'
loop_
_space_group_symop_operation_xyz
x,y,z
-y,x,1/2+z
-x,-y,z
y,-x,1/2+z
-x,y,z
x,-y,z
-y,-x,1/2+z
y,x,1/2+z
loop_
_atom_site_type_symbol
_atom_site_label
_atom_site_fract_x
_atom_site_fract_y
_atom_site_fract_z
Si Si1 0.302286 0.310492 0.283400
Si Si2 0.695216 0.192947 0.666066
Si Si3 0.302451 0.686405 0.904256
Si Si4 0.688510 0.000000 0.092382
Si Si5 0.811490 0.000000 0.972350
O O1 0.500000 0.302143 0.271435
O O2 0.233254 0.500000 0.286676
O O3 0.210617 0.231154 0.229339
O O4 0.262012 0.221872 0.343489
O O5 0.500000 0.263197 0.660727
O O6 0.827013 0.289218 0.626773
O O7 0.698161 0.000000 0.647590
O O8 0.500000 0.666093 0.894134
O O9 0.232150 0.500000 0.923024
O O10 0.272571 0.828174 0.950353
O O11 0.500000 0.000000 0.068470
O O12 0.810540 0.000000 0.039094
O O13 0.000000 0.000000 0.949861
#
# Coordination Sequence:
#
# PCOD8307344 Si02
#       5
#     8   8   8   4   4
#     4   8  15  31  57  88 121 156 197 245 296 357
#     4  10  21  38  62  93 126 161 199 250 316 373
#     4   9  19  38  64  91 119 157 206 256 305 365
#     4  12  26  44  64  86 116 164 214 261 302 359
#     4  12  26  42  60  86 124 162 204 253 314 369
#
# _framework density 21.332899000000001
#
# number of rings (size 3 to 8) (size 9 to 14) (size 15 to 20)
#    0.000    2.250    0.000    4.500    1.750    3.000 
#    2.250    0.000    0.000    0.000    0.000    0.000 
#    0.000    0.000    0.000    0.000    0.000    0.000 
#
# Total GULP energy -396419.812998 kJ/mol
# GULP energy per Si atom -12388.119156 kJ/mol
# Density = 2.128434 g / cm^3
# Si number density = 21.332899 Si / 1000 Ang^3
#
#
#
# Elastic Constant Matrix: (Units=GPa)
#
#
# Indices 1 2 3 4 5 6 
#
# 1 81.9566 20.0107 39.2417 0.0000 0.0000 0.0000
# 2 20.0107 81.9566 39.2417 0.0000 0.0000 0.0000
# 3 39.2417 39.2417 130.5987 0.0000 0.0000 0.0000
# 4 0.0000 0.0000 0.0000 8.8326 0.0000 0.0000
# 5 0.0000 0.0000 0.0000 0.0000 8.8326 0.0000
# 6 0.0000 0.0000 0.0000 0.0000 0.0000 14.3430
#
#
#
# Elastic Compliance Matrix: (Units=1/GPa)
#
#
# Indices 1 2 3 4 5 6 
#
# 1 0.014450 -0.001693 -0.003833 0.000000 0.000000 0.000000
# 2 -0.001693 0.014450 -0.003833 0.000000 0.000000 0.000000
# 3 -0.003833 -0.003833 0.009961 0.000000 0.000000 0.000000
# 4 0.000000 0.000000 0.000000 0.113217 0.000000 0.000000
# 5 0.000000 0.000000 0.000000 0.000000 0.113217 0.000000
# 6 0.000000 0.000000 0.000000 0.000000 0.000000 0.069721
#
#
# Mechanical properties :
#
#
# Convention : Reuss Voigt Hill
#
# Bulk Modulus (GPa) = 49.64636 54.61112 52.12874
# Shear Modulus (GPa) = 13.87160 19.46948 16.67054
#
# Velocity S-wave (km/s) = 2.55276 3.02429 2.79847
# Velocity P-wave (km/s) = 5.65787 6.15225 5.91023
#
# Compressibility (1/GPa) = 0.02014246
#
# Stress axis : x y z
#
# Youngs Moduli (GPa) = 69.20252 69.20252 100.39466
#
# Poissons Ratio (x) = 0.11715 0.38485
# Poissons Ratio (y) = 0.11715 0.38485
# Poissons Ratio (z) = 0.26528 0.26528
#
# Static dielectric constant tensor:
#      x y z
#    x 3.656950 0.000000 0.000000 
#    y 0.000000 3.656950 0.000000 
#    z 0.000000 0.000000 3.842870 
# 
# 
# High freq. dielectric constant tensor:
#      x y z
#    x 1.821880 0.000000 0.000000 
#    y 0.000000 1.821880 0.000000 
#    z 0.000000 0.000000 1.837400 
# 
# From -- ./inp_files/3866.got.cif
#   From: 2010.03.12/outbox.cif.g09.slc.cpg/sg105_2_cif.got.tgz:3866.got - 2010.04.14 01:45:32.
