data_PCOD8307962
_publ_section_title
;
Structure prediction by ZEFSAII (Michael W. Deem and Ramdas Pophale) SiO2 
 PCOD8307962
Probable space group: I 41 M D
;
_chemical_formula_sum "Si O2"
_cell_formula_units_Z 112
_cell_length_a 27.964331
_cell_length_b 27.964331
_cell_length_c 6.487659
_cell_angle_alpha 90.000000
_cell_angle_beta 90.000000
_cell_angle_gamma 90.000000
_cell_volume 5073.374045
_symmetry_space_group_name_H-M "I 41 M D"
_symmetry_group_IT_number 109
_symmetry_cell_setting 'tetragonal'
loop_
_space_group_symop_operation_xyz
x,y,z
-y,1/2+x,1/4+z
-x,-y,z
y,1/2-x,1/4+z
-x,y,z
x,-y,z
-y,1/2-x,1/4+z
y,1/2+x,1/4+z
1/2+x,1/2+y,1/2+z
1/2-y,x,3/4+z
1/2-x,1/2-y,1/2+z
1/2+y,-x,3/4+z
1/2-x,1/2+y,1/2+z
1/2+x,1/2-y,1/2+z
1/2-y,-x,3/4+z
1/2+y,x,3/4+z
loop_
_atom_site_type_symbol
_atom_site_label
_atom_site_fract_x
_atom_site_fract_y
_atom_site_fract_z
Si Si1 0.054144 0.627908 0.899710
Si Si2 0.945156 0.446987 0.553679
Si Si3 0.584456 0.621876 0.457432
Si Si4 0.099058 0.724026 0.903297
Si Si5 0.202723 0.386479 0.493751
Si Si6 0.945845 0.803727 0.640710
Si Si7 0.705436 0.700387 0.008774
O O1 0.071943 0.594284 0.711690
O O2 0.058401 0.684484 0.858308
O O3 0.000000 0.614041 0.950089
O O4 0.085915 0.621018 0.101115
O O5 0.941374 0.500000 0.656385
O O6 0.910016 0.448210 0.357509
O O7 0.000000 0.437193 0.483968
O O8 0.616170 0.660177 0.579576
O O9 0.553268 0.648759 0.282559
O O10 0.089784 0.764482 0.733580
O O11 0.149602 0.697374 0.869210
O O12 0.097141 0.748013 0.130969
O O13 0.186763 0.425557 0.662800
O O14 0.209063 0.333302 0.580737
O O15 0.000000 0.784862 0.623607
O O16 0.758979 0.700543 0.927204
#
# Coordination Sequence:
#
# PCOD8307962 Si02
#       7
#    16  16  16  16  16  16  16
#     4  11  25  43  68 100 138 181 225 279 339 400
#     4  10  22  41  65  97 135 176 226 280 337 401
#     4  11  23  40  68  96 135 172 227 277 336 399
#     4  11  25  44  67  97 136 173 226 277 331 408
#     4  11  26  43  64  99 132 174 222 282 333 407
#     4  11  24  45  68  96 136 181 225 277 337 399
#     4  12  24  42  69 100 133 175 220 279 342 405
#
# _framework density 22.076038
#
# number of rings (size 3 to 8) (size 9 to 14) (size 15 to 20)
#    0.000    1.000    1.429    4.714    4.000    6.857 
#    0.000    1.429    0.000    0.000    0.000    0.000 
#    0.000    0.000    0.000    0.000    0.000    0.000 
#
# Total GULP energy -694473.263799 kJ/mol
# GULP energy per Si atom -12401.308282 kJ/mol
# Density = 2.202579 g / cm^3
# Si number density = 22.076038 Si / 1000 Ang^3
#
#
#
# Elastic Constant Matrix: (Units=GPa)
#
#
# Indices 1 2 3 4 5 6 
#
# 1 117.5339 17.2374 44.6940 0.0000 0.0000 0.0000
# 2 17.2374 117.5339 44.6940 0.0000 0.0000 0.0000
# 3 44.6940 44.6940 113.2270 0.0000 0.0000 0.0000
# 4 0.0000 0.0000 0.0000 30.1127 0.0000 0.0000
# 5 0.0000 0.0000 0.0000 0.0000 30.1127 0.0000
# 6 0.0000 0.0000 0.0000 0.0000 0.0000 30.7500
#
#
#
# Elastic Compliance Matrix: (Units=1/GPa)
#
#
# Indices 1 2 3 4 5 6 
#
# 1 0.010011 0.000041 -0.003968 0.000000 0.000000 0.000000
# 2 0.000041 0.010011 -0.003968 0.000000 0.000000 0.000000
# 3 -0.003968 -0.003968 0.011964 0.000000 0.000000 0.000000
# 4 0.000000 0.000000 0.000000 0.033209 0.000000 0.000000
# 5 0.000000 0.000000 0.000000 0.000000 0.033209 0.000000
# 6 0.000000 0.000000 0.000000 0.000000 0.000000 0.032520
#
#
# Mechanical properties :
#
#
# Convention : Reuss Voigt Hill
#
# Bulk Modulus (GPa) = 61.74124 62.39398 62.06761
# Shear Modulus (GPa) = 32.87052 34.30636 33.58844
#
# Velocity S-wave (km/s) = 3.86290 3.94637 3.90486
# Velocity P-wave (km/s) = 6.92274 7.00640 6.96469
#
# Compressibility (1/GPa) = 0.01619663
#
# Stress axis : x y z
#
# Youngs Moduli (GPa) = 99.89021 99.89021 83.58336
#
# Poissons Ratio (x) = -0.00405 0.33163
# Poissons Ratio (y) = -0.00405 0.33163
# Poissons Ratio (z) = 0.39633 0.39633
#
# Static dielectric constant tensor:
#      x y z
#    x 3.986930 0.000000 0.000000 
#    y 0.000000 3.986930 0.000000 
#    z 0.000000 0.000000 3.917310 
# 
# 
# High freq. dielectric constant tensor:
#      x y z
#    x 1.875760 0.000000 0.000000 
#    y 0.000000 1.875760 0.000000 
#    z 0.000000 0.000000 1.863690 
# 
# From -- ./inp_files/717.got.cif
#   From: 2010.03.12/outbox.cif.g09.slc.cpg/sg109_1_cif.got.tgz:717.got - 2010.04.14 01:55:16.
