data_PCOD8307938
_publ_section_title
;
Structure prediction by ZEFSAII (Michael W. Deem and Ramdas Pophale) SiO2 
 PCOD8307938
Probable space group: I 41 M D
;
_chemical_formula_sum "Si O2"
_cell_formula_units_Z 112
_cell_length_a 28.932443
_cell_length_b 28.932443
_cell_length_c 6.402529
_cell_angle_alpha 90.000000
_cell_angle_beta 90.000000
_cell_angle_gamma 90.000000
_cell_volume 5359.469042
_symmetry_space_group_name_H-M "I 41 M D"
_symmetry_group_IT_number 109
_symmetry_cell_setting 'tetragonal'
loop_
_space_group_symop_operation_xyz
x,y,z
-y,1/2+x,1/4+z
-x,-y,z
y,1/2-x,1/4+z
-x,y,z
x,-y,z
-y,1/2-x,1/4+z
y,1/2+x,1/4+z
1/2+x,1/2+y,1/2+z
1/2-y,x,3/4+z
1/2-x,1/2-y,1/2+z
1/2+y,-x,3/4+z
1/2-x,1/2+y,1/2+z
1/2+x,1/2-y,1/2+z
1/2-y,-x,3/4+z
1/2+y,x,3/4+z
loop_
_atom_site_type_symbol
_atom_site_label
_atom_site_fract_x
_atom_site_fract_y
_atom_site_fract_z
Si Si1 0.248409 0.369060 0.659510
Si Si2 0.553097 0.948529 0.925564
Si Si3 0.946723 0.627985 0.078984
Si Si4 0.405648 0.700605 0.288414
Si Si5 0.763871 0.052038 0.872764
Si Si6 0.847396 0.168593 0.167443
Si Si7 0.380541 0.088240 0.247260
O O1 0.238771 0.418888 0.552502
O O2 0.217916 0.333564 0.521275
O O3 0.301153 0.358472 0.625939
O O4 0.231964 0.371363 0.897939
O O5 0.500000 0.940916 0.001575
O O6 0.589001 0.949351 0.120868
O O7 0.557358 0.000000 0.821596
O O8 0.567004 0.907095 0.767319
O O9 0.936565 0.681608 0.126174
O O10 0.000000 0.620471 0.021353
O O11 0.916981 0.617215 0.878389
O O12 0.439487 0.737120 0.402261
O O13 0.373796 0.672629 0.449001
O O14 0.431653 0.661077 0.146690
O O15 0.755449 0.000000 0.937835
O O16 0.877434 0.141378 0.332812
#
# Coordination Sequence:
#
# PCOD8307938 Si02
#       7
#    16  16  16  16  16  16  16
#     4  10  21  39  59  84 115 152 189 236 293 349
#     4  10  22  38  56  85 122 156 200 253 299 358
#     4  10  21  38  63  90 117 157 203 248 298 355
#     4  10  22  38  59  85 119 154 193 243 299 355
#     4  10  21  37  59  87 116 148 196 247 287 347
#     4  10  22  40  59  86 116 151 193 242 293 354
#     4  11  20  36  61  84 115 158 194 235 303 361
#
# _framework density 20.897592
#
# number of rings (size 3 to 8) (size 9 to 14) (size 15 to 20)
#    0.000    1.857    0.000    3.857    0.000    5.143 
#    2.571   15.000    0.000    0.000    0.000    0.000 
#    0.000    0.000    0.000    0.000    0.000    0.000 
#
# Total GULP energy -693891.992412 kJ/mol
# GULP energy per Si atom -12390.928436 kJ/mol
# Density = 2.085003 g / cm^3
# Si number density = 20.897592 Si / 1000 Ang^3
#
#
#
# Elastic Constant Matrix: (Units=GPa)
#
#
# Indices 1 2 3 4 5 6 
#
# 1 82.8985 50.2281 51.3956 0.0000 0.0000 0.0000
# 2 50.2281 82.8985 51.3956 0.0000 0.0000 0.0000
# 3 51.3956 51.3956 116.2355 0.0000 0.0000 0.0000
# 4 0.0000 0.0000 0.0000 23.8472 0.0000 0.0000
# 5 0.0000 0.0000 0.0000 0.0000 23.8472 0.0000
# 6 0.0000 0.0000 0.0000 0.0000 0.0000 20.1274
#
#
#
# Elastic Compliance Matrix: (Units=1/GPa)
#
#
# Indices 1 2 3 4 5 6 
#
# 1 0.021007 -0.009602 -0.005043 0.000000 0.000000 0.000000
# 2 -0.009602 0.021007 -0.005043 0.000000 0.000000 0.000000
# 3 -0.005043 -0.005043 0.013063 0.000000 0.000000 0.000000
# 4 0.000000 0.000000 0.000000 0.041934 0.000000 0.000000
# 5 0.000000 0.000000 0.000000 0.000000 0.041934 0.000000
# 6 0.000000 0.000000 0.000000 0.000000 0.000000 0.049684
#
#
# Mechanical properties :
#
#
# Convention : Reuss Voigt Hill
#
# Bulk Modulus (GPa) = 63.68783 65.34124 64.51453
# Shear Modulus (GPa) = 21.43731 22.16524 21.80127
#
# Velocity S-wave (km/s) = 3.20633 3.26031 3.23343
# Velocity P-wave (km/s) = 6.65204 6.74597 6.69917
#
# Compressibility (1/GPa) = 0.01570159
#
# Stress axis : x y z
#
# Youngs Moduli (GPa) = 47.60268 47.60268 76.55128
#
# Poissons Ratio (x) = 0.45706 0.38607
# Poissons Ratio (y) = 0.45706 0.38607
# Poissons Ratio (z) = 0.24007 0.24007
#
# Static dielectric constant tensor:
#      x y z
#    x 3.892850 0.000000 0.000000 
#    y 0.000000 3.892850 0.000000 
#    z 0.000000 0.000000 3.928980 
# 
# 
# High freq. dielectric constant tensor:
#      x y z
#    x 1.819090 0.000000 0.000000 
#    y 0.000000 1.819090 0.000000 
#    z 0.000000 0.000000 1.821400 
# 
# From -- ./inp_files/722.got.cif
#   From: 2010.03.12/outbox.cif.g09.slc.cpg/sg109_1_cif.got.tgz:722.got - 2010.04.14 01:55:16.
