data_PCOD8307297
_publ_section_title
;
Structure prediction by ZEFSAII (Michael W. Deem and Ramdas Pophale) SiO2 
 PCOD8307297
Probable space group: P 42 M C
;
_chemical_formula_sum "Si O2"
_cell_formula_units_Z 64
_cell_length_a 20.039164
_cell_length_b 20.039164
_cell_length_c 9.950982
_cell_angle_alpha 90.000000
_cell_angle_beta 90.000000
_cell_angle_gamma 90.000000
_cell_volume 3995.996873
_symmetry_space_group_name_H-M "P 42 M C"
_symmetry_group_IT_number 105
_symmetry_cell_setting 'tetragonal'
loop_
_space_group_symop_operation_xyz
x,y,z
-y,x,1/2+z
-x,-y,z
y,-x,1/2+z
-x,y,z
x,-y,z
-y,-x,1/2+z
y,x,1/2+z
loop_
_atom_site_type_symbol
_atom_site_label
_atom_site_fract_x
_atom_site_fract_y
_atom_site_fract_z
Si Si1 0.421596 0.657684 0.216140
Si Si2 0.337447 0.228173 0.309861
Si Si3 0.171279 0.714500 0.061911
Si Si4 0.728173 0.837447 0.082487
Si Si5 0.785500 0.671279 0.330437
Si Si6 0.842316 0.921596 0.176208
Si Si7 0.078372 0.826405 0.984882
Si Si8 0.421628 0.673595 0.907466
O O1 0.500000 0.644113 0.230229
O O2 0.404271 0.730132 0.278737
O O3 0.382165 0.602463 0.301765
O O4 0.397908 0.655368 0.059770
O O5 0.340902 0.190631 0.451471
O O6 0.327610 0.172390 0.196174
O O7 0.273715 0.276027 0.314853
O O8 0.223973 0.773715 0.077495
O O9 0.169845 0.669845 0.196174
O O10 0.102480 0.751979 0.025217
O O11 0.769868 0.904271 0.113611
O O12 0.690631 0.840902 0.940877
O O13 0.748021 0.602480 0.367131
O O14 0.844632 0.897908 0.332578
O O15 0.897537 0.882165 0.090582
O O16 0.855887 0.000000 0.162118
O O17 0.000000 0.824920 0.990474
O O18 0.500000 0.675080 0.901873
#
# Coordination Sequence:
#
# PCOD8307297 Si02
#       8
#     8   8   8   8   8   8   8   8
#     4  10  21  34  48  68  95 129 164 196 231 276
#     4   9  15  28  47  68  89 114 150 191 245 281
#     4   9  17  28  47  71  91 117 150 195 245 286
#     4   9  15  28  47  68  89 114 150 191 245 281
#     4   9  17  28  47  71  91 117 150 195 245 286
#     4  10  21  34  48  68  95 129 164 196 231 276
#     4  10  21  35  48  67  97 130 162 195 232 275
#     4  10  21  35  48  67  97 130 162 195 232 275
#
# _framework density 16.016029
#
# number of rings (size 3 to 8) (size 9 to 14) (size 15 to 20)
#    0.000    2.500    2.500    0.000   10.500    1.500 
#    0.000    2.500    0.000    0.000    0.000    0.000 
#    0.000    6.000    0.000    0.000    0.000    0.000 
#
# Total GULP energy -793060.799954 kJ/mol
# GULP energy per Si atom -12391.574999 kJ/mol
# Density = 1.597958 g / cm^3
# Si number density = 16.016029 Si / 1000 Ang^3
#
#
#
# Elastic Constant Matrix: (Units=GPa)
#
#
# Indices 1 2 3 4 5 6 
#
# 1 39.2866 41.0649 45.7786 0.0000 0.0000 0.0000
# 2 41.0649 39.2866 45.7786 0.0000 0.0000 0.0000
# 3 45.7786 45.7786 148.7842 0.0000 0.0000 0.0000
# 4 0.0000 0.0000 0.0000 22.1814 0.0000 0.0000
# 5 0.0000 0.0000 0.0000 0.0000 22.1814 0.0000
# 6 0.0000 0.0000 0.0000 0.0000 0.0000 15.5892
#
#
#
# Elastic Compliance Matrix: (Units=1/GPa)
#
#
# Indices 1 2 3 4 5 6 
#
# 1 -0.271588 0.290752 -0.005897 0.000000 0.000000 0.000000
# 2 0.290752 -0.271588 -0.005897 0.000000 0.000000 0.000000
# 3 -0.005897 -0.005897 0.010350 0.000000 0.000000 0.000000
# 4 0.000000 0.000000 0.000000 0.045083 0.000000 0.000000
# 5 0.000000 0.000000 0.000000 0.000000 0.045083 0.000000
# 6 0.000000 0.000000 0.000000 0.000000 0.000000 0.064147
#
#
# Mechanical properties :
#
#
# Convention : Reuss Voigt Hill
#
# Bulk Modulus (GPa) = 39.85351 54.73353 47.29352
# Shear Modulus (GPa) = -5.38755 18.30610 6.45928
#
# Velocity S-wave (km/s) = -1.83607 3.38448 2.01041
# Velocity P-wave (km/s) = 4.52136 7.03714 5.91456
#
# Compressibility (1/GPa) = 0.02509190
#
# Stress axis : x y z
#
# Youngs Moduli (GPa) = -3.68205 -3.68205 96.62137
#
# Poissons Ratio (x) = 1.07056 0.56973
# Poissons Ratio (y) = 1.07056 0.56973
# Poissons Ratio (z) = -0.02171 -0.02171
#
# Static dielectric constant tensor:
#      x y z
#    x 2.823640 0.000000 0.000000 
#    y 0.000000 2.823640 0.000000 
#    z 0.000000 0.000000 3.608960 
# 
# 
# High freq. dielectric constant tensor:
#      x y z
#    x 1.580070 0.000000 0.000000 
#    y 0.000000 1.580070 0.000000 
#    z 0.000000 0.000000 1.643810 
# 
# From -- ./inp_files/1199.got.cif
#   From: 2010.03.12/outbox.cif.g09.slc.cpg/sg105_1_cif.got.tgz:1199.got - 2010.04.14 01:45:32.
