data_PCOD8307898
_publ_section_title
;
Structure prediction by ZEFSAII (Michael W. Deem and Ramdas Pophale) SiO2 
 PCOD8307898
Probable space group: I 41 M D
;
_chemical_formula_sum "Si O2"
_cell_formula_units_Z 112
_cell_length_a 15.090242
_cell_length_b 15.090242
_cell_length_c 26.226271
_cell_angle_alpha 90.000000
_cell_angle_beta 90.000000
_cell_angle_gamma 90.000000
_cell_volume 5972.125886
_symmetry_space_group_name_H-M "I 41 M D"
_symmetry_group_IT_number 109
_symmetry_cell_setting 'tetragonal'
loop_
_space_group_symop_operation_xyz
x,y,z
-y,1/2+x,1/4+z
-x,-y,z
y,1/2-x,1/4+z
-x,y,z
x,-y,z
-y,1/2-x,1/4+z
y,1/2+x,1/4+z
1/2+x,1/2+y,1/2+z
1/2-y,x,3/4+z
1/2-x,1/2-y,1/2+z
1/2+y,-x,3/4+z
1/2-x,1/2+y,1/2+z
1/2+x,1/2-y,1/2+z
1/2-y,-x,3/4+z
1/2+y,x,3/4+z
loop_
_atom_site_type_symbol
_atom_site_label
_atom_site_fract_x
_atom_site_fract_y
_atom_site_fract_z
Si Si1 0.401070 0.725516 0.446580
Si Si2 0.400176 0.689352 0.851882
Si Si3 0.600582 0.099687 0.500260
Si Si4 0.754175 0.600777 0.082484
Si Si5 0.401747 0.733927 0.062582
Si Si6 0.400118 0.197512 0.951550
Si Si7 0.098006 0.260179 0.241231
O O1 0.500000 0.699977 0.464193
O O2 0.384950 0.831000 0.454450
O O3 0.386572 0.703137 0.387805
O O4 0.334860 0.668940 0.479947
O O5 0.500000 0.649181 0.858596
O O6 0.327261 0.613260 0.842343
O O7 0.373569 0.745657 0.901828
O O8 0.397821 0.750845 0.802085
O O9 0.500000 0.105049 0.521563
O O10 0.667796 0.128362 0.544529
O O11 0.620798 0.000000 0.480337
O O12 0.723041 0.500000 0.073406
O O13 0.668670 0.661479 0.078678
O O14 0.500000 0.701691 0.077752
O O15 0.394560 0.741409 0.001564
O O16 0.500000 0.158803 0.945317
O O17 0.330439 0.118291 0.960133
O O18 0.000000 0.290143 0.224310
#
# Coordination Sequence:
#
# PCOD8307898 Si02
#       7
#    16  16  16  16  16  16  16
#     4  10  21  36  53  74 103 136 168 209 258 303
#     4   9  18  34  54  75 103 136 169 210 256 299
#     4   9  18  34  56  78  98 127 170 214 256 305
#     4  10  21  36  53  74 103 136 168 209 258 303
#     4  10  20  33  52  77 104 137 173 207 247 299
#     4   9  18  34  54  75 103 136 169 210 256 299
#     4  10  20  33  52  77 104 137 173 207 247 299
#
# _framework density 18.753791
#
# number of rings (size 3 to 8) (size 9 to 14) (size 15 to 20)
#    0.000    2.429    0.000    2.571    0.000    2.286 
#    0.000   10.000    0.000    5.143    0.000    0.000 
#    0.000    0.000    0.000    0.000    0.000    0.000 
#
# Total GULP energy -694169.289521 kJ/mol
# GULP energy per Si atom -12395.880170 kJ/mol
# Density = 1.871111 g / cm^3
# Si number density = 18.753791 Si / 1000 Ang^3
#
#
#
# Elastic Constant Matrix: (Units=GPa)
#
#
# Indices 1 2 3 4 5 6 
#
# 1 85.8800 43.1317 20.5860 0.0000 0.0000 0.0000
# 2 43.1317 85.8800 20.5860 0.0000 0.0000 0.0000
# 3 20.5860 20.5860 76.9674 0.0000 0.0000 0.0000
# 4 0.0000 0.0000 0.0000 19.9080 0.0000 0.0000
# 5 0.0000 0.0000 0.0000 0.0000 19.9080 0.0000
# 6 0.0000 0.0000 0.0000 0.0000 0.0000 20.0045
#
#
#
# Elastic Compliance Matrix: (Units=1/GPa)
#
#
# Indices 1 2 3 4 5 6 
#
# 1 0.015934 -0.007459 -0.002267 0.000000 0.000000 0.000000
# 2 -0.007459 0.015934 -0.002267 0.000000 0.000000 0.000000
# 3 -0.002267 -0.002267 0.014205 0.000000 0.000000 0.000000
# 4 0.000000 0.000000 0.000000 0.050231 0.000000 0.000000
# 5 0.000000 0.000000 0.000000 0.000000 0.050231 0.000000
# 6 0.000000 0.000000 0.000000 0.000000 0.000000 0.049989
#
#
# Mechanical properties :
#
#
# Convention : Reuss Voigt Hill
#
# Bulk Modulus (GPa) = 45.27424 46.37052 45.82238
# Shear Modulus (GPa) = 21.94227 22.92567 22.43397
#
# Velocity S-wave (km/s) = 3.42426 3.50016 3.46242
# Velocity P-wave (km/s) = 6.31093 6.41205 6.36169
#
# Compressibility (1/GPa) = 0.02208761
#
# Stress axis : x y z
#
# Youngs Moduli (GPa) = 62.76010 62.76010 70.39774
#
# Poissons Ratio (x) = 0.46813 0.15957
# Poissons Ratio (y) = 0.46813 0.15957
# Poissons Ratio (z) = 0.14225 0.14225
#
# Static dielectric constant tensor:
#      x y z
#    x 3.491230 0.000000 0.000000 
#    y 0.000000 3.491230 0.000000 
#    z 0.000000 0.000000 3.431010 
# 
# 
# High freq. dielectric constant tensor:
#      x y z
#    x 1.725710 0.000000 0.000000 
#    y 0.000000 1.725710 0.000000 
#    z 0.000000 0.000000 1.726720 
# 
# From -- ./inp_files/4456.got.cif
#   From: 2010.03.12/outbox.cif.g09.slc.cpg/sg109_3_cif.got.tgz:4456.got - 2010.04.14 01:55:16.
