data_PCOD8307850
_publ_section_title
;
Structure prediction by ZEFSAII (Michael W. Deem and Ramdas Pophale) SiO2 
 PCOD8307850
Probable space group: I 41 M D
;
_chemical_formula_sum "Si O2"
_cell_formula_units_Z 128
_cell_length_a 20.560468
_cell_length_b 20.560468
_cell_length_c 18.549443
_cell_angle_alpha 90.000000
_cell_angle_beta 90.000000
_cell_angle_gamma 90.000000
_cell_volume 7841.458801
_symmetry_space_group_name_H-M "I 41 M D"
_symmetry_group_IT_number 109
_symmetry_cell_setting 'tetragonal'
loop_
_space_group_symop_operation_xyz
x,y,z
-y,1/2+x,1/4+z
-x,-y,z
y,1/2-x,1/4+z
-x,y,z
x,-y,z
-y,1/2-x,1/4+z
y,1/2+x,1/4+z
1/2+x,1/2+y,1/2+z
1/2-y,x,3/4+z
1/2-x,1/2-y,1/2+z
1/2+y,-x,3/4+z
1/2-x,1/2+y,1/2+z
1/2+x,1/2-y,1/2+z
1/2-y,-x,3/4+z
1/2+y,x,3/4+z
loop_
_atom_site_type_symbol
_atom_site_label
_atom_site_fract_x
_atom_site_fract_y
_atom_site_fract_z
Si Si1 0.073035 0.122519 0.317010
Si Si2 0.573503 0.727740 0.211152
Si Si3 0.773979 0.689202 0.062534
Si Si4 0.926497 0.272260 0.317482
Si Si5 0.877481 0.926965 0.461624
Si Si6 0.273979 0.310798 0.466100
Si Si7 0.620692 0.188986 0.966646
Si Si8 0.379308 0.311014 0.061988
O O1 0.088079 0.197261 0.336401
O O2 0.081007 0.081007 0.389317
O O3 0.122731 0.098910 0.255838
O O4 0.000000 0.113155 0.287305
O O5 0.500000 0.717115 0.238930
O O6 0.622412 0.704697 0.273731
O O7 0.588079 0.802739 0.192233
O O8 0.584469 0.687586 0.138278
O O9 0.809766 0.690234 0.139317
O O10 0.697250 0.693116 0.076394
O O11 0.796955 0.750000 0.014317
O O12 0.877588 0.295303 0.254903
O O13 0.915531 0.312414 0.390356
O O14 0.000000 0.282885 0.289704
O O15 0.901090 0.877269 0.522796
O O16 0.886845 0.000000 0.491329
O O17 0.197250 0.306884 0.452240
O O18 0.597177 0.250000 0.014317
#
# Coordination Sequence:
#
# PCOD8307850 Si02
#       8
#    16  16  16  16  16  16  16  16
#     4  10  20  32  46  69 103 137 167 199 239 289
#     4  10  20  32  49  75 103 131 162 204 251 291
#     4  10  18  30  52  77  99 126 165 209 244 284
#     4  10  20  32  49  75 103 131 162 204 251 291
#     4  10  20  32  46  69 103 137 167 199 239 289
#     4  10  18  30  52  77  99 126 165 209 244 284
#     4  10  18  29  50  73  98 131 169 200 236 289
#     4  10  18  29  50  73  98 131 169 200 236 289
#
# _framework density 16.323492999999999
#
# number of rings (size 3 to 8) (size 9 to 14) (size 15 to 20)
#    0.000    2.000    5.000    0.000    0.000    1.750 
#    0.000    0.000    0.000    2.250    0.000    0.000 
#    0.000    0.000    0.000    0.000    0.000    0.000 
#
# Total GULP energy -793775.867345 kJ/mol
# GULP energy per Si atom -12402.747927 kJ/mol
# Density = 1.628634 g / cm^3
# Si number density = 16.323493 Si / 1000 Ang^3
#
#
#
# Elastic Constant Matrix: (Units=GPa)
#
#
# Indices 1 2 3 4 5 6 
#
# 1 83.1850 31.0733 48.9929 0.0000 0.0000 0.0000
# 2 31.0733 83.1850 48.9929 0.0000 0.0000 0.0000
# 3 48.9929 48.9929 114.2661 0.0000 0.0000 0.0000
# 4 0.0000 0.0000 0.0000 23.4520 0.0000 0.0000
# 5 0.0000 0.0000 0.0000 0.0000 23.4520 0.0000
# 6 0.0000 0.0000 0.0000 0.0000 0.0000 12.0572
#
#
#
# Elastic Compliance Matrix: (Units=1/GPa)
#
#
# Indices 1 2 3 4 5 6 
#
# 1 0.016516 -0.002674 -0.005935 0.000000 0.000000 0.000000
# 2 -0.002674 0.016516 -0.005935 0.000000 0.000000 0.000000
# 3 -0.005935 -0.005935 0.013841 0.000000 0.000000 0.000000
# 4 0.000000 0.000000 0.000000 0.042640 0.000000 0.000000
# 5 0.000000 0.000000 0.000000 0.000000 0.042640 0.000000
# 6 0.000000 0.000000 0.000000 0.000000 0.000000 0.082938
#
#
# Mechanical properties :
#
#
# Convention : Reuss Voigt Hill
#
# Bulk Modulus (GPa) = 56.22738 59.86159 58.04448
# Shear Modulus (GPa) = 19.99155 21.89739 20.94447
#
# Velocity S-wave (km/s) = 3.50338 3.66657 3.58591
# Velocity P-wave (km/s) = 7.13340 7.39437 7.26506
#
# Compressibility (1/GPa) = 0.01778493
#
# Stress axis : x y z
#
# Youngs Moduli (GPa) = 60.54885 60.54885 72.25066
#
# Poissons Ratio (x) = 0.16190 0.42879
# Poissons Ratio (y) = 0.16190 0.42879
# Poissons Ratio (z) = 0.35934 0.35934
#
# Static dielectric constant tensor:
#      x y z
#    x 2.944700 0.000000 0.000000 
#    y 0.000000 2.944700 0.000000 
#    z 0.000000 0.000000 2.980390 
# 
# 
# High freq. dielectric constant tensor:
#      x y z
#    x 1.608750 0.000000 0.000000 
#    y 0.000000 1.608750 0.000000 
#    z 0.000000 0.000000 1.619860 
# 
# From -- ./inp_files/3299.got.cif
#   From: 2010.03.12/outbox.cif.g09.slc.cpg/sg109_2_cif.got.tgz:3299.got - 2010.04.14 01:55:16.
