data_PCOD8307945
_publ_section_title
;
Structure prediction by ZEFSAII (Michael W. Deem and Ramdas Pophale) SiO2 
 PCOD8307945
Probable space group: I 41 M D
;
_chemical_formula_sum "Si O2"
_cell_formula_units_Z 112
_cell_length_a 27.605160
_cell_length_b 27.605160
_cell_length_c 7.381801
_cell_angle_alpha 90.000000
_cell_angle_beta 90.000000
_cell_angle_gamma 90.000000
_cell_volume 5625.263499
_symmetry_space_group_name_H-M "I 41 M D"
_symmetry_group_IT_number 109
_symmetry_cell_setting 'tetragonal'
loop_
_space_group_symop_operation_xyz
x,y,z
-y,1/2+x,1/4+z
-x,-y,z
y,1/2-x,1/4+z
-x,y,z
x,-y,z
-y,1/2-x,1/4+z
y,1/2+x,1/4+z
1/2+x,1/2+y,1/2+z
1/2-y,x,3/4+z
1/2-x,1/2-y,1/2+z
1/2+y,-x,3/4+z
1/2-x,1/2+y,1/2+z
1/2+x,1/2-y,1/2+z
1/2-y,-x,3/4+z
1/2+y,x,3/4+z
loop_
_atom_site_type_symbol
_atom_site_label
_atom_site_fract_x
_atom_site_fract_y
_atom_site_fract_z
Si Si1 0.708769 0.404450 0.442070
Si Si2 0.787294 0.203355 0.983109
Si Si3 0.122764 0.442562 0.586749
Si Si4 0.722046 0.111725 0.603586
Si Si5 0.726897 0.944614 0.241087
Si Si6 0.556130 0.446659 0.150434
Si Si7 0.888389 0.600770 0.202578
O O1 0.706686 0.352063 0.536732
O O2 0.740056 0.406026 0.257270
O O3 0.731118 0.440711 0.589914
O O4 0.652143 0.414463 0.404768
O O5 0.733419 0.209900 0.914122
O O6 0.829476 0.221706 0.844552
O O7 0.118991 0.500000 0.549852
O O8 0.176774 0.428332 0.648776
O O9 0.086240 0.422738 0.739374
O O10 0.107502 0.412135 0.412352
O O11 0.738631 0.089485 0.412647
O O12 0.667758 0.094785 0.648009
O O13 0.724050 0.000000 0.309145
O O14 0.500000 0.452994 0.115228
O O15 0.580840 0.500000 0.149923
O O16 0.562478 0.419607 0.340684
#
# Coordination Sequence:
#
# PCOD8307945 Si02
#       7
#    16  16  16  16  16  16  16
#     4  10  23  40  56  89 126 154 198 251 297 359
#     4   9  20  36  56  86 114 155 194 239 299 348
#     4  10  21  38  64  91 117 157 206 255 306 365
#     4  10  21  40  58  86 123 157 206 249 295 356
#     4  11  23  39  63  88 116 162 210 252 299 356
#     4  10  22  40  63  93 121 150 200 256 311 373
#     4  11  21  39  65  88 124 163 199 251 311 363
#
# _framework density 19.910178999999999
#
# number of rings (size 3 to 8) (size 9 to 14) (size 15 to 20)
#    0.000    1.857    2.857    0.429    2.000    3.429 
#    2.571    2.857    0.000    0.000    0.000    0.000 
#    0.000    0.000    0.000    0.000    0.000    0.000 
#
# Total GULP energy -694235.500882 kJ/mol
# GULP energy per Si atom -12397.062516 kJ/mol
# Density = 1.986486 g / cm^3
# Si number density = 19.910179 Si / 1000 Ang^3
#
#
#
# Elastic Constant Matrix: (Units=GPa)
#
#
# Indices 1 2 3 4 5 6 
#
# 1 67.8573 0.2800 24.0707 0.0000 0.0000 0.0000
# 2 0.2800 67.8573 24.0707 0.0000 0.0000 0.0000
# 3 24.0707 24.0707 102.8153 0.0000 0.0000 0.0000
# 4 0.0000 0.0000 0.0000 29.0307 0.0000 0.0000
# 5 0.0000 0.0000 0.0000 0.0000 29.0307 0.0000
# 6 0.0000 0.0000 0.0000 0.0000 0.0000 25.1720
#
#
#
# Elastic Compliance Matrix: (Units=1/GPa)
#
#
# Indices 1 2 3 4 5 6 
#
# 1 0.016191 0.001394 -0.004117 0.000000 0.000000 0.000000
# 2 0.001394 0.016191 -0.004117 0.000000 0.000000 0.000000
# 3 -0.004117 -0.004117 0.011654 0.000000 0.000000 0.000000
# 4 0.000000 0.000000 0.000000 0.034446 0.000000 0.000000
# 5 0.000000 0.000000 0.000000 0.000000 0.034446 0.000000
# 6 0.000000 0.000000 0.000000 0.000000 0.000000 0.039727
#
#
# Mechanical properties :
#
#
# Convention : Reuss Voigt Hill
#
# Bulk Modulus (GPa) = 32.94226 37.26363 35.10294
# Shear Modulus (GPa) = 28.33580 29.32059 28.82820
#
# Velocity S-wave (km/s) = 3.77660 3.84167 3.80927
# Velocity P-wave (km/s) = 5.96643 6.19955 6.08411
#
# Compressibility (1/GPa) = 0.03035615
#
# Stress axis : x y z
#
# Youngs Moduli (GPa) = 61.76105 61.76105 85.80852
#
# Poissons Ratio (x) = -0.08607 0.35327
# Poissons Ratio (y) = -0.08607 0.35327
# Poissons Ratio (z) = 0.25427 0.25427
#
# Static dielectric constant tensor:
#      x y z
#    x 3.743930 0.000000 0.000000 
#    y 0.000000 3.743930 0.000000 
#    z 0.000000 0.000000 3.399570 
# 
# 
# High freq. dielectric constant tensor:
#      x y z
#    x 1.774850 0.000000 0.000000 
#    y 0.000000 1.774850 0.000000 
#    z 0.000000 0.000000 1.768970 
# 
# From -- ./inp_files/735.got.cif
#   From: 2010.03.12/outbox.cif.g09.slc.cpg/sg109_1_cif.got.tgz:735.got - 2010.04.14 01:55:16.
