data_PCOD8307314
_publ_section_title
;
Structure prediction by ZEFSAII (Michael W. Deem and Ramdas Pophale) SiO2 
 PCOD8307314
Probable space group: P 42 M C
;
_chemical_formula_sum "Si O2"
_cell_formula_units_Z 48
_cell_length_a 9.294962
_cell_length_b 9.294962
_cell_length_c 31.108984
_cell_angle_alpha 90.000000
_cell_angle_beta 90.000000
_cell_angle_gamma 90.000000
_cell_volume 2687.701692
_symmetry_space_group_name_H-M "P 42 M C"
_symmetry_group_IT_number 105
_symmetry_cell_setting 'tetragonal'
loop_
_space_group_symop_operation_xyz
x,y,z
-y,x,1/2+z
-x,-y,z
y,-x,1/2+z
-x,y,z
x,-y,z
-y,-x,1/2+z
y,x,1/2+z
loop_
_atom_site_type_symbol
_atom_site_label
_atom_site_fract_x
_atom_site_fract_y
_atom_site_fract_z
Si Si1 0.666849 0.169305 0.214860
Si Si2 0.833151 0.330695 0.140298
Si Si3 0.839912 0.328584 0.474272
Si Si4 0.171416 0.660088 0.380885
Si Si5 0.331613 0.664803 0.556007
Si Si6 0.835197 0.831613 0.299151
O O1 0.500000 0.214044 0.214586
O O2 0.750000 0.249999 0.177579
O O3 0.736667 0.219077 0.259720
O O4 0.686842 0.000000 0.207882
O O5 0.813157 0.500000 0.147276
O O6 0.763333 0.280924 0.095438
O O7 0.000000 0.285957 0.140572
O O8 0.843824 0.500000 0.473577
O O9 0.778286 0.278286 0.427579
O O10 0.740560 0.272378 0.512881
O O11 0.000000 0.266943 0.481962
O O12 0.233057 0.500000 0.373196
O O13 0.227623 0.759440 0.342276
O O14 0.000000 0.656177 0.381581
O O15 0.500000 0.675569 0.548662
O O16 0.284394 0.500000 0.565225
O O17 0.000000 0.784394 0.289933
O O18 0.824430 0.000000 0.306496
#
# Coordination Sequence:
#
# PCOD8307314 Si02
#       6
#     8   8   8   8   8   8
#     4  10  21  36  53  73  98 128 162 201 245 293
#     4  10  21  36  53  73  98 128 162 201 245 293
#     4   8  14  26  45  68  93 122 157 195 233 276
#     4   8  14  26  45  68  93 122 157 195 233 276
#     4   9  17  30  48  69  94 124 156 192 237 287
#     4   9  17  30  48  69  94 124 156 192 237 287
#
# _framework density 17.859126
#
# number of rings (size 3 to 8) (size 9 to 14) (size 15 to 20)
#    0.000    3.000    0.000    2.000    0.000    3.333 
#    0.000    5.000    0.000    2.000    0.000    0.000 
#    0.000    0.000    0.000    0.000    0.000    0.000 
#
# Total GULP energy -595039.505620 kJ/mol
# GULP energy per Si atom -12396.656367 kJ/mol
# Density = 1.781848 g / cm^3
# Si number density = 17.859126 Si / 1000 Ang^3
#
#
#
# Elastic Constant Matrix: (Units=GPa)
#
#
# Indices 1 2 3 4 5 6 
#
# 1 64.1828 34.9163 72.1068 0.0000 0.0000 0.0000
# 2 34.9163 64.1828 72.1068 0.0000 0.0000 0.0000
# 3 72.1068 72.1068 205.0082 0.0000 0.0000 0.0000
# 4 0.0000 0.0000 0.0000 33.6923 0.0000 0.0000
# 5 0.0000 0.0000 0.0000 0.0000 33.6923 0.0000
# 6 0.0000 0.0000 0.0000 0.0000 0.0000 18.8545
#
#
#
# Elastic Compliance Matrix: (Units=1/GPa)
#
#
# Indices 1 2 3 4 5 6 
#
# 1 0.027420 -0.006749 -0.007271 0.000000 0.000000 0.000000
# 2 -0.006749 0.027420 -0.007271 0.000000 0.000000 0.000000
# 3 -0.007271 -0.007271 0.009993 0.000000 0.000000 0.000000
# 4 0.000000 0.000000 0.000000 0.029680 0.000000 0.000000
# 5 0.000000 0.000000 0.000000 0.000000 0.029680 0.000000
# 6 0.000000 0.000000 0.000000 0.000000 0.000000 0.053038
#
#
# Mechanical properties :
#
#
# Convention : Reuss Voigt Hill
#
# Bulk Modulus (GPa) = 44.93827 76.84821 60.89324
# Shear Modulus (GPa) = 22.00422 27.53077 24.76750
#
# Velocity S-wave (km/s) = 3.51394 3.93052 3.72805
# Velocity P-wave (km/s) = 6.45608 7.98262 7.25959
#
# Compressibility (1/GPa) = 0.02225275
#
# Stress axis : x y z
#
# Youngs Moduli (GPa) = 36.46941 36.46941 100.07496
#
# Poissons Ratio (x) = 0.24612 0.72762
# Poissons Ratio (y) = 0.24612 0.72762
# Poissons Ratio (z) = 0.26516 0.26516
#
# Static dielectric constant tensor:
#      x y z
#    x 3.193200 0.000000 0.000000 
#    y 0.000000 3.193200 0.000000 
#    z 0.000000 0.000000 3.690770 
# 
# 
# High freq. dielectric constant tensor:
#      x y z
#    x 1.668350 0.000000 0.000000 
#    y 0.000000 1.668350 0.000000 
#    z 0.000000 0.000000 1.709400 
# 
# From -- ./inp_files/4694.got.cif
#   From: 2010.03.12/outbox.cif.g09.slc.cpg/sg105_3_cif.got.tgz:4694.got - 2010.04.14 01:45:32.
