data_PCOD8307792
_publ_section_title
;
Structure prediction by ZEFSAII (Michael W. Deem and Ramdas Pophale) SiO2 
 PCOD8307792
Probable space group: I 4 C M
;
_chemical_formula_sum "Si O2"
_cell_formula_units_Z 84
_cell_length_a 20.360436
_cell_length_b 20.360436
_cell_length_c 9.625973
_cell_angle_alpha 90.000000
_cell_angle_beta 90.000000
_cell_angle_gamma 90.000000
_cell_volume 3990.421638
_symmetry_space_group_name_H-M "I 4 C M"
_symmetry_group_IT_number 108
_symmetry_cell_setting 'tetragonal'
loop_
_space_group_symop_operation_xyz
x,y,z
-y,x,z
-x,-y,z
y,-x,z
-x,y,1/2+z
x,-y,1/2+z
-y,-x,1/2+z
y,x,1/2+z
1/2+x,1/2+y,1/2+z
1/2-y,1/2+x,1/2+z
1/2-x,1/2-y,1/2+z
1/2+y,1/2-x,1/2+z
1/2-x,1/2+y,z
1/2+x,1/2-y,z
1/2-y,1/2-x,z
1/2+y,1/2+x,z
loop_
_atom_site_type_symbol
_atom_site_label
_atom_site_fract_x
_atom_site_fract_y
_atom_site_fract_z
Si Si1 0.242723 0.562614 0.194400
Si Si2 0.000000 0.500000 0.278705
Si Si3 0.602694 0.102694 0.372190
Si Si4 0.865226 0.137829 0.757620
Si Si5 0.912064 0.938598 0.507253
Si Si6 0.937811 0.256423 0.866026
Si Si7 0.602054 0.897947 0.185489
O O1 0.288168 0.625836 0.227009
O O2 0.269693 0.500770 0.281581
O O3 0.169734 0.577564 0.254400
O O4 0.243054 0.546272 0.030124
O O5 0.046734 0.453267 0.369675
O O6 0.046205 0.546205 0.186171
O O7 0.671138 0.079036 0.304713
O O8 0.619978 0.119978 0.529158
O O9 0.904046 0.137932 0.612456
O O10 0.876952 0.207479 0.834163
O O11 0.891600 0.077644 0.850574
O O12 0.984179 0.909047 0.532634
#
# Coordination Sequence:
#
# PCOD8307792 Si02
#       7
#    16   4   8  16  16  16   8
#     4  11  24  43  67  96 134 178 221 271 336 396
#     4  12  18  44  72 110 132 164 206 284 334 392
#     4  10  23  42  70 101 135 170 214 273 335 403
#     4  12  24  38  62  92 130 176 218 277 326 395
#     4  11  22  38  60  89 122 168 228 285 332 379
#     4  11  24  43  67  96 134 178 221 271 336 396
#     4  10  23  42  70 101 135 170 214 273 335 403
#
# _framework density 21.050408000000001
#
# number of rings (size 3 to 8) (size 9 to 14) (size 15 to 20)
#    0.000    0.952    3.810    3.714    2.667    2.286 
#    0.000    0.952    0.000    0.000    0.000    0.000 
#    0.000    0.000    0.000    0.000    0.000    0.000 
#
# Total GULP energy -520857.044825 kJ/mol
# GULP energy per Si atom -12401.358210 kJ/mol
# Density = 2.100250 g / cm^3
# Si number density = 21.050408 Si / 1000 Ang^3
#
#
#
# Elastic Constant Matrix: (Units=GPa)
#
#
# Indices 1 2 3 4 5 6 
#
# 1 97.1527 67.0220 26.8917 0.0000 0.0000 0.0003
# 2 67.0220 97.1527 26.8917 0.0000 0.0000 -0.0003
# 3 26.8917 26.8917 77.9481 0.0000 0.0000 0.0000
# 4 0.0000 0.0000 0.0000 26.7856 0.0000 0.0000
# 5 0.0000 0.0000 0.0000 0.0000 26.7856 0.0000
# 6 0.0003 -0.0003 0.0000 0.0000 0.0000 32.1370
#
#
#
# Elastic Compliance Matrix: (Units=1/GPa)
#
#
# Indices 1 2 3 4 5 6 
#
# 1 0.020028 -0.013161 -0.002369 0.000000 0.000000 0.000000
# 2 -0.013161 0.020028 -0.002369 0.000000 0.000000 0.000000
# 3 -0.002369 -0.002369 0.014464 0.000000 0.000000 0.000000
# 4 0.000000 0.000000 0.000000 0.037333 0.000000 0.000000
# 5 0.000000 0.000000 0.000000 0.000000 0.037333 0.000000
# 6 0.000000 0.000000 0.000000 0.000000 0.000000 0.031117
#
#
# Mechanical properties :
#
#
# Convention : Reuss Voigt Hill
#
# Bulk Modulus (GPa) = 53.41439 57.09602 55.25520
# Shear Modulus (GPa) = 24.71062 27.23819 25.97440
#
# Velocity S-wave (km/s) = 3.42991 3.60105 3.51652
# Velocity P-wave (km/s) = 6.41212 6.66877 6.54170
#
# Compressibility (1/GPa) = 0.01872155
#
# Stress axis : x y z
#
# Youngs Moduli (GPa) = 49.93011 49.93011 69.13839
#
# Poissons Ratio (x) = 0.65712 0.16380
# Poissons Ratio (y) = 0.65712 0.16380
# Poissons Ratio (z) = 0.11829 0.11829
#
# Static dielectric constant tensor:
#      x y z
#    x 3.862140 0.000000 0.000000 
#    y 0.000000 3.862140 0.000000 
#    z 0.000000 0.000000 3.610450 
# 
# 
# High freq. dielectric constant tensor:
#      x y z
#    x 1.823860 0.000000 0.000000 
#    y 0.000000 1.823860 0.000000 
#    z 0.000000 0.000000 1.817180 
# 
# From -- ./inp_files/1455.got.cif
#   From: 2010.03.12/outbox.cif.g09.slc.cpg/sg108_1_cif.got.tgz:1455.got - 2010.04.14 01:53:11.
