data_PCOD8307257
_publ_section_title
;
Structure prediction by ZEFSAII (Michael W. Deem and Ramdas Pophale) SiO2 
 PCOD8307257
Probable space group: P 42 M C
;
_chemical_formula_sum "Si O2"
_cell_formula_units_Z 48
_cell_length_a 9.067298
_cell_length_b 9.067298
_cell_length_c 30.832485
_cell_angle_alpha 90.000000
_cell_angle_beta 90.000000
_cell_angle_gamma 90.000000
_cell_volume 2534.920288
_symmetry_space_group_name_H-M "P 42 M C"
_symmetry_group_IT_number 105
_symmetry_cell_setting 'tetragonal'
loop_
_space_group_symop_operation_xyz
x,y,z
-y,x,1/2+z
-x,-y,z
y,-x,1/2+z
-x,y,z
x,-y,z
-y,-x,1/2+z
y,x,1/2+z
loop_
_atom_site_type_symbol
_atom_site_label
_atom_site_fract_x
_atom_site_fract_y
_atom_site_fract_z
Si Si1 0.165956 0.325274 0.625000
Si Si2 0.831753 0.825065 0.945369
Si Si3 0.829099 0.670083 0.200959
Si Si4 0.174904 0.336651 0.529146
Si Si5 0.328894 0.327231 0.866954
Si Si6 0.173506 0.170385 0.788450
O O1 0.166737 0.500000 0.629047
O O2 0.278601 0.258789 0.659063
O O3 0.222320 0.279310 0.576848
O O4 0.000000 0.265197 0.633453
O O5 0.730611 0.751802 0.909478
O O6 0.000000 0.773705 0.939376
O O7 0.817318 0.000000 0.940809
O O8 0.776005 0.769409 0.992396
O O9 0.794127 0.500000 0.210106
O O10 0.776236 0.762006 0.242606
O O11 0.000000 0.698272 0.191731
O O12 0.240952 0.500000 0.519989
O O13 0.000000 0.348034 0.528537
O O14 0.500000 0.288127 0.861457
O O15 0.301601 0.500000 0.871745
O O16 0.242596 0.270330 0.825343
O O17 0.000000 0.195492 0.787870
O O18 0.214318 0.000000 0.797404
#
# Coordination Sequence:
#
# PCOD8307257 Si02
#       6
#     8   8   8   8   8   8
#     4   9  18  33  54  80 108 139 177 219 263 312
#     4  10  20  34  55  83 110 138 176 220 266 316
#     4  10  21  36  54  78 108 141 177 216 260 312
#     4   8  15  30  52  77 105 138 177 219 261 308
#     4  11  24  39  55  78 108 142 178 215 260 315
#     4  10  21  38  60  83 105 134 175 220 266 316
#
# _framework density 18.935504999999999
#
# number of rings (size 3 to 8) (size 9 to 14) (size 15 to 20)
#    0.000    2.333    0.000    3.500    0.000    8.000 
#    0.000    2.500    0.000    1.000    0.000    0.000 
#    0.000    0.000    0.000    0.000    0.000    0.000 
#
# Total GULP energy -595253.637770 kJ/mol
# GULP energy per Si atom -12401.117454 kJ/mol
# Density = 1.889241 g / cm^3
# Si number density = 18.935505 Si / 1000 Ang^3
#
#
#
# Elastic Constant Matrix: (Units=GPa)
#
#
# Indices 1 2 3 4 5 6 
#
# 1 61.8621 30.8654 45.5473 0.0000 0.0000 0.0000
# 2 30.8654 61.8621 45.5473 0.0000 0.0000 0.0000
# 3 45.5473 45.5473 144.2450 0.0000 0.0000 0.0000
# 4 0.0000 0.0000 0.0000 73.9615 0.0000 0.0000
# 5 0.0000 0.0000 0.0000 0.0000 73.9615 0.0000
# 6 0.0000 0.0000 0.0000 0.0000 0.0000 27.3103
#
#
#
# Elastic Compliance Matrix: (Units=1/GPa)
#
#
# Indices 1 2 3 4 5 6 
#
# 1 0.023948 -0.008314 -0.004937 0.000000 0.000000 0.000000
# 2 -0.008314 0.023948 -0.004937 0.000000 0.000000 0.000000
# 3 -0.004937 -0.004937 0.010050 0.000000 0.000000 0.000000
# 4 0.000000 0.000000 0.000000 0.013521 0.000000 0.000000
# 5 0.000000 0.000000 0.000000 0.000000 0.013521 0.000000
# 6 0.000000 0.000000 0.000000 0.000000 0.000000 0.036616
#
#
# Mechanical properties :
#
#
# Convention : Reuss Voigt Hill
#
# Bulk Modulus (GPa) = 46.35704 56.87660 51.61682
# Shear Modulus (GPa) = 30.27223 44.78058 37.52641
#
# Velocity S-wave (km/s) = 4.00272 4.86830 4.45657
# Velocity P-wave (km/s) = 6.77473 7.85511 7.33484
#
# Compressibility (1/GPa) = 0.02157170
#
# Stress axis : x y z
#
# Youngs Moduli (GPa) = 41.75756 41.75756 99.49970
#
# Poissons Ratio (x) = 0.34716 0.49120
# Poissons Ratio (y) = 0.34716 0.49120
# Poissons Ratio (z) = 0.20614 0.20614
#
# Static dielectric constant tensor:
#      x y z
#    x 3.362670 0.000000 0.000000 
#    y 0.000000 3.362670 0.000000 
#    z 0.000000 0.000000 3.818430 
# 
# 
# High freq. dielectric constant tensor:
#      x y z
#    x 1.725650 0.000000 0.000000 
#    y 0.000000 1.725650 0.000000 
#    z 0.000000 0.000000 1.752870 
# 
# From -- ./inp_files/4681.got.cif
#   From: 2010.03.12/outbox.cif.g09.slc.cpg/sg105_3_cif.got.tgz:4681.got - 2010.04.14 01:45:32.
