data_PCOD8307687
_publ_section_title
;
Structure prediction by ZEFSAII (Michael W. Deem and Ramdas Pophale) SiO2 
 PCOD8307687
Probable space group: I 4 M M
;
_chemical_formula_sum "Si O2"
_cell_formula_units_Z 112
_cell_length_a 14.537238
_cell_length_b 14.537238
_cell_length_c 35.485216
_cell_angle_alpha 90.000000
_cell_angle_beta 90.000000
_cell_angle_gamma 90.000000
_cell_volume 7499.136426
_symmetry_space_group_name_H-M "I 4 M M"
_symmetry_group_IT_number 107
_symmetry_cell_setting 'tetragonal'
loop_
_space_group_symop_operation_xyz
x,y,z
-y,x,z
-x,-y,z
y,-x,z
-x,y,z
x,-y,z
-y,-x,z
y,x,z
1/2+x,1/2+y,1/2+z
1/2-y,1/2+x,1/2+z
1/2-x,1/2-y,1/2+z
1/2+y,1/2-x,1/2+z
1/2-x,1/2+y,1/2+z
1/2+x,1/2-y,1/2+z
1/2-y,1/2-x,1/2+z
1/2+y,1/2+x,1/2+z
loop_
_atom_site_type_symbol
_atom_site_label
_atom_site_fract_x
_atom_site_fract_y
_atom_site_fract_z
Si Si1 0.398259 0.890597 0.640840
Si Si2 0.397319 0.891419 0.432402
Si Si3 0.390597 0.898259 0.723965
Si Si4 0.243558 0.606019 0.995120
Si Si5 0.893981 0.743557 0.369685
Si Si6 0.246649 0.394372 0.080961
Si Si7 0.894372 0.746649 0.283843
O O1 0.500000 0.849165 0.633473
O O2 0.361757 0.861757 0.682402
O O3 0.330561 0.852479 0.608667
O O4 0.403984 0.000000 0.638935
O O5 0.500000 0.846879 0.432402
O O6 0.341327 0.859776 0.469482
O O7 0.341327 0.859776 0.395322
O O8 0.407895 0.000000 0.432402
O O9 0.500000 0.903984 0.725870
O O10 0.352478 0.830561 0.756137
O O11 0.349165 0.000000 0.731331
O O12 0.269393 0.500000 0.986234
O O13 0.333679 0.666322 0.986148
O O14 0.211220 0.617763 0.038246
O O15 0.833678 0.833678 0.378656
O O16 0.882238 0.711219 0.326559
O O17 0.000000 0.769393 0.378570
O O18 0.267283 0.500000 0.090587
O O19 0.341573 0.341573 0.087536
O O20 0.841573 0.841573 0.277269
O O21 0.000000 0.767283 0.274217
#
# Coordination Sequence:
#
# PCOD8307687 Si02
#       7
#    16  16  16  16  16  16  16
#     4   8  14  25  40  57  77 101 131 168 205 237
#     4   9  17  28  41  57  77 101 127 155 191 230
#     4   8  14  25  40  57  77 101 131 168 205 237
#     4   9  17  28  41  58  81 107 134 162 189 224
#     4   9  17  28  41  58  81 107 134 162 189 224
#     4   9  17  27  39  57  80 106 134 161 191 229
#     4   9  17  27  39  57  80 106 134 161 191 229
#
# _framework density 14.935053
#
# number of rings (size 3 to 8) (size 9 to 14) (size 15 to 20)
#    0.000    3.286    0.000    1.286    0.000    2.286 
#    0.000    8.571    0.000    2.571    0.000    0.000 
#    0.000    5.143    0.000   12.571    0.000    3.429 
#
# Total GULP energy -694103.228622 kJ/mol
# GULP energy per Si atom -12394.700511 kJ/mol
# Density = 1.490106 g / cm^3
# Si number density = 14.935053 Si / 1000 Ang^3
#
#
#
# Elastic Constant Matrix: (Units=GPa)
#
#
# Indices 1 2 3 4 5 6 
#
# 1 69.5412 37.5019 53.3337 0.0000 0.0000 -0.0002
# 2 37.5019 69.5412 53.3337 0.0000 0.0000 0.0002
# 3 53.3337 53.3337 112.5533 0.0000 0.0000 0.0000
# 4 0.0000 0.0000 0.0000 21.0301 0.0000 0.0000
# 5 0.0000 0.0000 0.0000 0.0000 21.0301 0.0000
# 6 -0.0002 0.0002 0.0000 0.0000 0.0000 10.2828
#
#
#
# Elastic Compliance Matrix: (Units=1/GPa)
#
#
# Indices 1 2 3 4 5 6 
#
# 1 0.024456 -0.006756 -0.008387 0.000000 0.000000 0.000001
# 2 -0.006756 0.024456 -0.008387 0.000000 0.000000 -0.000001
# 3 -0.008387 -0.008387 0.016833 0.000000 0.000000 0.000000
# 4 0.000000 0.000000 0.000000 0.047551 0.000000 0.000000
# 5 0.000000 0.000000 0.000000 0.000000 0.047551 0.000000
# 6 0.000001 -0.000001 0.000000 0.000000 0.000000 0.097249
#
#
# Mechanical properties :
#
#
# Convention : Reuss Voigt Hill
#
# Bulk Modulus (GPa) = 53.52098 59.99717 56.75907
# Shear Modulus (GPa) = 16.05737 17.63305 16.84521
#
# Velocity S-wave (km/s) = 3.28250 3.43978 3.36206
# Velocity P-wave (km/s) = 7.09084 7.48568 7.29093
#
# Compressibility (1/GPa) = 0.01868426
#
# Stress axis : x y z
#
# Youngs Moduli (GPa) = 40.89041 40.89041 59.40679
#
# Poissons Ratio (x) = 0.27626 0.49825
# Poissons Ratio (y) = 0.27626 0.49825
# Poissons Ratio (z) = 0.34295 0.34295
#
# Static dielectric constant tensor:
#      x y z
#    x 2.796590 0.000000 0.000000 
#    y 0.000000 2.796590 0.000000 
#    z 0.000000 0.000000 3.171090 
# 
# 
# High freq. dielectric constant tensor:
#      x y z
#    x 1.542320 0.000000 0.000000 
#    y 0.000000 1.542320 0.000000 
#    z 0.000000 0.000000 1.587920 
# 
# From -- ./inp_files/6177.got.cif
#   From: 2010.03.12/outbox.cif.g09.slc.cpg/sg107_4_cif.got.tgz:6177.got - 2010.04.14 01:49:11.
