data_PCOD8307597
_publ_section_title
;
Structure prediction by ZEFSAII (Michael W. Deem and Ramdas Pophale) SiO2 
 PCOD8307597
Probable space group: I 4 M M
;
_chemical_formula_sum "Si O2"
_cell_formula_units_Z 128
_cell_length_a 22.632132
_cell_length_b 22.632132
_cell_length_c 12.861206
_cell_angle_alpha 90.000000
_cell_angle_beta 90.000000
_cell_angle_gamma 90.000000
_cell_volume 6587.682039
_symmetry_space_group_name_H-M "I 4 M M"
_symmetry_group_IT_number 107
_symmetry_cell_setting 'tetragonal'
loop_
_space_group_symop_operation_xyz
x,y,z
-y,x,z
-x,-y,z
y,-x,z
-x,y,z
x,-y,z
-y,-x,z
y,x,z
1/2+x,1/2+y,1/2+z
1/2-y,1/2+x,1/2+z
1/2-x,1/2-y,1/2+z
1/2+y,1/2-x,1/2+z
1/2-x,1/2+y,1/2+z
1/2+x,1/2-y,1/2+z
1/2-y,1/2-x,1/2+z
1/2+y,1/2+x,1/2+z
loop_
_atom_site_type_symbol
_atom_site_label
_atom_site_fract_x
_atom_site_fract_y
_atom_site_fract_z
Si Si1 0.568563 0.067007 0.824760
Si Si2 0.278031 0.624472 0.370468
Si Si3 0.154837 0.358869 0.459377
Si Si4 0.223382 0.932321 0.269670
Si Si5 0.933113 0.659125 0.158810
Si Si6 0.837862 0.068301 0.058915
Si Si7 0.370969 0.276799 0.979735
Si Si8 0.569364 0.666815 0.171572
O O1 0.500000 0.069064 0.854986
O O2 0.601636 0.102844 0.914097
O O3 0.578933 0.095482 0.710937
O O4 0.592303 0.000000 0.820348
O O5 0.315219 0.684782 0.375386
O O6 0.209105 0.641630 0.377816
O O7 0.292346 0.582013 0.466964
O O8 0.290093 0.589321 0.264612
O O9 0.173652 0.387883 0.567897
O O10 0.134671 0.293135 0.486308
O O11 0.293325 0.924171 0.251008
O O12 0.189366 0.909961 0.167492
O O13 0.202998 0.893817 0.367060
O O14 0.207655 0.000000 0.293474
O O15 0.000000 0.663723 0.114763
O O16 0.899136 0.100865 0.037111
O O17 0.852535 0.000000 0.060803
O O18 0.307645 0.307645 0.000459
O O19 0.417871 0.298846 0.064891
O O20 0.500000 0.652408 0.180226
O O21 0.604917 0.604917 0.177549
#
# Coordination Sequence:
#
# PCOD8307597 Si02
#       8
#    16  16  16  16  16  16  16  16
#     4  10  23  41  59  84 117 151 193 247 300 351
#     4  10  22  40  59  86 123 159 201 250 297 354
#     4  12  23  38  61  88 115 160 202 242 299 364
#     4  10  19  37  61  83 111 151 197 239 286 353
#     4  10  21  38  58  84 114 148 195 245 291 351
#     4  10  20  35  59  88 118 154 192 238 295 352
#     4  11  24  39  58  89 126 158 196 250 301 350
#     4  10  23  42  64  92 126 164 206 256 310 364
#
# _framework density 19.430204
#
# number of rings (size 3 to 8) (size 9 to 14) (size 15 to 20)
#    0.000    1.625    2.500    1.875    1.750    2.750 
#    0.000    1.250    0.000    2.250    0.000    1.750 
#    0.000    0.000    0.000    0.000    0.000    0.000 
#
# Total GULP energy -793821.546198 kJ/mol
# GULP energy per Si atom -12403.461659 kJ/mol
# Density = 1.938598 g / cm^3
# Si number density = 19.430204 Si / 1000 Ang^3
#
#
#
# Elastic Constant Matrix: (Units=GPa)
#
#
# Indices 1 2 3 4 5 6 
#
# 1 95.3657 32.5780 26.0676 0.0000 0.0000 -0.0001
# 2 32.5780 95.3657 26.0676 0.0000 0.0000 0.0001
# 3 26.0676 26.0676 104.6829 0.0000 0.0000 0.0000
# 4 0.0000 0.0000 0.0000 27.4178 0.0000 0.0000
# 5 0.0000 0.0000 0.0000 0.0000 27.4178 0.0000
# 6 -0.0001 0.0001 0.0000 0.0000 0.0000 20.8019
#
#
#
# Elastic Compliance Matrix: (Units=1/GPa)
#
#
# Indices 1 2 3 4 5 6 
#
# 1 0.012313 -0.003614 -0.002166 0.000000 0.000000 0.000000
# 2 -0.003614 0.012313 -0.002166 0.000000 0.000000 0.000000
# 3 -0.002166 -0.002166 0.010631 0.000000 0.000000 0.000000
# 4 0.000000 0.000000 0.000000 0.036473 0.000000 0.000000
# 5 0.000000 0.000000 0.000000 0.000000 0.036473 0.000000
# 6 0.000000 0.000000 0.000000 0.000000 0.000000 0.048073
#
#
# Mechanical properties :
#
#
# Convention : Reuss Voigt Hill
#
# Bulk Modulus (GPa) = 51.64144 51.64895 51.64520
# Shear Modulus (GPa) = 27.99209 29.17422 28.58315
#
# Velocity S-wave (km/s) = 3.79970 3.87911 3.83961
# Velocity P-wave (km/s) = 6.77392 6.83394 6.80400
#
# Compressibility (1/GPa) = 0.01936429
#
# Stress axis : x y z
#
# Youngs Moduli (GPa) = 81.21734 81.21734 94.06072
#
# Poissons Ratio (x) = 0.29352 0.20374
# Poissons Ratio (y) = 0.29352 0.20374
# Poissons Ratio (z) = 0.17592 0.17592
#
# Static dielectric constant tensor:
#      x y z
#    x 3.487690 0.000000 0.000000 
#    y 0.000000 3.487690 0.000000 
#    z 0.000000 0.000000 3.548290 
# 
# 
# High freq. dielectric constant tensor:
#      x y z
#    x 1.756110 0.000000 0.000000 
#    y 0.000000 1.756110 0.000000 
#    z 0.000000 0.000000 1.762920 
# 
# From -- ./inp_files/2680.got.cif
#   From: 2010.03.12/outbox.cif.g09.slc.cpg/sg107_2_cif.got.tgz:2680.got - 2010.04.14 01:49:11.
