data_PCOD8307031
_publ_section_title
;
Structure prediction by ZEFSAII (Michael W. Deem and Ramdas Pophale) SiO2 
 PCOD8307031
Probable space group: P 4 C C
;
_chemical_formula_sum "Si O2"
_cell_formula_units_Z 48
_cell_length_a 16.122329
_cell_length_b 16.122329
_cell_length_c 9.468779
_cell_angle_alpha 90.000000
_cell_angle_beta 90.000000
_cell_angle_gamma 90.000000
_cell_volume 2461.214919
_symmetry_space_group_name_H-M "P 4 C C"
_symmetry_group_IT_number 103
_symmetry_cell_setting 'tetragonal'
loop_
_space_group_symop_operation_xyz
x,y,z
-y,x,z
-x,-y,z
y,-x,z
-x,y,1/2+z
x,-y,1/2+z
-y,-x,1/2+z
y,x,1/2+z
loop_
_atom_site_type_symbol
_atom_site_label
_atom_site_fract_x
_atom_site_fract_y
_atom_site_fract_z
Si Si1 0.996201 0.240737 0.274540
Si Si2 0.831903 0.825582 0.711057
Si Si3 0.352566 0.004747 0.024259
Si Si4 0.419713 0.172556 0.574520
Si Si5 0.254028 0.751461 0.961682
Si Si6 0.419611 0.174767 0.909843
O O1 0.087796 0.211354 0.240018
O O2 0.974162 0.322366 0.182198
O O3 0.930031 0.168080 0.242724
O O4 0.988070 0.268185 0.436335
O O5 0.818050 0.797723 0.550553
O O6 0.789581 0.753472 0.805383
O O7 0.408194 0.922527 0.026699
O O8 0.402680 0.080273 0.956485
O O9 0.343050 0.230617 0.529969
O O10 0.433251 0.178018 0.742064
O O11 0.499388 0.207296 0.491603
O O12 0.236662 0.653592 0.956200
#
# Coordination Sequence:
#
# PCOD8307031 Si02
#       6
#     8   8   8   8   8   8
#     4  12  22  37  63  92 124 176 230 274 315 373
#     4  12  22  39  64  88 126 181 226 272 320 376
#     4  12  21  40  60  91 130 164 214 277 330 390
#     4  12  27  41  65 100 128 168 216 266 331 392
#     4  12  22  44  64  88 132 174 214 258 332 398
#     4  12  27  41  65 100 128 168 216 266 331 392
#
# _framework density 19.502564
#
# number of rings (size 3 to 8) (size 9 to 14) (size 15 to 20)
#    0.000    0.000   10.000    0.500    4.667    1.667 
#    0.000    0.000    0.000    4.500    0.000    2.333 
#    0.000    0.000    0.000    0.000    0.000    0.000 
#
# Total GULP energy -595374.756750 kJ/mol
# GULP energy per Si atom -12403.640766 kJ/mol
# Density = 1.945818 g / cm^3
# Si number density = 19.502564 Si / 1000 Ang^3
#
#
#
# Elastic Constant Matrix: (Units=GPa)
#
#
# Indices 1 2 3 4 5 6 
#
# 1 88.1290 38.8856 41.9856 0.0000 0.0000 0.0000
# 2 38.8856 88.1290 41.9856 0.0000 0.0000 0.0000
# 3 41.9856 41.9856 98.0085 0.0000 0.0000 0.0000
# 4 0.0000 0.0000 0.0000 29.4557 0.0000 0.0000
# 5 0.0000 0.0000 0.0000 0.0000 29.4557 0.0000
# 6 0.0000 0.0000 0.0000 0.0000 0.0000 19.3178
#
#
#
# Elastic Compliance Matrix: (Units=1/GPa)
#
#
# Indices 1 2 3 4 5 6 
#
# 1 0.015646 -0.004662 -0.004705 0.000000 0.000000 0.000000
# 2 -0.004662 0.015646 -0.004705 0.000000 0.000000 0.000000
# 3 -0.004705 -0.004705 0.014235 0.000000 0.000000 0.000000
# 4 0.000000 0.000000 0.000000 0.033949 0.000000 0.000000
# 5 0.000000 0.000000 0.000000 0.000000 0.033949 0.000000
# 6 0.000000 0.000000 0.000000 0.000000 0.000000 0.051766
#
#
# Mechanical properties :
#
#
# Convention : Reuss Voigt Hill
#
# Bulk Modulus (GPa) = 57.53418 57.77557 57.65487
# Shear Modulus (GPa) = 25.10942 25.73983 25.42462
#
# Velocity S-wave (km/s) = 3.59206 3.63687 3.61453
# Velocity P-wave (km/s) = 6.83877 6.87929 6.85906
#
# Compressibility (1/GPa) = 0.01738097
#
# Stress axis : x y z
#
# Youngs Moduli (GPa) = 63.91582 63.91582 70.25122
#
# Poissons Ratio (x) = 0.29796 0.33056
# Poissons Ratio (y) = 0.29796 0.33056
# Poissons Ratio (z) = 0.30075 0.30075
#
# Static dielectric constant tensor:
#      x y z
#    x 3.466060 0.000000 0.000000 
#    y 0.000000 3.466060 0.000000 
#    z 0.000000 0.000000 3.918490 
# 
# 
# High freq. dielectric constant tensor:
#      x y z
#    x 1.741260 0.000000 0.000000 
#    y 0.000000 1.741260 0.000000 
#    z 0.000000 0.000000 1.786800 
# 
# From -- ./inp_files/281.got.cif
#   From: 2010.03.12/outbox.cif.g09.slc.cpg/sg103_cif.got.tgz:281.got - 2010.04.14 01:42:52.
