data_PCOD8307330
_publ_section_title
;
Structure prediction by ZEFSAII (Michael W. Deem and Ramdas Pophale) SiO2 
 PCOD8307330
Probable space group: P 42 M C
;
_chemical_formula_sum "Si O2"
_cell_formula_units_Z 48
_cell_length_a 9.129181
_cell_length_b 9.129181
_cell_length_c 30.859902
_cell_angle_alpha 90.000000
_cell_angle_beta 90.000000
_cell_angle_gamma 90.000000
_cell_volume 2571.924278
_symmetry_space_group_name_H-M "P 42 M C"
_symmetry_group_IT_number 105
_symmetry_cell_setting 'tetragonal'
loop_
_space_group_symop_operation_xyz
x,y,z
-y,x,1/2+z
-x,-y,z
y,-x,1/2+z
-x,y,z
x,-y,z
-y,-x,1/2+z
y,x,1/2+z
loop_
_atom_site_type_symbol
_atom_site_label
_atom_site_fract_x
_atom_site_fract_y
_atom_site_fract_z
Si Si1 0.327067 0.330439 0.767480
Si Si2 0.171092 0.829094 0.689516
Si Si3 0.330018 0.330018 0.017480
Si Si4 0.171301 0.667312 0.932062
Si Si5 0.828698 0.332688 0.602898
Si Si6 0.170906 0.828908 0.345444
O O1 0.500000 0.310195 0.767480
O O2 0.281018 0.500000 0.767480
O O3 0.263120 0.254538 0.725231
O O4 0.263120 0.254538 0.809729
O O5 0.219981 0.767268 0.643023
O O6 0.000000 0.799518 0.698022
O O7 0.208299 0.000000 0.691527
O O8 0.500000 0.296283 0.011092
O O9 0.296283 0.500000 0.023868
O O10 0.269864 0.248968 0.060063
O O11 0.248968 0.269864 0.974897
O O12 0.219897 0.500000 0.922618
O O13 0.219981 0.767268 0.891937
O O14 0.000000 0.677926 0.940312
O O15 0.780103 0.500000 0.612342
O O16 0.000000 0.322074 0.594648
O O17 0.000000 0.791700 0.343433
O O18 0.200482 0.000000 0.336938
#
# Coordination Sequence:
#
# PCOD8307330 Si02
#       6
#     8   8   8   8   8   8
#     4  11  24  39  56  80 108 139 176 217 262 314
#     4  10  21  37  57  81 108 139 176 218 265 316
#     4   9  18  32  50  73 102 136 174 217 262 307
#     4   9  18  33  52  74 102 137 175 213 257 312
#     4   9  18  33  52  74 102 137 175 213 257 312
#     4  10  21  37  57  81 108 139 176 218 265 316
#
# _framework density 18.663067999999999
#
# number of rings (size 3 to 8) (size 9 to 14) (size 15 to 20)
#    0.000    2.333    0.000    2.000    0.000    8.000 
#    0.000    3.333    0.000    0.000    0.000    0.000 
#    0.000    0.000    0.000    0.000    0.000    0.000 
#
# Total GULP energy -595359.343054 kJ/mol
# GULP energy per Si atom -12403.319647 kJ/mol
# Density = 1.862059 g / cm^3
# Si number density = 18.663068 Si / 1000 Ang^3
#
#
#
# Elastic Constant Matrix: (Units=GPa)
#
#
# Indices 1 2 3 4 5 6 
#
# 1 88.3198 56.3536 84.6754 0.0000 0.0000 0.0000
# 2 56.3536 88.3198 84.6754 0.0000 0.0000 0.0000
# 3 84.6754 84.6754 191.9398 0.0000 0.0000 0.0000
# 4 0.0000 0.0000 0.0000 40.7041 0.0000 0.0000
# 5 0.0000 0.0000 0.0000 0.0000 40.7041 0.0000
# 6 0.0000 0.0000 0.0000 0.0000 0.0000 24.9459
#
#
#
# Elastic Compliance Matrix: (Units=1/GPa)
#
#
# Indices 1 2 3 4 5 6 
#
# 1 0.022788 -0.008495 -0.006306 0.000000 0.000000 0.000000
# 2 -0.008495 0.022788 -0.006306 0.000000 0.000000 0.000000
# 3 -0.006306 -0.006306 0.010773 0.000000 0.000000 0.000000
# 4 0.000000 0.000000 0.000000 0.024568 0.000000 0.000000
# 5 0.000000 0.000000 0.000000 0.000000 0.024568 0.000000
# 6 0.000000 0.000000 0.000000 0.000000 0.000000 0.040087
#
#
# Mechanical properties :
#
#
# Convention : Reuss Voigt Hill
#
# Bulk Modulus (GPa) = 70.73288 91.10982 80.92135
# Shear Modulus (GPa) = 25.97457 30.79582 28.38520
#
# Velocity S-wave (km/s) = 3.73468 4.06654 3.90414
# Velocity P-wave (km/s) = 7.52192 8.42456 7.98601
#
# Compressibility (1/GPa) = 0.01413770
#
# Stress axis : x y z
#
# Youngs Moduli (GPa) = 43.88255 43.88255 92.82097
#
# Poissons Ratio (x) = 0.37278 0.58529
# Poissons Ratio (y) = 0.37278 0.58529
# Poissons Ratio (z) = 0.27670 0.27670
#
# Static dielectric constant tensor:
#      x y z
#    x 3.430280 0.000000 0.000000 
#    y 0.000000 3.430280 0.000000 
#    z 0.000000 0.000000 3.685390 
# 
# 
# High freq. dielectric constant tensor:
#      x y z
#    x 1.721050 0.000000 0.000000 
#    y 0.000000 1.721050 0.000000 
#    z 0.000000 0.000000 1.739900 
# 
# From -- ./inp_files/4655.got.cif
#   From: 2010.03.12/outbox.cif.g09.slc.cpg/sg105_3_cif.got.tgz:4655.got - 2010.04.14 01:45:32.
