data_PCOD8307893
_publ_section_title
;
Structure prediction by ZEFSAII (Michael W. Deem and Ramdas Pophale) SiO2 
 PCOD8307893
Probable space group: I 41 M D
;
_chemical_formula_sum "Si O2"
_cell_formula_units_Z 128
_cell_length_a 20.443739
_cell_length_b 20.443739
_cell_length_c 18.214217
_cell_angle_alpha 90.000000
_cell_angle_beta 90.000000
_cell_angle_gamma 90.000000
_cell_volume 7612.567595
_symmetry_space_group_name_H-M "I 41 M D"
_symmetry_group_IT_number 109
_symmetry_cell_setting 'tetragonal'
loop_
_space_group_symop_operation_xyz
x,y,z
-y,1/2+x,1/4+z
-x,-y,z
y,1/2-x,1/4+z
-x,y,z
x,-y,z
-y,1/2-x,1/4+z
y,1/2+x,1/4+z
1/2+x,1/2+y,1/2+z
1/2-y,x,3/4+z
1/2-x,1/2-y,1/2+z
1/2+y,-x,3/4+z
1/2-x,1/2+y,1/2+z
1/2+x,1/2-y,1/2+z
1/2-y,-x,3/4+z
1/2+y,x,3/4+z
loop_
_atom_site_type_symbol
_atom_site_label
_atom_site_fract_x
_atom_site_fract_y
_atom_site_fract_z
Si Si1 0.269566 0.242839 0.829570
Si Si2 0.428668 0.759129 0.214504
Si Si3 0.071922 0.171042 0.518031
Si Si4 0.150318 0.701784 0.465640
Si Si5 0.177674 0.697383 0.951149
Si Si6 0.927154 0.926207 0.234598
Si Si7 0.157087 0.073060 0.607009
Si Si8 0.573052 0.106594 0.151866
O O1 0.306508 0.293547 0.776274
O O2 0.323770 0.214795 0.883938
O O3 0.212233 0.273338 0.878691
O O4 0.239536 0.187538 0.775052
O O5 0.500000 0.730169 0.193605
O O6 0.375574 0.703313 0.213865
O O7 0.431879 0.788629 0.295160
O O8 0.408127 0.816129 0.156130
O O9 0.107434 0.237873 0.494976
O O10 0.105230 0.129057 0.582931
O O11 0.065110 0.124307 0.447922
O O12 0.000000 0.191445 0.544937
O O13 0.114397 0.632948 0.452474
O O14 0.100512 0.690925 0.931802
O O15 0.921369 0.925395 0.321560
O O16 0.000000 0.898773 0.213449
O O17 0.920867 0.000000 0.204913
O O18 0.127400 0.000000 0.621504
O O19 0.500000 0.098931 0.186374
#
# Coordination Sequence:
#
# PCOD8307893 Si02
#       8
#    16  16  16  16  16  16  16  16
#     4  10  20  31  55  72 101 127 174 221 269 305
#     4   9  17  29  48  71  98 134 171 205 245 310
#     4  11  20  30  48  73 108 146 176 208 252 317
#     4  11  20  35  50  78  99 136 171 222 262 317
#     4  11  17  34  49  75  97 138 168 220 267 315
#     4  10  20  33  49  70 103 141 172 206 251 311
#     4  10  20  33  47  70 105 139 178 222 263 309
#     4   9  17  29  46  70 102 141 177 203 237 293
#
# _framework density 16.814298999999998
#
# number of rings (size 3 to 8) (size 9 to 14) (size 15 to 20)
#    0.000    1.875    2.500    5.625    0.000    2.000 
#    0.000    1.250    0.000    0.000    0.000    0.000 
#    0.000    0.000    0.000    0.000    0.000    0.000 
#
# Total GULP energy -792930.210601 kJ/mol
# GULP energy per Si atom -12389.534541 kJ/mol
# Density = 1.677603 g / cm^3
# Si number density = 16.814299 Si / 1000 Ang^3
#
#
#
# Elastic Constant Matrix: (Units=GPa)
#
#
# Indices 1 2 3 4 5 6 
#
# 1 97.9288 56.1986 38.9774 0.0000 0.0000 0.0000
# 2 56.1986 97.9288 38.9774 0.0000 0.0000 0.0000
# 3 38.9774 38.9774 75.2002 0.0000 0.0000 0.0000
# 4 0.0000 0.0000 0.0000 13.4580 0.0000 0.0000
# 5 0.0000 0.0000 0.0000 0.0000 13.4580 0.0000
# 6 0.0000 0.0000 0.0000 0.0000 0.0000 16.7271
#
#
#
# Elastic Compliance Matrix: (Units=1/GPa)
#
#
# Indices 1 2 3 4 5 6 
#
# 1 0.016378 -0.007585 -0.004558 0.000000 0.000000 0.000000
# 2 -0.007585 0.016378 -0.004558 0.000000 0.000000 0.000000
# 3 -0.004558 -0.004558 0.018023 0.000000 0.000000 0.000000
# 4 0.000000 0.000000 0.000000 0.074305 0.000000 0.000000
# 5 0.000000 0.000000 0.000000 0.000000 0.074305 0.000000
# 6 0.000000 0.000000 0.000000 0.000000 0.000000 0.059783
#
#
# Mechanical properties :
#
#
# Convention : Reuss Voigt Hill
#
# Bulk Modulus (GPa) = 57.54297 59.92939 58.73618
# Shear Modulus (GPa) = 16.75788 17.85557 17.30673
#
# Velocity S-wave (km/s) = 3.16039 3.26226 3.21173
# Velocity P-wave (km/s) = 6.90032 7.06463 6.98296
#
# Compressibility (1/GPa) = 0.01737832
#
# Stress axis : x y z
#
# Youngs Moduli (GPa) = 61.05601 61.05601 55.48611
#
# Poissons Ratio (x) = 0.46311 0.25289
# Poissons Ratio (y) = 0.46311 0.25289
# Poissons Ratio (z) = 0.27828 0.27828
#
# Static dielectric constant tensor:
#      x y z
#    x 3.237910 0.000000 0.000000 
#    y 0.000000 3.237910 0.000000 
#    z 0.000000 0.000000 3.083560 
# 
# 
# High freq. dielectric constant tensor:
#      x y z
#    x 1.639250 0.000000 0.000000 
#    y 0.000000 1.639250 0.000000 
#    z 0.000000 0.000000 1.626820 
# 
# From -- ./inp_files/3329.got.cif
#   From: 2010.03.12/outbox.cif.g09.slc.cpg/sg109_2_cif.got.tgz:3329.got - 2010.04.14 01:55:16.
