data_PCOD8307394
_publ_section_title
;
Structure prediction by ZEFSAII (Michael W. Deem and Ramdas Pophale) SiO2 
 PCOD8307394
Probable space group: P 42 M C
;
_chemical_formula_sum "Si O2"
_cell_formula_units_Z 48
_cell_length_a 9.000000
_cell_length_b 9.000000
_cell_length_c 30.000000
_cell_angle_alpha 90.000000
_cell_angle_beta 90.000000
_cell_angle_gamma 90.000000
_cell_volume 2430.000000
_symmetry_space_group_name_H-M "P 42 M C"
_symmetry_group_IT_number 105
_symmetry_cell_setting 'tetragonal'
loop_
_space_group_symop_operation_xyz
x,y,z
-y,x,1/2+z
-x,-y,z
y,-x,1/2+z
-x,y,z
x,-y,z
-y,-x,1/2+z
y,x,1/2+z
loop_
_atom_site_type_symbol
_atom_site_label
_atom_site_fract_x
_atom_site_fract_y
_atom_site_fract_z
Si Si1 0.177515 0.837073 0.449040
Si Si2 0.837804 0.675453 0.271736
Si Si3 0.672411 0.665080 0.187689
Si Si4 0.838444 0.825399 0.114874
Si Si5 0.822480 0.663490 0.532558
Si Si6 0.175735 0.336286 0.367186
O O1 0.237735 0.727824 0.486680
O O2 0.243776 0.774991 0.403200
O O3 0.000000 0.842056 0.449037
O O4 0.242836 0.000000 0.457471
O O5 0.850421 0.500000 0.278201
O O6 0.712627 0.721099 0.236878
O O7 0.788685 0.739100 0.319538
O O8 0.000000 0.737509 0.256826
O O9 0.500000 0.659753 0.181232
O O10 0.740336 0.500000 0.179014
O O11 0.736786 0.788765 0.156139
O O12 0.765858 0.755244 0.071120
O O13 0.000000 0.753208 0.121342
O O14 0.850807 0.000000 0.109804
O O15 0.756643 0.500000 0.538944
O O16 0.000000 0.660779 0.534073
O O17 0.247650 0.500000 0.372710
O O18 0.000000 0.350876 0.373721
#
# Coordination Sequence:
#
# PCOD8307394 Si02
#       6
#     8   8   8   8   8   8
#     4   9  15  22  34  56  87 118 147 185 233 281
#     4   8  14  26  44  64  87 116 149 186 229 277
#     4  10  20  33  50  72  96 124 160 199 238 285
#     4  10  20  33  49  70  96 126 160 199 245 294
#     4   9  16  26  41  61  88 123 159 194 235 285
#     4   8  13  22  37  56  78 107 143 181 224 275
#
# _framework density 19.753086
#
# number of rings (size 3 to 8) (size 9 to 14) (size 15 to 20)
#    0.000    3.000    0.000    3.000    0.000    6.000 
#    0.000    0.833    0.000    3.000    0.000    1.167 
#    0.000    6.667    0.000    0.000    0.000    0.000 
#
# Total GULP energy -594645.575720 kJ/mol
# GULP energy per Si atom -12388.449494 kJ/mol
# Density = 1.970813 g / cm^3
# Si number density = 19.753086 Si / 1000 Ang^3
#
#
#
# Elastic Constant Matrix: (Units=GPa)
#
#
# Indices 1 2 3 4 5 6 
#
# 1 24.2217 25.7452 41.1397 0.0000 0.0000 0.0000
# 2 25.7452 24.2217 41.1397 0.0000 0.0000 0.0000
# 3 41.1397 41.1397 124.8375 0.0000 0.0000 0.0000
# 4 0.0000 0.0000 0.0000 11.4255 0.0000 0.0000
# 5 0.0000 0.0000 0.0000 0.0000 11.4255 0.0000
# 6 0.0000 0.0000 0.0000 0.0000 0.0000 -0.5635
#
#
#
# Elastic Compliance Matrix: (Units=1/GPa)
#
#
# Indices 1 2 3 4 5 6 
#
# 1 -0.306315 0.350074 -0.014421 0.000000 0.000000 0.000000
# 2 0.350074 -0.306315 -0.014421 0.000000 0.000000 0.000000
# 3 -0.014421 -0.014421 0.017515 0.000000 0.000000 0.000000
# 4 0.000000 0.000000 0.000000 0.087523 0.000000 0.000000
# 5 0.000000 0.000000 0.000000 0.000000 0.087523 0.000000
# 6 0.000000 0.000000 0.000000 0.000000 0.000000 -1.774619
#
#
# Mechanical properties :
#
#
# Convention : Reuss Voigt Hill
#
# Bulk Modulus (GPa) = 21.11887 43.25890 32.18888
# Shear Modulus (GPa) = -1.77219 8.80793 3.51787
#
# Velocity S-wave (km/s) = -0.94822 2.11393 1.33596
# Velocity P-wave (km/s) = 3.08477 5.28258 4.32559
#
# Compressibility (1/GPa) = 0.04735102
#
# Stress axis : x y z
#
# Youngs Moduli (GPa) = -3.26461 -3.26461 57.09379
#
# Poissons Ratio (x) = 1.14286 0.82334
# Poissons Ratio (y) = 1.14286 0.82334
# Poissons Ratio (z) = -0.04708 -0.04708
#
# Static dielectric constant tensor:
#      x y z
#    x 3.223130 0.000000 0.000000 
#    y 0.000000 3.223130 0.000000 
#    z 0.000000 0.000000 3.952550 
# 
# 
# High freq. dielectric constant tensor:
#      x y z
#    x 1.716310 0.000000 0.000000 
#    y 0.000000 1.716310 0.000000 
#    z 0.000000 0.000000 1.767560 
# 
# From -- ./inp_files/4708.got.cif
#   From: 2010.03.12/outbox.ucp.g09.slc.cvg/sg105_3_cif.got.tgz:4708.got - 2010.05.04 20:20:01.
