data_PCOD8307141
_publ_section_title
;
Structure prediction by ZEFSAII (Michael W. Deem and Ramdas Pophale) SiO2 
 PCOD8307141
Probable space group: P 42 M C
;
_chemical_formula_sum "Si O2"
_cell_formula_units_Z 48
_cell_length_a 8.169233
_cell_length_b 8.169233
_cell_length_c 34.137434
_cell_angle_alpha 90.000000
_cell_angle_beta 90.000000
_cell_angle_gamma 90.000000
_cell_volume 2278.208351
_symmetry_space_group_name_H-M "P 42 M C"
_symmetry_group_IT_number 105
_symmetry_cell_setting 'tetragonal'
loop_
_space_group_symop_operation_xyz
x,y,z
-y,x,1/2+z
-x,-y,z
y,-x,1/2+z
-x,y,z
x,-y,z
-y,-x,1/2+z
y,x,1/2+z
loop_
_atom_site_type_symbol
_atom_site_label
_atom_site_fract_x
_atom_site_fract_y
_atom_site_fract_z
Si Si1 0.690041 0.500000 0.675460
Si Si2 0.185424 0.812110 0.221871
Si Si3 0.807477 0.680266 0.304416
Si Si4 0.500000 0.303576 0.087883
Si Si5 0.191179 0.685751 0.466578
Si Si6 0.820365 0.309838 0.044007
Si Si7 0.183138 0.805199 0.884970
O O1 0.500000 0.500000 0.670058
O O2 0.733875 0.669882 0.696656
O O3 0.766784 0.500000 0.632011
O O4 0.235296 0.793617 0.267404
O O5 0.000000 0.737092 0.214336
O O6 0.179403 0.000000 0.210710
O O7 0.736494 0.500000 0.295737
O O8 0.728047 0.746771 0.344664
O O9 0.000000 0.673156 0.310595
O O10 0.500000 0.500000 0.085233
O O11 0.665691 0.231649 0.067362
O O12 0.229160 0.500000 0.478050
O O13 0.282296 0.800110 0.497595
O O14 0.257943 0.716630 0.422650
O O15 0.000000 0.727187 0.468382
O O16 0.823036 0.500000 0.053267
O O17 0.000000 0.236889 0.056556
O O18 0.000000 0.741473 0.889934
O O19 0.190995 0.000000 0.882503
#
# Coordination Sequence:
#
# PCOD8307141 Si02
#       7
#     4   8   8   4   8   8   8
#     4  11  23  39  63  91 117 147 191 249 303 353
#     4  10  21  38  60  86 118 157 196 235 292 365
#     4   9  16  28  49  77 108 145 192 240 283 334
#     4   9  20  39  59  83 111 143 185 233 287 349
#     4  10  19  31  50  78 111 148 190 236 286 340
#     4  10  20  36  59  82 107 145 188 231 285 348
#     4   9  16  26  43  71 108 148 190 237 286 339
#
# _framework density 21.069191
#
# number of rings (size 3 to 8) (size 9 to 14) (size 15 to 20)
#    0.000    2.333    0.833    2.250    0.000    6.667 
#    0.000    3.333    1.833    0.000    0.000    0.000 
#    0.000    0.000    0.000    0.000    0.000    0.000 
#
# Total GULP energy -594812.924806 kJ/mol
# GULP energy per Si atom -12391.935933 kJ/mol
# Density = 2.102124 g / cm^3
# Si number density = 21.069191 Si / 1000 Ang^3
#
#
#
# Elastic Constant Matrix: (Units=GPa)
#
#
# Indices 1 2 3 4 5 6 
#
# 1 80.1952 21.4120 39.9701 0.0000 0.0000 0.0000
# 2 21.4120 80.1952 39.9701 0.0000 0.0000 0.0000
# 3 39.9701 39.9701 146.8277 0.0000 0.0000 0.0000
# 4 0.0000 0.0000 0.0000 21.6440 0.0000 0.0000
# 5 0.0000 0.0000 0.0000 0.0000 21.6440 0.0000
# 6 0.0000 0.0000 0.0000 0.0000 0.0000 17.5925
#
#
#
# Elastic Compliance Matrix: (Units=1/GPa)
#
#
# Indices 1 2 3 4 5 6 
#
# 1 0.014768 -0.002244 -0.003409 0.000000 0.000000 0.000000
# 2 -0.002244 0.014768 -0.003409 0.000000 0.000000 0.000000
# 3 -0.003409 -0.003409 0.008667 0.000000 0.000000 0.000000
# 4 0.000000 0.000000 0.000000 0.046202 0.000000 0.000000
# 5 0.000000 0.000000 0.000000 0.000000 0.046202 0.000000
# 6 0.000000 0.000000 0.000000 0.000000 0.000000 0.056842
#
#
# Mechanical properties :
#
#
# Convention : Reuss Voigt Hill
#
# Bulk Modulus (GPa) = 49.80638 56.65806 53.23222
# Shear Modulus (GPa) = 23.55525 25.90052 24.72789
#
# Velocity S-wave (km/s) = 3.34727 3.50995 3.42958
# Velocity P-wave (km/s) = 6.21528 6.58606 6.40335
#
# Compressibility (1/GPa) = 0.02007775
#
# Stress axis : x y z
#
# Youngs Moduli (GPa) = 67.71431 67.71431 115.38098
#
# Poissons Ratio (x) = 0.15193 0.39338
# Poissons Ratio (y) = 0.15193 0.39338
# Poissons Ratio (z) = 0.23086 0.23086
#
# Static dielectric constant tensor:
#      x y z
#    x 3.789170 0.000000 0.000000 
#    y 0.000000 3.789170 0.000000 
#    z 0.000000 0.000000 3.938380 
# 
# 
# High freq. dielectric constant tensor:
#      x y z
#    x 1.806380 0.000000 0.000000 
#    y 0.000000 1.806380 0.000000 
#    z 0.000000 0.000000 1.828050 
# 
# From -- ./inp_files/4732.got.cif
#   From: 2010.03.12/outbox.cif.g09.slc.cpg/sg105_3_cif.got.tgz:4732.got - 2010.04.14 01:45:32.
