data_PCOD8307516
_publ_section_title
;
Structure prediction by ZEFSAII (Michael W. Deem and Ramdas Pophale) SiO2 
 PCOD8307516
Probable space group: I 4 M M
;
_chemical_formula_sum "Si O2"
_cell_formula_units_Z 96
_cell_length_a 21.608410
_cell_length_b 21.608410
_cell_length_c 9.726065
_cell_angle_alpha 90.000000
_cell_angle_beta 90.000000
_cell_angle_gamma 90.000000
_cell_volume 4541.327170
_symmetry_space_group_name_H-M "I 4 M M"
_symmetry_group_IT_number 107
_symmetry_cell_setting 'tetragonal'
loop_
_space_group_symop_operation_xyz
x,y,z
-y,x,z
-x,-y,z
y,-x,z
-x,y,z
x,-y,z
-y,-x,z
y,x,z
1/2+x,1/2+y,1/2+z
1/2-y,1/2+x,1/2+z
1/2-x,1/2-y,1/2+z
1/2+y,1/2-x,1/2+z
1/2-x,1/2+y,1/2+z
1/2+x,1/2-y,1/2+z
1/2-y,1/2-x,1/2+z
1/2+y,1/2+x,1/2+z
loop_
_atom_site_type_symbol
_atom_site_label
_atom_site_fract_x
_atom_site_fract_y
_atom_site_fract_z
Si Si1 0.169968 0.928104 0.568050
Si Si2 0.777336 0.876096 0.307411
Si Si3 0.153496 0.571842 0.700272
Si Si4 0.369728 0.727236 0.326089
Si Si5 0.427489 0.147451 0.379079
Si Si6 0.931193 0.162213 0.063567
O O1 0.103614 0.896387 0.541350
O O2 0.220729 0.898150 0.465435
O O3 0.192716 0.915426 0.721761
O O4 0.162212 0.000000 0.541591
O O5 0.806101 0.806101 0.292810
O O6 0.707930 0.882044 0.250568
O O7 0.820746 0.923764 0.223092
O O8 0.172498 0.500000 0.721435
O O9 0.137624 0.584361 0.540837
O O10 0.092998 0.586517 0.793734
O O11 0.298692 0.701309 0.303236
O O12 0.381025 0.800366 0.315905
O O13 0.390137 0.711115 0.480479
O O14 0.500000 0.162358 0.351188
O O15 0.907356 0.092644 0.036153
O O16 0.000000 0.167382 0.010504
#
# Coordination Sequence:
#
# PCOD8307516 Si02
#       6
#    16  16  16  16  16  16
#     4  10  20  33  53  83 120 164 212 260 309 366
#     4  10  21  38  61  90 122 160 205 254 309 367
#     4  11  25  44  67  95 127 164 206 255 310 369
#     4  10  21  38  61  90 122 160 205 254 309 367
#     4  11  25  44  67  95 127 164 206 255 310 369
#     4  10  18  31  53  79 114 158 202 250 303 360
#
# _framework density 21.139195000000001
#
# number of rings (size 3 to 8) (size 9 to 14) (size 15 to 20)
#    0.000    1.667    1.667    3.000    2.333    2.000 
#    0.000    1.667    0.000    6.000    0.000    0.000 
#    0.000    0.000    0.000    0.000    0.000    0.000 
#
# Total GULP energy -594895.963753 kJ/mol
# GULP energy per Si atom -12393.665912 kJ/mol
# Density = 2.109108 g / cm^3
# Si number density = 21.139195 Si / 1000 Ang^3
#
#
#
# Elastic Constant Matrix: (Units=GPa)
#
#
# Indices 1 2 3 4 5 6 
#
# 1 78.5038 51.7458 35.8166 0.0000 0.0000 0.0000
# 2 51.7458 78.5038 35.8166 0.0000 0.0000 0.0000
# 3 35.8166 35.8166 88.0187 0.0000 0.0000 0.0000
# 4 0.0000 0.0000 0.0000 28.4628 0.0000 0.0000
# 5 0.0000 0.0000 0.0000 0.0000 28.4628 0.0000
# 6 0.0000 0.0000 0.0000 0.0000 0.0000 25.2186
#
#
#
# Elastic Compliance Matrix: (Units=1/GPa)
#
#
# Indices 1 2 3 4 5 6 
#
# 1 0.023632 -0.013740 -0.004025 0.000000 0.000000 0.000000
# 2 -0.013740 0.023632 -0.004025 0.000000 0.000000 0.000000
# 3 -0.004025 -0.004025 0.014637 0.000000 0.000000 0.000000
# 4 0.000000 0.000000 0.000000 0.035134 0.000000 0.000000
# 5 0.000000 0.000000 0.000000 0.000000 0.035134 0.000000
# 6 0.000000 0.000000 0.000000 0.000000 0.000000 0.039653
#
#
# Mechanical properties :
#
#
# Convention : Reuss Voigt Hill
#
# Bulk Modulus (GPa) = 54.58662 54.64271 54.61467
# Shear Modulus (GPa) = 22.57260 24.53864 23.55562
#
# Velocity S-wave (km/s) = 3.27128 3.41077 3.34175
# Velocity P-wave (km/s) = 6.33616 6.43554 6.38604
#
# Compressibility (1/GPa) = 0.01831951
#
# Stress axis : x y z
#
# Youngs Moduli (GPa) = 42.31629 42.31629 68.32070
#
# Poissons Ratio (x) = 0.58144 0.27498
# Poissons Ratio (y) = 0.58144 0.27498
# Poissons Ratio (z) = 0.17032 0.17032
#
# Static dielectric constant tensor:
#      x y z
#    x 3.652820 0.000000 0.000000 
#    y 0.000000 3.652820 0.000000 
#    z 0.000000 0.000000 3.899720 
# 
# 
# High freq. dielectric constant tensor:
#      x y z
#    x 1.814070 0.000000 0.000000 
#    y 0.000000 1.814070 0.000000 
#    z 0.000000 0.000000 1.843230 
# 
# From -- ./inp_files/2422.got.cif
#   From: 2010.03.12/outbox.cif.g09.slc.cpg/sg107_2_cif.got.tgz:2422.got - 2010.04.14 01:49:11.
