data_PCOD8307119
_publ_section_title
;
Structure prediction by ZEFSAII (Michael W. Deem and Ramdas Pophale) SiO2 
 PCOD8307119
Probable space group: P 42 M C
;
_chemical_formula_sum "Si O2"
_cell_formula_units_Z 34
_cell_length_a 7.791587
_cell_length_b 7.791587
_cell_length_c 26.705225
_cell_angle_alpha 90.000000
_cell_angle_beta 90.000000
_cell_angle_gamma 90.000000
_cell_volume 1621.242911
_symmetry_space_group_name_H-M "P 42 M C"
_symmetry_group_IT_number 105
_symmetry_cell_setting 'tetragonal'
loop_
_space_group_symop_operation_xyz
x,y,z
-y,x,1/2+z
-x,-y,z
y,-x,1/2+z
-x,y,z
x,-y,z
-y,-x,1/2+z
y,x,1/2+z
loop_
_atom_site_type_symbol
_atom_site_label
_atom_site_fract_x
_atom_site_fract_y
_atom_site_fract_z
Si Si1 0.798912 0.300744 0.832830
Si Si2 0.809327 0.695051 0.227718
Si Si3 0.205441 0.500000 0.010801
Si Si4 0.500000 0.500000 0.090277
Si Si5 0.202764 0.809532 0.940165
Si Si6 0.186810 0.500000 0.665030
O O1 0.756326 0.500000 0.829437
O O2 0.706397 0.204783 0.787592
O O3 0.722318 0.229974 0.885112
O O4 0.000000 0.263446 0.829004
O O5 0.779522 0.500000 0.210899
O O6 0.667420 0.807909 0.200201
O O7 0.000000 0.756547 0.211751
O O8 0.321255 0.500000 0.060152
O O9 0.000000 0.500000 0.023362
O O10 0.263588 0.668390 0.980028
O O11 0.500000 0.329848 0.123096
O O12 0.000000 0.796980 0.936231
O O13 0.262366 0.000000 0.957455
O O14 0.000000 0.500000 0.638824
#
# Coordination Sequence:
#
# PCOD8307119 Si02
#       6
#     8   8   4   2   8   4
#     4  10  18  31  56  91 131 173 211 249 300 364
#     4  11  23  40  63  94 133 174 213 258 312 377
#     4  10  22  43  67  91 123 160 205 264 324 378
#     4  12  28  48  68  98 120 156 208 272 340 394
#     4   9  17  33  59  90 127 170 211 251 301 369
#     4  12  26  47  71  93 125 164 209 270 330 388
#
# _framework density 20.971564999999998
#
# number of rings (size 3 to 8) (size 9 to 14) (size 15 to 20)
#    0.000    1.647    3.529    1.412    0.000    4.706 
#    2.118    0.000    0.000    0.000    0.000    0.000 
#    0.000    0.000    0.000    0.000    0.000    0.000 
#
# Total GULP energy -421568.110800 kJ/mol
# GULP energy per Si atom -12399.062082 kJ/mol
# Density = 2.092383 g / cm^3
# Si number density = 20.971565 Si / 1000 Ang^3
#
#
#
# Elastic Constant Matrix: (Units=GPa)
#
#
# Indices 1 2 3 4 5 6 
#
# 1 118.1444 46.6885 51.5284 0.0000 0.0000 0.0000
# 2 46.6885 118.1444 51.5284 0.0000 0.0000 0.0000
# 3 51.5284 51.5284 119.7115 0.0000 0.0000 0.0000
# 4 0.0000 0.0000 0.0000 20.1586 0.0000 0.0000
# 5 0.0000 0.0000 0.0000 0.0000 20.1586 0.0000
# 6 0.0000 0.0000 0.0000 0.0000 0.0000 2.3733
#
#
#
# Elastic Compliance Matrix: (Units=1/GPa)
#
#
# Indices 1 2 3 4 5 6 
#
# 1 0.011148 -0.002847 -0.003573 0.000000 0.000000 0.000000
# 2 -0.002847 0.011148 -0.003573 0.000000 0.000000 0.000000
# 3 -0.003573 -0.003573 0.011429 0.000000 0.000000 0.000000
# 4 0.000000 0.000000 0.000000 0.049607 0.000000 0.000000
# 5 0.000000 0.000000 0.000000 0.000000 0.049607 0.000000
# 6 0.000000 0.000000 0.000000 0.000000 0.000000 0.421351
#
#
# Mechanical properties :
#
#
# Convention : Reuss Voigt Hill
#
# Bulk Modulus (GPa) = 72.78630 72.83233 72.80932
# Shear Modulus (GPa) = 8.63776 22.28844 15.46310
#
# Velocity S-wave (km/s) = 2.03168 3.26359 2.71834
# Velocity P-wave (km/s) = 6.34714 7.00042 6.68176
#
# Compressibility (1/GPa) = 0.01373885
#
# Stress axis : x y z
#
# Youngs Moduli (GPa) = 89.70522 89.70522 87.49489
#
# Poissons Ratio (x) = 0.25539 0.31261
# Poissons Ratio (y) = 0.25539 0.31261
# Poissons Ratio (z) = 0.32051 0.32051
#
# Static dielectric constant tensor:
#      x y z
#    x 3.758280 0.000000 0.000000 
#    y 0.000000 3.758280 0.000000 
#    z 0.000000 0.000000 3.634130 
# 
# 
# High freq. dielectric constant tensor:
#      x y z
#    x 1.822660 0.000000 0.000000 
#    y 0.000000 1.822660 0.000000 
#    z 0.000000 0.000000 1.801310 
# 
# From -- ./inp_files/3546.got.cif
#   From: 2010.03.12/outbox.cif.g09.slc.cpg/sg105_2_cif.got.tgz:3546.got - 2010.04.14 01:45:32.
