data_PCOD8307071
_publ_section_title
;
Structure prediction by ZEFSAII (Michael W. Deem and Ramdas Pophale) SiO2 
 PCOD8307071
Probable space group: P 4 N C 
;
_chemical_formula_sum "Si O2"
_cell_formula_units_Z 56
_cell_length_a 15.170684
_cell_length_b 15.170684
_cell_length_c 9.611390
_cell_angle_alpha 90.000000
_cell_angle_beta 90.000000
_cell_angle_gamma 90.000000
_cell_volume 2212.058074
_symmetry_space_group_name_H-M "P 4 N C "
_symmetry_group_IT_number 104
_symmetry_cell_setting 'tetragonal'
loop_
_space_group_symop_operation_xyz
x,y,z
-y,x,z
-x,-y,z
y,-x,z
1/2-x,1/2+y,1/2+z
1/2+x,1/2-y,1/2+z
1/2-y,1/2-x,1/2+z
1/2+y,1/2+x,1/2+z
loop_
_atom_site_type_symbol
_atom_site_label
_atom_site_fract_x
_atom_site_fract_y
_atom_site_fract_z
Si Si1 0.332921 0.201787 0.445490
Si Si2 0.631054 0.087879 0.712653
Si Si3 0.998539 0.857033 0.520930
Si Si4 0.937880 0.872270 0.090425
Si Si5 0.267688 0.291505 0.708981
Si Si6 0.996713 0.211944 0.827974
Si Si7 0.498353 0.157424 0.933085
O O1 0.311666 0.220276 0.606424
O O2 0.240861 0.211975 0.363789
O O3 0.399610 0.278186 0.395422
O O4 0.371078 0.103515 0.430028
O O5 0.702459 0.164152 0.681157
O O6 0.608320 0.043084 0.564940
O O7 0.685641 0.022591 0.810988
O O8 0.543493 0.121744 0.791511
O O9 0.994624 0.763789 0.441208
O O10 0.086164 0.912259 0.479638
O O11 0.005415 0.841396 0.685588
O O12 0.892064 0.800456 0.187750
O O13 0.039688 0.884097 0.125791
O O14 0.936205 0.840984 0.929044
#
# Coordination Sequence:
#
# PCOD8307071 Si02
#       7
#     8   8   8   8   8   8   8
#     4  12  28  48  77 111 153 201 257 316 382 468
#     4  11  26  47  77 107 151 202 255 313 379 457
#     4  10  23  43  74 112 154 200 253 321 387 459
#     4  11  23  41  69 109 151 191 248 314 383 449
#     4  12  26  47  74 110 150 202 251 312 384 459
#     4  11  23  44  73 112 146 203 258 312 381 452
#     4  11  27  47  77 112 150 205 253 316 384 457
#
# _framework density 25.31579
#
# number of rings (size 3 to 8) (size 9 to 14) (size 15 to 20)
#    0.000    0.857    1.429    5.143   12.000    2.857 
#    0.000    4.286    0.000    0.000    0.000    0.000 
#    0.000    0.000    0.000    0.000    0.000    0.000 
#
# Total GULP energy -694392.664682 kJ/mol
# GULP energy per Si atom -12399.869012 kJ/mol
# Density = 2.525817 g / cm^3
# Si number density = 25.315790 Si / 1000 Ang^3
#
#
#
# Elastic Constant Matrix: (Units=GPa)
#
#
# Indices 1 2 3 4 5 6 
#
# 1 109.6801 13.8442 37.3399 0.0000 0.0000 0.0000
# 2 13.8442 109.6801 37.3399 0.0000 0.0000 0.0000
# 3 37.3399 37.3399 66.5478 0.0000 0.0000 0.0000
# 4 0.0000 0.0000 0.0000 30.9765 0.0000 0.0000
# 5 0.0000 0.0000 0.0000 0.0000 30.9765 0.0000
# 6 0.0000 0.0000 0.0000 0.0000 0.0000 36.0509
#
#
#
# Elastic Compliance Matrix: (Units=1/GPa)
#
#
# Indices 1 2 3 4 5 6 
#
# 1 0.011343 0.000909 -0.006874 0.000000 0.000000 0.000000
# 2 0.000909 0.011343 -0.006874 0.000000 0.000000 0.000000
# 3 -0.006874 -0.006874 0.022741 0.000000 0.000000 0.000000
# 4 0.000000 0.000000 0.000000 0.032283 0.000000 0.000000
# 5 0.000000 0.000000 0.000000 0.000000 0.032283 0.000000
# 6 0.000000 0.000000 0.000000 0.000000 0.000000 0.027739
#
#
# Mechanical properties :
#
#
# Convention : Reuss Voigt Hill
#
# Bulk Modulus (GPa) = 50.64066 51.43954 51.04010
# Shear Modulus (GPa) = 29.41283 32.75970 31.08626
#
# Velocity S-wave (km/s) = 3.41227 3.60118 3.50800
# Velocity P-wave (km/s) = 5.96421 6.13634 6.05089
#
# Compressibility (1/GPa) = 0.01974698
#
# Stress axis : x y z
#
# Youngs Moduli (GPa) = 88.15941 88.15941 43.97298
#
# Poissons Ratio (x) = -0.08010 0.30229
# Poissons Ratio (y) = -0.08010 0.30229
# Poissons Ratio (z) = 0.60604 0.60604
#
# Static dielectric constant tensor:
#      x y z
#    x 4.545330 0.000000 0.000000 
#    y 0.000000 4.545330 0.000000 
#    z 0.000000 0.000000 4.314340 
# 
# 
# High freq. dielectric constant tensor:
#      x y z
#    x 2.017170 0.000000 0.000000 
#    y 0.000000 2.017170 0.000000 
#    z 0.000000 0.000000 2.004390 
# 
# From -- ./inp_files/1051.got.cif
#   From: 2010.03.12/outbox.cif.g09.slc.cpg/sg104_cif.got.tgz:1051.got - 2010.04.14 01:44:05.
