data_PCOD8307249
_publ_section_title
;
Structure prediction by ZEFSAII (Michael W. Deem and Ramdas Pophale) SiO2 
 PCOD8307249
Probable space group: P 42 M C
;
_chemical_formula_sum "Si O2"
_cell_formula_units_Z 48
_cell_length_a 9.105591
_cell_length_b 9.105591
_cell_length_c 30.788303
_cell_angle_alpha 90.000000
_cell_angle_beta 90.000000
_cell_angle_gamma 90.000000
_cell_volume 2552.713235
_symmetry_space_group_name_H-M "P 42 M C"
_symmetry_group_IT_number 105
_symmetry_cell_setting 'tetragonal'
loop_
_space_group_symop_operation_xyz
x,y,z
-y,x,1/2+z
-x,-y,z
y,-x,1/2+z
-x,y,z
x,-y,z
-y,-x,1/2+z
y,x,1/2+z
loop_
_atom_site_type_symbol
_atom_site_label
_atom_site_fract_x
_atom_site_fract_y
_atom_site_fract_z
Si Si1 0.170423 0.671775 0.234830
Si Si2 0.672889 0.831622 0.157728
Si Si3 0.169168 0.169169 0.570434
Si Si4 0.829576 0.671775 0.406037
Si Si5 0.825420 0.165783 0.320434
Si Si6 0.831622 0.327111 0.983139
O O1 0.195807 0.500000 0.241183
O O2 0.260248 0.726926 0.193830
O O3 0.233043 0.751982 0.277648
O O4 0.000000 0.709611 0.227385
O O5 0.500000 0.811514 0.157232
O O6 0.734420 0.780800 0.111282
O O7 0.718750 0.000000 0.167264
O O8 0.265581 0.219198 0.529585
O O9 0.000000 0.197840 0.558482
O O10 0.197833 0.000000 0.582385
O O11 0.804191 0.500000 0.399684
O O12 0.766957 0.751984 0.363220
O O13 0.739754 0.726925 0.447038
O O14 0.000000 0.709609 0.413482
O O15 0.000000 0.169048 0.320434
O O16 0.764334 0.000000 0.320433
O O17 0.811513 0.500000 0.983635
O O18 0.000000 0.281251 0.973603
#
# Coordination Sequence:
#
# PCOD8307249 Si02
#       6
#     8   8   8   8   8   8
#     4  10  20  34  54  80 109 140 175 216 262 313
#     4  10  21  36  54  78 108 140 175 216 262 313
#     4   9  18  34  56  79 104 138 180 223 264 309
#     4  10  20  34  54  80 109 140 175 216 262 313
#     4   9  17  31  54  81 106 135 174 220 266 311
#     4  10  21  36  54  78 108 140 175 216 262 313
#
# _framework density 18.803522999999998
#
# number of rings (size 3 to 8) (size 9 to 14) (size 15 to 20)
#    0.000    2.333    0.000    2.500    0.000    7.333 
#    0.000    4.167    0.000    5.000    0.000    0.000 
#    0.000    0.000    0.000    0.000    0.000    0.000 
#
# Total GULP energy -595384.287856 kJ/mol
# GULP energy per Si atom -12403.839330 kJ/mol
# Density = 1.876073 g / cm^3
# Si number density = 18.803523 Si / 1000 Ang^3
#
#
#
# Elastic Constant Matrix: (Units=GPa)
#
#
# Indices 1 2 3 4 5 6 
#
# 1 77.3374 42.2225 66.1075 0.0000 0.0000 0.0000
# 2 42.2225 77.3374 66.1075 0.0000 0.0000 0.0000
# 3 66.1075 66.1075 157.8935 0.0000 0.0000 0.0000
# 4 0.0000 0.0000 0.0000 -1.7737 0.0000 0.0000
# 5 0.0000 0.0000 0.0000 0.0000 -1.7737 0.0000
# 6 0.0000 0.0000 0.0000 0.0000 0.0000 23.2774
#
#
#
# Elastic Compliance Matrix: (Units=1/GPa)
#
#
# Indices 1 2 3 4 5 6 
#
# 1 0.022027 -0.006451 -0.006521 0.000000 0.000000 0.000000
# 2 -0.006451 0.022027 -0.006521 0.000000 0.000000 0.000000
# 3 -0.006521 -0.006521 0.011794 0.000000 0.000000 0.000000
# 4 0.000000 0.000000 0.000000 -0.563805 0.000000 0.000000
# 5 0.000000 0.000000 0.000000 0.000000 -0.563805 0.000000
# 6 0.000000 0.000000 0.000000 0.000000 0.000000 0.042960
#
#
# Mechanical properties :
#
#
# Convention : Reuss Voigt Hill
#
# Bulk Modulus (GPa) = 59.31143 73.49370 66.40257
# Shear Modulus (GPa) = -5.08030 13.15474 4.03722
#
# Velocity S-wave (km/s) = -1.64549 2.64784 1.46687
# Velocity P-wave (km/s) = 5.29160 6.96549 6.18543
#
# Compressibility (1/GPa) = 0.01686016
#
# Stress axis : x y z
#
# Youngs Moduli (GPa) = 45.39947 45.39947 84.78871
#
# Poissons Ratio (x) = 0.29288 0.55292
# Poissons Ratio (y) = 0.29288 0.55292
# Poissons Ratio (z) = 0.29606 0.29606
#
# Static dielectric constant tensor:
#      x y z
#    x 3.349080 0.000000 0.000000 
#    y 0.000000 3.349080 0.000000 
#    z 0.000000 0.000000 3.579960 
# 
# 
# High freq. dielectric constant tensor:
#      x y z
#    x 1.719650 0.000000 0.000000 
#    y 0.000000 1.719650 0.000000 
#    z 0.000000 0.000000 1.744680 
# 
# From -- ./inp_files/4671.got.cif
#   From: 2010.03.12/outbox.cif.g09.slc.cpg/sg105_3_cif.got.tgz:4671.got - 2010.04.14 01:45:32.
