data_PCOD8307299
_publ_section_title
;
Structure prediction by ZEFSAII (Michael W. Deem and Ramdas Pophale) SiO2 
 PCOD8307299
Probable space group: P 42 M C
;
_chemical_formula_sum "Si O2"
_cell_formula_units_Z 48
_cell_length_a 8.234403
_cell_length_b 8.234403
_cell_length_c 34.333954
_cell_angle_alpha 90.000000
_cell_angle_beta 90.000000
_cell_angle_gamma 90.000000
_cell_volume 2328.027236
_symmetry_space_group_name_H-M "P 42 M C"
_symmetry_group_IT_number 105
_symmetry_cell_setting 'tetragonal'
loop_
_space_group_symop_operation_xyz
x,y,z
-y,x,1/2+z
-x,-y,z
y,-x,1/2+z
-x,y,z
x,-y,z
-y,-x,1/2+z
y,x,1/2+z
loop_
_atom_site_type_symbol
_atom_site_label
_atom_site_fract_x
_atom_site_fract_y
_atom_site_fract_z
Si Si1 0.824597 0.188155 0.808010
Si Si2 0.187357 0.184379 0.066858
Si Si3 0.682790 0.811095 0.149649
Si Si4 0.694318 0.500000 0.934200
Si Si5 0.500000 0.310205 0.521789
Si Si6 0.320228 0.311359 0.229999
Si Si7 0.311913 0.184270 0.888725
O O1 0.750708 0.217693 0.765925
O O2 0.712280 0.243135 0.844010
O O3 0.000000 0.275672 0.811478
O O4 0.850288 0.000000 0.812082
O O5 0.211188 0.232179 0.111973
O O6 0.261864 0.330346 0.041933
O O7 0.000000 0.177981 0.056827
O O8 0.260887 0.000000 0.058758
O O9 0.500000 0.744670 0.142463
O O10 0.761493 0.730325 0.188258
O O11 0.681522 0.000000 0.157641
O O12 0.500000 0.500000 0.931069
O O13 0.762462 0.668656 0.914908
O O14 0.761076 0.500000 0.978231
O O15 0.500000 0.500000 0.519595
O O16 0.500000 0.231689 0.230997
O O17 0.333417 0.500000 0.234912
O O18 0.500000 0.171054 0.897740
O O19 0.237388 0.000000 0.896682
#
# Coordination Sequence:
#
# PCOD8307299 Si02
#       7
#     8   8   8   4   4   8   8
#     4  10  21  36  53  76 108 146 189 233 280 338
#     4  10  22  40  61  87 121 160 199 244 303 364
#     4   9  18  34  55  80 111 148 192 239 289 346
#     4   9  20  37  59  89 115 145 191 241 295 355
#     4  11  23  39  63  93 123 155 199 251 301 365
#     4  10  21  34  51  79 112 146 186 234 283 333
#     4   9  18  35  58  82 112 148 186 235 290 347
#
# _framework density 20.618313000000001
#
# number of rings (size 3 to 8) (size 9 to 14) (size 15 to 20)
#    0.000    2.333    0.000    1.750    2.333    4.333 
#    0.000    5.000    0.000    2.000    0.000    0.000 
#    0.000    0.000    0.000    0.000    0.000    0.000 
#
# Total GULP energy -594635.494063 kJ/mol
# GULP energy per Si atom -12388.239460 kJ/mol
# Density = 2.057138 g / cm^3
# Si number density = 20.618313 Si / 1000 Ang^3
#
#
#
# Elastic Constant Matrix: (Units=GPa)
#
#
# Indices 1 2 3 4 5 6 
#
# 1 69.7432 29.3776 49.3914 0.0000 0.0000 0.0000
# 2 29.3776 69.7432 49.3914 0.0000 0.0000 0.0000
# 3 49.3914 49.3914 144.1026 0.0000 0.0000 0.0000
# 4 0.0000 0.0000 0.0000 51.5078 0.0000 0.0000
# 5 0.0000 0.0000 0.0000 0.0000 51.5078 0.0000
# 6 0.0000 0.0000 0.0000 0.0000 0.0000 19.5609
#
#
#
# Elastic Compliance Matrix: (Units=1/GPa)
#
#
# Indices 1 2 3 4 5 6 
#
# 1 0.020048 -0.004725 -0.005252 0.000000 0.000000 0.000000
# 2 -0.004725 0.020048 -0.005252 0.000000 0.000000 0.000000
# 3 -0.005252 -0.005252 0.010540 0.000000 0.000000 0.000000
# 4 0.000000 0.000000 0.000000 0.019415 0.000000 0.000000
# 5 0.000000 0.000000 0.000000 0.000000 0.019415 0.000000
# 6 0.000000 0.000000 0.000000 0.000000 0.000000 0.051122
#
#
# Mechanical properties :
#
#
# Convention : Reuss Voigt Hill
#
# Bulk Modulus (GPa) = 49.56007 59.98994 54.77501
# Shear Modulus (GPa) = 28.12597 34.87721 31.50159
#
# Velocity S-wave (km/s) = 3.69741 4.11733 3.91301
# Velocity P-wave (km/s) = 6.50515 7.19457 6.85852
#
# Compressibility (1/GPa) = 0.02017753
#
# Stress axis : x y z
#
# Youngs Moduli (GPa) = 49.87997 49.87997 94.87965
#
# Poissons Ratio (x) = 0.23571 0.49829
# Poissons Ratio (y) = 0.23571 0.49829
# Poissons Ratio (z) = 0.26196 0.26196
#
# Static dielectric constant tensor:
#      x y z
#    x 4.018410 0.000000 0.000000 
#    y 0.000000 4.018410 0.000000 
#    z 0.000000 0.000000 3.912880 
# 
# 
# High freq. dielectric constant tensor:
#      x y z
#    x 1.797180 0.000000 0.000000 
#    y 0.000000 1.797180 0.000000 
#    z 0.000000 0.000000 1.807990 
# 
# From -- ./inp_files/4739.got.cif
#   From: 2010.03.12/outbox.cif.g09.slc.cpg/sg105_3_cif.got.tgz:4739.got - 2010.04.14 01:45:32.
