data_PCOD8307873
_publ_section_title
;
Structure prediction by ZEFSAII (Michael W. Deem and Ramdas Pophale) SiO2 
 PCOD8307873
Probable space group: I 41 M D
;
_chemical_formula_sum "Si O2"
_cell_formula_units_Z 96
_cell_length_a 22.718151
_cell_length_b 22.718151
_cell_length_c 9.766708
_cell_angle_alpha 90.000000
_cell_angle_beta 90.000000
_cell_angle_gamma 90.000000
_cell_volume 5040.738492
_symmetry_space_group_name_H-M "I 41 M D"
_symmetry_group_IT_number 109
_symmetry_cell_setting 'tetragonal'
loop_
_space_group_symop_operation_xyz
x,y,z
-y,1/2+x,1/4+z
-x,-y,z
y,1/2-x,1/4+z
-x,y,z
x,-y,z
-y,1/2-x,1/4+z
y,1/2+x,1/4+z
1/2+x,1/2+y,1/2+z
1/2-y,x,3/4+z
1/2-x,1/2-y,1/2+z
1/2+y,-x,3/4+z
1/2-x,1/2+y,1/2+z
1/2+x,1/2-y,1/2+z
1/2-y,-x,3/4+z
1/2+y,x,3/4+z
loop_
_atom_site_type_symbol
_atom_site_label
_atom_site_fract_x
_atom_site_fract_y
_atom_site_fract_z
Si Si1 0.430149 0.359393 0.339570
Si Si2 0.859016 0.932603 0.053701
Si Si3 0.746545 0.432702 0.924064
Si Si4 0.613634 0.872504 0.094587
Si Si5 0.566640 0.273096 0.861535
Si Si6 0.564009 0.931803 0.342173
O O1 0.500000 0.366227 0.365096
O O2 0.395561 0.383014 0.472275
O O3 0.415261 0.291869 0.296349
O O4 0.405029 0.398276 0.215335
O O5 0.874695 0.928621 0.213777
O O6 0.789698 0.918156 0.043479
O O7 0.873025 0.000000 0.005874
O O8 0.726086 0.500000 0.944435
O O9 0.689183 0.391032 0.927699
O O10 0.776165 0.425942 0.775553
O O11 0.680605 0.886685 0.048919
O O12 0.594234 0.924097 0.195874
O O13 0.500000 0.290200 0.821437
O O14 0.500000 0.901038 0.343576
O O15 0.557846 0.000000 0.370681
#
# Coordination Sequence:
#
# PCOD8307873 Si02
#       6
#    16  16  16  16  16  16
#     4  10  20  37  57  80 118 156 188 234 294 352
#     4  10  22  38  57  83 118 154 188 235 301 358
#     4   9  18  35  58  80 106 149 193 229 280 345
#     4  11  19  34  60  81 109 145 197 242 281 338
#     4   9  18  36  59  80 109 151 191 231 284 343
#     4  10  19  31  53  84 110 137 181 237 290 342
#
# _framework density 19.044827999999999
#
# number of rings (size 3 to 8) (size 9 to 14) (size 15 to 20)
#    0.000    2.167    1.667    3.500    0.000    2.333 
#    3.000    0.000   14.667    0.000    0.000    0.000 
#    0.000    0.000    0.000    0.000    0.000    0.000 
#
# Total GULP energy -594919.445280 kJ/mol
# GULP energy per Si atom -12394.155110 kJ/mol
# Density = 1.900148 g / cm^3
# Si number density = 19.044828 Si / 1000 Ang^3
#
#
#
# Elastic Constant Matrix: (Units=GPa)
#
#
# Indices 1 2 3 4 5 6 
#
# 1 92.5651 59.1615 31.1112 0.0000 0.0000 0.0000
# 2 59.1615 92.5651 31.1112 0.0000 0.0000 0.0000
# 3 31.1112 31.1112 69.3735 0.0000 0.0000 0.0000
# 4 0.0000 0.0000 0.0000 31.5665 0.0000 0.0000
# 5 0.0000 0.0000 0.0000 0.0000 31.5665 0.0000
# 6 0.0000 0.0000 0.0000 0.0000 0.0000 32.5664
#
#
#
# Elastic Compliance Matrix: (Units=1/GPa)
#
#
# Indices 1 2 3 4 5 6 
#
# 1 0.019006 -0.010930 -0.003622 0.000000 0.000000 0.000000
# 2 -0.010930 0.019006 -0.003622 0.000000 0.000000 0.000000
# 3 -0.003622 -0.003622 0.017663 0.000000 0.000000 0.000000
# 4 0.000000 0.000000 0.000000 0.031679 0.000000 0.000000
# 5 0.000000 0.000000 0.000000 0.000000 0.031679 0.000000
# 6 0.000000 0.000000 0.000000 0.000000 0.000000 0.030707
#
#
# Mechanical properties :
#
#
# Convention : Reuss Voigt Hill
#
# Bulk Modulus (GPa) = 51.73797 55.25238 53.49518
# Shear Modulus (GPa) = 25.96976 28.01454 26.99215
#
# Velocity S-wave (km/s) = 3.69672 3.83950 3.76878
# Velocity P-wave (km/s) = 6.74139 6.98071 6.86210
#
# Compressibility (1/GPa) = 0.01932817
#
# Stress axis : x y z
#
# Youngs Moduli (GPa) = 52.61360 52.61360 56.61494
#
# Poissons Ratio (x) = 0.57509 0.20505
# Poissons Ratio (y) = 0.57509 0.20505
# Poissons Ratio (z) = 0.19056 0.19056
#
# Static dielectric constant tensor:
#      x y z
#    x 3.487970 0.000000 0.000000 
#    y 0.000000 3.487970 0.000000 
#    z 0.000000 0.000000 3.278280 
# 
# 
# High freq. dielectric constant tensor:
#      x y z
#    x 1.732150 0.000000 0.000000 
#    y 0.000000 1.732150 0.000000 
#    z 0.000000 0.000000 1.724090 
# 
# From -- ./inp_files/1442.got.cif
#   From: 2010.03.12/outbox.cif.g09.slc.cpg/sg109_1_cif.got.tgz:1442.got - 2010.04.14 01:55:16.
