data_PCOD8307988
_publ_section_title
;
Structure prediction by ZEFSAII (Michael W. Deem and Ramdas Pophale) SiO2 
 PCOD8307988
Probable space group: I 41 M D
;
_chemical_formula_sum "Si O2"
_cell_formula_units_Z 96
_cell_length_a 14.444089
_cell_length_b 14.444089
_cell_length_c 25.493452
_cell_angle_alpha 90.000000
_cell_angle_beta 90.000000
_cell_angle_gamma 90.000000
_cell_volume 5318.742409
_symmetry_space_group_name_H-M "I 41 M D"
_symmetry_group_IT_number 109
_symmetry_cell_setting 'tetragonal'
loop_
_space_group_symop_operation_xyz
x,y,z
-y,1/2+x,1/4+z
-x,-y,z
y,1/2-x,1/4+z
-x,y,z
x,-y,z
-y,1/2-x,1/4+z
y,1/2+x,1/4+z
1/2+x,1/2+y,1/2+z
1/2-y,x,3/4+z
1/2-x,1/2-y,1/2+z
1/2+y,-x,3/4+z
1/2-x,1/2+y,1/2+z
1/2+x,1/2-y,1/2+z
1/2-y,-x,3/4+z
1/2+y,x,3/4+z
loop_
_atom_site_type_symbol
_atom_site_label
_atom_site_fract_x
_atom_site_fract_y
_atom_site_fract_z
Si Si1 0.104895 0.800138 0.919390
Si Si2 0.785212 0.772047 0.464686
Si Si3 0.605174 0.699847 0.294263
Si Si4 0.890191 0.000000 0.798992
Si Si5 0.108194 0.393990 0.512614
Si Si6 0.000000 0.392353 0.162437
Si Si7 0.107831 0.896008 0.383233
O O1 0.180114 0.733489 0.944378
O O2 0.114722 0.797570 0.856733
O O3 0.129554 0.903629 0.942108
O O4 0.000000 0.770964 0.935770
O O5 0.779533 0.831909 0.518125
O O6 0.832098 0.673308 0.475815
O O7 0.842963 0.823580 0.420547
O O8 0.500000 0.720255 0.277436
O O9 0.637676 0.597815 0.272070
O O10 0.841324 0.000000 0.856209
O O11 0.000000 0.000000 0.804921
O O12 0.132904 0.500000 0.497741
O O13 0.133020 0.374549 0.573114
O O14 0.000000 0.375282 0.502616
O O15 0.000000 0.500000 0.149157
O O16 0.000000 0.893353 0.396176
O O17 0.145987 0.000000 0.392929
#
# Coordination Sequence:
#
# PCOD8307988 Si02
#       7
#    16  16  16   8  16   8  16
#     4   9  19  32  47  70 104 137 165 202 248 296
#     4  12  20  28  55  82 102 123 176 216 254 290
#     4   9  18  32  47  69 102 136 167 202 244 294
#     4   7  12  26  46  60  85 131 169 189 224 288
#     4   9  20  38  55  73 102 135 166 208 262 312
#     4   7  12  28  46  58  83 131 171 191 226 284
#     4   9  19  37  56  74 100 134 170 209 257 313
#
# _framework density 18.049379999999999
#
# number of rings (size 3 to 8) (size 9 to 14) (size 15 to 20)
#    0.000    2.833    0.000    5.000    2.333    0.000 
#    0.000    0.000    0.000    0.000    0.000    9.333 
#    0.000    0.000    0.000    0.000    0.000    0.000 
#
# Total GULP energy -594627.101692 kJ/mol
# GULP energy per Si atom -12388.064619 kJ/mol
# Density = 1.800830 g / cm^3
# Si number density = 18.049380 Si / 1000 Ang^3
#
#
#
# Elastic Constant Matrix: (Units=GPa)
#
#
# Indices 1 2 3 4 5 6 
#
# 1 81.0383 48.3422 40.9373 0.0000 0.0000 0.0000
# 2 48.3422 81.0383 40.9373 0.0000 0.0000 0.0000
# 3 40.9373 40.9373 52.3161 0.0000 0.0000 0.0000
# 4 0.0000 0.0000 0.0000 18.9394 0.0000 0.0000
# 5 0.0000 0.0000 0.0000 0.0000 18.9394 0.0000
# 6 0.0000 0.0000 0.0000 0.0000 0.0000 29.7971
#
#
#
# Elastic Compliance Matrix: (Units=1/GPa)
#
#
# Indices 1 2 3 4 5 6 
#
# 1 0.022948 -0.007637 -0.011981 0.000000 0.000000 0.000000
# 2 -0.007637 0.022948 -0.011981 0.000000 0.000000 0.000000
# 3 -0.011981 -0.011981 0.037864 0.000000 0.000000 0.000000
# 4 0.000000 0.000000 0.000000 0.052800 0.000000 0.000000
# 5 0.000000 0.000000 0.000000 0.000000 0.052800 0.000000
# 6 0.000000 0.000000 0.000000 0.000000 0.000000 0.033560
#
#
# Mechanical properties :
#
#
# Convention : Reuss Voigt Hill
#
# Bulk Modulus (GPa) = 48.63063 52.75848 50.69455
# Shear Modulus (GPa) = 17.06658 19.14693 18.10676
#
# Velocity S-wave (km/s) = 3.07831 3.26054 3.17074
# Velocity P-wave (km/s) = 6.29574 6.59305 6.44611
#
# Compressibility (1/GPa) = 0.02056317
#
# Stress axis : x y z
#
# Youngs Moduli (GPa) = 43.57740 43.57740 26.41027
#
# Poissons Ratio (x) = 0.33280 0.31641
# Poissons Ratio (y) = 0.33280 0.31641
# Poissons Ratio (z) = 0.52208 0.52208
#
# Static dielectric constant tensor:
#      x y z
#    x 3.370000 0.000000 0.000000 
#    y 0.000000 3.370000 0.000000 
#    z 0.000000 0.000000 3.014730 
# 
# 
# High freq. dielectric constant tensor:
#      x y z
#    x 1.695350 0.000000 0.000000 
#    y 0.000000 1.695350 0.000000 
#    z 0.000000 0.000000 1.675600 
# 
# From -- ./inp_files/4997.got.cif
#   From: 2010.03.12/outbox.cif.g09.slc.cpg/sg109_3_cif.got.tgz:4997.got - 2010.04.14 01:55:16.
