data_PCOD8307889
_publ_section_title
;
Structure prediction by ZEFSAII (Michael W. Deem and Ramdas Pophale) SiO2 
 PCOD8307889
Probable space group: I 41 M D
;
_chemical_formula_sum "Si O2"
_cell_formula_units_Z 48
_cell_length_a 7.855632
_cell_length_b 7.855632
_cell_length_c 37.342942
_cell_angle_alpha 90.000000
_cell_angle_beta 90.000000
_cell_angle_gamma 90.000000
_cell_volume 2304.468580
_symmetry_space_group_name_H-M "I 41 M D"
_symmetry_group_IT_number 109
_symmetry_cell_setting 'tetragonal'
loop_
_space_group_symop_operation_xyz
x,y,z
-y,1/2+x,1/4+z
-x,-y,z
y,1/2-x,1/4+z
-x,y,z
x,-y,z
-y,1/2-x,1/4+z
y,1/2+x,1/4+z
1/2+x,1/2+y,1/2+z
1/2-y,x,3/4+z
1/2-x,1/2-y,1/2+z
1/2+y,-x,3/4+z
1/2-x,1/2+y,1/2+z
1/2+x,1/2-y,1/2+z
1/2-y,-x,3/4+z
1/2+y,x,3/4+z
loop_
_atom_site_type_symbol
_atom_site_label
_atom_site_fract_x
_atom_site_fract_y
_atom_site_fract_z
Si Si1 0.197895 0.688907 0.638680
Si Si2 0.500000 0.797315 0.341512
Si Si3 0.694369 0.310119 0.462668
Si Si4 0.299425 0.500000 0.011168
O O1 0.228530 0.500000 0.622359
O O2 0.288973 0.694928 0.676995
O O3 0.000000 0.723879 0.645752
O O4 0.271388 0.830531 0.611513
O O5 0.500000 0.724032 0.301325
O O6 0.500000 0.000000 0.340480
O O7 0.500000 0.285732 0.450969
O O8 0.727826 0.500000 0.478360
O O9 0.738056 0.171827 0.492445
O O10 0.500000 0.500000 0.011415
#
# Coordination Sequence:
#
# PCOD8307889 Si02
#       4
#    16   8  16   8
#     4  10  19  35  62  91 119 160 212 263 317 379
#     4   9  20  37  59  89 127 166 208 260 324 388
#     4  11  23  39  61  89 121 165 218 264 313 380
#     4  11  23  39  61  93 129 167 209 264 331 385
#
# _framework density 20.829097999999998
#
# number of rings (size 3 to 8) (size 9 to 14) (size 15 to 20)
#    0.000    1.667    3.333    1.500    0.000    4.000 
#    0.000    6.667    0.000    0.000    0.000    0.000 
#    0.000    0.000    0.000    0.000    0.000    0.000 
#
# Total GULP energy -297605.761961 kJ/mol
# GULP energy per Si atom -12400.240082 kJ/mol
# Density = 2.078169 g / cm^3
# Si number density = 20.829098 Si / 1000 Ang^3
#
#
#
# Elastic Constant Matrix: (Units=GPa)
#
#
# Indices 1 2 3 4 5 6 
#
# 1 124.3658 40.7322 55.8733 0.0000 0.0000 0.0000
# 2 40.7322 124.3658 55.8734 0.0000 0.0000 0.0000
# 3 55.8733 55.8734 154.9187 0.0000 0.0000 0.0000
# 4 0.0000 0.0000 0.0000 17.3376 0.0000 0.0000
# 5 0.0000 0.0000 0.0000 0.0000 17.3375 0.0000
# 6 0.0000 0.0000 0.0000 0.0000 0.0000 22.2725
#
#
#
# Elastic Compliance Matrix: (Units=1/GPa)
#
#
# Indices 1 2 3 4 5 6 
#
# 1 0.009985 -0.001972 -0.002890 0.000000 0.000000 0.000000
# 2 -0.001972 0.009985 -0.002890 0.000000 0.000000 0.000000
# 3 -0.002890 -0.002890 0.008540 0.000000 0.000000 0.000000
# 4 0.000000 0.000000 0.000000 0.057678 0.000000 0.000000
# 5 0.000000 0.000000 0.000000 0.000000 0.057678 0.000000
# 6 0.000000 0.000000 0.000000 0.000000 0.000000 0.044898
#
#
# Mechanical properties :
#
#
# Convention : Reuss Voigt Hill
#
# Bulk Modulus (GPa) = 76.88892 78.73423 77.81158
# Shear Modulus (GPa) = 23.96886 28.13427 26.05157
#
# Velocity S-wave (km/s) = 3.39594 3.67920 3.54040
# Velocity P-wave (km/s) = 7.23677 7.47869 7.35873
#
# Compressibility (1/GPa) = 0.01300577
#
# Stress axis : x y z
#
# Youngs Moduli (GPa) = 100.14999 100.14999 117.10078
#
# Poissons Ratio (x) = 0.19748 0.33843
# Poissons Ratio (y) = 0.19748 0.33843
# Poissons Ratio (z) = 0.28944 0.28944
#
# Static dielectric constant tensor:
#      x y z
#    x 3.815510 0.000000 0.000000 
#    y 0.000000 3.815510 0.000000 
#    z 0.000000 0.000000 3.781100 
# 
# 
# High freq. dielectric constant tensor:
#      x y z
#    x 1.818420 0.000000 0.000000 
#    y 0.000000 1.818420 0.000000 
#    z 0.000000 0.000000 1.796890 
# 
# From -- ./inp_files/5264.got.cif
#   From: 2010.03.12/outbox.cif.g09.slc.cpg/sg109_3_cif.got.tgz:5264.got - 2010.04.14 01:55:16.
