data_PCOD8307106
_publ_section_title
;
Structure prediction by ZEFSAII (Michael W. Deem and Ramdas Pophale) SiO2 
 PCOD8307106
Probable space group: P 42 M C
;
_chemical_formula_sum "Si O2"
_cell_formula_units_Z 48
_cell_length_a 25.321989
_cell_length_b 25.321989
_cell_length_c 5.303583
_cell_angle_alpha 90.000000
_cell_angle_beta 90.000000
_cell_angle_gamma 90.000000
_cell_volume 3400.674003
_symmetry_space_group_name_H-M "P 42 M C"
_symmetry_group_IT_number 105
_symmetry_cell_setting 'tetragonal'
loop_
_space_group_symop_operation_xyz
x,y,z
-y,x,1/2+z
-x,-y,z
y,-x,1/2+z
-x,y,z
x,-y,z
-y,-x,1/2+z
y,x,1/2+z
loop_
_atom_site_type_symbol
_atom_site_label
_atom_site_fract_x
_atom_site_fract_y
_atom_site_fract_z
Si Si1 0.120340 0.791176 0.457200
Si Si2 0.730973 0.109739 0.457202
Si Si3 0.937038 0.559925 0.457203
Si Si4 0.102365 0.059549 0.957209
Si Si5 0.937648 0.383150 0.957202
Si Si6 0.247050 0.224275 0.457203
O O1 0.095953 0.763314 0.704690
O O2 0.102275 0.851123 0.457212
O O3 0.184188 0.790702 0.457198
O O4 0.095953 0.763318 0.209701
O O5 0.677862 0.076794 0.457215
O O6 0.717195 0.172176 0.457206
O O7 0.916264 0.500000 0.457214
O O8 0.914508 0.588895 0.207834
O O9 0.000000 0.561366 0.457204
O O10 0.914508 0.588899 0.706561
O O11 0.067327 0.067327 0.707208
O O12 0.125003 0.000000 0.957211
O O13 0.000000 0.389032 0.957201
O O14 0.258851 0.258852 0.707202
#
# Coordination Sequence:
#
# PCOD8307106 Si02
#       6
#     8   8   8   8   8   8
#     4  10  19  33  49  63  79 102 124 139 171 234
#     4  10  18  28  44  64  85  99 114 147 181 208
#     4   9  17  30  44  55  73 105 136 152 167 203
#     4  12  25  40  55  67  78  94 120 151 183 224
#     4  10  19  28  40  61  83  99 120 153 187 210
#     4   8  14  25  40  54  71  95 118 134 158 208
#
# _framework density 14.114850000000001
#
# number of rings (size 3 to 8) (size 9 to 14) (size 15 to 20)
#    0.000    2.167    0.000    6.000    0.000    4.333 
#    0.000    0.000    0.000    0.000    0.000    0.000 
#    0.000    0.000    0.000    0.000    0.000    0.000 
#
# Total GULP energy -594959.977530 kJ/mol
# GULP energy per Si atom -12394.999532 kJ/mol
# Density = 1.408272 g / cm^3
# Si number density = 14.114850 Si / 1000 Ang^3
#
#
#
# Elastic Constant Matrix: (Units=GPa)
#
#
# Indices 1 2 3 4 5 6 
#
# 1 37.9131 0.3575 19.1087 0.0000 0.0000 0.0000
# 2 0.3575 37.9131 19.1087 0.0000 0.0000 0.0000
# 3 19.1087 19.1087 152.5886 0.0000 0.0000 0.0000
# 4 0.0000 0.0000 0.0000 15.5046 0.0000 0.0000
# 5 0.0000 0.0000 0.0000 0.0000 15.5046 0.0000
# 6 0.0000 0.0000 0.0000 0.0000 0.0000 2.6496
#
#
#
# Elastic Compliance Matrix: (Units=1/GPa)
#
#
# Indices 1 2 3 4 5 6 
#
# 1 0.028246 0.001619 -0.003740 0.000000 0.000000 0.000000
# 2 0.001619 0.028246 -0.003740 0.000000 0.000000 0.000000
# 3 -0.003740 -0.003740 0.007490 0.000000 0.000000 0.000000
# 4 0.000000 0.000000 0.000000 0.064497 0.000000 0.000000
# 5 0.000000 0.000000 0.000000 0.000000 0.064497 0.000000
# 6 0.000000 0.000000 0.000000 0.000000 0.000000 0.377416
#
#
# Mechanical properties :
#
#
# Convention : Reuss Voigt Hill
#
# Bulk Modulus (GPa) = 19.13530 33.95163 26.54346
# Shear Modulus (GPa) = 8.33982 19.38777 13.86379
#
# Velocity S-wave (km/s) = 2.43339 3.71019 3.13743
# Velocity P-wave (km/s) = 4.63481 6.51614 5.65427
#
# Compressibility (1/GPa) = 0.05225944
#
# Stress axis : x y z
#
# Youngs Moduli (GPa) = 35.40350 35.40350 133.50641
#
# Poissons Ratio (x) = -0.05731 0.49931
# Poissons Ratio (y) = -0.05731 0.49931
# Poissons Ratio (z) = 0.13241 0.13241
#
# Static dielectric constant tensor:
#      x y z
#    x 2.410550 0.000000 0.000000 
#    y 0.000000 2.410550 0.000000 
#    z 0.000000 0.000000 3.778980 
# 
# 
# High freq. dielectric constant tensor:
#      x y z
#    x 1.488860 0.000000 0.000000 
#    y 0.000000 1.488860 0.000000 
#    z 0.000000 0.000000 1.580530 
# 
# From -- ./inp_files/263.got.cif
#   From: 2010.03.12/outbox.cif.g09.slc.cpg/sg105_1_cif.got.tgz:263.got - 2010.04.14 01:45:32.
