data_PCOD8307918
_publ_section_title
;
Structure prediction by ZEFSAII (Michael W. Deem and Ramdas Pophale) SiO2 
 PCOD8307918
Probable space group: I 41 M D
;
_chemical_formula_sum "Si O2"
_cell_formula_units_Z 128
_cell_length_a 22.580935
_cell_length_b 22.580935
_cell_length_c 12.288931
_cell_angle_alpha 90.000000
_cell_angle_beta 90.000000
_cell_angle_gamma 90.000000
_cell_volume 6266.109025
_symmetry_space_group_name_H-M "I 41 M D"
_symmetry_group_IT_number 109
_symmetry_cell_setting 'tetragonal'
loop_
_space_group_symop_operation_xyz
x,y,z
-y,1/2+x,1/4+z
-x,-y,z
y,1/2-x,1/4+z
-x,y,z
x,-y,z
-y,1/2-x,1/4+z
y,1/2+x,1/4+z
1/2+x,1/2+y,1/2+z
1/2-y,x,3/4+z
1/2-x,1/2-y,1/2+z
1/2+y,-x,3/4+z
1/2-x,1/2+y,1/2+z
1/2+x,1/2-y,1/2+z
1/2-y,-x,3/4+z
1/2+y,x,3/4+z
loop_
_atom_site_type_symbol
_atom_site_label
_atom_site_fract_x
_atom_site_fract_y
_atom_site_fract_z
Si Si1 0.763470 0.650724 0.539800
Si Si2 0.570510 0.658158 0.655820
Si Si3 0.435437 0.262802 0.959683
Si Si4 0.321175 0.355077 0.228746
Si Si5 0.935128 0.103337 0.377650
Si Si6 0.932718 0.341314 0.794806
Si Si7 0.735112 0.641715 0.899195
Si Si8 0.813102 0.643747 0.212278
O O1 0.782663 0.604305 0.446913
O O2 0.730776 0.613144 0.634688
O O3 0.819402 0.686423 0.586823
O O4 0.712281 0.693767 0.499080
O O5 0.500000 0.669626 0.642689
O O6 0.581405 0.606987 0.748063
O O7 0.601562 0.645013 0.538832
O O8 0.500000 0.234184 0.944050
O O9 0.435833 0.330982 0.925249
O O10 0.416086 0.255134 0.082984
O O11 0.361137 0.402875 0.160032
O O12 0.317401 0.291277 0.170628
O O13 0.353972 0.345120 0.344531
O O14 0.253971 0.380795 0.224516
O O15 0.890298 0.064633 0.448974
O O16 0.000000 0.074273 0.389592
O O17 0.887274 0.289492 0.759384
O O18 0.000000 0.319858 0.814443
#
# Coordination Sequence:
#
# PCOD8307918 Si02
#       8
#    16  16  16  16  16  16  16  16
#     4  11  21  35  63  93 124 158 204 254 306 371
#     4  10  21  39  61  90 127 162 201 249 310 373
#     4  10  20  35  58  87 122 157 192 243 312 369
#     4  12  25  41  57  88 130 169 209 251 309 378
#     4   9  19  40  65  87 117 157 203 259 308 358
#     4  12  25  41  61  92 126 162 206 256 310 373
#     4  12  21  38  59  92 129 157 197 258 316 373
#     4  12  24  39  60  91 126 171 212 246 309 373
#
# _framework density 20.427350000000001
#
# number of rings (size 3 to 8) (size 9 to 14) (size 15 to 20)
#    0.000    1.000    6.250    3.000    1.750    0.750 
#    0.000    0.625    0.000    0.750    0.000    0.000 
#    0.000    0.000    0.000    0.000    0.000    0.000 
#
# Total GULP energy -792886.654734 kJ/mol
# GULP energy per Si atom -12388.853980 kJ/mol
# Density = 2.038086 g / cm^3
# Si number density = 20.427350 Si / 1000 Ang^3
#
#
#
# Elastic Constant Matrix: (Units=GPa)
#
#
# Indices 1 2 3 4 5 6 
#
# 1 84.5792 19.4581 43.2346 0.0000 0.0000 0.0000
# 2 19.4581 84.5792 43.2346 0.0000 0.0000 0.0000
# 3 43.2346 43.2346 138.5651 0.0000 0.0000 0.0000
# 4 0.0000 0.0000 0.0000 20.5378 0.0000 0.0000
# 5 0.0000 0.0000 0.0000 0.0000 20.5378 0.0000
# 6 0.0000 0.0000 0.0000 0.0000 0.0000 8.7191
#
#
#
# Elastic Compliance Matrix: (Units=1/GPa)
#
#
# Indices 1 2 3 4 5 6 
#
# 1 0.014167 -0.001189 -0.004049 0.000000 0.000000 0.000000
# 2 -0.001189 0.014167 -0.004049 0.000000 0.000000 0.000000
# 3 -0.004049 -0.004049 0.009744 0.000000 0.000000 0.000000
# 4 0.000000 0.000000 0.000000 0.048691 0.000000 0.000000
# 5 0.000000 0.000000 0.000000 0.000000 0.048691 0.000000
# 6 0.000000 0.000000 0.000000 0.000000 0.000000 0.114690
#
#
# Mechanical properties :
#
#
# Convention : Reuss Voigt Hill
#
# Bulk Modulus (GPa) = 51.27755 57.73091 54.50423
# Shear Modulus (GPa) = 18.16697 23.41200 20.78949
#
# Velocity S-wave (km/s) = 2.98542 3.38910 3.19365
# Velocity P-wave (km/s) = 6.08610 6.60587 6.35131
#
# Compressibility (1/GPa) = 0.01950171
#
# Stress axis : x y z
#
# Youngs Moduli (GPa) = 70.58820 70.58820 102.63121
#
# Poissons Ratio (x) = 0.08395 0.41557
# Poissons Ratio (y) = 0.08395 0.41557
# Poissons Ratio (z) = 0.28582 0.28582
#
# Static dielectric constant tensor:
#      x y z
#    x 3.553130 0.000000 0.000000 
#    y 0.000000 3.553130 0.000000 
#    z 0.000000 0.000000 4.134390 
# 
# 
# High freq. dielectric constant tensor:
#      x y z
#    x 1.773580 0.000000 0.000000 
#    y 0.000000 1.773580 0.000000 
#    z 0.000000 0.000000 1.812130 
# 
# From -- ./inp_files/2209.got.cif
#   From: 2010.03.12/outbox.cif.g09.slc.cpg/sg109_2_cif.got.tgz:2209.got - 2010.04.14 01:55:16.
