data_PCOD8307201
_publ_section_title
;
Structure prediction by ZEFSAII (Michael W. Deem and Ramdas Pophale) SiO2 
 PCOD8307201
Probable space group: P 42 M C
;
_chemical_formula_sum "Si O2"
_cell_formula_units_Z 56
_cell_length_a 14.603940
_cell_length_b 14.603940
_cell_length_c 14.255194
_cell_angle_alpha 90.000000
_cell_angle_beta 90.000000
_cell_angle_gamma 90.000000
_cell_volume 3040.277406
_symmetry_space_group_name_H-M "P 42 M C"
_symmetry_group_IT_number 105
_symmetry_cell_setting 'tetragonal'
loop_
_space_group_symop_operation_xyz
x,y,z
-y,x,1/2+z
-x,-y,z
y,-x,1/2+z
-x,y,z
x,-y,z
-y,-x,1/2+z
y,x,1/2+z
loop_
_atom_site_type_symbol
_atom_site_label
_atom_site_fract_x
_atom_site_fract_y
_atom_site_fract_z
Si Si1 0.602378 0.215798 0.307830
Si Si2 0.894375 0.105775 0.168375
Si Si3 0.767708 0.893752 0.997809
Si Si4 0.099724 0.392630 0.988935
Si Si5 0.601288 0.891615 0.691486
Si Si6 0.895013 0.600687 0.619954
Si Si7 0.752506 0.801678 0.803793
O O1 0.500000 0.263930 0.314422
O O2 0.628314 0.166521 0.404397
O O3 0.600257 0.145734 0.223215
O O4 0.693535 0.276908 0.293983
O O5 0.857354 0.117276 0.062533
O O6 0.829259 0.163161 0.237106
O O7 0.000000 0.140027 0.172460
O O8 0.887732 0.000000 0.199533
O O9 0.677879 0.854236 0.051688
O O10 0.754507 0.000000 0.967844
O O11 0.782106 0.829833 0.908157
O O12 0.087468 0.500000 0.003792
O O13 0.137978 0.355912 0.089668
O O14 0.000000 0.349232 0.966755
O O15 0.500000 0.850326 0.705694
O O16 0.661977 0.855557 0.776106
O O17 0.598386 0.000000 0.696237
O O18 0.880758 0.500000 0.573828
O O19 0.000000 0.624986 0.635742
#
# Coordination Sequence:
#
# PCOD8307201 Si02
#       7
#     8   8   8   8   8   8   8
#     4  10  20  32  50  78 110 142 180 228 279 328
#     4  10  22  39  54  74 110 151 190 226 260 312
#     4  10  21  36  51  76 107 142 187 228 268 324
#     4   8  15  29  50  77 107 137 171 217 277 330
#     4   9  19  36  57  82 110 138 176 232 287 332
#     4   9  17  32  53  76 106 140 177 226 279 325
#     4  12  23  35  57  81 108 144 190 224 277 332
#
# _framework density 18.419371999999999
#
# number of rings (size 3 to 8) (size 9 to 14) (size 15 to 20)
#    0.000    2.286    1.429    2.571    2.000    3.429 
#    0.000    2.857    0.000    0.429    0.000    0.000 
#    0.000    3.429    0.000    0.000    0.000    0.143 
#
# Total GULP energy -693847.730408 kJ/mol
# GULP energy per Si atom -12390.138043 kJ/mol
# Density = 1.837745 g / cm^3
# Si number density = 18.419372 Si / 1000 Ang^3
#
#
#
# Elastic Constant Matrix: (Units=GPa)
#
#
# Indices 1 2 3 4 5 6 
#
# 1 75.6336 16.8892 28.2734 0.0000 0.0000 0.0000
# 2 16.8892 75.6336 28.2734 0.0000 0.0000 0.0000
# 3 28.2734 28.2734 88.8476 0.0000 0.0000 0.0000
# 4 0.0000 0.0000 0.0000 22.4876 0.0000 0.0000
# 5 0.0000 0.0000 0.0000 0.0000 22.4876 0.0000
# 6 0.0000 0.0000 0.0000 0.0000 0.0000 14.7122
#
#
#
# Elastic Compliance Matrix: (Units=1/GPa)
#
#
# Indices 1 2 3 4 5 6 
#
# 1 0.015220 -0.001803 -0.004270 0.000000 0.000000 0.000000
# 2 -0.001803 0.015220 -0.004270 0.000000 0.000000 0.000000
# 3 -0.004270 -0.004270 0.013973 0.000000 0.000000 0.000000
# 4 0.000000 0.000000 0.000000 0.044469 0.000000 0.000000
# 5 0.000000 0.000000 0.000000 0.000000 0.044469 0.000000
# 6 0.000000 0.000000 0.000000 0.000000 0.000000 0.067971
#
#
# Mechanical properties :
#
#
# Convention : Reuss Voigt Hill
#
# Bulk Modulus (GPa) = 42.14277 42.99853 42.57065
# Shear Modulus (GPa) = 21.74704 23.04939 22.39822
#
# Velocity S-wave (km/s) = 3.43980 3.54130 3.49092
# Velocity P-wave (km/s) = 6.22138 6.33372 6.27780
#
# Compressibility (1/GPa) = 0.02372886
#
# Stress axis : x y z
#
# Youngs Moduli (GPa) = 65.70166 65.70166 71.56778
#
# Poissons Ratio (x) = 0.11843 0.30558
# Poissons Ratio (y) = 0.11843 0.30558
# Poissons Ratio (z) = 0.28054 0.28054
#
# Static dielectric constant tensor:
#      x y z
#    x 3.495820 0.000000 0.000000 
#    y 0.000000 3.495820 0.000000 
#    z 0.000000 0.000000 3.521730 
# 
# 
# High freq. dielectric constant tensor:
#      x y z
#    x 1.693880 0.000000 0.000000 
#    y 0.000000 1.693880 0.000000 
#    z 0.000000 0.000000 1.722240 
# 
# From -- ./inp_files/1936.got.cif
#   From: 2010.03.12/outbox.cif.g09.slc.cpg/sg105_1_cif.got.tgz:1936.got - 2010.04.14 01:45:32.
