data_PCOD8307723
_publ_section_title
;
Structure prediction by ZEFSAII (Michael W. Deem and Ramdas Pophale) SiO2 
 PCOD8307723
Probable space group: I 4 C M
;
_chemical_formula_sum "Si O2"
_cell_formula_units_Z 80
_cell_length_a 30.183627
_cell_length_b 30.183627
_cell_length_c 5.301007
_cell_angle_alpha 90.000000
_cell_angle_beta 90.000000
_cell_angle_gamma 90.000000
_cell_volume 4829.489525
_symmetry_space_group_name_H-M "I 4 C M"
_symmetry_group_IT_number 108
_symmetry_cell_setting 'tetragonal'
loop_
_space_group_symop_operation_xyz
x,y,z
-y,x,z
-x,-y,z
y,-x,z
-x,y,1/2+z
x,-y,1/2+z
-y,-x,1/2+z
y,x,1/2+z
1/2+x,1/2+y,1/2+z
1/2-y,1/2+x,1/2+z
1/2-x,1/2-y,1/2+z
1/2+y,1/2-x,1/2+z
1/2-x,1/2+y,z
1/2+x,1/2-y,z
1/2-y,1/2-x,z
1/2+y,1/2+x,z
loop_
_atom_site_type_symbol
_atom_site_label
_atom_site_fract_x
_atom_site_fract_y
_atom_site_fract_z
Si Si1 0.675073 0.245355 0.044910
Si Si2 0.165761 0.147941 0.044910
Si Si3 0.026121 0.700029 0.044910
Si Si4 0.904223 0.474474 0.044910
Si Si5 0.623310 0.239437 0.544910
O O1 0.724603 0.224603 0.044910
O O2 0.678916 0.298994 0.044910
O O3 0.649579 0.226444 0.290788
O O4 0.649579 0.226444 0.799032
O O5 0.137312 0.137312 0.294910
O O6 0.207819 0.116502 0.044910
O O7 0.032358 0.647826 0.044910
O O8 1.000000 0.716017 0.794910
O O9 0.074963 0.719278 0.044910
O O10 0.920058 0.500000 0.794910
O O11 0.926136 0.426136 0.044910
#
# Coordination Sequence:
#
# PCOD8307723 Si02
#       5
#    16  16  16  16  16
#     4  10  19  29  43  67  96 119 141 172 208 250
#     4   8  16  27  41  61  88 115 141 170 200 236
#     4  10  21  37  51  64  85 109 138 180 221 254
#     4  10  21  35  50  66  81  96 119 159 212 269
#     4  10  19  31  46  63  83 116 149 169 207 255
#
# _framework density 16.564897999999999
#
# number of rings (size 3 to 8) (size 9 to 14) (size 15 to 20)
#    0.000    2.400    0.000    2.400    0.000   10.000 
#    0.000    0.000    0.000    0.000    0.000    0.000 
#    0.000    0.000    0.000    0.000    0.000    0.000 
#
# Total GULP energy -495626.331414 kJ/mol
# GULP energy per Si atom -12390.658285 kJ/mol
# Density = 1.652720 g / cm^3
# Si number density = 16.564898 Si / 1000 Ang^3
#
#
#
# Elastic Constant Matrix: (Units=GPa)
#
#
# Indices 1 2 3 4 5 6 
#
# 1 68.8327 -7.8071 15.5798 0.0000 0.0000 0.0000
# 2 -7.8071 68.8327 15.5798 0.0000 0.0000 0.0000
# 3 15.5798 15.5798 163.6751 0.0000 0.0000 0.0000
# 4 0.0000 0.0000 0.0000 15.5843 0.0000 0.0000
# 5 0.0000 0.0000 0.0000 0.0000 15.5843 0.0000
# 6 0.0000 0.0000 0.0000 0.0000 0.0000 30.5063
#
#
#
# Elastic Compliance Matrix: (Units=1/GPa)
#
#
# Indices 1 2 3 4 5 6 
#
# 1 0.015136 0.002088 -0.001639 0.000000 0.000000 0.000000
# 2 0.002088 0.015136 -0.001639 0.000000 0.000000 0.000000
# 3 -0.001639 -0.001639 0.006422 0.000000 0.000000 0.000000
# 4 0.000000 0.000000 0.000000 0.064167 0.000000 0.000000
# 5 0.000000 0.000000 0.000000 0.000000 0.064167 0.000000
# 6 0.000000 0.000000 0.000000 0.000000 0.000000 0.032780
#
#
# Mechanical properties :
#
#
# Convention : Reuss Voigt Hill
#
# Bulk Modulus (GPa) = 29.14497 38.67171 33.90834
# Shear Modulus (GPa) = 23.62642 30.86751 27.24697
#
# Velocity S-wave (km/s) = 3.78073 4.32143 4.06009
# Velocity P-wave (km/s) = 6.05732 6.94953 6.51871
#
# Compressibility (1/GPa) = 0.03431124
#
# Stress axis : x y z
#
# Youngs Moduli (GPa) = 66.06826 66.06826 155.72012
#
# Poissons Ratio (x) = -0.13794 0.25530
# Poissons Ratio (y) = -0.13794 0.25530
# Poissons Ratio (z) = 0.10832 0.10832
#
# Static dielectric constant tensor:
#      x y z
#    x 2.752860 0.000000 0.000000 
#    y 0.000000 2.752860 0.000000 
#    z 0.000000 0.000000 4.223220 
# 
# 
# High freq. dielectric constant tensor:
#      x y z
#    x 1.596150 0.000000 0.000000 
#    y 0.000000 1.596150 0.000000 
#    z 0.000000 0.000000 1.681960 
# 
# From -- ./inp_files/170.got.cif
#   From: 2010.03.12/outbox.cif.g09.slc.cpg/sg108_1_cif.got.tgz:170.got - 2010.04.14 01:53:11.
