data_PCOD8307972
_publ_section_title
;
Structure prediction by ZEFSAII (Michael W. Deem and Ramdas Pophale) SiO2 
 PCOD8307972
Probable space group: I 41 M D
;
_chemical_formula_sum "Si O2"
_cell_formula_units_Z 80
_cell_length_a 16.403770
_cell_length_b 16.403770
_cell_length_c 25.252928
_cell_angle_alpha 90.000000
_cell_angle_beta 90.000000
_cell_angle_gamma 90.000000
_cell_volume 6795.150550
_symmetry_space_group_name_H-M "I 41 M D"
_symmetry_group_IT_number 109
_symmetry_cell_setting 'tetragonal'
loop_
_space_group_symop_operation_xyz
x,y,z
-y,1/2+x,1/4+z
-x,-y,z
y,1/2-x,1/4+z
-x,y,z
x,-y,z
-y,1/2-x,1/4+z
y,1/2+x,1/4+z
1/2+x,1/2+y,1/2+z
1/2-y,x,3/4+z
1/2-x,1/2-y,1/2+z
1/2+y,-x,3/4+z
1/2-x,1/2+y,1/2+z
1/2+x,1/2-y,1/2+z
1/2-y,-x,3/4+z
1/2+y,x,3/4+z
loop_
_atom_site_type_symbol
_atom_site_label
_atom_site_fract_x
_atom_site_fract_y
_atom_site_fract_z
Si Si1 0.406612 0.253656 0.917400
Si Si2 0.333002 0.848290 0.002337
Si Si3 0.000000 0.902827 0.191510
Si Si4 0.906259 0.091695 0.355100
Si Si5 0.000000 0.903586 0.072116
Si Si6 0.677378 0.404127 0.554818
O O1 0.500000 0.236253 0.933475
O O2 0.349385 0.232684 0.967659
O O3 0.391969 0.349128 0.904993
O O4 0.384352 0.200175 0.865650
O O5 0.365870 0.920968 0.967377
O O6 0.383037 0.846869 0.057262
O O7 0.236598 0.855960 0.014685
O O8 0.000000 0.871319 0.131614
O O9 0.000000 0.000000 0.197369
O O10 0.000000 0.101133 0.335041
O O11 0.887054 0.000000 0.373520
O O12 0.916044 0.875134 0.043387
O O13 0.000000 0.000000 0.074456
O O14 0.689541 0.500000 0.544486
#
# Coordination Sequence:
#
# PCOD8307972 Si02
#       6
#    16  16   8  16   8  16
#     4   9  16  23  32  48  70  93 118 142 164 193
#     4  11  16  22  33  50  71  92 122 142 159 193
#     4  11  16  20  34  47  65  99 123 134 158 193
#     4   9  16  24  33  47  70  97 118 138 165 200
#     4   9  16  24  34  44  67  95 119 139 170 197
#     4   9  16  24  31  47  68  93 118 145 164 196
#
# _framework density 11.773102
#
# number of rings (size 3 to 8) (size 9 to 14) (size 15 to 20)
#    0.000    2.400    4.000    3.000    0.000    0.000 
#    0.000    0.000    0.000    0.000    0.000    0.000 
#   12.000    0.000    0.600    0.000    0.000    0.000 
#
# Total GULP energy -495721.953701 kJ/mol
# GULP energy per Si atom -12393.048843 kJ/mol
# Density = 1.174631 g / cm^3
# Si number density = 11.773102 Si / 1000 Ang^3
#
#
#
# Elastic Constant Matrix: (Units=GPa)
#
#
# Indices 1 2 3 4 5 6 
#
# 1 77.1814 22.8887 33.8756 0.0000 0.0000 0.0000
# 2 22.8887 77.1814 33.8756 0.0000 0.0000 0.0000
# 3 33.8756 33.8756 56.7267 0.0000 0.0000 0.0000
# 4 0.0000 0.0000 0.0000 19.7214 0.0000 0.0000
# 5 0.0000 0.0000 0.0000 0.0000 19.7214 0.0000
# 6 0.0000 0.0000 0.0000 0.0000 0.0000 11.8327
#
#
#
# Elastic Compliance Matrix: (Units=1/GPa)
#
#
# Indices 1 2 3 4 5 6 
#
# 1 0.017597 -0.000822 -0.010018 0.000000 0.000000 0.000000
# 2 -0.000822 0.017597 -0.010018 0.000000 0.000000 0.000000
# 3 -0.010018 -0.010018 0.029593 0.000000 0.000000 0.000000
# 4 0.000000 0.000000 0.000000 0.050706 0.000000 0.000000
# 5 0.000000 0.000000 0.000000 0.000000 0.050706 0.000000
# 6 0.000000 0.000000 0.000000 0.000000 0.000000 0.084512
#
#
# Mechanical properties :
#
#
# Convention : Reuss Voigt Hill
#
# Bulk Modulus (GPa) = 43.34128 43.59659 43.46893
# Shear Modulus (GPa) = 16.66014 18.28504 17.47259
#
# Velocity S-wave (km/s) = 3.76587 3.94524 3.85660
# Velocity P-wave (km/s) = 7.47012 7.60686 7.53880
#
# Compressibility (1/GPa) = 0.02307269
#
# Stress axis : x y z
#
# Youngs Moduli (GPa) = 56.82762 56.82762 33.79161
#
# Poissons Ratio (x) = 0.04669 0.33852
# Poissons Ratio (y) = 0.04669 0.33852
# Poissons Ratio (z) = 0.56929 0.56929
#
# Static dielectric constant tensor:
#      x y z
#    x 2.507550 0.000000 0.000000 
#    y 0.000000 2.507550 0.000000 
#    z 0.000000 0.000000 2.358680 
# 
# 
# High freq. dielectric constant tensor:
#      x y z
#    x 1.423430 0.000000 0.000000 
#    y 0.000000 1.423430 0.000000 
#    z 0.000000 0.000000 1.426410 
# 
# From -- ./inp_files/3853.got.cif
#   From: 2010.03.12/outbox.cif.g09.slc.cpg/sg109_2_cif.got.tgz:3853.got - 2010.04.14 01:55:16.
