data_PCOD8307611
_publ_section_title
;
Structure prediction by ZEFSAII (Michael W. Deem and Ramdas Pophale) SiO2 
 PCOD8307611
Probable space group: I 4 M M
;
_chemical_formula_sum "Si O2"
_cell_formula_units_Z 128
_cell_length_a 26.302440
_cell_length_b 26.302440
_cell_length_c 10.233981
_cell_angle_alpha 90.000000
_cell_angle_beta 90.000000
_cell_angle_gamma 90.000000
_cell_volume 7080.055849
_symmetry_space_group_name_H-M "I 4 M M"
_symmetry_group_IT_number 107
_symmetry_cell_setting 'tetragonal'
loop_
_space_group_symop_operation_xyz
x,y,z
-y,x,z
-x,-y,z
y,-x,z
-x,y,z
x,-y,z
-y,-x,z
y,x,z
1/2+x,1/2+y,1/2+z
1/2-y,1/2+x,1/2+z
1/2-x,1/2-y,1/2+z
1/2+y,1/2-x,1/2+z
1/2-x,1/2+y,1/2+z
1/2+x,1/2-y,1/2+z
1/2-y,1/2-x,1/2+z
1/2+y,1/2+x,1/2+z
loop_
_atom_site_type_symbol
_atom_site_label
_atom_site_fract_x
_atom_site_fract_y
_atom_site_fract_z
Si Si1 0.362817 0.442083 0.364410
Si Si2 0.058681 0.302398 0.661782
Si Si3 0.055935 0.684496 0.367149
Si Si4 0.443396 0.695855 0.828912
Si Si5 0.939820 0.189988 0.608767
Si Si6 0.693608 0.611610 0.565977
Si Si7 0.664354 0.842023 0.777574
Si Si8 0.276951 0.810527 0.033357
O O1 0.378597 0.500000 0.363416
O O2 0.411703 0.411703 0.415362
O O3 0.349587 0.422598 0.218817
O O4 0.314748 0.433888 0.461808
O O5 0.063198 0.329293 0.520102
O O6 0.079920 0.245176 0.650026
O O7 0.096997 0.328067 0.766227
O O8 0.000000 0.305498 0.712607
O O9 0.054068 0.744414 0.349027
O O10 0.103003 0.663399 0.282780
O O11 0.000000 0.663038 0.321187
O O12 0.500000 0.674546 0.798757
O O13 0.406410 0.681279 0.711810
O O14 0.420498 0.672636 0.964563
O O15 0.000000 0.194542 0.598769
O O16 0.655045 0.655045 0.523834
O O17 0.749045 0.635397 0.552364
O O18 0.692144 0.815503 0.654529
O O19 0.690123 0.814592 0.901857
O O20 0.238395 0.761606 0.030856
#
# Coordination Sequence:
#
# PCOD8307611 Si02
#       8
#    16  16  16  16  16  16  16  16
#     4  10  20  34  51  72 101 135 172 219 272 319
#     4   9  18  34  57  81 107 141 182 226 267 317
#     4   9  18  33  54  80 107 137 181 225 263 314
#     4   9  16  30  52  74  97 129 170 215 259 304
#     4   8  16  31  50  73  98 128 169 215 257 303
#     4  10  20  33  47  71 105 135 169 217 260 308
#     4  12  20  37  58  80 110 154 182 221 281 321
#     4  11  24  37  52  80 117 149 185 219 265 337
#
# _framework density 18.078952999999998
#
# number of rings (size 3 to 8) (size 9 to 14) (size 15 to 20)
#    0.000    2.250    2.500    3.000    0.000    0.625 
#    0.000    1.875    0.000    0.375    0.000    1.750 
#    0.000    3.000    0.000    0.000    0.000    0.000 
#
# Total GULP energy -792986.238554 kJ/mol
# GULP energy per Si atom -12390.409977 kJ/mol
# Density = 1.803780 g / cm^3
# Si number density = 18.078953 Si / 1000 Ang^3
#
#
#
# Elastic Constant Matrix: (Units=GPa)
#
#
# Indices 1 2 3 4 5 6 
#
# 1 62.1879 38.5202 28.7230 0.0000 0.0000 0.0001
# 2 38.5202 62.1879 28.7230 0.0000 0.0000 -0.0001
# 3 28.7230 28.7230 104.8889 0.0000 0.0000 0.0000
# 4 0.0000 0.0000 0.0000 23.6993 0.0000 0.0000
# 5 0.0000 0.0000 0.0000 0.0000 23.6993 0.0000
# 6 0.0001 -0.0001 0.0000 0.0000 0.0000 14.8820
#
#
#
# Elastic Compliance Matrix: (Units=1/GPa)
#
#
# Indices 1 2 3 4 5 6 
#
# 1 0.027010 -0.015242 -0.003223 0.000000 0.000000 0.000000
# 2 -0.015242 0.027010 -0.003223 0.000000 0.000000 0.000000
# 3 -0.003223 -0.003223 0.011299 0.000000 0.000000 0.000000
# 4 0.000000 0.000000 0.000000 0.042195 0.000000 0.000000
# 5 0.000000 0.000000 0.000000 0.000000 0.042195 0.000000
# 6 0.000000 0.000000 0.000000 0.000000 0.000000 0.067195
#
#
# Mechanical properties :
#
#
# Convention : Reuss Voigt Hill
#
# Bulk Modulus (GPa) = 45.56962 46.79967 46.18465
# Shear Modulus (GPa) = 18.68507 21.34269 20.01388
#
# Velocity S-wave (km/s) = 3.21834 3.43961 3.33081
# Velocity P-wave (km/s) = 6.25067 6.45887 6.35562
#
# Compressibility (1/GPa) = 0.02194445
#
# Stress axis : x y z
#
# Youngs Moduli (GPa) = 37.02352 37.02352 88.50472
#
# Poissons Ratio (x) = 0.56431 0.28521
# Poissons Ratio (y) = 0.56431 0.28521
# Poissons Ratio (z) = 0.11931 0.11931
#
# Static dielectric constant tensor:
#      x y z
#    x 3.251150 0.000000 0.000000 
#    y 0.000000 3.251150 0.000000 
#    z 0.000000 0.000000 3.556540 
# 
# 
# High freq. dielectric constant tensor:
#      x y z
#    x 1.680750 0.000000 0.000000 
#    y 0.000000 1.680750 0.000000 
#    z 0.000000 0.000000 1.706560 
# 
# From -- ./inp_files/2669.got.cif
#   From: 2010.03.12/outbox.cif.g09.slc.cpg/sg107_2_cif.got.tgz:2669.got - 2010.04.14 01:49:11.
