data_PCOD8307569
_publ_section_title
;
Structure prediction by ZEFSAII (Michael W. Deem and Ramdas Pophale) SiO2 
 PCOD8307569
Probable space group: I 4 M M
;
_chemical_formula_sum "Si O2"
_cell_formula_units_Z 128
_cell_length_a 20.646181
_cell_length_b 20.646181
_cell_length_c 15.694326
_cell_angle_alpha 90.000000
_cell_angle_beta 90.000000
_cell_angle_gamma 90.000000
_cell_volume 6689.938575
_symmetry_space_group_name_H-M "I 4 M M"
_symmetry_group_IT_number 107
_symmetry_cell_setting 'tetragonal'
loop_
_space_group_symop_operation_xyz
x,y,z
-y,x,z
-x,-y,z
y,-x,z
-x,y,z
x,-y,z
-y,-x,z
y,x,z
1/2+x,1/2+y,1/2+z
1/2-y,1/2+x,1/2+z
1/2-x,1/2-y,1/2+z
1/2+y,1/2-x,1/2+z
1/2-x,1/2+y,1/2+z
1/2+x,1/2-y,1/2+z
1/2-y,1/2-x,1/2+z
1/2+y,1/2+x,1/2+z
loop_
_atom_site_type_symbol
_atom_site_label
_atom_site_fract_x
_atom_site_fract_y
_atom_site_fract_z
Si Si1 0.426122 0.137068 0.303610
Si Si2 0.370900 0.076059 0.144506
Si Si3 0.675053 0.426289 0.141140
Si Si4 0.844750 0.745115 0.513424
Si Si5 0.654207 0.752721 0.614219
Si Si6 0.378913 0.725699 0.311952
Si Si7 0.073876 0.824381 0.983061
Si Si8 0.632647 0.076516 0.466840
O O1 0.500000 0.162329 0.305970
O O2 0.419109 0.089720 0.222470
O O3 0.376637 0.197609 0.292625
O O4 0.413025 0.097078 0.389418
O O5 0.303741 0.113106 0.169721
O O6 0.358052 0.000000 0.135226
O O7 0.399899 0.102495 0.056123
O O8 0.673681 0.500000 0.109885
O O9 0.605326 0.394675 0.120494
O O10 0.731617 0.387328 0.093537
O O11 0.689337 0.421805 0.241339
O O12 0.807264 0.807264 0.470549
O O13 0.790406 0.695799 0.544255
O O14 0.892091 0.704476 0.451335
O O15 0.704657 0.704657 0.665409
O O16 0.602521 0.708858 0.566066
O O17 0.306547 0.693454 0.314631
O O18 0.415550 0.721035 0.401498
O O19 0.106917 0.893084 0.964278
O O20 0.000000 0.837935 0.001204
O O21 0.640092 0.000000 0.468452
#
# Coordination Sequence:
#
# PCOD8307569 Si02
#       8
#    16  16  16  16  16  16  16  16
#     4  12  25  38  56  81 108 140 180 223 264 317
#     4  11  23  38  57  79 107 144 180 219 267 319
#     4  10  19  31  49  73 104 140 176 217 262 314
#     4   9  18  33  53  76  99 127 169 217 263 309
#     4   9  18  33  53  76  99 127 169 217 263 309
#     4  10  20  33  50  73 101 136 179 224 270 315
#     4  10  19  31  49  73 104 140 176 217 262 314
#     4  11  23  38  57  79 107 144 180 219 267 319
#
# _framework density 19.133209999999998
#
# number of rings (size 3 to 8) (size 9 to 14) (size 15 to 20)
#    0.000    1.750    0.000    6.000    0.000    5.500 
#    0.000    0.000    0.000    2.250    0.000    0.000 
#    0.000    0.000    0.000    0.000    0.000   44.250 
#
# Total GULP energy -793232.765431 kJ/mol
# GULP energy per Si atom -12394.261960 kJ/mol
# Density = 1.908966 g / cm^3
# Si number density = 19.133210 Si / 1000 Ang^3
#
#
#
# Elastic Constant Matrix: (Units=GPa)
#
#
# Indices 1 2 3 4 5 6 
#
# 1 130.3734 35.4274 23.3842 0.0000 0.0000 0.0021
# 2 35.4274 130.3734 23.3842 0.0000 0.0000 -0.0021
# 3 23.3842 23.3842 69.9488 0.0000 0.0000 0.0000
# 4 0.0000 0.0000 0.0000 20.6091 0.0000 0.0000
# 5 0.0000 0.0000 0.0000 0.0000 20.6091 0.0000
# 6 0.0021 -0.0021 0.0000 0.0000 0.0000 21.2474
#
#
#
# Elastic Compliance Matrix: (Units=1/GPa)
#
#
# Indices 1 2 3 4 5 6 
#
# 1 0.008596 -0.001937 -0.002226 0.000000 0.000000 -0.000001
# 2 -0.001937 0.008596 -0.002226 0.000000 0.000000 0.000001
# 3 -0.002226 -0.002226 0.015785 0.000000 0.000000 0.000000
# 4 0.000000 0.000000 0.000000 0.048522 0.000000 0.000000
# 5 0.000000 0.000000 0.000000 0.000000 0.048522 0.000000
# 6 -0.000001 0.000001 0.000000 0.000000 0.000000 0.047065
#
#
# Mechanical properties :
#
#
# Convention : Reuss Voigt Hill
#
# Bulk Modulus (GPa) = 49.50908 55.00968 52.25938
# Shear Modulus (GPa) = 25.43288 29.05978 27.24633
#
# Velocity S-wave (km/s) = 3.64985 3.90142 3.77773
# Velocity P-wave (km/s) = 6.61015 7.00772 6.81183
#
# Compressibility (1/GPa) = 0.02019831
#
# Stress axis : x y z
#
# Youngs Moduli (GPa) = 116.33581 116.33581 63.35273
#
# Poissons Ratio (x) = 0.22528 0.14104
# Poissons Ratio (y) = 0.22528 0.14104
# Poissons Ratio (z) = 0.25899 0.25899
#
# Static dielectric constant tensor:
#      x y z
#    x 3.685930 0.000000 0.000000 
#    y 0.000000 3.685930 0.000000 
#    z 0.000000 0.000000 3.236560 
# 
# 
# High freq. dielectric constant tensor:
#      x y z
#    x 1.748900 0.000000 0.000000 
#    y 0.000000 1.748900 0.000000 
#    z 0.000000 0.000000 1.711110 
# 
# From -- ./inp_files/4373.got.cif
#   From: 2010.03.12/outbox.cif.g09.slc.cpg/sg107_3_cif.got.tgz:4373.got - 2010.04.14 01:49:11.
