data_PCOD8307494
_publ_section_title
;
Structure prediction by ZEFSAII (Michael W. Deem and Ramdas Pophale) SiO2 
 PCOD8307494
Probable space group: I 4 M M
;
_chemical_formula_sum "Si O2"
_cell_formula_units_Z 128
_cell_length_a 23.451310
_cell_length_b 23.451310
_cell_length_c 13.072835
_cell_angle_alpha 90.000000
_cell_angle_beta 90.000000
_cell_angle_gamma 90.000000
_cell_volume 7189.587853
_symmetry_space_group_name_H-M "I 4 M M"
_symmetry_group_IT_number 107
_symmetry_cell_setting 'tetragonal'
loop_
_space_group_symop_operation_xyz
x,y,z
-y,x,z
-x,-y,z
y,-x,z
-x,y,z
x,-y,z
-y,-x,z
y,x,z
1/2+x,1/2+y,1/2+z
1/2-y,1/2+x,1/2+z
1/2-x,1/2-y,1/2+z
1/2+y,1/2-x,1/2+z
1/2-x,1/2+y,1/2+z
1/2+x,1/2-y,1/2+z
1/2-y,1/2-x,1/2+z
1/2+y,1/2+x,1/2+z
loop_
_atom_site_type_symbol
_atom_site_label
_atom_site_fract_x
_atom_site_fract_y
_atom_site_fract_z
Si Si1 0.174563 0.567507 0.338540
Si Si2 0.713572 0.621166 0.401008
Si Si3 0.336577 0.933127 0.609864
Si Si4 0.567646 0.724755 0.012412
Si Si5 0.656093 0.434394 0.590050
Si Si6 0.655682 0.433557 0.208559
Si Si7 0.935423 0.564664 0.967600
Si Si8 0.842564 0.934404 0.319519
O O1 0.192700 0.500000 0.348831
O O2 0.217860 0.611847 0.395478
O O3 0.172212 0.591040 0.223071
O O4 0.110215 0.575717 0.378810
O O5 0.685923 0.685923 0.391067
O O6 0.697483 0.596651 0.511373
O O7 0.690818 0.582392 0.309177
O O8 0.288533 0.908725 0.532238
O O9 0.398293 0.917504 0.565820
O O10 0.328634 0.000000 0.620217
O O11 0.500000 0.724609 0.010988
O O12 0.589655 0.686492 0.106692
O O13 0.590097 0.702625 0.902420
O O14 0.649375 0.500000 0.559863
O O15 0.593280 0.406721 0.584660
O O16 0.682101 0.426647 0.704527
O O17 0.647041 0.500000 0.204683
O O18 0.593352 0.406649 0.214520
O O19 0.920117 0.500000 0.929233
O O20 0.000000 0.567078 0.006315
O O21 0.901680 0.901680 0.333380
O O22 0.856876 0.000000 0.342028
#
# Coordination Sequence:
#
# PCOD8307494 Si02
#       8
#    16  16  16  16  16  16  16  16
#     4  10  18  32  56  79 105 143 180 212 258 322
#     4  10  19  31  49  72 100 134 181 230 261 297
#     4   9  17  31  52  75 101 133 165 201 246 307
#     4   9  16  28  45  65  91 124 167 210 247 298
#     4   9  17  28  42  62  91 128 170 220 273 320
#     4  10  18  27  42  66  95 128 169 219 267 310
#     4   9  19  34  53  83 115 136 162 208 266 326
#     4   9  17  28  42  62  91 128 171 222 276 324
#
# _framework density 17.803523999999999
#
# number of rings (size 3 to 8) (size 9 to 14) (size 15 to 20)
#    0.000    2.625    1.250    1.500    0.000    0.875 
#    0.000    5.000    0.000    9.750    0.000    0.000 
#    0.000    0.000    0.000    0.000    0.000    0.000 
#
# Total GULP energy -792967.507632 kJ/mol
# GULP energy per Si atom -12390.117307 kJ/mol
# Density = 1.776300 g / cm^3
# Si number density = 17.803524 Si / 1000 Ang^3
#
#
#
# Elastic Constant Matrix: (Units=GPa)
#
#
# Indices 1 2 3 4 5 6 
#
# 1 76.8880 38.5280 39.1641 0.0000 0.0000 0.0000
# 2 38.5280 76.8880 39.1641 0.0000 0.0000 0.0000
# 3 39.1641 39.1641 118.7440 0.0000 0.0000 0.0000
# 4 0.0000 0.0000 0.0000 23.4686 0.0000 0.0000
# 5 0.0000 0.0000 0.0000 0.0000 23.4686 0.0000
# 6 0.0000 0.0000 0.0000 0.0000 0.0000 14.1324
#
#
#
# Elastic Compliance Matrix: (Units=1/GPa)
#
#
# Indices 1 2 3 4 5 6 
#
# 1 0.018616 -0.007453 -0.003682 0.000000 0.000000 0.000000
# 2 -0.007453 0.018616 -0.003682 0.000000 0.000000 0.000000
# 3 -0.003682 -0.003682 0.010850 0.000000 0.000000 0.000000
# 4 0.000000 0.000000 0.000000 0.042610 0.000000 0.000000
# 5 0.000000 0.000000 0.000000 0.000000 0.042610 0.000000
# 6 0.000000 0.000000 0.000000 0.000000 0.000000 0.070759
#
#
# Mechanical properties :
#
#
# Convention : Reuss Voigt Hill
#
# Bulk Modulus (GPa) = 54.20349 56.24805 55.22577
# Shear Modulus (GPa) = 20.84687 22.59150 21.71919
#
# Velocity S-wave (km/s) = 3.42561 3.56607 3.49655
# Velocity P-wave (km/s) = 6.79396 6.97268 6.88390
#
# Compressibility (1/GPa) = 0.01844899
#
# Stress axis : x y z
#
# Youngs Moduli (GPa) = 53.71755 53.71755 92.16487
#
# Poissons Ratio (x) = 0.40035 0.33933
# Poissons Ratio (y) = 0.40035 0.33933
# Poissons Ratio (z) = 0.19778 0.19778
#
# Static dielectric constant tensor:
#      x y z
#    x 3.234910 0.000000 0.000000 
#    y 0.000000 3.234910 0.000000 
#    z 0.000000 0.000000 3.544180 
# 
# 
# High freq. dielectric constant tensor:
#      x y z
#    x 1.666120 0.000000 0.000000 
#    y 0.000000 1.666120 0.000000 
#    z 0.000000 0.000000 1.698650 
# 
# From -- ./inp_files/2685.got.cif
#   From: 2010.03.12/outbox.cif.g09.slc.cpg/sg107_2_cif.got.tgz:2685.got - 2010.04.14 01:49:11.
