data_PCOD8307256
_publ_section_title
;
Structure prediction by ZEFSAII (Michael W. Deem and Ramdas Pophale) SiO2 
 PCOD8307256
Probable space group: P 42 M C
;
_chemical_formula_sum "Si O2"
_cell_formula_units_Z 48
_cell_length_a 9.105811
_cell_length_b 9.105811
_cell_length_c 30.795327
_cell_angle_alpha 90.000000
_cell_angle_beta 90.000000
_cell_angle_gamma 90.000000
_cell_volume 2553.418989
_symmetry_space_group_name_H-M "P 42 M C"
_symmetry_group_IT_number 105
_symmetry_cell_setting 'tetragonal'
loop_
_space_group_symop_operation_xyz
x,y,z
-y,x,1/2+z
-x,-y,z
y,-x,1/2+z
-x,y,z
x,-y,z
-y,-x,1/2+z
y,x,1/2+z
loop_
_atom_site_type_symbol
_atom_site_label
_atom_site_fract_x
_atom_site_fract_y
_atom_site_fract_z
Si Si1 0.827949 0.329014 0.442590
Si Si2 0.831268 0.172213 0.605381
Si Si3 0.826006 0.837653 0.201842
Si Si4 0.668345 0.671523 0.529414
Si Si5 0.329814 0.172902 0.363985
Si Si6 0.172255 0.329573 0.285815
O O1 0.793370 0.500000 0.434449
O O2 0.762063 0.274697 0.488206
O O3 0.754365 0.236031 0.405050
O O4 0.000000 0.297208 0.442829
O O5 0.790147 0.228740 0.653925
O O6 0.723246 0.250766 0.572531
O O7 0.000000 0.212373 0.594878
O O8 0.805109 0.000000 0.601092
O O9 0.774321 0.721973 0.238122
O O10 0.000000 0.845663 0.200143
O O11 0.764500 0.000000 0.213529
O O12 0.500000 0.714039 0.520874
O O13 0.689560 0.500000 0.536608
O O14 0.500000 0.215879 0.367499
O O15 0.264013 0.240307 0.320546
O O16 0.305853 0.000000 0.362496
O O17 0.208288 0.500000 0.290882
O O18 0.000000 0.297699 0.292850
#
# Coordination Sequence:
#
# PCOD8307256 Si02
#       6
#     8   8   8   8   8   8
#     4  10  21  38  60  82 103 133 175 218 262 315
#     4   9  18  33  54  80 108 140 180 223 266 313
#     4   8  15  30  52  77 106 140 178 221 266 310
#     4  10  21  36  54  78 109 144 179 216 262 315
#     4  11  24  39  55  78 108 140 174 213 260 313
#     4  10  20  34  55  82 108 137 176 218 262 315
#
# _framework density 18.798323
#
# number of rings (size 3 to 8) (size 9 to 14) (size 15 to 20)
#    0.000    2.333    0.000    3.500    0.000    8.000 
#    0.000    2.500    0.000    1.000    0.000    0.000 
#    0.000    0.000    0.000    0.000    0.000    0.000 
#
# Total GULP energy -595233.518276 kJ/mol
# GULP energy per Si atom -12400.698297 kJ/mol
# Density = 1.875554 g / cm^3
# Si number density = 18.798323 Si / 1000 Ang^3
#
#
#
# Elastic Constant Matrix: (Units=GPa)
#
#
# Indices 1 2 3 4 5 6 
#
# 1 80.0215 57.7073 65.1737 0.0000 0.0000 0.0000
# 2 57.7073 80.0215 65.1737 0.0000 0.0000 0.0000
# 3 65.1737 65.1737 153.3879 0.0000 0.0000 0.0000
# 4 0.0000 0.0000 0.0000 62.1263 0.0000 0.0000
# 5 0.0000 0.0000 0.0000 0.0000 62.1263 0.0000
# 6 0.0000 0.0000 0.0000 0.0000 0.0000 28.7087
#
#
#
# Elastic Compliance Matrix: (Units=1/GPa)
#
#
# Indices 1 2 3 4 5 6 
#
# 1 0.028479 -0.016335 -0.005160 0.000000 0.000000 0.000000
# 2 -0.016335 0.028479 -0.005160 0.000000 0.000000 0.000000
# 3 -0.005160 -0.005160 0.010904 0.000000 0.000000 0.000000
# 4 0.000000 0.000000 0.000000 0.016096 0.000000 0.000000
# 5 0.000000 0.000000 0.000000 0.000000 0.016096 0.000000
# 6 0.000000 0.000000 0.000000 0.000000 0.000000 0.034833
#
#
# Mechanical properties :
#
#
# Convention : Reuss Voigt Hill
#
# Bulk Modulus (GPa) = 68.71619 76.61558 72.66588
# Shear Modulus (GPa) = 25.90013 38.95065 32.42539
#
# Velocity S-wave (km/s) = 3.71589 4.55689 4.15771
# Velocity P-wave (km/s) = 7.41918 8.27841 7.86054
#
# Compressibility (1/GPa) = 0.01455261
#
# Stress axis : x y z
#
# Youngs Moduli (GPa) = 35.11322 35.11322 91.70712
#
# Poissons Ratio (x) = 0.57358 0.47320
# Poissons Ratio (y) = 0.57358 0.47320
# Poissons Ratio (z) = 0.18118 0.18118
#
# Static dielectric constant tensor:
#      x y z
#    x 3.271040 0.000000 0.000000 
#    y 0.000000 3.271040 0.000000 
#    z 0.000000 0.000000 3.807520 
# 
# 
# High freq. dielectric constant tensor:
#      x y z
#    x 1.721800 0.000000 0.000000 
#    y 0.000000 1.721800 0.000000 
#    z 0.000000 0.000000 1.747610 
# 
# From -- ./inp_files/4670.got.cif
#   From: 2010.03.12/outbox.cif.g09.slc.cpg/sg105_3_cif.got.tgz:4670.got - 2010.04.14 01:45:32.
