data_PCOD8307279
_publ_section_title
;
Structure prediction by ZEFSAII (Michael W. Deem and Ramdas Pophale) SiO2 
 PCOD8307279
Probable space group: P 42 M C
;
_chemical_formula_sum "Si O2"
_cell_formula_units_Z 32
_cell_length_a 10.597365
_cell_length_b 10.597365
_cell_length_c 14.309565
_cell_angle_alpha 90.000000
_cell_angle_beta 90.000000
_cell_angle_gamma 90.000000
_cell_volume 1607.023462
_symmetry_space_group_name_H-M "P 42 M C"
_symmetry_group_IT_number 105
_symmetry_cell_setting 'tetragonal'
loop_
_space_group_symop_operation_xyz
x,y,z
-y,x,1/2+z
-x,-y,z
y,-x,1/2+z
-x,y,z
x,-y,z
-y,-x,1/2+z
y,x,1/2+z
loop_
_atom_site_type_symbol
_atom_site_label
_atom_site_fract_x
_atom_site_fract_y
_atom_site_fract_z
Si Si1 0.358597 0.250689 0.850970
Si Si2 0.644500 0.140918 0.467070
Si Si3 0.000000 0.141238 0.620847
Si Si4 0.729866 0.143015 0.668211
Si Si5 0.000000 0.358268 0.467246
O O1 0.500000 0.305609 0.869973
O O2 0.246982 0.340853 0.887140
O O3 0.344170 0.233019 0.739453
O O4 0.338840 0.118314 0.900786
O O5 0.500000 0.129941 0.493120
O O6 0.713119 0.188482 0.561238
O O7 0.693841 0.000000 0.436521
O O8 0.879287 0.153679 0.688482
O O9 0.000000 0.251403 0.544863
O O10 0.000000 0.000000 0.573371
O O11 0.679602 0.000000 0.679080
O O12 0.000000 0.500000 0.511708
#
# Coordination Sequence:
#
# PCOD8307279 Si02
#       5
#     8   8   4   8   4
#     4  11  22  37  60  87 117 155 198 243 291 352
#     4  10  22  40  61  84 116 158 201 248 299 355
#     4  10  20  36  56  91 122 152 193 250 309 362
#     4  10  20  36  59  89 119 150 192 240 298 362
#     4  10  20  36  58  85 114 150 193 240 291 346
#
# _framework density 19.912592
#
# number of rings (size 3 to 8) (size 9 to 14) (size 15 to 20)
#    0.000    1.750    3.750    0.750    1.750    1.500 
#    0.000    2.500    0.000    3.000    0.000    0.000 
#    0.000    0.000    0.000    0.000    0.000    0.000 
#
# Total GULP energy -396643.459682 kJ/mol
# GULP energy per Si atom -12395.108115 kJ/mol
# Density = 1.986727 g / cm^3
# Si number density = 19.912592 Si / 1000 Ang^3
#
#
#
# Elastic Constant Matrix: (Units=GPa)
#
#
# Indices 1 2 3 4 5 6 
#
# 1 95.1172 24.3996 28.1864 0.0000 0.0000 0.0000
# 2 24.3996 95.1172 28.1864 0.0000 0.0000 0.0000
# 3 28.1864 28.1864 79.0367 0.0000 0.0000 0.0000
# 4 0.0000 0.0000 0.0000 26.7446 0.0000 0.0000
# 5 0.0000 0.0000 0.0000 0.0000 26.7446 0.0000
# 6 0.0000 0.0000 0.0000 0.0000 0.0000 21.3290
#
#
#
# Elastic Compliance Matrix: (Units=1/GPa)
#
#
# Indices 1 2 3 4 5 6 
#
# 1 0.012100 -0.002041 -0.003587 0.000000 0.000000 0.000000
# 2 -0.002041 0.012100 -0.003587 0.000000 0.000000 0.000000
# 3 -0.003587 -0.003587 0.015211 0.000000 0.000000 0.000000
# 4 0.000000 0.000000 0.000000 0.037391 0.000000 0.000000
# 5 0.000000 0.000000 0.000000 0.000000 0.037391 0.000000
# 6 0.000000 0.000000 0.000000 0.000000 0.000000 0.046885
#
#
# Mechanical properties :
#
#
# Convention : Reuss Voigt Hill
#
# Bulk Modulus (GPa) = 47.66472 47.86846 47.76659
# Shear Modulus (GPa) = 26.80948 27.53020 27.16984
#
# Velocity S-wave (km/s) = 3.67326 3.72230 3.69786
# Velocity P-wave (km/s) = 6.47915 6.52423 6.50173
#
# Compressibility (1/GPa) = 0.02097988
#
# Stress axis : x y z
#
# Youngs Moduli (GPa) = 82.64525 82.64525 65.74192
#
# Poissons Ratio (x) = 0.16867 0.23584
# Poissons Ratio (y) = 0.16867 0.23584
# Poissons Ratio (z) = 0.29647 0.29647
#
# Static dielectric constant tensor:
#      x y z
#    x 3.670700 0.000000 0.000000 
#    y 0.000000 3.670700 0.000000 
#    z 0.000000 0.000000 3.340220 
# 
# 
# High freq. dielectric constant tensor:
#      x y z
#    x 1.773810 0.000000 0.000000 
#    y 0.000000 1.773810 0.000000 
#    z 0.000000 0.000000 1.753890 
# 
# From -- ./inp_files/1607.got.cif
#   From: 2010.03.12/outbox.cif.g09.slc.cpg/sg105_1_cif.got.tgz:1607.got - 2010.04.14 01:45:32.
