data_PCOD8307075
_publ_section_title
;
Structure prediction by ZEFSAII (Michael W. Deem and Ramdas Pophale) SiO2 
 PCOD8307075
Probable space group: P 4 N C 
;
_chemical_formula_sum "Si O2"
_cell_formula_units_Z 36
_cell_length_a 12.866306
_cell_length_b 12.866306
_cell_length_c 8.799501
_cell_angle_alpha 90.000000
_cell_angle_beta 90.000000
_cell_angle_gamma 90.000000
_cell_volume 1456.685499
_symmetry_space_group_name_H-M "P 4 N C "
_symmetry_group_IT_number 104
_symmetry_cell_setting 'tetragonal'
loop_
_space_group_symop_operation_xyz
x,y,z
-y,x,z
-x,-y,z
y,-x,z
1/2-x,1/2+y,1/2+z
1/2+x,1/2-y,1/2+z
1/2-y,1/2-x,1/2+z
1/2+y,1/2+x,1/2+z
loop_
_atom_site_type_symbol
_atom_site_label
_atom_site_fract_x
_atom_site_fract_y
_atom_site_fract_z
Si Si1 0.050434 0.276497 0.082480
Si Si2 0.000000 0.500000 0.032473
Si Si3 0.329712 0.476854 0.275075
Si Si4 0.713497 0.924380 0.527883
Si Si5 0.234226 0.154479 0.218762
O O1 0.033436 0.397498 0.127722
O O2 0.155249 0.241959 0.164030
O O3 0.956962 0.205615 0.147010
O O4 0.047341 0.259026 0.900361
O O5 0.107076 0.532547 0.945959
O O6 0.411495 0.384511 0.293939
O O7 0.278135 0.480612 0.105417
O O8 0.774492 0.859066 0.400725
O O9 0.688659 0.849374 0.669649
#
# Coordination Sequence:
#
# PCOD8307075 Si02
#       5
#     8   4   8   8   8
#     4  11  24  47  74 108 149 204 250 321 391 461
#     4  10  26  46  74 106 150 194 256 314 386 460
#     4  11  25  46  73 105 147 198 252 321 393 468
#     4  11  26  46  70 114 146 202 257 312 394 463
#     4  11  26  43  74 108 154 195 257 313 386 471
#
# _framework density 24.713640999999999
#
# number of rings (size 3 to 8) (size 9 to 14) (size 15 to 20)
#    0.000    1.111    2.222    2.667    6.222    8.444 
#    0.000    0.000    0.000    0.000    0.000    0.000 
#    0.000    0.000    0.000    0.000    0.000    0.000 
#
# Total GULP energy -446035.828380 kJ/mol
# GULP energy per Si atom -12389.884122 kJ/mol
# Density = 2.465739 g / cm^3
# Si number density = 24.713641 Si / 1000 Ang^3
#
#
#
# Elastic Constant Matrix: (Units=GPa)
#
#
# Indices 1 2 3 4 5 6 
#
# 1 123.9250 50.3325 36.7631 0.0000 0.0000 0.0000
# 2 50.3325 123.9250 36.7631 0.0000 0.0000 0.0000
# 3 36.7631 36.7631 153.5838 0.0000 0.0000 0.0000
# 4 0.0000 0.0000 0.0000 23.4958 0.0000 0.0000
# 5 0.0000 0.0000 0.0000 0.0000 23.4958 0.0000
# 6 0.0000 0.0000 0.0000 0.0000 0.0000 31.4022
#
#
#
# Elastic Compliance Matrix: (Units=1/GPa)
#
#
# Indices 1 2 3 4 5 6 
#
# 1 0.009986 -0.003602 -0.001528 0.000000 0.000000 0.000000
# 2 -0.003602 0.009986 -0.001528 0.000000 0.000000 0.000000
# 3 -0.001528 -0.001528 0.007243 0.000000 0.000000 0.000000
# 4 0.000000 0.000000 0.000000 0.042561 0.000000 0.000000
# 5 0.000000 0.000000 0.000000 0.000000 0.042561 0.000000
# 6 0.000000 0.000000 0.000000 0.000000 0.000000 0.031845
#
#
# Mechanical properties :
#
#
# Convention : Reuss Voigt Hill
#
# Bulk Modulus (GPa) = 71.95586 72.12791 72.04189
# Shear Modulus (GPa) = 30.83946 34.18379 32.51162
#
# Velocity S-wave (km/s) = 3.53636 3.72317 3.63096
# Velocity P-wave (km/s) = 6.77152 6.90880 6.84050
#
# Compressibility (1/GPa) = 0.01389741
#
# Stress axis : x y z
#
# Youngs Moduli (GPa) = 100.14180 100.14180 138.07200
#
# Poissons Ratio (x) = 0.36076 0.21097
# Poissons Ratio (y) = 0.36076 0.21097
# Poissons Ratio (z) = 0.15301 0.15301
#
# Static dielectric constant tensor:
#      x y z
#    x 4.610850 0.000000 0.000000 
#    y 0.000000 4.610850 0.000000 
#    z 0.000000 0.000000 4.061520 
# 
# 
# High freq. dielectric constant tensor:
#      x y z
#    x 1.990660 0.000000 0.000000 
#    y 0.000000 1.990660 0.000000 
#    z 0.000000 0.000000 1.960310 
# 
# From -- ./inp_files/427.got.cif
#   From: 2010.03.12/outbox.cif.g09.slc.cpg/sg104_cif.got.tgz:427.got - 2010.04.14 01:44:05.
