data_PCOD8307390
_publ_section_title
;
Structure prediction by ZEFSAII (Michael W. Deem and Ramdas Pophale) SiO2 
 PCOD8307390
Probable space group: P 42 M C
;
_chemical_formula_sum "Si O2"
_cell_formula_units_Z 48
_cell_length_a 9.254464
_cell_length_b 9.254464
_cell_length_c 31.115165
_cell_angle_alpha 90.000000
_cell_angle_beta 90.000000
_cell_angle_gamma 90.000000
_cell_volume 2664.861540
_symmetry_space_group_name_H-M "P 42 M C"
_symmetry_group_IT_number 105
_symmetry_cell_setting 'tetragonal'
loop_
_space_group_symop_operation_xyz
x,y,z
-y,x,1/2+z
-x,-y,z
y,-x,1/2+z
-x,y,z
x,-y,z
-y,-x,1/2+z
y,x,1/2+z
loop_
_atom_site_type_symbol
_atom_site_label
_atom_site_fract_x
_atom_site_fract_y
_atom_site_fract_z
Si Si1 0.327827 0.836634 0.251470
Si Si2 0.667154 0.831322 0.583292
Si Si3 0.672026 0.336713 0.333387
Si Si4 0.168066 0.668529 0.917216
Si Si5 0.331333 0.666963 0.168238
Si Si6 0.163090 0.828121 0.500622
O O1 0.500000 0.835380 0.252740
O O2 0.265904 0.749206 0.292297
O O3 0.272539 0.759880 0.208163
O O4 0.268304 0.000000 0.252917
O O5 0.500000 0.798338 0.573879
O O6 0.721164 0.750460 0.625855
O O7 0.757448 0.769407 0.543141
O O8 0.695185 0.000000 0.590288
O O9 0.500000 0.336759 0.331816
O O10 0.732294 0.500000 0.332715
O O11 0.725604 0.257022 0.376346
O O12 0.194483 0.500000 0.925905
O O13 0.227954 0.754204 0.958433
O O14 0.000000 0.700210 0.908366
O O15 0.500000 0.692566 0.160644
O O16 0.297163 0.500000 0.178144
O O17 0.000000 0.768788 0.500010
O O18 0.167417 0.000000 0.501031
#
# Coordination Sequence:
#
# PCOD8307390 Si02
#       6
#     8   8   8   8   8   8
#     4   9  16  26  42  65  92 120 150 185 224 265
#     4   9  17  30  48  68  90 118 152 187 222 263
#     4   9  16  26  42  65  91 117 146 182 223 265
#     4   9  16  27  45  67  88 110 140 179 220 262
#     4   9  17  29  45  66  92 120 148 181 224 269
#     4   9  17  29  46  67  89 115 148 184 221 262
#
# _framework density 18.012194000000001
#
# number of rings (size 3 to 8) (size 9 to 14) (size 15 to 20)
#    0.000    3.000    0.000    1.500    0.000    6.667 
#    0.000    0.833    0.000    6.500    0.000    0.000 
#    0.000    0.000    0.000    0.000    0.000    0.000 
#
# Total GULP energy -595189.367020 kJ/mol
# GULP energy per Si atom -12399.778480 kJ/mol
# Density = 1.797120 g / cm^3
# Si number density = 18.012194 Si / 1000 Ang^3
#
#
#
# Elastic Constant Matrix: (Units=GPa)
#
#
# Indices 1 2 3 4 5 6 
#
# 1 69.6225 29.3397 71.5880 0.0000 0.0000 0.0000
# 2 29.3397 69.6225 71.5880 0.0000 0.0000 0.0000
# 3 71.5880 71.5880 210.8803 0.0000 0.0000 0.0000
# 4 0.0000 0.0000 0.0000 20.3878 0.0000 0.0000
# 5 0.0000 0.0000 0.0000 0.0000 20.3878 0.0000
# 6 0.0000 0.0000 0.0000 0.0000 0.0000 10.2006
#
#
#
# Elastic Compliance Matrix: (Units=1/GPa)
#
#
# Indices 1 2 3 4 5 6 
#
# 1 0.022341 -0.002483 -0.006741 0.000000 0.000000 0.000000
# 2 -0.002483 0.022341 -0.006741 0.000000 0.000000 0.000000
# 3 -0.006741 -0.006741 0.009319 0.000000 0.000000 0.000000
# 4 0.000000 0.000000 0.000000 0.049049 0.000000 0.000000
# 5 0.000000 0.000000 0.000000 0.000000 0.049049 0.000000
# 6 0.000000 0.000000 0.000000 0.000000 0.000000 0.098033
#
#
# Mechanical properties :
#
#
# Convention : Reuss Voigt Hill
#
# Bulk Modulus (GPa) = 45.31064 77.23960 61.27512
# Shear Modulus (GPa) = 17.27590 22.03589 19.65590
#
# Velocity S-wave (km/s) = 3.10033 3.50149 3.30700
# Velocity P-wave (km/s) = 6.16654 7.70209 6.97669
#
# Compressibility (1/GPa) = 0.02206987
#
# Stress axis : x y z
#
# Youngs Moduli (GPa) = 44.76045 44.76045 107.30865
#
# Poissons Ratio (x) = 0.11115 0.72339
# Poissons Ratio (y) = 0.11115 0.72339
# Poissons Ratio (z) = 0.30174 0.30174
#
# Static dielectric constant tensor:
#      x y z
#    x 3.105780 0.000000 0.000000 
#    y 0.000000 3.105780 0.000000 
#    z 0.000000 0.000000 3.571660 
# 
# 
# High freq. dielectric constant tensor:
#      x y z
#    x 1.666490 0.000000 0.000000 
#    y 0.000000 1.666490 0.000000 
#    z 0.000000 0.000000 1.714980 
# 
# From -- ./inp_files/4705.got.cif
#   From: 2010.03.12/outbox.cif.g09.slc.cpg/sg105_3_cif.got.tgz:4705.got - 2010.04.14 01:45:32.
