data_PCOD8307949
_publ_section_title
;
Structure prediction by ZEFSAII (Michael W. Deem and Ramdas Pophale) SiO2 
 PCOD8307949
Probable space group: I 41 M D
;
_chemical_formula_sum "Si O2"
_cell_formula_units_Z 64
_cell_length_a 19.991413
_cell_length_b 19.991413
_cell_length_c 7.657947
_cell_angle_alpha 90.000000
_cell_angle_beta 90.000000
_cell_angle_gamma 90.000000
_cell_volume 3060.549013
_symmetry_space_group_name_H-M "I 41 M D"
_symmetry_group_IT_number 109
_symmetry_cell_setting 'tetragonal'
loop_
_space_group_symop_operation_xyz
x,y,z
-y,1/2+x,1/4+z
-x,-y,z
y,1/2-x,1/4+z
-x,y,z
x,-y,z
-y,1/2-x,1/4+z
y,1/2+x,1/4+z
1/2+x,1/2+y,1/2+z
1/2-y,x,3/4+z
1/2-x,1/2-y,1/2+z
1/2+y,-x,3/4+z
1/2-x,1/2+y,1/2+z
1/2+x,1/2-y,1/2+z
1/2-y,-x,3/4+z
1/2+y,x,3/4+z
loop_
_atom_site_type_symbol
_atom_site_label
_atom_site_fract_x
_atom_site_fract_y
_atom_site_fract_z
Si Si1 0.859470 0.921642 0.202250
Si Si2 0.136195 0.868956 0.840781
Si Si3 0.000000 0.922434 0.735984
Si Si4 0.228501 0.922093 0.538541
Si Si5 0.000000 0.920405 0.349073
O O1 0.809873 0.906084 0.360520
O O2 0.933578 0.895243 0.251486
O O3 0.860444 0.000000 0.158086
O O4 0.833311 0.880256 0.034250
O O5 0.181075 0.906739 0.700746
O O6 0.128007 0.791037 0.796404
O O7 0.063951 0.903012 0.847793
O O8 0.000000 0.888121 0.543813
O O9 0.000000 0.000000 0.702929
O O10 0.250764 0.000000 0.546565
O O11 0.000000 0.000000 0.361164
#
# Coordination Sequence:
#
# PCOD8307949 Si02
#       5
#    16  16   8  16   8
#     4  10  21  39  66  97 130 169 216 279 341 397
#     4  12  24  43  66  96 133 177 222 272 335 410
#     4  11  19  37  71 100 127 162 214 288 341 384
#     4  11  25  45  65  97 136 172 224 280 334 402
#     4   9  17  33  63  98 127 157 208 276 343 385
#
# _framework density 20.911280000000001
#
# number of rings (size 3 to 8) (size 9 to 14) (size 15 to 20)
#    0.000    1.250    3.750    3.000    0.000    3.000 
#    4.500    0.000    0.000    0.000    0.000    0.000 
#    0.000    0.000    0.000    0.000    0.000    0.000 
#
# Total GULP energy -396899.020338 kJ/mol
# GULP energy per Si atom -12403.094386 kJ/mol
# Density = 2.086368 g / cm^3
# Si number density = 20.911280 Si / 1000 Ang^3
#
#
#
# Elastic Constant Matrix: (Units=GPa)
#
#
# Indices 1 2 3 4 5 6 
#
# 1 66.8857 16.6889 39.7907 0.0000 0.0000 0.0000
# 2 16.6889 66.8857 39.7907 0.0000 0.0000 0.0000
# 3 39.7907 39.7907 172.5781 0.0000 0.0000 0.0000
# 4 0.0000 0.0000 0.0000 0.1356 0.0000 0.0000
# 5 0.0000 0.0000 0.0000 0.0000 0.1356 0.0000
# 6 0.0000 0.0000 0.0000 0.0000 0.0000 23.7090
#
#
#
# Elastic Compliance Matrix: (Units=1/GPa)
#
#
# Indices 1 2 3 4 5 6 
#
# 1 0.017626 -0.002295 -0.003535 0.000000 0.000000 0.000000
# 2 -0.002295 0.017626 -0.003535 0.000000 0.000000 0.000000
# 3 -0.003535 -0.003535 0.007425 0.000000 0.000000 0.000000
# 4 0.000000 0.000000 0.000000 7.373710 0.000000 0.000000
# 5 0.000000 0.000000 0.000000 0.000000 7.373710 0.000000
# 6 0.000000 0.000000 0.000000 0.000000 0.000000 0.042178
#
#
# Mechanical properties :
#
#
# Convention : Reuss Voigt Hill
#
# Bulk Modulus (GPa) = 41.75771 55.43223 48.59497
# Shear Modulus (GPa) = 0.33650 18.80133 9.56891
#
# Velocity S-wave (km/s) = 0.40158 3.00175 2.14147
# Velocity P-wave (km/s) = 4.49748 6.21127 5.42251
#
# Compressibility (1/GPa) = 0.02394767
#
# Stress axis : x y z
#
# Youngs Moduli (GPa) = 56.73287 56.73287 134.68853
#
# Poissons Ratio (x) = 0.13021 0.47611
# Poissons Ratio (y) = 0.13021 0.47611
# Poissons Ratio (z) = 0.20054 0.20054
#
# Static dielectric constant tensor:
#      x y z
#    x 3.607560 0.000000 0.000000 
#    y 0.000000 3.607560 0.000000 
#    z 0.000000 0.000000 3.923960 
# 
# 
# High freq. dielectric constant tensor:
#      x y z
#    x 1.801450 0.000000 0.000000 
#    y 0.000000 1.801450 0.000000 
#    z 0.000000 0.000000 1.838700 
# 
# From -- ./inp_files/1218.got.cif
#   From: 2010.03.12/outbox.cif.g09.slc.cpg/sg109_1_cif.got.tgz:1218.got - 2010.04.14 01:55:16.
