data_PCOD8307229
_publ_section_title
;
Structure prediction by ZEFSAII (Michael W. Deem and Ramdas Pophale) SiO2 
 PCOD8307229
Probable space group: P 42 M C
;
_chemical_formula_sum "Si O2"
_cell_formula_units_Z 48
_cell_length_a 9.110593
_cell_length_b 9.110593
_cell_length_c 30.780790
_cell_angle_alpha 90.000000
_cell_angle_beta 90.000000
_cell_angle_gamma 90.000000
_cell_volume 2554.894982
_symmetry_space_group_name_H-M "P 42 M C"
_symmetry_group_IT_number 105
_symmetry_cell_setting 'tetragonal'
loop_
_space_group_symop_operation_xyz
x,y,z
-y,x,1/2+z
-x,-y,z
y,-x,1/2+z
-x,y,z
x,-y,z
-y,-x,1/2+z
y,x,1/2+z
loop_
_atom_site_type_symbol
_atom_site_label
_atom_site_fract_x
_atom_site_fract_y
_atom_site_fract_z
Si Si1 0.326053 0.338237 0.332590
Si Si2 0.669981 0.170945 0.671603
Si Si3 0.827573 0.331411 0.748659
Si Si4 0.173135 0.831206 0.505859
Si Si5 0.329464 0.328309 0.429299
Si Si6 0.329437 0.328546 0.583902
O O1 0.500000 0.346223 0.333856
O O2 0.262680 0.500000 0.321793
O O3 0.271992 0.226979 0.295453
O O4 0.274685 0.288341 0.380544
O O5 0.500000 0.203342 0.680804
O O6 0.761215 0.230282 0.711752
O O7 0.722967 0.253033 0.628321
O O8 0.702095 0.000000 0.665374
O O9 0.777924 0.500000 0.741333
O O10 0.000000 0.315267 0.747544
O O11 0.233688 0.771039 0.460681
O O12 0.237430 0.737159 0.544907
O O13 0.000000 0.812814 0.505938
O O14 0.220661 0.000000 0.511432
O O15 0.500000 0.289286 0.436000
O O16 0.303232 0.500000 0.439045
O O17 0.500000 0.296817 0.574876
O O18 0.296344 0.500000 0.587747
#
# Coordination Sequence:
#
# PCOD8307229 Si02
#       6
#     8   8   8   8   8   8
#     4   8  15  30  53  79 106 137 176 223 268 309
#     4  10  21  37  57  80 106 138 176 216 261 314
#     4  10  20  33  52  80 111 142 177 216 261 314
#     4  11  24  38  52  76 111 147 179 213 259 315
#     4   9  18  34  57  83 107 135 177 225 269 314
#     4  10  21  38  61  85 105 131 173 222 268 315
#
# _framework density 18.787465999999998
#
# number of rings (size 3 to 8) (size 9 to 14) (size 15 to 20)
#    0.000    2.333    0.000    3.500    0.000    8.000 
#    0.000    2.500    0.000    1.000    0.000    0.000 
#    0.000    0.000    0.000    0.000    0.000    0.000 
#
# Total GULP energy -595256.832278 kJ/mol
# GULP energy per Si atom -12401.184006 kJ/mol
# Density = 1.874470 g / cm^3
# Si number density = 18.787466 Si / 1000 Ang^3
#
#
#
# Elastic Constant Matrix: (Units=GPa)
#
#
# Indices 1 2 3 4 5 6 
#
# 1 76.9246 47.8613 61.6054 0.0000 0.0000 0.0000
# 2 47.8613 76.9246 61.6054 0.0000 0.0000 0.0000
# 3 61.6054 61.6054 154.5690 0.0000 0.0000 0.0000
# 4 0.0000 0.0000 0.0000 -24.2105 0.0000 0.0000
# 5 0.0000 0.0000 0.0000 0.0000 -24.2105 0.0000
# 6 0.0000 0.0000 0.0000 0.0000 0.0000 27.6932
#
#
#
# Elastic Compliance Matrix: (Units=1/GPa)
#
#
# Indices 1 2 3 4 5 6 
#
# 1 0.023811 -0.010597 -0.005267 0.000000 0.000000 0.000000
# 2 -0.010597 0.023811 -0.005267 0.000000 0.000000 0.000000
# 3 -0.005267 -0.005267 0.010668 0.000000 0.000000 0.000000
# 4 0.000000 0.000000 0.000000 -0.041304 0.000000 0.000000
# 5 0.000000 0.000000 0.000000 0.000000 -0.041304 0.000000
# 6 0.000000 0.000000 0.000000 0.000000 0.000000 0.036110
#
#
# Mechanical properties :
#
#
# Convention : Reuss Voigt Hill
#
# Bulk Modulus (GPa) = 62.38631 72.28468 67.33549
# Shear Modulus (GPa) = 84.18469 5.01085 44.59777
#
# Velocity S-wave (km/s) = 6.70121 1.63490 4.87746
# Velocity P-wave (km/s) = 9.65160 6.49017 8.22423
#
# Compressibility (1/GPa) = 0.01602916
#
# Stress axis : x y z
#
# Youngs Moduli (GPa) = 41.99791 41.99791 93.74122
#
# Poissons Ratio (x) = 0.44505 0.49369
# Poissons Ratio (y) = 0.44505 0.49369
# Poissons Ratio (z) = 0.22118 0.22118
#
# Static dielectric constant tensor:
#      x y z
#    x 3.377390 0.000000 0.000000 
#    y 0.000000 3.377390 0.000000 
#    z 0.000000 0.000000 3.714420 
# 
# 
# High freq. dielectric constant tensor:
#      x y z
#    x 1.719450 0.000000 0.000000 
#    y 0.000000 1.719450 0.000000 
#    z 0.000000 0.000000 1.747320 
# 
# From -- ./inp_files/4658.got.cif
#   From: 2010.03.12/outbox.cif.g09.slc.cpg/sg105_3_cif.got.tgz:4658.got - 2010.04.14 01:45:32.
