data_PCOD8307085
_publ_section_title
;
Structure prediction by ZEFSAII (Michael W. Deem and Ramdas Pophale) SiO2 
 PCOD8307085
Probable space group: P 4 N C 
;
_chemical_formula_sum "Si O2"
_cell_formula_units_Z 32
_cell_length_a 8.634388
_cell_length_b 8.634388
_cell_length_c 20.306122
_cell_angle_alpha 90.000000
_cell_angle_beta 90.000000
_cell_angle_gamma 90.000000
_cell_volume 1513.875331
_symmetry_space_group_name_H-M "P 4 N C "
_symmetry_group_IT_number 104
_symmetry_cell_setting 'tetragonal'
loop_
_space_group_symop_operation_xyz
x,y,z
-y,x,z
-x,-y,z
y,-x,z
1/2-x,1/2+y,1/2+z
1/2+x,1/2-y,1/2+z
1/2-y,1/2-x,1/2+z
1/2+y,1/2+x,1/2+z
loop_
_atom_site_type_symbol
_atom_site_label
_atom_site_fract_x
_atom_site_fract_y
_atom_site_fract_z
Si Si1 0.381916 0.724096 0.078600
Si Si2 0.730694 0.609578 0.844629
Si Si3 0.881916 0.775904 0.728966
Si Si4 0.230694 0.890422 0.962938
O O1 0.295309 0.563274 0.063837
O O2 0.355294 0.775911 0.153783
O O3 0.313368 0.856843 0.032341
O O4 0.572114 0.703850 0.849798
O O5 0.813368 0.643157 0.775225
O O6 0.842252 0.657748 0.903783
O O7 0.063275 0.795309 0.743730
O O8 0.072114 0.796150 0.957768
#
# Coordination Sequence:
#
# PCOD8307085 Si02
#       4
#     8   8   8   8
#     4   9  19  37  60  85 113 145 182 224 270 323
#     4  11  24  39  56  81 112 145 184 230 276 325
#     4   9  19  37  60  85 113 145 182 224 270 323
#     4  11  24  39  56  81 112 145 184 230 276 325
#
# _framework density 21.137805
#
# number of rings (size 3 to 8) (size 9 to 14) (size 15 to 20)
#    0.000    2.000    0.000    4.500    0.000   13.000 
#    0.000    7.500    0.000    0.000    0.000    0.000 
#    0.000    0.000    0.000    0.000    0.000    0.000 
#
# Total GULP energy -396966.438599 kJ/mol
# GULP energy per Si atom -12405.201206 kJ/mol
# Density = 2.108969 g / cm^3
# Si number density = 21.137805 Si / 1000 Ang^3
#
#
#
# Elastic Constant Matrix: (Units=GPa)
#
#
# Indices 1 2 3 4 5 6 
#
# 1 13.2975 -8.2664 10.0412 0.0000 0.0000 0.0000
# 2 -8.2664 13.2975 10.0412 0.0000 0.0000 0.0000
# 3 10.0412 10.0412 107.6044 0.0000 0.0000 0.0000
# 4 0.0000 0.0000 0.0000 15.2671 0.0000 0.0000
# 5 0.0000 0.0000 0.0000 0.0000 15.2671 0.0000
# 6 0.0000 0.0000 0.0000 0.0000 0.0000 33.7534
#
#
#
# Elastic Compliance Matrix: (Units=1/GPa)
#
#
# Indices 1 2 3 4 5 6 
#
# 1 0.181559 0.135185 -0.029557 0.000000 0.000000 0.000000
# 2 0.135185 0.181559 -0.029557 0.000000 0.000000 0.000000
# 3 -0.029557 -0.029557 0.014810 0.000000 0.000000 0.000000
# 4 0.000000 0.000000 0.000000 0.065500 0.000000 0.000000
# 5 0.000000 0.000000 0.000000 0.000000 0.065500 0.000000
# 6 0.000000 0.000000 0.000000 0.000000 0.000000 0.029627
#
#
# Mechanical properties :
#
#
# Convention : Reuss Voigt Hill
#
# Bulk Modulus (GPa) = 1.88655 17.53684 9.71170
# Shear Modulus (GPa) = 8.87937 21.01643 14.94790
#
# Velocity S-wave (km/s) = 2.05179 3.15661 2.66214
# Velocity P-wave (km/s) = 2.55099 4.64758 3.74884
#
# Compressibility (1/GPa) = 0.53006860
#
# Stress axis : x y z
#
# Youngs Moduli (GPa) = 5.50785 5.50785 67.52343
#
# Poissons Ratio (x) = -0.74458 1.99582
# Poissons Ratio (y) = -0.74458 1.99582
# Poissons Ratio (z) = 0.16280 0.16280
#
# Static dielectric constant tensor:
#      x y z
#    x 3.703140 0.000000 0.000000 
#    y 0.000000 3.703140 0.000000 
#    z 0.000000 0.000000 3.828030 
# 
# 
# High freq. dielectric constant tensor:
#      x y z
#    x 1.825890 0.000000 0.000000 
#    y 0.000000 1.825890 0.000000 
#    z 0.000000 0.000000 1.839620 
# 
# From -- ./inp_files/1517.got.cif
#   From: 2010.03.12/outbox.cif.g09.slc.cpg/sg104_cif.got.tgz:1517.got - 2010.04.14 01:44:05.
