data_PCOD8307246
_publ_section_title
;
Structure prediction by ZEFSAII (Michael W. Deem and Ramdas Pophale) SiO2 
 PCOD8307246
Probable space group: P 42 M C
;
_chemical_formula_sum "Si O2"
_cell_formula_units_Z 48
_cell_length_a 9.093989
_cell_length_b 9.093989
_cell_length_c 30.845341
_cell_angle_alpha 90.000000
_cell_angle_beta 90.000000
_cell_angle_gamma 90.000000
_cell_volume 2550.929316
_symmetry_space_group_name_H-M "P 42 M C"
_symmetry_group_IT_number 105
_symmetry_cell_setting 'tetragonal'
loop_
_space_group_symop_operation_xyz
x,y,z
-y,x,1/2+z
-x,-y,z
y,-x,1/2+z
-x,y,z
x,-y,z
-y,-x,1/2+z
y,x,1/2+z
loop_
_atom_site_type_symbol
_atom_site_label
_atom_site_fract_x
_atom_site_fract_y
_atom_site_fract_z
Si Si1 0.829667 0.671530 0.120250
Si Si2 0.669330 0.669330 0.033091
Si Si3 0.671530 0.170333 0.945931
Si Si4 0.825611 0.667857 0.868064
Si Si5 0.667857 0.825612 0.198116
Si Si6 0.833896 0.824925 0.283090
O O1 0.802616 0.500000 0.128664
O O2 0.768953 0.717720 0.073373
O O3 0.743106 0.761961 0.155836
O O4 0.000000 0.713808 0.122566
O O5 0.500000 0.696661 0.045778
O O6 0.696659 0.500000 0.020403
O O7 0.717719 0.768952 0.992807
O O8 0.500000 0.197385 0.937516
O O9 0.761963 0.256892 0.910345
O O10 0.713808 0.000000 0.943615
O O11 0.771918 0.500000 0.865723
O O12 0.764861 0.751053 0.825576
O O13 0.000000 0.677908 0.870357
O O14 0.500000 0.771922 0.200459
O O15 0.751053 0.764861 0.240605
O O16 0.677913 0.000000 0.195823
O O17 0.000000 0.763647 0.283090
O O18 0.832883 0.000000 0.283090
#
# Coordination Sequence:
#
# PCOD8307246 Si02
#       6
#     8   8   8   8   8   8
#     4  10  21  36  54  78 108 139 172 214 263 312
#     4   9  18  34  54  73  98 136 176 211 252 307
#     4  10  21  36  54  78 108 139 172 214 263 312
#     4  10  20  34  54  79 106 138 177 218 260 311
#     4  10  20  34  54  79 106 138 177 218 260 311
#     4   9  17  31  52  77 106 139 174 216 266 315
#
# _framework density 18.816672000000001
#
# number of rings (size 3 to 8) (size 9 to 14) (size 15 to 20)
#    0.000    2.333    0.000    2.500    0.000    7.333 
#    0.000    4.167    0.000    5.000    0.000    0.000 
#    0.000    0.000    0.000    0.000    0.000    0.000 
#
# Total GULP energy -595358.462581 kJ/mol
# GULP energy per Si atom -12403.301304 kJ/mol
# Density = 1.877384 g / cm^3
# Si number density = 18.816672 Si / 1000 Ang^3
#
#
#
# Elastic Constant Matrix: (Units=GPa)
#
#
# Indices 1 2 3 4 5 6 
#
# 1 90.6474 38.0270 63.7228 0.0000 0.0000 0.0000
# 2 38.0270 90.6474 63.7228 0.0000 0.0000 0.0000
# 3 63.7228 63.7228 141.9551 0.0000 0.0000 0.0000
# 4 0.0000 0.0000 0.0000 46.9368 0.0000 0.0000
# 5 0.0000 0.0000 0.0000 0.0000 46.9368 0.0000
# 6 0.0000 0.0000 0.0000 0.0000 0.0000 26.0868
#
#
#
# Elastic Compliance Matrix: (Units=1/GPa)
#
#
# Indices 1 2 3 4 5 6 
#
# 1 0.016498 -0.002506 -0.006281 0.000000 0.000000 0.000000
# 2 -0.002506 0.016498 -0.006281 0.000000 0.000000 0.000000
# 3 -0.006281 -0.006281 0.012684 0.000000 0.000000 0.000000
# 4 0.000000 0.000000 0.000000 0.021305 0.000000 0.000000
# 5 0.000000 0.000000 0.000000 0.000000 0.021305 0.000000
# 6 0.000000 0.000000 0.000000 0.000000 0.000000 0.038334
#
#
# Mechanical properties :
#
#
# Convention : Reuss Voigt Hill
#
# Bulk Modulus (GPa) = 64.33242 72.68836 68.51039
# Shear Modulus (GPa) = 30.87514 34.51057 32.69286
#
# Velocity S-wave (km/s) = 4.05512 4.28722 4.17278
# Velocity P-wave (km/s) = 7.49591 7.95114 7.72688
#
# Compressibility (1/GPa) = 0.01554426
#
# Stress axis : x y z
#
# Youngs Moduli (GPa) = 60.61173 60.61173 78.84079
#
# Poissons Ratio (x) = 0.15187 0.49523
# Poissons Ratio (y) = 0.15187 0.49523
# Poissons Ratio (z) = 0.38072 0.38072
#
# Static dielectric constant tensor:
#      x y z
#    x 3.434400 0.000000 0.000000 
#    y 0.000000 3.434400 0.000000 
#    z 0.000000 0.000000 3.561490 
# 
# 
# High freq. dielectric constant tensor:
#      x y z
#    x 1.723690 0.000000 0.000000 
#    y 0.000000 1.723690 0.000000 
#    z 0.000000 0.000000 1.745910 
# 
# From -- ./inp_files/4651.got.cif
#   From: 2010.03.12/outbox.cif.g09.slc.cpg/sg105_3_cif.got.tgz:4651.got - 2010.04.14 01:45:32.
