data_PCOD8307133
_publ_section_title
;
Structure prediction by ZEFSAII (Michael W. Deem and Ramdas Pophale) SiO2 
 PCOD8307133
Probable space group: P 42 M C
;
_chemical_formula_sum "Si O2"
_cell_formula_units_Z 64
_cell_length_a 25.831739
_cell_length_b 25.831739
_cell_length_c 5.041282
_cell_angle_alpha 90.000000
_cell_angle_beta 90.000000
_cell_angle_gamma 90.000000
_cell_volume 3363.940300
_symmetry_space_group_name_H-M "P 42 M C"
_symmetry_group_IT_number 105
_symmetry_cell_setting 'tetragonal'
loop_
_space_group_symop_operation_xyz
x,y,z
-y,x,1/2+z
-x,-y,z
y,-x,1/2+z
-x,y,z
x,-y,z
-y,-x,1/2+z
y,x,1/2+z
loop_
_atom_site_type_symbol
_atom_site_label
_atom_site_fract_x
_atom_site_fract_y
_atom_site_fract_z
Si Si1 0.724856 0.560565 0.712070
Si Si2 0.438813 0.056891 0.269180
Si Si3 0.391914 0.774003 0.718917
Si Si4 0.061167 0.888051 0.177794
Si Si5 0.188787 0.142564 0.771934
Si Si6 0.607318 0.440467 0.848368
Si Si7 0.560903 0.118859 0.762514
Si Si8 0.729567 0.220749 0.727504
O O1 0.735707 0.500000 0.662675
O O2 0.731491 0.591644 0.437035
O O3 0.667270 0.571623 0.809579
O O4 0.763413 0.581287 0.937050
O O5 0.500000 0.053183 0.305558
O O6 0.417044 0.096411 0.487577
O O7 0.414225 0.000000 0.306673
O O8 0.423509 0.077061 0.981666
O O9 0.411367 0.828117 0.833603
O O10 0.331020 0.777573 0.676888
O O11 0.088013 0.925491 0.392541
O O12 0.083468 0.828630 0.205083
O O13 0.000000 0.885758 0.218783
O O14 0.152388 0.178073 0.582556
O O15 0.247931 0.161201 0.708471
O O16 0.594512 0.500000 0.792740
O O17 0.573095 0.406153 0.650688
O O18 0.500000 0.129419 0.756425
O O19 0.756733 0.257920 0.515514
#
# Coordination Sequence:
#
# PCOD8307133 Si02
#       8
#     8   8   8   8   8   8   8   8
#     4  11  24  40  56  78 113 148 173 206 266 340
#     4   9  17  30  49  72  99 133 170 206 242 285
#     4  12  23  36  58  83 108 140 178 224 272 322
#     4  10  19  30  47  73 106 146 186 223 268 318
#     4   8  16  32  51  70  97 132 169 211 259 312
#     4  11  24  41  61  84 109 141 180 222 268 321
#     4  10  19  31  49  75 105 136 172 208 248 307
#     4  10  21  37  56  80 104 130 173 227 274 315
#
# _framework density 19.025307000000002
#
# number of rings (size 3 to 8) (size 9 to 14) (size 15 to 20)
#    0.000    1.875    0.000    4.500    0.000    9.000 
#    0.000    0.000    0.000    1.500    0.000    0.000 
#    0.000    0.000    0.000    0.000    0.000    0.000 
#
# Total GULP energy -793434.479739 kJ/mol
# GULP energy per Si atom -12397.413746 kJ/mol
# Density = 1.898200 g / cm^3
# Si number density = 19.025307 Si / 1000 Ang^3
#
#
#
# Elastic Constant Matrix: (Units=GPa)
#
#
# Indices 1 2 3 4 5 6 
#
# 1 82.5649 38.8815 9.8191 0.0000 0.0000 0.0000
# 2 38.8815 82.5649 9.8191 0.0000 0.0000 0.0000
# 3 9.8191 9.8191 70.6025 0.0000 0.0000 0.0000
# 4 0.0000 0.0000 0.0000 13.6356 0.0000 0.0000
# 5 0.0000 0.0000 0.0000 0.0000 13.6356 0.0000
# 6 0.0000 0.0000 0.0000 0.0000 0.0000 2.0236
#
#
#
# Elastic Compliance Matrix: (Units=1/GPa)
#
#
# Indices 1 2 3 4 5 6 
#
# 1 0.015658 -0.007234 -0.001172 0.000000 0.000000 0.000000
# 2 -0.007234 0.015658 -0.001172 0.000000 0.000000 0.000000
# 3 -0.001172 -0.001172 0.014490 0.000000 0.000000 0.000000
# 4 0.000000 0.000000 0.000000 0.073337 0.000000 0.000000
# 5 0.000000 0.000000 0.000000 0.000000 0.073337 0.000000
# 6 0.000000 0.000000 0.000000 0.000000 0.000000 0.494167
#
#
# Mechanical properties :
#
#
# Convention : Reuss Voigt Hill
#
# Bulk Modulus (GPa) = 37.52253 39.19688 38.35970
# Shear Modulus (GPa) = 6.99608 17.67314 12.33461
#
# Velocity S-wave (km/s) = 1.91970 3.05114 2.54899
# Velocity P-wave (km/s) = 4.96779 5.74977 5.37302
#
# Compressibility (1/GPa) = 0.02665066
#
# Stress axis : x y z
#
# Youngs Moduli (GPa) = 63.86616 63.86616 69.01471
#
# Poissons Ratio (x) = 0.46202 0.08085
# Poissons Ratio (y) = 0.46202 0.08085
# Poissons Ratio (z) = 0.07482 0.07482
#
# Static dielectric constant tensor:
#      x y z
#    x 3.428480 0.000000 0.000000 
#    y 0.000000 3.428480 0.000000 
#    z 0.000000 0.000000 3.644370 
# 
# 
# High freq. dielectric constant tensor:
#      x y z
#    x 1.720900 0.000000 0.000000 
#    y 0.000000 1.720900 0.000000 
#    z 0.000000 0.000000 1.762360 
# 
# From -- ./inp_files/352.got.cif
#   From: 2010.03.12/outbox.cif.g09.slc.cpg/sg105_1_cif.got.tgz:352.got - 2010.04.14 01:45:32.
