data_PCOD8307820
_publ_section_title
;
Structure prediction by ZEFSAII (Michael W. Deem and Ramdas Pophale) SiO2 
 PCOD8307820
Probable space group: I 4 C M
;
_chemical_formula_sum "Si O2"
_cell_formula_units_Z 96
_cell_length_a 14.005978
_cell_length_b 14.005978
_cell_length_c 22.767350
_cell_angle_alpha 90.000000
_cell_angle_beta 90.000000
_cell_angle_gamma 90.000000
_cell_volume 4466.212304
_symmetry_space_group_name_H-M "I 4 C M"
_symmetry_group_IT_number 108
_symmetry_cell_setting 'tetragonal'
loop_
_space_group_symop_operation_xyz
x,y,z
-y,x,z
-x,-y,z
y,-x,z
-x,y,1/2+z
x,-y,1/2+z
-y,-x,1/2+z
y,x,1/2+z
1/2+x,1/2+y,1/2+z
1/2-y,1/2+x,1/2+z
1/2-x,1/2-y,1/2+z
1/2+y,1/2-x,1/2+z
1/2-x,1/2+y,z
1/2+x,1/2-y,z
1/2-y,1/2-x,z
1/2+y,1/2+x,z
loop_
_atom_site_type_symbol
_atom_site_label
_atom_site_fract_x
_atom_site_fract_y
_atom_site_fract_z
Si Si1 0.579770 0.079770 0.898591
Si Si2 0.076412 0.423589 0.766560
Si Si3 0.742339 0.498615 0.206596
Si Si4 0.012215 0.841106 0.079765
Si Si5 0.862459 0.922035 0.885516
Si Si6 0.551955 0.209302 0.473062
Si Si7 0.829199 0.824545 0.267226
O O1 0.612537 0.112537 0.831968
O O2 0.536487 0.170226 0.933769
O O3 0.500000 0.000000 0.895032
O O4 0.151220 0.472304 0.723376
O O5 0.000000 0.500000 0.785829
O O6 0.715544 0.475419 0.140237
O O7 0.676003 0.435721 0.250396
O O8 0.727769 0.610576 0.216850
O O9 0.913547 0.899060 0.074065
O O10 0.011417 0.758283 0.031372
O O11 0.791493 0.891011 0.937460
O O12 0.810282 0.888026 0.826649
O O13 0.963994 0.871614 0.890386
O O14 0.624709 0.124709 0.489985
O O15 0.723653 0.776348 0.269533
#
# Coordination Sequence:
#
# PCOD8307820 Si02
#       7
#     8   8  16  16  16  16  16
#     4   9  22  46  71  96 140 188 222 277 357 416
#     4  11  24  46  71 104 148 187 230 289 359 435
#     4  12  24  43  69 102 137 187 232 284 358 424
#     4  11  25  48  71  94 138 185 233 289 352 421
#     4  11  23  41  67  98 136 178 229 284 347 416
#     4  11  24  45  69 100 135 180 235 290 349 425
#     4  12  24  41  67 103 141 176 231 288 352 418
#
# _framework density 21.494723
#
# number of rings (size 3 to 8) (size 9 to 14) (size 15 to 20)
#    0.000    0.833    4.167    3.000    1.167    3.000 
#    9.000    0.000    0.000    0.000    0.000    0.000 
#    0.000    0.000    0.000    0.000    0.000    0.000 
#
# Total GULP energy -595100.551220 kJ/mol
# GULP energy per Si atom -12397.928150 kJ/mol
# Density = 2.144580 g / cm^3
# Si number density = 21.494723 Si / 1000 Ang^3
#
#
#
# Elastic Constant Matrix: (Units=GPa)
#
#
# Indices 1 2 3 4 5 6 
#
# 1 173.8867 -60.4021 42.1549 0.0000 0.0000 -0.0034
# 2 -60.4021 173.8867 42.1549 0.0000 0.0000 0.0034
# 3 42.1549 42.1549 132.9146 0.0000 0.0000 0.0000
# 4 0.0000 0.0000 0.0000 45.4986 0.0000 0.0000
# 5 0.0000 0.0000 0.0000 0.0000 45.4986 0.0000
# 6 -0.0034 0.0034 0.0000 0.0000 0.0000 28.9969
#
#
#
# Elastic Compliance Matrix: (Units=1/GPa)
#
#
# Indices 1 2 3 4 5 6 
#
# 1 0.007898 0.003630 -0.003656 0.000000 0.000000 0.000000
# 2 0.003630 0.007898 -0.003656 0.000000 0.000000 0.000000
# 3 -0.003656 -0.003656 0.009843 0.000000 0.000000 0.000000
# 4 0.000000 0.000000 0.000000 0.021979 0.000000 0.000000
# 5 0.000000 0.000000 0.000000 0.000000 0.021979 0.000000
# 6 0.000000 0.000000 0.000000 0.000000 0.000000 0.034486
#
#
# Mechanical properties :
#
#
# Convention : Reuss Voigt Hill
#
# Bulk Modulus (GPa) = 54.72239 58.72261 56.72250
# Shear Modulus (GPa) = 42.53893 54.45082 48.49488
#
# Velocity S-wave (km/s) = 4.45347 5.03857 4.75503
# Velocity P-wave (km/s) = 7.20821 7.82486 7.52286
#
# Compressibility (1/GPa) = 0.01827405
#
# Stress axis : x y z
#
# Youngs Moduli (GPa) = 126.61213 126.61213 101.59686
#
# Poissons Ratio (x) = -0.45959 0.37146
# Poissons Ratio (y) = -0.45959 0.37146
# Poissons Ratio (z) = 0.46292 0.46292
#
# Static dielectric constant tensor:
#      x y z
#    x 3.823630 0.000000 0.000000 
#    y 0.000000 3.823630 0.000000 
#    z 0.000000 0.000000 3.861260 
# 
# 
# High freq. dielectric constant tensor:
#      x y z
#    x 1.846490 0.000000 0.000000 
#    y 0.000000 1.846490 0.000000 
#    z 0.000000 0.000000 1.845460 
# 
# From -- ./inp_files/2932.got.cif
#   From: 2010.03.12/outbox.cif.g09.slc.cpg/sg108_2_cif.got.tgz:2932.got - 2010.04.14 01:53:11.
