data_PCOD8307636
_publ_section_title
;
Structure prediction by ZEFSAII (Michael W. Deem and Ramdas Pophale) SiO2 
 PCOD8307636
Probable space group: I 4 M M
;
_chemical_formula_sum "Si O2"
_cell_formula_units_Z 128
_cell_length_a 25.196075
_cell_length_b 25.196075
_cell_length_c 11.138291
_cell_angle_alpha 90.000000
_cell_angle_beta 90.000000
_cell_angle_gamma 90.000000
_cell_volume 7071.057112
_symmetry_space_group_name_H-M "I 4 M M"
_symmetry_group_IT_number 107
_symmetry_cell_setting 'tetragonal'
loop_
_space_group_symop_operation_xyz
x,y,z
-y,x,z
-x,-y,z
y,-x,z
-x,y,z
x,-y,z
-y,-x,z
y,x,z
1/2+x,1/2+y,1/2+z
1/2-y,1/2+x,1/2+z
1/2-x,1/2-y,1/2+z
1/2+y,1/2-x,1/2+z
1/2-x,1/2+y,1/2+z
1/2+x,1/2-y,1/2+z
1/2-y,1/2-x,1/2+z
1/2+y,1/2+x,1/2+z
loop_
_atom_site_type_symbol
_atom_site_label
_atom_site_fract_x
_atom_site_fract_y
_atom_site_fract_z
Si Si1 0.149396 0.238717 0.335010
Si Si2 0.319903 0.766209 0.299854
Si Si3 0.384261 0.937759 0.127405
Si Si4 0.855716 0.939153 0.734058
Si Si5 0.886093 0.803433 0.962227
Si Si6 0.437773 0.062215 0.877532
Si Si7 0.439334 0.761361 0.654207
Si Si8 0.626868 0.284017 0.097135
O O1 0.190005 0.190005 0.314304
O O2 0.175273 0.296798 0.319377
O O3 0.099461 0.234411 0.249319
O O4 0.124046 0.238400 0.465539
O O5 0.269595 0.730406 0.268197
O O6 0.348809 0.745051 0.418855
O O7 0.360407 0.764937 0.187123
O O8 0.409604 0.915931 0.253947
O O9 0.321877 0.923782 0.124737
O O10 0.394968 0.000000 0.127406
O O11 0.409847 0.915879 0.001339
O O12 0.911239 0.911239 0.701935
O O13 0.832073 0.915016 0.854311
O O14 0.812066 0.928974 0.629711
O O15 0.868287 0.000000 0.749333
O O16 0.847243 0.847243 0.026318
O O17 0.931975 0.777367 0.041216
O O18 0.500000 0.073870 0.893502
O O19 0.425992 0.000000 0.861313
O O20 0.500000 0.758109 0.698781
O O21 0.672062 0.327939 0.117147
#
# Coordination Sequence:
#
# PCOD8307636 Si02
#       8
#    16  16  16  16  16  16  16  16
#     4  10  20  33  53  76 100 133 174 216 257 305
#     4   8  16  30  51  77 100 120 156 216 266 304
#     4   9  19  33  49  72 102 131 166 212 262 314
#     4   9  17  31  53  79 108 141 176 219 265 314
#     4   9  18  34  55  77  99 130 174 217 263 313
#     4   9  16  31  56  79  97 127 173 221 262 305
#     4  11  23  35  47  68 105 142 170 204 254 314
#     4   8  16  31  48  73 103 129 166 211 260 312
#
# _framework density 18.101959999999998
#
# number of rings (size 3 to 8) (size 9 to 14) (size 15 to 20)
#    0.000    2.875    0.000    2.625    1.750    3.125 
#    0.000    0.000    0.000    0.000    0.000    0.000 
#    0.000    2.250    0.000    0.500    0.000    0.000 
#
# Total GULP energy -792939.926415 kJ/mol
# GULP energy per Si atom -12389.686350 kJ/mol
# Density = 1.806076 g / cm^3
# Si number density = 18.101960 Si / 1000 Ang^3
#
#
#
# Elastic Constant Matrix: (Units=GPa)
#
#
# Indices 1 2 3 4 5 6 
#
# 1 79.1701 35.5942 35.3318 0.0000 0.0000 0.0002
# 2 35.5942 79.1701 35.3318 0.0000 0.0000 -0.0002
# 3 35.3318 35.3318 91.7897 0.0000 0.0000 0.0000
# 4 0.0000 0.0000 0.0000 41.5563 0.0000 0.0000
# 5 0.0000 0.0000 0.0000 0.0000 41.5563 0.0000
# 6 0.0002 -0.0002 0.0000 0.0000 0.0000 21.4343
#
#
#
# Elastic Compliance Matrix: (Units=1/GPa)
#
#
# Indices 1 2 3 4 5 6 
#
# 1 0.017184 -0.005764 -0.004396 0.000000 0.000000 0.000000
# 2 -0.005764 0.017184 -0.004396 0.000000 0.000000 0.000000
# 3 -0.004396 -0.004396 0.014279 0.000000 0.000000 0.000000
# 4 0.000000 0.000000 0.000000 0.024064 0.000000 0.000000
# 5 0.000000 0.000000 0.000000 0.000000 0.024064 0.000000
# 6 0.000000 0.000000 0.000000 0.000000 0.000000 0.046654
#
#
# Mechanical properties :
#
#
# Convention : Reuss Voigt Hill
#
# Bulk Modulus (GPa) = 51.18896 51.40508 51.29702
# Shear Modulus (GPa) = 27.92476 30.50085 29.21281
#
# Velocity S-wave (km/s) = 3.93190 4.10926 4.02156
# Velocity P-wave (km/s) = 6.99662 7.13960 7.06847
#
# Compressibility (1/GPa) = 0.01953546
#
# Stress axis : x y z
#
# Youngs Moduli (GPa) = 58.19254 58.19254 70.03493
#
# Poissons Ratio (x) = 0.33543 0.30786
# Poissons Ratio (y) = 0.33543 0.30786
# Poissons Ratio (z) = 0.25581 0.25581
#
# Static dielectric constant tensor:
#      x y z
#    x 3.159890 0.000000 0.000000 
#    y 0.000000 3.159890 0.000000 
#    z 0.000000 0.000000 3.513150 
# 
# 
# High freq. dielectric constant tensor:
#      x y z
#    x 1.682940 0.000000 0.000000 
#    y 0.000000 1.682940 0.000000 
#    z 0.000000 0.000000 1.702190 
# 
# From -- ./inp_files/2673.got.cif
#   From: 2010.03.12/outbox.cif.g09.slc.cpg/sg107_2_cif.got.tgz:2673.got - 2010.04.14 01:49:11.
