data_PCOD8307100
_publ_section_title
;
Structure prediction by ZEFSAII (Michael W. Deem and Ramdas Pophale) SiO2 
 PCOD8307100
Probable space group: P 42 M C
;
_chemical_formula_sum "Si O2"
_cell_formula_units_Z 64
_cell_length_a 21.409350
_cell_length_b 21.409350
_cell_length_c 9.133601
_cell_angle_alpha 90.000000
_cell_angle_beta 90.000000
_cell_angle_gamma 90.000000
_cell_volume 4186.479797
_symmetry_space_group_name_H-M "P 42 M C"
_symmetry_group_IT_number 105
_symmetry_cell_setting 'tetragonal'
loop_
_space_group_symop_operation_xyz
x,y,z
-y,x,1/2+z
-x,-y,z
y,-x,1/2+z
-x,y,z
x,-y,z
-y,-x,1/2+z
y,x,1/2+z
loop_
_atom_site_type_symbol
_atom_site_label
_atom_site_fract_x
_atom_site_fract_y
_atom_site_fract_z
Si Si1 0.573300 0.927782 0.127620
Si Si2 0.669954 0.071219 0.613328
Si Si3 0.346367 0.241945 0.788045
Si Si4 0.867849 0.427321 0.319474
Si Si5 0.829052 0.775331 0.598189
Si Si6 0.861305 0.237459 0.289561
Si Si7 0.692941 0.263278 0.485379
Si Si8 0.857471 0.330563 0.818928
O O1 0.500000 0.919805 0.153292
O O2 0.606158 0.884344 0.248419
O O3 0.593914 0.000000 0.145009
O O4 0.592039 0.905213 0.965268
O O5 0.608811 0.104006 0.680569
O O6 0.730226 0.077535 0.720142
O O7 0.688142 0.101889 0.459322
O O8 0.653265 0.000000 0.587632
O O9 0.409102 0.205540 0.836617
O O10 0.289981 0.192462 0.788099
O O11 0.329522 0.297756 0.901366
O O12 0.353138 0.270666 0.624311
O O13 0.873869 0.500000 0.286501
O O14 0.822070 0.838669 0.693478
O O15 0.873503 0.785184 0.456301
O O16 0.760440 0.758311 0.541117
O O17 0.861590 0.722894 0.696923
O O18 0.662555 0.214266 0.370784
#
# Coordination Sequence:
#
# PCOD8307100 Si02
#       8
#     8   8   8   8   8   8   8   8
#     4  10  22  36  45  57  84 128 175 206 228 258
#     4  11  21  31  42  61  89 121 162 199 229 266
#     4   9  16  27  43  70  84 104 138 186 235 282
#     4  10  20  34  49  62  85 123 167 205 232 265
#     4  10  15  26  46  65  85 102 137 193 242 290
#     4   9  15  27  41  64  83 107 138 187 233 284
#     4  10  15  25  44  66  86 100 131 190 239 287
#     4  12  18  29  46  65  84 111 151 206 241 276
#
# _framework density 15.287307
#
# number of rings (size 3 to 8) (size 9 to 14) (size 15 to 20)
#    0.000    1.875    7.500    3.000    0.000    1.250 
#    0.000    0.625    0.000    0.000    0.000    0.000 
#    0.000    0.000    0.000    0.000    0.000   45.625 
#
# Total GULP energy -793129.446670 kJ/mol
# GULP energy per Si atom -12392.647604 kJ/mol
# Density = 1.525251 g / cm^3
# Si number density = 15.287307 Si / 1000 Ang^3
#
#
#
# Elastic Constant Matrix: (Units=GPa)
#
#
# Indices 1 2 3 4 5 6 
#
# 1 38.5764 37.1970 32.3462 0.0000 0.0000 0.0000
# 2 37.1970 38.5764 32.3462 0.0000 0.0000 0.0000
# 3 32.3462 32.3462 109.0490 0.0000 0.0000 0.0000
# 4 0.0000 0.0000 0.0000 18.7990 0.0000 0.0000
# 5 0.0000 0.0000 0.0000 0.0000 18.7990 0.0000
# 6 0.0000 0.0000 0.0000 0.0000 0.0000 20.1236
#
#
#
# Elastic Compliance Matrix: (Units=1/GPa)
#
#
# Indices 1 2 3 4 5 6 
#
# 1 0.371322 -0.353649 -0.005242 0.000000 0.000000 0.000000
# 2 -0.353649 0.371322 -0.005242 0.000000 0.000000 0.000000
# 3 -0.005242 -0.005242 0.012280 0.000000 0.000000 0.000000
# 4 0.000000 0.000000 0.000000 0.053194 0.000000 0.000000
# 5 0.000000 0.000000 0.000000 0.000000 0.053194 0.000000
# 6 0.000000 0.000000 0.000000 0.000000 0.000000 0.049693
#
#
# Mechanical properties :
#
#
# Convention : Reuss Voigt Hill
#
# Bulk Modulus (GPa) = 37.51343 43.33116 40.42229
# Shear Modulus (GPa) = 3.03369 17.16514 10.09942
#
# Velocity S-wave (km/s) = 1.41023 3.35451 2.57308
# Velocity P-wave (km/s) = 5.21957 6.58861 5.94364
#
# Compressibility (1/GPa) = 0.02665712
#
# Stress axis : x y z
#
# Youngs Moduli (GPa) = 2.69308 2.69308 81.43304
#
# Poissons Ratio (x) = 0.95241 0.42688
# Poissons Ratio (y) = 0.95241 0.42688
# Poissons Ratio (z) = 0.01412 0.01412
#
# Static dielectric constant tensor:
#      x y z
#    x 2.816400 0.000000 0.000000 
#    y 0.000000 2.816400 0.000000 
#    z 0.000000 0.000000 3.554020 
# 
# 
# High freq. dielectric constant tensor:
#      x y z
#    x 1.543020 0.000000 0.000000 
#    y 0.000000 1.543020 0.000000 
#    z 0.000000 0.000000 1.614440 
# 
# From -- ./inp_files/1200.got.cif
#   From: 2010.03.12/outbox.cif.g09.slc.cpg/sg105_1_cif.got.tgz:1200.got - 2010.04.14 01:45:32.
