data_PCOD8307237
_publ_section_title
;
Structure prediction by ZEFSAII (Michael W. Deem and Ramdas Pophale) SiO2 
 PCOD8307237
Probable space group: P 42 M C
;
_chemical_formula_sum "Si O2"
_cell_formula_units_Z 48
_cell_length_a 9.076019
_cell_length_b 9.076019
_cell_length_c 31.547572
_cell_angle_alpha 90.000000
_cell_angle_beta 90.000000
_cell_angle_gamma 90.000000
_cell_volume 2598.703510
_symmetry_space_group_name_H-M "P 42 M C"
_symmetry_group_IT_number 105
_symmetry_cell_setting 'tetragonal'
loop_
_space_group_symop_operation_xyz
x,y,z
-y,x,1/2+z
-x,-y,z
y,-x,1/2+z
-x,y,z
x,-y,z
-y,-x,1/2+z
y,x,1/2+z
loop_
_atom_site_type_symbol
_atom_site_label
_atom_site_fract_x
_atom_site_fract_y
_atom_site_fract_z
Si Si1 0.670917 0.327602 0.567740
Si Si2 0.161000 0.825615 0.400141
Si Si3 0.825408 0.831150 0.144974
Si Si4 0.830937 0.175757 0.992104
Si Si5 0.165888 0.823421 0.809565
Si Si6 0.334692 0.824580 0.728275
O O1 0.500000 0.285701 0.565925
O O2 0.696367 0.500000 0.573555
O O3 0.742987 0.244871 0.606797
O O4 0.746956 0.277547 0.524522
O O5 0.238769 0.786435 0.445013
O O6 0.239899 0.777833 0.355703
O O7 0.000000 0.751011 0.401253
O O8 0.141566 0.000000 0.398057
O O9 0.767825 0.762367 0.188999
O O10 0.000000 0.817401 0.141048
O O11 0.774062 0.000000 0.143091
O O12 0.000000 0.216715 0.002944
O O13 0.810933 0.000000 0.994005
O O14 0.268815 0.761320 0.772171
O O15 0.000000 0.769986 0.799916
O O16 0.170494 0.000000 0.811429
O O17 0.500000 0.764036 0.722961
O O18 0.332433 0.000000 0.729543
#
# Coordination Sequence:
#
# PCOD8307237 Si02
#       6
#     8   8   8   8   8   8
#     4  11  24  38  50  68  96 128 160 196 242 295
#     4   7  11  21  39  64  93 123 154 190 233 279
#     4  10  20  34  53  75  96 122 160 203 245 291
#     4   9  17  31  52  76  99 125 161 202 241 284
#     4   8  12  20  36  59  90 126 158 189 230 279
#     4   9  16  25  39  63  96 129 159 195 239 285
#
# _framework density 18.470749000000001
#
# number of rings (size 3 to 8) (size 9 to 14) (size 15 to 20)
#    0.000    3.000    0.000    4.000    0.000    6.667 
#    0.000    0.833    0.000    3.000    0.000    1.167 
#    0.000    6.667    0.000    0.000    0.000    0.000 
#
# Total GULP energy -594707.811890 kJ/mol
# GULP energy per Si atom -12389.746081 kJ/mol
# Density = 1.842871 g / cm^3
# Si number density = 18.470749 Si / 1000 Ang^3
#
#
#
# Elastic Constant Matrix: (Units=GPa)
#
#
# Indices 1 2 3 4 5 6 
#
# 1 38.9114 15.3690 29.0110 0.0000 0.0000 0.0000
# 2 15.3690 38.9114 29.0110 0.0000 0.0000 0.0000
# 3 29.0110 29.0110 165.4439 0.0000 0.0000 0.0000
# 4 0.0000 0.0000 0.0000 -3.8208 0.0000 0.0000
# 5 0.0000 0.0000 0.0000 0.0000 -3.8208 0.0000
# 6 0.0000 0.0000 0.0000 0.0000 0.0000 17.4937
#
#
#
# Elastic Compliance Matrix: (Units=1/GPa)
#
#
# Indices 1 2 3 4 5 6 
#
# 1 0.032575 -0.009902 -0.003976 0.000000 0.000000 0.000000
# 2 -0.009902 0.032575 -0.003976 0.000000 0.000000 0.000000
# 3 -0.003976 -0.003976 0.007439 0.000000 0.000000 0.000000
# 4 0.000000 0.000000 0.000000 -0.261726 0.000000 0.000000
# 5 0.000000 0.000000 0.000000 0.000000 -0.261726 0.000000
# 6 0.000000 0.000000 0.000000 0.000000 0.000000 0.057163
#
#
# Mechanical properties :
#
#
# Convention : Reuss Voigt Hill
#
# Bulk Modulus (GPa) = 27.11420 43.33876 35.22648
# Shear Modulus (GPa) = -14.46339 13.29548 -0.58396
#
# Velocity S-wave (km/s) = -2.80133 2.68584 -0.56288
# Velocity P-wave (km/s) = 2.06111 5.75610 4.32324
#
# Compressibility (1/GPa) = 0.03688105
#
# Stress axis : x y z
#
# Youngs Moduli (GPa) = 30.69876 30.69876 134.43318
#
# Poissons Ratio (x) = 0.30398 0.53447
# Poissons Ratio (y) = 0.30398 0.53447
# Poissons Ratio (z) = 0.12205 0.12205
#
# Static dielectric constant tensor:
#      x y z
#    x 3.078570 0.000000 0.000000 
#    y 0.000000 3.078570 0.000000 
#    z 0.000000 0.000000 3.958730 
# 
# 
# High freq. dielectric constant tensor:
#      x y z
#    x 1.674100 0.000000 0.000000 
#    y 0.000000 1.674100 0.000000 
#    z 0.000000 0.000000 1.747910 
# 
# From -- ./inp_files/4722.got.cif
#   From: 2010.03.12/outbox.cif.g09.slc.cpg/sg105_3_cif.got.tgz:4722.got - 2010.04.14 01:45:32.
