data_PCOD8307840
_publ_section_title
;
Structure prediction by ZEFSAII (Michael W. Deem and Ramdas Pophale) SiO2 
 PCOD8307840
Probable space group: I 41 M D
;
_chemical_formula_sum "Si O2"
_cell_formula_units_Z 96
_cell_length_a 17.314893
_cell_length_b 17.314893
_cell_length_c 18.440031
_cell_angle_alpha 90.000000
_cell_angle_beta 90.000000
_cell_angle_gamma 90.000000
_cell_volume 5528.423075
_symmetry_space_group_name_H-M "I 41 M D"
_symmetry_group_IT_number 109
_symmetry_cell_setting 'tetragonal'
loop_
_space_group_symop_operation_xyz
x,y,z
-y,1/2+x,1/4+z
-x,-y,z
y,1/2-x,1/4+z
-x,y,z
x,-y,z
-y,1/2-x,1/4+z
y,1/2+x,1/4+z
1/2+x,1/2+y,1/2+z
1/2-y,x,3/4+z
1/2-x,1/2-y,1/2+z
1/2+y,-x,3/4+z
1/2-x,1/2+y,1/2+z
1/2+x,1/2-y,1/2+z
1/2-y,-x,3/4+z
1/2+y,x,3/4+z
loop_
_atom_site_type_symbol
_atom_site_label
_atom_site_fract_x
_atom_site_fract_y
_atom_site_fract_z
Si Si1 0.701856 0.209210 0.339280
Si Si2 0.847565 0.588184 0.076152
Si Si3 0.588039 0.588804 0.631586
Si Si4 0.131344 0.842542 0.981366
Si Si5 0.796534 0.797084 0.205552
Si Si6 0.086052 0.669269 0.949492
O O1 0.643653 0.275094 0.311479
O O2 0.740541 0.169358 0.269106
O O3 0.770700 0.246003 0.386909
O O4 0.649763 0.149910 0.387009
O O5 0.821049 0.500000 0.069206
O O6 0.882735 0.604041 0.156259
O O7 0.910168 0.607663 0.014621
O O8 0.500000 0.602690 0.656421
O O9 0.611780 0.500000 0.639772
O O10 0.594946 0.612179 0.547749
O O11 0.643757 0.637079 0.683444
O O12 0.224156 0.844043 0.986934
O O13 0.102337 0.754206 0.981576
O O14 0.000000 0.665725 0.916305
#
# Coordination Sequence:
#
# PCOD8307840 Si02
#       6
#    16  16  16  16  16  16
#     4  10  17  34  54  76  99 134 180 218 247 302
#     4  10  18  29  49  78 111 141 171 207 257 314
#     4  11  23  36  51  79 113 138 169 219 273 315
#     4  10  18  33  55  78 103 143 176 208 251 325
#     4  10  18  35  57  76 101 137 179 214 254 309
#     4  10  19  31  50  79 111 143 171 208 259 310
#
# _framework density 17.364806999999999
#
# number of rings (size 3 to 8) (size 9 to 14) (size 15 to 20)
#    0.000    2.167    5.000    4.000    0.000    1.667 
#    0.000    0.833    0.000    0.000    0.000    0.000 
#    0.000    0.000    0.000    0.000    0.000    0.000 
#
# Total GULP energy -594966.091139 kJ/mol
# GULP energy per Si atom -12395.126899 kJ/mol
# Density = 1.732528 g / cm^3
# Si number density = 17.364807 Si / 1000 Ang^3
#
#
#
# Elastic Constant Matrix: (Units=GPa)
#
#
# Indices 1 2 3 4 5 6 
#
# 1 75.3932 31.7176 62.0026 0.0000 0.0000 0.0000
# 2 31.7176 75.3932 62.0026 0.0000 0.0000 0.0000
# 3 62.0026 62.0026 106.9362 0.0000 0.0000 0.0000
# 4 0.0000 0.0000 0.0000 19.5508 0.0000 0.0000
# 5 0.0000 0.0000 0.0000 0.0000 19.5508 0.0000
# 6 0.0000 0.0000 0.0000 0.0000 0.0000 18.6661
#
#
#
# Elastic Compliance Matrix: (Units=1/GPa)
#
#
# Indices 1 2 3 4 5 6 
#
# 1 0.025648 0.002752 -0.016467 0.000000 0.000000 0.000000
# 2 0.002752 0.025648 -0.016467 0.000000 0.000000 0.000000
# 3 -0.016467 -0.016467 0.028446 0.000000 0.000000 0.000000
# 4 0.000000 0.000000 0.000000 0.051149 0.000000 0.000000
# 5 0.000000 0.000000 0.000000 0.000000 0.051149 0.000000
# 6 0.000000 0.000000 0.000000 0.000000 0.000000 0.053573
#
#
# Mechanical properties :
#
#
# Convention : Reuss Voigt Hill
#
# Bulk Modulus (GPa) = 51.59973 63.24092 57.42033
# Shear Modulus (GPa) = 16.53249 18.35355 17.44302
#
# Velocity S-wave (km/s) = 3.08891 3.25459 3.17283
# Velocity P-wave (km/s) = 6.51931 7.11486 6.82359
#
# Compressibility (1/GPa) = 0.01937995
#
# Stress axis : x y z
#
# Youngs Moduli (GPa) = 38.98942 38.98943 35.15397
#
# Poissons Ratio (x) = -0.10730 0.57886
# Poissons Ratio (y) = -0.10730 0.57886
# Poissons Ratio (z) = 0.64202 0.64202
#
# Static dielectric constant tensor:
#      x y z
#    x 3.067140 0.000000 0.000000 
#    y 0.000000 3.067140 0.000000 
#    z 0.000000 0.000000 3.380930 
# 
# 
# High freq. dielectric constant tensor:
#      x y z
#    x 1.648360 0.000000 0.000000 
#    y 0.000000 1.648360 0.000000 
#    z 0.000000 0.000000 1.670080 
# 
# From -- ./inp_files/3147.got.cif
#   From: 2010.03.12/outbox.cif.g09.slc.cpg/sg109_2_cif.got.tgz:3147.got - 2010.04.14 01:55:16.
