data_PCOD8307410
_publ_section_title
;
Structure prediction by ZEFSAII (Michael W. Deem and Ramdas Pophale) SiO2 
 PCOD8307410
Probable space group: P 42 B C
;
_chemical_formula_sum "Si O2"
_cell_formula_units_Z 56
_cell_length_a 14.847005
_cell_length_b 14.847005
_cell_length_c 13.352455
_cell_angle_alpha 90.000000
_cell_angle_beta 90.000000
_cell_angle_gamma 90.000000
_cell_volume 2943.329157
_symmetry_space_group_name_H-M "P 42 B C"
_symmetry_group_IT_number 106
_symmetry_cell_setting 'tetragonal'
loop_
_space_group_symop_operation_xyz
x,y,z
-y,x,1/2+z
-x,-y,z
y,-x,1/2+z
1/2-x,1/2+y,z
1/2+x,1/2-y,z
1/2-y,1/2-x,1/2+z
1/2+y,1/2+x,1/2+z
loop_
_atom_site_type_symbol
_atom_site_label
_atom_site_fract_x
_atom_site_fract_y
_atom_site_fract_z
Si Si1 0.000000 0.000000 0.927680
Si Si2 0.151502 0.083915 0.564539
Si Si3 0.873819 0.713944 0.790939
Si Si4 0.000000 0.500000 0.427680
Si Si5 0.689957 0.035024 0.487416
Si Si6 0.126181 0.286056 0.564422
Si Si7 0.189957 0.464976 0.867945
Si Si8 0.651502 0.416085 0.790822
O O1 0.069570 0.055573 0.861060
O O2 0.944427 0.069570 0.994301
O O3 0.174193 0.189382 0.551626
O O4 0.122394 0.061599 0.677680
O O5 0.242745 0.032039 0.540192
O O6 0.957814 0.709962 0.868100
O O7 0.910223 0.701955 0.677680
O O8 0.802437 0.634711 0.817805
O O9 0.825807 0.810618 0.803735
O O10 0.087710 0.500598 0.499858
O O11 0.999402 0.412290 0.355503
O O12 0.697563 0.134711 0.537556
O O13 0.042186 0.290038 0.487261
O O14 0.257255 0.532039 0.815169
#
# Coordination Sequence:
#
# PCOD8307410 Si02
#       8
#     4   8   8   4   8   8   8   8
#     4  12  22  40  56  90 112 160 198 252 300 362
#     4  11  22  38  61  88 119 155 199 247 303 360
#     4   9  19  36  59  84 114 155 194 239 293 353
#     4   8  20  36  62  84 112 162 196 244 290 356
#     4  10  20  39  60  84 123 154 199 247 299 353
#     4   9  19  36  59  84 114 155 194 239 293 353
#     4  10  20  39  60  84 123 154 199 247 299 353
#     4  11  22  38  61  88 119 155 199 247 303 360
#
# _framework density 19.026074999999999
#
# number of rings (size 3 to 8) (size 9 to 14) (size 15 to 20)
#    0.000    2.286    2.857    1.286    0.000    2.286 
#    0.000   17.857    0.000    0.000    0.000    0.000 
#    0.000    0.000    0.000    0.000    0.000    0.000 
#
# Total GULP energy -694152.666272 kJ/mol
# GULP energy per Si atom -12395.583326 kJ/mol
# Density = 1.898277 g / cm^3
# Si number density = 19.026075 Si / 1000 Ang^3
#
#
#
# Elastic Constant Matrix: (Units=GPa)
#
#
# Indices 1 2 3 4 5 6 
#
# 1 116.3298 63.1981 53.1753 0.0000 0.0000 0.0000
# 2 63.1981 116.3298 53.1753 0.0000 0.0000 0.0000
# 3 53.1753 53.1753 140.2722 0.0000 0.0000 0.0000
# 4 0.0000 0.0000 0.0000 22.3944 0.0000 0.0000
# 5 0.0000 0.0000 0.0000 0.0000 22.3944 0.0000
# 6 0.0000 0.0000 0.0000 0.0000 0.0000 32.0810
#
#
#
# Elastic Compliance Matrix: (Units=1/GPa)
#
#
# Indices 1 2 3 4 5 6 
#
# 1 0.013002 -0.005819 -0.002723 0.000000 0.000000 0.000000
# 2 -0.005819 0.013002 -0.002723 0.000000 0.000000 0.000000
# 3 -0.002723 -0.002723 0.009194 0.000000 0.000000 0.000000
# 4 0.000000 0.000000 0.000000 0.044654 0.000000 0.000000
# 5 0.000000 0.000000 0.000000 0.000000 0.044654 0.000000
# 6 0.000000 0.000000 0.000000 0.000000 0.000000 0.031171
#
#
# Mechanical properties :
#
#
# Convention : Reuss Voigt Hill
#
# Bulk Modulus (GPa) = 78.94028 79.11434 79.02731
# Shear Modulus (GPa) = 27.40779 28.93284 28.17031
#
# Velocity S-wave (km/s) = 3.79956 3.90384 3.85205
# Velocity P-wave (km/s) = 7.79933 7.87352 7.83651
#
# Compressibility (1/GPa) = 0.01266780
#
# Stress axis : x y z
#
# Youngs Moduli (GPa) = 76.90988 76.90988 108.77175
#
# Poissons Ratio (x) = 0.44753 0.29619
# Poissons Ratio (y) = 0.44753 0.29619
# Poissons Ratio (z) = 0.20943 0.20943
#
# Static dielectric constant tensor:
#      x y z
#    x 3.440170 0.000000 0.000000 
#    y 0.000000 3.440170 0.000000 
#    z 0.000000 0.000000 3.644430 
# 
# 
# High freq. dielectric constant tensor:
#      x y z
#    x 1.732380 0.000000 0.000000 
#    y 0.000000 1.732380 0.000000 
#    z 0.000000 0.000000 1.748230 
# 
# From -- ./inp_files/1349.got.cif
#   From: 2010.03.12/outbox.cif.g09.slc.cpg/sg106_cif.got.tgz:1349.got - 2010.04.14 01:48:02.
