data_PCOD8307012
_publ_section_title
;
Structure prediction by ZEFSAII (Michael W. Deem and Ramdas Pophale) SiO2 
 PCOD8307012
Probable space group: P 4 C C
;
_chemical_formula_sum "Si O2"
_cell_formula_units_Z 40
_cell_length_a 9.598041
_cell_length_b 9.598041
_cell_length_c 20.295985
_cell_angle_alpha 90.000000
_cell_angle_beta 90.000000
_cell_angle_gamma 90.000000
_cell_volume 1869.714667
_symmetry_space_group_name_H-M "P 4 C C"
_symmetry_group_IT_number 103
_symmetry_cell_setting 'tetragonal'
loop_
_space_group_symop_operation_xyz
x,y,z
-y,x,z
-x,-y,z
y,-x,z
-x,y,1/2+z
x,-y,1/2+z
-y,-x,1/2+z
y,x,1/2+z
loop_
_atom_site_type_symbol
_atom_site_label
_atom_site_fract_x
_atom_site_fract_y
_atom_site_fract_z
Si Si1 0.341821 0.170167 0.046250
Si Si2 0.637833 0.870951 0.741256
Si Si3 0.336148 0.336148 0.417527
Si Si4 0.637833 0.129049 0.093798
Si Si5 0.658179 0.170167 0.788804
O O1 0.502272 0.206174 0.062912
O O2 0.238927 0.237207 0.100048
O O3 0.323283 0.003134 0.047534
O O4 0.285571 0.244454 0.979494
O O5 0.604188 0.924995 0.667527
O O6 0.762793 0.761073 0.735006
O O7 0.502272 0.793826 0.772142
O O8 0.676717 0.003134 0.787519
O O9 0.500000 0.305257 0.417527
O O10 0.285571 0.244454 0.355560
#
# Coordination Sequence:
#
# PCOD8307012 Si02
#       5
#     8   8   8   8   8
#     4  11  23  41  65  96 134 176 225 277 337 400
#     4  11  23  42  66  99 135 177 225 279 340 401
#     4  11  22  42  66  95 128 170 231 276 330 405
#     4  11  23  42  66  99 135 177 225 279 340 401
#     4  11  23  41  65  96 134 176 225 277 337 400
#
# _framework density 21.393639
#
# number of rings (size 3 to 8) (size 9 to 14) (size 15 to 20)
#    0.000    1.000    4.000    4.800    0.000    3.200 
#    0.000    4.000    0.000    2.400    0.000    0.000 
#    0.000    0.000    0.000    0.000    0.000    0.000 
#
# Total GULP energy -495642.043342 kJ/mol
# GULP energy per Si atom -12391.051084 kJ/mol
# Density = 2.134495 g / cm^3
# Si number density = 21.393639 Si / 1000 Ang^3
#
#
#
# Elastic Constant Matrix: (Units=GPa)
#
#
# Indices 1 2 3 4 5 6 
#
# 1 111.3451 89.0502 36.9898 0.0000 0.0000 0.0000
# 2 89.0502 111.3451 36.9898 0.0000 0.0000 0.0000
# 3 36.9898 36.9898 130.1604 0.0000 0.0000 0.0000
# 4 0.0000 0.0000 0.0000 24.8512 0.0000 0.0000
# 5 0.0000 0.0000 0.0000 0.0000 24.8512 0.0000
# 6 0.0000 0.0000 0.0000 0.0000 0.0000 46.7282
#
#
#
# Elastic Compliance Matrix: (Units=1/GPa)
#
#
# Indices 1 2 3 4 5 6 
#
# 1 0.025214 -0.019639 -0.001584 0.000000 0.000000 0.000000
# 2 -0.019639 0.025214 -0.001584 0.000000 0.000000 0.000000
# 3 -0.001584 -0.001584 0.008583 0.000000 0.000000 0.000000
# 4 0.000000 0.000000 0.000000 0.040239 0.000000 0.000000
# 5 0.000000 0.000000 0.000000 0.000000 0.040239 0.000000
# 6 0.000000 0.000000 0.000000 0.000000 0.000000 0.021400
#
#
# Mechanical properties :
#
#
# Convention : Reuss Voigt Hill
#
# Bulk Modulus (GPa) = 74.64917 75.43448 75.04183
# Shear Modulus (GPa) = 23.69986 31.94086 27.82036
#
# Velocity S-wave (km/s) = 3.33197 3.86814 3.61002
# Velocity P-wave (km/s) = 7.05490 7.43551 7.24770
#
# Compressibility (1/GPa) = 0.01339600
#
# Stress axis : x y z
#
# Youngs Moduli (GPa) = 39.66030 39.66030 116.50491
#
# Poissons Ratio (x) = 0.77889 0.18458
# Poissons Ratio (y) = 0.77889 0.18458
# Poissons Ratio (z) = 0.06284 0.06284
#
# Static dielectric constant tensor:
#      x y z
#    x 3.709160 0.000000 0.000000 
#    y 0.000000 3.709160 0.000000 
#    z 0.000000 0.000000 3.826630 
# 
# 
# High freq. dielectric constant tensor:
#      x y z
#    x 1.835470 0.000000 0.000000 
#    y 0.000000 1.835470 0.000000 
#    z 0.000000 0.000000 1.840880 
# 
# From -- ./inp_files/1343.got.cif
#   From: 2010.03.12/outbox.cif.g09.slc.cpg/sg103_cif.got.tgz:1343.got - 2010.04.14 01:42:52.
