data_PCOD8307976
_publ_section_title
;
Structure prediction by ZEFSAII (Michael W. Deem and Ramdas Pophale) SiO2 
 PCOD8307976
Probable space group: I 41 M D
;
_chemical_formula_sum "Si O2"
_cell_formula_units_Z 128
_cell_length_a 26.499847
_cell_length_b 26.499847
_cell_length_c 10.022004
_cell_angle_alpha 90.000000
_cell_angle_beta 90.000000
_cell_angle_gamma 90.000000
_cell_volume 7037.871041
_symmetry_space_group_name_H-M "I 41 M D"
_symmetry_group_IT_number 109
_symmetry_cell_setting 'tetragonal'
loop_
_space_group_symop_operation_xyz
x,y,z
-y,1/2+x,1/4+z
-x,-y,z
y,1/2-x,1/4+z
-x,y,z
x,-y,z
-y,1/2-x,1/4+z
y,1/2+x,1/4+z
1/2+x,1/2+y,1/2+z
1/2-y,x,3/4+z
1/2-x,1/2-y,1/2+z
1/2+y,-x,3/4+z
1/2-x,1/2+y,1/2+z
1/2+x,1/2-y,1/2+z
1/2-y,-x,3/4+z
1/2+y,x,3/4+z
loop_
_atom_site_type_symbol
_atom_site_label
_atom_site_fract_x
_atom_site_fract_y
_atom_site_fract_z
Si Si1 0.056905 0.363729 0.519460
Si Si2 0.057224 0.861300 0.268227
Si Si3 0.862264 0.784600 0.342733
Si Si4 0.368659 0.782418 0.095465
Si Si5 0.360101 0.557497 0.458002
Si Si6 0.717514 0.870669 0.599840
Si Si7 0.635852 0.785087 0.598573
Si Si8 0.137369 0.442888 0.207037
O O1 0.084470 0.417105 0.543989
O O2 0.083607 0.319796 0.604042
O O3 0.059480 0.348442 0.364723
O O4 0.000000 0.369642 0.570692
O O5 0.087075 0.818259 0.348547
O O6 0.059702 0.848236 0.112200
O O7 0.000000 0.863334 0.321048
O O8 0.813231 0.817834 0.375075
O O9 0.866056 0.739928 0.447675
O O10 0.856087 0.762224 0.195210
O O11 0.374962 0.737602 0.200000
O O12 0.365040 0.500000 0.407502
O O13 0.313875 0.583829 0.381629
O O14 0.412250 0.586242 0.425653
O O15 0.683459 0.821377 0.616888
O O16 0.765222 0.867133 0.697931
O O17 0.684531 0.920378 0.626727
O O18 0.128136 0.500000 0.159656
#
# Coordination Sequence:
#
# PCOD8307976 Si02
#       8
#    16  16  16  16  16  16  16  16
#     4   9  18  34  54  78 109 138 170 217 266 314
#     4   9  18  33  55  81 105 135 176 218 262 314
#     4  11  21  36  55  77 106 140 179 221 261 307
#     4  11  23  36  52  78 108 141 179 217 261 312
#     4   9  18  33  55  81 105 135 176 218 262 314
#     4  11  23  36  52  78 108 141 179 217 261 312
#     4  11  21  36  55  77 106 140 179 221 261 307
#     4   9  18  34  54  78 109 138 170 217 266 314
#
# _framework density 18.187318999999999
#
# number of rings (size 3 to 8) (size 9 to 14) (size 15 to 20)
#    0.000    2.000    2.500    1.500    0.000    5.500 
#    0.000    2.500    0.000    0.000    0.000    0.000 
#    0.000    8.000    0.000    0.000    0.000    0.000 
#
# Total GULP energy -793827.592461 kJ/mol
# GULP energy per Si atom -12403.556132 kJ/mol
# Density = 1.814592 g / cm^3
# Si number density = 18.187319 Si / 1000 Ang^3
#
#
#
# Elastic Constant Matrix: (Units=GPa)
#
#
# Indices 1 2 3 4 5 6 
#
# 1 119.9469 51.0077 17.9630 0.0000 0.0000 0.0000
# 2 51.0077 119.9469 17.9630 0.0000 0.0000 0.0000
# 3 17.9630 17.9630 41.1455 0.0000 0.0000 0.0000
# 4 0.0000 0.0000 0.0000 17.0830 0.0000 0.0000
# 5 0.0000 0.0000 0.0000 0.0000 17.0830 0.0000
# 6 0.0000 0.0000 0.0000 0.0000 0.0000 15.4634
#
#
#
# Elastic Compliance Matrix: (Units=1/GPa)
#
#
# Indices 1 2 3 4 5 6 
#
# 1 0.010473 -0.004033 -0.002812 0.000000 0.000000 0.000000
# 2 -0.004033 0.010473 -0.002812 0.000000 0.000000 0.000000
# 3 -0.002812 -0.002812 0.026759 0.000000 0.000000 0.000000
# 4 0.000000 0.000000 0.000000 0.058538 0.000000 0.000000
# 5 0.000000 0.000000 0.000000 0.000000 0.058538 0.000000
# 6 0.000000 0.000000 0.000000 0.000000 0.000000 0.064669
#
#
# Mechanical properties :
#
#
# Convention : Reuss Voigt Hill
#
# Bulk Modulus (GPa) = 35.21999 50.54521 42.88260
# Shear Modulus (GPa) = 19.36290 22.86623 21.11457
#
# Velocity S-wave (km/s) = 3.26642 3.54964 3.41097
# Velocity P-wave (km/s) = 5.79941 6.68219 6.25639
#
# Compressibility (1/GPa) = 0.02839296
#
# Stress axis : x y z
#
# Youngs Moduli (GPa) = 95.48398 95.48398 37.37061
#
# Poissons Ratio (x) = 0.38505 0.10507
# Poissons Ratio (y) = 0.38505 0.10507
# Poissons Ratio (z) = 0.26847 0.26847
#
# Static dielectric constant tensor:
#      x y z
#    x 3.413310 0.000000 0.000000 
#    y 0.000000 3.413310 0.000000 
#    z 0.000000 0.000000 3.054740 
# 
# 
# High freq. dielectric constant tensor:
#      x y z
#    x 1.711000 0.000000 0.000000 
#    y 0.000000 1.711000 0.000000 
#    z 0.000000 0.000000 1.676400 
# 
# From -- ./inp_files/2174.got.cif
#   From: 2010.03.12/outbox.cif.g09.slc.cpg/sg109_2_cif.got.tgz:2174.got - 2010.04.14 01:55:16.
