data_PCOD8307364
_publ_section_title
;
Structure prediction by ZEFSAII (Michael W. Deem and Ramdas Pophale) SiO2 
 PCOD8307364
Probable space group: P 42 M C
;
_chemical_formula_sum "Si O2"
_cell_formula_units_Z 34
_cell_length_a 7.700798
_cell_length_b 7.700798
_cell_length_c 27.514203
_cell_angle_alpha 90.000000
_cell_angle_beta 90.000000
_cell_angle_gamma 90.000000
_cell_volume 1631.655241
_symmetry_space_group_name_H-M "P 42 M C"
_symmetry_group_IT_number 105
_symmetry_cell_setting 'tetragonal'
loop_
_space_group_symop_operation_xyz
x,y,z
-y,x,1/2+z
-x,-y,z
y,-x,1/2+z
-x,y,z
x,-y,z
-y,-x,1/2+z
y,x,1/2+z
loop_
_atom_site_type_symbol
_atom_site_label
_atom_site_fract_x
_atom_site_fract_y
_atom_site_fract_z
Si Si1 0.792930 0.302072 0.538860
Si Si2 0.190382 0.294864 0.433181
Si Si3 0.000000 0.307253 0.109340
Si Si4 0.000000 0.000000 0.684629
Si Si5 0.709930 0.000000 0.263394
Si Si6 0.309162 0.696593 0.830096
O O1 0.732799 0.500000 0.550136
O O2 0.727283 0.238909 0.485115
O O3 0.711890 0.173972 0.577880
O O4 0.000000 0.289849 0.540328
O O5 0.174770 0.500000 0.435673
O O6 0.298684 0.238527 0.385736
O O7 0.000000 0.211300 0.427085
O O8 0.000000 0.500000 0.131943
O O9 0.000000 0.171929 0.152697
O O10 0.000000 0.819255 0.714096
O O11 0.775991 0.831776 0.293507
O O12 0.500000 0.000000 0.254113
O O13 0.500000 0.789530 0.825405
O O14 0.332564 0.500000 0.814727
#
# Coordination Sequence:
#
# PCOD8307364 Si02
#       6
#     8   8   4   2   4   8
#     4   9  18  37  63  90 129 172 202 241 295 354
#     4   8  15  28  52  88 125 163 198 227 275 341
#     4  12  26  43  65  93 119 152 205 261 315 372
#     4  12  28  48  64  86 112 148 200 264 328 370
#     4  10  24  43  63  87 113 150 201 249 307 370
#     4   9  18  34  56  85 123 158 191 238 287 344
#
# _framework density 20.837736
#
# number of rings (size 3 to 8) (size 9 to 14) (size 15 to 20)
#    0.000    2.588    1.176    1.412    1.647    4.235 
#    0.000    4.706    0.000    0.000    0.000    0.000 
#    0.000    0.000    0.000    0.000    0.000    0.000 
#
# Total GULP energy -421203.214727 kJ/mol
# GULP energy per Si atom -12388.329845 kJ/mol
# Density = 2.079031 g / cm^3
# Si number density = 20.837736 Si / 1000 Ang^3
#
#
#
# Elastic Constant Matrix: (Units=GPa)
#
#
# Indices 1 2 3 4 5 6 
#
# 1 97.9574 35.6690 62.8585 0.0000 0.0000 0.0000
# 2 35.6690 97.9574 62.8585 0.0000 0.0000 0.0000
# 3 62.8585 62.8585 150.7112 0.0000 0.0000 0.0000
# 4 0.0000 0.0000 0.0000********** 0.0000 0.0000
# 5 0.0000 0.0000 0.0000 0.0000********** 0.0000
# 6 0.0000 0.0000 0.0000 0.0000 0.0000 10.1879
#
#
#
# Elastic Compliance Matrix: (Units=1/GPa)
#
#
# Indices 1 2 3 4 5 6 
#
# 1 0.014185 -0.001869 -0.005137 0.000000 0.000000 0.000000
# 2 -0.001869 0.014185 -0.005137 0.000000 0.000000 0.000000
# 3 -0.005137 -0.005137 0.010920 0.000000 0.000000 0.000000
# 4 0.000000 0.000000 0.000000 -0.000100 0.000000 0.000000
# 5 0.000000 0.000000 0.000000 0.000000 -0.000100 0.000000
# 6 0.000000 0.000000 0.000000 0.000000 0.000000 0.098155
#
#
# Mechanical properties :
#
#
# Convention : Reuss Voigt Hill
#
# Bulk Modulus (GPa) = 66.64283 74.37755 70.51019
# Shear Modulus (GPa) = 30.02389 -3991.09607 -1980.53609
#
# Velocity S-wave (km/s) = 3.79996 -43.81186 -30.86292
# Velocity P-wave (km/s) = 7.16269 50.23480 35.15843
#
# Compressibility (1/GPa) = 0.01500537
#
# Stress axis : x y z
#
# Youngs Moduli (GPa) = 70.49507 70.49507 91.57328
#
# Poissons Ratio (x) = 0.13175 0.47041
# Poissons Ratio (y) = 0.13175 0.47041
# Poissons Ratio (z) = 0.36213 0.36213
#
# Static dielectric constant tensor:
#      x y z
#    x 19.295800 0.000000 0.000000 
#    y 0.000000 19.295800 0.000000 
#    z 0.000000 0.000000 3.815440 
# 
# 
# High freq. dielectric constant tensor:
#      x y z
#    x 1.805340 0.000000 0.000000 
#    y 0.000000 1.805340 0.000000 
#    z 0.000000 0.000000 1.801790 
# 
# From -- ./inp_files/3521.got.cif
#   From: 2010.03.12/outbox.cif.g09.slc.cpg/sg105_2_cif.got.tgz:3521.got - 2010.04.14 01:45:32.
