data_PCOD8307508
_publ_section_title
;
Structure prediction by ZEFSAII (Michael W. Deem and Ramdas Pophale) SiO2 
 PCOD8307508
Probable space group: I 4 M M
;
_chemical_formula_sum "Si O2"
_cell_formula_units_Z 112
_cell_length_a 18.712001
_cell_length_b 18.712001
_cell_length_c 17.985173
_cell_angle_alpha 90.000000
_cell_angle_beta 90.000000
_cell_angle_gamma 90.000000
_cell_volume 6297.310155
_symmetry_space_group_name_H-M "I 4 M M"
_symmetry_group_IT_number 107
_symmetry_cell_setting 'tetragonal'
loop_
_space_group_symop_operation_xyz
x,y,z
-y,x,z
-x,-y,z
y,-x,z
-x,y,z
x,-y,z
-y,-x,z
y,x,z
1/2+x,1/2+y,1/2+z
1/2-y,1/2+x,1/2+z
1/2-x,1/2-y,1/2+z
1/2+y,1/2-x,1/2+z
1/2-x,1/2+y,1/2+z
1/2+x,1/2-y,1/2+z
1/2-y,1/2-x,1/2+z
1/2+y,1/2+x,1/2+z
loop_
_atom_site_type_symbol
_atom_site_label
_atom_site_fract_x
_atom_site_fract_y
_atom_site_fract_z
Si Si1 0.702430 0.917666 0.192730
Si Si2 0.079328 0.808545 0.609470
Si Si3 0.670419 0.083770 0.354898
Si Si4 0.842347 0.416782 0.468173
Si Si5 0.687437 0.577391 0.934253
Si Si6 0.297706 0.584432 0.557474
Si Si7 0.853430 0.583059 0.103931
O O1 0.701123 0.886276 0.276279
O O2 0.762545 0.887749 0.135560
O O3 0.623963 0.905749 0.159494
O O4 0.719013 0.000000 0.199219
O O5 0.136099 0.863902 0.645822
O O6 0.076682 0.820548 0.522022
O O7 0.104116 0.727789 0.625256
O O8 0.000000 0.822880 0.642867
O O9 0.606679 0.136002 0.383971
O O10 0.731902 0.095746 0.414971
O O11 0.646358 0.000000 0.349298
O O12 0.858401 0.500000 0.478308
O O13 0.759666 0.401571 0.490933
O O14 0.895795 0.371889 0.519984
O O15 0.666758 0.500000 0.901002
O O16 0.634530 0.634530 0.897208
O O17 0.317882 0.500000 0.560324
O O18 0.368866 0.631135 0.542167
O O19 0.866760 0.500000 0.114526
#
# Coordination Sequence:
#
# PCOD8307508 Si02
#       7
#    16  16  16  16  16  16  16
#     4   9  20  34  48  69 100 134 165 201 245 289
#     4   9  17  29  46  68  92 120 154 192 236 284
#     4  10  19  33  49  69 100 135 168 201 241 291
#     4  10  20  32  49  74 100 129 165 205 247 291
#     4   9  17  29  45  66  92 121 154 192 232 277
#     4   9  19  36  55  76 101 129 164 208 255 301
#     4  10  18  30  47  69  96 127 164 201 238 285
#
# _framework density 17.785371000000001
#
# number of rings (size 3 to 8) (size 9 to 14) (size 15 to 20)
#    0.000    2.571    1.429    1.714    0.000    6.429 
#    0.000    2.857    0.000    0.000    0.000    4.000 
#    0.000    0.000    0.000    6.286    0.000    0.143 
#
# Total GULP energy -693872.905731 kJ/mol
# GULP energy per Si atom -12390.587602 kJ/mol
# Density = 1.774489 g / cm^3
# Si number density = 17.785371 Si / 1000 Ang^3
#
#
#
# Elastic Constant Matrix: (Units=GPa)
#
#
# Indices 1 2 3 4 5 6 
#
# 1 53.8203 30.7413 18.3418 0.0000 0.0000 0.0000
# 2 30.7413 53.8203 18.3418 0.0000 0.0000 0.0000
# 3 18.3418 18.3418 52.1322 0.0000 0.0000 0.0000
# 4 0.0000 0.0000 0.0000 14.5415 0.0000 0.0000
# 5 0.0000 0.0000 0.0000 0.0000 14.5415 0.0000
# 6 0.0000 0.0000 0.0000 0.0000 0.0000 35.0575
#
#
#
# Elastic Compliance Matrix: (Units=1/GPa)
#
#
# Indices 1 2 3 4 5 6 
#
# 1 0.028643 -0.014687 -0.004910 0.000000 0.000000 0.000000
# 2 -0.014687 0.028643 -0.004910 0.000000 0.000000 0.000000
# 3 -0.004910 -0.004910 0.022637 0.000000 0.000000 0.000000
# 4 0.000000 0.000000 0.000000 0.068769 0.000000 0.000000
# 5 0.000000 0.000000 0.000000 0.000000 0.068769 0.000000
# 6 0.000000 0.000000 0.000000 0.000000 0.000000 0.028525
#
#
# Mechanical properties :
#
#
# Convention : Reuss Voigt Hill
#
# Bulk Modulus (GPa) = 32.35386 32.73584 32.54485
# Shear Modulus (GPa) = 16.37728 18.98463 17.68096
#
# Velocity S-wave (km/s) = 3.03781 3.27070 3.15640
# Velocity P-wave (km/s) = 5.52586 5.71920 5.62336
#
# Compressibility (1/GPa) = 0.03090821
#
# Stress axis : x y z
#
# Youngs Moduli (GPa) = 34.91298 34.91298 44.17542
#
# Poissons Ratio (x) = 0.51276 0.21690
# Poissons Ratio (y) = 0.51276 0.21690
# Poissons Ratio (z) = 0.17143 0.17142
#
# Static dielectric constant tensor:
#      x y z
#    x 3.330740 0.000000 0.000000 
#    y 0.000000 3.330740 0.000000 
#    z 0.000000 0.000000 3.195950 
# 
# 
# High freq. dielectric constant tensor:
#      x y z
#    x 1.682010 0.000000 0.000000 
#    y 0.000000 1.682010 0.000000 
#    z 0.000000 0.000000 1.656890 
# 
# From -- ./inp_files/4902.got.cif
#   From: 2010.03.12/outbox.cif.g09.slc.cpg/sg107_3_cif.got.tgz:4902.got - 2010.04.14 01:49:11.
