data_PCOD8307194
_publ_section_title
;
Structure prediction by ZEFSAII (Michael W. Deem and Ramdas Pophale) SiO2 
 PCOD8307194
Probable space group: P 42 M C
;
_chemical_formula_sum "Si O2"
_cell_formula_units_Z 48
_cell_length_a 9.389452
_cell_length_b 9.389452
_cell_length_c 30.729662
_cell_angle_alpha 90.000000
_cell_angle_beta 90.000000
_cell_angle_gamma 90.000000
_cell_volume 2709.182588
_symmetry_space_group_name_H-M "P 42 M C"
_symmetry_group_IT_number 105
_symmetry_cell_setting 'tetragonal'
loop_
_space_group_symop_operation_xyz
x,y,z
-y,x,1/2+z
-x,-y,z
y,-x,1/2+z
-x,y,z
x,-y,z
-y,-x,1/2+z
y,x,1/2+z
loop_
_atom_site_type_symbol
_atom_site_label
_atom_site_fract_x
_atom_site_fract_y
_atom_site_fract_z
Si Si1 0.833055 0.836028 0.027200
Si Si2 0.335980 0.668188 0.598987
Si Si3 0.664583 0.833384 0.277281
Si Si4 0.168953 0.842668 0.429852
Si Si5 0.336684 0.168695 0.849071
Si Si6 0.842731 0.331098 0.679956
O O1 0.742786 0.737705 0.058594
O O2 0.000000 0.816177 0.036298
O O3 0.788387 0.000000 0.034349
O O4 0.795080 0.784679 0.978229
O O5 0.500000 0.711972 0.599891
O O6 0.314530 0.500000 0.594084
O O7 0.267200 0.725711 0.643919
O O8 0.500000 0.792212 0.284422
O O9 0.761721 0.741652 0.308641
O O10 0.715347 0.794718 0.228292
O O11 0.688358 0.000000 0.286446
O O12 0.226259 0.732169 0.394010
O O13 0.000000 0.850273 0.428863
O O14 0.230657 0.000000 0.419194
O O15 0.500000 0.216449 0.849053
O O16 0.319700 0.000000 0.845080
O O17 0.850488 0.500000 0.679109
O O18 0.000000 0.269194 0.669377
#
# Coordination Sequence:
#
# PCOD8307194 Si02
#       6
#     8   8   8   8   8   8
#     4   9  18  33  53  75  96 122 161 204 243 287
#     4  10  20  32  48  73 102 130 160 195 240 293
#     4   9  18  33  53  75  97 125 165 207 244 287
#     4   8  15  30  51  71  92 123 163 203 241 283
#     4  10  20  32  48  74 105 132 160 197 243 294
#     4   8  15  30  51  72  94 124 165 208 243 280
#
# _framework density 17.71752
#
# number of rings (size 3 to 8) (size 9 to 14) (size 15 to 20)
#    0.000    3.000    0.000    3.000    0.000    4.000 
#    0.000    5.000    0.000    2.000    0.000    0.000 
#    0.000    0.000    0.000    0.000    0.000    0.000 
#
# Total GULP energy -595041.658440 kJ/mol
# GULP energy per Si atom -12396.701218 kJ/mol
# Density = 1.767719 g / cm^3
# Si number density = 17.717520 Si / 1000 Ang^3
#
#
#
# Elastic Constant Matrix: (Units=GPa)
#
#
# Indices 1 2 3 4 5 6 
#
# 1 71.0940 42.9129 69.0733 0.0000 0.0000 0.0000
# 2 42.9129 71.0940 69.0733 0.0000 0.0000 0.0000
# 3 69.0733 69.0733 165.5716 0.0000 0.0000 0.0000
# 4 0.0000 0.0000 0.0000 -27.8035 0.0000 0.0000
# 5 0.0000 0.0000 0.0000 0.0000 -27.8035 0.0000
# 6 0.0000 0.0000 0.0000 0.0000 0.0000 25.3124
#
#
#
# Elastic Compliance Matrix: (Units=1/GPa)
#
#
# Indices 1 2 3 4 5 6 
#
# 1 0.026612 -0.008873 -0.007400 0.000000 0.000000 0.000000
# 2 -0.008873 0.026612 -0.007400 0.000000 0.000000 0.000000
# 3 -0.007400 -0.007400 0.012214 0.000000 0.000000 0.000000
# 4 0.000000 0.000000 0.000000 -0.035967 0.000000 0.000000
# 5 0.000000 0.000000 0.000000 0.000000 -0.035967 0.000000
# 6 0.000000 0.000000 0.000000 0.000000 0.000000 0.039506
#
#
# Mechanical properties :
#
#
# Convention : Reuss Voigt Hill
#
# Bulk Modulus (GPa) = 55.27799 74.43097 64.85448
# Shear Modulus (GPa) = 57.87904 2.38776 30.13340
#
# Velocity S-wave (km/s) = 5.72177 1.16216 4.12851
# Velocity P-wave (km/s) = 8.65557 6.62585 7.70781
#
# Compressibility (1/GPa) = 0.01809038
#
# Stress axis : x y z
#
# Youngs Moduli (GPa) = 37.57763 37.57763 81.87278
#
# Poissons Ratio (x) = 0.33343 0.60587
# Poissons Ratio (y) = 0.33343 0.60587
# Poissons Ratio (z) = 0.27808 0.27808
#
# Static dielectric constant tensor:
#      x y z
#    x 3.629780 0.000000 0.000000 
#    y 0.000000 3.629780 0.000000 
#    z 0.000000 0.000000 3.567580 
# 
# 
# High freq. dielectric constant tensor:
#      x y z
#    x 1.664640 0.000000 0.000000 
#    y 0.000000 1.664640 0.000000 
#    z 0.000000 0.000000 1.700950 
# 
# From -- ./inp_files/4687.got.cif
#   From: 2010.03.12/outbox.cif.g09.slc.cpg/sg105_3_cif.got.tgz:4687.got - 2010.04.14 01:45:32.
