data_PCOD8307576
_publ_section_title
;
Structure prediction by ZEFSAII (Michael W. Deem and Ramdas Pophale) SiO2 
 PCOD8307576
Probable space group: I 4 M M
;
_chemical_formula_sum "Si O2"
_cell_formula_units_Z 112
_cell_length_a 18.664051
_cell_length_b 18.664051
_cell_length_c 18.258895
_cell_angle_alpha 90.000000
_cell_angle_beta 90.000000
_cell_angle_gamma 90.000000
_cell_volume 6360.427640
_symmetry_space_group_name_H-M "I 4 M M"
_symmetry_group_IT_number 107
_symmetry_cell_setting 'tetragonal'
loop_
_space_group_symop_operation_xyz
x,y,z
-y,x,z
-x,-y,z
y,-x,z
-x,y,z
x,-y,z
-y,-x,z
y,x,z
1/2+x,1/2+y,1/2+z
1/2-y,1/2+x,1/2+z
1/2-x,1/2-y,1/2+z
1/2+y,1/2-x,1/2+z
1/2-x,1/2+y,1/2+z
1/2+x,1/2-y,1/2+z
1/2-y,1/2-x,1/2+z
1/2+y,1/2+x,1/2+z
loop_
_atom_site_type_symbol
_atom_site_label
_atom_site_fract_x
_atom_site_fract_y
_atom_site_fract_z
Si Si1 0.688760 0.421996 0.288800
Si Si2 0.083217 0.339968 0.005395
Si Si3 0.301533 0.187563 0.621132
Si Si4 0.081786 0.692000 0.413779
Si Si5 0.311984 0.803732 0.288290
Si Si6 0.076582 0.814054 0.955605
Si Si7 0.799175 0.084492 0.543774
O O1 0.687290 0.500000 0.249644
O O2 0.632893 0.367108 0.248639
O O3 0.769275 0.391194 0.289100
O O4 0.663425 0.430831 0.371844
O O5 0.123121 0.325694 0.081678
O O6 0.000000 0.357775 0.019922
O O7 0.119215 0.403860 0.959517
O O8 0.096579 0.269152 0.957558
O O9 0.257295 0.257295 0.591649
O O10 0.324449 0.201973 0.704396
O O11 0.249622 0.118280 0.609084
O O12 0.127625 0.695248 0.339745
O O13 0.098556 0.759491 0.466205
O O14 0.000000 0.691718 0.388328
O O15 0.255680 0.744321 0.316719
O O16 0.137063 0.862938 0.994565
O O17 0.000000 0.826881 0.995824
O O18 0.876409 0.123592 0.540558
O O19 0.809963 0.000000 0.558603
#
# Coordination Sequence:
#
# PCOD8307576 Si02
#       7
#    16  16  16  16  16  16  16
#     4   9  17  28  44  67  94 123 154 187 224 271
#     4  10  19  32  50  70  94 126 162 201 242 284
#     4   9  19  33  50  72  98 128 161 198 239 286
#     4  10  20  33  51  73  97 126 161 204 247 289
#     4  10  19  32  51  73  97 128 162 196 239 289
#     4   9  16  26  43  67  93 123 155 186 224 270
#     4   9  18  33  52  75 100 127 159 196 241 291
#
# _framework density 17.608878000000001
#
# number of rings (size 3 to 8) (size 9 to 14) (size 15 to 20)
#    0.000    2.571    1.429    0.857    0.000    3.000 
#    0.000    1.429    0.000    0.000    0.000    8.000 
#    0.000    0.000    0.000   26.571    0.000    0.143 
#
# Total GULP energy -693963.812094 kJ/mol
# GULP energy per Si atom -12392.210930 kJ/mol
# Density = 1.756880 g / cm^3
# Si number density = 17.608878 Si / 1000 Ang^3
#
#
#
# Elastic Constant Matrix: (Units=GPa)
#
#
# Indices 1 2 3 4 5 6 
#
# 1 86.0949 38.5895 23.3395 0.0000 0.0000 -0.0006
# 2 38.5895 86.0949 23.3395 0.0000 0.0000 0.0006
# 3 23.3395 23.3395 62.2843 0.0000 0.0000 0.0000
# 4 0.0000 0.0000 0.0000 15.4200 0.0000 0.0000
# 5 0.0000 0.0000 0.0000 0.0000 15.4200 0.0000
# 6 -0.0006 0.0006 0.0000 0.0000 0.0000 21.4212
#
#
#
# Elastic Compliance Matrix: (Units=1/GPa)
#
#
# Indices 1 2 3 4 5 6 
#
# 1 0.015190 -0.005861 -0.003496 0.000000 0.000000 0.000001
# 2 -0.005861 0.015190 -0.003496 0.000000 0.000000 -0.000001
# 3 -0.003496 -0.003496 0.018675 0.000000 0.000000 0.000000
# 4 0.000000 0.000000 0.000000 0.064851 0.000000 0.000000
# 5 0.000000 0.000000 0.000000 0.000000 0.064851 0.000000
# 6 0.000001 -0.000001 0.000000 0.000000 0.000000 0.046683
#
#
# Mechanical properties :
#
#
# Convention : Reuss Voigt Hill
#
# Bulk Modulus (GPa) = 42.82638 45.00125 43.91381
# Shear Modulus (GPa) = 19.31046 20.39927 19.85487
#
# Velocity S-wave (km/s) = 3.31514 3.40732 3.36154
# Velocity P-wave (km/s) = 6.24718 6.41024 6.32923
#
# Compressibility (1/GPa) = 0.02335010
#
# Stress axis : x y z
#
# Youngs Moduli (GPa) = 65.83449 65.83449 53.54648
#
# Poissons Ratio (x) = 0.38583 0.18719
# Poissons Ratio (y) = 0.38583 0.18719
# Poissons Ratio (z) = 0.23015 0.23015
#
# Static dielectric constant tensor:
#      x y z
#    x 3.325720 0.000000 0.000000 
#    y 0.000000 3.325720 0.000000 
#    z 0.000000 0.000000 3.021060 
# 
# 
# High freq. dielectric constant tensor:
#      x y z
#    x 1.675960 0.000000 0.000000 
#    y 0.000000 1.675960 0.000000 
#    z 0.000000 0.000000 1.659050 
# 
# From -- ./inp_files/4903.got.cif
#   From: 2010.03.12/outbox.cif.g09.slc.cpg/sg107_3_cif.got.tgz:4903.got - 2010.04.14 01:49:11.
