data_PCOD8307164
_publ_section_title
;
Structure prediction by ZEFSAII (Michael W. Deem and Ramdas Pophale) SiO2 
 PCOD8307164
Probable space group: P 42 M C
;
_chemical_formula_sum "Si O2"
_cell_formula_units_Z 34
_cell_length_a 7.852944
_cell_length_b 7.852944
_cell_length_c 27.177224
_cell_angle_alpha 90.000000
_cell_angle_beta 90.000000
_cell_angle_gamma 90.000000
_cell_volume 1675.984875
_symmetry_space_group_name_H-M "P 42 M C"
_symmetry_group_IT_number 105
_symmetry_cell_setting 'tetragonal'
loop_
_space_group_symop_operation_xyz
x,y,z
-y,x,1/2+z
-x,-y,z
y,-x,1/2+z
-x,y,z
x,-y,z
-y,-x,1/2+z
y,x,1/2+z
loop_
_atom_site_type_symbol
_atom_site_label
_atom_site_fract_x
_atom_site_fract_y
_atom_site_fract_z
Si Si1 0.201927 0.190453 0.285230
Si Si2 0.796702 0.685364 0.389651
Si Si3 0.000000 0.811079 0.947420
Si Si4 0.000000 0.689249 0.615285
Si Si5 0.000000 0.000000 0.041522
Si Si6 0.800119 0.308407 0.180386
O O1 0.271582 0.279269 0.334519
O O2 0.261776 0.292548 0.236868
O O3 0.000000 0.186199 0.287233
O O4 0.275900 0.000000 0.282248
O O5 0.727319 0.500000 0.406153
O O6 0.720827 0.828297 0.427144
O O7 0.000000 0.683629 0.390961
O O8 0.000000 0.000000 0.923100
O O9 0.000000 0.829645 0.006963
O O10 0.000000 0.828944 0.572726
O O11 0.170244 0.704470 0.647546
O O12 0.000000 0.500000 0.591723
O O13 0.757624 0.500000 0.162133
O O14 0.000000 0.269409 0.176053
#
# Coordination Sequence:
#
# PCOD8307164 Si02
#       6
#     8   8   4   4   2   8
#     4   9  14  22  42  71 109 151 186 219 272 334
#     4   9  14  21  36  64 103 143 182 221 271 333
#     4   8  16  27  41  60  91 142 182 230 291 338
#     4  12  24  39  59  80 110 151 195 250 309 362
#     4  10  22  38  52  68 104 146 200 246 316 360
#     4  10  19  34  57  82 112 152 192 235 289 348
#
# _framework density 20.286577000000001
#
# number of rings (size 3 to 8) (size 9 to 14) (size 15 to 20)
#    0.353    2.118    3.529    0.706    0.000    4.235 
#    0.000    0.000    0.000    0.000    0.000    0.000 
#    0.000    7.529    0.000    9.882    1.882    0.000 
#
# Total GULP energy -421292.884633 kJ/mol
# GULP energy per Si atom -12390.967195 kJ/mol
# Density = 2.024040 g / cm^3
# Si number density = 20.286577 Si / 1000 Ang^3
#
#
#
# Elastic Constant Matrix: (Units=GPa)
#
#
# Indices 1 2 3 4 5 6 
#
# 1 111.7690 26.3467 47.3519 0.0000 0.0000 0.0000
# 2 26.3467 111.7690 47.3519 0.0000 0.0000 0.0000
# 3 47.3519 47.3519 132.8189 0.0000 0.0000 0.0000
# 4 0.0000 0.0000 0.0000 -5.0364 0.0000 0.0000
# 5 0.0000 0.0000 0.0000 0.0000 -5.0364 0.0000
# 6 0.0000 0.0000 0.0000 0.0000 0.0000 3.4436
#
#
#
# Elastic Compliance Matrix: (Units=1/GPa)
#
#
# Indices 1 2 3 4 5 6 
#
# 1 0.010645 -0.001062 -0.003416 0.000000 0.000000 0.000000
# 2 -0.001062 0.010645 -0.003416 0.000000 0.000000 0.000000
# 3 -0.003416 -0.003416 0.009965 0.000000 0.000000 0.000000
# 4 0.000000 0.000000 0.000000 -0.198555 0.000000 0.000000
# 5 0.000000 0.000000 0.000000 0.000000 -0.198555 0.000000
# 6 0.000000 0.000000 0.000000 0.000000 0.000000 0.290394
#
#
# Mechanical properties :
#
#
# Convention : Reuss Voigt Hill
#
# Bulk Modulus (GPa) = 64.66172 66.49534 65.57853
# Shear Modulus (GPa) = -91.71568 14.36125 -38.67722
#
# Velocity S-wave (km/s) = -6.73113 2.66356 -4.37113
# Velocity P-wave (km/s) = 5.33550 6.50450 2.63068
#
# Compressibility (1/GPa) = 0.01546510
#
# Stress axis : x y z
#
# Youngs Moduli (GPa) = 93.94318 93.94318 100.35041
#
# Poissons Ratio (x) = 0.09975 0.34284
# Poissons Ratio (y) = 0.09975 0.34284
# Poissons Ratio (z) = 0.32095 0.32095
#
# Static dielectric constant tensor:
#      x y z
#    x 3.501470 0.000000 0.000000 
#    y 0.000000 3.501470 0.000000 
#    z 0.000000 0.000000 3.518390 
# 
# 
# High freq. dielectric constant tensor:
#      x y z
#    x 1.769230 0.000000 0.000000 
#    y 0.000000 1.769230 0.000000 
#    z 0.000000 0.000000 1.769610 
# 
# From -- ./inp_files/4208.got.cif
#   From: 2010.03.12/outbox.cif.g09.slc.cpg/sg105_3_cif.got.tgz:4208.got - 2010.04.14 01:45:32.
