data_PCOD8307051
_publ_section_title
;
Structure prediction by ZEFSAII (Michael W. Deem and Ramdas Pophale) SiO2 
 PCOD8307051
Probable space group: P 4 N C 
;
_chemical_formula_sum "Si O2"
_cell_formula_units_Z 60
_cell_length_a 18.000035
_cell_length_b 18.000035
_cell_length_c 9.182260
_cell_angle_alpha 90.000000
_cell_angle_beta 90.000000
_cell_angle_gamma 90.000000
_cell_volume 2975.063810
_symmetry_space_group_name_H-M "P 4 N C "
_symmetry_group_IT_number 104
_symmetry_cell_setting 'tetragonal'
loop_
_space_group_symop_operation_xyz
x,y,z
-y,x,z
-x,-y,z
y,-x,z
1/2-x,1/2+y,1/2+z
1/2+x,1/2-y,1/2+z
1/2-y,1/2-x,1/2+z
1/2+y,1/2+x,1/2+z
loop_
_atom_site_type_symbol
_atom_site_label
_atom_site_fract_x
_atom_site_fract_y
_atom_site_fract_z
Si Si1 0.539288 0.329796 0.213200
Si Si2 0.717478 0.511489 0.633499
Si Si3 0.806758 0.642582 0.212230
Si Si4 0.382339 0.485125 0.894333
Si Si5 0.160940 0.092399 0.899982
Si Si6 0.387030 0.975624 0.146922
Si Si7 0.668057 0.258560 0.501266
Si Si8 0.000000 0.500000 0.394228
O O1 0.586407 0.257937 0.169549
O O2 0.580859 0.386242 0.326332
O O3 0.463191 0.299501 0.286596
O O4 0.517642 0.370216 0.066142
O O5 0.692498 0.522462 0.800463
O O6 0.663795 0.450646 0.555720
O O7 0.804617 0.489435 0.637818
O O8 0.707916 0.588536 0.547877
O O9 0.886279 0.614343 0.159020
O O10 0.807608 0.656553 0.384717
O O11 0.788057 0.722033 0.134856
O O12 0.436427 0.418184 0.851922
O O13 0.207218 0.169619 0.925711
O O14 0.428348 0.008090 0.289049
O O15 0.427577 0.996854 0.996494
#
# Coordination Sequence:
#
# PCOD8307051 Si02
#       8
#     8   8   8   8   8   8   8   4
#     4  11  23  39  65  90 129 175 215 266 331 399
#     4  11  22  40  64  92 124 168 219 262 328 389
#     4  10  21  39  66  91 119 171 218 263 319 393
#     4  11  24  39  58  95 131 166 214 269 313 376
#     4  11  21  42  61  94 128 166 218 263 327 402
#     4  10  22  40  67  91 125 161 217 271 321 401
#     4  10  22  39  63  95 120 166 219 271 316 393
#     4  10  22  40  62  98 122 154 208 278 338 374
#
# _framework density 20.167634
#
# number of rings (size 3 to 8) (size 9 to 14) (size 15 to 20)
#    0.000    1.467    4.000    2.400    5.600    0.267 
#    0.000    2.667    0.000    0.000    0.000    0.000 
#    0.000    0.000    0.000    0.000    0.000    0.000 
#
# Total GULP energy -743416.455056 kJ/mol
# GULP energy per Si atom -12390.274251 kJ/mol
# Density = 2.012173 g / cm^3
# Si number density = 20.167634 Si / 1000 Ang^3
#
#
#
# Elastic Constant Matrix: (Units=GPa)
#
#
# Indices 1 2 3 4 5 6 
#
# 1 110.4839 36.3860 51.8453 0.0000 0.0000 0.0000
# 2 36.3860 110.4839 51.8453 0.0000 0.0000 0.0000
# 3 51.8453 51.8453 136.9802 0.0000 0.0000 0.0000
# 4 0.0000 0.0000 0.0000 37.6772 0.0000 0.0000
# 5 0.0000 0.0000 0.0000 0.0000 37.6772 0.0000
# 6 0.0000 0.0000 0.0000 0.0000 0.0000 46.2894
#
#
#
# Elastic Compliance Matrix: (Units=1/GPa)
#
#
# Indices 1 2 3 4 5 6 
#
# 1 0.011394 -0.002102 -0.003517 0.000000 0.000000 0.000000
# 2 -0.002102 0.011394 -0.003517 0.000000 0.000000 0.000000
# 3 -0.003517 -0.003517 0.009962 0.000000 0.000000 0.000000
# 4 0.000000 0.000000 0.000000 0.026541 0.000000 0.000000
# 5 0.000000 0.000000 0.000000 0.000000 0.026541 0.000000
# 6 0.000000 0.000000 0.000000 0.000000 0.000000 0.021603
#
#
# Mechanical properties :
#
#
# Convention : Reuss Voigt Hill
#
# Bulk Modulus (GPa) = 69.06752 70.90014 69.98383
# Shear Modulus (GPa) = 38.30459 38.85351 38.57905
#
# Velocity S-wave (km/s) = 4.36284 4.39399 4.37844
# Velocity P-wave (km/s) = 7.72659 7.80862 7.76771
#
# Compressibility (1/GPa) = 0.01447859
#
# Stress axis : x y z
#
# Youngs Moduli (GPa) = 87.76841 87.76841 100.37729
#
# Poissons Ratio (x) = 0.18449 0.35300
# Poissons Ratio (y) = 0.18449 0.35300
# Poissons Ratio (z) = 0.30866 0.30866
#
# Static dielectric constant tensor:
#      x y z
#    x 3.598070 0.000000 0.000000 
#    y 0.000000 3.598070 0.000000 
#    z 0.000000 0.000000 3.847880 
# 
# 
# High freq. dielectric constant tensor:
#      x y z
#    x 1.770800 0.000000 0.000000 
#    y 0.000000 1.770800 0.000000 
#    z 0.000000 0.000000 1.811810 
# 
# From -- ./inp_files/651.got.cif
#   From: 2010.03.12/outbox.cif.g09.slc.cpg/sg104_cif.got.tgz:651.got - 2010.04.14 01:44:05.
