data_PCOD8307904
_publ_section_title
;
Structure prediction by ZEFSAII (Michael W. Deem and Ramdas Pophale) SiO2 
 PCOD8307904
Probable space group: I 41 M D
;
_chemical_formula_sum "Si O2"
_cell_formula_units_Z 112
_cell_length_a 15.013001
_cell_length_b 15.013001
_cell_length_c 27.094697
_cell_angle_alpha 90.000000
_cell_angle_beta 90.000000
_cell_angle_gamma 90.000000
_cell_volume 6106.879149
_symmetry_space_group_name_H-M "I 41 M D"
_symmetry_group_IT_number 109
_symmetry_cell_setting 'tetragonal'
loop_
_space_group_symop_operation_xyz
x,y,z
-y,1/2+x,1/4+z
-x,-y,z
y,1/2-x,1/4+z
-x,y,z
x,-y,z
-y,1/2-x,1/4+z
y,1/2+x,1/4+z
1/2+x,1/2+y,1/2+z
1/2-y,x,3/4+z
1/2-x,1/2-y,1/2+z
1/2+y,-x,3/4+z
1/2-x,1/2+y,1/2+z
1/2+x,1/2-y,1/2+z
1/2-y,-x,3/4+z
1/2+y,x,3/4+z
loop_
_atom_site_type_symbol
_atom_site_label
_atom_site_fract_x
_atom_site_fract_y
_atom_site_fract_z
Si Si1 0.102598 0.397402 0.389850
Si Si2 0.100458 0.732561 0.679576
Si Si3 0.600458 0.267439 0.350124
Si Si4 0.099969 0.203230 0.573477
Si Si5 0.398202 0.749118 0.966046
Si Si6 0.398202 0.249118 0.563654
Si Si7 0.099969 0.703229 0.956223
O O1 0.118840 0.500000 0.404649
O O2 0.131576 0.338040 0.436976
O O3 0.161960 0.368424 0.342724
O O4 0.000000 0.381160 0.375051
O O5 0.111758 0.732550 0.620412
O O6 0.163973 0.657225 0.700031
O O7 0.123405 0.828974 0.702954
O O8 0.000000 0.709412 0.695137
O O9 0.500000 0.290588 0.334563
O O10 0.623405 0.171026 0.326746
O O11 0.663973 0.342775 0.329669
O O12 0.611758 0.267450 0.409288
O O13 0.116373 0.263260 0.524674
O O14 0.000000 0.161786 0.572892
O O15 0.500000 0.727040 0.953652
O O16 0.500000 0.227040 0.576048
O O17 0.383627 0.263260 0.505026
O O18 0.000000 0.661786 0.956808
#
# Coordination Sequence:
#
# PCOD8307904 Si02
#       7
#    16  16  16  16  16  16  16
#     4   9  18  34  56  78  98 127 168 208 250 301
#     4  10  20  34  52  73 100 135 169 202 244 294
#     4  10  20  34  52  73 100 135 169 202 244 294
#     4   9  19  34  51  72 100 133 167 204 246 289
#     4  10  20  34  52  75 103 131 162 206 252 294
#     4  10  20  34  52  75 103 131 162 206 252 294
#     4   9  19  34  51  72 100 133 167 204 246 289
#
# _framework density 18.339974000000002
#
# number of rings (size 3 to 8) (size 9 to 14) (size 15 to 20)
#    0.000    2.429    0.000    2.571    0.000    3.429 
#    0.000    7.143    0.000   12.000    0.000    0.000 
#    0.000    0.000    0.000    0.000    0.000    0.000 
#
# Total GULP energy -694246.922083 kJ/mol
# GULP energy per Si atom -12397.266466 kJ/mol
# Density = 1.829823 g / cm^3
# Si number density = 18.339974 Si / 1000 Ang^3
#
#
#
# Elastic Constant Matrix: (Units=GPa)
#
#
# Indices 1 2 3 4 5 6 
#
# 1 79.1594 45.5483 52.3176 0.0000 0.0000 0.0000
# 2 45.5483 79.1594 52.3176 0.0000 0.0000 0.0000
# 3 52.3176 52.3176 137.9601 0.0000 0.0000 0.0000
# 4 0.0000 0.0000 0.0000 23.7918 0.0000 0.0000
# 5 0.0000 0.0000 0.0000 0.0000 23.7918 0.0000
# 6 0.0000 0.0000 0.0000 0.0000 0.0000 25.3326
#
#
#
# Elastic Compliance Matrix: (Units=1/GPa)
#
#
# Indices 1 2 3 4 5 6 
#
# 1 0.020756 -0.008996 -0.004460 0.000000 0.000000 0.000000
# 2 -0.008996 0.020756 -0.004460 0.000000 0.000000 0.000000
# 3 -0.004460 -0.004460 0.010631 0.000000 0.000000 0.000000
# 4 0.000000 0.000000 0.000000 0.042031 0.000000 0.000000
# 5 0.000000 0.000000 0.000000 0.000000 0.042031 0.000000
# 6 0.000000 0.000000 0.000000 0.000000 0.000000 0.039475
#
#
# Mechanical properties :
#
#
# Convention : Reuss Voigt Hill
#
# Bulk Modulus (GPa) = 61.30111 66.29400 63.79755
# Shear Modulus (GPa) = 23.04677 24.32294 23.68486
#
# Velocity S-wave (km/s) = 3.54876 3.64569 3.59755
# Velocity P-wave (km/s) = 7.09147 7.34487 7.21929
#
# Compressibility (1/GPa) = 0.01631292
#
# Stress axis : x y z
#
# Youngs Moduli (GPa) = 48.17777 48.17777 94.06330
#
# Poissons Ratio (x) = 0.43339 0.41952
# Poissons Ratio (y) = 0.43339 0.41952
# Poissons Ratio (z) = 0.21487 0.21487
#
# Static dielectric constant tensor:
#      x y z
#    x 3.354280 0.000000 0.000000 
#    y 0.000000 3.354280 0.000000 
#    z 0.000000 0.000000 3.761020 
# 
# 
# High freq. dielectric constant tensor:
#      x y z
#    x 1.701360 0.000000 0.000000 
#    y 0.000000 1.701360 0.000000 
#    z 0.000000 0.000000 1.725750 
# 
# From -- ./inp_files/5041.got.cif
#   From: 2010.03.12/outbox.cif.g09.slc.cpg/sg109_3_cif.got.tgz:5041.got - 2010.04.14 01:55:16.
