data_PCOD8307760
_publ_section_title
;
Structure prediction by ZEFSAII (Michael W. Deem and Ramdas Pophale) SiO2 
 PCOD8307760
Probable space group: I 4 C M
;
_chemical_formula_sum "Si O2"
_cell_formula_units_Z 60
_cell_length_a 14.998483
_cell_length_b 14.998483
_cell_length_c 15.309108
_cell_angle_alpha 90.000000
_cell_angle_beta 90.000000
_cell_angle_gamma 90.000000
_cell_volume 3443.852618
_symmetry_space_group_name_H-M "I 4 C M"
_symmetry_group_IT_number 108
_symmetry_cell_setting 'tetragonal'
loop_
_space_group_symop_operation_xyz
x,y,z
-y,x,z
-x,-y,z
y,-x,z
-x,y,1/2+z
x,-y,1/2+z
-y,-x,1/2+z
y,x,1/2+z
1/2+x,1/2+y,1/2+z
1/2-y,1/2+x,1/2+z
1/2-x,1/2-y,1/2+z
1/2+y,1/2-x,1/2+z
1/2-x,1/2+y,z
1/2+x,1/2-y,z
1/2-y,1/2-x,z
1/2+y,1/2+x,z
loop_
_atom_site_type_symbol
_atom_site_label
_atom_site_fract_x
_atom_site_fract_y
_atom_site_fract_z
Si Si1 0.352313 0.289523 0.310640
Si Si2 0.632340 0.132340 0.493298
Si Si3 0.500000 0.000000 0.589741
Si Si4 0.767769 0.267769 0.147561
Si Si5 0.372375 0.872375 0.197355
Si Si6 0.255194 0.950836 0.345239
O O1 0.273352 0.226649 0.351678
O O2 0.348729 0.275745 0.205086
O O3 0.333844 0.391744 0.336388
O O4 0.445836 0.266044 0.352166
O O5 0.691994 0.191994 0.559402
O O6 0.697523 0.073412 0.435215
O O7 0.563911 0.063911 0.535729
O O8 0.563724 0.936277 0.644449
O O9 0.690887 0.190887 0.135991
O O10 0.313611 0.934609 0.259456
#
# Coordination Sequence:
#
# PCOD8307760 Si02
#       6
#    16   8   4   8   8  16
#     4   9  19  37  58  76 105 151 180 221 270 336
#     4  11  22  33  49  87 113 140 182 234 282 332
#     4  12  24  28  52  90 108 138 196 238 276 314
#     4   8  18  37  55  73 116 144 176 217 287 334
#     4   9  20  37  54  81 107 152 180 222 279 348
#     4  10  20  36  57  77 109 144 188 219 282 329
#
# _framework density 17.422349000000001
#
# number of rings (size 3 to 8) (size 9 to 14) (size 15 to 20)
#    0.800    1.600    2.667    1.600    3.733    3.733 
#    0.000    0.000    0.000    0.000    0.000    3.733 
#    0.000    0.000    0.000    0.000    0.000    0.000 
#
# Total GULP energy -371672.744036 kJ/mol
# GULP energy per Si atom -12389.091468 kJ/mol
# Density = 1.738269 g / cm^3
# Si number density = 17.422349 Si / 1000 Ang^3
#
#
#
# Elastic Constant Matrix: (Units=GPa)
#
#
# Indices 1 2 3 4 5 6 
#
# 1 119.3404 28.1556 51.1785 0.0000 0.0000 0.0006
# 2 28.1556 119.3404 51.1785 0.0000 0.0000 -0.0006
# 3 51.1785 51.1785 101.0797 0.0000 0.0000 0.0000
# 4 0.0000 0.0000 0.0000 1.6901 0.0000 0.0000
# 5 0.0000 0.0000 0.0000 0.0000 1.6901 0.0000
# 6 0.0006 -0.0006 0.0000 0.0000 0.0000 31.2798
#
#
#
# Elastic Compliance Matrix: (Units=1/GPa)
#
#
# Indices 1 2 3 4 5 6 
#
# 1 0.010710 -0.000257 -0.005292 0.000000 0.000000 0.000000
# 2 -0.000257 0.010710 -0.005292 0.000000 0.000000 0.000000
# 3 -0.005292 -0.005292 0.015252 0.000000 0.000000 0.000000
# 4 0.000000 0.000000 0.000000 0.591667 -0.000001 0.000000
# 5 0.000000 0.000000 0.000000 -0.000001 0.591671 0.000000
# 6 0.000000 0.000000 0.000000 0.000000 0.000000 0.031969
#
#
# Mechanical properties :
#
#
# Convention : Reuss Voigt Hill
#
# Bulk Modulus (GPa) = 66.71921 66.75398 66.73659
# Shear Modulus (GPa) = 3.91035 20.88188 12.39611
#
# Velocity S-wave (km/s) = 1.49977 3.46579 2.67030
# Velocity P-wave (km/s) = 6.43253 7.37658 6.92067
#
# Compressibility (1/GPa) = 0.01498819
#
# Stress axis : x y z
#
# Youngs Moduli (GPa) = 93.37391 93.37392 65.56353
#
# Poissons Ratio (x) = 0.02401 0.34698
# Poissons Ratio (y) = 0.02401 0.34698
# Poissons Ratio (z) = 0.49416 0.49416
#
# Static dielectric constant tensor:
#      x y z
#    x 3.211680 0.000000 0.000000 
#    y 0.000000 3.211680 0.000000 
#    z 0.000000 0.000000 3.092880 
# 
# 
# High freq. dielectric constant tensor:
#      x y z
#    x 1.671650 0.000000 0.000000 
#    y 0.000000 1.671650 0.000000 
#    z 0.000000 0.000000 1.659760 
# 
# From -- ./inp_files/1813.got.cif
#   From: 2010.03.12/outbox.cif.g09.slc.cpg/sg108_1_cif.got.tgz:1813.got - 2010.04.14 01:53:11.
