data_PCOD8307377
_publ_section_title
;
Structure prediction by ZEFSAII (Michael W. Deem and Ramdas Pophale) SiO2 
 PCOD8307377
Probable space group: P 42 M C
;
_chemical_formula_sum "Si O2"
_cell_formula_units_Z 40
_cell_length_a 9.261286
_cell_length_b 9.261286
_cell_length_c 26.155239
_cell_angle_alpha 90.000000
_cell_angle_beta 90.000000
_cell_angle_gamma 90.000000
_cell_volume 2243.371947
_symmetry_space_group_name_H-M "P 42 M C"
_symmetry_group_IT_number 105
_symmetry_cell_setting 'tetragonal'
loop_
_space_group_symop_operation_xyz
x,y,z
-y,x,1/2+z
-x,-y,z
y,-x,1/2+z
-x,y,z
x,-y,z
-y,-x,1/2+z
y,x,1/2+z
loop_
_atom_site_type_symbol
_atom_site_label
_atom_site_fract_x
_atom_site_fract_y
_atom_site_fract_z
Si Si1 0.327723 0.162661 0.841780
Si Si2 0.162662 0.327723 0.145964
Si Si3 0.663323 0.327894 0.243872
Si Si4 0.661110 0.672018 0.049986
Si Si5 0.327982 0.338890 0.937758
O O1 0.500000 0.162905 0.841886
O O2 0.269058 0.254284 0.793863
O O3 0.267229 0.233262 0.894003
O O4 0.268121 0.000000 0.837666
O O5 0.162907 0.500000 0.145858
O O6 0.254284 0.269058 0.193881
O O7 0.233262 0.267229 0.093741
O O8 0.000000 0.268122 0.150078
O O9 0.500000 0.268041 0.243872
O O10 0.662341 0.500000 0.243872
O O11 0.500000 0.733461 0.059845
O O12 0.655055 0.500000 0.051651
O O13 0.719414 0.719415 0.993872
O O14 0.500000 0.344945 0.936092
O O15 0.266540 0.500000 0.927899
#
# Coordination Sequence:
#
# PCOD8307377 Si02
#       5
#     8   8   8   8   8
#     4   9  15  21  29  43  64  89 119 158 201 238
#     4   9  15  21  29  43  64  89 119 158 201 238
#     4   9  15  21  29  41  61  93 130 161 190 233
#     4   8  13  21  32  44  59  84 120 157 191 233
#     4   8  13  21  32  44  59  84 120 157 191 233
#
# _framework density 17.830302
#
# number of rings (size 3 to 8) (size 9 to 14) (size 15 to 20)
#    0.000    3.400    0.000    3.000    0.000    7.200 
#    0.000    0.000    0.000    0.000    0.000    0.000 
#    0.000    0.800    0.000    1.800    0.000   44.400 
#
# Total GULP energy -495739.195527 kJ/mol
# GULP energy per Si atom -12393.479888 kJ/mol
# Density = 1.778972 g / cm^3
# Si number density = 17.830302 Si / 1000 Ang^3
#
#
#
# Elastic Constant Matrix: (Units=GPa)
#
#
# Indices 1 2 3 4 5 6 
#
# 1 69.9481 16.6050 57.3301 0.0000 0.0000 0.0000
# 2 16.6050 69.9481 57.3301 0.0000 0.0000 0.0000
# 3 57.3301 57.3301 202.0225 0.0000 0.0000 0.0000
# 4 0.0000 0.0000 0.0000 4.3503 0.0000 0.0000
# 5 0.0000 0.0000 0.0000 0.0000 4.3503 0.0000
# 6 0.0000 0.0000 0.0000 0.0000 0.0000 2.2202
#
#
#
# Elastic Compliance Matrix: (Units=1/GPa)
#
#
# Indices 1 2 3 4 5 6 
#
# 1 0.018630 -0.000117 -0.005254 0.000000 0.000000 0.000000
# 2 -0.000117 0.018630 -0.005254 0.000000 0.000000 0.000000
# 3 -0.005254 -0.005254 0.007932 0.000000 0.000000 0.000000
# 4 0.000000 0.000000 0.000000 0.229872 0.000000 0.000000
# 5 0.000000 0.000000 0.000000 0.000000 0.229872 0.000000
# 6 0.000000 0.000000 0.000000 0.000000 0.000000 0.450406
#
#
# Mechanical properties :
#
#
# Convention : Reuss Voigt Hill
#
# Bulk Modulus (GPa) = 41.76476 67.16099 54.46288
# Shear Modulus (GPa) = 5.07836 16.22772 10.65304
#
# Velocity S-wave (km/s) = 1.68948 3.02009 2.44697
# Velocity P-wave (km/s) = 5.22304 7.06469 6.21249
#
# Compressibility (1/GPa) = 0.02394363
#
# Stress axis : x y z
#
# Youngs Moduli (GPa) = 53.67688 53.67688 126.07525
#
# Poissons Ratio (x) = 0.00626 0.66237
# Poissons Ratio (y) = 0.00626 0.66237
# Poissons Ratio (z) = 0.28201 0.28201
#
# Static dielectric constant tensor:
#      x y z
#    x 2.880060 0.000000 0.000000 
#    y 0.000000 2.880060 0.000000 
#    z 0.000000 0.000000 3.739740 
# 
# 
# High freq. dielectric constant tensor:
#      x y z
#    x 1.630660 0.000000 0.000000 
#    y 0.000000 1.630660 0.000000 
#    z 0.000000 0.000000 1.714470 
# 
# From -- ./inp_files/4231.got.cif
#   From: 2010.03.12/outbox.cif.g09.slc.cpg/sg105_3_cif.got.tgz:4231.got - 2010.04.14 01:45:32.
