data_PCOD8307769
_publ_section_title
;
Structure prediction by ZEFSAII (Michael W. Deem and Ramdas Pophale) SiO2 
 PCOD8307769
Probable space group: I 4 C M
;
_chemical_formula_sum "Si O2"
_cell_formula_units_Z 96
_cell_length_a 26.054305
_cell_length_b 26.054305
_cell_length_c 10.172772
_cell_angle_alpha 90.000000
_cell_angle_beta 90.000000
_cell_angle_gamma 90.000000
_cell_volume 6905.550356
_symmetry_space_group_name_H-M "I 4 C M"
_symmetry_group_IT_number 108
_symmetry_cell_setting 'tetragonal'
loop_
_space_group_symop_operation_xyz
x,y,z
-y,x,z
-x,-y,z
y,-x,z
-x,y,1/2+z
x,-y,1/2+z
-y,-x,1/2+z
y,x,1/2+z
1/2+x,1/2+y,1/2+z
1/2-y,1/2+x,1/2+z
1/2-x,1/2-y,1/2+z
1/2+y,1/2-x,1/2+z
1/2-x,1/2+y,z
1/2+x,1/2-y,z
1/2-y,1/2-x,z
1/2+y,1/2+x,z
loop_
_atom_site_type_symbol
_atom_site_label
_atom_site_fract_x
_atom_site_fract_y
_atom_site_fract_z
Si Si1 0.762412 0.175900 0.550980
Si Si2 0.789118 0.375479 0.822428
Si Si3 0.710882 0.124520 0.779529
Si Si4 0.844136 0.257569 0.550979
Si Si5 0.631357 0.954569 0.200920
Si Si6 0.868642 0.545432 0.401034
O O1 0.720031 0.220031 0.550982
O O2 0.755914 0.140337 0.422718
O O3 0.755915 0.140336 0.679240
O O4 0.818780 0.201053 0.550979
O O5 0.832580 0.332580 0.825738
O O6 0.764432 0.380180 0.678025
O O7 0.813854 0.429493 0.864552
O O8 0.667421 0.167421 0.776216
O O9 0.686145 0.070507 0.737405
O O10 0.735567 0.119820 0.923932
O O11 0.799438 0.299438 0.550980
O O12 0.586585 0.913416 0.217200
O O13 0.619092 0.000001 0.300975
O O14 0.633352 0.975184 0.050976
O O15 0.913414 0.586587 0.384751
#
# Coordination Sequence:
#
# PCOD8307769 Si02
#       6
#    16  16  16  16  16  16
#     4   9  14  24  39  56  81 105 122 143 179 230
#     4   9  16  27  40  57  80 101 122 153 193 237
#     4   9  16  27  40  57  80 101 122 153 193 237
#     4   9  16  22  37  62  81 101 124 143 175 230
#     4  10  21  35  48  60  75  98 129 171 221 262
#     4  10  21  35  48  60  75  98 129 171 221 262
#
# _framework density 13.901859999999999
#
# number of rings (size 3 to 8) (size 9 to 14) (size 15 to 20)
#    0.000    2.667    1.667    1.000    2.333    5.000 
#    0.000    1.667    0.000    0.000    0.000    0.000 
#    0.000    0.000    0.000    0.000    0.000    0.000 
#
# Total GULP energy -595056.309089 kJ/mol
# GULP energy per Si atom -12397.006439 kJ/mol
# Density = 1.387022 g / cm^3
# Si number density = 13.901860 Si / 1000 Ang^3
#
#
#
# Elastic Constant Matrix: (Units=GPa)
#
#
# Indices 1 2 3 4 5 6 
#
# 1 29.6046 29.2506 37.2150 0.0000 0.0000 0.0000
# 2 29.2506 29.6046 37.2150 0.0000 0.0000 0.0000
# 3 37.2150 37.2150 146.1114 0.0000 0.0000 0.0000
# 4 0.0000 0.0000 0.0000 21.2780 0.0000 0.0000
# 5 0.0000 0.0000 0.0000 0.0000 21.2780 0.0000
# 6 0.0000 0.0000 0.0000 0.0000 0.0000 8.5119
#
#
#
# Elastic Compliance Matrix: (Units=1/GPa)
#
#
# Indices 1 2 3 4 5 6 
#
# 1 1.425039 -1.399975 -0.006384 0.000000 0.000000 0.000000
# 2 -1.399975 1.425039 -0.006384 0.000000 0.000000 0.000000
# 3 -0.006384 -0.006384 0.010096 0.000000 0.000000 0.000000
# 4 0.000000 0.000000 0.000000 0.046997 0.000000 0.000000
# 5 0.000000 0.000000 0.000000 0.000000 0.046997 0.000000
# 6 0.000000 0.000000 0.000000 0.000000 0.000000 0.117482
#
#
# Mechanical properties :
#
#
# Convention : Reuss Voigt Hill
#
# Bulk Modulus (GPa) = 28.82778 45.85354 37.34066
# Shear Modulus (GPa) = 0.84621 16.98958 8.91789
#
# Velocity S-wave (km/s) = 0.78104 3.49966 2.53551
# Velocity P-wave (km/s) = 4.64704 7.02748 5.95737
#
# Compressibility (1/GPa) = 0.03468876
#
# Stress axis : x y z
#
# Youngs Moduli (GPa) = 0.70174 0.70174 99.04814
#
# Poissons Ratio (x) = 0.98241 0.63232
# Poissons Ratio (y) = 0.98241 0.63232
# Poissons Ratio (z) = 0.00448 0.00448
#
# Static dielectric constant tensor:
#      x y z
#    x 2.492210 0.000000 0.000000 
#    y 0.000000 2.492210 0.000000 
#    z 0.000000 0.000000 3.033770 
# 
# 
# High freq. dielectric constant tensor:
#      x y z
#    x 1.486670 0.000000 0.000000 
#    y 0.000000 1.486670 0.000000 
#    z 0.000000 0.000000 1.556470 
# 
# From -- ./inp_files/850.got.cif
#   From: 2010.03.12/outbox.cif.g09.slc.cpg/sg108_1_cif.got.tgz:850.got - 2010.04.14 01:53:11.
