data_PCOD8307277
_publ_section_title
;
Structure prediction by ZEFSAII (Michael W. Deem and Ramdas Pophale) SiO2 
 PCOD8307277
Probable space group: P 42 M C
;
_chemical_formula_sum "Si O2"
_cell_formula_units_Z 32
_cell_length_a 7.925682
_cell_length_b 7.925682
_cell_length_c 23.832882
_cell_angle_alpha 90.000000
_cell_angle_beta 90.000000
_cell_angle_gamma 90.000000
_cell_volume 1497.096687
_symmetry_space_group_name_H-M "P 42 M C"
_symmetry_group_IT_number 105
_symmetry_cell_setting 'tetragonal'
loop_
_space_group_symop_operation_xyz
x,y,z
-y,x,1/2+z
-x,-y,z
y,-x,1/2+z
-x,y,z
x,-y,z
-y,-x,1/2+z
y,x,1/2+z
loop_
_atom_site_type_symbol
_atom_site_label
_atom_site_fract_x
_atom_site_fract_y
_atom_site_fract_z
Si Si1 0.691938 0.693588 0.442270
Si Si2 0.691759 0.000000 0.136091
Si Si3 0.000000 0.812092 0.514832
Si Si4 0.298621 0.685225 0.203543
Si Si5 0.812416 0.301042 0.821597
O O1 0.500000 0.765254 0.451468
O O2 0.696614 0.500000 0.459948
O O3 0.829068 0.788760 0.479580
O O4 0.747824 0.710632 0.377535
O O5 0.693597 0.000000 0.068993
O O6 0.775227 0.170518 0.161825
O O7 0.500000 0.000000 0.156723
O O8 0.000000 0.000000 0.538462
O O9 0.500000 0.685310 0.202504
O O10 0.232334 0.500000 0.184541
O O11 0.229741 0.719503 0.266508
O O12 0.824124 0.500000 0.815875
O O13 0.000000 0.223217 0.825550
#
# Coordination Sequence:
#
# PCOD8307277 Si02
#       5
#     8   4   4   8   8
#     4  10  21  38  62  91 121 156 203 259 312 366
#     4  10  20  36  56  80 110 150 198 255 304 357
#     4  12  26  42  60  82 120 166 208 251 310 371
#     4   9  16  28  51  83 114 148 195 249 306 363
#     4   9  15  27  51  85 123 156 189 238 301 367
#
# _framework density 21.374707000000001
#
# number of rings (size 3 to 8) (size 9 to 14) (size 15 to 20)
#    0.000    2.250    1.250    2.625    0.000    5.500 
#    0.000    2.500    2.750    0.000    0.000    0.000 
#    0.000    0.000    0.000    0.000    0.000    0.000 
#
# Total GULP energy -396605.669074 kJ/mol
# GULP energy per Si atom -12393.927159 kJ/mol
# Density = 2.132606 g / cm^3
# Si number density = 21.374707 Si / 1000 Ang^3
#
#
#
# Elastic Constant Matrix: (Units=GPa)
#
#
# Indices 1 2 3 4 5 6 
#
# 1 96.0467 25.4345 36.4233 0.0000 0.0000 0.0000
# 2 25.4345 96.0467 36.4233 0.0000 0.0000 0.0000
# 3 36.4233 36.4233 133.6036 0.0000 0.0000 0.0000
# 4 0.0000 0.0000 0.0000 6.4731 0.0000 0.0000
# 5 0.0000 0.0000 0.0000 0.0000 6.4731 0.0000
# 6 0.0000 0.0000 0.0000 0.0000 0.0000 11.3634
#
#
#
# Elastic Compliance Matrix: (Units=1/GPa)
#
#
# Indices 1 2 3 4 5 6 
#
# 1 0.012001 -0.002161 -0.002683 0.000000 0.000000 0.000000
# 2 -0.002161 0.012001 -0.002683 0.000000 0.000000 0.000000
# 3 -0.002683 -0.002683 0.008948 0.000000 0.000000 0.000000
# 4 0.000000 0.000000 0.000000 0.154485 0.000000 0.000000
# 5 0.000000 0.000000 0.000000 0.000000 0.154485 0.000000
# 6 0.000000 0.000000 0.000000 0.000000 0.000000 0.088002
#
#
# Mechanical properties :
#
#
# Convention : Reuss Voigt Hill
#
# Bulk Modulus (GPa) = 55.87359 58.02880 56.95120
# Shear Modulus (GPa) = 11.08797 20.02299 15.55548
#
# Velocity S-wave (km/s) = 2.28006 3.06398 2.70061
# Velocity P-wave (km/s) = 5.75573 6.30274 6.03543
#
# Compressibility (1/GPa) = 0.01789754
#
# Stress axis : x y z
#
# Youngs Moduli (GPa) = 83.32541 83.32541 111.76227
#
# Poissons Ratio (x) = 0.18004 0.29983
# Poissons Ratio (y) = 0.18004 0.29983
# Poissons Ratio (z) = 0.22354 0.22354
#
# Static dielectric constant tensor:
#      x y z
#    x 3.764540 0.000000 0.000000 
#    y 0.000000 3.764540 0.000000 
#    z 0.000000 0.000000 3.723390 
# 
# 
# High freq. dielectric constant tensor:
#      x y z
#    x 1.821620 0.000000 0.000000 
#    y 0.000000 1.821620 0.000000 
#    z 0.000000 0.000000 1.830980 
# 
# From -- ./inp_files/3850.got.cif
#   From: 2010.03.12/outbox.cif.g09.slc.cpg/sg105_2_cif.got.tgz:3850.got - 2010.04.14 01:45:32.
