data_PCOD8307874
_publ_section_title
;
Structure prediction by ZEFSAII (Michael W. Deem and Ramdas Pophale) SiO2 
 PCOD8307874
Probable space group: I 41 M D
;
_chemical_formula_sum "Si O2"
_cell_formula_units_Z 96
_cell_length_a 26.769203
_cell_length_b 26.769203
_cell_length_c 7.504557
_cell_angle_alpha 90.000000
_cell_angle_beta 90.000000
_cell_angle_gamma 90.000000
_cell_volume 5377.692221
_symmetry_space_group_name_H-M "I 41 M D"
_symmetry_group_IT_number 109
_symmetry_cell_setting 'tetragonal'
loop_
_space_group_symop_operation_xyz
x,y,z
-y,1/2+x,1/4+z
-x,-y,z
y,1/2-x,1/4+z
-x,y,z
x,-y,z
-y,1/2-x,1/4+z
y,1/2+x,1/4+z
1/2+x,1/2+y,1/2+z
1/2-y,x,3/4+z
1/2-x,1/2-y,1/2+z
1/2+y,-x,3/4+z
1/2-x,1/2+y,1/2+z
1/2+x,1/2-y,1/2+z
1/2-y,-x,3/4+z
1/2+y,x,3/4+z
loop_
_atom_site_type_symbol
_atom_site_label
_atom_site_fract_x
_atom_site_fract_y
_atom_site_fract_z
Si Si1 0.728160 0.942506 0.007660
Si Si2 0.710345 0.440574 0.181375
Si Si3 0.940281 0.210990 0.645349
Si Si4 0.613566 0.942119 0.941262
Si Si5 0.608464 0.942724 0.552444
Si Si6 0.442661 0.106939 0.263998
O O1 0.727592 0.917450 0.203658
O O2 0.742386 0.000000 0.029376
O O3 0.770070 0.919010 0.873038
O O4 0.673022 0.936604 0.926774
O O5 0.711013 0.500000 0.189511
O O6 0.748624 0.421132 0.034142
O O7 0.656116 0.421867 0.117360
O O8 0.918557 0.157345 0.707801
O O9 0.000000 0.207485 0.629522
O O10 0.594355 0.921872 0.748928
O O11 0.598587 0.000000 0.982623
O O12 0.589723 0.906392 0.090529
O O13 0.562578 0.935639 0.415549
O O14 0.620480 0.000000 0.587396
O O15 0.500000 0.112514 0.203526
#
# Coordination Sequence:
#
# PCOD8307874 Si02
#       6
#    16  16  16  16  16  16
#     4   9  15  27  50  72  87 118 169 213 249 287
#     4   9  18  31  46  69  98 125 157 208 263 302
#     4   9  15  27  50  72  87 116 166 215 253 288
#     4  10  19  32  51  71  95 136 184 215 237 290
#     4  10  19  32  51  71  95 134 181 216 239 287
#     4  11  23  34  45  70 111 142 162 202 264 315
#
# _framework density 17.851524999999999
#
# number of rings (size 3 to 8) (size 9 to 14) (size 15 to 20)
#    0.000    2.333    3.333    0.500    0.000    3.333 
#    0.000    5.000    0.000    0.000    0.000    0.000 
#    0.000    2.667    0.000    0.000    0.000    0.000 
#
# Total GULP energy -594646.944796 kJ/mol
# GULP energy per Si atom -12388.478017 kJ/mol
# Density = 1.781089 g / cm^3
# Si number density = 17.851525 Si / 1000 Ang^3
#
#
#
# Elastic Constant Matrix: (Units=GPa)
#
#
# Indices 1 2 3 4 5 6 
#
# 1 39.6254 26.0940 37.9387 0.0000 0.0000 0.0000
# 2 26.0940 39.6254 37.9387 0.0000 0.0000 0.0000
# 3 37.9387 37.9387 167.7098 0.0000 0.0000 0.0000
# 4 0.0000 0.0000 0.0000 24.8934 0.0000 0.0000
# 5 0.0000 0.0000 0.0000 0.0000 24.8934 0.0000
# 6 0.0000 0.0000 0.0000 0.0000 0.0000 3.7259
#
#
#
# Elastic Compliance Matrix: (Units=1/GPa)
#
#
# Indices 1 2 3 4 5 6 
#
# 1 0.047249 -0.026654 -0.004659 0.000000 0.000000 0.000000
# 2 -0.026654 0.047249 -0.004659 0.000000 0.000000 0.000000
# 3 -0.004659 -0.004659 0.008071 0.000000 0.000000 0.000000
# 4 0.000000 0.000000 0.000000 0.040171 0.000000 0.000000
# 5 0.000000 0.000000 0.000000 0.000000 0.040171 0.000000
# 6 0.000000 0.000000 0.000000 0.000000 0.000000 0.268393
#
#
# Mechanical properties :
#
#
# Convention : Reuss Voigt Hill
#
# Bulk Modulus (GPa) = 32.65285 50.10039 41.37662
# Shear Modulus (GPa) = 9.37286 20.36849 14.87068
#
# Velocity S-wave (km/s) = 2.29387 3.38153 2.88934
# Velocity P-wave (km/s) = 5.03457 6.58576 5.86170
#
# Compressibility (1/GPa) = 0.03062520
#
# Stress axis : x y z
#
# Youngs Moduli (GPa) = 21.16454 21.16454 123.90714
#
# Poissons Ratio (x) = 0.56411 0.57728
# Poissons Ratio (y) = 0.56411 0.57728
# Poissons Ratio (z) = 0.09861 0.09861
#
# Static dielectric constant tensor:
#      x y z
#    x 3.010240 0.000000 0.000000 
#    y 0.000000 3.010240 0.000000 
#    z 0.000000 0.000000 3.754180 
# 
# 
# High freq. dielectric constant tensor:
#      x y z
#    x 1.644260 0.000000 0.000000 
#    y 0.000000 1.644260 0.000000 
#    z 0.000000 0.000000 1.722630 
# 
# From -- ./inp_files/1501.got.cif
#   From: 2010.03.12/outbox.cif.g09.slc.cpg/sg109_1_cif.got.tgz:1501.got - 2010.04.14 01:55:16.
