data_PCOD8307367
_publ_section_title
;
Structure prediction by ZEFSAII (Michael W. Deem and Ramdas Pophale) SiO2 
 PCOD8307367
Probable space group: P 42 M C
;
_chemical_formula_sum "Si O2"
_cell_formula_units_Z 40
_cell_length_a 14.461399
_cell_length_b 14.461399
_cell_length_c 9.314209
_cell_angle_alpha 90.000000
_cell_angle_beta 90.000000
_cell_angle_gamma 90.000000
_cell_volume 1947.899725
_symmetry_space_group_name_H-M "P 42 M C"
_symmetry_group_IT_number 105
_symmetry_cell_setting 'tetragonal'
loop_
_space_group_symop_operation_xyz
x,y,z
-y,x,1/2+z
-x,-y,z
y,-x,1/2+z
-x,y,z
x,-y,z
-y,-x,1/2+z
y,x,1/2+z
loop_
_atom_site_type_symbol
_atom_site_label
_atom_site_fract_x
_atom_site_fract_y
_atom_site_fract_z
Si Si1 0.655657 0.728173 0.034550
Si Si2 0.893236 0.102307 0.630229
Si Si3 0.398018 0.898018 0.206768
Si Si4 0.228172 0.155658 0.378983
Si Si5 0.606764 0.397693 0.283304
O O1 0.611735 0.826916 0.074147
O O2 0.664586 0.673025 0.184753
O O3 0.749999 0.750000 0.956766
O O4 0.594581 0.661970 0.933474
O O5 0.835414 0.173025 0.728780
O O6 0.838031 0.094582 0.480059
O O7 0.000000 0.136159 0.608329
O O8 0.893686 0.000000 0.698824
O O9 0.500000 0.885757 0.274554
O O10 0.326916 0.888264 0.339388
O O11 0.385757 0.000000 0.138982
O O12 0.500000 0.363842 0.305206
O O13 0.606314 0.500000 0.214708
#
# Coordination Sequence:
#
# PCOD8307367 Si02
#       5
#     8   8   8   8   8
#     4  12  23  40  62  93 127 166 208 255 311 372
#     4  11  23  40  65  95 128 162 202 262 323 373
#     4  11  24  42  64  88 124 173 216 256 304 371
#     4  12  23  40  62  93 127 166 208 255 311 372
#     4  11  23  40  65  95 128 162 202 262 323 373
#
# _framework density 20.534939000000001
#
# number of rings (size 3 to 8) (size 9 to 14) (size 15 to 20)
#    0.000    0.600    4.000    4.800    0.000    4.800 
#    0.000    0.000    0.000    0.000    0.000    5.600 
#    0.000    0.000    0.000    0.000    0.000    0.000 
#
# Total GULP energy -495760.168937 kJ/mol
# GULP energy per Si atom -12394.004223 kJ/mol
# Density = 2.048820 g / cm^3
# Si number density = 20.534939 Si / 1000 Ang^3
#
#
#
# Elastic Constant Matrix: (Units=GPa)
#
#
# Indices 1 2 3 4 5 6 
#
# 1 153.1607 49.1634 53.5748 0.0000 0.0000 0.0000
# 2 49.1634 153.1607 53.5748 0.0000 0.0000 0.0000
# 3 53.5748 53.5748 103.3886 0.0000 0.0000 0.0000
# 4 0.0000 0.0000 0.0000 34.3819 0.0000 0.0000
# 5 0.0000 0.0000 0.0000 0.0000 34.3819 0.0000
# 6 0.0000 0.0000 0.0000 0.0000 0.0000 23.8737
#
#
#
# Elastic Compliance Matrix: (Units=1/GPa)
#
#
# Indices 1 2 3 4 5 6 
#
# 1 0.008214 -0.001402 -0.003530 0.000000 0.000000 0.000000
# 2 -0.001402 0.008214 -0.003530 0.000000 0.000000 0.000000
# 3 -0.003530 -0.003530 0.013331 0.000000 0.000000 0.000000
# 4 0.000000 0.000000 0.000000 0.029085 0.000000 0.000000
# 5 0.000000 0.000000 0.000000 0.000000 0.029085 0.000000
# 6 0.000000 0.000000 0.000000 0.000000 0.000000 0.041887
#
#
# Mechanical properties :
#
#
# Convention : Reuss Voigt Hill
#
# Bulk Modulus (GPa) = 77.91231 80.25953 79.08592
# Shear Modulus (GPa) = 33.10888 35.42063 34.26475
#
# Velocity S-wave (km/s) = 4.01973 4.15769 4.08929
# Velocity P-wave (km/s) = 7.71803 7.88782 7.80339
#
# Compressibility (1/GPa) = 0.01283494
#
# Stress axis : x y z
#
# Youngs Moduli (GPa) = 121.74630 121.74630 75.01575
#
# Poissons Ratio (x) = 0.17067 0.26480
# Poissons Ratio (y) = 0.17067 0.26480
# Poissons Ratio (z) = 0.42975 0.42975
#
# Static dielectric constant tensor:
#      x y z
#    x 3.996210 0.000000 0.000000 
#    y 0.000000 3.996210 0.000000 
#    z 0.000000 0.000000 3.791510 
# 
# 
# High freq. dielectric constant tensor:
#      x y z
#    x 1.815670 0.000000 0.000000 
#    y 0.000000 1.815670 0.000000 
#    z 0.000000 0.000000 1.788060 
# 
# From -- ./inp_files/871.got.cif
#   From: 2010.03.12/outbox.cif.g09.slc.cpg/sg105_1_cif.got.tgz:871.got - 2010.04.14 01:45:32.
