data_PCOD8307775
_publ_section_title
;
Structure prediction by ZEFSAII (Michael W. Deem and Ramdas Pophale) SiO2 
 PCOD8307775
Probable space group: I 4 C M
;
_chemical_formula_sum "Si O2"
_cell_formula_units_Z 68
_cell_length_a 16.317545
_cell_length_b 16.317545
_cell_length_c 13.732867
_cell_angle_alpha 90.000000
_cell_angle_beta 90.000000
_cell_angle_gamma 90.000000
_cell_volume 3656.544407
_symmetry_space_group_name_H-M "I 4 C M"
_symmetry_group_IT_number 108
_symmetry_cell_setting 'tetragonal'
loop_
_space_group_symop_operation_xyz
x,y,z
-y,x,z
-x,-y,z
y,-x,z
-x,y,1/2+z
x,-y,1/2+z
-y,-x,1/2+z
y,x,1/2+z
1/2+x,1/2+y,1/2+z
1/2-y,1/2+x,1/2+z
1/2-x,1/2-y,1/2+z
1/2+y,1/2-x,1/2+z
1/2-x,1/2+y,z
1/2+x,1/2-y,z
1/2-y,1/2-x,z
1/2+y,1/2+x,z
loop_
_atom_site_type_symbol
_atom_site_label
_atom_site_fract_x
_atom_site_fract_y
_atom_site_fract_z
Si Si1 0.128149 0.628149 0.537320
Si Si2 0.372549 0.872549 0.512598
Si Si3 0.667156 0.167156 0.824724
Si Si4 0.217388 0.102598 0.660202
Si Si5 0.419753 0.264259 0.160714
Si Si6 0.701728 0.201728 0.323870
Si Si7 0.000000 0.500000 0.528737
O O1 0.124847 0.624847 0.418671
O O2 0.107209 0.719293 0.571329
O O3 0.062683 0.562683 0.584885
O O4 0.417057 0.801440 0.573700
O O5 0.335881 0.835881 0.417691
O O6 0.438797 0.938797 0.472523
O O7 0.600332 0.215310 0.759838
O O8 0.732827 0.232827 0.861720
O O9 0.141926 0.161937 0.636279
O O10 0.257099 0.130267 0.761206
O O11 0.192132 0.007855 0.670697
#
# Coordination Sequence:
#
# PCOD8307775 Si02
#       7
#     8   8   8  16  16   8   4
#     4  11  21  40  55  82 115 146 179 227 278 332
#     4  11  21  40  55  82 115 146 179 227 278 332
#     4   9  20  37  58  78 106 151 184 217 278 334
#     4  10  21  37  58  82 111 147 185 226 271 324
#     4  10  21  37  58  82 111 147 185 226 271 324
#     4   9  20  37  58  78 106 151 184 217 278 334
#     4  12  24  32  58  92 108 138 184 220 286 324
#
# _framework density 18.596792000000001
#
# number of rings (size 3 to 8) (size 9 to 14) (size 15 to 20)
#    0.000    1.882    2.353    3.529    3.294    0.471 
#    0.000    4.706    0.000    0.000    0.000    6.588 
#    0.000    0.000    0.000    0.000    0.000    0.000 
#
# Total GULP energy -421349.607433 kJ/mol
# GULP energy per Si atom -12392.635513 kJ/mol
# Density = 1.855446 g / cm^3
# Si number density = 18.596792 Si / 1000 Ang^3
#
#
#
# Elastic Constant Matrix: (Units=GPa)
#
#
# Indices 1 2 3 4 5 6 
#
# 1 121.4878 58.6166 34.4557 0.0000 0.0000 0.0000
# 2 58.6166 121.4878 34.4557 0.0000 0.0000 0.0000
# 3 34.4557 34.4557 91.2784 0.0000 0.0000 0.0000
# 4 0.0000 0.0000 0.0000 8.5610 0.0000 0.0000
# 5 0.0000 0.0000 0.0000 0.0000 8.5610 0.0000
# 6 0.0000 0.0000 0.0000 0.0000 0.0000 31.6095
#
#
#
# Elastic Compliance Matrix: (Units=1/GPa)
#
#
# Indices 1 2 3 4 5 6 
#
# 1 0.011198 -0.004708 -0.002450 0.000000 0.000000 0.000000
# 2 -0.004708 0.011198 -0.002450 0.000000 0.000000 0.000000
# 3 -0.002450 -0.002450 0.012805 0.000000 0.000000 0.000000
# 4 0.000000 0.000000 0.000000 0.116808 0.000000 0.000000
# 5 0.000000 0.000000 0.000000 0.000000 0.116808 0.000000
# 6 0.000000 0.000000 0.000000 0.000000 0.000000 0.031636
#
#
# Mechanical properties :
#
#
# Convention : Reuss Voigt Hill
#
# Bulk Modulus (GPa) = 62.55714 65.47887 64.01801
# Shear Modulus (GPa) = 15.38480 23.52805 19.45642
#
# Velocity S-wave (km/s) = 2.87937 3.56078 3.23805
# Velocity P-wave (km/s) = 6.69075 7.22438 6.96268
#
# Compressibility (1/GPa) = 0.01598539
#
# Stress axis : x y z
#
# Youngs Moduli (GPa) = 89.30500 89.30500 78.09501
#
# Poissons Ratio (x) = 0.42044 0.19131
# Poissons Ratio (y) = 0.42044 0.19131
# Poissons Ratio (z) = 0.21877 0.21877
#
# Static dielectric constant tensor:
#      x y z
#    x 3.510950 0.000000 0.000000 
#    y 0.000000 3.510950 0.000000 
#    z 0.000000 0.000000 3.210510 
# 
# 
# High freq. dielectric constant tensor:
#      x y z
#    x 1.725870 0.000000 0.000000 
#    y 0.000000 1.725870 0.000000 
#    z 0.000000 0.000000 1.704290 
# 
# From -- ./inp_files/1368.got.cif
#   From: 2010.03.12/outbox.cif.g09.slc.cpg/sg108_1_cif.got.tgz:1368.got - 2010.04.14 01:53:11.
