data_PCOD8307849
_publ_section_title
;
Structure prediction by ZEFSAII (Michael W. Deem and Ramdas Pophale) SiO2 
 PCOD8307849
Probable space group: I 41 M D
;
_chemical_formula_sum "Si O2"
_cell_formula_units_Z 104
_cell_length_a 20.727741
_cell_length_b 20.727741
_cell_length_c 15.518417
_cell_angle_alpha 90.000000
_cell_angle_beta 90.000000
_cell_angle_gamma 90.000000
_cell_volume 6667.320994
_symmetry_space_group_name_H-M "I 41 M D"
_symmetry_group_IT_number 109
_symmetry_cell_setting 'tetragonal'
loop_
_space_group_symop_operation_xyz
x,y,z
-y,1/2+x,1/4+z
-x,-y,z
y,1/2-x,1/4+z
-x,y,z
x,-y,z
-y,1/2-x,1/4+z
y,1/2+x,1/4+z
1/2+x,1/2+y,1/2+z
1/2-y,x,3/4+z
1/2-x,1/2-y,1/2+z
1/2+y,-x,3/4+z
1/2-x,1/2+y,1/2+z
1/2+x,1/2-y,1/2+z
1/2-y,-x,3/4+z
1/2+y,x,3/4+z
loop_
_atom_site_type_symbol
_atom_site_label
_atom_site_fract_x
_atom_site_fract_y
_atom_site_fract_z
Si Si1 0.330049 0.697802 0.834160
Si Si2 0.925335 0.138059 0.461002
Si Si3 0.294654 0.126469 0.370926
Si Si4 0.878540 0.000000 0.487691
Si Si5 0.263227 0.636687 0.219553
Si Si6 0.215767 0.000000 0.635717
Si Si7 0.262193 0.000000 0.457700
Si Si8 0.251157 0.315982 0.404248
O O1 0.396235 0.672077 0.876118
O O2 0.277372 0.640653 0.837058
O O3 0.349781 0.719269 0.737575
O O4 0.295781 0.756255 0.883973
O O5 0.878385 0.159549 0.538295
O O6 0.921736 0.060844 0.460698
O O7 0.000000 0.159765 0.470575
O O8 0.321104 0.176132 0.440579
O O9 0.298790 0.060219 0.420433
O O10 0.813348 0.000000 0.430555
O O11 0.855633 0.000000 0.589577
O O12 0.271930 0.562889 0.192977
O O13 0.254900 0.636293 0.322957
O O14 0.203694 0.674587 0.175244
O O15 0.269762 0.000000 0.561103
#
# Coordination Sequence:
#
# PCOD8307849 Si02
#       8
#    16  16  16   8  16   8   8  16
#     4  10  18  33  50  73  95 127 167 213 255 300
#     4  12  22  33  49  72 104 142 167 207 255 309
#     4  11  18  30  51  72  95 126 171 199 255 298
#     4  10  21  34  46  72 105 137 163 208 248 313
#     4  10  19  31  49  74  98 130 156 208 255 296
#     4  10  18  31  48  69 104 130 158 194 251 311
#     4  10  18  29  50  70  93 129 165 208 237 303
#     4   9  19  31  53  73  96 122 169 215 253 297
#
# _framework density 15.598468
#
# number of rings (size 3 to 8) (size 9 to 14) (size 15 to 20)
#    0.462    1.231    5.385    1.154    2.154    0.000 
#    1.385    0.000    0.000    0.000    0.000    0.000 
#    0.000    0.000    0.154    0.000    0.000    0.000 
#
# Total GULP energy -644398.977134 kJ/mol
# GULP energy per Si atom -12392.288022 kJ/mol
# Density = 1.556297 g / cm^3
# Si number density = 15.598468 Si / 1000 Ang^3
#
#
#
# Elastic Constant Matrix: (Units=GPa)
#
#
# Indices 1 2 3 4 5 6 
#
# 1 63.8998 15.1424 34.8325 0.0000 0.0000 0.0000
# 2 15.1424 63.8998 34.8325 0.0000 0.0000 0.0000
# 3 34.8325 34.8325 110.7556 0.0000 0.0000 0.0000
# 4 0.0000 0.0000 0.0000 18.6072 0.0000 0.0000
# 5 0.0000 0.0000 0.0000 0.0000 18.6072 0.0000
# 6 0.0000 0.0000 0.0000 0.0000 0.0000 13.1449
#
#
#
# Elastic Compliance Matrix: (Units=1/GPa)
#
#
# Indices 1 2 3 4 5 6 
#
# 1 0.019006 -0.001503 -0.005505 0.000000 0.000000 0.000000
# 2 -0.001503 0.019006 -0.005505 0.000000 0.000000 0.000000
# 3 -0.005505 -0.005505 0.012491 0.000000 0.000000 0.000000
# 4 0.000000 0.000000 0.000000 0.053743 0.000000 0.000000
# 5 0.000000 0.000000 0.000000 0.000000 0.053743 0.000000
# 6 0.000000 0.000000 0.000000 0.000000 0.000000 0.076075
#
#
# Mechanical properties :
#
#
# Convention : Reuss Voigt Hill
#
# Bulk Modulus (GPa) = 39.24837 45.35222 42.30029
# Shear Modulus (GPa) = 18.68577 20.32169 19.50373
#
# Velocity S-wave (km/s) = 3.46486 3.61335 3.53988
# Velocity P-wave (km/s) = 6.42054 6.82248 6.62456
#
# Compressibility (1/GPa) = 0.02547877
#
# Stress axis : x y z
#
# Youngs Moduli (GPa) = 52.61375 52.61375 80.05538
#
# Poissons Ratio (x) = 0.07909 0.44068
# Poissons Ratio (y) = 0.07909 0.44068
# Poissons Ratio (z) = 0.28962 0.28962
#
# Static dielectric constant tensor:
#      x y z
#    x 2.851000 0.000000 0.000000 
#    y 0.000000 2.851000 0.000000 
#    z 0.000000 0.000000 3.012960 
# 
# 
# High freq. dielectric constant tensor:
#      x y z
#    x 1.583000 0.000000 0.000000 
#    y 0.000000 1.583000 0.000000 
#    z 0.000000 0.000000 1.596990 
# 
# From -- ./inp_files/2671.got.cif
#   From: 2010.03.12/outbox.cif.g09.slc.cpg/sg109_2_cif.got.tgz:2671.got - 2010.04.14 01:55:16.
