data_PCOD8307353
_publ_section_title
;
Structure prediction by ZEFSAII (Michael W. Deem and Ramdas Pophale) SiO2 
 PCOD8307353
Probable space group: P 42 M C
;
_chemical_formula_sum "Si O2"
_cell_formula_units_Z 40
_cell_length_a 8.029137
_cell_length_b 8.029137
_cell_length_c 29.349290
_cell_angle_alpha 90.000000
_cell_angle_beta 90.000000
_cell_angle_gamma 90.000000
_cell_volume 1892.061881
_symmetry_space_group_name_H-M "P 42 M C"
_symmetry_group_IT_number 105
_symmetry_cell_setting 'tetragonal'
loop_
_space_group_symop_operation_xyz
x,y,z
-y,x,1/2+z
-x,-y,z
y,-x,1/2+z
-x,y,z
x,-y,z
-y,-x,1/2+z
y,x,1/2+z
loop_
_atom_site_type_symbol
_atom_site_label
_atom_site_fract_x
_atom_site_fract_y
_atom_site_fract_z
Si Si1 0.190558 0.813505 0.337540
Si Si2 0.185587 0.308128 0.624439
Si Si3 0.802566 0.500000 0.282867
Si Si4 0.804970 0.314219 0.933100
Si Si5 0.500000 0.302196 0.679157
Si Si6 0.814146 0.805481 0.027159
O O1 0.272400 0.669307 0.305875
O O2 0.202824 0.751411 0.390004
O O3 0.000000 0.831228 0.323866
O O4 0.274152 0.000000 0.331209
O O5 0.170240 0.500000 0.636813
O O6 0.331314 0.227916 0.655788
O O7 0.241492 0.290504 0.571894
O O8 0.000000 0.225689 0.632560
O O9 0.752131 0.500000 0.230866
O O10 0.000000 0.500000 0.289509
O O11 0.752388 0.500000 0.920145
O O12 0.000000 0.292164 0.941049
O O13 0.722730 0.264861 0.981608
O O14 0.500000 0.500000 0.673721
O O15 0.000000 0.731231 0.033740
O O16 0.823387 0.000000 0.020115
#
# Coordination Sequence:
#
# PCOD8307353 Si02
#       6
#     8   8   4   8   4   8
#     4   9  18  35  56  75 104 142 173 215 272 325
#     4   9  19  36  54  74 104 141 178 216 267 330
#     4  10  22  38  56  82 106 132 180 228 270 325
#     4   9  17  29  48  76 106 137 173 212 258 314
#     4  10  22  38  56  76 104 140 174 224 274 321
#     4   9  17  30  50  76 104 136 175 217 263 316
#
# _framework density 21.140955999999999
#
# number of rings (size 3 to 8) (size 9 to 14) (size 15 to 20)
#    0.000    2.800    0.000    0.600    1.400    4.800 
#    1.800    0.000    0.000    0.000    0.000    0.000 
#    0.000    0.000    0.000    0.000    0.000    0.000 
#
# Total GULP energy -495548.748913 kJ/mol
# GULP energy per Si atom -12388.718723 kJ/mol
# Density = 2.109284 g / cm^3
# Si number density = 21.140956 Si / 1000 Ang^3
#
#
#
# Elastic Constant Matrix: (Units=GPa)
#
#
# Indices 1 2 3 4 5 6 
#
# 1 64.7243 25.7658 49.5178 0.0000 0.0000 0.0000
# 2 25.7658 64.7243 49.5178 0.0000 0.0000 0.0000
# 3 49.5178 49.5178 169.4930 0.0000 0.0000 0.0000
# 4 0.0000 0.0000 0.0000 24.2245 0.0000 0.0000
# 5 0.0000 0.0000 0.0000 0.0000 24.2245 0.0000
# 6 0.0000 0.0000 0.0000 0.0000 0.0000 7.6320
#
#
#
# Elastic Compliance Matrix: (Units=1/GPa)
#
#
# Indices 1 2 3 4 5 6 
#
# 1 0.020957 -0.004712 -0.004746 0.000000 0.000000 0.000000
# 2 -0.004712 0.020957 -0.004746 0.000000 0.000000 0.000000
# 3 -0.004746 -0.004746 0.008673 0.000000 0.000000 0.000000
# 4 0.000000 0.000000 0.000000 0.041280 0.000000 0.000000
# 5 0.000000 0.000000 0.000000 0.000000 0.041280 0.000000
# 6 0.000000 0.000000 0.000000 0.000000 0.000000 0.131027
#
#
# Mechanical properties :
#
#
# Convention : Reuss Voigt Hill
#
# Bulk Modulus (GPa) = 45.08725 60.94935 53.01830
# Shear Modulus (GPa) = 16.66807 22.82557 19.74682
#
# Velocity S-wave (km/s) = 2.81094 3.28942 3.05955
# Velocity P-wave (km/s) = 5.64875 6.58176 6.13303
#
# Compressibility (1/GPa) = 0.02217922
#
# Stress axis : x y z
#
# Youngs Moduli (GPa) = 47.71731 47.71731 115.29899
#
# Poissons Ratio (x) = 0.22482 0.54722
# Poissons Ratio (y) = 0.22482 0.54722
# Poissons Ratio (z) = 0.22647 0.22647
#
# Static dielectric constant tensor:
#      x y z
#    x 3.915330 0.000000 0.000000 
#    y 0.000000 3.915330 0.000000 
#    z 0.000000 0.000000 3.919080 
# 
# 
# High freq. dielectric constant tensor:
#      x y z
#    x 1.807090 0.000000 0.000000 
#    y 0.000000 1.807090 0.000000 
#    z 0.000000 0.000000 1.827790 
# 
# From -- ./inp_files/4235.got.cif
#   From: 2010.03.12/outbox.cif.g09.slc.cpg/sg105_3_cif.got.tgz:4235.got - 2010.04.14 01:45:32.
