data_PCOD8307199
_publ_section_title
;
Structure prediction by ZEFSAII (Michael W. Deem and Ramdas Pophale) SiO2 
 PCOD8307199
Probable space group: P 42 M C
;
_chemical_formula_sum "Si O2"
_cell_formula_units_Z 48
_cell_length_a 9.429287
_cell_length_b 9.429287
_cell_length_c 30.434092
_cell_angle_alpha 90.000000
_cell_angle_beta 90.000000
_cell_angle_gamma 90.000000
_cell_volume 2705.939350
_symmetry_space_group_name_H-M "P 42 M C"
_symmetry_group_IT_number 105
_symmetry_cell_setting 'tetragonal'
loop_
_space_group_symop_operation_xyz
x,y,z
-y,x,1/2+z
-x,-y,z
y,-x,1/2+z
-x,y,z
x,-y,z
-y,-x,1/2+z
y,x,1/2+z
loop_
_atom_site_type_symbol
_atom_site_label
_atom_site_fract_x
_atom_site_fract_y
_atom_site_fract_z
Si Si1 0.168735 0.841986 0.993500
Si Si2 0.336994 0.832329 0.575369
Si Si3 0.337012 0.162025 0.144356
Si Si4 0.162025 0.337012 0.746390
Si Si5 0.336994 0.832329 0.815377
Si Si6 0.831265 0.841986 0.397246
O O1 0.215972 0.784028 0.945373
O O2 0.000000 0.848393 0.993933
O O3 0.230129 0.000000 0.002214
O O4 0.226205 0.737783 0.031184
O O5 0.500000 0.786924 0.573111
O O6 0.266895 0.762631 0.617696
O O7 0.318469 0.000000 0.579696
O O8 0.500000 0.190608 0.131902
O O9 0.311050 0.193526 0.195373
O O10 0.296190 0.000000 0.133315
O O11 0.190607 0.500000 0.758844
O O12 0.266895 0.237370 0.773050
O O13 0.000000 0.296189 0.757431
O O14 0.500000 0.786925 0.817635
O O15 0.262217 0.773795 0.859562
O O16 0.318467 0.000000 0.811050
O O17 0.000000 0.848393 0.396814
O O18 0.769872 0.000000 0.388532
#
# Coordination Sequence:
#
# PCOD8307199 Si02
#       6
#     8   8   8   8   8   8
#     4   8  14  27  48  70  92 124 166 206 241 279
#     4  10  20  32  48  74 106 134 160 195 242 294
#     4   9  19  36  55  73  94 124 165 208 246 288
#     4   9  19  36  55  73  94 124 165 208 246 288
#     4  10  20  32  48  74 106 134 160 195 242 294
#     4   8  14  27  48  70  92 124 166 206 241 279
#
# _framework density 17.738755999999999
#
# number of rings (size 3 to 8) (size 9 to 14) (size 15 to 20)
#    0.000    3.000    0.000    3.000    0.000    4.000 
#    0.000    6.667    0.000    6.000    0.000    0.000 
#    0.000    0.000    0.000    0.000    0.000    0.000 
#
# Total GULP energy -595092.143595 kJ/mol
# GULP energy per Si atom -12397.752992 kJ/mol
# Density = 1.769838 g / cm^3
# Si number density = 17.738756 Si / 1000 Ang^3
#
#
#
# Elastic Constant Matrix: (Units=GPa)
#
#
# Indices 1 2 3 4 5 6 
#
# 1 77.9818 44.6228 60.4550 0.0000 0.0000 0.0000
# 2 44.6228 77.9818 60.4550 0.0000 0.0000 0.0000
# 3 60.4550 60.4550 120.6438 0.0000 0.0000 0.0000
# 4 0.0000 0.0000 0.0000 6.9172 0.0000 0.0000
# 5 0.0000 0.0000 0.0000 0.0000 6.9172 0.0000
# 6 0.0000 0.0000 0.0000 0.0000 0.0000 23.3445
#
#
#
# Elastic Compliance Matrix: (Units=1/GPa)
#
#
# Indices 1 2 3 4 5 6 
#
# 1 0.023051 -0.006926 -0.008080 0.000000 0.000000 0.000000
# 2 -0.006926 0.023051 -0.008080 0.000000 0.000000 0.000000
# 3 -0.008080 -0.008080 0.016387 0.000000 0.000000 0.000000
# 4 0.000000 0.000000 0.000000 0.144568 0.000000 0.000000
# 5 0.000000 0.000000 0.000000 0.000000 0.144568 0.000000
# 6 0.000000 0.000000 0.000000 0.000000 0.000000 0.042837
#
#
# Mechanical properties :
#
#
# Convention : Reuss Voigt Hill
#
# Bulk Modulus (GPa) = 61.29053 67.51923 64.40488
# Shear Modulus (GPa) = 11.20895 14.84076 13.02485
#
# Velocity S-wave (km/s) = 2.51647 2.89559 2.71266
# Velocity P-wave (km/s) = 6.56279 7.02318 6.79688
#
# Compressibility (1/GPa) = 0.01631573
#
# Stress axis : x y z
#
# Youngs Moduli (GPa) = 43.38236 43.38236 61.02437
#
# Poissons Ratio (x) = 0.30047 0.49309
# Poissons Ratio (y) = 0.30047 0.49309
# Poissons Ratio (z) = 0.35054 0.35054
#
# Static dielectric constant tensor:
#      x y z
#    x 3.120220 0.000000 0.000000 
#    y 0.000000 3.120220 0.000000 
#    z 0.000000 0.000000 3.498320 
# 
# 
# High freq. dielectric constant tensor:
#      x y z
#    x 1.664810 0.000000 0.000000 
#    y 0.000000 1.664810 0.000000 
#    z 0.000000 0.000000 1.699770 
# 
# From -- ./inp_files/4710.got.cif
#   From: 2010.03.12/outbox.cif.g09.slc.cpg/sg105_3_cif.got.tgz:4710.got - 2010.04.14 01:45:32.
