data_PCOD8307589
_publ_section_title
;
Structure prediction by ZEFSAII (Michael W. Deem and Ramdas Pophale) SiO2 
 PCOD8307589
Probable space group: I 4 M M
;
_chemical_formula_sum "Si O2"
_cell_formula_units_Z 96
_cell_length_a 19.447664
_cell_length_b 19.447664
_cell_length_c 13.869878
_cell_angle_alpha 90.000000
_cell_angle_beta 90.000000
_cell_angle_gamma 90.000000
_cell_volume 5245.749236
_symmetry_space_group_name_H-M "I 4 M M"
_symmetry_group_IT_number 107
_symmetry_cell_setting 'tetragonal'
loop_
_space_group_symop_operation_xyz
x,y,z
-y,x,z
-x,-y,z
y,-x,z
-x,y,z
x,-y,z
-y,-x,z
y,x,z
1/2+x,1/2+y,1/2+z
1/2-y,1/2+x,1/2+z
1/2-x,1/2-y,1/2+z
1/2+y,1/2-x,1/2+z
1/2-x,1/2+y,1/2+z
1/2+x,1/2-y,1/2+z
1/2-y,1/2-x,1/2+z
1/2+y,1/2+x,1/2+z
loop_
_atom_site_type_symbol
_atom_site_label
_atom_site_fract_x
_atom_site_fract_y
_atom_site_fract_z
Si Si1 0.225284 0.576695 0.012660
Si Si2 0.074742 0.710818 0.073601
Si Si3 0.255442 0.744559 0.823571
Si Si4 0.629580 0.167739 0.381089
Si Si5 0.176951 0.823050 0.150671
Si Si6 0.419819 0.419819 0.776029
Si Si7 0.875158 0.578156 0.178710
Si Si8 0.851403 0.148598 0.450478
O O1 0.225817 0.500000 0.974382
O O2 0.196491 0.583587 0.120845
O O3 0.180222 0.614015 0.931823
O O4 0.303487 0.602565 0.018377
O O5 0.133281 0.767995 0.089696
O O6 0.079213 0.640566 0.136761
O O7 0.000000 0.742661 0.097546
O O8 0.075569 0.693136 0.960366
O O9 0.175081 0.730961 0.841306
O O10 0.275267 0.724734 0.715591
O O11 0.302564 0.697437 0.889531
O O12 0.588357 0.134215 0.292739
O O13 0.125156 0.874845 0.202847
O O14 0.500000 0.403753 0.759021
O O15 0.399371 0.399371 0.884392
O O16 0.905948 0.500000 0.162919
#
# Coordination Sequence:
#
# PCOD8307589 Si02
#       8
#    16  16   8  16   8   8  16   8
#     4   9  19  33  51  76 105 140 183 231 277 331
#     4  11  23  37  58  84 114 150 191 238 288 346
#     4   9  17  31  53  80 101 139 179 227 272 325
#     4  10  19  35  54  79 108 144 185 228 283 332
#     4  11  20  37  55  83 111 146 190 236 283 343
#     4  10  20  32  50  78 114 151 186 229 283 344
#     4  10  21  37  55  78 110 146 189 235 281 335
#     4   9  17  30  50  76 104 139 177 228 276 329
#
# _framework density 18.300533000000001
#
# number of rings (size 3 to 8) (size 9 to 14) (size 15 to 20)
#    0.000    2.083    1.667    2.000    0.000    3.667 
#    0.000    0.000    0.000    3.000    0.000    0.000 
#    0.000    0.000    0.000   12.250    0.000    0.000 
#
# Total GULP energy -594806.714353 kJ/mol
# GULP energy per Si atom -12391.806549 kJ/mol
# Density = 1.825888 g / cm^3
# Si number density = 18.300533 Si / 1000 Ang^3
#
#
#
# Elastic Constant Matrix: (Units=GPa)
#
#
# Indices 1 2 3 4 5 6 
#
# 1 88.9745 40.6972 30.4778 0.0000 0.0000 0.0000
# 2 40.6972 88.9745 30.4778 0.0000 0.0000 0.0000
# 3 30.4778 30.4778 106.9188 0.0000 0.0000 0.0000
# 4 0.0000 0.0000 0.0000 17.8812 0.0000 0.0000
# 5 0.0000 0.0000 0.0000 0.0000 17.8812 0.0000
# 6 0.0000 0.0000 0.0000 0.0000 0.0000 24.9300
#
#
#
# Elastic Compliance Matrix: (Units=1/GPa)
#
#
# Indices 1 2 3 4 5 6 
#
# 1 0.014809 -0.005904 -0.002538 0.000000 0.000000 0.000000
# 2 -0.005904 0.014809 -0.002538 0.000000 0.000000 0.000000
# 3 -0.002538 -0.002538 0.010800 0.000000 0.000000 0.000000
# 4 0.000000 0.000000 0.000000 0.055925 0.000000 0.000000
# 5 0.000000 0.000000 0.000000 0.000000 0.055925 0.000000
# 6 0.000000 0.000000 0.000000 0.000000 0.000000 0.040112
#
#
# Mechanical properties :
#
#
# Convention : Reuss Voigt Hill
#
# Bulk Modulus (GPa) = 54.18165 54.24150 54.21158
# Shear Modulus (GPa) = 22.67626 24.35281 23.51454
#
# Velocity S-wave (km/s) = 3.52391 3.65186 3.58845
# Velocity P-wave (km/s) = 6.79913 6.89094 6.84519
#
# Compressibility (1/GPa) = 0.01845643
#
# Stress axis : x y z
#
# Youngs Moduli (GPa) = 67.52483 67.52483 92.59188
#
# Poissons Ratio (x) = 0.39869 0.23504
# Poissons Ratio (y) = 0.39869 0.23504
# Poissons Ratio (z) = 0.17141 0.17141
#
# Static dielectric constant tensor:
#      x y z
#    x 3.454560 0.000000 0.000000 
#    y 0.000000 3.454560 0.000000 
#    z 0.000000 0.000000 3.305260 
# 
# 
# High freq. dielectric constant tensor:
#      x y z
#    x 1.705330 0.000000 0.000000 
#    y 0.000000 1.705330 0.000000 
#    z 0.000000 0.000000 1.703450 
# 
# From -- ./inp_files/2505.got.cif
#   From: 2010.03.12/outbox.cif.g09.slc.cpg/sg107_2_cif.got.tgz:2505.got - 2010.04.14 01:49:11.
