data_PCOD8307413
_publ_section_title
;
Structure prediction by ZEFSAII (Michael W. Deem and Ramdas Pophale) SiO2 
 PCOD8307413
Probable space group: P 42 B C
;
_chemical_formula_sum "Si O2"
_cell_formula_units_Z 40
_cell_length_a 13.159331
_cell_length_b 13.159331
_cell_length_c 11.548263
_cell_angle_alpha 90.000000
_cell_angle_beta 90.000000
_cell_angle_gamma 90.000000
_cell_volume 1999.789519
_symmetry_space_group_name_H-M "P 42 B C"
_symmetry_group_IT_number 106
_symmetry_cell_setting 'tetragonal'
loop_
_space_group_symop_operation_xyz
x,y,z
-y,x,1/2+z
-x,-y,z
y,-x,1/2+z
1/2-x,1/2+y,z
1/2+x,1/2-y,z
1/2-y,1/2-x,1/2+z
1/2+y,1/2+x,1/2+z
loop_
_atom_site_type_symbol
_atom_site_label
_atom_site_fract_x
_atom_site_fract_y
_atom_site_fract_z
Si Si1 0.803931 0.911404 0.982730
Si Si2 0.374081 0.205939 0.058806
Si Si3 0.565843 0.225404 0.921059
Si Si4 0.400928 0.249284 0.733054
Si Si5 0.220176 0.867127 0.921541
O O1 0.894454 0.840406 0.935965
O O2 0.807138 0.015046 0.912131
O O3 0.693996 0.857028 0.963562
O O4 0.815928 0.932552 0.120829
O O5 0.350437 0.162951 0.187488
O O6 0.492939 0.196698 0.029491
O O7 0.332516 0.321078 0.038054
O O8 0.501749 0.216304 0.802389
O O9 0.657955 0.145901 0.923012
O O10 0.325578 0.316713 0.807784
#
# Coordination Sequence:
#
# PCOD8307413 Si02
#       5
#     8   8   8   8   8
#     4   9  21  40  60  92 126 162 215 263 317 396
#     4   8  20  39  57  89 125 161 212 261 313 381
#     4  10  20  40  65  88 128 167 209 272 321 383
#     4   9  21  39  60  93 126 164 210 265 326 373
#     4  10  20  39  65  88 127 168 212 267 321 383
#
# _framework density 20.002103999999999
#
# number of rings (size 3 to 8) (size 9 to 14) (size 15 to 20)
#    1.200    1.600    0.000    0.000    2.800    4.000 
#   10.800    4.000   13.200    0.000    0.000    0.000 
#    0.000    0.000    0.000    0.000    0.000    0.000 
#
# Total GULP energy -495572.035876 kJ/mol
# GULP energy per Si atom -12389.300897 kJ/mol
# Density = 1.995658 g / cm^3
# Si number density = 20.002104 Si / 1000 Ang^3
#
#
#
# Elastic Constant Matrix: (Units=GPa)
#
#
# Indices 1 2 3 4 5 6 
#
# 1 113.2120 37.6410 47.8956 0.0000 0.0000 0.0000
# 2 37.6410 113.2120 47.8956 0.0000 0.0000 0.0000
# 3 47.8956 47.8956 63.1279 0.0000 0.0000 0.0000
# 4 0.0000 0.0000 0.0000 31.2831 0.0000 0.0000
# 5 0.0000 0.0000 0.0000 0.0000 31.2831 0.0000
# 6 0.0000 0.0000 0.0000 0.0000 0.0000 16.2915
#
#
#
# Elastic Compliance Matrix: (Units=1/GPa)
#
#
# Indices 1 2 3 4 5 6 
#
# 1 0.013012 -0.000220 -0.009705 0.000000 0.000000 0.000000
# 2 -0.000220 0.013012 -0.009705 0.000000 0.000000 0.000000
# 3 -0.009705 -0.009705 0.030568 0.000000 0.000000 0.000000
# 4 0.000000 0.000000 0.000000 0.031966 0.000000 0.000000
# 5 0.000000 0.000000 0.000000 0.000000 0.031966 0.000000
# 6 0.000000 0.000000 0.000000 0.000000 0.000000 0.061382
#
#
# Mechanical properties :
#
#
# Convention : Reuss Voigt Hill
#
# Bulk Modulus (GPa) = 57.70213 61.82401 59.76307
# Shear Modulus (GPa) = 22.03185 26.17952 24.10568
#
# Velocity S-wave (km/s) = 3.32245 3.62171 3.47530
# Velocity P-wave (km/s) = 6.60522 6.96168 6.78579
#
# Compressibility (1/GPa) = 0.01733038
#
# Stress axis : x y z
#
# Youngs Moduli (GPa) = 76.85124 76.85124 32.71442
#
# Poissons Ratio (x) = 0.01694 0.31750
# Poissons Ratio (y) = 0.01694 0.31750
# Poissons Ratio (z) = 0.74585 0.74585
#
# Static dielectric constant tensor:
#      x y z
#    x 3.494070 0.000000 0.000000 
#    y 0.000000 3.494070 0.000000 
#    z 0.000000 0.000000 3.521670 
# 
# 
# High freq. dielectric constant tensor:
#      x y z
#    x 1.772690 0.000000 0.000000 
#    y 0.000000 1.772690 0.000000 
#    z 0.000000 0.000000 1.768830 
# 
# From -- ./inp_files/828.got.cif
#   From: 2010.03.12/outbox.cif.g09.slc.cpg/sg106_cif.got.tgz:828.got - 2010.04.14 01:48:02.
