data_PCOD8307192
_publ_section_title
;
Structure prediction by ZEFSAII (Michael W. Deem and Ramdas Pophale) SiO2 
 PCOD8307192
Probable space group: P 42 M C
;
_chemical_formula_sum "Si O2"
_cell_formula_units_Z 48
_cell_length_a 9.272862
_cell_length_b 9.272862
_cell_length_c 31.041077
_cell_angle_alpha 90.000000
_cell_angle_beta 90.000000
_cell_angle_gamma 90.000000
_cell_volume 2669.097105
_symmetry_space_group_name_H-M "P 42 M C"
_symmetry_group_IT_number 105
_symmetry_cell_setting 'tetragonal'
loop_
_space_group_symop_operation_xyz
x,y,z
-y,x,1/2+z
-x,-y,z
y,-x,1/2+z
-x,y,z
x,-y,z
-y,-x,1/2+z
y,x,1/2+z
loop_
_atom_site_type_symbol
_atom_site_label
_atom_site_fract_x
_atom_site_fract_y
_atom_site_fract_z
Si Si1 0.334184 0.832383 0.585980
Si Si2 0.671844 0.661769 0.502749
Si Si3 0.167792 0.168348 0.171615
Si Si4 0.328712 0.161608 0.327549
Si Si5 0.162103 0.328469 0.922611
Si Si6 0.671318 0.664891 0.246010
O O1 0.500000 0.792604 0.596383
O O2 0.274367 0.746417 0.544835
O O3 0.237585 0.786305 0.626328
O O4 0.318141 0.000000 0.575078
O O5 0.500000 0.664881 0.501138
O O6 0.731863 0.500000 0.505013
O O7 0.736367 0.734841 0.459543
O O8 0.260644 0.242758 0.208213
O O9 0.000000 0.196851 0.180999
O O10 0.204585 0.000000 0.170311
O O11 0.500000 0.158953 0.327006
O O12 0.275705 0.212714 0.375031
O O13 0.271183 0.271518 0.291422
O O14 0.270831 0.000000 0.317753
O O15 0.166173 0.500000 0.924374
O O16 0.000000 0.274037 0.931479
O O17 0.500000 0.677303 0.242489
O O18 0.723050 0.500000 0.242667
#
# Coordination Sequence:
#
# PCOD8307192 Si02
#       6
#     8   8   8   8   8   8
#     4   9  17  30  47  65  88 118 149 184 231 286
#     4   9  16  24  37  61  91 120 151 190 234 278
#     4  10  21  36  53  72  93 121 160 202 242 288
#     4   8  14  25  41  62  91 127 163 197 234 279
#     4   8  13  22  37  58  87 124 161 193 229 275
#     4  10  20  32  48  72 100 129 160 196 242 293
#
# _framework density 17.983611
#
# number of rings (size 3 to 8) (size 9 to 14) (size 15 to 20)
#    0.000    3.000    0.000    2.500    0.000    5.333 
#    0.000    5.000    0.000    0.000    0.000    1.167 
#    0.000    4.000    0.000    0.000    0.000    0.000 
#
# Total GULP energy -595032.301035 kJ/mol
# GULP energy per Si atom -12396.506272 kJ/mol
# Density = 1.794268 g / cm^3
# Si number density = 17.983611 Si / 1000 Ang^3
#
#
#
# Elastic Constant Matrix: (Units=GPa)
#
#
# Indices 1 2 3 4 5 6 
#
# 1 68.7971 30.0859 66.3026 0.0000 0.0000 0.0000
# 2 30.0859 68.7971 66.3026 0.0000 0.0000 0.0000
# 3 66.3026 66.3026 181.1037 0.0000 0.0000 0.0000
# 4 0.0000 0.0000 0.0000 4.9488 0.0000 0.0000
# 5 0.0000 0.0000 0.0000 0.0000 4.9488 0.0000
# 6 0.0000 0.0000 0.0000 0.0000 0.0000 14.9397
#
#
#
# Elastic Compliance Matrix: (Units=1/GPa)
#
#
# Indices 1 2 3 4 5 6 
#
# 1 0.022849 -0.002983 -0.007273 0.000000 0.000000 0.000000
# 2 -0.002983 0.022849 -0.007273 0.000000 0.000000 0.000000
# 3 -0.007273 -0.007273 0.010847 0.000000 0.000000 0.000000
# 4 0.000000 0.000000 0.000000 0.202071 0.000000 0.000000
# 5 0.000000 0.000000 0.000000 0.000000 0.202071 0.000000
# 6 0.000000 0.000000 0.000000 0.000000 0.000000 0.066936
#
#
# Mechanical properties :
#
#
# Convention : Reuss Voigt Hill
#
# Bulk Modulus (GPa) = 46.53873 71.56447 59.05160
# Shear Modulus (GPa) = 8.77433 15.36789 12.07111
#
# Velocity S-wave (km/s) = 2.21126 2.92644 2.59362
# Velocity P-wave (km/s) = 5.69685 7.16236 6.47123
#
# Compressibility (1/GPa) = 0.02148748
#
# Stress axis : x y z
#
# Youngs Moduli (GPa) = 43.76470 43.76470 92.18975
#
# Poissons Ratio (x) = 0.13055 0.67052
# Poissons Ratio (y) = 0.13055 0.67052
# Poissons Ratio (z) = 0.31831 0.31831
#
# Static dielectric constant tensor:
#      x y z
#    x 3.143980 0.000000 0.000000 
#    y 0.000000 3.143980 0.000000 
#    z 0.000000 0.000000 3.684120 
# 
# 
# High freq. dielectric constant tensor:
#      x y z
#    x 1.664990 0.000000 0.000000 
#    y 0.000000 1.664990 0.000000 
#    z 0.000000 0.000000 1.715260 
# 
# From -- ./inp_files/4674.got.cif
#   From: 2010.03.12/outbox.cif.g09.slc.cpg/sg105_3_cif.got.tgz:4674.got - 2010.04.14 01:45:32.
