data_PCOD8307183
_publ_section_title
;
Structure prediction by ZEFSAII (Michael W. Deem and Ramdas Pophale) SiO2 
 PCOD8307183
Probable space group: P 42 M C
;
_chemical_formula_sum "Si O2"
_cell_formula_units_Z 48
_cell_length_a 20.171436
_cell_length_b 20.171436
_cell_length_c 9.197857
_cell_angle_alpha 90.000000
_cell_angle_beta 90.000000
_cell_angle_gamma 90.000000
_cell_volume 3742.486880
_symmetry_space_group_name_H-M "P 42 M C"
_symmetry_group_IT_number 105
_symmetry_cell_setting 'tetragonal'
loop_
_space_group_symop_operation_xyz
x,y,z
-y,x,1/2+z
-x,-y,z
y,-x,1/2+z
-x,y,z
x,-y,z
-y,-x,1/2+z
y,x,1/2+z
loop_
_atom_site_type_symbol
_atom_site_label
_atom_site_fract_x
_atom_site_fract_y
_atom_site_fract_z
Si Si1 0.073172 0.421162 0.798280
Si Si2 0.578943 0.802143 0.798389
Si Si3 0.421057 0.197857 0.124890
Si Si4 0.578838 0.926828 0.624999
Si Si5 0.327489 0.578193 0.129702
Si Si6 0.327489 0.421807 0.793577
O O1 0.076757 0.500000 0.798418
O O2 0.129781 0.392010 0.692786
O O3 0.000000 0.398223 0.744395
O O4 0.086016 0.395065 0.961640
O O5 0.500000 0.804450 0.799190
O O6 0.607990 0.870219 0.730493
O O7 0.603674 0.740650 0.701830
O O8 0.606720 0.794579 0.961640
O O9 0.500000 0.195550 0.124089
O O10 0.396326 0.259350 0.221449
O O11 0.500000 0.923243 0.624862
O O12 0.601777 0.000000 0.678884
O O13 0.335758 0.500000 0.148192
O O14 0.389044 0.610956 0.211640
O O15 0.327210 0.599283 0.961640
O O16 0.335758 0.500000 0.775087
#
# Coordination Sequence:
#
# PCOD8307183 Si02
#       6
#     8   8   8   8   8   8
#     4   8  13  21  33  49  69  91 111 129 152 186
#     4   9  16  25  37  52  69  87 107 132 162 198
#     4   9  16  25  37  52  69  87 107 132 162 198
#     4   8  13  21  33  49  69  91 111 129 152 186
#     4  10  20  32  44  55  67  84 107 138 177 219
#     4  10  20  32  44  55  67  84 107 138 177 219
#
# _framework density 12.825697
#
# number of rings (size 3 to 8) (size 9 to 14) (size 15 to 20)
#    0.000    3.000    0.000    3.000    0.000    7.000 
#    0.000    5.000    0.000    0.000    0.000    0.000 
#    0.000    0.000    0.000    0.000    0.000    0.000 
#
# Total GULP energy -594968.524841 kJ/mol
# GULP energy per Si atom -12395.177601 kJ/mol
# Density = 1.279651 g / cm^3
# Si number density = 12.825697 Si / 1000 Ang^3
#
#
#
# Elastic Constant Matrix: (Units=GPa)
#
#
# Indices 1 2 3 4 5 6 
#
# 1 43.5100 24.1486 40.2664 0.0000 0.0000 0.0000
# 2 24.1486 43.5100 40.2664 0.0000 0.0000 0.0000
# 3 40.2664 40.2664 116.5412 0.0000 0.0000 0.0000
# 4 0.0000 0.0000 0.0000 19.2625 0.0000 0.0000
# 5 0.0000 0.0000 0.0000 0.0000 19.2625 0.0000
# 6 0.0000 0.0000 0.0000 0.0000 0.0000 0.4641
#
#
#
# Elastic Compliance Matrix: (Units=1/GPa)
#
#
# Indices 1 2 3 4 5 6 
#
# 1 0.038377 -0.013272 -0.008674 0.000000 0.000000 0.000000
# 2 -0.013272 0.038377 -0.008674 0.000000 0.000000 0.000000
# 3 -0.008674 -0.008674 0.014575 0.000000 0.000000 0.000000
# 4 0.000000 0.000000 0.000000 0.051914 0.000000 0.000000
# 5 0.000000 0.000000 0.000000 0.000000 0.051914 0.000000
# 6 0.000000 0.000000 0.000000 0.000000 0.000000 2.154476
#
#
# Mechanical properties :
#
#
# Convention : Reuss Voigt Hill
#
# Bulk Modulus (GPa) = 33.23598 45.88044 39.55821
# Shear Modulus (GPa) = 2.06535 14.38983 8.22759
#
# Velocity S-wave (km/s) = 1.27036 3.35319 2.53552
# Velocity P-wave (km/s) = 5.30298 7.13034 6.28345
#
# Compressibility (1/GPa) = 0.03008788
#
# Stress axis : x y z
#
# Youngs Moduli (GPa) = 26.05742 26.05742 68.61280
#
# Poissons Ratio (x) = 0.34584 0.59514
# Poissons Ratio (y) = 0.34584 0.59514
# Poissons Ratio (z) = 0.22602 0.22602
#
# Static dielectric constant tensor:
#      x y z
#    x 2.425670 0.000000 0.000000 
#    y 0.000000 2.425670 0.000000 
#    z 0.000000 0.000000 2.839140 
# 
# 
# High freq. dielectric constant tensor:
#      x y z
#    x 1.448000 0.000000 0.000000 
#    y 0.000000 1.448000 0.000000 
#    z 0.000000 0.000000 1.505300 
# 
# From -- ./inp_files/990.got.cif
#   From: 2010.03.12/outbox.cif.g09.slc.cpg/sg105_1_cif.got.tgz:990.got - 2010.04.14 01:45:32.
