data_PCOD8307458
_publ_section_title
;
Structure prediction by ZEFSAII (Michael W. Deem and Ramdas Pophale) SiO2 
 PCOD8307458
Probable space group: P 42 B C
;
_chemical_formula_sum "Si O2"
_cell_formula_units_Z 48
_cell_length_a 9.992647
_cell_length_b 9.992647
_cell_length_c 22.744520
_cell_angle_alpha 90.000000
_cell_angle_beta 90.000000
_cell_angle_gamma 90.000000
_cell_volume 2271.108421
_symmetry_space_group_name_H-M "P 42 B C"
_symmetry_group_IT_number 106
_symmetry_cell_setting 'tetragonal'
loop_
_space_group_symop_operation_xyz
x,y,z
-y,x,1/2+z
-x,-y,z
y,-x,1/2+z
1/2-x,1/2+y,z
1/2+x,1/2-y,z
1/2-y,1/2-x,1/2+z
1/2+y,1/2+x,1/2+z
loop_
_atom_site_type_symbol
_atom_site_label
_atom_site_fract_x
_atom_site_fract_y
_atom_site_fract_z
Si Si1 0.528208 0.346104 0.792620
Si Si2 0.637241 0.029170 0.048311
Si Si3 0.728393 0.785161 0.226482
Si Si4 0.028208 0.153896 0.928291
Si Si5 0.785161 0.271607 0.994428
Si Si6 0.529170 0.137241 0.172600
O O1 0.500000 0.500000 0.779006
O O2 0.681959 0.317097 0.776627
O O3 0.431036 0.252003 0.754327
O O4 0.504903 0.311355 0.860455
O O5 0.588687 0.088688 0.110455
O O6 0.500000 0.000000 0.011514
O O7 0.738281 0.131583 0.020145
O O8 0.710416 0.883506 0.046735
O O9 0.616494 0.789584 0.174175
O O10 0.868417 0.738281 0.200765
O O11 0.931036 0.247997 0.966584
O O12 0.181960 0.182903 0.944284
O O13 0.000000 0.000000 0.941904
O O14 0.500000 0.000000 0.209396
#
# Coordination Sequence:
#
# PCOD8307458 Si02
#       6
#     8   8   8   8   8   8
#     4  11  24  42  68 103 138 181 229 283 350 415
#     4  11  26  43  68  98 135 176 230 279 343 409
#     4  12  23  46  68  99 139 180 225 292 338 409
#     4  11  24  42  68 103 138 181 229 283 350 415
#     4  12  23  46  68  99 139 180 225 292 338 409
#     4  11  26  43  68  98 135 176 230 279 343 409
#
# _framework density 21.135054
#
# number of rings (size 3 to 8) (size 9 to 14) (size 15 to 20)
#    0.000    0.667    6.667    1.000    4.667    0.000 
#    0.000    1.667    0.000    0.000    0.000    0.000 
#    0.000    0.000    0.000    0.000    0.000    0.000 
#
# Total GULP energy -594678.899028 kJ/mol
# GULP energy per Si atom -12389.143730 kJ/mol
# Density = 2.108695 g / cm^3
# Si number density = 21.135054 Si / 1000 Ang^3
#
#
#
# Elastic Constant Matrix: (Units=GPa)
#
#
# Indices 1 2 3 4 5 6 
#
# 1 109.9458 33.7247 36.9714 0.0000 0.0000 0.0000
# 2 33.7247 109.9458 36.9714 0.0000 0.0000 0.0000
# 3 36.9714 36.9714 86.3142 0.0000 0.0000 0.0000
# 4 0.0000 0.0000 0.0000 30.0210 0.0000 0.0000
# 5 0.0000 0.0000 0.0000 0.0000 30.0210 0.0000
# 6 0.0000 0.0000 0.0000 0.0000 0.0000 40.9819
#
#
#
# Elastic Compliance Matrix: (Units=1/GPa)
#
#
# Indices 1 2 3 4 5 6 
#
# 1 0.011024 -0.002096 -0.003824 0.000000 0.000000 0.000000
# 2 -0.002096 0.011024 -0.003824 0.000000 0.000000 0.000000
# 3 -0.003824 -0.003824 0.014862 0.000000 0.000000 0.000000
# 4 0.000000 0.000000 0.000000 0.033310 0.000000 0.000000
# 5 0.000000 0.000000 0.000000 0.000000 0.033310 0.000000
# 6 0.000000 0.000000 0.000000 0.000000 0.000000 0.024401
#
#
# Mechanical properties :
#
#
# Convention : Reuss Voigt Hill
#
# Bulk Modulus (GPa) = 57.40066 57.94898 57.67482
# Shear Modulus (GPa) = 32.63125 33.44069 33.03597
#
# Velocity S-wave (km/s) = 3.93356 3.98205 3.95788
# Velocity P-wave (km/s) = 6.91726 6.97282 6.94510
#
# Compressibility (1/GPa) = 0.01742140
#
# Stress axis : x y z
#
# Youngs Moduli (GPa) = 90.70938 90.70938 67.28613
#
# Poissons Ratio (x) = 0.19008 0.25733
# Poissons Ratio (y) = 0.19008 0.25733
# Poissons Ratio (z) = 0.34692 0.34692
#
# Static dielectric constant tensor:
#      x y z
#    x 4.206020 0.000000 0.000000 
#    y 0.000000 4.206020 0.000000 
#    z 0.000000 0.000000 3.490850 
# 
# 
# High freq. dielectric constant tensor:
#      x y z
#    x 1.848610 0.000000 0.000000 
#    y 0.000000 1.848610 0.000000 
#    z 0.000000 0.000000 1.800930 
# 
# From -- ./inp_files/1771.got.cif
#   From: 2010.03.12/outbox.cif.g09.slc.cpg/sg106_cif.got.tgz:1771.got - 2010.04.14 01:48:02.
