data_PCOD8307457
_publ_section_title
;
Structure prediction by ZEFSAII (Michael W. Deem and Ramdas Pophale) SiO2 
 PCOD8307457
Probable space group: P 42 B C
;
_chemical_formula_sum "Si O2"
_cell_formula_units_Z 48
_cell_length_a 9.994035
_cell_length_b 9.994035
_cell_length_c 22.716812
_cell_angle_alpha 90.000000
_cell_angle_beta 90.000000
_cell_angle_gamma 90.000000
_cell_volume 2268.971893
_symmetry_space_group_name_H-M "P 42 B C"
_symmetry_group_IT_number 106
_symmetry_cell_setting 'tetragonal'
loop_
_space_group_symop_operation_xyz
x,y,z
-y,x,1/2+z
-x,-y,z
y,-x,1/2+z
1/2-x,1/2+y,z
1/2+x,1/2-y,z
1/2-y,1/2-x,1/2+z
1/2+y,1/2+x,1/2+z
loop_
_atom_site_type_symbol
_atom_site_label
_atom_site_fract_x
_atom_site_fract_y
_atom_site_fract_z
Si Si1 0.362939 0.469997 0.784130
Si Si2 0.726997 0.716657 0.338395
Si Si3 0.773003 0.783343 0.605088
Si Si4 0.974219 0.345602 0.904297
Si Si5 0.469997 0.362939 0.659353
Si Si6 0.525782 0.154398 0.039186
O O1 0.500000 0.500000 0.820892
O O2 0.287330 0.614345 0.786381
O O3 0.263556 0.366188 0.812153
O O4 0.411795 0.411795 0.721741
O O5 0.751999 0.569854 0.365003
O O6 0.683775 0.819646 0.389344
O O7 0.633812 0.736444 0.631330
O O8 0.816225 0.680354 0.554139
O O9 0.748001 0.930146 0.578480
O O10 0.885655 0.787330 0.657101
O O11 0.000000 0.500000 0.890858
O O12 0.000000 0.309481 0.971741
O O13 0.500000 0.500000 0.622590
O O14 0.500000 0.000000 0.052624
#
# Coordination Sequence:
#
# PCOD8307457 Si02
#       6
#     8   8   8   8   8   8
#     4  11  26  43  68  98 135 176 228 277 340 403
#     4  12  23  46  68  99 139 180 223 288 336 402
#     4  12  23  46  68  99 139 180 223 288 336 402
#     4  11  24  42  68 103 138 181 229 280 342 406
#     4  11  26  43  68  98 135 176 228 277 340 403
#     4  11  24  42  68 103 138 181 229 280 342 406
#
# _framework density 21.154957
#
# number of rings (size 3 to 8) (size 9 to 14) (size 15 to 20)
#    0.000    0.667    6.667    1.000    4.667    0.000 
#    0.000    1.667    0.000    0.000    0.000    0.000 
#    0.000    0.000    0.000    0.000    0.000    0.000 
#
# Total GULP energy -594670.950709 kJ/mol
# GULP energy per Si atom -12388.978140 kJ/mol
# Density = 2.110681 g / cm^3
# Si number density = 21.154957 Si / 1000 Ang^3
#
#
#
# Elastic Constant Matrix: (Units=GPa)
#
#
# Indices 1 2 3 4 5 6 
#
# 1 112.3412 28.8845 33.1935 0.0000 0.0000 0.0000
# 2 28.8845 112.3412 33.1935 0.0000 0.0000 0.0000
# 3 33.1935 33.1935 88.3429 0.0000 0.0000 0.0000
# 4 0.0000 0.0000 0.0000 29.6803 0.0000 0.0000
# 5 0.0000 0.0000 0.0000 0.0000 29.6803 0.0000
# 6 0.0000 0.0000 0.0000 0.0000 0.0000 40.0837
#
#
#
# Elastic Compliance Matrix: (Units=1/GPa)
#
#
# Indices 1 2 3 4 5 6 
#
# 1 0.010291 -0.001691 -0.003231 0.000000 0.000000 0.000000
# 2 -0.001691 0.010291 -0.003231 0.000000 0.000000 0.000000
# 3 -0.003231 -0.003231 0.013748 0.000000 0.000000 0.000000
# 4 0.000000 0.000000 0.000000 0.033692 0.000000 0.000000
# 5 0.000000 0.000000 0.000000 0.000000 0.033692 0.000000
# 6 0.000000 0.000000 0.000000 0.000000 0.000000 0.024948
#
#
# Mechanical properties :
#
#
# Convention : Reuss Voigt Hill
#
# Bulk Modulus (GPa) = 55.48671 55.95203 55.71937
# Shear Modulus (GPa) = 33.56217 34.40578 33.98397
#
# Velocity S-wave (km/s) = 3.98740 4.03720 4.01238
# Velocity P-wave (km/s) = 6.89092 6.94536 6.91820
#
# Compressibility (1/GPa) = 0.01802233
#
# Stress axis : x y z
#
# Youngs Moduli (GPa) = 97.17203 97.17203 72.73938
#
# Poissons Ratio (x) = 0.16434 0.23504
# Poissons Ratio (y) = 0.16434 0.23504
# Poissons Ratio (z) = 0.31399 0.31399
#
# Static dielectric constant tensor:
#      x y z
#    x 4.254050 0.000000 0.000000 
#    y 0.000000 4.254050 0.000000 
#    z 0.000000 0.000000 3.517160 
# 
# 
# High freq. dielectric constant tensor:
#      x y z
#    x 1.849980 0.000000 0.000000 
#    y 0.000000 1.849980 0.000000 
#    z 0.000000 0.000000 1.801120 
# 
# From -- ./inp_files/1776.got.cif
#   From: 2010.03.12/outbox.cif.g09.slc.cpg/sg106_cif.got.tgz:1776.got - 2010.04.14 01:48:02.
