data_PCOD8307973
_publ_section_title
;
Structure prediction by ZEFSAII (Michael W. Deem and Ramdas Pophale) SiO2 
 PCOD8307973
Probable space group: I 41 M D
;
_chemical_formula_sum "Si O2"
_cell_formula_units_Z 112
_cell_length_a 22.428057
_cell_length_b 22.428057
_cell_length_c 13.739164
_cell_angle_alpha 90.000000
_cell_angle_beta 90.000000
_cell_angle_gamma 90.000000
_cell_volume 6911.043236
_symmetry_space_group_name_H-M "I 41 M D"
_symmetry_group_IT_number 109
_symmetry_cell_setting 'tetragonal'
loop_
_space_group_symop_operation_xyz
x,y,z
-y,1/2+x,1/4+z
-x,-y,z
y,1/2-x,1/4+z
-x,y,z
x,-y,z
-y,1/2-x,1/4+z
y,1/2+x,1/4+z
1/2+x,1/2+y,1/2+z
1/2-y,x,3/4+z
1/2-x,1/2-y,1/2+z
1/2+y,-x,3/4+z
1/2-x,1/2+y,1/2+z
1/2+x,1/2-y,1/2+z
1/2-y,-x,3/4+z
1/2+y,x,3/4+z
loop_
_atom_site_type_symbol
_atom_site_label
_atom_site_fract_x
_atom_site_fract_y
_atom_site_fract_z
Si Si1 0.068059 0.231874 0.777370
Si Si2 0.068587 0.069390 0.099548
Si Si3 0.430744 0.500000 0.067269
Si Si4 0.882003 0.569999 0.142232
Si Si5 0.891143 0.641694 0.735926
Si Si6 0.932054 0.347215 0.524571
Si Si7 0.934402 0.786794 0.550115
Si Si8 0.069416 0.000000 0.794178
O O1 0.096051 0.179899 0.846965
O O2 0.103473 0.293910 0.787925
O O3 0.071725 0.212580 0.665971
O O4 0.000000 0.245198 0.807386
O O5 0.112018 0.091159 0.185799
O O6 0.000000 0.078003 0.132407
O O7 0.080069 0.000000 0.072064
O O8 0.083125 0.111470 0.007120
O O9 0.500000 0.500000 0.041379
O O10 0.402734 0.441010 0.023686
O O11 0.418751 0.500000 0.181023
O O12 0.880952 0.500000 0.120019
O O13 0.939802 0.598584 0.088800
O O14 0.892931 0.642561 0.619614
O O15 0.826165 0.618028 0.758640
O O16 0.927409 0.277525 0.499190
O O17 0.000000 0.364741 0.549579
O O18 0.000000 0.812277 0.523650
O O19 0.000000 0.000000 0.822519
#
# Coordination Sequence:
#
# PCOD8307973 Si02
#       8
#    16  16   8  16  16  16  16   8
#     4   9  17  31  48  68  97 131 164 193 242 307
#     4   9  16  27  47  75 101 128 164 200 242 291
#     4  11  20  26  41  73 105 118 143 209 267 288
#     4   9  15  26  46  70  98 131 159 190 235 294
#     4  11  18  31  47  69  97 127 165 203 247 296
#     4   9  18  33  48  69 100 130 163 201 244 305
#     4   9  18  31  49  69  92 130 169 196 243 305
#     4   9  16  26  41  71 105 121 147 195 241 289
#
# _framework density 16.205946999999998
#
# number of rings (size 3 to 8) (size 9 to 14) (size 15 to 20)
#    0.000    2.571    2.143    2.143    0.000    3.429 
#    0.000    0.000    0.000   10.286    0.000    0.000 
#    0.000    0.000    0.000    0.000    0.000    0.000 
#
# Total GULP energy -694130.645416 kJ/mol
# GULP energy per Si atom -12395.190097 kJ/mol
# Density = 1.616906 g / cm^3
# Si number density = 16.205947 Si / 1000 Ang^3
#
#
#
# Elastic Constant Matrix: (Units=GPa)
#
#
# Indices 1 2 3 4 5 6 
#
# 1 83.6134 45.8120 53.1509 0.0000 0.0000 0.0000
# 2 45.8120 83.6134 53.1509 0.0000 0.0000 0.0000
# 3 53.1509 53.1509 68.0593 0.0000 0.0000 0.0000
# 4 0.0000 0.0000 0.0000 24.0726 0.0000 0.0000
# 5 0.0000 0.0000 0.0000 0.0000 24.0726 0.0000
# 6 0.0000 0.0000 0.0000 0.0000 0.0000 23.1297
#
#
#
# Elastic Compliance Matrix: (Units=1/GPa)
#
#
# Indices 1 2 3 4 5 6 
#
# 1 0.024001 -0.002453 -0.016828 0.000000 0.000000 0.000000
# 2 -0.002453 0.024001 -0.016828 0.000000 0.000000 0.000000
# 3 -0.016828 -0.016828 0.040976 0.000000 0.000000 0.000000
# 4 0.000000 0.000000 0.000000 0.041541 0.000000 0.000000
# 5 0.000000 0.000000 0.000000 0.000000 0.041541 0.000000
# 6 0.000000 0.000000 0.000000 0.000000 0.000000 0.043234
#
#
# Mechanical properties :
#
#
# Convention : Reuss Voigt Hill
#
# Bulk Modulus (GPa) = 59.66265 59.94595 59.80430
# Shear Modulus (GPa) = 17.05916 19.79979 18.42948
#
# Velocity S-wave (km/s) = 3.24797 3.49916 3.37590
# Velocity P-wave (km/s) = 7.13870 7.30725 7.22346
#
# Compressibility (1/GPa) = 0.01676090
#
# Stress axis : x y z
#
# Youngs Moduli (GPa) = 41.66532 41.66532 24.40453
#
# Poissons Ratio (x) = 0.10222 0.41067
# Poissons Ratio (y) = 0.10222 0.41067
# Poissons Ratio (z) = 0.70112 0.70112
#
# Static dielectric constant tensor:
#      x y z
#    x 2.969940 0.000000 0.000000 
#    y 0.000000 2.969940 0.000000 
#    z 0.000000 0.000000 3.029690 
# 
# 
# High freq. dielectric constant tensor:
#      x y z
#    x 1.602520 0.000000 0.000000 
#    y 0.000000 1.602520 0.000000 
#    z 0.000000 0.000000 1.619500 
# 
# From -- ./inp_files/2166.got.cif
#   From: 2010.03.12/outbox.cif.g09.slc.cpg/sg109_2_cif.got.tgz:2166.got - 2010.04.14 01:55:16.
