data_PCOD8307667
_publ_section_title
;
Structure prediction by ZEFSAII (Michael W. Deem and Ramdas Pophale) SiO2 
 PCOD8307667
Probable space group: I 4 M M
;
_chemical_formula_sum "Si O2"
_cell_formula_units_Z 96
_cell_length_a 19.344141
_cell_length_b 19.344141
_cell_length_c 12.404974
_cell_angle_alpha 90.000000
_cell_angle_beta 90.000000
_cell_angle_gamma 90.000000
_cell_volume 4641.889059
_symmetry_space_group_name_H-M "I 4 M M"
_symmetry_group_IT_number 107
_symmetry_cell_setting 'tetragonal'
loop_
_space_group_symop_operation_xyz
x,y,z
-y,x,z
-x,-y,z
y,-x,z
-x,y,z
x,-y,z
-y,-x,z
y,x,z
1/2+x,1/2+y,1/2+z
1/2-y,1/2+x,1/2+z
1/2-x,1/2-y,1/2+z
1/2+y,1/2-x,1/2+z
1/2-x,1/2+y,1/2+z
1/2+x,1/2-y,1/2+z
1/2-y,1/2-x,1/2+z
1/2+y,1/2+x,1/2+z
loop_
_atom_site_type_symbol
_atom_site_label
_atom_site_fract_x
_atom_site_fract_y
_atom_site_fract_z
Si Si1 0.916820 0.801296 0.543610
Si Si2 0.118643 0.695354 0.728082
Si Si3 0.368562 0.254991 0.820254
Si Si4 0.812188 0.923108 0.116979
Si Si5 0.080409 0.576417 0.073614
Si Si6 0.293092 0.923351 0.953640
O O1 0.874797 0.874797 0.538793
O O2 0.882973 0.756505 0.640497
O O3 0.906052 0.753908 0.436863
O O4 0.000000 0.814324 0.559715
O O5 0.190755 0.680599 0.789553
O O6 0.088664 0.624038 0.681997
O O7 0.071896 0.721274 0.827061
O O8 0.321301 0.321301 0.822066
O O9 0.424368 0.265697 0.725397
O O10 0.882243 0.882243 0.133489
O O11 0.835092 0.000000 0.086165
O O12 0.767209 0.885408 0.021889
O O13 0.096312 0.500000 0.027792
O O14 0.106391 0.630663 0.982603
O O15 0.000000 0.583495 0.104610
O O16 0.291680 0.000000 0.003006
#
# Coordination Sequence:
#
# PCOD8307667 Si02
#       6
#    16  16  16  16  16  16
#     4  11  25  44  67  97 131 172 224 277 331 390
#     4  12  22  38  61  91 125 164 206 259 319 380
#     4  10  22  38  61  90 122 160 203 255 312 373
#     4  10  21  39  62  89 120 156 201 252 311 374
#     4  10  21  36  55  84 122 166 214 260 312 377
#     4  10  21  37  56  81 118 159 199 248 305 365
#
# _framework density 20.681235999999998
#
# number of rings (size 3 to 8) (size 9 to 14) (size 15 to 20)
#    0.000    1.500    1.667    3.500    0.000    3.000 
#    0.000    1.667    0.000    3.000    0.000    2.333 
#    0.000    0.000    0.000    0.000    0.000    0.000 
#
# Total GULP energy -594670.920925 kJ/mol
# GULP energy per Si atom -12388.977519 kJ/mol
# Density = 2.063416 g / cm^3
# Si number density = 20.681236 Si / 1000 Ang^3
#
#
#
# Elastic Constant Matrix: (Units=GPa)
#
#
# Indices 1 2 3 4 5 6 
#
# 1 97.6920 34.1730 40.6702 0.0000 0.0000 0.0000
# 2 34.1730 97.6920 40.6702 0.0000 0.0000 0.0000
# 3 40.6702 40.6702 156.6241 0.0000 0.0000 0.0000
# 4 0.0000 0.0000 0.0000 25.3133 0.0000 0.0000
# 5 0.0000 0.0000 0.0000 0.0000 25.3133 0.0000
# 6 0.0000 0.0000 0.0000 0.0000 0.0000 21.4885
#
#
#
# Elastic Compliance Matrix: (Units=1/GPa)
#
#
# Indices 1 2 3 4 5 6 
#
# 1 0.012387 -0.003357 -0.002345 0.000000 0.000000 0.000000
# 2 -0.003357 0.012387 -0.002345 0.000000 0.000000 0.000000
# 3 -0.002345 -0.002345 0.007602 0.000000 0.000000 0.000000
# 4 0.000000 0.000000 0.000000 0.039505 0.000000 0.000000
# 5 0.000000 0.000000 0.000000 0.000000 0.039505 0.000000
# 6 0.000000 0.000000 0.000000 0.000000 0.000000 0.046536
#
#
# Mechanical properties :
#
#
# Convention : Reuss Voigt Hill
#
# Bulk Modulus (GPa) = 61.41329 64.78165 63.09747
# Shear Modulus (GPa) = 27.86414 30.18935 29.02675
#
# Velocity S-wave (km/s) = 3.67456 3.82481 3.75044
# Velocity P-wave (km/s) = 6.91107 7.13424 7.02354
#
# Compressibility (1/GPa) = 0.01628312
#
# Stress axis : x y z
#
# Youngs Moduli (GPa) = 80.73249 80.73249 131.53689
#
# Poissons Ratio (x) = 0.27100 0.30842
# Poissons Ratio (y) = 0.27100 0.30842
# Poissons Ratio (z) = 0.18930 0.18930
#
# Static dielectric constant tensor:
#      x y z
#    x 3.697550 0.000000 0.000000 
#    y 0.000000 3.697550 0.000000 
#    z 0.000000 0.000000 3.893820 
# 
# 
# High freq. dielectric constant tensor:
#      x y z
#    x 1.804130 0.000000 0.000000 
#    y 0.000000 1.804130 0.000000 
#    z 0.000000 0.000000 1.814080 
# 
# From -- ./inp_files/2436.got.cif
#   From: 2010.03.12/outbox.cif.g09.slc.cpg/sg107_2_cif.got.tgz:2436.got - 2010.04.14 01:49:11.
