data_PCOD8307971
_publ_section_title
;
Structure prediction by ZEFSAII (Michael W. Deem and Ramdas Pophale) SiO2 
 PCOD8307971
Probable space group: I 41 M D
;
_chemical_formula_sum "Si O2"
_cell_formula_units_Z 56
_cell_length_a 14.847775
_cell_length_b 14.847775
_cell_length_c 11.605591
_cell_angle_alpha 90.000000
_cell_angle_beta 90.000000
_cell_angle_gamma 90.000000
_cell_volume 2558.527072
_symmetry_space_group_name_H-M "I 41 M D"
_symmetry_group_IT_number 109
_symmetry_cell_setting 'tetragonal'
loop_
_space_group_symop_operation_xyz
x,y,z
-y,1/2+x,1/4+z
-x,-y,z
y,1/2-x,1/4+z
-x,y,z
x,-y,z
-y,1/2-x,1/4+z
y,1/2+x,1/4+z
1/2+x,1/2+y,1/2+z
1/2-y,x,3/4+z
1/2-x,1/2-y,1/2+z
1/2+y,-x,3/4+z
1/2-x,1/2+y,1/2+z
1/2+x,1/2-y,1/2+z
1/2-y,-x,3/4+z
1/2+y,x,3/4+z
loop_
_atom_site_type_symbol
_atom_site_label
_atom_site_fract_x
_atom_site_fract_y
_atom_site_fract_z
Si Si1 0.801297 0.000000 0.552760
Si Si2 0.000000 0.601381 0.018945
Si Si3 0.669234 0.143290 0.655545
Si Si4 0.398652 0.672185 0.659689
Si Si5 0.105682 0.000000 0.308968
O O1 0.890957 0.000000 0.630646
O O2 0.746616 0.091117 0.585169
O O3 0.830505 0.000000 0.420809
O O4 0.086422 0.650541 0.067979
O O5 0.000000 0.500000 0.060679
O O6 0.679065 0.251111 0.679359
O O7 0.645329 0.094799 0.774743
O O8 0.500000 0.701673 0.698438
O O9 0.367867 0.586712 0.734002
O O10 0.000000 0.000000 0.342201
#
# Coordination Sequence:
#
# PCOD8307971 Si02
#       5
#     8   8  16  16   8
#     4  12  25  45  64 112 144 184 242 294 383 435
#     4  12  22  42  70  94 136 185 227 292 364 428
#     4  12  21  41  70 101 139 180 243 295 351 448
#     4  11  23  44  70 103 137 186 244 296 362 438
#     4  10  26  50  72 102 148 193 243 307 376 442
#
# _framework density 21.887595000000001
#
# number of rings (size 3 to 8) (size 9 to 14) (size 15 to 20)
#    0.000    0.571    7.143    1.286    0.000    3.429 
#    5.143    0.000    0.000    0.000    0.000    0.000 
#    0.000    0.000    0.000    0.000    0.000    0.000 
#
# Total GULP energy -346937.602252 kJ/mol
# GULP energy per Si atom -12390.628652 kJ/mol
# Density = 2.183778 g / cm^3
# Si number density = 21.887595 Si / 1000 Ang^3
#
#
#
# Elastic Constant Matrix: (Units=GPa)
#
#
# Indices 1 2 3 4 5 6 
#
# 1 125.4688 46.1316 50.7197 0.0000 0.0000 0.0000
# 2 46.1316 125.4688 50.7197 0.0000 0.0000 0.0000
# 3 50.7197 50.7197 159.4876 0.0000 0.0000 0.0000
# 4 0.0000 0.0000 0.0000 41.4579 0.0000 0.0000
# 5 0.0000 0.0000 0.0000 0.0000 41.4579 0.0000
# 6 0.0000 0.0000 0.0000 0.0000 0.0000 23.9132
#
#
#
# Elastic Compliance Matrix: (Units=1/GPa)
#
#
# Indices 1 2 3 4 5 6 
#
# 1 0.009891 -0.002714 -0.002282 0.000000 0.000000 0.000000
# 2 -0.002714 0.009891 -0.002282 0.000000 0.000000 0.000000
# 3 -0.002282 -0.002282 0.007722 0.000000 0.000000 0.000000
# 4 0.000000 0.000000 0.000000 0.024121 0.000000 0.000000
# 5 0.000000 0.000000 0.000000 0.000000 0.024121 0.000000
# 6 0.000000 0.000000 0.000000 0.000000 0.000000 0.041818
#
#
# Mechanical properties :
#
#
# Convention : Reuss Voigt Hill
#
# Bulk Modulus (GPa) = 77.24507 78.39635 77.82071
# Shear Modulus (GPa) = 36.64762 38.88943 37.76852
#
# Velocity S-wave (km/s) = 4.09633 4.21976 4.15850
# Velocity P-wave (km/s) = 7.59878 7.72252 7.66090
#
# Compressibility (1/GPa) = 0.01294581
#
# Stress axis : x y z
#
# Youngs Moduli (GPa) = 101.10679 101.10679 129.50534
#
# Poissons Ratio (x) = 0.27439 0.29557
# Poissons Ratio (y) = 0.27439 0.29557
# Poissons Ratio (z) = 0.23075 0.23075
#
# Static dielectric constant tensor:
#      x y z
#    x 3.901010 0.000000 0.000000 
#    y 0.000000 3.901010 0.000000 
#    z 0.000000 0.000000 3.879730 
# 
# 
# High freq. dielectric constant tensor:
#      x y z
#    x 1.857030 0.000000 0.000000 
#    y 0.000000 1.857030 0.000000 
#    z 0.000000 0.000000 1.862740 
# 
# From -- ./inp_files/1785.got.cif
#   From: 2010.03.12/outbox.cif.g09.slc.cpg/sg109_1_cif.got.tgz:1785.got - 2010.04.14 01:55:16.
