data_PCOD8307950
_publ_section_title
;
Structure prediction by ZEFSAII (Michael W. Deem and Ramdas Pophale) SiO2 
 PCOD8307950
Probable space group: I 41 M D
;
_chemical_formula_sum "Si O2"
_cell_formula_units_Z 32
_cell_length_a 7.577231
_cell_length_b 7.577231
_cell_length_c 27.791002
_cell_angle_alpha 90.000000
_cell_angle_beta 90.000000
_cell_angle_gamma 90.000000
_cell_volume 1595.604529
_symmetry_space_group_name_H-M "I 41 M D"
_symmetry_group_IT_number 109
_symmetry_cell_setting 'tetragonal'
loop_
_space_group_symop_operation_xyz
x,y,z
-y,1/2+x,1/4+z
-x,-y,z
y,1/2-x,1/4+z
-x,y,z
x,-y,z
-y,1/2-x,1/4+z
y,1/2+x,1/4+z
1/2+x,1/2+y,1/2+z
1/2-y,x,3/4+z
1/2-x,1/2-y,1/2+z
1/2+y,-x,3/4+z
1/2-x,1/2+y,1/2+z
1/2+x,1/2-y,1/2+z
1/2-y,-x,3/4+z
1/2+y,x,3/4+z
loop_
_atom_site_type_symbol
_atom_site_label
_atom_site_fract_x
_atom_site_fract_y
_atom_site_fract_z
Si Si1 0.500000 0.791860 0.219280
Si Si2 0.201852 0.300985 0.398454
Si Si3 0.290684 0.500000 0.076825
O O1 0.673338 0.727456 0.190602
O O2 0.500000 0.711713 0.272793
O O3 0.500000 0.000000 0.223820
O O4 0.214879 0.500000 0.418170
O O5 0.323022 0.279928 0.351747
O O6 0.000000 0.253587 0.383999
O O7 0.500000 0.500000 0.077576
#
# Coordination Sequence:
#
# PCOD8307950 Si02
#       3
#     8  16   8
#     4   9  20  38  62  90 120 162 206 248 308 359
#     4  10  21  40  61  84 122 161 199 253 299 362
#     4  11  21  37  65  92 119 163 204 253 309 355
#
# _framework density 20.055095999999999
#
# number of rings (size 3 to 8) (size 9 to 14) (size 15 to 20)
#    0.000    2.000    2.500    0.750    0.000    2.000 
#    9.000    5.000    0.000    0.000    0.000    0.000 
#    0.000    0.000    0.000    0.000    0.000    0.000 
#
# Total GULP energy -198406.314031 kJ/mol
# GULP energy per Si atom -12400.394627 kJ/mol
# Density = 2.000945 g / cm^3
# Si number density = 20.055096 Si / 1000 Ang^3
#
#
#
# Elastic Constant Matrix: (Units=GPa)
#
#
# Indices 1 2 3 4 5 6 
#
# 1 120.7416 33.9001 65.4100 0.0000 0.0000 0.0000
# 2 33.9001 120.7416 65.4100 0.0000 0.0000 0.0000
# 3 65.4100 65.4100 183.4899 0.0000 0.0000 0.0000
# 4 0.0000 0.0000 0.0000 15.7512 0.0000 0.0000
# 5 0.0000 0.0000 0.0000 0.0000 15.7512 0.0000
# 6 0.0000 0.0000 0.0000 0.0000 0.0000 25.1286
#
#
#
# Elastic Compliance Matrix: (Units=1/GPa)
#
#
# Indices 1 2 3 4 5 6 
#
# 1 0.010387 -0.001128 -0.003300 0.000000 0.000000 0.000000
# 2 -0.001128 0.010387 -0.003300 0.000000 0.000000 0.000000
# 3 -0.003300 -0.003300 0.007803 0.000000 0.000000 0.000000
# 4 0.000000 0.000000 0.000000 0.063487 0.000000 0.000000
# 5 0.000000 0.000000 0.000000 0.000000 0.063487 0.000000
# 6 0.000000 0.000000 0.000000 0.000000 0.000000 0.039795
#
#
# Mechanical properties :
#
#
# Convention : Reuss Voigt Hill
#
# Bulk Modulus (GPa) = 76.22949 83.82370 80.02659
# Shear Modulus (GPa) = 23.23659 28.67640 25.95650
#
# Velocity S-wave (km/s) = 3.40757 3.78548 3.60148
# Velocity P-wave (km/s) = 7.31947 7.80986 7.56864
#
# Compressibility (1/GPa) = 0.01311828
#
# Stress axis : x y z
#
# Youngs Moduli (GPa) = 96.27484 96.27484 128.15603
#
# Poissons Ratio (x) = 0.10863 0.42298
# Poissons Ratio (y) = 0.10863 0.42298
# Poissons Ratio (z) = 0.31775 0.31775
#
# Static dielectric constant tensor:
#      x y z
#    x 3.745670 0.000000 0.000000 
#    y 0.000000 3.745670 0.000000 
#    z 0.000000 0.000000 3.795280 
# 
# 
# High freq. dielectric constant tensor:
#      x y z
#    x 1.789950 0.000000 0.000000 
#    y 0.000000 1.789950 0.000000 
#    z 0.000000 0.000000 1.767030 
# 
# From -- ./inp_files/3356.got.cif
#   From: 2010.03.12/outbox.cif.g09.slc.cpg/sg109_2_cif.got.tgz:3356.got - 2010.04.14 01:55:16.
