data_PCOD8307975
_publ_section_title
;
Structure prediction by ZEFSAII (Michael W. Deem and Ramdas Pophale) SiO2 
 PCOD8307975
Probable space group: I 41 M D
;
_chemical_formula_sum "Si O2"
_cell_formula_units_Z 96
_cell_length_a 17.730679
_cell_length_b 17.730679
_cell_length_c 15.666253
_cell_angle_alpha 90.000000
_cell_angle_beta 90.000000
_cell_angle_gamma 90.000000
_cell_volume 4925.109272
_symmetry_space_group_name_H-M "I 41 M D"
_symmetry_group_IT_number 109
_symmetry_cell_setting 'tetragonal'
loop_
_space_group_symop_operation_xyz
x,y,z
-y,1/2+x,1/4+z
-x,-y,z
y,1/2-x,1/4+z
-x,y,z
x,-y,z
-y,1/2-x,1/4+z
y,1/2+x,1/4+z
1/2+x,1/2+y,1/2+z
1/2-y,x,3/4+z
1/2-x,1/2-y,1/2+z
1/2+y,-x,3/4+z
1/2-x,1/2+y,1/2+z
1/2+x,1/2-y,1/2+z
1/2-y,-x,3/4+z
1/2+y,x,3/4+z
loop_
_atom_site_type_symbol
_atom_site_label
_atom_site_fract_x
_atom_site_fract_y
_atom_site_fract_z
Si Si1 0.412173 0.000000 0.589561
Si Si2 0.274125 0.149618 0.988619
Si Si3 0.775842 0.086734 0.169131
Si Si4 0.679289 0.276615 0.237779
Si Si5 0.669131 0.871822 0.317661
Si Si6 0.586386 0.162345 0.607037
Si Si7 0.414229 0.000000 0.401783
O O1 0.391612 0.077239 0.640208
O O2 0.500000 0.000000 0.573644
O O3 0.372291 0.000000 0.494720
O O4 0.265690 0.118677 0.084388
O O5 0.244272 0.233645 0.979142
O O6 0.360451 0.153474 0.951051
O O7 0.223002 0.095453 0.931052
O O8 0.712484 0.087215 0.241541
O O9 0.803579 0.000000 0.155242
O O10 0.637770 0.211442 0.292921
O O11 0.640072 0.273146 0.145941
O O12 0.677759 0.360027 0.276793
O O13 0.602341 0.925587 0.347046
O O14 0.500000 0.165342 0.574594
O O15 0.500000 0.000000 0.423140
#
# Coordination Sequence:
#
# PCOD8307975 Si02
#       7
#     8  16  16  16  16  16   8
#     4   9  20  36  58  86 125 161 191 236 311 383
#     4  11  21  41  62  92 125 158 218 267 308 377
#     4  11  22  39  66  91 121 168 214 266 320 372
#     4  11  20  37  63  91 120 159 209 257 303 376
#     4  11  21  39  60  87 125 156 209 254 306 371
#     4  11  21  38  61  90 125 161 199 251 314 373
#     4  11  22  38  56  86 131 163 191 254 321 371
#
# _framework density 19.491954
#
# number of rings (size 3 to 8) (size 9 to 14) (size 15 to 20)
#    0.000    1.167    5.833    3.500    0.000    0.000 
#    4.500    0.833    0.000    1.500    0.000    0.000 
#    0.000    0.000    0.000    0.000    0.000    0.000 
#
# Total GULP energy -594708.327290 kJ/mol
# GULP energy per Si atom -12389.756819 kJ/mol
# Density = 1.944759 g / cm^3
# Si number density = 19.491954 Si / 1000 Ang^3
#
#
#
# Elastic Constant Matrix: (Units=GPa)
#
#
# Indices 1 2 3 4 5 6 
#
# 1 105.2440 35.0035 34.2038 0.0000 0.0000 0.0000
# 2 35.0035 105.2440 34.2038 0.0000 0.0000 0.0000
# 3 34.2038 34.2038 110.4100 0.0000 0.0000 0.0000
# 4 0.0000 0.0000 0.0000 24.5336 0.0000 0.0000
# 5 0.0000 0.0000 0.0000 0.0000 24.5336 0.0000
# 6 0.0000 0.0000 0.0000 0.0000 0.0000 26.6953
#
#
#
# Elastic Compliance Matrix: (Units=1/GPa)
#
#
# Indices 1 2 3 4 5 6 
#
# 1 0.011318 -0.002919 -0.002602 0.000000 0.000000 0.000000
# 2 -0.002919 0.011318 -0.002602 0.000000 0.000000 0.000000
# 3 -0.002602 -0.002602 0.010669 0.000000 0.000000 0.000000
# 4 0.000000 0.000000 0.000000 0.040760 0.000000 0.000000
# 5 0.000000 0.000000 0.000000 0.000000 0.040760 0.000000
# 6 0.000000 0.000000 0.000000 0.000000 0.000000 0.037460
#
#
# Mechanical properties :
#
#
# Convention : Reuss Voigt Hill
#
# Bulk Modulus (GPa) = 58.61669 58.63558 58.62613
# Shear Modulus (GPa) = 28.69959 29.65161 29.17560
#
# Velocity S-wave (km/s) = 3.84132 3.90452 3.87305
# Velocity P-wave (km/s) = 7.05775 7.10452 7.08118
#
# Compressibility (1/GPa) = 0.01705999
#
# Stress axis : x y z
#
# Youngs Moduli (GPa) = 88.35388 88.35388 93.72666
#
# Poissons Ratio (x) = 0.25788 0.24388
# Poissons Ratio (y) = 0.25788 0.24388
# Poissons Ratio (z) = 0.22990 0.22990
#
# Static dielectric constant tensor:
#      x y z
#    x 3.782390 0.000000 0.000000 
#    y 0.000000 3.782390 0.000000 
#    z 0.000000 0.000000 3.671570 
# 
# 
# High freq. dielectric constant tensor:
#      x y z
#    x 1.749820 0.000000 0.000000 
#    y 0.000000 1.749820 0.000000 
#    z 0.000000 0.000000 1.763640 
# 
# From -- ./inp_files/3162.got.cif
#   From: 2010.03.12/outbox.cif.g09.slc.cpg/sg109_2_cif.got.tgz:3162.got - 2010.04.14 01:55:16.
