data_PCOD8307808
_publ_section_title
;
Structure prediction by ZEFSAII (Michael W. Deem and Ramdas Pophale) SiO2 
 PCOD8307808
Probable space group: I 4 C M
;
_chemical_formula_sum "Si O2"
_cell_formula_units_Z 84
_cell_length_a 21.535312
_cell_length_b 21.535312
_cell_length_c 10.156050
_cell_angle_alpha 90.000000
_cell_angle_beta 90.000000
_cell_angle_gamma 90.000000
_cell_volume 4710.067885
_symmetry_space_group_name_H-M "I 4 C M"
_symmetry_group_IT_number 108
_symmetry_cell_setting 'tetragonal'
loop_
_space_group_symop_operation_xyz
x,y,z
-y,x,z
-x,-y,z
y,-x,z
-x,y,1/2+z
x,-y,1/2+z
-y,-x,1/2+z
y,x,1/2+z
1/2+x,1/2+y,1/2+z
1/2-y,1/2+x,1/2+z
1/2-x,1/2-y,1/2+z
1/2+y,1/2-x,1/2+z
1/2-x,1/2+y,z
1/2+x,1/2-y,z
1/2-y,1/2-x,z
1/2+y,1/2+x,z
loop_
_atom_site_type_symbol
_atom_site_label
_atom_site_fract_x
_atom_site_fract_y
_atom_site_fract_z
Si Si1 0.593251 0.906750 0.087721
Si Si2 0.574459 0.223823 0.706486
Si Si3 0.848716 0.755789 0.462445
Si Si4 0.246161 0.354872 0.973180
Si Si5 0.094334 0.594334 0.786522
Si Si6 0.066052 0.270146 0.219665
Si Si7 0.500000 0.000000 0.687164
O O1 0.567169 0.846679 0.160465
O O2 0.541013 0.958987 0.089401
O O3 0.610013 0.889988 0.937844
O O4 0.616157 0.261185 0.601832
O O5 0.607928 0.224963 0.845855
O O6 0.505508 0.252221 0.720933
O O7 0.805334 0.694667 0.458296
O O8 0.808790 0.817621 0.442098
O O9 0.899667 0.755085 0.348420
O O10 0.192544 0.307457 0.018052
O O11 0.259044 0.402267 0.091186
O O12 0.069769 0.655377 0.713015
O O13 0.041899 0.541899 0.782140
#
# Coordination Sequence:
#
# PCOD8307808 Si02
#       7
#     8  16  16  16   8  16   4
#     4  12  23  38  51  78 114 157 204 241 273 309
#     4  12  22  37  57  81 116 148 193 239 281 332
#     4  11  21  40  58  80 114 150 191 243 298 331
#     4  11  23  36  60  84 108 150 197 237 292 347
#     4  12  23  38  51  78 114 157 204 241 273 309
#     4  12  22  37  57  81 116 148 193 239 281 332
#     4  12  26  36  52  74 116 174 204 240 254 306
#
# _framework density 17.834139
#
# number of rings (size 3 to 8) (size 9 to 14) (size 15 to 20)
#    0.000    0.381    7.619    2.571    0.000    3.048 
#    3.429    0.000    0.000    0.000    0.000    0.000 
#    0.000   53.333    0.000    0.000    0.000    0.000 
#
# Total GULP energy -521021.281369 kJ/mol
# GULP energy per Si atom -12405.268604 kJ/mol
# Density = 1.779355 g / cm^3
# Si number density = 17.834139 Si / 1000 Ang^3
#
#
#
# Elastic Constant Matrix: (Units=GPa)
#
#
# Indices 1 2 3 4 5 6 
#
# 1 78.0293 30.6398 13.2626 0.0000 0.0000 0.0006
# 2 30.6398 78.0293 13.2626 0.0000 0.0000 -0.0006
# 3 13.2626 13.2626 84.3527 0.0000 0.0000 0.0000
# 4 0.0000 0.0000 0.0000 13.4917 0.0000 0.0000
# 5 0.0000 0.0000 0.0000 0.0000 13.4917 0.0000
# 6 0.0006 -0.0006 0.0000 0.0000 0.0000 25.0012
#
#
#
# Elastic Compliance Matrix: (Units=1/GPa)
#
#
# Indices 1 2 3 4 5 6 
#
# 1 0.015336 -0.005766 -0.001505 0.000000 0.000000 0.000000
# 2 -0.005766 0.015336 -0.001505 0.000000 0.000000 0.000000
# 3 -0.001505 -0.001505 0.012328 0.000000 0.000000 0.000000
# 4 0.000000 0.000000 0.000000 0.074120 0.000000 0.000000
# 5 0.000000 0.000000 0.000000 0.000000 0.074120 0.000000
# 6 0.000000 0.000000 0.000000 0.000000 0.000000 0.039998
#
#
# Mechanical properties :
#
#
# Convention : Reuss Voigt Hill
#
# Bulk Modulus (GPa) = 39.29464 39.41568 39.35516
# Shear Modulus (GPa) = 19.43483 22.61335 21.02409
#
# Velocity S-wave (km/s) = 3.30472 3.56474 3.43719
# Velocity P-wave (km/s) = 6.05333 6.25239 6.15366
#
# Compressibility (1/GPa) = 0.02544876
#
# Stress axis : x y z
#
# Youngs Moduli (GPa) = 65.20768 65.20768 81.11543
#
# Poissons Ratio (x) = 0.37599 0.12205
# Poissons Ratio (y) = 0.37599 0.12205
# Poissons Ratio (z) = 0.09811 0.09811
#
# Static dielectric constant tensor:
#      x y z
#    x 3.261230 0.000000 0.000000 
#    y 0.000000 3.261230 0.000000 
#    z 0.000000 0.000000 3.371660 
# 
# 
# High freq. dielectric constant tensor:
#      x y z
#    x 1.676150 0.000000 0.000000 
#    y 0.000000 1.676150 0.000000 
#    z 0.000000 0.000000 1.704810 
# 
# From -- ./inp_files/744.got.cif
#   From: 2010.03.12/outbox.cif.g09.slc.cpg/sg108_1_cif.got.tgz:744.got - 2010.04.14 01:53:11.
