data_PCOD8307681
_publ_section_title
;
Structure prediction by ZEFSAII (Michael W. Deem and Ramdas Pophale) SiO2 
 PCOD8307681
Probable space group: I 4 M M
;
_chemical_formula_sum "Si O2"
_cell_formula_units_Z 96
_cell_length_a 28.303902
_cell_length_b 28.303902
_cell_length_c 10.056904
_cell_angle_alpha 90.000000
_cell_angle_beta 90.000000
_cell_angle_gamma 90.000000
_cell_volume 8056.695097
_symmetry_space_group_name_H-M "I 4 M M"
_symmetry_group_IT_number 107
_symmetry_cell_setting 'tetragonal'
loop_
_space_group_symop_operation_xyz
x,y,z
-y,x,z
-x,-y,z
y,-x,z
-x,y,z
x,-y,z
-y,-x,z
y,x,z
1/2+x,1/2+y,1/2+z
1/2-y,1/2+x,1/2+z
1/2-x,1/2-y,1/2+z
1/2+y,1/2-x,1/2+z
1/2-x,1/2+y,1/2+z
1/2+x,1/2-y,1/2+z
1/2-y,1/2-x,1/2+z
1/2+y,1/2+x,1/2+z
loop_
_atom_site_type_symbol
_atom_site_label
_atom_site_fract_x
_atom_site_fract_y
_atom_site_fract_z
Si Si1 0.737371 0.183136 0.548550
Si Si2 0.554064 0.631029 0.551706
Si Si3 0.891095 0.811748 0.250750
Si Si4 0.237371 0.683136 0.750603
Si Si5 0.131029 0.054064 0.747450
Si Si6 0.811749 0.108904 0.548407
O O1 0.776585 0.223416 0.557277
O O2 0.694586 0.194585 0.649576
O O3 0.716434 0.180986 0.399577
O O4 0.761485 0.132901 0.585714
O O5 0.500000 0.617498 0.579598
O O6 0.584651 0.584651 0.585867
O O7 0.568482 0.675281 0.644576
O O8 0.561952 0.646902 0.399578
O O9 0.851122 0.851122 0.245582
O O10 0.867100 0.761484 0.213441
O O11 0.912877 0.809456 0.399578
O O12 0.276585 0.723416 0.741874
O O13 0.084651 0.084651 0.713290
O O14 0.175282 0.068482 0.654582
O O15 0.117498 0.000000 0.719560
O O16 0.851125 0.148876 0.553578
#
# Coordination Sequence:
#
# PCOD8307681 Si02
#       6
#    16  16  16  16  16  16
#     4   8  13  20  30  45  63  80  96 113 135 167
#     4   9  17  27  37  48  60  75  98 129 165 202
#     4   8  14  24  35  46  61  79  97 118 146 181
#     4   8  13  20  30  45  63  80  96 113 135 167
#     4   9  17  27  37  48  60  75  98 129 165 202
#     4   8  14  24  35  46  61  79  97 118 146 181
#
# _framework density 11.915554999999999
#
# number of rings (size 3 to 8) (size 9 to 14) (size 15 to 20)
#    0.000    3.667    0.000    2.000    0.000    2.333 
#    0.000    8.333    0.000    0.000    0.000    4.667 
#    0.000    0.000    0.000    0.000    0.000    0.000 
#
# Total GULP energy -594783.970453 kJ/mol
# GULP energy per Si atom -12391.332718 kJ/mol
# Density = 1.188843 g / cm^3
# Si number density = 11.915555 Si / 1000 Ang^3
#
#
#
# Elastic Constant Matrix: (Units=GPa)
#
#
# Indices 1 2 3 4 5 6 
#
# 1 38.6861 37.2818 44.2577 0.0000 0.0000 0.0000
# 2 37.2818 38.6861 44.2577 0.0000 0.0000 0.0000
# 3 44.2577 44.2577 85.6462 0.0000 0.0000 0.0000
# 4 0.0000 0.0000 0.0000 17.9148 0.0000 0.0000
# 5 0.0000 0.0000 0.0000 0.0000 17.9148 0.0000
# 6 0.0000 0.0000 0.0000 0.0000 0.0000 13.9179
#
#
#
# Elastic Compliance Matrix: (Units=1/GPa)
#
#
# Indices 1 2 3 4 5 6 
#
# 1 0.372586 -0.339504 -0.017095 0.000000 0.000000 0.000000
# 2 -0.339504 0.372586 -0.017095 0.000000 0.000000 0.000000
# 3 -0.017095 -0.017095 0.029344 0.000000 0.000000 0.000000
# 4 0.000000 0.000000 0.000000 0.055820 0.000000 0.000000
# 5 0.000000 0.000000 0.000000 0.000000 0.055820 0.000000
# 6 0.000000 0.000000 0.000000 0.000000 0.000000 0.071850
#
#
# Mechanical properties :
#
#
# Convention : Reuss Voigt Hill
#
# Bulk Modulus (GPa) = 36.86304 46.06807 41.46556
# Shear Modulus (GPa) = 2.91641 12.43093 7.67367
#
# Velocity S-wave (km/s) = 1.56617 3.23345 2.54048
# Velocity P-wave (km/s) = 5.85445 7.25853 6.59397
#
# Compressibility (1/GPa) = 0.02712744
#
# Stress axis : x y z
#
# Youngs Moduli (GPa) = 2.68394 2.68394 34.07850
#
# Poissons Ratio (x) = 0.91121 0.58258
# Poissons Ratio (y) = 0.91121 0.58258
# Poissons Ratio (z) = 0.04588 0.04588
#
# Static dielectric constant tensor:
#      x y z
#    x 2.342870 0.000000 0.000000 
#    y 0.000000 2.342870 0.000000 
#    z 0.000000 0.000000 2.729280 
# 
# 
# High freq. dielectric constant tensor:
#      x y z
#    x 1.413080 0.000000 0.000000 
#    y 0.000000 1.413080 0.000000 
#    z 0.000000 0.000000 1.464380 
# 
# From -- ./inp_files/2525.got.cif
#   From: 2010.03.12/outbox.cif.g09.slc.cpg/sg107_2_cif.got.tgz:2525.got - 2010.04.14 01:49:11.
