data_PCOD8307016
_publ_section_title
;
Structure prediction by ZEFSAII (Michael W. Deem and Ramdas Pophale) SiO2 
 PCOD8307016
Probable space group: P 4 C C
;
_chemical_formula_sum "Si O2"
_cell_formula_units_Z 44
_cell_length_a 8.379310
_cell_length_b 8.379310
_cell_length_c 29.136673
_cell_angle_alpha 90.000000
_cell_angle_beta 90.000000
_cell_angle_gamma 90.000000
_cell_volume 2045.768445
_symmetry_space_group_name_H-M "P 4 C C"
_symmetry_group_IT_number 103
_symmetry_cell_setting 'tetragonal'
loop_
_space_group_symop_operation_xyz
x,y,z
-y,x,z
-x,-y,z
y,-x,z
-x,y,1/2+z
x,-y,1/2+z
-y,-x,1/2+z
y,x,1/2+z
loop_
_atom_site_type_symbol
_atom_site_label
_atom_site_fract_x
_atom_site_fract_y
_atom_site_fract_z
Si Si1 0.753699 0.087751 0.673740
Si Si2 0.500000 0.000000 0.002202
Si Si3 0.246301 0.912249 0.830665
Si Si4 0.918445 0.751543 0.934989
Si Si5 0.918445 0.751543 0.569415
Si Si6 0.248870 0.580570 0.252202
O O1 0.693012 0.105451 0.621562
O O2 0.611821 0.141814 0.707136
O O3 0.905811 0.199445 0.683425
O O4 0.393631 0.115887 0.034717
O O5 0.606369 0.115887 0.969687
O O6 0.306988 0.894549 0.882843
O O7 0.388179 0.858186 0.797269
O O8 0.094189 0.800555 0.820980
O O9 0.101111 0.802611 0.944702
O O10 0.101111 0.802611 0.559703
O O11 0.301378 0.398919 0.252202
#
# Coordination Sequence:
#
# PCOD8307016 Si02
#       6
#     8   4   8   8   8   8
#     4   9  19  37  60  83 108 144 193 239 274 320
#     4  12  20  30  60  88 108 142 184 226 288 340
#     4   9  19  37  60  83 108 144 193 239 274 320
#     4   9  20  38  58  83 114 146 187 236 276 323
#     4   9  20  38  58  83 114 146 187 236 276 323
#     4  11  24  37  52  82 122 155 182 223 284 348
#
# _framework density 21.507812000000001
#
# number of rings (size 3 to 8) (size 9 to 14) (size 15 to 20)
#    0.000    2.364    0.000    4.364    0.000   11.636 
#    0.000    0.000    0.000    8.727    0.000    0.000 
#    0.000    0.000    0.000    0.000    0.000    0.000 
#
# Total GULP energy -545597.896907 kJ/mol
# GULP energy per Si atom -12399.952202 kJ/mol
# Density = 2.145886 g / cm^3
# Si number density = 21.507812 Si / 1000 Ang^3
#
#
#
# Elastic Constant Matrix: (Units=GPa)
#
#
# Indices 1 2 3 4 5 6 
#
# 1 71.0598 13.8104 55.5004 0.0000 0.0000 0.0000
# 2 13.8104 71.0598 55.5004 0.0000 0.0000 0.0000
# 3 55.5004 55.5004 157.7023 0.0000 0.0000 0.0000
# 4 0.0000 0.0000 0.0000 39.9006 0.0000 0.0000
# 5 0.0000 0.0000 0.0000 0.0000 39.9006 0.0000
# 6 0.0000 0.0000 0.0000 0.0000 0.0000 26.0188
#
#
#
# Elastic Compliance Matrix: (Units=1/GPa)
#
#
# Indices 1 2 3 4 5 6 
#
# 1 0.019649 0.002182 -0.007683 0.000000 0.000000 0.000000
# 2 0.002182 0.019649 -0.007683 0.000000 0.000000 0.000000
# 3 -0.007683 -0.007683 0.011749 0.000000 0.000000 0.000000
# 4 0.000000 0.000000 0.000000 0.025062 0.000000 0.000000
# 5 0.000000 0.000000 0.000000 0.000000 0.025062 0.000000
# 6 0.000000 0.000000 0.000000 0.000000 0.000000 0.038434
#
#
# Mechanical properties :
#
#
# Convention : Reuss Voigt Hill
#
# Bulk Modulus (GPa) = 40.51999 61.04937 50.78468
# Shear Modulus (GPa) = 28.70241 32.83135 30.76688
#
# Velocity S-wave (km/s) = 3.65706 3.91126 3.78630
# Velocity P-wave (km/s) = 6.05910 6.98883 6.54050
#
# Compressibility (1/GPa) = 0.02467917
#
# Stress axis : x y z
#
# Youngs Moduli (GPa) = 50.89200 50.89200 85.11381
#
# Poissons Ratio (x) = -0.11105 0.65395
# Poissons Ratio (y) = -0.11105 0.65395
# Poissons Ratio (z) = 0.39101 0.39101
#
# Static dielectric constant tensor:
#      x y z
#    x 3.652530 0.000000 0.000000 
#    y 0.000000 3.652530 0.000000 
#    z 0.000000 0.000000 4.070130 
# 
# 
# High freq. dielectric constant tensor:
#      x y z
#    x 1.823130 0.000000 0.000000 
#    y 0.000000 1.823130 0.000000 
#    z 0.000000 0.000000 1.866670 
# 
# From -- ./inp_files/1528.got.cif
#   From: 2010.03.12/outbox.cif.g09.slc.cpg/sg103_cif.got.tgz:1528.got - 2010.04.14 01:42:52.
