data_PCOD8307147
_publ_section_title
;
Structure prediction by ZEFSAII (Michael W. Deem and Ramdas Pophale) SiO2 
 PCOD8307147
Probable space group: P 42 M C
;
_chemical_formula_sum "Si O2"
_cell_formula_units_Z 64
_cell_length_a 19.609564
_cell_length_b 19.609564
_cell_length_c 8.850752
_cell_angle_alpha 90.000000
_cell_angle_beta 90.000000
_cell_angle_gamma 90.000000
_cell_volume 3403.423923
_symmetry_space_group_name_H-M "P 42 M C"
_symmetry_group_IT_number 105
_symmetry_cell_setting 'tetragonal'
loop_
_space_group_symop_operation_xyz
x,y,z
-y,x,1/2+z
-x,-y,z
y,-x,1/2+z
-x,y,z
x,-y,z
-y,-x,1/2+z
y,x,1/2+z
loop_
_atom_site_type_symbol
_atom_site_label
_atom_site_fract_x
_atom_site_fract_y
_atom_site_fract_z
Si Si1 0.075705 0.285553 0.955040
Si Si2 0.180870 0.923151 0.917092
Si Si3 0.577090 0.333423 0.946686
Si Si4 0.144809 0.924198 0.597437
Si Si5 0.078748 0.310473 0.602207
Si Si6 0.691904 0.786200 0.618379
Si Si7 0.213901 0.676833 0.474751
Si Si8 0.682495 0.576202 0.093864
O O1 0.084843 0.302111 0.779909
O O2 0.000000 0.312185 0.008843
O O3 0.077340 0.204335 0.973625
O O4 0.137300 0.316919 0.051622
O O5 0.170449 0.887665 0.753044
O O6 0.198163 0.000000 0.878571
O O7 0.114925 0.918158 0.023488
O O8 0.243320 0.894754 0.012956
O O9 0.500000 0.332079 0.009530
O O10 0.578327 0.336479 0.767956
O O11 0.616134 0.266685 0.007014
O O12 0.615440 0.400753 0.003828
O O13 0.118259 0.000000 0.632436
O O14 0.142231 0.355825 0.542190
O O15 0.000000 0.332325 0.559454
O O16 0.759162 0.745850 0.559635
O O17 0.625117 0.746435 0.559629
O O18 0.694538 0.792499 0.798442
O O19 0.702541 0.500000 0.042233
#
# Coordination Sequence:
#
# PCOD8307147 Si02
#       8
#     8   8   8   8   8   8   8   8
#     4  10  20  33  49  69  94 123 158 204 254 301
#     4  10  20  32  45  61  83 113 150 192 240 296
#     4   9  19  35  54  79 110 142 175 208 244 289
#     4  10  20  32  45  61  83 113 150 192 240 296
#     4  10  20  33  49  69  94 123 158 204 254 301
#     4  10  19  32  52  75 101 133 169 210 253 300
#     4  10  19  32  52  75 101 133 169 210 253 300
#     4   9  19  35  54  79 110 142 175 208 244 289
#
# _framework density 18.804592
#
# number of rings (size 3 to 8) (size 9 to 14) (size 15 to 20)
#    0.000    2.250    0.000    3.000    0.000    5.000 
#    0.000    2.500    0.000    0.750    0.000    5.250 
#    0.000    0.000    0.000    0.000    0.000    0.000 
#
# Total GULP energy -792950.387497 kJ/mol
# GULP energy per Si atom -12389.849805 kJ/mol
# Density = 1.876179 g / cm^3
# Si number density = 18.804592 Si / 1000 Ang^3
#
#
#
# Elastic Constant Matrix: (Units=GPa)
#
#
# Indices 1 2 3 4 5 6 
#
# 1 97.0503 26.3764 25.1815 0.0000 0.0000 0.0000
# 2 26.3764 97.0503 25.1815 0.0000 0.0000 0.0000
# 3 25.1815 25.1815 65.2248 0.0000 0.0000 0.0000
# 4 0.0000 0.0000 0.0000 24.5299 0.0000 0.0000
# 5 0.0000 0.0000 0.0000 0.0000 24.5299 0.0000
# 6 0.0000 0.0000 0.0000 0.0000 0.0000 17.5896
#
#
#
# Elastic Compliance Matrix: (Units=1/GPa)
#
#
# Indices 1 2 3 4 5 6 
#
# 1 0.011883 -0.002266 -0.003713 0.000000 0.000000 0.000000
# 2 -0.002266 0.011883 -0.003713 0.000000 0.000000 0.000000
# 3 -0.003713 -0.003713 0.018198 0.000000 0.000000 0.000000
# 4 0.000000 0.000000 0.000000 0.040767 0.000000 0.000000
# 5 0.000000 0.000000 0.000000 0.000000 0.040767 0.000000
# 6 0.000000 0.000000 0.000000 0.000000 0.000000 0.056852
#
#
# Mechanical properties :
#
#
# Convention : Reuss Voigt Hill
#
# Bulk Modulus (GPa) = 44.28503 45.86713 45.07608
# Shear Modulus (GPa) = 24.12422 25.50229 24.81325
#
# Velocity S-wave (km/s) = 3.58563 3.68662 3.63648
# Velocity P-wave (km/s) = 6.38307 6.52426 6.45405
#
# Compressibility (1/GPa) = 0.02258099
#
# Stress axis : x y z
#
# Youngs Moduli (GPa) = 84.15225 84.15225 54.94978
#
# Poissons Ratio (x) = 0.19071 0.20402
# Poissons Ratio (y) = 0.19071 0.20402
# Poissons Ratio (z) = 0.31244 0.31244
#
# Static dielectric constant tensor:
#      x y z
#    x 3.479500 0.000000 0.000000 
#    y 0.000000 3.479500 0.000000 
#    z 0.000000 0.000000 3.535100 
# 
# 
# High freq. dielectric constant tensor:
#      x y z
#    x 1.712730 0.000000 0.000000 
#    y 0.000000 1.712730 0.000000 
#    z 0.000000 0.000000 1.742020 
# 
# From -- ./inp_files/1205.got.cif
#   From: 2010.03.12/outbox.cif.g09.slc.cpg/sg105_1_cif.got.tgz:1205.got - 2010.04.14 01:45:32.
