data_PCOD8307448
_publ_section_title
;
Structure prediction by ZEFSAII (Michael W. Deem and Ramdas Pophale) SiO2 
 PCOD8307448
Probable space group: P 42 B C
;
_chemical_formula_sum "Si O2"
_cell_formula_units_Z 60
_cell_length_a 15.136241
_cell_length_b 15.136241
_cell_length_c 12.541459
_cell_angle_alpha 90.000000
_cell_angle_beta 90.000000
_cell_angle_gamma 90.000000
_cell_volume 2873.320892
_symmetry_space_group_name_H-M "P 42 B C"
_symmetry_group_IT_number 106
_symmetry_cell_setting 'tetragonal'
loop_
_space_group_symop_operation_xyz
x,y,z
-y,x,1/2+z
-x,-y,z
y,-x,1/2+z
1/2-x,1/2+y,z
1/2+x,1/2-y,z
1/2-y,1/2-x,1/2+z
1/2+y,1/2+x,1/2+z
loop_
_atom_site_type_symbol
_atom_site_label
_atom_site_fract_x
_atom_site_fract_y
_atom_site_fract_z
Si Si1 0.106376 0.178281 0.366490
Si Si2 0.599902 0.509627 0.430956
Si Si3 0.599910 0.509664 0.667853
Si Si4 0.709404 0.790726 0.799242
Si Si5 0.533291 0.823433 0.426781
Si Si6 0.466591 0.176562 0.671648
Si Si7 0.500000 0.000000 0.299196
Si Si8 0.106206 0.178297 0.732251
O O1 0.129530 0.091581 0.434833
O O2 0.202514 0.220182 0.367615
O O3 0.071292 0.155059 0.247534
O O4 0.037820 0.244634 0.421444
O O5 0.500000 0.500000 0.390945
O O6 0.608389 0.551656 0.549394
O O7 0.655144 0.571128 0.351228
O O8 0.500000 0.500000 0.707810
O O9 0.629614 0.408471 0.664130
O O10 0.710807 0.877098 0.873096
O O11 0.623159 0.789421 0.725185
O O12 0.797749 0.779565 0.731163
O O13 0.552360 0.846570 0.549201
O O14 0.497353 0.911979 0.370767
O O15 0.502637 0.088044 0.727649
O O16 0.537525 0.255531 0.677176
#
# Coordination Sequence:
#
# PCOD8307448 Si02
#       8
#     8   8   8   8   8   8   4   8
#     4  12  21  43  63  96 130 167 218 274 323 400
#     4  11  21  37  64  94 128 167 205 261 333 388
#     4  11  21  37  64  94 128 167 205 261 333 388
#     4  11  25  41  66  95 133 169 222 272 324 403
#     4  11  24  44  69  96 133 177 222 277 333 391
#     4  11  24  44  69  96 133 177 222 277 333 391
#     4  10  24  48  64  94 134 178 226 272 324 400
#     4  12  21  43  63  96 130 167 218 274 323 400
#
# _framework density 20.881761999999998
#
# number of rings (size 3 to 8) (size 9 to 14) (size 15 to 20)
#    0.000    0.800    5.333    2.000    0.000    5.333 
#    0.000    4.000    0.000    0.000    0.000    0.000 
#    0.000    0.000    0.000    0.000    0.000    0.000 
#
# Total GULP energy -743606.010093 kJ/mol
# GULP energy per Si atom -12393.433502 kJ/mol
# Density = 2.083423 g / cm^3
# Si number density = 20.881762 Si / 1000 Ang^3
#
#
#
# Elastic Constant Matrix: (Units=GPa)
#
#
# Indices 1 2 3 4 5 6 
#
# 1 94.9932 31.9516 11.9057 0.0000 0.0000 0.0000
# 2 31.9516 94.9932 11.9057 0.0000 0.0000 0.0000
# 3 11.9057 11.9057 102.5664 0.0000 0.0000 0.0000
# 4 0.0000 0.0000 0.0000 16.1732 0.0000 0.0000
# 5 0.0000 0.0000 0.0000 0.0000 16.1732 0.0000
# 6 0.0000 0.0000 0.0000 0.0000 0.0000 36.5224
#
#
#
# Elastic Compliance Matrix: (Units=1/GPa)
#
#
# Indices 1 2 3 4 5 6 
#
# 1 0.011958 -0.003905 -0.000935 0.000000 0.000000 0.000000
# 2 -0.003905 0.011958 -0.000935 0.000000 0.000000 0.000000
# 3 -0.000935 -0.000935 0.009967 0.000000 0.000000 0.000000
# 4 0.000000 0.000000 0.000000 0.061831 0.000000 0.000000
# 5 0.000000 0.000000 0.000000 0.000000 0.061831 0.000000
# 6 0.000000 0.000000 0.000000 0.000000 0.000000 0.027380
#
#
# Mechanical properties :
#
#
# Convention : Reuss Voigt Hill
#
# Bulk Modulus (GPa) = 44.77610 44.89763 44.83687
# Shear Modulus (GPa) = 24.51980 29.55976 27.03978
#
# Velocity S-wave (km/s) = 3.43041 3.76650 3.60237
# Velocity P-wave (km/s) = 6.09750 6.36105 6.23067
#
# Compressibility (1/GPa) = 0.02233334
#
# Stress axis : x y z
#
# Youngs Moduli (GPa) = 83.62837 83.62837 100.33326
#
# Poissons Ratio (x) = 0.32656 0.09379
# Poissons Ratio (y) = 0.32656 0.09379
# Poissons Ratio (z) = 0.07817 0.07817
#
# Static dielectric constant tensor:
#      x y z
#    x 3.756020 0.000000 0.000000 
#    y 0.000000 3.756020 0.000000 
#    z 0.000000 0.000000 4.400440 
# 
# 
# High freq. dielectric constant tensor:
#      x y z
#    x 1.823140 0.000000 0.000000 
#    y 0.000000 1.823140 0.000000 
#    z 0.000000 0.000000 1.818260 
# 
# From -- ./inp_files/1364.got.cif
#   From: 2010.03.12/outbox.cif.g09.slc.cpg/sg106_cif.got.tgz:1364.got - 2010.04.14 01:48:02.
