data_PCOD8307009
_publ_section_title
;
Structure prediction by ZEFSAII (Michael W. Deem and Ramdas Pophale) SiO2 
 PCOD8307009
Probable space group: P 4 C C
;
_chemical_formula_sum "Si O2"
_cell_formula_units_Z 48
_cell_length_a 13.505865
_cell_length_b 13.505865
_cell_length_c 11.715740
_cell_angle_alpha 90.000000
_cell_angle_beta 90.000000
_cell_angle_gamma 90.000000
_cell_volume 2137.049264
_symmetry_space_group_name_H-M "P 4 C C"
_symmetry_group_IT_number 103
_symmetry_cell_setting 'tetragonal'
loop_
_space_group_symop_operation_xyz
x,y,z
-y,x,z
-x,-y,z
y,-x,z
-x,y,1/2+z
x,-y,1/2+z
-y,-x,1/2+z
y,x,1/2+z
loop_
_atom_site_type_symbol
_atom_site_label
_atom_site_fract_x
_atom_site_fract_y
_atom_site_fract_z
Si Si1 0.289646 0.067875 0.799730
Si Si2 0.659358 0.510897 0.814318
Si Si3 0.749373 0.153984 0.842398
Si Si4 0.444202 0.162013 0.957020
Si Si5 0.350963 0.275763 0.147198
Si Si6 0.362276 0.156703 0.576001
O O1 0.204123 0.143614 0.835240
O O2 0.388427 0.081159 0.879108
O O3 0.321849 0.079291 0.668354
O O4 0.242222 0.960873 0.811371
O O5 0.590494 0.604885 0.847270
O O6 0.761597 0.508202 0.881592
O O7 0.679403 0.540149 0.680568
O O8 0.675972 0.205709 0.753537
O O9 0.711919 0.161434 0.970898
O O10 0.359101 0.215682 0.030066
O O11 0.528224 0.117728 0.040968
O O12 0.266732 0.360981 0.134701
#
# Coordination Sequence:
#
# PCOD8307009 Si02
#       6
#     8   8   8   8   8   8
#     4  11  27  46  75 105 140 187 239 303 365 438
#     4  11  22  37  61  97 137 189 246 286 337 414
#     4  11  25  49  71 106 141 183 242 300 373 431
#     4  12  22  42  66 102 140 183 232 286 356 420
#     4  11  22  43  66  95 142 185 233 294 348 422
#     4  11  24  43  71  98 144 192 227 289 359 421
#
# _framework density 22.460877
#
# number of rings (size 3 to 8) (size 9 to 14) (size 15 to 20)
#    0.000    0.833    3.333    5.000    2.333    1.000 
#    0.000    1.667    0.000    2.000    0.000    0.000 
#    0.000    0.000    0.000    0.000    0.000    0.000 
#
# Total GULP energy -594914.732436 kJ/mol
# GULP energy per Si atom -12394.056926 kJ/mol
# Density = 2.240976 g / cm^3
# Si number density = 22.460877 Si / 1000 Ang^3
#
#
#
# Elastic Constant Matrix: (Units=GPa)
#
#
# Indices 1 2 3 4 5 6 
#
# 1 120.5125 36.8060 35.3983 0.0000 0.0000 0.0000
# 2 36.8060 120.5125 35.3983 0.0000 0.0000 0.0000
# 3 35.3983 35.3983 108.4087 0.0000 0.0000 0.0000
# 4 0.0000 0.0000 0.0000 25.1252 0.0000 0.0000
# 5 0.0000 0.0000 0.0000 0.0000 25.1252 0.0000
# 6 0.0000 0.0000 0.0000 0.0000 0.0000 15.8263
#
#
#
# Elastic Compliance Matrix: (Units=1/GPa)
#
#
# Indices 1 2 3 4 5 6 
#
# 1 0.009699 -0.002248 -0.002433 0.000000 0.000000 0.000000
# 2 -0.002248 0.009699 -0.002433 0.000000 0.000000 0.000000
# 3 -0.002433 -0.002433 0.010813 0.000000 0.000000 0.000000
# 4 0.000000 0.000000 0.000000 0.039801 0.000000 0.000000
# 5 0.000000 0.000000 0.000000 0.000000 0.039801 0.000000
# 6 0.000000 0.000000 0.000000 0.000000 0.000000 0.063186
#
#
# Mechanical properties :
#
#
# Convention : Reuss Voigt Hill
#
# Bulk Modulus (GPa) = 62.56319 62.73765 62.65042
# Shear Modulus (GPa) = 25.96672 29.33740 27.65206
#
# Velocity S-wave (km/s) = 3.40382 3.61800 3.51254
# Velocity P-wave (km/s) = 6.58504 6.74135 6.66365
#
# Compressibility (1/GPa) = 0.01598384
#
# Stress axis : x y z
#
# Youngs Moduli (GPa) = 103.10350 103.10350 92.47875
#
# Poissons Ratio (x) = 0.23173 0.22501
# Poissons Ratio (y) = 0.23173 0.22501
# Poissons Ratio (z) = 0.25086 0.25086
#
# Static dielectric constant tensor:
#      x y z
#    x 3.910820 0.000000 0.000000 
#    y 0.000000 3.910820 0.000000 
#    z 0.000000 0.000000 4.205790 
# 
# 
# High freq. dielectric constant tensor:
#      x y z
#    x 1.875920 0.000000 0.000000 
#    y 0.000000 1.875920 0.000000 
#    z 0.000000 0.000000 1.899740 
# 
# From -- ./inp_files/605.got.cif
#   From: 2010.03.12/outbox.cif.g09.slc.cpg/sg103_cif.got.tgz:605.got - 2010.04.14 01:42:52.
