data_PCOD8307337
_publ_section_title
;
Structure prediction by ZEFSAII (Michael W. Deem and Ramdas Pophale) SiO2 
 PCOD8307337
Probable space group: P 42 M C
;
_chemical_formula_sum "Si O2"
_cell_formula_units_Z 40
_cell_length_a 14.354687
_cell_length_b 14.354687
_cell_length_c 9.416972
_cell_angle_alpha 90.000000
_cell_angle_beta 90.000000
_cell_angle_gamma 90.000000
_cell_volume 1940.433365
_symmetry_space_group_name_H-M "P 42 M C"
_symmetry_group_IT_number 105
_symmetry_cell_setting 'tetragonal'
loop_
_space_group_symop_operation_xyz
x,y,z
-y,x,1/2+z
-x,-y,z
y,-x,1/2+z
-x,y,z
x,-y,z
-y,-x,1/2+z
y,x,1/2+z
loop_
_atom_site_type_symbol
_atom_site_label
_atom_site_fract_x
_atom_site_fract_y
_atom_site_fract_z
Si Si1 0.397970 0.397970 0.247040
Si Si2 0.604693 0.801085 0.341501
Si Si3 0.763192 0.109101 0.831427
Si Si4 0.890899 0.763192 0.662653
Si Si5 0.395307 0.801085 0.652579
O O1 0.500000 0.391365 0.169486
O O2 0.391365 0.500000 0.324594
O O3 0.389330 0.311285 0.354321
O O4 0.311285 0.389330 0.139759
O O5 0.500000 0.832981 0.303451
O O6 0.670479 0.841826 0.220277
O O7 0.633528 0.839772 0.497040
O O8 0.852621 0.147379 0.747040
O O9 0.670479 0.158174 0.773803
O O10 0.756343 0.000000 0.804598
O O11 0.773427 0.133614 0.997040
O O12 0.000000 0.756343 0.689482
O O13 0.500000 0.832981 0.690629
#
# Coordination Sequence:
#
# PCOD8307337 Si02
#       5
#     8   8   8   8   8
#     4   9  18  32  54  90 133 170 204 242 287 346
#     4  10  21  37  60  92 129 169 209 248 296 355
#     4  11  25  44  66  92 121 156 201 253 312 375
#     4  11  25  44  66  92 121 156 201 253 312 375
#     4  10  21  37  60  92 129 169 209 248 296 355
#
# _framework density 20.613949000000002
#
# number of rings (size 3 to 8) (size 9 to 14) (size 15 to 20)
#    0.000    1.800    2.000    1.200    0.000    6.000 
#    0.000   14.000    0.000    0.000    0.000    0.000 
#    0.000    0.000    0.000    0.000    0.000    0.000 
#
# Total GULP energy -495631.933211 kJ/mol
# GULP energy per Si atom -12390.798330 kJ/mol
# Density = 2.056703 g / cm^3
# Si number density = 20.613949 Si / 1000 Ang^3
#
#
#
# Elastic Constant Matrix: (Units=GPa)
#
#
# Indices 1 2 3 4 5 6 
#
# 1 130.8023 53.4569 64.3172 0.0000 0.0000 0.0000
# 2 53.4569 130.8023 64.3172 0.0000 0.0000 0.0000
# 3 64.3172 64.3172 128.8344 0.0000 0.0000 0.0000
# 4 0.0000 0.0000 0.0000 20.8301 0.0000 0.0000
# 5 0.0000 0.0000 0.0000 0.0000 20.8301 0.0000
# 6 0.0000 0.0000 0.0000 0.0000 0.0000 15.0764
#
#
#
# Elastic Compliance Matrix: (Units=1/GPa)
#
#
# Indices 1 2 3 4 5 6 
#
# 1 0.010630 -0.002299 -0.004159 0.000000 0.000000 0.000000
# 2 -0.002299 0.010630 -0.004159 0.000000 0.000000 0.000000
# 3 -0.004159 -0.004159 0.011914 0.000000 0.000000 0.000000
# 4 0.000000 0.000000 0.000000 0.048007 0.000000 0.000000
# 5 0.000000 0.000000 0.000000 0.000000 0.048007 0.000000
# 6 0.000000 0.000000 0.000000 0.000000 0.000000 0.066329
#
#
# Mechanical properties :
#
#
# Convention : Reuss Voigt Hill
#
# Bulk Modulus (GPa) = 83.75171 83.84687 83.79929
# Shear Modulus (GPa) = 22.65203 25.23719 23.94461
#
# Velocity S-wave (km/s) = 3.31852 3.50276 3.41188
# Velocity P-wave (km/s) = 7.44313 7.55793 7.50075
#
# Compressibility (1/GPa) = 0.01194006
#
# Stress axis : x y z
#
# Youngs Moduli (GPa) = 94.07585 94.07585 83.93353
#
# Poissons Ratio (x) = 0.21631 0.34906
# Poissons Ratio (y) = 0.21631 0.34906
# Poissons Ratio (z) = 0.39124 0.39124
#
# Static dielectric constant tensor:
#      x y z
#    x 3.831960 0.000000 0.000000 
#    y 0.000000 3.831960 0.000000 
#    z 0.000000 0.000000 3.529450 
# 
# 
# High freq. dielectric constant tensor:
#      x y z
#    x 1.809580 0.000000 0.000000 
#    y 0.000000 1.809580 0.000000 
#    z 0.000000 0.000000 1.791260 
# 
# From -- ./inp_files/872.got.cif
#   From: 2010.03.12/outbox.cif.g09.slc.cpg/sg105_1_cif.got.tgz:872.got - 2010.04.14 01:45:32.
