data_PCOD8307719
_publ_section_title
;
Structure prediction by ZEFSAII (Michael W. Deem and Ramdas Pophale) SiO2 
 PCOD8307719
Probable space group: I 4 C M
;
_chemical_formula_sum "Si O2"
_cell_formula_units_Z 128
_cell_length_a 19.465000
_cell_length_b 19.465000
_cell_length_c 17.095451
_cell_angle_alpha 90.000000
_cell_angle_beta 90.000000
_cell_angle_gamma 90.000000
_cell_volume 6477.230894
_symmetry_space_group_name_H-M "I 4 C M"
_symmetry_group_IT_number 108
_symmetry_cell_setting 'tetragonal'
loop_
_space_group_symop_operation_xyz
x,y,z
-y,x,z
-x,-y,z
y,-x,z
-x,y,1/2+z
x,-y,1/2+z
-y,-x,1/2+z
y,x,1/2+z
1/2+x,1/2+y,1/2+z
1/2-y,1/2+x,1/2+z
1/2-x,1/2-y,1/2+z
1/2+y,1/2-x,1/2+z
1/2-x,1/2+y,z
1/2+x,1/2-y,z
1/2-y,1/2-x,z
1/2+y,1/2+x,z
loop_
_atom_site_type_symbol
_atom_site_label
_atom_site_fract_x
_atom_site_fract_y
_atom_site_fract_z
Si Si1 0.475694 0.394141 0.833710
Si Si2 0.964094 0.197501 0.106642
Si Si3 0.249970 0.859559 0.884290
Si Si4 0.162989 0.553763 0.821928
Si Si5 0.233739 0.004780 0.936054
Si Si6 0.166753 0.226676 0.282863
Si Si7 0.866837 0.912060 0.673977
Si Si8 0.188300 0.423026 0.729269
O O1 0.551001 0.418720 0.861032
O O2 0.464930 0.320014 0.871924
O O3 0.468026 0.390794 0.739545
O O4 0.925773 0.124853 0.123057
O O5 0.936236 0.259920 0.158159
O O6 0.045189 0.183608 0.118040
O O7 0.956455 0.219249 0.016579
O O8 0.312813 0.812813 0.917801
O O9 0.230898 0.921294 0.943713
O O10 0.182760 0.812640 0.865528
O O11 0.269209 0.892687 0.801069
O O12 0.089373 0.589373 0.835866
O O13 0.190301 0.523933 0.904694
O O14 0.217827 0.607876 0.790769
O O15 0.154015 0.494458 0.757229
O O16 0.237398 0.262603 0.255739
O O17 0.149498 0.172832 0.215849
O O18 0.128284 0.371716 0.701053
#
# Coordination Sequence:
#
# PCOD8307719 Si02
#       8
#    16  16  16  16  16  16  16  16
#     4  11  22  37  59  81 112 167 221 255 292 356
#     4  12  26  36  57  91 130 170 201 252 320 373
#     4   9  18  36  62  85 109 152 206 253 293 355
#     4  10  21  38  62  90 117 155 205 258 306 361
#     4  11  24  39  57  89 129 165 201 256 316 373
#     4  10  18  32  63  90 109 145 207 262 300 348
#     4  12  21  40  57  83 124 163 214 258 296 368
#     4  10  20  39  63  89 115 151 205 253 302 363
#
# _framework density 19.761531000000002
#
# number of rings (size 3 to 8) (size 9 to 14) (size 15 to 20)
#    0.000    1.375    5.000    1.500    1.750    1.000 
#    0.000    1.250    0.000    0.000    0.000    1.750 
#    0.000    0.000    0.000    0.000    0.000    0.000 
#
# Total GULP energy -793303.483018 kJ/mol
# GULP energy per Si atom -12395.366922 kJ/mol
# Density = 1.971655 g / cm^3
# Si number density = 19.761531 Si / 1000 Ang^3
#
#
#
# Elastic Constant Matrix: (Units=GPa)
#
#
# Indices 1 2 3 4 5 6 
#
# 1 92.7330 41.4595 26.0115 0.0000 0.0000 0.0000
# 2 41.4595 92.7330 26.0115 0.0000 0.0000 0.0000
# 3 26.0115 26.0115 80.9296 0.0000 0.0000 0.0000
# 4 0.0000 0.0000 0.0000 19.1903 0.0000 0.0000
# 5 0.0000 0.0000 0.0000 0.0000 19.1903 0.0000
# 6 0.0000 0.0000 0.0000 0.0000 0.0000 40.3595
#
#
#
# Elastic Compliance Matrix: (Units=1/GPa)
#
#
# Indices 1 2 3 4 5 6 
#
# 1 0.014008 -0.005495 -0.002736 0.000000 0.000000 0.000000
# 2 -0.005495 0.014008 -0.002736 0.000000 0.000000 0.000000
# 3 -0.002736 -0.002736 0.014115 0.000000 0.000000 0.000000
# 4 0.000000 0.000000 0.000000 0.052110 0.000000 0.000000
# 5 0.000000 0.000000 0.000000 0.000000 0.052110 0.000000
# 6 0.000000 0.000000 0.000000 0.000000 0.000000 0.024777
#
#
# Mechanical properties :
#
#
# Convention : Reuss Voigt Hill
#
# Bulk Modulus (GPa) = 49.51391 50.37341 49.94366
# Shear Modulus (GPa) = 25.02570 27.27555 26.15062
#
# Velocity S-wave (km/s) = 3.56249 3.71918 3.64168
# Velocity P-wave (km/s) = 6.48320 6.63243 6.55824
#
# Compressibility (1/GPa) = 0.02019634
#
# Stress axis : x y z
#
# Youngs Moduli (GPa) = 71.38798 71.38798 70.84561
#
# Poissons Ratio (x) = 0.39230 0.19384
# Poissons Ratio (y) = 0.39230 0.19384
# Poissons Ratio (z) = 0.19532 0.19532
#
# Static dielectric constant tensor:
#      x y z
#    x 3.825500 0.000000 0.000000 
#    y 0.000000 3.825500 0.000000 
#    z 0.000000 0.000000 3.155570 
# 
# 
# High freq. dielectric constant tensor:
#      x y z
#    x 1.779490 0.000000 0.000000 
#    y 0.000000 1.779490 0.000000 
#    z 0.000000 0.000000 1.723300 
# 
# From -- ./inp_files/2688.got.cif
#   From: 2010.03.12/outbox.cif.g09.slc.cpg/sg108_2_cif.got.tgz:2688.got - 2010.04.14 01:53:11.
