data_PCOD8307146
_publ_section_title
;
Structure prediction by ZEFSAII (Michael W. Deem and Ramdas Pophale) SiO2 
 PCOD8307146
Probable space group: P 42 M C
;
_chemical_formula_sum "Si O2"
_cell_formula_units_Z 48
_cell_length_a 8.160042
_cell_length_b 8.160042
_cell_length_c 34.209990
_cell_angle_alpha 90.000000
_cell_angle_beta 90.000000
_cell_angle_gamma 90.000000
_cell_volume 2277.916159
_symmetry_space_group_name_H-M "P 42 M C"
_symmetry_group_IT_number 105
_symmetry_cell_setting 'tetragonal'
loop_
_space_group_symop_operation_xyz
x,y,z
-y,x,1/2+z
-x,-y,z
y,-x,1/2+z
-x,y,z
x,-y,z
-y,-x,1/2+z
y,x,1/2+z
loop_
_atom_site_type_symbol
_atom_site_label
_atom_site_fract_x
_atom_site_fract_y
_atom_site_fract_z
Si Si1 0.695091 0.182467 0.432660
Si Si2 0.185470 0.188137 0.112835
Si Si3 0.809688 0.821284 0.274753
Si Si4 0.684957 0.686952 0.352026
Si Si5 0.192714 0.679955 0.195329
Si Si6 0.500000 0.309923 0.066392
Si Si7 0.303930 0.500000 0.479258
O O1 0.500000 0.191783 0.433159
O O2 0.756682 0.206564 0.387939
O O3 0.764127 0.331845 0.459181
O O4 0.753533 0.000000 0.446966
O O5 0.234313 0.206670 0.158302
O O6 0.330149 0.267163 0.087748
O O7 0.000000 0.262925 0.105096
O O8 0.180368 0.000000 0.101665
O O9 0.786229 0.707803 0.312390
O O10 0.726743 0.748690 0.235344
O O11 0.000000 0.838173 0.266320
O O12 0.732260 0.000000 0.282977
O O13 0.500000 0.740339 0.342603
O O14 0.694234 0.500000 0.365953
O O15 0.266710 0.500000 0.187132
O O16 0.000000 0.667635 0.201334
O O17 0.500000 0.500000 0.060372
O O18 0.500000 0.231340 0.023154
O O19 0.500000 0.500000 0.477531
#
# Coordination Sequence:
#
# PCOD8307146 Si02
#       7
#     8   8   8   8   8   4   4
#     4   9  16  29  51  76 106 145 183 226 284 346
#     4  10  21  39  62  85 114 155 198 238 290 361
#     4  10  20  33  50  75 109 148 190 234 280 339
#     4  10  19  32  51  76 108 143 186 238 285 335
#     4   9  17  32  55  80 107 142 186 235 286 338
#     4  11  23  37  59  91 123 149 187 247 303 357
#     4   9  18  33  51  79 113 143 181 229 285 351
#
# _framework density 21.07189
#
# number of rings (size 3 to 8) (size 9 to 14) (size 15 to 20)
#    0.000    2.333    0.833    2.250    0.000    5.667 
#    1.500    1.667    0.000    2.000    0.000    2.333 
#    0.000    0.000    0.000    0.000    0.000    0.000 
#
# Total GULP energy -594789.884379 kJ/mol
# GULP energy per Si atom -12391.455925 kJ/mol
# Density = 2.102393 g / cm^3
# Si number density = 21.071890 Si / 1000 Ang^3
#
#
#
# Elastic Constant Matrix: (Units=GPa)
#
#
# Indices 1 2 3 4 5 6 
#
# 1 80.2649 20.1730 41.8435 0.0000 0.0000 0.0000
# 2 20.1730 80.2649 41.8435 0.0000 0.0000 0.0000
# 3 41.8435 41.8435 154.6162 0.0000 0.0000 0.0000
# 4 0.0000 0.0000 0.0000 1.7356 0.0000 0.0000
# 5 0.0000 0.0000 0.0000 0.0000 1.7356 0.0000
# 6 0.0000 0.0000 0.0000 0.0000 0.0000 17.0119
#
#
#
# Elastic Compliance Matrix: (Units=1/GPa)
#
#
# Indices 1 2 3 4 5 6 
#
# 1 0.014748 -0.001893 -0.003479 0.000000 0.000000 0.000000
# 2 -0.001893 0.014748 -0.003479 0.000000 0.000000 0.000000
# 3 -0.003479 -0.003479 0.008351 0.000000 0.000000 0.000000
# 4 0.000000 0.000000 0.000000 0.576182 0.000000 0.000000
# 5 0.000000 0.000000 0.000000 0.000000 0.576182 0.000000
# 6 0.000000 0.000000 0.000000 0.000000 0.000000 0.058782
#
#
# Mechanical properties :
#
#
# Convention : Reuss Voigt Hill
#
# Bulk Modulus (GPa) = 49.63994 58.09625 53.86809
# Shear Modulus (GPa) = 3.92646 18.18233 11.05440
#
# Velocity S-wave (km/s) = 1.36653 2.94065 2.29291
# Velocity P-wave (km/s) = 5.10866 6.25782 5.71221
#
# Compressibility (1/GPa) = 0.02014507
#
# Stress axis : x y z
#
# Youngs Moduli (GPa) = 67.80499 67.80499 119.75121
#
# Poissons Ratio (x) = 0.12836 0.41661
# Poissons Ratio (y) = 0.12836 0.41661
# Poissons Ratio (z) = 0.23589 0.23589
#
# Static dielectric constant tensor:
#      x y z
#    x 3.773330 0.000000 0.000000 
#    y 0.000000 3.773330 0.000000 
#    z 0.000000 0.000000 3.848380 
# 
# 
# High freq. dielectric constant tensor:
#      x y z
#    x 1.806740 0.000000 0.000000 
#    y 0.000000 1.806740 0.000000 
#    z 0.000000 0.000000 1.826610 
# 
# From -- ./inp_files/4820.got.cif
#   From: 2010.03.12/outbox.cif.g09.slc.cpg/sg105_3_cif.got.tgz:4820.got - 2010.04.14 01:45:32.
