data_PCOD8307809
_publ_section_title
;
Structure prediction by ZEFSAII (Michael W. Deem and Ramdas Pophale) SiO2 
 PCOD8307809
Probable space group: I 4 C M
;
_chemical_formula_sum "Si O2"
_cell_formula_units_Z 84
_cell_length_a 24.085049
_cell_length_b 24.085049
_cell_length_c 9.034461
_cell_angle_alpha 90.000000
_cell_angle_beta 90.000000
_cell_angle_gamma 90.000000
_cell_volume 5240.796735
_symmetry_space_group_name_H-M "I 4 C M"
_symmetry_group_IT_number 108
_symmetry_cell_setting 'tetragonal'
loop_
_space_group_symop_operation_xyz
x,y,z
-y,x,z
-x,-y,z
y,-x,z
-x,y,1/2+z
x,-y,1/2+z
-y,-x,1/2+z
y,x,1/2+z
1/2+x,1/2+y,1/2+z
1/2-y,1/2+x,1/2+z
1/2-x,1/2-y,1/2+z
1/2+y,1/2-x,1/2+z
1/2-x,1/2+y,z
1/2+x,1/2-y,z
1/2-y,1/2-x,z
1/2+y,1/2+x,z
loop_
_atom_site_type_symbol
_atom_site_label
_atom_site_fract_x
_atom_site_fract_y
_atom_site_fract_z
Si Si1 0.000000 0.500000 0.275105
Si Si2 0.699458 0.945245 0.700822
Si Si3 0.743650 0.332970 0.352504
Si Si4 0.756350 0.832970 0.697765
Si Si5 0.300542 0.054755 0.349445
Si Si6 0.913224 0.586777 0.358481
Si Si7 0.586779 0.913222 0.191776
O O1 0.039572 0.460429 0.372728
O O2 0.039573 0.539573 0.177498
O O3 0.741651 0.895770 0.741298
O O4 0.692398 0.951991 0.525132
O O5 0.639297 0.935922 0.770004
O O6 0.725775 0.000000 0.775133
O O7 0.794700 0.294700 0.298003
O O8 0.686602 0.313398 0.275135
O O9 0.734450 0.326705 0.525134
O O10 0.758350 0.395769 0.308969
O O11 0.705300 0.794701 0.752264
O O12 0.360703 0.064076 0.280258
O O13 0.896094 0.603907 0.525128
#
# Coordination Sequence:
#
# PCOD8307809 Si02
#       7
#     4  16  16  16  16   8   8
#     4  12  26  36  48  66  90 128 182 216 250 272
#     4  11  22  36  51  71 100 128 164 209 250 293
#     4   9  18  33  51  72  97 126 160 206 251 296
#     4   9  18  33  51  72  97 126 160 206 251 296
#     4  11  22  36  51  71 100 128 164 209 250 293
#     4  12  24  35  49  66  91 129 172 215 253 288
#     4  12  24  35  49  66  91 129 172 215 253 288
#
# _framework density 16.028098
#
# number of rings (size 3 to 8) (size 9 to 14) (size 15 to 20)
#    0.000    1.524    3.810    2.000    0.000    4.571 
#    0.000    0.000    0.000    0.000    0.000    0.000 
#    0.000    0.762    0.000    8.381    0.000    6.095 
#
# Total GULP energy -520772.020951 kJ/mol
# GULP energy per Si atom -12399.333832 kJ/mol
# Density = 1.599162 g / cm^3
# Si number density = 16.028098 Si / 1000 Ang^3
#
#
#
# Elastic Constant Matrix: (Units=GPa)
#
#
# Indices 1 2 3 4 5 6 
#
# 1 100.0647 74.0655 50.7634 0.0000 0.0000 -0.0002
# 2 74.0655 100.0647 50.7634 0.0000 0.0000 0.0002
# 3 50.7634 50.7634 83.4416 0.0000 0.0000 0.0000
# 4 0.0000 0.0000 0.0000 23.9496 0.0000 0.0000
# 5 0.0000 0.0000 0.0000 0.0000 23.9496 0.0000
# 6 -0.0002 0.0002 0.0000 0.0000 0.0000 29.9398
#
#
#
# Elastic Compliance Matrix: (Units=1/GPa)
#
#
# Indices 1 2 3 4 5 6 
#
# 1 0.023681 -0.014782 -0.005414 0.000000 0.000000 0.000000
# 2 -0.014782 0.023681 -0.005414 0.000000 0.000000 0.000000
# 3 -0.005414 -0.005414 0.018572 0.000000 0.000000 0.000000
# 4 0.000000 0.000000 0.000000 0.041754 0.000000 0.000000
# 5 0.000000 0.000000 0.000000 0.000000 0.041754 0.000000
# 6 0.000000 0.000000 0.000000 0.000000 0.000000 0.033400
#
#
# Mechanical properties :
#
#
# Convention : Reuss Voigt Hill
#
# Bulk Modulus (GPa) = 67.96081 70.52843 69.24462
# Shear Modulus (GPa) = 20.92325 22.76638 21.84482
#
# Velocity S-wave (km/s) = 3.61697 3.77291 3.69576
# Velocity P-wave (km/s) = 7.74186 7.94219 7.84266
#
# Compressibility (1/GPa) = 0.01471436
#
# Stress axis : x y z
#
# Youngs Moduli (GPa) = 42.22763 42.22763 53.84388
#
# Poissons Ratio (x) = 0.62419 0.29153
# Poissons Ratio (y) = 0.62419 0.29153
# Poissons Ratio (z) = 0.22863 0.22863
#
# Static dielectric constant tensor:
#      x y z
#    x 3.101860 0.000000 0.000000 
#    y 0.000000 3.101860 0.000000 
#    z 0.000000 0.000000 3.085230 
# 
# 
# High freq. dielectric constant tensor:
#      x y z
#    x 1.595600 0.000000 0.000000 
#    y 0.000000 1.595600 0.000000 
#    z 0.000000 0.000000 1.627520 
# 
# From -- ./inp_files/743.got.cif
#   From: 2010.03.12/outbox.cif.g09.slc.cpg/sg108_1_cif.got.tgz:743.got - 2010.04.14 01:53:11.
