data_PCOD8307326
_publ_section_title
;
Structure prediction by ZEFSAII (Michael W. Deem and Ramdas Pophale) SiO2 
 PCOD8307326
Probable space group: P 42 M C
;
_chemical_formula_sum "Si O2"
_cell_formula_units_Z 40
_cell_length_a 9.175104
_cell_length_b 9.175104
_cell_length_c 25.789025
_cell_angle_alpha 90.000000
_cell_angle_beta 90.000000
_cell_angle_gamma 90.000000
_cell_volume 2170.985459
_symmetry_space_group_name_H-M "P 42 M C"
_symmetry_group_IT_number 105
_symmetry_cell_setting 'tetragonal'
loop_
_space_group_symop_operation_xyz
x,y,z
-y,x,1/2+z
-x,-y,z
y,-x,1/2+z
-x,y,z
x,-y,z
-y,-x,1/2+z
y,x,1/2+z
loop_
_atom_site_type_symbol
_atom_site_label
_atom_site_fract_x
_atom_site_fract_y
_atom_site_fract_z
Si Si1 0.839196 0.326985 0.982040
Si Si2 0.670679 0.170020 0.183245
Si Si3 0.828356 0.669112 0.276047
Si Si4 0.333660 0.329086 0.580867
Si Si5 0.171341 0.669110 0.866586
O O1 0.844601 0.500000 0.983470
O O2 0.784089 0.281407 0.924854
O O3 0.000000 0.262655 0.991678
O O4 0.736645 0.267429 0.027812
O O5 0.500000 0.199644 0.191861
O O6 0.757751 0.246662 0.228547
O O7 0.724839 0.237025 0.128912
O O8 0.707097 0.000000 0.183367
O O9 0.785919 0.500000 0.272303
O O10 0.768324 0.733584 0.329307
O O11 0.000000 0.693208 0.274316
O O12 0.500000 0.277766 0.590375
O O13 0.324219 0.500000 0.574281
O O14 0.209148 0.500000 0.856699
O O15 0.000000 0.695352 0.856905
#
# Coordination Sequence:
#
# PCOD8307326 Si02
#       5
#     8   8   8   8   8
#     4   8  15  29  50  76 104 133 167 207 249 295
#     4  10  21  37  56  77 102 135 174 213 256 308
#     4  11  24  38  52  75 105 135 170 214 263 310
#     4   9  17  30  50  76 104 133 167 208 252 297
#     4   9  18  34  56  80 105 136 174 212 252 302
#
# _framework density 18.424814000000001
#
# number of rings (size 3 to 8) (size 9 to 14) (size 15 to 20)
#    0.000    2.600    0.000    3.000    0.000    7.200 
#    0.000    5.000    0.000    3.600    0.000    0.000 
#    0.000    0.000    0.000    0.000    0.000    0.000 
#
# Total GULP energy -495947.518904 kJ/mol
# GULP energy per Si atom -12398.687973 kJ/mol
# Density = 1.838288 g / cm^3
# Si number density = 18.424814 Si / 1000 Ang^3
#
#
#
# Elastic Constant Matrix: (Units=GPa)
#
#
# Indices 1 2 3 4 5 6 
#
# 1 76.8352 53.8981 75.7733 0.0000 0.0000 0.0000
# 2 53.8981 76.8352 75.7733 0.0000 0.0000 0.0000
# 3 75.7733 75.7733 189.2144 0.0000 0.0000 0.0000
# 4 0.0000 0.0000 0.0000 -54.4128 0.0000 0.0000
# 5 0.0000 0.0000 0.0000 0.0000 -54.4128 0.0000
# 6 0.0000 0.0000 0.0000 0.0000 0.0000 23.1312
#
#
#
# Elastic Compliance Matrix: (Units=1/GPa)
#
#
# Indices 1 2 3 4 5 6 
#
# 1 0.028937 -0.014660 -0.005717 0.000000 0.000000 0.000000
# 2 -0.014660 0.028937 -0.005717 0.000000 0.000000 0.000000
# 3 -0.005717 -0.005717 0.009864 0.000000 0.000000 0.000000
# 4 0.000000 0.000000 0.000000 -0.018378 0.000000 0.000000
# 5 0.000000 0.000000 0.000000 0.000000 -0.018378 0.000000
# 6 0.000000 0.000000 0.000000 0.000000 0.000000 0.043232
#
#
# Mechanical properties :
#
#
# Convention : Reuss Voigt Hill
#
# Bulk Modulus (GPa) = 64.31557 83.75271 74.03414
# Shear Modulus (GPa) = 37.99782 -7.97622 15.01080
#
# Velocity S-wave (km/s) = 4.54620 -2.08290 2.85740
# Velocity P-wave (km/s) = 7.90823 6.30639 7.15229
#
# Compressibility (1/GPa) = 0.01554833
#
# Stress axis : x y z
#
# Youngs Moduli (GPa) = 34.55777 34.55777 101.37759
#
# Poissons Ratio (x) = 0.50663 0.57960
# Poissons Ratio (y) = 0.50663 0.57960
# Poissons Ratio (z) = 0.19758 0.19758
#
# Static dielectric constant tensor:
#      x y z
#    x 3.323290 0.000000 0.000000 
#    y 0.000000 3.323290 0.000000 
#    z 0.000000 0.000000 3.733270 
# 
# 
# High freq. dielectric constant tensor:
#      x y z
#    x 1.699890 0.000000 0.000000 
#    y 0.000000 1.699890 0.000000 
#    z 0.000000 0.000000 1.733990 
# 
# From -- ./inp_files/3912.got.cif
#   From: 2010.03.12/outbox.cif.g09.slc.cpg/sg105_2_cif.got.tgz:3912.got - 2010.04.14 01:45:32.
