data_PCOD8307401
_publ_section_title
;
Structure prediction by ZEFSAII (Michael W. Deem and Ramdas Pophale) SiO2 
 PCOD8307401
Probable space group: P 42 B C
;
_chemical_formula_sum "Si O2"
_cell_formula_units_Z 36
_cell_length_a 14.254278
_cell_length_b 14.254278
_cell_length_c 9.190688
_cell_angle_alpha 90.000000
_cell_angle_beta 90.000000
_cell_angle_gamma 90.000000
_cell_volume 1867.404806
_symmetry_space_group_name_H-M "P 42 B C"
_symmetry_group_IT_number 106
_symmetry_cell_setting 'tetragonal'
loop_
_space_group_symop_operation_xyz
x,y,z
-y,x,1/2+z
-x,-y,z
y,-x,1/2+z
1/2-x,1/2+y,z
1/2+x,1/2-y,z
1/2-y,1/2-x,1/2+z
1/2+y,1/2+x,1/2+z
loop_
_atom_site_type_symbol
_atom_site_label
_atom_site_fract_x
_atom_site_fract_y
_atom_site_fract_z
Si Si1 0.758866 0.607408 0.389040
Si Si2 0.310551 0.562611 0.876970
Si Si3 0.107408 0.258866 0.544745
Si Si4 0.000000 0.000000 0.966893
Si Si5 0.810551 0.937389 0.556815
O O1 0.669480 0.672924 0.431470
O O2 0.849391 0.650609 0.466893
O O3 0.773387 0.604311 0.216893
O O4 0.749845 0.499416 0.443948
O O5 0.263053 0.561245 0.716893
O O6 0.250155 0.500584 0.989838
O O7 0.412417 0.515412 0.860573
O O8 0.172924 0.169480 0.502315
O O9 0.015412 0.912417 0.073213
#
# Coordination Sequence:
#
# PCOD8307401 Si02
#       5
#     8   8   8   4   8
#     4  10  20  32  49  72  98 129 160 195 238 282
#     4   9  17  29  46  69  96 124 156 193 235 283
#     4  10  20  32  49  72  98 129 160 195 238 282
#     4   8  14  24  44  70  94 120 148 186 238 288
#     4   9  17  29  46  69  96 124 156 193 235 283
#
# _framework density 19.278091
#
# number of rings (size 3 to 8) (size 9 to 14) (size 15 to 20)
#    0.000    2.667    0.000    2.000    0.000   12.444 
#    0.000    0.000    0.000    1.333    0.000    9.333 
#    0.000    0.000    0.000    0.000    0.000    0.000 
#
# Total GULP energy -446049.863392 kJ/mol
# GULP energy per Si atom -12390.273983 kJ/mol
# Density = 1.923421 g / cm^3
# Si number density = 19.278091 Si / 1000 Ang^3
#
#
#
# Elastic Constant Matrix: (Units=GPa)
#
#
# Indices 1 2 3 4 5 6 
#
# 1 19.9834 -14.7877 5.3877 0.0000 0.0000 0.0000
# 2 -14.7877 19.9834 5.3877 0.0000 0.0000 0.0000
# 3 5.3877 5.3877 82.3285 0.0000 0.0000 0.0000
# 4 0.0000 0.0000 0.0000 22.1049 0.0000 0.0000
# 5 0.0000 0.0000 0.0000 0.0000 22.1049 0.0000
# 6 0.0000 0.0000 0.0000 0.0000 0.0000 27.7454
#
#
#
# Elastic Compliance Matrix: (Units=1/GPa)
#
#
# Indices 1 2 3 4 5 6 
#
# 1 0.125726 0.096966 -0.014573 0.000000 0.000000 0.000000
# 2 0.096966 0.125726 -0.014573 0.000000 0.000000 0.000000
# 3 -0.014573 -0.014573 0.014054 0.000000 0.000000 0.000000
# 4 0.000000 0.000000 0.000000 0.045239 0.000000 0.000000
# 5 0.000000 0.000000 0.000000 0.000000 0.045239 0.000000
# 6 0.000000 0.000000 0.000000 0.000000 0.000000 0.036042
#
#
# Mechanical properties :
#
#
# Convention : Reuss Voigt Hill
#
# Bulk Modulus (GPa) = 2.49287 12.69675 7.59481
# Shear Modulus (GPa) = 12.81719 22.81155 17.81437
#
# Velocity S-wave (km/s) = 2.58128 3.44363 3.04316
# Velocity P-wave (km/s) = 3.19060 4.73411 4.03682
#
# Compressibility (1/GPa) = 0.40114477
#
# Stress axis : x y z
#
# Youngs Moduli (GPa) = 7.95381 7.95381 71.15468
#
# Poissons Ratio (x) = -0.77125 1.03697
# Poissons Ratio (y) = -0.77125 1.03697
# Poissons Ratio (z) = 0.11591 0.11591
#
# Static dielectric constant tensor:
#      x y z
#    x 3.309160 0.000000 0.000000 
#    y 0.000000 3.309160 0.000000 
#    z 0.000000 0.000000 3.345810 
# 
# 
# High freq. dielectric constant tensor:
#      x y z
#    x 1.720040 0.000000 0.000000 
#    y 0.000000 1.720040 0.000000 
#    z 0.000000 0.000000 1.752130 
# 
# From -- ./inp_files/339.got.cif
#   From: 2010.03.12/outbox.cif.g09.slc.cpg/sg106_cif.got.tgz:339.got - 2010.04.14 01:48:02.
