data_PCOD8307152
_publ_section_title
;
Structure prediction by ZEFSAII (Michael W. Deem and Ramdas Pophale) SiO2 
 PCOD8307152
Probable space group: P 42 M C
;
_chemical_formula_sum "Si O2"
_cell_formula_units_Z 64
_cell_length_a 12.869536
_cell_length_b 12.869536
_cell_length_c 21.472519
_cell_angle_alpha 90.000000
_cell_angle_beta 90.000000
_cell_angle_gamma 90.000000
_cell_volume 3556.385033
_symmetry_space_group_name_H-M "P 42 M C"
_symmetry_group_IT_number 105
_symmetry_cell_setting 'tetragonal'
loop_
_space_group_symop_operation_xyz
x,y,z
-y,x,1/2+z
-x,-y,z
y,-x,1/2+z
-x,y,z
x,-y,z
-y,-x,1/2+z
y,x,1/2+z
loop_
_atom_site_type_symbol
_atom_site_label
_atom_site_fract_x
_atom_site_fract_y
_atom_site_fract_z
Si Si1 0.121110 0.379003 0.756140
Si Si2 0.231228 0.757336 0.342121
Si Si3 0.619482 0.732233 0.031552
Si Si4 0.387239 0.379914 0.410639
Si Si5 0.120997 0.621110 0.242657
Si Si6 0.120086 0.112761 0.588158
Si Si7 0.257336 0.268772 0.656676
Si Si8 0.767767 0.119482 0.967245
O O1 0.137977 0.500000 0.775677
O O2 0.149281 0.296952 0.810877
O O3 0.201136 0.353897 0.700218
O O4 0.000000 0.361848 0.737603
O O5 0.310769 0.668531 0.361093
O O6 0.146103 0.701136 0.298579
O O7 0.174687 0.801726 0.403268
O O8 0.500000 0.753592 0.045818
O O9 0.674687 0.698274 0.095529
O O10 0.638962 0.640012 0.982870
O O11 0.663531 0.836469 0.999398
O O12 0.500000 0.329999 0.400113
O O13 0.387106 0.500000 0.394848
O O14 0.138153 0.500000 0.261194
O O15 0.203048 0.649281 0.187920
O O16 0.000000 0.637977 0.223120
O O17 0.168531 0.189231 0.637704
O O18 0.138962 0.140012 0.515927
O O19 0.000000 0.112894 0.603949
O O20 0.170001 0.000000 0.598683
O O21 0.746408 0.000000 0.952979
#
# Coordination Sequence:
#
# PCOD8307152 Si02
#       8
#     8   8   8   8   8   8   8   8
#     4  10  21  35  51  72  98 130 168 210 252 292
#     4  10  19  33  52  71  97 130 166 203 245 298
#     4   9  18  31  48  73 100 127 160 198 244 296
#     4   9  17  30  49  72  97 124 155 194 241 293
#     4  10  21  35  51  72  98 130 168 210 252 292
#     4   9  17  30  49  72  97 124 155 194 241 293
#     4  10  19  33  52  71  97 130 166 203 245 298
#     4   9  18  31  48  73 100 127 160 198 244 296
#
# _framework density 17.995801
#
# number of rings (size 3 to 8) (size 9 to 14) (size 15 to 20)
#    0.000    2.500    0.000    2.250    0.000    2.250 
#    0.000    0.000    0.000   14.250    0.000   12.250 
#    0.000    0.000    0.000    0.000    0.000    0.000 
#
# Total GULP energy -793223.093704 kJ/mol
# GULP energy per Si atom -12394.110839 kJ/mol
# Density = 1.795484 g / cm^3
# Si number density = 17.995801 Si / 1000 Ang^3
#
#
#
# Elastic Constant Matrix: (Units=GPa)
#
#
# Indices 1 2 3 4 5 6 
#
# 1 77.3590 19.9802 11.5529 0.0000 0.0000 0.0000
# 2 19.9802 77.3590 11.5529 0.0000 0.0000 0.0000
# 3 11.5529 11.5529 62.2082 0.0000 0.0000 0.0000
# 4 0.0000 0.0000 0.0000 23.0167 0.0000 0.0000
# 5 0.0000 0.0000 0.0000 0.0000 23.0167 0.0000
# 6 0.0000 0.0000 0.0000 0.0000 0.0000 25.4010
#
#
#
# Elastic Compliance Matrix: (Units=1/GPa)
#
#
# Indices 1 2 3 4 5 6 
#
# 1 0.014088 -0.003340 -0.001996 0.000000 0.000000 0.000000
# 2 -0.003340 0.014088 -0.001996 0.000000 0.000000 0.000000
# 3 -0.001996 -0.001996 0.016816 0.000000 0.000000 0.000000
# 4 0.000000 0.000000 0.000000 0.043447 0.000000 0.000000
# 5 0.000000 0.000000 0.000000 0.000000 0.043447 0.000000
# 6 0.000000 0.000000 0.000000 0.000000 0.000000 0.039369
#
#
# Mechanical properties :
#
#
# Convention : Reuss Voigt Hill
#
# Bulk Modulus (GPa) = 32.97383 33.67758 33.32571
# Shear Modulus (GPa) = 25.50668 25.87621 25.69145
#
# Velocity S-wave (km/s) = 3.76888 3.79608 3.78251
# Velocity P-wave (km/s) = 6.10755 6.16185 6.13476
#
# Compressibility (1/GPa) = 0.03032708
#
# Stress axis : x y z
#
# Youngs Moduli (GPa) = 70.98447 70.98447 59.46578
#
# Poissons Ratio (x) = 0.23712 0.11869
# Poissons Ratio (y) = 0.23712 0.11869
# Poissons Ratio (z) = 0.14168 0.14168
#
# Static dielectric constant tensor:
#      x y z
#    x 3.379540 0.000000 0.000000 
#    y 0.000000 3.379540 0.000000 
#    z 0.000000 0.000000 3.354560 
# 
# 
# High freq. dielectric constant tensor:
#      x y z
#    x 1.694280 0.000000 0.000000 
#    y 0.000000 1.694280 0.000000 
#    z 0.000000 0.000000 1.698530 
# 
# From -- ./inp_files/4179.got.cif
#   From: 2010.03.12/outbox.cif.g09.slc.cpg/sg105_3_cif.got.tgz:4179.got - 2010.04.14 01:45:32.
