data_PCOD8307313
_publ_section_title
;
Structure prediction by ZEFSAII (Michael W. Deem and Ramdas Pophale) SiO2 
 PCOD8307313
Probable space group: P 42 M C
;
_chemical_formula_sum "Si O2"
_cell_formula_units_Z 48
_cell_length_a 9.324166
_cell_length_b 9.324166
_cell_length_c 31.043781
_cell_angle_alpha 90.000000
_cell_angle_beta 90.000000
_cell_angle_gamma 90.000000
_cell_volume 2698.948543
_symmetry_space_group_name_H-M "P 42 M C"
_symmetry_group_IT_number 105
_symmetry_cell_setting 'tetragonal'
loop_
_space_group_symop_operation_xyz
x,y,z
-y,x,1/2+z
-x,-y,z
y,-x,1/2+z
-x,y,z
x,-y,z
-y,-x,1/2+z
y,x,1/2+z
loop_
_atom_site_type_symbol
_atom_site_label
_atom_site_fract_x
_atom_site_fract_y
_atom_site_fract_z
Si Si1 0.833666 0.668666 0.248300
Si Si2 0.832604 0.164275 0.333284
Si Si3 0.661530 0.829591 0.508809
Si Si4 0.661530 0.829591 0.414498
Si Si5 0.167396 0.835725 0.590022
Si Si6 0.166334 0.331334 0.675006
O O1 0.805598 0.500000 0.250942
O O2 0.785128 0.739458 0.293101
O O3 0.735734 0.735733 0.211653
O O4 0.000000 0.703498 0.238475
O O5 0.759142 0.230428 0.375953
O O6 0.000000 0.174016 0.341633
O O7 0.784837 0.000000 0.324376
O O8 0.500000 0.775803 0.516663
O O9 0.715405 0.774989 0.461653
O O10 0.759142 0.769572 0.547354
O O11 0.667847 0.000000 0.509264
O O12 0.500000 0.775803 0.406643
O O13 0.667847 0.000000 0.414043
O O14 0.214871 0.739457 0.630205
O O15 0.000000 0.825986 0.581674
O O16 0.215164 0.000000 0.598930
O O17 0.194402 0.500000 0.672364
O O18 0.000000 0.296502 0.684832
#
# Coordination Sequence:
#
# PCOD8307313 Si02
#       6
#     8   8   8   8   8   8
#     4  10  21  36  53  73  98 128 162 201 245 293
#     4   9  17  29  47  71  96 122 154 194 239 285
#     4   8  14  25  42  66  95 124 155 193 235 278
#     4   8  14  25  42  66  95 124 155 193 235 278
#     4   9  17  29  47  71  96 122 154 194 239 285
#     4  10  21  36  53  73  98 128 162 201 245 293
#
# _framework density 17.784704999999999
#
# number of rings (size 3 to 8) (size 9 to 14) (size 15 to 20)
#    0.000    3.000    0.000    2.000    0.000    4.000 
#    0.000    6.667    0.000    1.000    0.000    7.000 
#    0.000    0.000    0.000    0.000    0.000    0.000 
#
# Total GULP energy -595017.688201 kJ/mol
# GULP energy per Si atom -12396.201838 kJ/mol
# Density = 1.774423 g / cm^3
# Si number density = 17.784705 Si / 1000 Ang^3
#
#
#
# Elastic Constant Matrix: (Units=GPa)
#
#
# Indices 1 2 3 4 5 6 
#
# 1 61.9836 37.8258 72.8527 0.0000 0.0000 0.0000
# 2 37.8258 61.9836 72.8527 0.0000 0.0000 0.0000
# 3 72.8527 72.8527 195.1088 0.0000 0.0000 0.0000
# 4 0.0000 0.0000 0.0000 1.8542 0.0000 0.0000
# 5 0.0000 0.0000 0.0000 0.0000 1.8542 0.0000
# 6 0.0000 0.0000 0.0000 0.0000 0.0000 15.4968
#
#
#
# Elastic Compliance Matrix: (Units=1/GPa)
#
#
# Indices 1 2 3 4 5 6 
#
# 1 0.031710 -0.009685 -0.008224 0.000000 0.000000 0.000000
# 2 -0.009685 0.031710 -0.008224 0.000000 0.000000 0.000000
# 3 -0.008224 -0.008224 0.011267 0.000000 0.000000 0.000000
# 4 0.000000 0.000000 0.000000 0.539330 0.000000 0.000000
# 5 0.000000 0.000000 0.000000 0.000000 0.539330 0.000000
# 6 0.000000 0.000000 0.000000 0.000000 0.000000 0.064529
#
#
# Mechanical properties :
#
#
# Convention : Reuss Voigt Hill
#
# Bulk Modulus (GPa) = 44.60197 76.23762 60.41980
# Shear Modulus (GPa) = 3.91355 12.87735 8.39545
#
# Velocity S-wave (km/s) = 1.48502 2.69377 2.17505
# Velocity P-wave (km/s) = 5.29846 7.25501 6.35252
#
# Compressibility (1/GPa) = 0.02242053
#
# Stress axis : x y z
#
# Youngs Moduli (GPa) = 31.53625 31.53625 88.75592
#
# Poissons Ratio (x) = 0.30543 0.72992
# Poissons Ratio (y) = 0.30543 0.72992
# Poissons Ratio (z) = 0.25935 0.25935
#
# Static dielectric constant tensor:
#      x y z
#    x 3.125350 0.000000 0.000000 
#    y 0.000000 3.125350 0.000000 
#    z 0.000000 0.000000 3.743340 
# 
# 
# High freq. dielectric constant tensor:
#      x y z
#    x 1.662740 0.000000 0.000000 
#    y 0.000000 1.662740 0.000000 
#    z 0.000000 0.000000 1.705860 
# 
# From -- ./inp_files/4714.got.cif
#   From: 2010.03.12/outbox.cif.g09.slc.cpg/sg105_3_cif.got.tgz:4714.got - 2010.04.14 01:45:32.
