data_PCOD8307639
_publ_section_title
;
Structure prediction by ZEFSAII (Michael W. Deem and Ramdas Pophale) SiO2 
 PCOD8307639
Probable space group: I 4 M M
;
_chemical_formula_sum "Si O2"
_cell_formula_units_Z 96
_cell_length_a 23.341652
_cell_length_b 23.341652
_cell_length_c 9.621703
_cell_angle_alpha 90.000000
_cell_angle_beta 90.000000
_cell_angle_gamma 90.000000
_cell_volume 5242.218598
_symmetry_space_group_name_H-M "I 4 M M"
_symmetry_group_IT_number 107
_symmetry_cell_setting 'tetragonal'
loop_
_space_group_symop_operation_xyz
x,y,z
-y,x,z
-x,-y,z
y,-x,z
-x,y,z
x,-y,z
-y,-x,z
y,x,z
1/2+x,1/2+y,1/2+z
1/2-y,1/2+x,1/2+z
1/2-x,1/2-y,1/2+z
1/2+y,1/2-x,1/2+z
1/2-x,1/2+y,1/2+z
1/2+x,1/2-y,1/2+z
1/2-y,1/2-x,1/2+z
1/2+y,1/2+x,1/2+z
loop_
_atom_site_type_symbol
_atom_site_label
_atom_site_fract_x
_atom_site_fract_y
_atom_site_fract_z
Si Si1 0.655071 0.564573 0.103210
Si Si2 0.155035 0.563986 0.321626
Si Si3 0.932778 0.740792 0.397978
Si Si4 0.643976 0.738217 0.630902
Si Si5 0.064264 0.784484 0.881530
Si Si6 0.855974 0.634509 0.059509
O O1 0.633298 0.500000 0.091453
O O2 0.603861 0.603861 0.050877
O O3 0.670298 0.579652 0.262184
O O4 0.707870 0.575511 0.003338
O O5 0.131414 0.500000 0.301018
O O6 0.223255 0.566531 0.305636
O O7 0.128111 0.604448 0.204050
O O8 0.138047 0.584766 0.475088
O O9 0.900728 0.756210 0.256046
O O10 0.902807 0.686794 0.468166
O O11 0.000000 0.727838 0.368990
O O12 0.698183 0.698183 0.670141
O O13 0.610069 0.709147 0.503828
O O14 0.667817 0.801111 0.588185
O O15 0.000000 0.794891 0.940515
#
# Coordination Sequence:
#
# PCOD8307639 Si02
#       6
#    16  16  16  16  16  16
#     4  10  20  34  55  81 110 147 188 232 280 330
#     4  10  20  38  60  82 113 148 188 230 274 334
#     4  11  22  39  60  81 110 153 197 231 273 343
#     4  11  23  36  55  87 121 148 180 234 293 340
#     4   9  18  35  57  81 109 151 194 224 269 335
#     4  11  21  39  56  87 111 148 189 229 287 336
#
# _framework density 18.312857999999999
#
# number of rings (size 3 to 8) (size 9 to 14) (size 15 to 20)
#    0.000    1.667    3.333    2.000    0.000    2.167 
#    0.000    0.000    0.000    4.000    0.000    0.000 
#    0.000   12.000    0.000    0.000    0.000    0.000 
#
# Total GULP energy -595198.767775 kJ/mol
# GULP energy per Si atom -12399.974329 kJ/mol
# Density = 1.827118 g / cm^3
# Si number density = 18.312858 Si / 1000 Ang^3
#
#
#
# Elastic Constant Matrix: (Units=GPa)
#
#
# Indices 1 2 3 4 5 6 
#
# 1 92.0392 52.7870 27.3136 0.0000 0.0000 0.0000
# 2 52.7870 92.0392 27.3136 0.0000 0.0000 0.0000
# 3 27.3136 27.3136 69.3303 0.0000 0.0000 0.0000
# 4 0.0000 0.0000 0.0000 22.0782 0.0000 0.0000
# 5 0.0000 0.0000 0.0000 0.0000 22.0782 0.0000
# 6 0.0000 0.0000 0.0000 0.0000 0.0000 24.4127
#
#
#
# Elastic Compliance Matrix: (Units=1/GPa)
#
#
# Indices 1 2 3 4 5 6 
#
# 1 0.016793 -0.008683 -0.003195 0.000000 0.000000 0.000000
# 2 -0.008683 0.016793 -0.003195 0.000000 0.000000 0.000000
# 3 -0.003195 -0.003195 0.016941 0.000000 0.000000 0.000000
# 4 0.000000 0.000000 0.000000 0.045293 0.000000 0.000000
# 5 0.000000 0.000000 0.000000 0.000000 0.045293 0.000000
# 6 0.000000 0.000000 0.000000 0.000000 0.000000 0.040962
#
#
# Mechanical properties :
#
#
# Convention : Reuss Voigt Hill
#
# Bulk Modulus (GPa) = 49.06541 52.02637 50.54589
# Shear Modulus (GPa) = 22.82930 23.44680 23.13805
#
# Velocity S-wave (km/s) = 3.53459 3.58207 3.55841
# Velocity P-wave (km/s) = 6.59612 6.75128 6.67415
#
# Compressibility (1/GPa) = 0.02038096
#
# Stress axis : x y z
#
# Youngs Moduli (GPa) = 59.54815 59.54815 59.02784
#
# Poissons Ratio (x) = 0.51707 0.18860
# Poissons Ratio (y) = 0.51707 0.18860
# Poissons Ratio (z) = 0.19026 0.19026
#
# Static dielectric constant tensor:
#      x y z
#    x 3.357670 0.000000 0.000000 
#    y 0.000000 3.357670 0.000000 
#    z 0.000000 0.000000 3.554070 
# 
# 
# High freq. dielectric constant tensor:
#      x y z
#    x 1.701620 0.000000 0.000000 
#    y 0.000000 1.701620 0.000000 
#    z 0.000000 0.000000 1.723360 
# 
# From -- ./inp_files/1488.got.cif
#   From: 2010.03.12/outbox.cif.g09.slc.cpg/sg107_1_cif.got.tgz:1488.got - 2010.04.14 01:49:11.
