data_PCOD8307172
_publ_section_title
;
Structure prediction by ZEFSAII (Michael W. Deem and Ramdas Pophale) SiO2 
 PCOD8307172
Probable space group: P 42 M C
;
_chemical_formula_sum "Si O2"
_cell_formula_units_Z 56
_cell_length_a 16.073335
_cell_length_b 16.073335
_cell_length_c 11.035960
_cell_angle_alpha 90.000000
_cell_angle_beta 90.000000
_cell_angle_gamma 90.000000
_cell_volume 2851.163420
_symmetry_space_group_name_H-M "P 42 M C"
_symmetry_group_IT_number 105
_symmetry_cell_setting 'tetragonal'
loop_
_space_group_symop_operation_xyz
x,y,z
-y,x,1/2+z
-x,-y,z
y,-x,1/2+z
-x,y,z
x,-y,z
-y,-x,1/2+z
y,x,1/2+z
loop_
_atom_site_type_symbol
_atom_site_label
_atom_site_fract_x
_atom_site_fract_y
_atom_site_fract_z
Si Si1 0.750712 0.597285 0.774380
Si Si2 0.902448 0.186133 0.237123
Si Si3 0.405703 0.294823 0.813204
Si Si4 0.218669 0.318944 0.526220
Si Si5 0.180573 0.903112 0.011612
Si Si6 0.597848 0.091352 0.418924
Si Si7 0.813968 0.333152 0.124746
O O1 0.745570 0.500000 0.795130
O O2 0.662101 0.631562 0.821515
O O3 0.764814 0.620543 0.637159
O O4 0.832391 0.634938 0.841013
O O5 0.881479 0.148735 0.372490
O O6 0.849942 0.271280 0.227247
O O7 0.000000 0.204634 0.228678
O O8 0.878433 0.130472 0.119930
O O9 0.500000 0.329034 0.830627
O O10 0.401250 0.245997 0.686122
O O11 0.381012 0.227982 0.914362
O O12 0.128193 0.275720 0.527076
O O13 0.283290 0.241718 0.526700
O O14 0.182571 0.000000 0.030552
O O15 0.500000 0.087866 0.403882
O O16 0.621849 0.109782 0.558096
O O17 0.634679 0.000000 0.382638
#
# Coordination Sequence:
#
# PCOD8307172 Si02
#       7
#     8   8   8   8   8   8   8
#     4  10  22  39  58  86 123 155 197 258 312 370
#     4  10  21  37  60  87 121 163 205 257 316 374
#     4  11  21  36  60  85 115 160 202 242 302 369
#     4  10  20  37  59  82 114 156 197 243 302 365
#     4  10  22  39  60  88 123 163 208 255 309 376
#     4  10  20  35  57  84 115 152 191 242 307 367
#     4  10  19  35  57  83 113 148 196 250 293 359
#
# _framework density 19.641103999999999
#
# number of rings (size 3 to 8) (size 9 to 14) (size 15 to 20)
#    0.000    1.857    2.857    1.286    0.000    1.714 
#    0.000    1.429    0.000    3.857    0.000    0.000 
#    0.000    0.000    0.000    0.000    0.000    0.000 
#
# Total GULP energy -693788.162453 kJ/mol
# GULP energy per Si atom -12389.074330 kJ/mol
# Density = 1.959640 g / cm^3
# Si number density = 19.641104 Si / 1000 Ang^3
#
#
#
# Elastic Constant Matrix: (Units=GPa)
#
#
# Indices 1 2 3 4 5 6 
#
# 1 97.6347 38.0193 31.8573 0.0000 0.0000 0.0000
# 2 38.0193 97.6347 31.8573 0.0000 0.0000 0.0000
# 3 31.8573 31.8573 74.4913 0.0000 0.0000 0.0000
# 4 0.0000 0.0000 0.0000 27.2193 0.0000 0.0000
# 5 0.0000 0.0000 0.0000 0.0000 27.2193 0.0000
# 6 0.0000 0.0000 0.0000 0.0000 0.0000 22.5029
#
#
#
# Elastic Compliance Matrix: (Units=1/GPa)
#
#
# Indices 1 2 3 4 5 6 
#
# 1 0.012999 -0.003775 -0.003945 0.000000 0.000000 0.000000
# 2 -0.003775 0.012999 -0.003945 0.000000 0.000000 0.000000
# 3 -0.003945 -0.003945 0.016799 0.000000 0.000000 0.000000
# 4 0.000000 0.000000 0.000000 0.036739 0.000000 0.000000
# 5 0.000000 0.000000 0.000000 0.000000 0.036739 0.000000
# 6 0.000000 0.000000 0.000000 0.000000 0.000000 0.044439
#
#
# Mechanical properties :
#
#
# Convention : Reuss Voigt Hill
#
# Bulk Modulus (GPa) = 51.36696 52.58094 51.97395
# Shear Modulus (GPa) = 26.24225 26.59009 26.41617
#
# Velocity S-wave (km/s) = 3.65922 3.68339 3.67133
# Velocity P-wave (km/s) = 6.63798 6.70215 6.67014
#
# Compressibility (1/GPa) = 0.01946777
#
# Stress axis : x y z
#
# Youngs Moduli (GPa) = 76.92659 76.92659 59.52848
#
# Poissons Ratio (x) = 0.29038 0.23484
# Poissons Ratio (y) = 0.29038 0.23484
# Poissons Ratio (z) = 0.30348 0.30348
#
# Static dielectric constant tensor:
#      x y z
#    x 3.546640 0.000000 0.000000 
#    y 0.000000 3.546640 0.000000 
#    z 0.000000 0.000000 3.701800 
# 
# 
# High freq. dielectric constant tensor:
#      x y z
#    x 1.754470 0.000000 0.000000 
#    y 0.000000 1.754470 0.000000 
#    z 0.000000 0.000000 1.776980 
# 
# From -- ./inp_files/1950.got.cif
#   From: 2010.03.12/outbox.cif.g09.slc.cpg/sg105_1_cif.got.tgz:1950.got - 2010.04.14 01:45:32.
