data_PCOD8307650
_publ_section_title
;
Structure prediction by ZEFSAII (Michael W. Deem and Ramdas Pophale) SiO2 
 PCOD8307650
Probable space group: I 4 M M
;
_chemical_formula_sum "Si O2"
_cell_formula_units_Z 128
_cell_length_a 22.567720
_cell_length_b 22.567720
_cell_length_c 12.378137
_cell_angle_alpha 90.000000
_cell_angle_beta 90.000000
_cell_angle_gamma 90.000000
_cell_volume 6304.209757
_symmetry_space_group_name_H-M "I 4 M M"
_symmetry_group_IT_number 107
_symmetry_cell_setting 'tetragonal'
loop_
_space_group_symop_operation_xyz
x,y,z
-y,x,z
-x,-y,z
y,-x,z
-x,y,z
x,-y,z
-y,-x,z
y,x,z
1/2+x,1/2+y,1/2+z
1/2-y,1/2+x,1/2+z
1/2-x,1/2-y,1/2+z
1/2+y,1/2-x,1/2+z
1/2-x,1/2+y,1/2+z
1/2+x,1/2-y,1/2+z
1/2-y,1/2-x,1/2+z
1/2+y,1/2+x,1/2+z
loop_
_atom_site_type_symbol
_atom_site_label
_atom_site_fract_x
_atom_site_fract_y
_atom_site_fract_z
Si Si1 0.707143 0.386352 0.972710
Si Si2 0.932645 0.568865 0.868113
Si Si3 0.663384 0.431381 0.199005
Si Si4 0.868684 0.344281 0.721099
Si Si5 0.660907 0.567500 0.757279
Si Si6 0.673833 0.068150 0.514084
Si Si7 0.139061 0.234663 0.865622
Si Si8 0.242218 0.854695 0.115309
O O1 0.681476 0.318525 0.967279
O O2 0.673461 0.425906 0.884608
O O3 0.697694 0.413553 0.090520
O O4 0.778089 0.389737 0.951158
O O5 0.937654 0.500000 0.843661
O O6 0.895584 0.595338 0.768456
O O7 0.000000 0.595007 0.881203
O O8 0.893439 0.581655 0.975296
O O9 0.650600 0.500000 0.202320
O O10 0.599919 0.400082 0.201358
O O11 0.701139 0.413724 0.304177
O O12 0.919518 0.320423 0.641223
O O13 0.855399 0.300513 0.819662
O O14 0.810299 0.350660 0.648611
O O15 0.653262 0.500000 0.724535
O O16 0.600057 0.600057 0.725860
O O17 0.714587 0.595046 0.690286
O O18 0.690895 0.000000 0.490903
O O19 0.200963 0.200963 0.844418
O O20 0.123923 0.237701 0.991911
O O21 0.208033 0.791968 0.132072
#
# Coordination Sequence:
#
# PCOD8307650 Si02
#       8
#    16  16  16  16  16  16  16  16
#     4  10  20  35  59  91 126 162 205 257 315 376
#     4  10  24  44  60  81 117 156 196 248 309 368
#     4  10  20  35  57  86 122 165 209 258 313 366
#     4  12  22  37  64  92 113 151 201 252 299 362
#     4  10  21  38  60  86 119 160 205 255 310 371
#     4  11  22  37  61  88 118 157 203 250 301 369
#     4  10  22  40  60  87 125 161 198 248 306 367
#     4  10  23  40  58  87 126 162 198 247 313 379
#
# _framework density 20.303892999999999
#
# number of rings (size 3 to 8) (size 9 to 14) (size 15 to 20)
#    0.000    1.625    1.250    3.375    0.000    3.750 
#    0.000    5.625    0.000    2.250    0.000    3.500 
#    0.000    0.000    0.000    0.000    0.000    0.000 
#
# Total GULP energy -793503.816132 kJ/mol
# GULP energy per Si atom -12398.497127 kJ/mol
# Density = 2.025768 g / cm^3
# Si number density = 20.303893 Si / 1000 Ang^3
#
#
#
# Elastic Constant Matrix: (Units=GPa)
#
#
# Indices 1 2 3 4 5 6 
#
# 1 119.4503 43.4877 37.9460 0.0000 0.0000 -0.0002
# 2 43.4877 119.4503 37.9460 0.0000 0.0000 0.0002
# 3 37.9460 37.9460 97.6406 0.0000 0.0000 0.0000
# 4 0.0000 0.0000 0.0000 25.6819 0.0000 0.0000
# 5 0.0000 0.0000 0.0000 0.0000 25.6819 0.0000
# 6 -0.0002 0.0002 0.0000 0.0000 0.0000 22.0621
#
#
#
# Elastic Compliance Matrix: (Units=1/GPa)
#
#
# Indices 1 2 3 4 5 6 
#
# 1 0.010329 -0.002835 -0.002912 0.000000 0.000000 0.000000
# 2 -0.002835 0.010329 -0.002912 0.000000 0.000000 0.000000
# 3 -0.002912 -0.002912 0.012505 0.000000 0.000000 0.000000
# 4 0.000000 0.000000 0.000000 0.038938 0.000000 0.000000
# 5 0.000000 0.000000 0.000000 0.000000 0.038938 0.000000
# 6 0.000000 0.000000 0.000000 0.000000 0.000000 0.045327
#
#
# Mechanical properties :
#
#
# Convention : Reuss Voigt Hill
#
# Bulk Modulus (GPa) = 63.11698 63.92229 63.51964
# Shear Modulus (GPa) = 27.93816 29.16263 28.55040
#
# Velocity S-wave (km/s) = 3.71347 3.79398 3.75394
# Velocity P-wave (km/s) = 7.03848 7.12344 7.08109
#
# Compressibility (1/GPa) = 0.01584360
#
# Stress axis : x y z
#
# Youngs Moduli (GPa) = 96.81411 96.81411 79.96641
#
# Poissons Ratio (x) = 0.27450 0.23289
# Poissons Ratio (y) = 0.27450 0.23289
# Poissons Ratio (z) = 0.28195 0.28195
#
# Static dielectric constant tensor:
#      x y z
#    x 3.712470 0.000000 0.000000 
#    y 0.000000 3.712470 0.000000 
#    z 0.000000 0.000000 3.771220 
# 
# 
# High freq. dielectric constant tensor:
#      x y z
#    x 1.791000 0.000000 0.000000 
#    y 0.000000 1.791000 0.000000 
#    z 0.000000 0.000000 1.798420 
# 
# From -- ./inp_files/2676.got.cif
#   From: 2010.03.12/outbox.cif.g09.slc.cpg/sg107_2_cif.got.tgz:2676.got - 2010.04.14 01:49:11.
