data_PCOD8307558
_publ_section_title
;
Structure prediction by ZEFSAII (Michael W. Deem and Ramdas Pophale) SiO2 
 PCOD8307558
Probable space group: I 4 M M
;
_chemical_formula_sum "Si O2"
_cell_formula_units_Z 80
_cell_length_a 12.591265
_cell_length_b 12.591265
_cell_length_c 29.026231
_cell_angle_alpha 90.000000
_cell_angle_beta 90.000000
_cell_angle_gamma 90.000000
_cell_volume 4601.817336
_symmetry_space_group_name_H-M "I 4 M M"
_symmetry_group_IT_number 107
_symmetry_cell_setting 'tetragonal'
loop_
_space_group_symop_operation_xyz
x,y,z
-y,x,z
-x,-y,z
y,-x,z
-x,y,z
x,-y,z
-y,-x,z
y,x,z
1/2+x,1/2+y,1/2+z
1/2-y,1/2+x,1/2+z
1/2-x,1/2-y,1/2+z
1/2+y,1/2-x,1/2+z
1/2-x,1/2+y,1/2+z
1/2+x,1/2-y,1/2+z
1/2-y,1/2-x,1/2+z
1/2+y,1/2+x,1/2+z
loop_
_atom_site_type_symbol
_atom_site_label
_atom_site_fract_x
_atom_site_fract_y
_atom_site_fract_z
Si Si1 0.626175 0.000000 0.367460
Si Si2 0.616808 0.875034 0.123205
Si Si3 0.624652 0.792877 0.525997
Si Si4 0.208902 0.625226 0.719345
Si Si5 0.625920 0.000000 0.471197
Si Si6 0.796722 0.378026 0.310938
O O1 0.671281 0.000000 0.419398
O O2 0.666447 0.893648 0.342040
O O3 0.500000 0.000000 0.366730
O O4 0.500000 0.823785 0.116901
O O5 0.689040 0.847229 0.079508
O O6 0.668364 0.832204 0.170111
O O7 0.603832 0.000000 0.127195
O O8 0.500000 0.770935 0.518120
O O9 0.689653 0.689653 0.509072
O O10 0.665180 0.894703 0.497395
O O11 0.220983 0.500000 0.721284
O O12 0.324581 0.675420 0.728789
O O13 0.127132 0.666415 0.757856
O O14 0.500000 0.000000 0.471475
O O15 0.768472 0.500000 0.322902
O O16 0.693117 0.306884 0.320920
#
# Coordination Sequence:
#
# PCOD8307558 Si02
#       6
#     8  16  16  16   8  16
#     4   9  18  34  56  75  99 133 175 220 257 305
#     4   9  16  28  47  70  98 134 176 217 254 300
#     4  10  19  32  51  77 107 137 174 217 263 313
#     4  10  19  30  47  73 104 140 177 214 259 308
#     4   9  18  34  54  75  99 135 177 216 255 305
#     4  10  20  34  53  78 107 137 173 216 261 311
#
# _framework density 17.384436000000001
#
# number of rings (size 3 to 8) (size 9 to 14) (size 15 to 20)
#    0.000    2.400    2.000    1.200    0.000    2.200 
#    0.000    0.000    0.000    4.200    0.000    7.000 
#    0.000    0.000    0.000    0.000    0.000    0.000 
#
# Total GULP energy -495883.876304 kJ/mol
# GULP energy per Si atom -12397.096908 kJ/mol
# Density = 1.734487 g / cm^3
# Si number density = 17.384436 Si / 1000 Ang^3
#
#
#
# Elastic Constant Matrix: (Units=GPa)
#
#
# Indices 1 2 3 4 5 6 
#
# 1 89.7056 57.7112 32.8922 0.0000 0.0000 0.0005
# 2 57.7112 89.7056 32.8922 0.0000 0.0000 -0.0005
# 3 32.8922 32.8922 116.4988 0.0000 0.0000 0.0000
# 4 0.0000 0.0000 0.0000 14.3749 0.0000 0.0000
# 5 0.0000 0.0000 0.0000 0.0000 14.3749 0.0000
# 6 0.0005 -0.0005 0.0000 0.0000 0.0000 17.7822
#
#
#
# Elastic Compliance Matrix: (Units=1/GPa)
#
#
# Indices 1 2 3 4 5 6 
#
# 1 0.019508 -0.011747 -0.002191 0.000000 0.000000 -0.000001
# 2 -0.011747 0.019508 -0.002191 0.000000 0.000000 0.000001
# 3 -0.002191 -0.002191 0.009821 0.000000 0.000000 0.000000
# 4 0.000000 0.000000 0.000000 0.069566 0.000000 0.000000
# 5 0.000000 0.000000 0.000000 0.000000 0.069566 0.000000
# 6 -0.000001 0.000001 0.000000 0.000000 0.000000 0.056236
#
#
# Mechanical properties :
#
#
# Convention : Reuss Voigt Hill
#
# Bulk Modulus (GPa) = 60.31888 60.32236 60.32062
# Shear Modulus (GPa) = 17.73104 20.80068 19.26586
#
# Velocity S-wave (km/s) = 3.19711 3.46282 3.33261
# Velocity P-wave (km/s) = 6.95709 7.12478 7.04143
#
# Compressibility (1/GPa) = 0.01657856
#
# Stress axis : x y z
#
# Youngs Moduli (GPa) = 51.26003 51.26003 101.82071
#
# Poissons Ratio (x) = 0.60215 0.22312
# Poissons Ratio (y) = 0.60215 0.22312
# Poissons Ratio (z) = 0.11233 0.11233
#
# Static dielectric constant tensor:
#      x y z
#    x 3.047030 0.000000 0.000000 
#    y 0.000000 3.047030 0.000000 
#    z 0.000000 0.000000 3.478980 
# 
# 
# High freq. dielectric constant tensor:
#      x y z
#    x 1.651820 0.000000 0.000000 
#    y 0.000000 1.651820 0.000000 
#    z 0.000000 0.000000 1.680830 
# 
# From -- ./inp_files/5975.got.cif
#   From: 2010.03.12/outbox.cif.g09.slc.cpg/sg107_3_cif.got.tgz:5975.got - 2010.04.14 01:49:11.
