data_PCOD8307045
_publ_section_title
;
Structure prediction by ZEFSAII (Michael W. Deem and Ramdas Pophale) SiO2 
 PCOD8307045
Probable space group: P 4 N C 
;
_chemical_formula_sum "Si O2"
_cell_formula_units_Z 48
_cell_length_a 9.419468
_cell_length_b 9.419468
_cell_length_c 29.240369
_cell_angle_alpha 90.000000
_cell_angle_beta 90.000000
_cell_angle_gamma 90.000000
_cell_volume 2594.392015
_symmetry_space_group_name_H-M "P 4 N C "
_symmetry_group_IT_number 104
_symmetry_cell_setting 'tetragonal'
loop_
_space_group_symop_operation_xyz
x,y,z
-y,x,z
-x,-y,z
y,-x,z
1/2-x,1/2+y,1/2+z
1/2+x,1/2-y,1/2+z
1/2-y,1/2-x,1/2+z
1/2+y,1/2+x,1/2+z
loop_
_atom_site_type_symbol
_atom_site_label
_atom_site_fract_x
_atom_site_fract_y
_atom_site_fract_z
Si Si1 0.226521 0.052205 0.635180
Si Si2 0.500000 0.000000 0.076663
Si Si3 0.500000 0.000000 0.851116
Si Si4 0.486948 0.271064 0.411271
Si Si5 0.366855 0.169688 0.234883
Si Si6 0.770928 0.017414 0.017397
Si Si7 0.379297 0.850125 0.770807
O O1 0.370422 0.063497 0.606327
O O2 0.261926 0.094148 0.686937
O O3 0.104932 0.167309 0.624255
O O4 0.371012 0.950946 0.045180
O O5 0.369641 0.040606 0.882893
O O6 0.457463 0.860576 0.820293
O O7 0.631162 0.352787 0.398693
O O8 0.502242 0.231871 0.464356
O O9 0.228092 0.223902 0.261724
O O10 0.501074 0.205423 0.266987
O O11 0.342586 0.999760 0.230938
O O12 0.871585 0.149644 0.030157
#
# Coordination Sequence:
#
# PCOD8307045 Si02
#       7
#     8   4   4   8   8   8   8
#     4  11  23  37  57  82 112 147 193 246 290 340
#     4  12  21  35  60  86 116 150 188 243 291 352
#     4  10  21  33  54  92 114 140 194 243 279 340
#     4   9  19  36  60  85 116 153 191 235 283 344
#     4  10  20  41  54  81 107 152 184 238 287 348
#     4   9  19  37  58  85 118 153 188 229 290 351
#     4  10  23  35  60  79 112 145 193 229 292 342
#
# _framework density 18.501443999999999
#
# number of rings (size 3 to 8) (size 9 to 14) (size 15 to 20)
#    0.000    2.167    1.667    3.500    4.667    0.667 
#    0.000    0.000    0.000    0.500    0.000    4.667 
#    0.000    0.000    0.000    0.000    0.000    0.000 
#
# Total GULP energy -594633.158291 kJ/mol
# GULP energy per Si atom -12388.190798 kJ/mol
# Density = 1.845933 g / cm^3
# Si number density = 18.501444 Si / 1000 Ang^3
#
#
#
# Elastic Constant Matrix: (Units=GPa)
#
#
# Indices 1 2 3 4 5 6 
#
# 1 101.1174 36.1126 42.3091 0.0000 0.0000 0.0000
# 2 36.1126 101.1174 42.3091 0.0000 0.0000 0.0000
# 3 42.3091 42.3091 72.8185 0.0000 0.0000 0.0000
# 4 0.0000 0.0000 0.0000 30.7519 0.0000 0.0000
# 5 0.0000 0.0000 0.0000 0.0000 30.7519 0.0000
# 6 0.0000 0.0000 0.0000 0.0000 0.0000 27.8679
#
#
#
# Elastic Compliance Matrix: (Units=1/GPa)
#
#
# Indices 1 2 3 4 5 6 
#
# 1 0.013369 -0.002014 -0.006598 0.000000 0.000000 0.000000
# 2 -0.002014 0.013369 -0.006598 0.000000 0.000000 0.000000
# 3 -0.006598 -0.006598 0.021399 0.000000 0.000000 0.000000
# 4 0.000000 0.000000 0.000000 0.032518 0.000000 0.000000
# 5 0.000000 0.000000 0.000000 0.000000 0.032518 0.000000
# 6 0.000000 0.000000 0.000000 0.000000 0.000000 0.035884
#
#
# Mechanical properties :
#
#
# Convention : Reuss Voigt Hill
#
# Bulk Modulus (GPa) = 56.43517 57.39054 56.91286
# Shear Modulus (GPa) = 26.97109 28.16250 27.56680
#
# Velocity S-wave (km/s) = 3.82223 3.90574 3.86421
# Velocity P-wave (km/s) = 7.07451 7.17123 7.12303
#
# Compressibility (1/GPa) = 0.01771945
#
# Stress axis : x y z
#
# Youngs Moduli (GPa) = 74.79791 74.79791 46.73012
#
# Poissons Ratio (x) = 0.15065 0.30831
# Poissons Ratio (y) = 0.15065 0.30831
# Poissons Ratio (z) = 0.49349 0.49349
#
# Static dielectric constant tensor:
#      x y z
#    x 3.422590 0.000000 0.000000 
#    y 0.000000 3.422590 0.000000 
#    z 0.000000 0.000000 3.360150 
# 
# 
# High freq. dielectric constant tensor:
#      x y z
#    x 1.717070 0.000000 0.000000 
#    y 0.000000 1.717070 0.000000 
#    z 0.000000 0.000000 1.713190 
# 
# From -- ./inp_files/1919.got.cif
#   From: 2010.03.12/outbox.cif.g09.slc.cpg/sg104_cif.got.tgz:1919.got - 2010.04.14 01:44:05.
