data_PCOD8307225
_publ_section_title
;
Structure prediction by ZEFSAII (Michael W. Deem and Ramdas Pophale) SiO2 
 PCOD8307225
Probable space group: P 42 M C
;
_chemical_formula_sum "Si O2"
_cell_formula_units_Z 48
_cell_length_a 8.169976
_cell_length_b 8.169976
_cell_length_c 34.178330
_cell_angle_alpha 90.000000
_cell_angle_beta 90.000000
_cell_angle_gamma 90.000000
_cell_volume 2281.352528
_symmetry_space_group_name_H-M "P 42 M C"
_symmetry_group_IT_number 105
_symmetry_cell_setting 'tetragonal'
loop_
_space_group_symop_operation_xyz
x,y,z
-y,x,1/2+z
-x,-y,z
y,-x,1/2+z
-x,y,z
x,-y,z
-y,-x,1/2+z
y,x,1/2+z
loop_
_atom_site_type_symbol
_atom_site_label
_atom_site_fract_x
_atom_site_fract_y
_atom_site_fract_z
Si Si1 0.181437 0.807830 0.492910
Si Si2 0.181060 0.313061 0.913564
Si Si3 0.694628 0.500000 0.620360
Si Si4 0.188318 0.183553 0.753932
Si Si5 0.194612 0.500000 0.708873
Si Si6 0.311821 0.815527 0.574703
Si Si7 0.314973 0.815731 0.836626
O O1 0.231635 0.728236 0.451197
O O2 0.294760 0.759203 0.529504
O O3 0.000000 0.750158 0.504021
O O4 0.194685 0.000000 0.485895
O O5 0.166150 0.500000 0.924941
O O6 0.284280 0.296655 0.874060
O O7 0.000000 0.237864 0.906017
O O8 0.500000 0.500000 0.616047
O O9 0.750393 0.500000 0.664592
O O10 0.765966 0.331592 0.600822
O O11 0.266918 0.332597 0.728632
O O12 0.204362 0.232331 0.799535
O O13 0.000000 0.170984 0.742743
O O14 0.267469 0.000000 0.746286
O O15 0.000000 0.500000 0.713301
O O16 0.500000 0.830925 0.585578
O O17 0.232184 0.000000 0.581518
O O18 0.500000 0.793159 0.822395
O O19 0.277294 0.000000 0.850161
#
# Coordination Sequence:
#
# PCOD8307225 Si02
#       7
#     8   8   4   8   4   8   8
#     4   9  17  31  53  79 105 138 183 229 273 322
#     4  10  20  33  52  78 108 145 187 228 272 329
#     4  10  22  38  56  84 114 144 182 224 282 342
#     4   9  19  37  59  81 108 145 185 229 282 335
#     4  10  22  38  58  84 112 140 182 232 276 340
#     4   9  18  35  57  79 108 145 184 227 275 335
#     4  10  21  36  53  77 109 142 181 229 280 332
#
# _framework density 21.040149
#
# number of rings (size 3 to 8) (size 9 to 14) (size 15 to 20)
#    0.000    2.500    0.000    1.500    1.167    6.000 
#    1.500    0.000    0.000    0.000    0.000    0.000 
#    0.000    0.000    0.000    0.000    0.000    0.000 
#
# Total GULP energy -594733.648470 kJ/mol
# GULP energy per Si atom -12390.284343 kJ/mol
# Density = 2.099226 g / cm^3
# Si number density = 21.040149 Si / 1000 Ang^3
#
#
#
# Elastic Constant Matrix: (Units=GPa)
#
#
# Indices 1 2 3 4 5 6 
#
# 1 69.0632 23.8393 42.8585 0.0000 0.0000 0.0000
# 2 23.8393 69.0632 42.8585 0.0000 0.0000 0.0000
# 3 42.8585 42.8585 151.2489 0.0000 0.0000 0.0000
# 4 0.0000 0.0000 0.0000 30.2047 0.0000 0.0000
# 5 0.0000 0.0000 0.0000 0.0000 30.2047 0.0000
# 6 0.0000 0.0000 0.0000 0.0000 0.0000 11.4932
#
#
#
# Elastic Compliance Matrix: (Units=1/GPa)
#
#
# Indices 1 2 3 4 5 6 
#
# 1 0.018343 -0.003769 -0.004130 0.000000 0.000000 0.000000
# 2 -0.003769 0.018343 -0.004130 0.000000 0.000000 0.000000
# 3 -0.004130 -0.004130 0.008952 0.000000 0.000000 0.000000
# 4 0.000000 0.000000 0.000000 0.033107 0.000000 0.000000
# 5 0.000000 0.000000 0.000000 0.000000 0.033107 0.000000
# 6 0.000000 0.000000 0.000000 0.000000 0.000000 0.087008
#
#
# Mechanical properties :
#
#
# Convention : Reuss Voigt Hill
#
# Bulk Modulus (GPa) = 46.33599 56.49867 51.41733
# Shear Modulus (GPa) = 21.72847 26.36842 24.04845
#
# Velocity S-wave (km/s) = 3.21707 3.54396 3.38446
# Velocity P-wave (km/s) = 5.98915 6.60736 6.30584
#
# Compressibility (1/GPa) = 0.02158150
#
# Stress axis : x y z
#
# Youngs Moduli (GPa) = 54.51574 54.51574 111.70520
#
# Poissons Ratio (x) = 0.20546 0.46133
# Poissons Ratio (y) = 0.20546 0.46133
# Poissons Ratio (z) = 0.22514 0.22514
#
# Static dielectric constant tensor:
#      x y z
#    x 3.841980 0.000000 0.000000 
#    y 0.000000 3.841980 0.000000 
#    z 0.000000 0.000000 3.756910 
# 
# 
# High freq. dielectric constant tensor:
#      x y z
#    x 1.807500 0.000000 0.000000 
#    y 0.000000 1.807500 0.000000 
#    z 0.000000 0.000000 1.821190 
# 
# From -- ./inp_files/4727.got.cif
#   From: 2010.03.12/outbox.cif.g09.slc.cpg/sg105_3_cif.got.tgz:4727.got - 2010.04.14 01:45:32.
