data_PCOD8307205
_publ_section_title
;
Structure prediction by ZEFSAII (Michael W. Deem and Ramdas Pophale) SiO2 
 PCOD8307205
Probable space group: P 42 M C
;
_chemical_formula_sum "Si O2"
_cell_formula_units_Z 48
_cell_length_a 9.814971
_cell_length_b 9.814971
_cell_length_c 26.908505
_cell_angle_alpha 90.000000
_cell_angle_beta 90.000000
_cell_angle_gamma 90.000000
_cell_volume 2592.194657
_symmetry_space_group_name_H-M "P 42 M C"
_symmetry_group_IT_number 105
_symmetry_cell_setting 'tetragonal'
loop_
_space_group_symop_operation_xyz
x,y,z
-y,x,1/2+z
-x,-y,z
y,-x,1/2+z
-x,y,z
x,-y,z
-y,-x,1/2+z
y,x,1/2+z
loop_
_atom_site_type_symbol
_atom_site_label
_atom_site_fract_x
_atom_site_fract_y
_atom_site_fract_z
Si Si1 0.842463 0.000000 0.600710
Si Si2 0.842653 0.500000 0.618936
Si Si3 0.659569 0.000000 0.698799
Si Si4 0.270586 0.842173 0.043472
Si Si5 0.353322 0.500000 0.708995
Si Si6 0.345952 0.763866 0.773121
Si Si7 0.839992 0.658446 0.856472
Si Si8 0.656227 0.344242 0.951364
O O1 0.808726 0.876586 0.564433
O O2 0.747428 0.000000 0.648817
O O3 0.000000 0.000000 0.618499
O O4 0.799749 0.630797 0.587890
O O5 0.766948 0.500000 0.670506
O O6 0.000000 0.500000 0.632892
O O7 0.700326 0.127544 0.732377
O O8 0.500000 0.000000 0.684105
O O9 0.289634 0.000000 0.028580
O O10 0.303415 0.753263 0.995942
O O11 0.500000 0.500000 0.681028
O O12 0.342128 0.623760 0.745477
O O13 0.500000 0.795264 0.793374
O O14 0.235077 0.757163 0.817141
O O15 0.824318 0.500000 0.841223
O O16 0.763129 0.686525 0.907934
O O17 0.000000 0.697949 0.860842
O O18 0.500000 0.315928 0.934017
O O19 0.670538 0.500000 0.969296
#
# Coordination Sequence:
#
# PCOD8307205 Si02
#       8
#     4   4   4   8   4   8   8   8
#     4  10  22  38  58  82 116 158 190 230 285 336
#     4  10  20  34  54  80 114 146 190 232 271 336
#     4  10  22  38  58  86 120 154 194 236 281 338
#     4  10  21  38  57  81 115 153 191 232 285 341
#     4  10  20  32  56  86 112 150 190 232 281 328
#     4  10  20  37  58  82 117 153 189 234 286 340
#     4  10  21  37  59  87 114 145 189 240 290 343
#     4  10  21  37  59  85 111 145 187 237 292 343
#
# _framework density 18.517129000000001
#
# number of rings (size 3 to 8) (size 9 to 14) (size 15 to 20)
#    0.000    2.000    1.667    1.500    1.167    3.333 
#    1.500    0.000    0.000    0.000    0.000    0.000 
#    0.000    0.000    0.000    0.000    0.000    0.000 
#
# Total GULP energy -595088.307048 kJ/mol
# GULP energy per Si atom -12397.673063 kJ/mol
# Density = 1.847498 g / cm^3
# Si number density = 18.517129 Si / 1000 Ang^3
#
#
#
# Elastic Constant Matrix: (Units=GPa)
#
#
# Indices 1 2 3 4 5 6 
#
# 1 98.8537 30.4746 41.7957 0.0000 0.0000 0.0000
# 2 30.4746 98.8537 41.7957 0.0000 0.0000 0.0000
# 3 41.7957 41.7957 79.9164 0.0000 0.0000 0.0000
# 4 0.0000 0.0000 0.0000 59.3109 0.0000 0.0000
# 5 0.0000 0.0000 0.0000 0.0000 59.3109 0.0000
# 6 0.0000 0.0000 0.0000 0.0000 0.0000 27.9411
#
#
#
# Elastic Compliance Matrix: (Units=1/GPa)
#
#
# Indices 1 2 3 4 5 6 
#
# 1 0.013153 -0.001472 -0.006109 0.000000 0.000000 0.000000
# 2 -0.001472 0.013153 -0.006109 0.000000 0.000000 0.000000
# 3 -0.006109 -0.006109 0.018903 0.000000 0.000000 0.000000
# 4 0.000000 0.000000 0.000000 0.016860 0.000000 0.000000
# 5 0.000000 0.000000 0.000000 0.000000 0.016860 0.000000
# 6 0.000000 0.000000 0.000000 0.000000 0.000000 0.035790
#
#
# Mechanical properties :
#
#
# Convention : Reuss Voigt Hill
#
# Bulk Modulus (GPa) = 56.08940 56.19508 56.14224
# Shear Modulus (GPa) = 33.77453 40.21645 36.99549
#
# Velocity S-wave (km/s) = 4.27542 4.66537 4.47464
# Velocity P-wave (km/s) = 7.39788 7.70937 7.55523
#
# Compressibility (1/GPa) = 0.01782868
#
# Stress axis : x y z
#
# Youngs Moduli (GPa) = 76.03082 76.03082 52.90178
#
# Poissons Ratio (x) = 0.11190 0.32317
# Poissons Ratio (y) = 0.11190 0.32317
# Poissons Ratio (z) = 0.46447 0.46447
#
# Static dielectric constant tensor:
#      x y z
#    x 3.537040 0.000000 0.000000 
#    y 0.000000 3.537040 0.000000 
#    z 0.000000 0.000000 3.242770 
# 
# 
# High freq. dielectric constant tensor:
#      x y z
#    x 1.724740 0.000000 0.000000 
#    y 0.000000 1.724740 0.000000 
#    z 0.000000 0.000000 1.714590 
# 
# From -- ./inp_files/4964.got.cif
#   From: 2010.03.12/outbox.cif.g09.slc.cpg/sg105_3_cif.got.tgz:4964.got - 2010.04.14 01:45:32.
