data_PCOD8307548
_publ_section_title
;
Structure prediction by ZEFSAII (Michael W. Deem and Ramdas Pophale) SiO2 
 PCOD8307548
Probable space group: I 4 M M
;
_chemical_formula_sum "Si O2"
_cell_formula_units_Z 96
_cell_length_a 31.546188
_cell_length_b 31.546188
_cell_length_c 5.095198
_cell_angle_alpha 90.000000
_cell_angle_beta 90.000000
_cell_angle_gamma 90.000000
_cell_volume 5070.547317
_symmetry_space_group_name_H-M "I 4 M M"
_symmetry_group_IT_number 107
_symmetry_cell_setting 'tetragonal'
loop_
_space_group_symop_operation_xyz
x,y,z
-y,x,z
-x,-y,z
y,-x,z
-x,y,z
x,-y,z
-y,-x,z
y,x,z
1/2+x,1/2+y,1/2+z
1/2-y,1/2+x,1/2+z
1/2-x,1/2-y,1/2+z
1/2+y,1/2-x,1/2+z
1/2-x,1/2+y,1/2+z
1/2+x,1/2-y,1/2+z
1/2-y,1/2-x,1/2+z
1/2+y,1/2+x,1/2+z
loop_
_atom_site_type_symbol
_atom_site_label
_atom_site_fract_x
_atom_site_fract_y
_atom_site_fract_z
Si Si1 0.089172 0.451054 0.945580
Si Si2 0.569279 0.500000 0.900561
Si Si3 0.718773 0.177145 0.425723
Si Si4 0.848555 0.384742 0.017755
Si Si5 0.303432 0.629089 0.935474
Si Si6 0.000000 0.875340 0.900875
Si Si7 0.835911 0.091812 0.934920
O O1 0.094001 0.500000 0.900005
O O2 0.059331 0.432211 0.721578
O O3 0.137354 0.432319 0.940237
O O4 0.541958 0.541958 0.947825
O O5 0.585856 0.500000 0.603836
O O6 0.607828 0.500000 0.103688
O O7 0.702532 0.206840 0.662385
O O8 0.698670 0.129520 0.440245
O O9 0.768108 0.166359 0.436990
O O10 0.878088 0.355014 0.829264
O O11 0.348190 0.651811 0.938825
O O12 0.303885 0.600357 0.676302
O O13 0.304101 0.599405 0.190962
O O14 0.957472 0.848342 0.944342
O O15 0.877756 0.122245 0.934186
#
# Coordination Sequence:
#
# PCOD8307548 Si02
#       7
#    16   8  16  16  16   8  16
#     4  10  19  30  45  65  93 124 158 201 245 300
#     4  11  22  34  52  84 116 136 174 246 304 324
#     4  10  19  33  56  82 104 137 176 216 269 326
#     4   8  16  30  47  68  91 123 162 197 241 300
#     4  10  21  36  54  81 114 143 173 220 275 331
#     4  12  22  37  60  78 106 154 200 232 266 344
#     4  10  21  37  56  78 108 149 189 223 272 329
#
# _framework density 18.932866000000001
#
# number of rings (size 3 to 8) (size 9 to 14) (size 15 to 20)
#    0.000    2.083    0.000    4.000    0.000    3.667 
#    0.000    0.000    3.667    0.000    0.000    0.000 
#    0.000    0.000    0.000    0.000    0.000    0.000 
#
# Total GULP energy -594672.680149 kJ/mol
# GULP energy per Si atom -12389.014170 kJ/mol
# Density = 1.888977 g / cm^3
# Si number density = 18.932866 Si / 1000 Ang^3
#
#
#
# Elastic Constant Matrix: (Units=GPa)
#
#
# Indices 1 2 3 4 5 6 
#
# 1 67.6256 33.9608 26.6965 0.0000 0.0000 0.0003
# 2 33.9608 67.6256 26.6965 0.0000 0.0000 -0.0003
# 3 26.6965 26.6965 102.3687 0.0000 0.0000 0.0000
# 4 0.0000 0.0000 0.0000 25.9214 0.0000 0.0000
# 5 0.0000 0.0000 0.0000 0.0000 25.9214 0.0000
# 6 0.0003 -0.0003 0.0000 0.0000 0.0000 8.9727
#
#
#
# Elastic Compliance Matrix: (Units=1/GPa)
#
#
# Indices 1 2 3 4 5 6 
#
# 1 0.020556 -0.009149 -0.002975 0.000000 0.000000 -0.000001
# 2 -0.009149 0.020556 -0.002975 0.000000 0.000000 0.000001
# 3 -0.002975 -0.002975 0.011320 0.000000 0.000000 0.000000
# 4 0.000000 0.000000 0.000000 0.038578 0.000000 0.000000
# 5 0.000000 0.000000 0.000000 0.000000 0.038578 0.000000
# 6 -0.000001 0.000001 0.000000 0.000000 0.000000 0.111449
#
#
# Mechanical properties :
#
#
# Convention : Reuss Voigt Hill
#
# Bulk Modulus (GPa) = 44.97322 45.81415 45.39369
# Shear Modulus (GPa) = 17.94387 22.18081 20.06234
#
# Velocity S-wave (km/s) = 3.08192 3.42651 3.25877
# Velocity P-wave (km/s) = 6.03903 6.31707 6.17961
#
# Compressibility (1/GPa) = 0.02223545
#
# Stress axis : x y z
#
# Youngs Moduli (GPa) = 48.64748 48.64748 88.33720
#
# Poissons Ratio (x) = 0.44506 0.26280
# Poissons Ratio (y) = 0.44506 0.26280
# Poissons Ratio (z) = 0.14472 0.14472
#
# Static dielectric constant tensor:
#      x y z
#    x 3.335570 0.000000 0.000000 
#    y 0.000000 3.335570 0.000000 
#    z 0.000000 0.000000 3.861010 
# 
# 
# High freq. dielectric constant tensor:
#      x y z
#    x 1.713760 0.000000 0.000000 
#    y 0.000000 1.713760 0.000000 
#    z 0.000000 0.000000 1.762900 
# 
# From -- ./inp_files/560.got.cif
#   From: 2010.03.12/outbox.cif.g09.slc.cpg/sg107_1_cif.got.tgz:560.got - 2010.04.14 01:49:11.
