data_PCOD8307915
_publ_section_title
;
Structure prediction by ZEFSAII (Michael W. Deem and Ramdas Pophale) SiO2 
 PCOD8307915
Probable space group: I 41 M D
;
_chemical_formula_sum "Si O2"
_cell_formula_units_Z 112
_cell_length_a 30.512503
_cell_length_b 30.512503
_cell_length_c 6.245450
_cell_angle_alpha 90.000000
_cell_angle_beta 90.000000
_cell_angle_gamma 90.000000
_cell_volume 5814.594137
_symmetry_space_group_name_H-M "I 41 M D"
_symmetry_group_IT_number 109
_symmetry_cell_setting 'tetragonal'
loop_
_space_group_symop_operation_xyz
x,y,z
-y,1/2+x,1/4+z
-x,-y,z
y,1/2-x,1/4+z
-x,y,z
x,-y,z
-y,1/2-x,1/4+z
y,1/2+x,1/4+z
1/2+x,1/2+y,1/2+z
1/2-y,x,3/4+z
1/2-x,1/2-y,1/2+z
1/2+y,-x,3/4+z
1/2-x,1/2+y,1/2+z
1/2+x,1/2-y,1/2+z
1/2-y,-x,3/4+z
1/2+y,x,3/4+z
loop_
_atom_site_type_symbol
_atom_site_label
_atom_site_fract_x
_atom_site_fract_y
_atom_site_fract_z
Si Si1 0.614910 0.950017 0.035630
Si Si2 0.451154 0.694208 0.474419
Si Si3 0.892108 0.171682 0.591276
Si Si4 0.048846 0.694208 0.669697
Si Si5 0.114910 0.049983 0.108487
Si Si6 0.907198 0.250000 0.322058
Si Si7 0.392108 0.828318 0.552840
O O1 0.633597 0.921061 0.231271
O O2 0.607758 0.000000 0.114962
O O3 0.647410 0.947896 0.836584
O O4 0.569239 0.930761 0.947058
O O5 0.500000 0.703111 0.390871
O O6 0.419474 0.695956 0.272932
O O7 0.438821 0.732365 0.637972
O O8 0.878358 0.209552 0.418636
O O9 0.848544 0.151456 0.697058
O O10 0.052104 0.647410 0.557533
O O11 0.061179 0.732365 0.506145
O O12 0.000000 0.703111 0.753245
O O13 0.080527 0.695956 0.871184
O O14 0.107758 0.000000 0.029154
O O15 0.133597 0.078939 0.912845
O O16 0.878358 0.290448 0.225481
#
# Coordination Sequence:
#
# PCOD8307915 Si02
#       7
#    16  16  16  16  16  16  16
#     4  10  20  35  55  81 112 156 204 244 286 336
#     4  10  20  36  57  84 121 152 185 239 295 347
#     4  11  21  37  58  82 120 153 191 239 296 359
#     4  10  20  36  57  84 121 152 185 239 295 347
#     4  10  20  35  55  81 112 156 204 244 286 336
#     4  10  23  34  56  90 116 148 190 236 298 364
#     4  11  21  37  58  82 120 153 191 239 296 359
#
# _framework density 19.261879
#
# number of rings (size 3 to 8) (size 9 to 14) (size 15 to 20)
#    0.000    1.714    2.857    2.143    0.000    4.857 
#    0.000    0.000    0.000    0.000    0.000    0.000 
#   60.000    0.000    0.000    0.000    0.000    0.000 
#
# Total GULP energy -694287.125683 kJ/mol
# GULP energy per Si atom -12397.984387 kJ/mol
# Density = 1.921804 g / cm^3
# Si number density = 19.261879 Si / 1000 Ang^3
#
#
#
# Elastic Constant Matrix: (Units=GPa)
#
#
# Indices 1 2 3 4 5 6 
#
# 1 99.9868 61.8459 42.0358 0.0000 0.0000 0.0000
# 2 61.8459 99.9868 42.0358 0.0000 0.0000 0.0000
# 3 42.0358 42.0358 92.9656 0.0000 0.0000 0.0000
# 4 0.0000 0.0000 0.0000 23.3154 0.0000 0.0000
# 5 0.0000 0.0000 0.0000 0.0000 23.3154 0.0000
# 6 0.0000 0.0000 0.0000 0.0000 0.0000 13.9514
#
#
#
# Elastic Compliance Matrix: (Units=1/GPa)
#
#
# Indices 1 2 3 4 5 6 
#
# 1 0.017147 -0.009071 -0.003652 0.000000 0.000000 0.000000
# 2 -0.009071 0.017147 -0.003652 0.000000 0.000000 0.000000
# 3 -0.003652 -0.003652 0.014059 0.000000 0.000000 0.000000
# 4 0.000000 0.000000 0.000000 0.042890 0.000000 0.000000
# 5 0.000000 0.000000 0.000000 0.000000 0.042890 0.000000
# 6 0.000000 0.000000 0.000000 0.000000 0.000000 0.071677
#
#
# Mechanical properties :
#
#
# Convention : Reuss Voigt Hill
#
# Bulk Modulus (GPa) = 64.08426 64.97492 64.52959
# Shear Modulus (GPa) = 20.51175 21.91788 21.21482
#
# Velocity S-wave (km/s) = 3.26680 3.37692 3.32232
# Velocity P-wave (km/s) = 6.89721 7.00074 6.94917
#
# Compressibility (1/GPa) = 0.01560446
#
# Stress axis : x y z
#
# Youngs Moduli (GPa) = 58.31767 58.31767 71.12813
#
# Poissons Ratio (x) = 0.52901 0.25975
# Poissons Ratio (y) = 0.52901 0.25975
# Poissons Ratio (z) = 0.21297 0.21297
#
# Static dielectric constant tensor:
#      x y z
#    x 3.495290 0.000000 0.000000 
#    y 0.000000 3.495290 0.000000 
#    z 0.000000 0.000000 3.712890 
# 
# 
# High freq. dielectric constant tensor:
#      x y z
#    x 1.733510 0.000000 0.000000 
#    y 0.000000 1.733510 0.000000 
#    z 0.000000 0.000000 1.764430 
# 
# From -- ./inp_files/715.got.cif
#   From: 2010.03.12/outbox.cif.g09.slc.cpg/sg109_1_cif.got.tgz:715.got - 2010.04.14 01:55:16.
