data_PCOD8307674
_publ_section_title
;
Structure prediction by ZEFSAII (Michael W. Deem and Ramdas Pophale) SiO2 
 PCOD8307674
Probable space group: I 4 M M
;
_chemical_formula_sum "Si O2"
_cell_formula_units_Z 96
_cell_length_a 23.823135
_cell_length_b 23.823135
_cell_length_c 9.992931
_cell_angle_alpha 90.000000
_cell_angle_beta 90.000000
_cell_angle_gamma 90.000000
_cell_volume 5671.405660
_symmetry_space_group_name_H-M "I 4 M M"
_symmetry_group_IT_number 107
_symmetry_cell_setting 'tetragonal'
loop_
_space_group_symop_operation_xyz
x,y,z
-y,x,z
-x,-y,z
y,-x,z
-x,y,z
x,-y,z
-y,-x,z
y,x,z
1/2+x,1/2+y,1/2+z
1/2-y,1/2+x,1/2+z
1/2-x,1/2-y,1/2+z
1/2+y,1/2-x,1/2+z
1/2-x,1/2+y,1/2+z
1/2+x,1/2-y,1/2+z
1/2-y,1/2-x,1/2+z
1/2+y,1/2+x,1/2+z
loop_
_atom_site_type_symbol
_atom_site_label
_atom_site_fract_x
_atom_site_fract_y
_atom_site_fract_z
Si Si1 0.434787 0.656261 0.930060
Si Si2 0.739267 0.168291 0.817001
Si Si3 0.438745 0.278227 0.189541
Si Si4 0.820929 0.649849 0.589615
Si Si5 0.563572 0.765874 0.769377
Si Si6 0.664668 0.060415 0.524720
O O1 0.500000 0.641788 0.905482
O O2 0.397758 0.602243 0.892731
O O3 0.415484 0.707923 0.835913
O O4 0.424369 0.672203 0.085108
O O5 0.783488 0.216513 0.843053
O O6 0.772764 0.109373 0.801454
O O7 0.704034 0.182513 0.684383
O O8 0.698035 0.167407 0.942418
O O9 0.500000 0.289844 0.256880
O O10 0.443128 0.221379 0.107310
O O11 0.780607 0.600830 0.640835
O O12 0.886173 0.628678 0.576272
O O13 0.500000 0.758834 0.719833
O O14 0.569109 0.818156 0.870520
O O15 0.632462 0.000000 0.541277
#
# Coordination Sequence:
#
# PCOD8307674 Si02
#       6
#    16  16  16  16  16  16
#     4   9  17  30  50  74 101 138 178 218 264 308
#     4  11  22  32  46  73 106 133 164 210 261 309
#     4   8  16  31  49  68  93 130 173 207 248 305
#     4  11  20  34  50  75 100 134 169 207 256 312
#     4   9  18  33  51  72  99 134 172 205 249 310
#     4   8  15  31  51  69  94 127 163 204 247 301
#
# _framework density 16.927019999999999
#
# number of rings (size 3 to 8) (size 9 to 14) (size 15 to 20)
#    0.000    2.667    1.667    3.000    0.000    2.167 
#    0.000    0.000    0.000    0.500    0.000    2.333 
#    0.000    0.000    0.000    8.667    0.000    0.000 
#
# Total GULP energy -594863.624929 kJ/mol
# GULP energy per Si atom -12392.992186 kJ/mol
# Density = 1.688849 g / cm^3
# Si number density = 16.927020 Si / 1000 Ang^3
#
#
#
# Elastic Constant Matrix: (Units=GPa)
#
#
# Indices 1 2 3 4 5 6 
#
# 1 88.3300 51.2448 31.8422 0.0000 0.0000 0.0038
# 2 51.2448 88.3300 31.8422 0.0000 0.0000 -0.0038
# 3 31.8422 31.8422 61.4685 0.0000 0.0000 0.0000
# 4 0.0000 0.0000 0.0000 19.3045 0.0000 0.0000
# 5 0.0000 0.0000 0.0000 0.0000 19.3045 0.0000
# 6 0.0038 -0.0038 0.0000 0.0000 0.0000 12.5393
#
#
#
# Elastic Compliance Matrix: (Units=1/GPa)
#
#
# Indices 1 2 3 4 5 6 
#
# 1 0.018174 -0.008791 -0.004860 0.000000 0.000000 -0.000008
# 2 -0.008791 0.018174 -0.004860 0.000000 0.000000 0.000008
# 3 -0.004860 -0.004860 0.021304 0.000000 0.000000 0.000000
# 4 0.000000 0.000000 0.000000 0.051801 0.000000 0.000000
# 5 0.000000 0.000000 0.000000 0.000000 0.051801 0.000000
# 6 -0.000008 0.000008 0.000000 0.000000 0.000000 0.079750
#
#
# Mechanical properties :
#
#
# Convention : Reuss Voigt Hill
#
# Bulk Modulus (GPa) = 48.47903 51.99854 50.23879
# Shear Modulus (GPa) = 17.54983 18.44292 17.99638
#
# Velocity S-wave (km/s) = 3.22342 3.30442 3.26417
# Velocity P-wave (km/s) = 6.52351 6.73386 6.62952
#
# Compressibility (1/GPa) = 0.02062747
#
# Stress axis : x y z
#
# Youngs Moduli (GPa) = 55.02495 55.02495 46.93974
#
# Poissons Ratio (x) = 0.48374 0.22814
# Poissons Ratio (y) = 0.48374 0.22814
# Poissons Ratio (z) = 0.26743 0.26743
#
# Static dielectric constant tensor:
#      x y z
#    x 3.305600 0.000000 0.000000 
#    y 0.000000 3.305600 0.000000 
#    z 0.000000 0.000000 2.995390 
# 
# 
# High freq. dielectric constant tensor:
#      x y z
#    x 1.639840 0.000000 0.000000 
#    y 0.000000 1.639840 0.000000 
#    z 0.000000 0.000000 1.634290 
# 
# From -- ./inp_files/1483.got.cif
#   From: 2010.03.12/outbox.cif.g09.slc.cpg/sg107_1_cif.got.tgz:1483.got - 2010.04.14 01:49:11.
