data_PCOD8307798
_publ_section_title
;
Structure prediction by ZEFSAII (Michael W. Deem and Ramdas Pophale) SiO2 
 PCOD8307798
Probable space group: I 4 C M
;
_chemical_formula_sum "Si O2"
_cell_formula_units_Z 96
_cell_length_a 21.656282
_cell_length_b 21.656282
_cell_length_c 9.503802
_cell_angle_alpha 90.000000
_cell_angle_beta 90.000000
_cell_angle_gamma 90.000000
_cell_volume 4457.231343
_symmetry_space_group_name_H-M "I 4 C M"
_symmetry_group_IT_number 108
_symmetry_cell_setting 'tetragonal'
loop_
_space_group_symop_operation_xyz
x,y,z
-y,x,z
-x,-y,z
y,-x,z
-x,y,1/2+z
x,-y,1/2+z
-y,-x,1/2+z
y,x,1/2+z
1/2+x,1/2+y,1/2+z
1/2-y,1/2+x,1/2+z
1/2-x,1/2-y,1/2+z
1/2+y,1/2-x,1/2+z
1/2-x,1/2+y,z
1/2+x,1/2-y,z
1/2-y,1/2-x,z
1/2+y,1/2+x,z
loop_
_atom_site_type_symbol
_atom_site_label
_atom_site_fract_x
_atom_site_fract_y
_atom_site_fract_z
Si Si1 0.565844 0.065844 0.652948
Si Si2 0.564820 0.750202 0.018811
Si Si3 0.375011 0.623708 0.460179
Si Si4 0.628846 0.128846 0.891077
Si Si5 0.375061 0.124939 0.919607
Si Si6 0.926137 0.573864 0.157191
Si Si7 0.753486 0.065296 0.850773
Si Si8 0.555106 0.582798 0.710668
O O1 0.611618 0.111618 0.732332
O O2 0.576307 0.076307 0.487006
O O3 0.497226 0.086174 0.691980
O O4 0.549826 0.754044 0.185273
O O5 0.612876 0.695430 0.986285
O O6 0.605558 0.807346 0.967456
O O7 0.499735 0.745169 0.935106
O O8 0.314386 0.606968 0.371086
O O9 0.368677 0.588185 0.608230
O O10 0.434465 0.599800 0.372923
O O11 0.700339 0.110821 0.911119
O O12 0.587715 0.087715 0.995479
O O13 0.382479 0.117522 0.751605
O O14 0.483269 0.585017 0.678201
#
# Coordination Sequence:
#
# PCOD8307798 Si02
#       8
#     8  16  16   8   8   8  16  16
#     4  11  20  42  68  99 146 178 234 295 372 413
#     4  12  27  48  75 104 146 194 239 298 359 425
#     4  12  26  42  70 102 138 188 240 291 350 433
#     4  12  26  44  70 105 144 189 240 292 347 428
#     4  12  26  44  70 105 144 189 240 292 347 428
#     4  11  24  38  68 107 136 186 232 301 366 427
#     4  12  27  48  75 104 146 194 239 298 359 425
#     4  11  22  40  66 101 138 176 230 301 368 425
#
# _framework density 21.538032999999999
#
# number of rings (size 3 to 8) (size 9 to 14) (size 15 to 20)
#    0.000    0.333    3.333    6.000    4.667    3.333 
#    0.000    0.000    0.000    0.000    0.000    0.000 
#    0.000    0.000    0.000    0.000    0.000    0.000 
#
# Total GULP energy -595151.168854 kJ/mol
# GULP energy per Si atom -12398.982684 kJ/mol
# Density = 2.148901 g / cm^3
# Si number density = 21.538033 Si / 1000 Ang^3
#
#
#
# Elastic Constant Matrix: (Units=GPa)
#
#
# Indices 1 2 3 4 5 6 
#
# 1 36.4148 109.2457 35.3402 0.0000 0.0000 -0.0010
# 2 109.2457 36.4148 35.3402 0.0000 0.0000 0.0010
# 3 35.3402 35.3402 104.0708 0.0000 0.0000 0.0000
# 4 0.0000 0.0000 0.0000 33.4427 0.0000 0.0000
# 5 0.0000 0.0000 0.0000 0.0000 33.4427 0.0000
# 6 -0.0010 0.0010 0.0000 0.0000 0.0000 11.7665
#
#
#
# Elastic Compliance Matrix: (Units=1/GPa)
#
#
# Indices 1 2 3 4 5 6 
#
# 1 -0.002755 0.010975 -0.002791 0.000000 0.000000 -0.000001
# 2 0.010975 -0.002755 -0.002791 0.000000 0.000000 0.000001
# 3 -0.002791 -0.002791 0.011505 0.000000 0.000000 0.000000
# 4 0.000000 0.000000 0.000000 0.029902 0.000000 0.000000
# 5 0.000000 0.000000 0.000000 0.000000 0.029902 0.000000
# 6 -0.000001 0.000001 0.000000 0.000000 0.000000 0.084987
#
#
# Mechanical properties :
#
#
# Convention : Reuss Voigt Hill
#
# Bulk Modulus (GPa) = 59.59829 59.63915 59.61872
# Shear Modulus (GPa) = 34.34252 15.52869 24.93560
#
# Velocity S-wave (km/s) = 3.99746 2.68804 3.40626
# Velocity P-wave (km/s) = 7.00268 6.11427 6.57350
#
# Compressibility (1/GPa) = 0.01677900
#
# Stress axis : x y z
#
# Youngs Moduli (GPa) = -362.92726 -362.92726 86.92231
#
# Poissons Ratio (x) = 3.98315 0.24262
# Poissons Ratio (y) = 3.98315 0.24262
# Poissons Ratio (z) = -1.01301 -1.01301
#
# Static dielectric constant tensor:
#      x y z
#    x 3.899830 0.000000 0.000000 
#    y 0.000000 3.899830 0.000000 
#    z 0.000000 0.000000 4.023860 
# 
# 
# High freq. dielectric constant tensor:
#      x y z
#    x 1.844350 0.000000 0.000000 
#    y 0.000000 1.844350 0.000000 
#    z 0.000000 0.000000 1.864550 
# 
# From -- ./inp_files/835.got.cif
#   From: 2010.03.12/outbox.cif.g09.slc.cpg/sg108_1_cif.got.tgz:835.got - 2010.04.14 01:53:11.
