data_PCOD8307992
_publ_section_title
;
Structure prediction by ZEFSAII (Michael W. Deem and Ramdas Pophale) SiO2 
 PCOD8307992
Probable space group: I 41 M D
;
_chemical_formula_sum "Si O2"
_cell_formula_units_Z 64
_cell_length_a 13.811697
_cell_length_b 13.811697
_cell_length_c 26.981186
_cell_angle_alpha 90.000000
_cell_angle_beta 90.000000
_cell_angle_gamma 90.000000
_cell_volume 5147.011284
_symmetry_space_group_name_H-M "I 41 M D"
_symmetry_group_IT_number 109
_symmetry_cell_setting 'tetragonal'
loop_
_space_group_symop_operation_xyz
x,y,z
-y,1/2+x,1/4+z
-x,-y,z
y,1/2-x,1/4+z
-x,y,z
x,-y,z
-y,1/2-x,1/4+z
y,1/2+x,1/4+z
1/2+x,1/2+y,1/2+z
1/2-y,x,3/4+z
1/2-x,1/2-y,1/2+z
1/2+y,-x,3/4+z
1/2-x,1/2+y,1/2+z
1/2+x,1/2-y,1/2+z
1/2-y,-x,3/4+z
1/2+y,x,3/4+z
loop_
_atom_site_type_symbol
_atom_site_label
_atom_site_fract_x
_atom_site_fract_y
_atom_site_fract_z
Si Si1 0.885475 0.106378 0.345840
Si Si2 0.205878 0.885468 0.150524
Si Si3 0.705878 0.114532 0.995610
Si Si4 0.885475 0.606378 0.300294
O O1 0.855504 0.183162 0.388131
O O2 0.850812 0.139880 0.291530
O O3 0.000000 0.102376 0.344031
O O4 0.841825 0.000000 0.358006
O O5 0.174011 0.825989 0.198067
O O6 0.195181 0.000000 0.160377
O O7 0.139880 0.850812 0.104604
O O8 0.816838 0.144496 0.008003
O O9 0.695181 0.000000 0.985757
O O10 0.841826 0.500000 0.288128
O O11 0.000000 0.602376 0.302103
#
# Coordination Sequence:
#
# PCOD8307992 Si02
#       4
#    16  16  16  16
#     4   8  14  23  32  45  68  92 111 135 165 193
#     4   9  15  21  32  50  69  90 113 133 158 196
#     4   9  15  21  32  50  69  90 113 133 158 196
#     4   8  14  23  32  45  68  92 111 135 165 193
#
# _framework density 12.4344
#
# number of rings (size 3 to 8) (size 9 to 14) (size 15 to 20)
#    0.000    3.500    0.000    4.500    0.000    2.500 
#    0.000    0.000    0.000    0.000    0.000    7.000 
#    0.000    5.000    0.000    0.000    0.000    0.000 
#
# Total GULP energy -396468.016870 kJ/mol
# GULP energy per Si atom -12389.625527 kJ/mol
# Density = 1.240610 g / cm^3
# Si number density = 12.434400 Si / 1000 Ang^3
#
#
#
# Elastic Constant Matrix: (Units=GPa)
#
#
# Indices 1 2 3 4 5 6 
#
# 1 76.8761 23.9243 45.3247 0.0000 0.0000 0.0000
# 2 23.9243 76.8761 45.3247 0.0000 0.0000 0.0000
# 3 45.3247 45.3247 98.7099 0.0000 0.0000 0.0000
# 4 0.0000 0.0000 0.0000 20.6256 0.0000 0.0000
# 5 0.0000 0.0000 0.0000 0.0000 20.6256 0.0000
# 6 0.0000 0.0000 0.0000 0.0000 0.0000 8.8638
#
#
#
# Elastic Compliance Matrix: (Units=1/GPa)
#
#
# Indices 1 2 3 4 5 6 
#
# 1 0.017892 -0.000993 -0.007759 0.000000 0.000000 0.000000
# 2 -0.000993 0.017892 -0.007759 0.000000 0.000000 0.000000
# 3 -0.007759 -0.007759 0.017256 0.000000 0.000000 0.000000
# 4 0.000000 0.000000 0.000000 0.048484 0.000000 0.000000
# 5 0.000000 0.000000 0.000000 0.000000 0.048484 0.000000
# 6 0.000000 0.000000 0.000000 0.000000 0.000000 0.112819
#
#
# Mechanical properties :
#
#
# Convention : Reuss Voigt Hill
#
# Bulk Modulus (GPa) = 49.95955 53.51217 51.73586
# Shear Modulus (GPa) = 16.52773 19.21553 17.87163
#
# Velocity S-wave (km/s) = 3.64977 3.93536 3.79525
# Velocity P-wave (km/s) = 7.61753 7.98614 7.80401
#
# Compressibility (1/GPa) = 0.02001619
#
# Stress axis : x y z
#
# Youngs Moduli (GPa) = 55.89154 55.89154 57.94961
#
# Poissons Ratio (x) = 0.05552 0.44965
# Poissons Ratio (y) = 0.05552 0.44965
# Poissons Ratio (z) = 0.43368 0.43368
#
# Static dielectric constant tensor:
#      x y z
#    x 2.657770 0.000000 0.000000 
#    y 0.000000 2.657770 0.000000 
#    z 0.000000 0.000000 2.436180 
# 
# 
# High freq. dielectric constant tensor:
#      x y z
#    x 1.444680 0.000000 0.000000 
#    y 0.000000 1.444680 0.000000 
#    z 0.000000 0.000000 1.466330 
# 
# From -- ./inp_files/2991.got.cif
#   From: 2010.03.12/outbox.cif.g09.slc.cpg/sg109_2_cif.got.tgz:2991.got - 2010.04.14 01:55:16.
