data_PCOD8307308
_publ_section_title
;
Structure prediction by ZEFSAII (Michael W. Deem and Ramdas Pophale) SiO2 
 PCOD8307308
Probable space group: P 42 M C
;
_chemical_formula_sum "Si O2"
_cell_formula_units_Z 48
_cell_length_a 9.529073
_cell_length_b 9.529073
_cell_length_c 30.308041
_cell_angle_alpha 90.000000
_cell_angle_beta 90.000000
_cell_angle_gamma 90.000000
_cell_volume 2752.068086
_symmetry_space_group_name_H-M "P 42 M C"
_symmetry_group_IT_number 105
_symmetry_cell_setting 'tetragonal'
loop_
_space_group_symop_operation_xyz
x,y,z
-y,x,1/2+z
-x,-y,z
y,-x,1/2+z
-x,y,z
x,-y,z
-y,-x,1/2+z
y,x,1/2+z
loop_
_atom_site_type_symbol
_atom_site_label
_atom_site_fract_x
_atom_site_fract_y
_atom_site_fract_z
Si Si1 0.344399 0.833136 0.808240
Si Si2 0.662459 0.158682 0.472254
Si Si3 0.663227 0.164556 0.142014
Si Si4 0.665805 0.841124 0.905538
Si Si5 0.161910 0.163579 0.226830
Si Si6 0.662913 0.160298 0.574205
O O1 0.500000 0.773985 0.798170
O O2 0.292936 0.783249 0.856715
O O3 0.240373 0.779062 0.770341
O O4 0.349316 0.000000 0.809050
O O5 0.500000 0.182128 0.462142
O O6 0.748138 0.264634 0.442675
O O7 0.694556 0.190441 0.523189
O O8 0.706724 0.000000 0.460765
O O9 0.500000 0.204106 0.146490
O O10 0.743558 0.213355 0.186062
O O11 0.729892 0.244994 0.101066
O O12 0.684488 0.000000 0.133874
O O13 0.500000 0.833319 0.911513
O O14 0.719347 0.000000 0.911474
O O15 0.000000 0.203539 0.216922
O O16 0.178768 0.000000 0.235904
O O17 0.500000 0.185328 0.585024
O O18 0.704336 0.000000 0.586171
#
# Coordination Sequence:
#
# PCOD8307308 Si02
#       6
#     8   8   8   8   8   8
#     4   8  15  29  48  70  96 125 159 200 241 281
#     4   9  19  35  52  72  99 129 163 203 245 290
#     4  10  21  35  50  72 103 133 160 196 244 295
#     4   9  18  32  50  74 103 132 163 200 242 289
#     4   9  17  30  49  71  94 124 162 200 239 285
#     4   9  19  36  55  73  95 126 165 206 245 288
#
# _framework density 17.44143
#
# number of rings (size 3 to 8) (size 9 to 14) (size 15 to 20)
#    0.000    3.000    0.000    2.500    0.000    4.667 
#    0.000    9.167    0.000    3.000    0.000    0.000 
#    0.000    0.000    0.000    0.000    0.000    0.000 
#
# Total GULP energy -595110.705777 kJ/mol
# GULP energy per Si atom -12398.139704 kJ/mol
# Density = 1.740173 g / cm^3
# Si number density = 17.441430 Si / 1000 Ang^3
#
#
#
# Elastic Constant Matrix: (Units=GPa)
#
#
# Indices 1 2 3 4 5 6 
#
# 1 65.8346 40.7711 62.2623 0.0000 0.0000 0.0000
# 2 40.7711 65.8346 62.2623 0.0000 0.0000 0.0000
# 3 62.2623 62.2623 123.8154 0.0000 0.0000 0.0000
# 4 0.0000 0.0000 0.0000 -9.4924 0.0000 0.0000
# 5 0.0000 0.0000 0.0000 0.0000 -9.4924 0.0000
# 6 0.0000 0.0000 0.0000 0.0000 0.0000 27.3465
#
#
#
# Elastic Compliance Matrix: (Units=1/GPa)
#
#
# Indices 1 2 3 4 5 6 
#
# 1 0.031316 -0.008582 -0.011432 0.000000 0.000000 0.000000
# 2 -0.008582 0.031316 -0.011432 0.000000 0.000000 0.000000
# 3 -0.011432 -0.011432 0.019574 0.000000 0.000000 0.000000
# 4 0.000000 0.000000 0.000000 -0.105347 0.000000 0.000000
# 5 0.000000 0.000000 0.000000 0.000000 -0.105347 0.000000
# 6 0.000000 0.000000 0.000000 0.000000 0.000000 0.036568
#
#
# Mechanical properties :
#
#
# Convention : Reuss Voigt Hill
#
# Bulk Modulus (GPa) = 51.77661 65.11955 58.44808
# Shear Modulus (GPa) = -221.34704 7.68493 -106.83106
#
# Velocity S-wave (km/s) = -11.27760 2.10136 -7.83481
# Velocity P-wave (km/s) = 11.82491 6.58064 6.94708
#
# Compressibility (1/GPa) = 0.01931374
#
# Stress axis : x y z
#
# Youngs Moduli (GPa) = 31.93214 31.93214 51.08776
#
# Poissons Ratio (x) = 0.27405 0.58404
# Poissons Ratio (y) = 0.27405 0.58404
# Poissons Ratio (z) = 0.36505 0.36505
#
# Static dielectric constant tensor:
#      x y z
#    x 3.133430 0.000000 0.000000 
#    y 0.000000 3.133430 0.000000 
#    z 0.000000 0.000000 3.364420 
# 
# 
# High freq. dielectric constant tensor:
#      x y z
#    x 1.661800 0.000000 0.000000 
#    y 0.000000 1.661800 0.000000 
#    z 0.000000 0.000000 1.683360 
# 
# From -- ./inp_files/4698.got.cif
#   From: 2010.03.12/outbox.cif.g09.slc.cpg/sg105_3_cif.got.tgz:4698.got - 2010.04.14 01:45:32.
