data_PCOD8307235
_publ_section_title
;
Structure prediction by ZEFSAII (Michael W. Deem and Ramdas Pophale) SiO2 
 PCOD8307235
Probable space group: P 42 M C
;
_chemical_formula_sum "Si O2"
_cell_formula_units_Z 32
_cell_length_a 7.892929
_cell_length_b 7.892929
_cell_length_c 24.303833
_cell_angle_alpha 90.000000
_cell_angle_beta 90.000000
_cell_angle_gamma 90.000000
_cell_volume 1514.088165
_symmetry_space_group_name_H-M "P 42 M C"
_symmetry_group_IT_number 105
_symmetry_cell_setting 'tetragonal'
loop_
_space_group_symop_operation_xyz
x,y,z
-y,x,1/2+z
-x,-y,z
y,-x,1/2+z
-x,y,z
x,-y,z
-y,-x,1/2+z
y,x,1/2+z
loop_
_atom_site_type_symbol
_atom_site_label
_atom_site_fract_x
_atom_site_fract_y
_atom_site_fract_z
Si Si1 0.184233 0.201856 0.334180
Si Si2 0.500000 0.700748 0.527050
Si Si3 0.189922 0.297586 0.599388
Si Si4 0.500000 0.198314 0.401571
Si Si5 0.200196 0.686690 0.719806
O O1 0.331594 0.277596 0.373344
O O2 0.204645 0.268221 0.271319
O O3 0.000000 0.265081 0.355393
O O4 0.191877 0.000000 0.335376
O O5 0.500000 0.500000 0.529064
O O6 0.670421 0.771285 0.556409
O O7 0.500000 0.764565 0.465472
O O8 0.187826 0.500000 0.601149
O O9 0.244128 0.230882 0.660310
O O10 0.000000 0.232353 0.583289
O O11 0.500000 0.000000 0.390687
O O12 0.282139 0.500000 0.724493
O O13 0.000000 0.669745 0.723891
#
# Coordination Sequence:
#
# PCOD8307235 Si02
#       5
#     8   4   8   4   8
#     4   9  16  27  47  74 100 131 174 216 258 316
#     4  10  20  34  52  72 100 136 182 213 252 312
#     4   8  15  28  49  75  99 129 171 216 261 312
#     4  10  20  34  50  70 100 138 174 215 260 304
#     4   8  12  23  45  69  93 120 155 205 261 311
#
# _framework density 21.134831999999999
#
# number of rings (size 3 to 8) (size 9 to 14) (size 15 to 20)
#    0.000    3.250    1.250    1.500    0.000    1.000 
#    0.000    1.250    2.750    1.500    0.000    0.000 
#    0.000    0.000    0.000    0.000    0.000    0.000 
#
# Total GULP energy -396430.783778 kJ/mol
# GULP energy per Si atom -12388.461993 kJ/mol
# Density = 2.108673 g / cm^3
# Si number density = 21.134832 Si / 1000 Ang^3
#
#
#
# Elastic Constant Matrix: (Units=GPa)
#
#
# Indices 1 2 3 4 5 6 
#
# 1 84.6612 21.3151 50.6617 0.0000 0.0000 0.0000
# 2 21.3151 84.6612 50.6617 0.0000 0.0000 0.0000
# 3 50.6617 50.6617 162.2865 0.0000 0.0000 0.0000
# 4 0.0000 0.0000 0.0000 23.1207 0.0000 0.0000
# 5 0.0000 0.0000 0.0000 0.0000 23.1207 0.0000
# 6 0.0000 0.0000 0.0000 0.0000 0.0000 2.4623
#
#
#
# Elastic Compliance Matrix: (Units=1/GPa)
#
#
# Indices 1 2 3 4 5 6 
#
# 1 0.014618 -0.001168 -0.004199 0.000000 0.000000 0.000000
# 2 -0.001168 0.014618 -0.004199 0.000000 0.000000 0.000000
# 3 -0.004199 -0.004199 0.008784 0.000000 0.000000 0.000000
# 4 0.000000 0.000000 0.000000 0.043251 0.000000 0.000000
# 5 0.000000 0.000000 0.000000 0.000000 0.043251 0.000000
# 6 0.000000 0.000000 0.000000 0.000000 0.000000 0.406130
#
#
# Mechanical properties :
#
#
# Convention : Reuss Voigt Hill
#
# Bulk Modulus (GPa) = 52.94064 64.09842 58.51953
# Shear Modulus (GPa) = 8.99149 23.67210 16.33179
#
# Velocity S-wave (km/s) = 2.06484 3.35035 2.78284
# Velocity P-wave (km/s) = 5.54871 6.73503 6.17044
#
# Compressibility (1/GPa) = 0.01888908
#
# Stress axis : x y z
#
# Youngs Moduli (GPa) = 68.40651 68.40651 113.84912
#
# Poissons Ratio (x) = 0.07989 0.47805
# Poissons Ratio (y) = 0.07989 0.47805
# Poissons Ratio (z) = 0.28724 0.28724
#
# Static dielectric constant tensor:
#      x y z
#    x 3.749190 0.000000 0.000000 
#    y 0.000000 3.749190 0.000000 
#    z 0.000000 0.000000 4.261860 
# 
# 
# High freq. dielectric constant tensor:
#      x y z
#    x 1.794680 0.000000 0.000000 
#    y 0.000000 1.794680 0.000000 
#    z 0.000000 0.000000 1.826190 
# 
# From -- ./inp_files/3833.got.cif
#   From: 2010.03.12/outbox.cif.g09.slc.cpg/sg105_2_cif.got.tgz:3833.got - 2010.04.14 01:45:32.
