data_PCOD8307680
_publ_section_title
;
Structure prediction by ZEFSAII (Michael W. Deem and Ramdas Pophale) SiO2 
 PCOD8307680
Probable space group: I 4 M M
;
_chemical_formula_sum "Si O2"
_cell_formula_units_Z 96
_cell_length_a 20.347950
_cell_length_b 20.347950
_cell_length_c 20.347995
_cell_angle_alpha 90.000000
_cell_angle_beta 90.000000
_cell_angle_gamma 90.000000
_cell_volume 8424.864910
_symmetry_space_group_name_H-M "I 4 M M"
_symmetry_group_IT_number 107
_symmetry_cell_setting 'tetragonal'
loop_
_space_group_symop_operation_xyz
x,y,z
-y,x,z
-x,-y,z
y,-x,z
-x,y,z
x,-y,z
-y,-x,z
y,x,z
1/2+x,1/2+y,1/2+z
1/2-y,1/2+x,1/2+z
1/2-x,1/2-y,1/2+z
1/2+y,1/2-x,1/2+z
1/2-x,1/2+y,1/2+z
1/2+x,1/2-y,1/2+z
1/2-y,1/2-x,1/2+z
1/2+y,1/2+x,1/2+z
loop_
_atom_site_type_symbol
_atom_site_label
_atom_site_fract_x
_atom_site_fract_y
_atom_site_fract_z
Si Si1 0.926782 0.176992 0.277240
Si Si2 0.921823 0.676990 0.282199
Si Si3 0.426782 0.921823 0.178426
Si Si4 0.421823 0.926782 0.032409
Si Si5 0.823009 0.926782 0.433594
Si Si6 0.323009 0.078177 0.428636
O O1 0.876587 0.123414 0.247296
O O2 0.902163 0.250001 0.257580
O O3 0.928930 0.172308 0.355417
O O4 0.000000 0.163045 0.249141
O O5 0.891878 0.623412 0.232005
O O6 0.893723 0.663045 0.355418
O O7 0.000000 0.672305 0.284347
O O8 0.500000 0.893723 0.192372
O O9 0.402162 0.902162 0.105417
O O10 0.428929 0.000000 0.183110
O O11 0.500000 0.928929 0.027725
O O12 0.393724 0.000000 0.018463
O O13 0.391878 0.876587 0.978830
O O14 0.876587 0.876587 0.463538
O O15 0.750000 0.902162 0.453255
O O16 0.836955 0.000000 0.461694
O O17 0.327693 0.000000 0.426488
#
# Coordination Sequence:
#
# PCOD8307680 Si02
#       6
#    16  16  16  16  16  16
#     4   8  13  20  29  41  56  73  93 116 141 168
#     4   8  13  20  29  41  56  73  93 116 141 168
#     4   8  13  20  29  41  56  73  93 116 141 168
#     4   8  13  20  29  41  56  73  93 116 141 168
#     4   8  13  20  29  41  56  73  93 116 141 168
#     4   8  13  20  29  41  56  73  93 116 141 168
#
# _framework density 11.394842000000001
#
# number of rings (size 3 to 8) (size 9 to 14) (size 15 to 20)
#    0.000    4.000    0.000    3.000    0.000    1.000 
#    0.000    5.000    0.000    1.000    0.000    0.000 
#    0.000    0.000    0.000    0.000    0.000    0.000 
#
# Total GULP energy -594646.503065 kJ/mol
# GULP energy per Si atom -12388.468814 kJ/mol
# Density = 1.136891 g / cm^3
# Si number density = 11.394842 Si / 1000 Ang^3
#
#
#
# Elastic Constant Matrix: (Units=GPa)
#
#
# Indices 1 2 3 4 5 6 
#
# 1 55.5981 33.4765 33.4772 0.0000 0.0000 -0.0002
# 2 33.4765 55.5981 33.4772 0.0000 0.0000 0.0002
# 3 33.4772 33.4772 55.5985 0.0000 0.0000 0.0000
# 4 0.0000 0.0000 0.0000 5.4294 0.0000 0.0000
# 5 0.0000 0.0000 0.0000 0.0000 5.4294 0.0000
# 6 -0.0002 0.0002 0.0000 0.0000 0.0000 5.4292
#
#
#
# Elastic Compliance Matrix: (Units=1/GPa)
#
#
# Indices 1 2 3 4 5 6 
#
# 1 0.032857 -0.012348 -0.012349 0.000000 0.000000 0.000002
# 2 -0.012348 0.032857 -0.012349 0.000000 0.000000 -0.000002
# 3 -0.012349 -0.012349 0.032857 0.000000 0.000000 0.000000
# 4 0.000000 0.000000 0.000000 0.184183 0.000000 0.000000
# 5 0.000000 0.000000 0.000000 0.000000 0.184183 0.000000
# 6 0.000002 -0.000002 0.000000 0.000000 0.000000 0.184191
#
#
# Mechanical properties :
#
#
# Convention : Reuss Voigt Hill
#
# Bulk Modulus (GPa) = 40.85072 40.85072 40.85072
# Shear Modulus (GPa) = 6.81776 7.68183 7.24980
#
# Velocity S-wave (km/s) = 2.44871 2.59926 2.52511
# Velocity P-wave (km/s) = 6.62744 6.70345 6.66555
#
# Compressibility (1/GPa) = 0.02447937
#
# Stress axis : x y z
#
# Youngs Moduli (GPa) = 30.43513 30.43513 30.43471
#
# Poissons Ratio (x) = 0.37581 0.37583
# Poissons Ratio (y) = 0.37581 0.37583
# Poissons Ratio (z) = 0.37584 0.37584
#
# Static dielectric constant tensor:
#      x y z
#    x 2.434860 0.000000 0.000000 
#    y 0.000000 2.434860 0.000000 
#    z 0.000000 0.000000 2.434880 
# 
# 
# High freq. dielectric constant tensor:
#      x y z
#    x 1.404460 0.000000 0.000000 
#    y 0.000000 1.404460 0.000000 
#    z 0.000000 0.000000 1.404460 
# 
# From -- ./inp_files/4221.got.cif
#   From: 2010.03.12/outbox.cif.g09.slc.cpg/sg107_3_cif.got.tgz:4221.got - 2010.04.14 01:49:11.
