data_PCOD8307126
_publ_section_title
;
Structure prediction by ZEFSAII (Michael W. Deem and Ramdas Pophale) SiO2 
 PCOD8307126
Probable space group: P 42 M C
;
_chemical_formula_sum "Si O2"
_cell_formula_units_Z 38
_cell_length_a 11.457888
_cell_length_b 11.457888
_cell_length_c 15.078231
_cell_angle_alpha 90.000000
_cell_angle_beta 90.000000
_cell_angle_gamma 90.000000
_cell_volume 1979.518377
_symmetry_space_group_name_H-M "P 42 M C"
_symmetry_group_IT_number 105
_symmetry_cell_setting 'tetragonal'
loop_
_space_group_symop_operation_xyz
x,y,z
-y,x,1/2+z
-x,-y,z
y,-x,1/2+z
-x,y,z
x,-y,z
-y,-x,1/2+z
y,x,1/2+z
loop_
_atom_site_type_symbol
_atom_site_label
_atom_site_fract_x
_atom_site_fract_y
_atom_site_fract_z
Si Si1 0.244028 0.500000 0.675540
Si Si2 0.865135 0.132835 0.273324
Si Si3 0.500000 0.629848 0.895166
Si Si4 0.272461 0.250561 0.424576
Si Si5 0.500000 0.500000 0.725077
Si Si6 0.500000 0.136709 0.369633
Si Si7 0.730809 0.865067 0.097150
O O1 0.384411 0.500000 0.664549
O O2 0.211131 0.500000 0.779259
O O3 0.193690 0.611813 0.627488
O O4 0.796291 0.221964 0.334965
O O5 0.828036 0.151525 0.172076
O O6 0.000000 0.162316 0.281484
O O7 0.837395 0.000000 0.303042
O O8 0.500000 0.500000 0.938833
O O9 0.387663 0.700586 0.926914
O O10 0.500000 0.615596 0.787918
O O11 0.388528 0.171911 0.427739
O O12 0.195159 0.218173 0.509393
O O13 0.500000 0.000000 0.346319
O O14 0.706470 0.000000 0.076508
#
# Coordination Sequence:
#
# PCOD8307126 Si02
#       7
#     4   8   4   8   2   4   8
#     4  12  21  41  67  95 129 163 223 267 319 388
#     4  10  22  41  64  90 125 170 216 267 326 382
#     4  10  19  38  59  91 128 156 200 249 320 383
#     4  12  22  40  65  94 128 169 212 270 321 397
#     4  10  18  36  62  92 120 168 196 256 316 374
#     4  12  22  38  68  95 122 167 224 274 323 381
#     4  11  24  40  63  96 129 167 217 273 322 379
#
# _framework density 19.196587000000001
#
# number of rings (size 3 to 8) (size 9 to 14) (size 15 to 20)
#    0.316    0.632    5.263    2.842    0.000    2.526 
#    1.895    4.737    0.000    0.000    0.000    0.000 
#    0.000    0.000    0.000    0.000    0.000    0.000 
#
# Total GULP energy -471352.487726 kJ/mol
# GULP energy per Si atom -12404.012835 kJ/mol
# Density = 1.915289 g / cm^3
# Si number density = 19.196587 Si / 1000 Ang^3
#
#
#
# Elastic Constant Matrix: (Units=GPa)
#
#
# Indices 1 2 3 4 5 6 
#
# 1 126.5795 49.1851 44.2779 0.0000 0.0000 0.0000
# 2 49.1851 126.5795 44.2779 0.0000 0.0000 0.0000
# 3 44.2779 44.2779 92.9126 0.0000 0.0000 0.0000
# 4 0.0000 0.0000 0.0000 21.6244 0.0000 0.0000
# 5 0.0000 0.0000 0.0000 0.0000 21.6244 0.0000
# 6 0.0000 0.0000 0.0000 0.0000 0.0000 25.9490
#
#
#
# Elastic Compliance Matrix: (Units=1/GPa)
#
#
# Indices 1 2 3 4 5 6 
#
# 1 0.010204 -0.002717 -0.003568 0.000000 0.000000 0.000000
# 2 -0.002717 0.010204 -0.003568 0.000000 0.000000 0.000000
# 3 -0.003568 -0.003568 0.014164 0.000000 0.000000 0.000000
# 4 0.000000 0.000000 0.000000 0.046244 0.000000 0.000000
# 5 0.000000 0.000000 0.000000 0.000000 0.046244 0.000000
# 6 0.000000 0.000000 0.000000 0.000000 0.000000 0.038537
#
#
# Mechanical properties :
#
#
# Convention : Reuss Voigt Hill
#
# Bulk Modulus (GPa) = 67.26909 69.06148 68.16528
# Shear Modulus (GPa) = 26.28012 27.72826 27.00419
#
# Velocity S-wave (km/s) = 3.70401 3.80470 3.75469
# Velocity P-wave (km/s) = 7.30830 7.44009 7.37449
#
# Compressibility (1/GPa) = 0.01486567
#
# Stress axis : x y z
#
# Youngs Moduli (GPa) = 98.00110 98.00110 70.60396
#
# Poissons Ratio (x) = 0.26626 0.25192
# Poissons Ratio (y) = 0.26626 0.25192
# Poissons Ratio (z) = 0.34967 0.34967
#
# Static dielectric constant tensor:
#      x y z
#    x 3.586140 0.000000 0.000000 
#    y 0.000000 3.586140 0.000000 
#    z 0.000000 0.000000 3.441520 
# 
# 
# High freq. dielectric constant tensor:
#      x y z
#    x 1.752570 0.000000 0.000000 
#    y 0.000000 1.752570 0.000000 
#    z 0.000000 0.000000 1.740370 
# 
# From -- ./inp_files/2514.got.cif
#   From: 2010.03.12/outbox.cif.g09.slc.cpg/sg105_2_cif.got.tgz:2514.got - 2010.04.14 01:45:32.
