data_PCOD8307797
_publ_section_title
;
Structure prediction by ZEFSAII (Michael W. Deem and Ramdas Pophale) SiO2 
 PCOD8307797
Probable space group: I 4 C M
;
_chemical_formula_sum "Si O2"
_cell_formula_units_Z 88
_cell_length_a 14.018349
_cell_length_b 14.018349
_cell_length_c 23.114402
_cell_angle_alpha 90.000000
_cell_angle_beta 90.000000
_cell_angle_gamma 90.000000
_cell_volume 4542.306107
_symmetry_space_group_name_H-M "I 4 C M"
_symmetry_group_IT_number 108
_symmetry_cell_setting 'tetragonal'
loop_
_space_group_symop_operation_xyz
x,y,z
-y,x,z
-x,-y,z
y,-x,z
-x,y,1/2+z
x,-y,1/2+z
-y,-x,1/2+z
y,x,1/2+z
1/2+x,1/2+y,1/2+z
1/2-y,1/2+x,1/2+z
1/2-x,1/2-y,1/2+z
1/2+y,1/2-x,1/2+z
1/2-x,1/2+y,z
1/2+x,1/2-y,z
1/2-y,1/2-x,z
1/2+y,1/2+x,z
loop_
_atom_site_type_symbol
_atom_site_label
_atom_site_fract_x
_atom_site_fract_y
_atom_site_fract_z
Si Si1 0.078431 0.578431 0.574550
Si Si2 0.925106 0.574895 0.267441
Si Si3 0.393775 0.893775 0.394772
Si Si4 0.104164 0.113744 0.516793
Si Si5 0.396348 0.103653 0.441255
Si Si6 0.252208 0.247793 0.952436
Si Si7 0.319125 0.335630 0.637291
Si Si8 0.217373 0.516452 0.672730
O O1 0.112778 0.612778 0.511446
O O2 0.164403 0.532085 0.610999
O O3 0.000000 0.500000 0.561673
O O4 0.882567 0.617434 0.325828
O O5 0.849472 0.520059 0.228126
O O6 0.000000 0.500000 0.291981
O O7 0.498780 0.867189 0.418844
O O8 0.316206 0.816206 0.411464
O O9 0.174489 0.189462 0.489021
O O10 0.112431 0.127187 0.585287
O O11 0.994115 0.133330 0.499164
O O12 0.319253 0.180748 0.417751
O O13 0.249155 0.250846 0.615836
O O14 0.261358 0.412051 0.674461
O O15 0.399658 0.294233 0.679967
#
# Coordination Sequence:
#
# PCOD8307797 Si02
#       8
#     8   8   8  16   8   8  16  16
#     4  11  20  38  61  91 129 156 205 254 311 370
#     4  11  22  50  65  89 123 158 221 268 325 360
#     4  11  25  45  69  90 126 168 211 278 320 371
#     4  11  23  37  58  90 138 176 198 246 315 385
#     4  11  23  43  65  98 126 164 213 260 324 386
#     4  12  24  40  64  94 124 166 220 258 308 379
#     4  12  21  37  57  94 128 163 209 250 311 378
#     4  11  24  37  63  95 124 168 205 259 318 381
#
# _framework density 19.373418000000001
#
# number of rings (size 3 to 8) (size 9 to 14) (size 15 to 20)
#    0.000    0.727    6.364    4.364    2.545    0.364 
#    3.273    0.000    0.000    0.000    0.000    0.000 
#    0.000    0.000    0.000    0.000    0.000    0.000 
#
# Total GULP energy -545577.441270 kJ/mol
# GULP energy per Si atom -12399.487302 kJ/mol
# Density = 1.932932 g / cm^3
# Si number density = 19.373418 Si / 1000 Ang^3
#
#
#
# Elastic Constant Matrix: (Units=GPa)
#
#
# Indices 1 2 3 4 5 6 
#
# 1 112.3517 60.5838 33.0839 0.0000 0.0000 -0.0006
# 2 60.5838 112.3517 33.0839 0.0000 0.0000 0.0006
# 3 33.0839 33.0839 89.8239 0.0000 0.0000 0.0000
# 4 0.0000 0.0000 0.0000 8.4535 0.0000 0.0000
# 5 0.0000 0.0000 0.0000 0.0000 8.4535 0.0000
# 6 -0.0006 0.0006 0.0000 0.0000 0.0000 53.3995
#
#
#
# Elastic Compliance Matrix: (Units=1/GPa)
#
#
# Indices 1 2 3 4 5 6 
#
# 1 0.013024 -0.006293 -0.002479 0.000000 0.000000 0.000000
# 2 -0.006293 0.013024 -0.002479 0.000000 0.000000 0.000000
# 3 -0.002479 -0.002479 0.012959 0.000000 0.000000 0.000000
# 4 0.000000 0.000000 0.000000 0.118295 0.000000 0.000000
# 5 0.000000 0.000000 0.000000 0.000000 0.118295 0.000000
# 6 0.000000 0.000000 0.000000 0.000000 0.000000 0.018727
#
#
# Mechanical properties :
#
#
# Convention : Reuss Voigt Hill
#
# Bulk Modulus (GPa) = 60.58931 63.11452 61.85192
# Shear Modulus (GPa) = 15.51216 26.57966 21.04591
#
# Velocity S-wave (km/s) = 2.83272 3.70802 3.29953
# Velocity P-wave (km/s) = 6.48394 7.14011 6.81992
#
# Compressibility (1/GPa) = 0.01650456
#
# Stress axis : x y z
#
# Youngs Moduli (GPa) = 76.78110 76.78110 77.16550
#
# Poissons Ratio (x) = 0.48318 0.19131
# Poissons Ratio (y) = 0.48318 0.19131
# Poissons Ratio (z) = 0.19035 0.19035
#
# Static dielectric constant tensor:
#      x y z
#    x 3.754140 0.000000 0.000000 
#    y 0.000000 3.754140 0.000000 
#    z 0.000000 0.000000 3.123640 
# 
# 
# High freq. dielectric constant tensor:
#      x y z
#    x 1.770730 0.000000 0.000000 
#    y 0.000000 1.770730 0.000000 
#    z 0.000000 0.000000 1.711380 
# 
# From -- ./inp_files/2884.got.cif
#   From: 2010.03.12/outbox.cif.g09.slc.cpg/sg108_2_cif.got.tgz:2884.got - 2010.04.14 01:53:11.
