data_PCOD8307511
_publ_section_title
;
Structure prediction by ZEFSAII (Michael W. Deem and Ramdas Pophale) SiO2 
 PCOD8307511
Probable space group: I 4 M M
;
_chemical_formula_sum "Si O2"
_cell_formula_units_Z 88
_cell_length_a 16.050303
_cell_length_b 16.050303
_cell_length_c 19.741614
_cell_angle_alpha 90.000000
_cell_angle_beta 90.000000
_cell_angle_gamma 90.000000
_cell_volume 5085.681135
_symmetry_space_group_name_H-M "I 4 M M"
_symmetry_group_IT_number 107
_symmetry_cell_setting 'tetragonal'
loop_
_space_group_symop_operation_xyz
x,y,z
-y,x,z
-x,-y,z
y,-x,z
-x,y,z
x,-y,z
-y,-x,z
y,x,z
1/2+x,1/2+y,1/2+z
1/2-y,1/2+x,1/2+z
1/2-x,1/2-y,1/2+z
1/2+y,1/2-x,1/2+z
1/2-x,1/2+y,1/2+z
1/2+x,1/2-y,1/2+z
1/2-y,1/2-x,1/2+z
1/2+y,1/2+x,1/2+z
loop_
_atom_site_type_symbol
_atom_site_label
_atom_site_fract_x
_atom_site_fract_y
_atom_site_fract_z
Si Si1 0.190515 0.500000 0.221431
Si Si2 0.242874 0.500000 0.363294
Si Si3 0.732213 0.402731 0.787074
Si Si4 0.094358 0.404041 0.022525
Si Si5 0.093064 0.651209 0.167268
Si Si6 0.633403 0.500000 0.253550
Si Si7 0.686533 0.175349 0.906954
O O1 0.175019 0.500000 0.302318
O O2 0.156472 0.583086 0.190853
O O3 0.288526 0.500000 0.203087
O O4 0.336044 0.500000 0.331873
O O5 0.231744 0.585539 0.404216
O O6 0.719248 0.500000 0.804586
O O7 0.643661 0.356340 0.794050
O O8 0.764171 0.390362 0.709592
O O9 0.799603 0.362328 0.838461
O O10 0.109796 0.500000 0.045386
O O11 0.104253 0.340533 0.086243
O O12 0.000000 0.395643 0.992873
O O13 0.164481 0.380029 0.967496
O O14 0.000000 0.619420 0.183500
O O15 0.582270 0.582270 0.238389
O O16 0.754627 0.245374 0.925235
#
# Coordination Sequence:
#
# PCOD8307511 Si02
#       7
#     8   8  16  16  16   8  16
#     4  10  18  30  52  77 101 135 164 205 260 314
#     4  10  19  31  52  78 102 137 170 212 265 312
#     4  10  21  36  55  79 106 137 178 221 263 314
#     4  10  20  34  53  78 107 138 172 212 266 322
#     4  10  19  33  53  78 107 133 166 212 262 316
#     4   9  18  31  48  73 101 132 169 210 253 300
#     4  11  21  35  52  78 110 139 176 220 263 313
#
# _framework density 17.303483
#
# number of rings (size 3 to 8) (size 9 to 14) (size 15 to 20)
#    0.545    1.364    3.636    1.364    0.000    1.636 
#    0.000    0.000    0.000    0.000    0.000    0.000 
#    0.000    0.000    0.000    0.000    0.000    0.000 
#
# Total GULP energy -545213.040802 kJ/mol
# GULP energy per Si atom -12391.205473 kJ/mol
# Density = 1.726410 g / cm^3
# Si number density = 17.303483 Si / 1000 Ang^3
#
#
#
# Elastic Constant Matrix: (Units=GPa)
#
#
# Indices 1 2 3 4 5 6 
#
# 1 95.9653 45.1521 29.3661 0.0000 0.0000 -0.0001
# 2 45.1521 95.9653 29.3661 0.0000 0.0000 0.0001
# 3 29.3661 29.3661 81.9938 0.0000 0.0000 0.0000
# 4 0.0000 0.0000 0.0000 28.8165 0.0000 0.0000
# 5 0.0000 0.0000 0.0000 0.0000 28.8165 0.0000
# 6 -0.0001 0.0001 0.0000 0.0000 0.0000 54.2143
#
#
#
# Elastic Compliance Matrix: (Units=1/GPa)
#
#
# Indices 1 2 3 4 5 6 
#
# 1 0.014004 -0.005676 -0.002983 0.000000 0.000000 0.000000
# 2 -0.005676 0.014004 -0.002983 0.000000 0.000000 0.000000
# 3 -0.002983 -0.002983 0.014332 0.000000 0.000000 0.000000
# 4 0.000000 0.000000 0.000000 0.034702 0.000000 0.000000
# 5 0.000000 0.000000 0.000000 0.000000 0.034702 0.000000
# 6 0.000000 0.000000 0.000000 0.000000 0.000000 0.018445
#
#
# Mechanical properties :
#
#
# Convention : Reuss Voigt Hill
#
# Bulk Modulus (GPa) = 52.47274 53.52145 52.99710
# Shear Modulus (GPa) = 31.28422 33.70545 32.49483
#
# Velocity S-wave (km/s) = 4.25664 4.41829 4.33822
# Velocity P-wave (km/s) = 7.38576 7.55159 7.46914
#
# Compressibility (1/GPa) = 0.01905751
#
# Stress axis : x y z
#
# Youngs Moduli (GPa) = 71.40938 71.40938 69.77182
#
# Poissons Ratio (x) = 0.40533 0.20810
# Poissons Ratio (y) = 0.40533 0.20810
# Poissons Ratio (z) = 0.21298 0.21298
#
# Static dielectric constant tensor:
#      x y z
#    x 2.601800 0.000000 0.000000 
#    y 0.000000 2.601800 0.000000 
#    z 0.000000 0.000000 3.181760 
# 
# 
# High freq. dielectric constant tensor:
#      x y z
#    x 1.660830 0.000000 0.000000 
#    y 0.000000 1.660830 0.000000 
#    z 0.000000 0.000000 1.656690 
# 
# From -- ./inp_files/4700.got.cif
#   From: 2010.03.12/outbox.cif.g09.slc.cpg/sg107_3_cif.got.tgz:4700.got - 2010.04.14 01:49:11.
