data_PCOD8307078
_publ_section_title
;
Structure prediction by ZEFSAII (Michael W. Deem and Ramdas Pophale) SiO2 
 PCOD8307078
Probable space group: P 4 N C 
;
_chemical_formula_sum "Si O2"
_cell_formula_units_Z 64
_cell_length_a 13.511237
_cell_length_b 13.511237
_cell_length_c 18.707825
_cell_angle_alpha 90.000000
_cell_angle_beta 90.000000
_cell_angle_gamma 90.000000
_cell_volume 3415.179404
_symmetry_space_group_name_H-M "P 4 N C "
_symmetry_group_IT_number 104
_symmetry_cell_setting 'tetragonal'
loop_
_space_group_symop_operation_xyz
x,y,z
-y,x,z
-x,-y,z
y,-x,z
1/2-x,1/2+y,1/2+z
1/2+x,1/2-y,1/2+z
1/2-y,1/2-x,1/2+z
1/2+y,1/2+x,1/2+z
loop_
_atom_site_type_symbol
_atom_site_label
_atom_site_fract_x
_atom_site_fract_y
_atom_site_fract_z
Si Si1 0.490420 0.663073 0.058190
Si Si2 0.387050 0.738155 0.694141
Si Si3 0.377738 0.391829 0.558188
Si Si4 0.238155 0.112950 0.765227
Si Si5 0.608171 0.622262 0.401180
Si Si6 0.509580 0.663073 0.901178
Si Si7 0.412429 0.253213 0.764065
Si Si8 0.753213 0.087571 0.695303
O O1 0.397554 0.590642 0.066999
O O2 0.471941 0.744430 0.119815
O O3 0.500000 0.714010 0.979684
O O4 0.347304 0.694678 0.618210
O O5 0.505525 0.742345 0.701366
O O6 0.344528 0.664083 0.754856
O O7 0.347511 0.849894 0.701887
O O8 0.491288 0.363737 0.567880
O O9 0.349298 0.349299 0.479684
O O10 0.194678 0.152696 0.841158
O O11 0.349895 0.152489 0.757481
O O12 0.164083 0.155472 0.704512
O O13 0.242345 0.994475 0.758002
O O14 0.491288 0.636263 0.391488
O O15 0.409359 0.602446 0.892369
O O16 0.528059 0.744430 0.839554
#
# Coordination Sequence:
#
# PCOD8307078 Si02
#       8
#     8   8   8   8   8   8   8   8
#     4   9  17  32  56  83 112 142 183 237 294 346
#     4  11  22  36  57  84 115 154 195 238 295 344
#     4   9  17  32  56  84 110 142 184 236 294 341
#     4  11  22  36  57  84 115 154 195 238 295 344
#     4   9  17  32  56  84 110 142 184 236 294 341
#     4   9  17  32  56  83 112 142 183 237 294 346
#     4  11  22  36  56  86 114 152 194 240 293 351
#     4  11  22  36  56  86 114 152 194 240 293 351
#
# _framework density 18.739865000000002
#
# number of rings (size 3 to 8) (size 9 to 14) (size 15 to 20)
#    0.000    2.000    5.000    1.500    0.000    1.000 
#    4.500    0.000    0.000    0.000    0.000    0.000 
#    0.000    0.000    0.000    0.000    0.000    0.000 
#
# Total GULP energy -792967.116028 kJ/mol
# GULP energy per Si atom -12390.111188 kJ/mol
# Density = 1.869721 g / cm^3
# Si number density = 18.739865 Si / 1000 Ang^3
#
#
#
# Elastic Constant Matrix: (Units=GPa)
#
#
# Indices 1 2 3 4 5 6 
#
# 1 67.0132 31.0196 27.4980 0.0000 0.0000 0.0000
# 2 31.0196 67.0132 27.4980 0.0000 0.0000 0.0000
# 3 27.4980 27.4980 131.8479 0.0000 0.0000 0.0000
# 4 0.0000 0.0000 0.0000 19.7395 0.0000 0.0000
# 5 0.0000 0.0000 0.0000 0.0000 19.7395 0.0000
# 6 0.0000 0.0000 0.0000 0.0000 0.0000 18.5673
#
#
#
# Elastic Compliance Matrix: (Units=1/GPa)
#
#
# Indices 1 2 3 4 5 6 
#
# 1 0.019667 -0.008115 -0.002409 0.000000 0.000000 0.000000
# 2 -0.008115 0.019667 -0.002409 0.000000 0.000000 0.000000
# 3 -0.002409 -0.002409 0.008589 0.000000 0.000000 0.000000
# 4 0.000000 0.000000 0.000000 0.050660 0.000000 0.000000
# 5 0.000000 0.000000 0.000000 0.000000 0.050660 0.000000
# 6 0.000000 0.000000 0.000000 0.000000 0.000000 0.053858
#
#
# Mechanical properties :
#
#
# Convention : Reuss Voigt Hill
#
# Bulk Modulus (GPa) = 45.33762 48.65617 46.99690
# Shear Modulus (GPa) = 21.15757 23.59985 22.37871
#
# Velocity S-wave (km/s) = 3.36373 3.55257 3.45944
# Velocity P-wave (km/s) = 6.27151 6.54584 6.41014
#
# Compressibility (1/GPa) = 0.02205674
#
# Stress axis : x y z
#
# Youngs Moduli (GPa) = 50.84535 50.84535 116.42164
#
# Poissons Ratio (x) = 0.41262 0.28050
# Poissons Ratio (y) = 0.41262 0.28050
# Poissons Ratio (z) = 0.12250 0.12250
#
# Static dielectric constant tensor:
#      x y z
#    x 3.072310 0.000000 0.000000 
#    y 0.000000 3.072310 0.000000 
#    z 0.000000 0.000000 3.686380 
# 
# 
# High freq. dielectric constant tensor:
#      x y z
#    x 1.694100 0.000000 0.000000 
#    y 0.000000 1.694100 0.000000 
#    z 0.000000 0.000000 1.742860 
# 
# From -- ./inp_files/1509.got.cif
#   From: 2010.03.12/outbox.cif.g09.slc.cpg/sg104_cif.got.tgz:1509.got - 2010.04.14 01:44:05.
