data_PCOD8307347
_publ_section_title
;
Structure prediction by ZEFSAII (Michael W. Deem and Ramdas Pophale) SiO2 
 PCOD8307347
Probable space group: P 42 M C
;
_chemical_formula_sum "Si O2"
_cell_formula_units_Z 40
_cell_length_a 8.049306
_cell_length_b 8.049306
_cell_length_c 29.380250
_cell_angle_alpha 90.000000
_cell_angle_beta 90.000000
_cell_angle_gamma 90.000000
_cell_volume 1903.585387
_symmetry_space_group_name_H-M "P 42 M C"
_symmetry_group_IT_number 105
_symmetry_cell_setting 'tetragonal'
loop_
_space_group_symop_operation_xyz
x,y,z
-y,x,1/2+z
-x,-y,z
y,-x,1/2+z
-x,y,z
x,-y,z
-y,-x,1/2+z
y,x,1/2+z
loop_
_atom_site_type_symbol
_atom_site_label
_atom_site_fract_x
_atom_site_fract_y
_atom_site_fract_z
Si Si1 0.300959 0.000000 0.247330
Si Si2 0.805952 0.185182 0.994216
Si Si3 0.803446 0.317083 0.088082
Si Si4 0.000000 0.694277 0.645033
Si Si5 0.308497 0.685817 0.302503
Si Si6 0.305556 0.813843 0.899455
O O1 0.229740 0.831156 0.271074
O O2 0.500000 0.000000 0.250816
O O3 0.232162 0.000000 0.195984
O O4 0.767181 0.270819 0.945446
O O5 0.000000 0.172743 0.001465
O O6 0.726647 0.000000 0.994631
O O7 0.731962 0.286889 0.036996
O O8 0.738380 0.500000 0.104346
O O9 0.000000 0.318400 0.087372
O O10 0.748343 0.168998 0.120745
O O11 0.000000 0.500000 0.648385
O O12 0.500000 0.669748 0.290492
O O13 0.226726 0.500000 0.294755
O O14 0.289479 0.744179 0.354841
O O15 0.500000 0.817491 0.905417
O O16 0.232861 0.000000 0.893856
#
# Coordination Sequence:
#
# PCOD8307347 Si02
#       6
#     4   8   8   4   8   8
#     4   9  20  37  57  81 105 143 189 233 289 350
#     4   9  17  31  51  75 107 146 185 226 277 341
#     4  10  21  39  61  84 115 154 195 241 297 361
#     4  11  23  39  61  87 117 149 195 253 305 356
#     4   9  18  34  54  75 104 141 181 230 282 336
#     4   9  18  31  48  75 111 145 177 221 278 333
#
# _framework density 21.012976999999999
#
# number of rings (size 3 to 8) (size 9 to 14) (size 15 to 20)
#    0.000    2.600    1.000    0.300    1.400    2.800 
#    0.000    4.000    0.000    2.400    0.000    0.000 
#    0.000    0.000    0.000    0.000    0.000    0.000 
#
# Total GULP energy -495595.152324 kJ/mol
# GULP energy per Si atom -12389.878808 kJ/mol
# Density = 2.096515 g / cm^3
# Si number density = 21.012977 Si / 1000 Ang^3
#
#
#
# Elastic Constant Matrix: (Units=GPa)
#
#
# Indices 1 2 3 4 5 6 
#
# 1 77.3263 28.1328 56.5990 0.0000 0.0000 0.0000
# 2 28.1328 77.3263 56.5990 0.0000 0.0000 0.0000
# 3 56.5990 56.5990 180.0428 0.0000 0.0000 0.0000
# 4 0.0000 0.0000 0.0000 31.6126 0.0000 0.0000
# 5 0.0000 0.0000 0.0000 0.0000 31.6126 0.0000
# 6 0.0000 0.0000 0.0000 0.0000 0.0000 12.5887
#
#
#
# Elastic Compliance Matrix: (Units=1/GPa)
#
#
# Indices 1 2 3 4 5 6 
#
# 1 0.017320 -0.003008 -0.004499 0.000000 0.000000 0.000000
# 2 -0.003008 0.017320 -0.004499 0.000000 0.000000 0.000000
# 3 -0.004499 -0.004499 0.008383 0.000000 0.000000 0.000000
# 4 0.000000 0.000000 0.000000 0.031633 0.000000 0.000000
# 5 0.000000 0.000000 0.000000 0.000000 0.031633 0.000000
# 6 0.000000 0.000000 0.000000 0.000000 0.000000 0.079437
#
#
# Mechanical properties :
#
#
# Convention : Reuss Voigt Hill
#
# Bulk Modulus (GPa) = 52.60433 68.59525 60.59979
# Shear Modulus (GPa) = 23.14023 28.05375 25.59699
#
# Velocity S-wave (km/s) = 3.32209 3.65782 3.49399
# Velocity P-wave (km/s) = 6.30901 7.11018 6.72154
#
# Compressibility (1/GPa) = 0.01900984
#
# Stress axis : x y z
#
# Youngs Moduli (GPa) = 57.73768 57.73768 119.29034
#
# Poissons Ratio (x) = 0.17368 0.53669
# Poissons Ratio (y) = 0.17368 0.53669
# Poissons Ratio (z) = 0.25976 0.25976
#
# Static dielectric constant tensor:
#      x y z
#    x 3.701620 0.000000 0.000000 
#    y 0.000000 3.701620 0.000000 
#    z 0.000000 0.000000 4.130970 
# 
# 
# High freq. dielectric constant tensor:
#      x y z
#    x 1.805270 0.000000 0.000000 
#    y 0.000000 1.805270 0.000000 
#    z 0.000000 0.000000 1.824790 
# 
# From -- ./inp_files/4271.got.cif
#   From: 2010.03.12/outbox.cif.g09.slc.cpg/sg105_3_cif.got.tgz:4271.got - 2010.04.14 01:45:32.
