data_PCOD8307470
_publ_section_title
;
Structure prediction by ZEFSAII (Michael W. Deem and Ramdas Pophale) SiO2 
 PCOD8307470
Probable space group: P 42 B C
;
_chemical_formula_sum "Si O2"
_cell_formula_units_Z 40
_cell_length_a 10.659559
_cell_length_b 10.659559
_cell_length_c 15.067509
_cell_angle_alpha 90.000000
_cell_angle_beta 90.000000
_cell_angle_gamma 90.000000
_cell_volume 1712.063762
_symmetry_space_group_name_H-M "P 42 B C"
_symmetry_group_IT_number 106
_symmetry_cell_setting 'tetragonal'
loop_
_space_group_symop_operation_xyz
x,y,z
-y,x,1/2+z
-x,-y,z
y,-x,1/2+z
1/2-x,1/2+y,z
1/2+x,1/2-y,z
1/2-y,1/2-x,1/2+z
1/2+y,1/2+x,1/2+z
loop_
_atom_site_type_symbol
_atom_site_label
_atom_site_fract_x
_atom_site_fract_y
_atom_site_fract_z
Si Si1 0.765009 0.421811 0.579960
Si Si2 0.872404 0.037431 0.720946
Si Si3 0.881693 0.589440 0.806902
Si Si4 0.671451 0.183454 0.500088
Si Si5 0.287727 0.018662 0.151651
O O1 0.641872 0.430320 0.643624
O O2 0.762302 0.304735 0.511848
O O3 0.767824 0.555879 0.533864
O O4 0.888957 0.408435 0.641897
O O5 0.748411 0.023363 0.779548
O O6 0.888345 0.173425 0.675913
O O7 0.000000 0.000000 0.774099
O O8 0.000000 0.500000 0.826773
O O9 0.919581 0.689264 0.731138
O O10 0.840753 0.655234 0.896969
O O11 0.547965 0.221899 0.555588
#
# Coordination Sequence:
#
# PCOD8307470 Si02
#       5
#     8   8   8   8   8
#     4  12  23  49  74 108 153 208 255 322 398 471
#     4  12  26  48  77 111 150 206 260 333 396 473
#     4  12  26  48  78 113 155 214 270 332 412 487
#     4  12  27  46  75 112 156 205 265 329 398 483
#     4  12  23  48  79 104 153 205 263 321 404 481
#
# _framework density 23.363617000000001
#
# number of rings (size 3 to 8) (size 9 to 14) (size 15 to 20)
#    0.000    0.000    8.000    1.800    2.800    0.000 
#    7.200    0.000    0.000    0.000    0.000    0.000 
#    0.000    0.000    0.000    0.000    0.000    0.000 
#
# Total GULP energy -495680.150277 kJ/mol
# GULP energy per Si atom -12392.003757 kJ/mol
# Density = 2.331044 g / cm^3
# Si number density = 23.363617 Si / 1000 Ang^3
#
#
#
# Elastic Constant Matrix: (Units=GPa)
#
#
# Indices 1 2 3 4 5 6 
#
# 1 140.7009 41.5115 47.2161 0.0000 0.0000 0.0000
# 2 41.5115 140.7009 47.2161 0.0000 0.0000 0.0000
# 3 47.2161 47.2161 129.2558 0.0000 0.0000 0.0000
# 4 0.0000 0.0000 0.0000 22.8142 0.0000 0.0000
# 5 0.0000 0.0000 0.0000 0.0000 22.8142 0.0000
# 6 0.0000 0.0000 0.0000 0.0000 0.0000 39.2817
#
#
#
# Elastic Compliance Matrix: (Units=1/GPa)
#
#
# Indices 1 2 3 4 5 6 
#
# 1 0.008426 -0.001656 -0.002473 0.000000 0.000000 0.000000
# 2 -0.001656 0.008426 -0.002473 0.000000 0.000000 0.000000
# 3 -0.002473 -0.002473 0.009543 0.000000 0.000000 0.000000
# 4 0.000000 0.000000 0.000000 0.043832 0.000000 0.000000
# 5 0.000000 0.000000 0.000000 0.000000 0.043832 0.000000
# 6 0.000000 0.000000 0.000000 0.000000 0.000000 0.025457
#
#
# Mechanical properties :
#
#
# Convention : Reuss Voigt Hill
#
# Bulk Modulus (GPa) = 75.80924 75.83832 75.82378
# Shear Modulus (GPa) = 31.82339 35.29629 33.55984
#
# Velocity S-wave (km/s) = 3.69466 3.89104 3.79412
# Velocity P-wave (km/s) = 7.12170 7.26067 7.19152
#
# Compressibility (1/GPa) = 0.01319100
#
# Stress axis : x y z
#
# Youngs Moduli (GPa) = 118.68438 118.68438 104.78593
#
# Poissons Ratio (x) = 0.19654 0.25913
# Poissons Ratio (y) = 0.19654 0.25913
# Poissons Ratio (z) = 0.29350 0.29350
#
# Static dielectric constant tensor:
#      x y z
#    x 4.285460 0.000000 0.000000 
#    y 0.000000 4.285460 0.000000 
#    z 0.000000 0.000000 4.210840 
# 
# 
# High freq. dielectric constant tensor:
#      x y z
#    x 1.940110 0.000000 0.000000 
#    y 0.000000 1.940110 0.000000 
#    z 0.000000 0.000000 1.902950 
# 
# From -- ./inp_files/1239.got.cif
#   From: 2010.03.12/outbox.cif.g09.slc.cpg/sg106_cif.got.tgz:1239.got - 2010.04.14 01:48:02.
