data_PCOD8307828
_publ_section_title
;
Structure prediction by ZEFSAII (Michael W. Deem and Ramdas Pophale) SiO2 
 PCOD8307828
Probable space group: I 41 M D
;
_chemical_formula_sum "Si O2"
_cell_formula_units_Z 112
_cell_length_a 19.313274
_cell_length_b 19.313274
_cell_length_c 19.142601
_cell_angle_alpha 90.000000
_cell_angle_beta 90.000000
_cell_angle_gamma 90.000000
_cell_volume 7140.239036
_symmetry_space_group_name_H-M "I 41 M D"
_symmetry_group_IT_number 109
_symmetry_cell_setting 'tetragonal'
loop_
_space_group_symop_operation_xyz
x,y,z
-y,1/2+x,1/4+z
-x,-y,z
y,1/2-x,1/4+z
-x,y,z
x,-y,z
-y,1/2-x,1/4+z
y,1/2+x,1/4+z
1/2+x,1/2+y,1/2+z
1/2-y,x,3/4+z
1/2-x,1/2-y,1/2+z
1/2+y,-x,3/4+z
1/2-x,1/2+y,1/2+z
1/2+x,1/2-y,1/2+z
1/2-y,-x,3/4+z
1/2+y,x,3/4+z
loop_
_atom_site_type_symbol
_atom_site_label
_atom_site_fract_x
_atom_site_fract_y
_atom_site_fract_z
Si Si1 0.423210 0.106118 0.055060
Si Si2 0.424687 0.269481 0.052030
Si Si3 0.576872 0.353962 0.668597
Si Si4 0.247022 0.715847 0.853205
Si Si5 0.319271 0.766257 0.713898
Si Si6 0.201923 0.396991 0.647522
Si Si7 0.164178 0.077677 0.056635
O O1 0.500000 0.086133 0.080911
O O2 0.414190 0.187847 0.046042
O O3 0.367850 0.076606 0.110003
O O4 0.410136 0.072111 0.980124
O O5 0.500000 0.287288 0.087206
O O6 0.357001 0.295985 0.095554
O O7 0.426953 0.300936 0.974897
O O8 0.500000 0.321383 0.657773
O O9 0.634349 0.297456 0.687769
O O10 0.598575 0.393504 0.598481
O O11 0.268773 0.743576 0.777137
O O12 0.204604 0.773162 0.898641
O O13 0.314163 0.703703 0.901473
O O14 0.371852 0.825388 0.740107
O O15 0.267604 0.424810 0.604930
O O16 0.148495 0.000000 0.030230
#
# Coordination Sequence:
#
# PCOD8307828 Si02
#       7
#    16  16  16  16  16  16  16
#     4  10  19  29  40  62  95 127 159 188 217 266
#     4  10  17  27  45  66  90 121 157 191 225 266
#     4  12  21  30  45  67  95 129 161 190 230 283
#     4  10  16  29  47  67  91 122 159 196 226 269
#     4  11  18  31  47  67  93 122 165 196 231 273
#     4  10  16  26  43  62  87 127 156 183 220 268
#     4  11  20  31  44  62  92 128 162 197 230 270
#
# _framework density 15.685750000000001
#
# number of rings (size 3 to 8) (size 9 to 14) (size 15 to 20)
#    0.000    1.429   10.000    1.286    0.000    1.714 
#    0.000    0.000    0.000    0.000    0.000    2.000 
#    0.000    0.000    0.000    0.000    0.000    0.000 
#
# Total GULP energy -693936.163491 kJ/mol
# GULP energy per Si atom -12391.717205 kJ/mol
# Density = 1.565005 g / cm^3
# Si number density = 15.685750 Si / 1000 Ang^3
#
#
#
# Elastic Constant Matrix: (Units=GPa)
#
#
# Indices 1 2 3 4 5 6 
#
# 1 62.8386 15.3643 41.9218 0.0000 0.0000 0.0000
# 2 15.3643 62.8386 41.9218 0.0000 0.0000 0.0000
# 3 41.9218 41.9218 71.8085 0.0000 0.0000 0.0000
# 4 0.0000 0.0000 0.0000 16.9003 0.0000 0.0000
# 5 0.0000 0.0000 0.0000 0.0000 16.9003 0.0000
# 6 0.0000 0.0000 0.0000 0.0000 0.0000 3.8666
#
#
#
# Elastic Compliance Matrix: (Units=1/GPa)
#
#
# Indices 1 2 3 4 5 6 
#
# 1 0.027623 0.006559 -0.019956 0.000000 0.000000 0.000000
# 2 0.006559 0.027623 -0.019956 0.000000 0.000000 0.000000
# 3 -0.019956 -0.019956 0.037226 0.000000 0.000000 0.000000
# 4 0.000000 0.000000 0.000000 0.059171 0.000000 0.000000
# 5 0.000000 0.000000 0.000000 0.000000 0.059171 0.000000
# 6 0.000000 0.000000 0.000000 0.000000 0.000000 0.258624
#
#
# Mechanical properties :
#
#
# Convention : Reuss Voigt Hill
#
# Bulk Modulus (GPa) = 38.80753 43.98905 41.39829
# Shear Modulus (GPa) = 9.17882 14.08528 11.63205
#
# Velocity S-wave (km/s) = 2.42165 2.99986 2.72613
# Velocity P-wave (km/s) = 5.71083 6.33275 6.02981
#
# Compressibility (1/GPa) = 0.02576820
#
# Stress axis : x y z
#
# Youngs Moduli (GPa) = 36.20146 36.20146 26.86277
#
# Poissons Ratio (x) = -0.23745 0.53607
# Poissons Ratio (y) = -0.23745 0.53607
# Poissons Ratio (z) = 0.72243 0.72243
#
# Static dielectric constant tensor:
#      x y z
#    x 2.974420 0.000000 0.000000 
#    y 0.000000 2.974420 0.000000 
#    z 0.000000 0.000000 2.951410 
# 
# 
# High freq. dielectric constant tensor:
#      x y z
#    x 1.580220 0.000000 0.000000 
#    y 0.000000 1.580220 0.000000 
#    z 0.000000 0.000000 1.573380 
# 
# From -- ./inp_files/3277.got.cif
#   From: 2010.03.12/outbox.cif.g09.slc.cpg/sg109_2_cif.got.tgz:3277.got - 2010.04.14 01:55:16.
