data_PCOD8307345
_publ_section_title
;
Structure prediction by ZEFSAII (Michael W. Deem and Ramdas Pophale) SiO2 
 PCOD8307345
Probable space group: P 42 M C
;
_chemical_formula_sum "Si O2"
_cell_formula_units_Z 48
_cell_length_a 9.324030
_cell_length_b 9.324030
_cell_length_c 27.236544
_cell_angle_alpha 90.000000
_cell_angle_beta 90.000000
_cell_angle_gamma 90.000000
_cell_volume 2367.878009
_symmetry_space_group_name_H-M "P 42 M C"
_symmetry_group_IT_number 105
_symmetry_cell_setting 'tetragonal'
loop_
_space_group_symop_operation_xyz
x,y,z
-y,x,1/2+z
-x,-y,z
y,-x,1/2+z
-x,y,z
x,-y,z
-y,-x,1/2+z
y,x,1/2+z
loop_
_atom_site_type_symbol
_atom_site_label
_atom_site_fract_x
_atom_site_fract_y
_atom_site_fract_z
Si Si1 0.283926 0.161893 0.267990
Si Si2 0.660923 0.669304 0.863624
Si Si3 0.826268 0.775038 0.553317
Si Si4 0.500000 0.329626 0.087438
Si Si5 0.000000 0.327549 0.118424
Si Si6 0.500000 0.668593 0.203601
Si Si7 0.839254 0.336599 0.956874
Si Si8 0.000000 0.845828 0.211136
O O1 0.277280 0.238197 0.320309
O O2 0.364237 0.257148 0.227748
O O3 0.126328 0.157188 0.249055
O O4 0.348812 0.000000 0.272748
O O5 0.500000 0.734229 0.859645
O O6 0.653767 0.500000 0.860228
O O7 0.729432 0.716660 0.915322
O O8 0.755286 0.623211 0.560160
O O9 0.777482 0.834481 0.500836
O O10 0.000000 0.776518 0.557823
O O11 0.750203 0.863357 0.596174
O O12 0.500000 0.500000 0.075520
O O13 0.500000 0.303325 0.145542
O O14 0.000000 0.500000 0.109927
O O15 0.000000 0.292441 0.176073
O O16 0.500000 0.500000 0.215685
O O17 0.802352 0.500000 0.974489
O O18 0.000000 0.334408 0.935086
O O19 0.000000 0.000000 0.181877
#
# Coordination Sequence:
#
# PCOD8307345 Si02
#       8
#     8   8   8   4   4   4   8   4
#     4  11  22  39  64  92 128 171 215 266 325 389
#     4  10  21  38  63  94 125 162 211 268 323 383
#     4  12  25  42  65  95 132 169 214 275 335 395
#     4  11  25  43  65  95 133 177 219 269 326 395
#     4  12  24  42  68  96 128 176 226 270 323 398
#     4  11  23  39  63  95 129 165 217 267 314 379
#     4  10  21  39  64  90 118 160 213 264 322 393
#     4  10  24  42  62  94 132 172 218 272 331 388
#
# _framework density 20.271315000000001
#
# number of rings (size 3 to 8) (size 9 to 14) (size 15 to 20)
#    0.000    1.167    1.667    4.750    1.167    6.000 
#    1.500    0.000    0.000    0.000    0.000    0.000 
#    0.000    0.000    0.000    0.000    0.000    0.000 
#
# Total GULP energy -594928.896600 kJ/mol
# GULP energy per Si atom -12394.352013 kJ/mol
# Density = 2.022518 g / cm^3
# Si number density = 20.271315 Si / 1000 Ang^3
#
#
#
# Elastic Constant Matrix: (Units=GPa)
#
#
# Indices 1 2 3 4 5 6 
#
# 1 130.1001 29.7854 32.7135 0.0000 0.0000 0.0000
# 2 29.7854 130.1001 32.7135 0.0000 0.0000 0.0000
# 3 32.7135 32.7135 94.4920 0.0000 0.0000 0.0000
# 4 0.0000 0.0000 0.0000 17.0452 0.0000 0.0000
# 5 0.0000 0.0000 0.0000 0.0000 17.0452 0.0000
# 6 0.0000 0.0000 0.0000 0.0000 0.0000 23.2711
#
#
#
# Elastic Compliance Matrix: (Units=1/GPa)
#
#
# Indices 1 2 3 4 5 6 
#
# 1 0.008628 -0.001341 -0.002523 0.000000 0.000000 0.000000
# 2 -0.001341 0.008628 -0.002523 0.000000 0.000000 0.000000
# 3 -0.002523 -0.002523 0.012330 0.000000 0.000000 0.000000
# 4 0.000000 0.000000 0.000000 0.058667 0.000000 0.000000
# 5 0.000000 0.000000 0.000000 0.000000 0.058667 0.000000
# 6 0.000000 0.000000 0.000000 0.000000 0.000000 0.042972
#
#
# Mechanical properties :
#
#
# Convention : Reuss Voigt Hill
#
# Bulk Modulus (GPa) = 59.47996 60.56856 60.02426
# Shear Modulus (GPa) = 24.00748 28.77098 26.38923
#
# Velocity S-wave (km/s) = 3.44511 3.77144 3.61196
# Velocity P-wave (km/s) = 6.72538 6.99348 6.86074
#
# Compressibility (1/GPa) = 0.01681238
#
# Stress axis : x y z
#
# Youngs Moduli (GPa) = 115.90554 115.90554 81.10526
#
# Poissons Ratio (x) = 0.15542 0.20461
# Poissons Ratio (y) = 0.15542 0.20461
# Poissons Ratio (z) = 0.29240 0.29240
#
# Static dielectric constant tensor:
#      x y z
#    x 3.317270 0.000000 0.000000 
#    y 0.000000 3.317270 0.000000 
#    z 0.000000 0.000000 3.680800 
# 
# 
# High freq. dielectric constant tensor:
#      x y z
#    x 1.799230 0.000000 0.000000 
#    y 0.000000 1.799230 0.000000 
#    z 0.000000 0.000000 1.795580 
# 
# From -- ./inp_files/4904.got.cif
#   From: 2010.03.12/outbox.cif.g09.slc.cpg/sg105_3_cif.got.tgz:4904.got - 2010.04.14 01:45:32.
