data_PCOD8307505
_publ_section_title
;
Structure prediction by ZEFSAII (Michael W. Deem and Ramdas Pophale) SiO2 
 PCOD8307505
Probable space group: I 4 M M
;
_chemical_formula_sum "Si O2"
_cell_formula_units_Z 128
_cell_length_a 25.083100
_cell_length_b 25.083100
_cell_length_c 11.754927
_cell_angle_alpha 90.000000
_cell_angle_beta 90.000000
_cell_angle_gamma 90.000000
_cell_volume 7395.752272
_symmetry_space_group_name_H-M "I 4 M M"
_symmetry_group_IT_number 107
_symmetry_cell_setting 'tetragonal'
loop_
_space_group_symop_operation_xyz
x,y,z
-y,x,z
-x,-y,z
y,-x,z
-x,y,z
x,-y,z
-y,-x,z
y,x,z
1/2+x,1/2+y,1/2+z
1/2-y,1/2+x,1/2+z
1/2-x,1/2-y,1/2+z
1/2+y,1/2-x,1/2+z
1/2-x,1/2+y,1/2+z
1/2+x,1/2-y,1/2+z
1/2-y,1/2-x,1/2+z
1/2+y,1/2+x,1/2+z
loop_
_atom_site_type_symbol
_atom_site_label
_atom_site_fract_x
_atom_site_fract_y
_atom_site_fract_z
Si Si1 0.159610 0.562394 0.341790
Si Si2 0.708120 0.623497 0.970093
Si Si3 0.299050 0.938369 0.593171
Si Si4 0.441564 0.638128 0.129310
Si Si5 0.751357 0.436815 0.511121
Si Si6 0.648303 0.561110 0.381397
Si Si7 0.868011 0.440868 0.885220
Si Si8 0.744443 0.938142 0.269905
O O1 0.150555 0.500000 0.355715
O O2 0.186552 0.575938 0.221529
O O3 0.198157 0.585802 0.440402
O O4 0.101779 0.588210 0.350836
O O5 0.686133 0.686133 0.966108
O O6 0.717616 0.600974 0.843024
O O7 0.759631 0.608443 0.047638
O O8 0.661012 0.592040 0.027684
O O9 0.352634 0.935805 0.518137
O O10 0.275251 0.000000 0.583322
O O11 0.500000 0.637055 0.081672
O O12 0.422143 0.577858 0.153240
O O13 0.435824 0.668843 0.250155
O O14 0.753258 0.500000 0.501681
O O15 0.696468 0.416003 0.456839
O O16 0.753300 0.417528 0.640782
O O17 0.633714 0.500000 0.412254
O O18 0.596676 0.596676 0.406726
O O19 0.891397 0.500000 0.861302
O O20 0.815818 0.431534 0.809847
O O21 0.762902 0.000000 0.282116
#
# Coordination Sequence:
#
# PCOD8307505 Si02
#       8
#    16  16  16  16  16  16  16  16
#     4  10  20  33  54  80 105 137 174 209 253 309
#     4  10  18  29  50  74  94 123 168 220 258 294
#     4   9  18  34  53  74 102 138 174 209 256 312
#     4   9  16  25  40  64  93 124 158 199 249 299
#     4   9  18  31  48  71  98 133 175 212 248 301
#     4   9  17  29  46  70 100 132 169 215 263 311
#     4   9  19  34  53  77 104 134 169 208 254 308
#     4   9  18  33  51  71  99 134 170 207 253 311
#
# _framework density 17.307231000000002
#
# number of rings (size 3 to 8) (size 9 to 14) (size 15 to 20)
#    0.000    2.750    0.000    2.625    1.750    3.000 
#    0.000    1.250    0.000    8.250    0.000    0.000 
#    0.000    3.000    0.000    0.000    0.000    0.000 
#
# Total GULP energy -792877.472671 kJ/mol
# GULP energy per Si atom -12388.710510 kJ/mol
# Density = 1.726784 g / cm^3
# Si number density = 17.307231 Si / 1000 Ang^3
#
#
#
# Elastic Constant Matrix: (Units=GPa)
#
#
# Indices 1 2 3 4 5 6 
#
# 1 17.1058 112.2719 44.7445 0.0000 0.0000 0.0124
# 2 112.2719 17.1058 44.7445 0.0000 0.0000 -0.0124
# 3 44.7445 44.7445 127.3921 0.0000 0.0000 0.0000
# 4 0.0000 0.0000 0.0000 18.9364 0.0000 0.0000
# 5 0.0000 0.0000 0.0000 0.0000 18.9364 0.0000
# 6 0.0124 -0.0124 0.0000 0.0000 0.0000 33.4519
#
#
#
# Elastic Compliance Matrix: (Units=1/GPa)
#
#
# Indices 1 2 3 4 5 6 
#
# 1 -0.000149 0.010359 -0.003586 0.000000 0.000000 0.000004
# 2 0.010359 -0.000149 -0.003586 0.000000 0.000000 -0.000004
# 3 -0.003586 -0.003586 0.010369 0.000000 0.000000 0.000000
# 4 0.000000 0.000000 0.000000 0.052808 0.000000 0.000000
# 5 0.000000 0.000000 0.000000 0.000000 0.052808 0.000000
# 6 0.000004 -0.000004 0.000000 0.000000 0.000000 0.029894
#
#
# Mechanical properties :
#
#
# Convention : Reuss Voigt Hill
#
# Bulk Modulus (GPa) = 60.81159 62.79174 61.80166
# Shear Modulus (GPa) = 34.55692 11.58779 23.07236
#
# Velocity S-wave (km/s) = 4.47326 2.59034 3.65513
# Velocity P-wave (km/s) = 7.86721 6.73097 7.32116
#
# Compressibility (1/GPa) = 0.01644423
#
# Stress axis : x y z
#
# Youngs Moduli (GPa) = -6705.77832 -6705.77832 96.44289
#
# Poissons Ratio (x) = 69.46397 0.34584
# Poissons Ratio (y) = 69.46397 0.34584
# Poissons Ratio (z) = -24.04691 -24.04691
#
# Static dielectric constant tensor:
#      x y z
#    x 3.161400 0.000000 0.000000 
#    y 0.000000 3.161400 0.000000 
#    z 0.000000 0.000000 3.411950 
# 
# 
# High freq. dielectric constant tensor:
#      x y z
#    x 1.649160 0.000000 0.000000 
#    y 0.000000 1.649160 0.000000 
#    z 0.000000 0.000000 1.677230 
# 
# From -- ./inp_files/2686.got.cif
#   From: 2010.03.12/outbox.cif.g09.slc.cpg/sg107_2_cif.got.tgz:2686.got - 2010.04.14 01:49:11.
