data_PCOD8307947
_publ_section_title
;
Structure prediction by ZEFSAII (Michael W. Deem and Ramdas Pophale) SiO2 
 PCOD8307947
Probable space group: I 41 M D
;
_chemical_formula_sum "Si O2"
_cell_formula_units_Z 48
_cell_length_a 7.877886
_cell_length_b 7.877886
_cell_length_c 37.599276
_cell_angle_alpha 90.000000
_cell_angle_beta 90.000000
_cell_angle_gamma 90.000000
_cell_volume 2333.451970
_symmetry_space_group_name_H-M "I 41 M D"
_symmetry_group_IT_number 109
_symmetry_cell_setting 'tetragonal'
loop_
_space_group_symop_operation_xyz
x,y,z
-y,1/2+x,1/4+z
-x,-y,z
y,1/2-x,1/4+z
-x,y,z
x,-y,z
-y,1/2-x,1/4+z
y,1/2+x,1/4+z
1/2+x,1/2+y,1/2+z
1/2-y,x,3/4+z
1/2-x,1/2-y,1/2+z
1/2+y,-x,3/4+z
1/2-x,1/2+y,1/2+z
1/2+x,1/2-y,1/2+z
1/2-y,-x,3/4+z
1/2+y,x,3/4+z
loop_
_atom_site_type_symbol
_atom_site_label
_atom_site_fract_x
_atom_site_fract_y
_atom_site_fract_z
Si Si1 0.807883 0.696975 0.243510
Si Si2 0.500000 0.808605 0.370074
Si Si3 0.688426 0.198972 0.917045
Si Si4 0.799005 0.000000 0.541932
O O1 0.810257 0.500000 0.234261
O O2 0.744028 0.791283 0.207922
O O3 0.673481 0.733670 0.274238
O O4 0.000000 0.755846 0.254569
O O5 0.329905 0.777671 0.392037
O O6 0.500000 0.716239 0.331665
O O7 0.500000 0.000000 0.358453
O O8 0.500000 0.254766 0.904174
O O9 0.713411 0.000000 0.914716
O O10 0.000000 0.000000 0.540195
#
# Coordination Sequence:
#
# PCOD8307947 Si02
#       4
#    16   8  16   8
#     4  10  21  39  64  93 122 159 213 267 316 381
#     4  11  25  41  59  89 129 167 211 263 320 386
#     4  10  21  39  64  90 120 161 209 263 317 377
#     4  11  25  41  59  89 129 171 209 260 327 385
#
# _framework density 20.570384000000001
#
# number of rings (size 3 to 8) (size 9 to 14) (size 15 to 20)
#    0.000    1.667    1.667    2.000    2.333    6.667 
#    0.000    6.667    0.000    0.000    0.000    0.000 
#    0.000    0.000    0.000    0.000    0.000    0.000 
#
# Total GULP energy -297505.383845 kJ/mol
# GULP energy per Si atom -12396.057660 kJ/mol
# Density = 2.052357 g / cm^3
# Si number density = 20.570384 Si / 1000 Ang^3
#
#
#
# Elastic Constant Matrix: (Units=GPa)
#
#
# Indices 1 2 3 4 5 6 
#
# 1 104.1573 30.5881 55.5461 -0.0001 0.0000 0.0000
# 2 30.5881 104.1573 55.5461 -0.0001 -0.0002 0.0000
# 3 55.5461 55.5461 137.8475 0.0000 -0.0001 0.0000
# 4 -0.0001 -0.0001 0.0000 210.1077 -0.0011 0.0000
# 5 0.0000 -0.0002 -0.0001 -0.0011 210.1063 0.0000
# 6 0.0000 0.0000 0.0000 0.0000 0.0000 20.7698
#
#
#
# Elastic Compliance Matrix: (Units=1/GPa)
#
#
# Indices 1 2 3 4 5 6 
#
# 1 0.012353 -0.001240 -0.004478 0.000000 0.000000 0.000000
# 2 -0.001240 0.012353 -0.004478 0.000000 0.000000 0.000000
# 3 -0.004478 -0.004478 0.010863 0.000000 0.000000 0.000000
# 4 0.000000 0.000000 0.000000 0.004759 0.000000 0.000000
# 5 0.000000 0.000000 0.000000 0.000000 0.004759 0.000000
# 6 0.000000 0.000000 0.000000 0.000000 0.000000 0.048147
#
#
# Mechanical properties :
#
#
# Convention : Reuss Voigt Hill
#
# Bulk Modulus (GPa) = 65.88676 69.94697 67.91686
# Shear Modulus (GPa) = 42.12773 101.82888 71.97830
#
# Velocity S-wave (km/s) = 4.53037 7.04345 5.92176
# Velocity P-wave (km/s) = 7.71136 10.01121 8.93559
#
# Compressibility (1/GPa) = 0.01517756
#
# Stress axis : x y z
#
# Youngs Moduli (GPa) = 80.95146 80.95145 92.05193
#
# Poissons Ratio (x) = 0.10034 0.41223
# Poissons Ratio (y) = 0.10034 0.41223
# Poissons Ratio (z) = 0.36252 0.36252
#
# Static dielectric constant tensor:
#      x y z
#    x 2.191630 0.000010 0.000000 
#    y 0.000010 2.191610 0.000000 
#    z 0.000000 0.000000 3.800710 
# 
# 
# High freq. dielectric constant tensor:
#      x y z
#    x 1.812660 0.000000 0.000000 
#    y 0.000000 1.812660 0.000000 
#    z 0.000000 0.000000 1.797750 
# 
# From -- ./inp_files/5250.got.cif
#   From: 2010.03.12/outbox.cif.g09.slc.cpg/sg109_3_cif.got.tgz:5250.got - 2010.04.14 01:55:16.
