data_PCOD8307224
_publ_section_title
;
Structure prediction by ZEFSAII (Michael W. Deem and Ramdas Pophale) SiO2 
 PCOD8307224
Probable space group: P 42 M C
;
_chemical_formula_sum "Si O2"
_cell_formula_units_Z 56
_cell_length_a 13.003718
_cell_length_b 13.003718
_cell_length_c 17.334925
_cell_angle_alpha 90.000000
_cell_angle_beta 90.000000
_cell_angle_gamma 90.000000
_cell_volume 2931.278297
_symmetry_space_group_name_H-M "P 42 M C"
_symmetry_group_IT_number 105
_symmetry_cell_setting 'tetragonal'
loop_
_space_group_symop_operation_xyz
x,y,z
-y,x,1/2+z
-x,-y,z
y,-x,1/2+z
-x,y,z
x,-y,z
-y,-x,1/2+z
y,x,1/2+z
loop_
_atom_site_type_symbol
_atom_site_label
_atom_site_fract_x
_atom_site_fract_y
_atom_site_fract_z
Si Si1 0.387144 0.877722 0.341240
Si Si2 0.616605 0.265202 0.044533
Si Si3 0.302996 0.881066 0.922719
Si Si4 0.197004 0.618934 0.092023
Si Si5 0.382768 0.882768 0.757371
Si Si6 0.887144 0.377722 0.673502
Si Si7 0.234798 0.883395 0.470209
O O1 0.500000 0.829737 0.356445
O O2 0.344608 0.844609 0.257371
O O3 0.311032 0.836842 0.405723
O O4 0.394989 0.000000 0.344581
O O5 0.500000 0.300553 0.058769
O O6 0.688898 0.364974 0.055126
O O7 0.663158 0.188968 0.109019
O O8 0.623038 0.202247 0.964445
O O9 0.309471 0.858465 0.830767
O O10 0.188898 0.864974 0.959616
O O11 0.336210 0.000000 0.938588
O O12 0.163790 0.500000 0.076154
O O13 0.190529 0.641535 0.183975
O O14 0.123038 0.702247 0.050297
O O15 0.500000 0.866126 0.785174
O O16 0.366126 0.000000 0.729568
O O17 0.894989 0.500000 0.670161
O O18 0.000000 0.329737 0.658297
O O19 0.199447 0.000000 0.455973
#
# Coordination Sequence:
#
# PCOD8307224 Si02
#       7
#     8   8   8   8   8   8   8
#     4   8  14  25  43  69  98 127 161 203 251 300
#     4  10  20  33  52  77 104 136 174 218 266 313
#     4  10  21  35  53  78 106 139 179 220 262 310
#     4  10  21  35  53  78 106 139 179 220 262 310
#     4   9  18  34  56  78 102 135 176 220 258 301
#     4   8  14  25  43  69  98 127 161 203 251 300
#     4  10  20  33  52  77 104 136 174 218 266 313
#
# _framework density 19.104293999999999
#
# number of rings (size 3 to 8) (size 9 to 14) (size 15 to 20)
#    0.000    2.714    0.000    2.571    2.000    3.429 
#    0.000    0.000    0.000    0.000    0.000    4.000 
#    0.000    0.000    0.000    0.000    0.000    0.000 
#
# Total GULP energy -693856.000821 kJ/mol
# GULP energy per Si atom -12390.285729 kJ/mol
# Density = 1.906081 g / cm^3
# Si number density = 19.104294 Si / 1000 Ang^3
#
#
#
# Elastic Constant Matrix: (Units=GPa)
#
#
# Indices 1 2 3 4 5 6 
#
# 1 60.4344 11.2737 20.0854 0.0000 0.0000 0.0000
# 2 11.2737 60.4344 20.0854 0.0000 0.0000 0.0000
# 3 20.0854 20.0854 98.9125 0.0000 0.0000 0.0000
# 4 0.0000 0.0000 0.0000 23.9261 0.0000 0.0000
# 5 0.0000 0.0000 0.0000 0.0000 23.9261 0.0000
# 6 0.0000 0.0000 0.0000 0.0000 0.0000 16.5830
#
#
#
# Elastic Compliance Matrix: (Units=1/GPa)
#
#
# Indices 1 2 3 4 5 6 
#
# 1 0.018038 -0.002303 -0.003195 0.000000 0.000000 0.000000
# 2 -0.002303 0.018038 -0.003195 0.000000 0.000000 0.000000
# 3 -0.003195 -0.003195 0.011408 0.000000 0.000000 0.000000
# 4 0.000000 0.000000 0.000000 0.041795 0.000000 0.000000
# 5 0.000000 0.000000 0.000000 0.000000 0.041795 0.000000
# 6 0.000000 0.000000 0.000000 0.000000 0.000000 0.060303
#
#
# Mechanical properties :
#
#
# Convention : Reuss Voigt Hill
#
# Bulk Modulus (GPa) = 33.22548 35.85224 34.53886
# Shear Modulus (GPa) = 22.85220 24.10951 23.48085
#
# Velocity S-wave (km/s) = 3.46234 3.55631 3.50964
# Velocity P-wave (km/s) = 5.78041 5.97247 5.87722
#
# Compressibility (1/GPa) = 0.03009739
#
# Stress axis : x y z
#
# Youngs Moduli (GPa) = 55.43717 55.43717 87.66072
#
# Poissons Ratio (x) = 0.12767 0.28010
# Poissons Ratio (y) = 0.12767 0.28010
# Poissons Ratio (z) = 0.17714 0.17714
#
# Static dielectric constant tensor:
#      x y z
#    x 3.367970 0.000000 0.000000 
#    y 0.000000 3.367970 0.000000 
#    z 0.000000 0.000000 3.766500 
# 
# 
# High freq. dielectric constant tensor:
#      x y z
#    x 1.716820 0.000000 0.000000 
#    y 0.000000 1.716820 0.000000 
#    z 0.000000 0.000000 1.755760 
# 
# From -- ./inp_files/3149.got.cif
#   From: 2010.03.12/outbox.cif.g09.slc.cpg/sg105_2_cif.got.tgz:3149.got - 2010.04.14 01:45:32.
