data_PCOD8307694
_publ_section_title
;
Structure prediction by ZEFSAII (Michael W. Deem and Ramdas Pophale) SiO2 
 PCOD8307694
Probable space group: I 4 M M
;
_chemical_formula_sum "Si O2"
_cell_formula_units_Z 128
_cell_length_a 20.889234
_cell_length_b 20.889234
_cell_length_c 20.749468
_cell_angle_alpha 90.000000
_cell_angle_beta 90.000000
_cell_angle_gamma 90.000000
_cell_volume 9054.239871
_symmetry_space_group_name_H-M "I 4 M M"
_symmetry_group_IT_number 107
_symmetry_cell_setting 'tetragonal'
loop_
_space_group_symop_operation_xyz
x,y,z
-y,x,z
-x,-y,z
y,-x,z
-x,y,z
x,-y,z
-y,-x,z
y,x,z
1/2+x,1/2+y,1/2+z
1/2-y,1/2+x,1/2+z
1/2-x,1/2-y,1/2+z
1/2+y,1/2-x,1/2+z
1/2-x,1/2+y,1/2+z
1/2+x,1/2-y,1/2+z
1/2-y,1/2-x,1/2+z
1/2+y,1/2+x,1/2+z
loop_
_atom_site_type_symbol
_atom_site_label
_atom_site_fract_x
_atom_site_fract_y
_atom_site_fract_z
Si Si1 0.175185 0.927459 0.557100
Si Si2 0.324814 0.427459 0.809573
Si Si3 0.834743 0.272946 0.504868
Si Si4 0.223506 0.331234 0.244520
Si Si5 0.223506 0.668767 0.622151
Si Si6 0.927176 0.824447 0.157629
Si Si7 0.272947 0.834743 0.361804
Si Si8 0.072825 0.824448 0.709044
O O1 0.113075 0.886925 0.535783
O O2 0.239079 0.901621 0.522712
O O3 0.186132 0.921868 0.633054
O O4 0.163340 0.000000 0.535023
O O5 0.336660 0.500000 0.831652
O O6 0.386925 0.386925 0.830887
O O7 0.313864 0.421871 0.733620
O O8 0.260922 0.401621 0.843962
O O9 0.780293 0.219708 0.507770
O O10 0.817836 0.328460 0.556268
O O11 0.839571 0.303270 0.433336
O O12 0.274363 0.274363 0.242023
O O13 0.176128 0.323872 0.183336
O O14 0.182163 0.328460 0.310403
O O15 0.260944 0.398605 0.242632
O O16 0.274359 0.725642 0.624651
O O17 0.260947 0.601398 0.624038
O O18 0.887642 0.887642 0.136911
O O19 0.000000 0.833875 0.134643
O O20 0.219709 0.780292 0.358900
O O21 0.112360 0.887641 0.729767
O O22 0.000000 0.833877 0.732029
#
# Coordination Sequence:
#
# PCOD8307694 Si02
#       8
#    16  16  16  16  16  16  16  16
#     4   9  16  25  36  53  80 113 145 172 196 226
#     4   9  16  25  36  53  80 113 145 172 196 226
#     4   9  16  25  38  56  76  99 130 170 211 243
#     4   9  14  24  41  57  75 101 132 167 206 243
#     4   9  14  24  41  57  75 101 132 167 206 243
#     4   9  16  25  39  59  83 111 140 167 196 234
#     4   9  16  25  38  56  76  99 130 170 211 243
#     4   9  16  25  39  59  83 111 140 167 196 234
#
# _framework density 14.137022999999999
#
# number of rings (size 3 to 8) (size 9 to 14) (size 15 to 20)
#    0.000    3.000    2.500    0.000    0.000    1.000 
#    0.000    2.500    0.000    0.750    0.000    3.500 
#    0.000    3.500    0.000   12.000    0.000    0.500 
#
# Total GULP energy -793300.717801 kJ/mol
# GULP energy per Si atom -12395.323716 kJ/mol
# Density = 1.410485 g / cm^3
# Si number density = 14.137023 Si / 1000 Ang^3
#
#
#
# Elastic Constant Matrix: (Units=GPa)
#
#
# Indices 1 2 3 4 5 6 
#
# 1 61.4521 58.0007 38.4913 0.0000 0.0000 0.0003
# 2 58.0007 61.4521 38.4913 0.0000 0.0000 -0.0003
# 3 38.4913 38.4913 72.5823 0.0000 0.0000 0.0000
# 4 0.0000 0.0000 0.0000 12.3857 0.0000 0.0000
# 5 0.0000 0.0000 0.0000 0.0000 12.3857 0.0000
# 6 0.0003 -0.0003 0.0000 0.0000 0.0000 15.3348
#
#
#
# Elastic Compliance Matrix: (Units=1/GPa)
#
#
# Indices 1 2 3 4 5 6 
#
# 1 0.151228 -0.138510 -0.006745 0.000000 0.000000 -0.000005
# 2 -0.138510 0.151228 -0.006745 0.000000 0.000000 0.000005
# 3 -0.006745 -0.006745 0.020931 0.000000 0.000000 0.000000
# 4 0.000000 0.000000 0.000000 0.080738 0.000000 0.000000
# 5 0.000000 0.000000 0.000000 0.000000 0.080738 0.000000
# 6 -0.000005 0.000005 0.000000 0.000000 0.000000 0.065211
#
#
# Mechanical properties :
#
#
# Convention : Reuss Voigt Hill
#
# Bulk Modulus (GPa) = 51.57601 51.71701 51.64651
# Shear Modulus (GPa) = 5.81034 12.05477 8.93255
#
# Velocity S-wave (km/s) = 2.02952 2.92329 2.51640
# Velocity P-wave (km/s) = 6.48491 6.93226 6.71231
#
# Compressibility (1/GPa) = 0.01938886
#
# Stress axis : x y z
#
# Youngs Moduli (GPa) = 6.61254 6.61254 47.77611
#
# Poissons Ratio (x) = 0.91590 0.32223
# Poissons Ratio (y) = 0.91590 0.32223
# Poissons Ratio (z) = 0.04460 0.04460
#
# Static dielectric constant tensor:
#      x y z
#    x 2.645340 0.000000 0.000000 
#    y 0.000000 2.645340 0.000000 
#    z 0.000000 0.000000 2.855190 
# 
# 
# High freq. dielectric constant tensor:
#      x y z
#    x 1.511620 0.000000 0.000000 
#    y 0.000000 1.511620 0.000000 
#    z 0.000000 0.000000 1.528960 
# 
# From -- ./inp_files/5521.got.cif
#   From: 2010.03.12/outbox.cif.g09.slc.cpg/sg107_3_cif.got.tgz:5521.got - 2010.04.14 01:49:11.
