data_PCOD8307382
_publ_section_title
;
Structure prediction by ZEFSAII (Michael W. Deem and Ramdas Pophale) SiO2 
 PCOD8307382
Probable space group: P 42 M C
;
_chemical_formula_sum "Si O2"
_cell_formula_units_Z 40
_cell_length_a 9.500213
_cell_length_b 9.500213
_cell_length_c 25.885139
_cell_angle_alpha 90.000000
_cell_angle_beta 90.000000
_cell_angle_gamma 90.000000
_cell_volume 2336.238553
_symmetry_space_group_name_H-M "P 42 M C"
_symmetry_group_IT_number 105
_symmetry_cell_setting 'tetragonal'
loop_
_space_group_symop_operation_xyz
x,y,z
-y,x,1/2+z
-x,-y,z
y,-x,1/2+z
-x,y,z
x,-y,z
-y,-x,1/2+z
y,x,1/2+z
loop_
_atom_site_type_symbol
_atom_site_label
_atom_site_fract_x
_atom_site_fract_y
_atom_site_fract_z
Si Si1 0.837033 0.336086 0.174470
Si Si2 0.656362 0.167444 0.369205
Si Si3 0.842469 0.667842 0.982574
Si Si4 0.658876 0.667544 0.076636
Si Si5 0.162968 0.836560 0.773934
O O1 0.811467 0.500000 0.185629
O O2 0.743717 0.281208 0.126882
O O3 0.786470 0.250212 0.224363
O O4 0.000000 0.306128 0.161261
O O5 0.500000 0.228741 0.359629
O O6 0.714054 0.213781 0.425765
O O7 0.756945 0.224252 0.324049
O O8 0.651276 0.000000 0.368640
O O9 0.848085 0.500000 0.984617
O O10 0.000000 0.726974 0.993031
O O11 0.736777 0.728347 0.025831
O O12 0.500000 0.727064 0.078545
O O13 0.658077 0.500000 0.074595
O O14 0.000000 0.799967 0.764009
O O15 0.185889 0.000000 0.784707
#
# Coordination Sequence:
#
# PCOD8307382 Si02
#       5
#     8   8   8   8   8
#     4   9  17  29  44  61  82 110 142 172 205 248
#     4   8  14  25  42  63  84 107 137 170 204 246
#     4   8  13  23  40  59  78 104 139 173 203 242
#     4   9  16  25  39  61  87 111 137 173 212 245
#     4   9  17  29  45  64  85 109 139 175 210 243
#
# _framework density 17.12154
#
# number of rings (size 3 to 8) (size 9 to 14) (size 15 to 20)
#    0.000    3.400    0.000    1.800    0.000    3.200 
#    0.000    1.000    0.000    2.400    0.000    5.600 
#    0.000    0.000    0.000    0.000    0.000    0.000 
#
# Total GULP energy -495807.525088 kJ/mol
# GULP energy per Si atom -12395.188127 kJ/mol
# Density = 1.708257 g / cm^3
# Si number density = 17.121540 Si / 1000 Ang^3
#
#
#
# Elastic Constant Matrix: (Units=GPa)
#
#
# Indices 1 2 3 4 5 6 
#
# 1 55.5996 24.7324 65.4983 0.0000 0.0000 0.0000
# 2 24.7324 55.5996 65.4983 0.0000 0.0000 0.0000
# 3 65.4983 65.4983 197.8661 0.0000 0.0000 0.0000
# 4 0.0000 0.0000 0.0000 28.2226 0.0000 0.0000
# 5 0.0000 0.0000 0.0000 0.0000 28.2226 0.0000
# 6 0.0000 0.0000 0.0000 0.0000 0.0000 10.4503
#
#
#
# Elastic Compliance Matrix: (Units=1/GPa)
#
#
# Indices 1 2 3 4 5 6 
#
# 1 0.029723 -0.002674 -0.008954 0.000000 0.000000 0.000000
# 2 -0.002674 0.029723 -0.008954 0.000000 0.000000 0.000000
# 3 -0.008954 -0.008954 0.010982 0.000000 0.000000 0.000000
# 4 0.000000 0.000000 0.000000 0.035433 0.000000 0.000000
# 5 0.000000 0.000000 0.000000 0.000000 0.035433 0.000000
# 6 0.000000 0.000000 0.000000 0.000000 0.000000 0.095691
#
#
# Mechanical properties :
#
#
# Convention : Reuss Voigt Hill
#
# Bulk Modulus (GPa) = 34.17059 68.94702 51.55881
# Shear Modulus (GPa) = 17.36698 23.60152 20.48425
#
# Velocity S-wave (km/s) = 3.18832 3.71680 3.46266
# Velocity P-wave (km/s) = 5.79265 7.66656 6.79452
#
# Compressibility (1/GPa) = 0.02926493
#
# Stress axis : x y z
#
# Youngs Moduli (GPa) = 33.64376 33.64376 91.05880
#
# Poissons Ratio (x) = 0.08995 0.81534
# Poissons Ratio (y) = 0.08995 0.81534
# Poissons Ratio (z) = 0.30125 0.30125
#
# Static dielectric constant tensor:
#      x y z
#    x 2.992690 0.000000 0.000000 
#    y 0.000000 2.992690 0.000000 
#    z 0.000000 0.000000 3.567870 
# 
# 
# High freq. dielectric constant tensor:
#      x y z
#    x 1.624190 0.000000 0.000000 
#    y 0.000000 1.624190 0.000000 
#    z 0.000000 0.000000 1.677430 
# 
# From -- ./inp_files/3921.got.cif
#   From: 2010.03.12/outbox.cif.g09.slc.cpg/sg105_2_cif.got.tgz:3921.got - 2010.04.14 01:45:32.
