data_PCOD8307526
_publ_section_title
;
Structure prediction by ZEFSAII (Michael W. Deem and Ramdas Pophale) SiO2 
 PCOD8307526
Probable space group: I 4 M M
;
_chemical_formula_sum "Si O2"
_cell_formula_units_Z 112
_cell_length_a 13.973905
_cell_length_b 13.973905
_cell_length_c 35.662684
_cell_angle_alpha 90.000000
_cell_angle_beta 90.000000
_cell_angle_gamma 90.000000
_cell_volume 6963.853052
_symmetry_space_group_name_H-M "I 4 M M"
_symmetry_group_IT_number 107
_symmetry_cell_setting 'tetragonal'
loop_
_space_group_symop_operation_xyz
x,y,z
-y,x,z
-x,-y,z
y,-x,z
-x,y,z
x,-y,z
-y,-x,z
y,x,z
1/2+x,1/2+y,1/2+z
1/2-y,1/2+x,1/2+z
1/2-x,1/2-y,1/2+z
1/2+y,1/2-x,1/2+z
1/2-x,1/2+y,1/2+z
1/2+x,1/2-y,1/2+z
1/2-y,1/2-x,1/2+z
1/2+y,1/2+x,1/2+z
loop_
_atom_site_type_symbol
_atom_site_label
_atom_site_fract_x
_atom_site_fract_y
_atom_site_fract_z
Si Si1 0.885888 0.606400 0.820020
Si Si2 0.386113 0.105485 0.737848
Si Si3 0.108802 0.739889 0.173571
Si Si4 0.734467 0.112061 0.888100
Si Si5 0.888886 0.267595 0.088587
Si Si6 0.387467 0.230269 0.032761
Si Si7 0.390072 0.108728 0.959926
O O1 0.845324 0.500000 0.828353
O O2 0.851709 0.642136 0.778751
O O3 0.848403 0.678108 0.851797
O O4 0.000000 0.601899 0.820347
O O5 0.500000 0.099150 0.735175
O O6 0.344025 0.168398 0.703864
O O7 0.341480 0.000000 0.733030
O O8 0.157982 0.842019 0.176665
O O9 0.120297 0.698144 0.131682
O O10 0.000000 0.758969 0.184119
O O11 0.836048 0.163953 0.890713
O O12 0.672904 0.137803 0.924487
O O13 0.755163 0.000000 0.885005
O O14 0.831715 0.168286 0.081340
O O15 0.843174 0.353149 0.064685
O O16 0.000000 0.251015 0.077592
O O17 0.500000 0.250993 0.038043
O O18 0.330459 0.330459 0.035196
O O19 0.364886 0.180716 0.993232
O O20 0.500000 0.118303 0.947635
O O21 0.367959 0.000000 0.972929
#
# Coordination Sequence:
#
# PCOD8307526 Si02
#       7
#    16  16  16  16  16  16  16
#     4   8  14  26  43  61  81 105 137 180 223 255
#     4   8  14  25  41  61  84 108 136 175 220 258
#     4   9  17  28  42  62  88 116 144 173 207 251
#     4  10  19  29  42  61  86 115 144 173 207 250
#     4   9  18  31  46  66  91 118 150 186 222 262
#     4  10  20  33  49  69  93 119 147 180 217 259
#     4   9  17  30  49  70  88 108 138 177 219 257
#
# _framework density 16.08305
#
# number of rings (size 3 to 8) (size 9 to 14) (size 15 to 20)
#    0.000    3.000    0.000    2.143    0.000    4.286 
#    0.000    2.857    0.000    0.000    0.000    2.000 
#    0.000    2.857    0.000    0.857    0.000    0.143 
#
# Total GULP energy -694152.511113 kJ/mol
# GULP energy per Si atom -12395.580556 kJ/mol
# Density = 1.604644 g / cm^3
# Si number density = 16.083050 Si / 1000 Ang^3
#
#
#
# Elastic Constant Matrix: (Units=GPa)
#
#
# Indices 1 2 3 4 5 6 
#
# 1 76.8281 44.7102 54.7008 0.0000 0.0000 0.0000
# 2 44.7102 76.8281 54.7008 0.0000 0.0000 0.0000
# 3 54.7008 54.7008 115.7735 0.0000 0.0000 0.0000
# 4 0.0000 0.0000 0.0000 20.7511 0.0000 0.0000
# 5 0.0000 0.0000 0.0000 0.0000 20.7511 0.0000
# 6 0.0000 0.0000 0.0000 0.0000 0.0000 18.8911
#
#
#
# Elastic Compliance Matrix: (Units=1/GPa)
#
#
# Indices 1 2 3 4 5 6 
#
# 1 0.022726 -0.008409 -0.006764 0.000000 0.000000 0.000000
# 2 -0.008409 0.022726 -0.006764 0.000000 0.000000 0.000000
# 3 -0.006764 -0.006764 0.015030 0.000000 0.000000 0.000000
# 4 0.000000 0.000000 0.000000 0.048190 0.000000 0.000000
# 5 0.000000 0.000000 0.000000 0.000000 0.048190 0.000000
# 6 0.000000 0.000000 0.000000 0.000000 0.000000 0.052935
#
#
# Mechanical properties :
#
#
# Convention : Reuss Voigt Hill
#
# Bulk Modulus (GPa) = 60.22064 64.18368 62.20216
# Shear Modulus (GPa) = 19.28949 19.76652 19.52800
#
# Velocity S-wave (km/s) = 3.46695 3.50955 3.48831
# Velocity P-wave (km/s) = 7.31786 7.51112 7.41512
#
# Compressibility (1/GPa) = 0.01660560
#
# Stress axis : x y z
#
# Youngs Moduli (GPa) = 44.00238 44.00238 66.53507
#
# Poissons Ratio (x) = 0.37003 0.45007
# Poissons Ratio (y) = 0.37003 0.45007
# Poissons Ratio (z) = 0.29765 0.29765
#
# Static dielectric constant tensor:
#      x y z
#    x 2.893930 0.000000 0.000000 
#    y 0.000000 2.893930 0.000000 
#    z 0.000000 0.000000 3.325160 
# 
# 
# High freq. dielectric constant tensor:
#      x y z
#    x 1.596720 0.000000 0.000000 
#    y 0.000000 1.596720 0.000000 
#    z 0.000000 0.000000 1.634340 
# 
# From -- ./inp_files/6159.got.cif
#   From: 2010.03.12/outbox.cif.g09.slc.cpg/sg107_4_cif.got.tgz:6159.got - 2010.04.14 01:49:11.
