data_PCOD8307369
_publ_section_title
;
Structure prediction by ZEFSAII (Michael W. Deem and Ramdas Pophale) SiO2 
 PCOD8307369
Probable space group: P 42 M C
;
_chemical_formula_sum "Si O2"
_cell_formula_units_Z 48
_cell_length_a 9.319539
_cell_length_b 9.319539
_cell_length_c 30.874071
_cell_angle_alpha 90.000000
_cell_angle_beta 90.000000
_cell_angle_gamma 90.000000
_cell_volume 2681.530609
_symmetry_space_group_name_H-M "P 42 M C"
_symmetry_group_IT_number 105
_symmetry_cell_setting 'tetragonal'
loop_
_space_group_symop_operation_xyz
x,y,z
-y,x,1/2+z
-x,-y,z
y,-x,1/2+z
-x,y,z
x,-y,z
-y,-x,1/2+z
y,x,1/2+z
loop_
_atom_site_type_symbol
_atom_site_label
_atom_site_fract_x
_atom_site_fract_y
_atom_site_fract_z
Si Si1 0.334339 0.331280 0.508390
Si Si2 0.658429 0.330026 0.751818
Si Si3 0.168073 0.831927 0.581556
Si Si4 0.658429 0.330026 0.911295
Si Si5 0.160163 0.328457 0.831556
Si Si6 0.668720 0.334339 0.654723
O O1 0.500000 0.292209 0.517803
O O2 0.309931 0.500000 0.516107
O O3 0.232570 0.240843 0.539099
O O4 0.290381 0.287629 0.459430
O O5 0.500000 0.265364 0.759782
O O6 0.649659 0.500000 0.755802
O O7 0.763492 0.267174 0.788432
O O8 0.712371 0.290381 0.703683
O O9 0.240843 0.767430 0.624014
O O10 0.000000 0.799105 0.583305
O O11 0.200895 0.000000 0.579808
O O12 0.500000 0.265364 0.903331
O O13 0.649659 0.500000 0.907311
O O14 0.763492 0.267174 0.874681
O O15 0.161815 0.500000 0.831556
O O16 0.000000 0.267620 0.831556
O O17 0.500000 0.309931 0.647006
O O18 0.707791 0.500000 0.645310
#
# Coordination Sequence:
#
# PCOD8307369 Si02
#       6
#     8   8   8   8   8   8
#     4   9  18  33  53  75  96 122 161 204 243 287
#     4   8  14  25  41  62  90 122 153 189 235 282
#     4  11  24  37  48  68  98 129 160 195 240 294
#     4   8  14  25  41  62  90 122 153 189 235 282
#     4   9  15  21  33  59  94 127 158 191 228 274
#     4   9  18  33  53  75  96 122 161 204 243 287
#
# _framework density 17.900224000000001
#
# number of rings (size 3 to 8) (size 9 to 14) (size 15 to 20)
#    0.000    3.000    0.000    3.500    0.000    7.333 
#    0.000    3.333    0.000    0.000    0.000    1.167 
#    0.000    9.333    0.000    0.000    0.000    0.000 
#
# Total GULP energy -594998.824645 kJ/mol
# GULP energy per Si atom -12395.808847 kJ/mol
# Density = 1.785948 g / cm^3
# Si number density = 17.900224 Si / 1000 Ang^3
#
#
#
# Elastic Constant Matrix: (Units=GPa)
#
#
# Indices 1 2 3 4 5 6 
#
# 1 77.5693 45.5115 71.8755 0.0000 0.0000 0.0000
# 2 45.5115 77.5693 71.8755 0.0000 0.0000 0.0000
# 3 71.8755 71.8755 178.4958 0.0000 0.0000 0.0000
# 4 0.0000 0.0000 0.0000 0.7364 0.0000 0.0000
# 5 0.0000 0.0000 0.0000 0.0000 0.7364 0.0000
# 6 0.0000 0.0000 0.0000 0.0000 0.0000 19.3366
#
#
#
# Elastic Compliance Matrix: (Units=1/GPa)
#
#
# Indices 1 2 3 4 5 6 
#
# 1 0.023266 -0.007928 -0.006176 0.000000 0.000000 0.000000
# 2 -0.007928 0.023266 -0.006176 0.000000 0.000000 0.000000
# 3 -0.006176 -0.006176 0.010576 0.000000 0.000000 0.000000
# 4 0.000000 0.000000 0.000000 1.358044 0.000000 0.000000
# 5 0.000000 0.000000 0.000000 0.000000 1.358044 0.000000
# 6 0.000000 0.000000 0.000000 0.000000 0.000000 0.051715
#
#
# Mechanical properties :
#
#
# Convention : Reuss Voigt Hill
#
# Bulk Modulus (GPa) = 60.43107 79.12880 69.77993
# Shear Modulus (GPa) = 1.74156 13.78666 7.76411
#
# Velocity S-wave (km/s) = 0.98744 2.77825 2.08491
# Velocity P-wave (km/s) = 5.92733 7.38871 6.69800
#
# Compressibility (1/GPa) = 0.01654778
#
# Stress axis : x y z
#
# Youngs Moduli (GPa) = 42.98122 42.98122 94.54962
#
# Poissons Ratio (x) = 0.34074 0.58397
# Poissons Ratio (y) = 0.34074 0.58397
# Poissons Ratio (z) = 0.26547 0.26547
#
# Static dielectric constant tensor:
#      x y z
#    x 3.095560 0.000000 0.000000 
#    y 0.000000 3.095560 0.000000 
#    z 0.000000 0.000000 3.618850 
# 
# 
# High freq. dielectric constant tensor:
#      x y z
#    x 1.660070 0.000000 0.000000 
#    y 0.000000 1.660070 0.000000 
#    z 0.000000 0.000000 1.713830 
# 
# From -- ./inp_files/4721.got.cif
#   From: 2010.03.12/outbox.cif.g09.slc.cpg/sg105_3_cif.got.tgz:4721.got - 2010.04.14 01:45:32.
