data_PCOD8307471
_publ_section_title
;
Structure prediction by ZEFSAII (Michael W. Deem and Ramdas Pophale) SiO2 
 PCOD8307471
Probable space group: P 42 B C
;
_chemical_formula_sum "Si O2"
_cell_formula_units_Z 56
_cell_length_a 14.758781
_cell_length_b 14.758781
_cell_length_c 10.644574
_cell_angle_alpha 90.000000
_cell_angle_beta 90.000000
_cell_angle_gamma 90.000000
_cell_volume 2318.618317
_symmetry_space_group_name_H-M "P 42 B C"
_symmetry_group_IT_number 106
_symmetry_cell_setting 'tetragonal'
loop_
_space_group_symop_operation_xyz
x,y,z
-y,x,1/2+z
-x,-y,z
y,-x,1/2+z
1/2-x,1/2+y,z
1/2+x,1/2-y,z
1/2-y,1/2-x,1/2+z
1/2+y,1/2+x,1/2+z
loop_
_atom_site_type_symbol
_atom_site_label
_atom_site_fract_x
_atom_site_fract_y
_atom_site_fract_z
Si Si1 0.406854 0.688187 0.900470
Si Si2 0.214790 0.091597 0.278036
Si Si3 0.964723 0.091308 0.577773
Si Si4 0.632409 0.771986 0.260988
Si Si5 0.396193 0.968949 0.820189
Si Si6 0.847548 0.629776 0.563689
Si Si7 0.665448 0.656766 0.040060
O O1 0.482139 0.721052 0.798850
O O2 0.303967 0.682399 0.847651
O O3 0.417552 0.756036 0.016965
O O4 0.435049 0.588501 0.950023
O O5 0.141323 0.105937 0.168938
O O6 0.306099 0.139565 0.230897
O O7 0.185446 0.146022 0.399696
O O8 0.049852 0.153555 0.548389
O O9 0.000000 0.000000 0.643705
O O10 0.545466 0.818047 0.324736
O O11 0.604127 0.719197 0.132933
O O12 0.382752 0.919563 0.952151
O O13 0.380794 0.908087 0.696797
O O14 0.500000 0.000000 0.813484
O O15 0.822442 0.733663 0.584299
#
# Coordination Sequence:
#
# PCOD8307471 Si02
#       7
#     8   8   8   8   8   8   8
#     4  12  25  50  74 114 152 199 259 323 395 470
#     4  12  27  46  77 107 155 197 254 314 390 471
#     4  12  28  44  74 110 152 194 248 315 393 472
#     4  12  27  52  77 111 154 205 264 327 391 481
#     4  12  29  51  80 113 158 215 272 330 406 484
#     4  12  27  49  79 111 155 204 267 329 397 477
#     4  12  26  48  76 114 149 202 255 323 401 467
#
# _framework density 24.152314000000001
#
# number of rings (size 3 to 8) (size 9 to 14) (size 15 to 20)
#    0.000    0.000    4.286    4.714    6.000    1.143 
#    0.000    0.000    0.000    0.000    0.000    0.000 
#    0.000    0.000    0.000    0.000    0.000    0.000 
#
# Total GULP energy -694181.539516 kJ/mol
# GULP energy per Si atom -12396.098920 kJ/mol
# Density = 2.409734 g / cm^3
# Si number density = 24.152314 Si / 1000 Ang^3
#
#
#
# Elastic Constant Matrix: (Units=GPa)
#
#
# Indices 1 2 3 4 5 6 
#
# 1 107.6149 22.9577 0.5977 0.0000 0.0000 0.0000
# 2 22.9577 107.6149 0.5977 0.0000 0.0000 0.0000
# 3 0.5977 0.5977 50.2729 0.0000 0.0000 0.0000
# 4 0.0000 0.0000 0.0000 16.4506 0.0000 0.0000
# 5 0.0000 0.0000 0.0000 0.0000 16.4506 0.0000
# 6 0.0000 0.0000 0.0000 0.0000 0.0000 40.2796
#
#
#
# Elastic Compliance Matrix: (Units=1/GPa)
#
#
# Indices 1 2 3 4 5 6 
#
# 1 0.009736 -0.002076 -0.000091 0.000000 0.000000 0.000000
# 2 -0.002076 0.009736 -0.000091 0.000000 0.000000 0.000000
# 3 -0.000091 -0.000091 0.019894 0.000000 0.000000 0.000000
# 4 0.000000 0.000000 0.000000 0.060788 0.000000 0.000000
# 5 0.000000 0.000000 0.000000 0.000000 0.060788 0.000000
# 6 0.000000 0.000000 0.000000 0.000000 0.000000 0.024826
#
#
# Mechanical properties :
#
#
# Convention : Reuss Voigt Hill
#
# Bulk Modulus (GPa) = 28.69594 34.86768 31.78181
# Shear Modulus (GPa) = 24.76462 30.72613 27.74538
#
# Velocity S-wave (km/s) = 3.20559 3.57064 3.39302
# Velocity P-wave (km/s) = 5.06044 5.60956 5.34206
#
# Compressibility (1/GPa) = 0.03484814
#
# Stress axis : x y z
#
# Youngs Moduli (GPa) = 102.71289 102.71289 50.26742
#
# Poissons Ratio (x) = 0.21328 0.00458
# Poissons Ratio (y) = 0.21328 0.00458
# Poissons Ratio (z) = 0.00935 0.00935
#
# Static dielectric constant tensor:
#      x y z
#    x 5.021620 0.000000 0.000000 
#    y 0.000000 5.021620 0.000000 
#    z 0.000000 0.000000 4.390590 
# 
# 
# High freq. dielectric constant tensor:
#      x y z
#    x 1.970230 0.000000 0.000000 
#    y 0.000000 1.970230 0.000000 
#    z 0.000000 0.000000 1.964300 
# 
# From -- ./inp_files/1001.got.cif
#   From: 2010.03.12/outbox.cif.g09.slc.cpg/sg106_cif.got.tgz:1001.got - 2010.04.14 01:48:02.
