data_PCOD8307722
_publ_section_title
;
Structure prediction by ZEFSAII (Michael W. Deem and Ramdas Pophale) SiO2 
 PCOD8307722
Probable space group: I 4 C M
;
_chemical_formula_sum "Si O2"
_cell_formula_units_Z 84
_cell_length_a 23.723015
_cell_length_b 23.723015
_cell_length_c 9.831906
_cell_angle_alpha 90.000000
_cell_angle_beta 90.000000
_cell_angle_gamma 90.000000
_cell_volume 5533.214223
_symmetry_space_group_name_H-M "I 4 C M"
_symmetry_group_IT_number 108
_symmetry_cell_setting 'tetragonal'
loop_
_space_group_symop_operation_xyz
x,y,z
-y,x,z
-x,-y,z
y,-x,z
-x,y,1/2+z
x,-y,1/2+z
-y,-x,1/2+z
y,x,1/2+z
1/2+x,1/2+y,1/2+z
1/2-y,1/2+x,1/2+z
1/2-x,1/2-y,1/2+z
1/2+y,1/2-x,1/2+z
1/2-x,1/2+y,z
1/2+x,1/2-y,z
1/2-y,1/2-x,z
1/2+y,1/2+x,z
loop_
_atom_site_type_symbol
_atom_site_label
_atom_site_fract_x
_atom_site_fract_y
_atom_site_fract_z
Si Si1 0.500000 0.000000 0.240590
Si Si2 0.292751 0.949244 0.149556
Si Si3 0.413080 0.913080 0.144231
Si Si4 0.168813 0.760416 0.645447
Si Si5 0.207250 0.449245 0.831618
Si Si6 0.086920 0.413080 0.836945
Si Si7 0.739585 0.668812 0.835721
O O1 0.539089 0.039089 0.147197
O O2 0.460912 0.039089 0.333983
O O3 0.354904 0.934684 0.210390
O O4 0.251588 0.896595 0.172141
O O5 0.268265 0.999999 0.240588
O O6 0.295340 0.966739 0.990588
O O7 0.397411 0.897411 0.990588
O O8 0.203888 0.703888 0.679683
O O9 0.179197 0.778995 0.490583
O O10 0.188229 0.811772 0.740582
O O11 0.145096 0.434685 0.770786
O O12 0.248412 0.396595 0.809030
O O13 0.796114 0.703887 0.801484
#
# Coordination Sequence:
#
# PCOD8307722 Si02
#       7
#     4  16   8  16  16   8  16
#     4  12  18  28  44  54  80 124 166 192 226 256
#     4  10  19  32  46  63  89 120 151 191 232 269
#     4  10  19  29  40  57  84 117 155 192 230 261
#     4   9  17  30  48  66  88 116 149 189 236 278
#     4  10  19  32  46  63  89 120 151 191 232 269
#     4  10  19  29  40  57  84 117 155 192 230 261
#     4   9  17  30  48  66  88 116 149 189 236 278
#
# _framework density 15.181050000000001
#
# number of rings (size 3 to 8) (size 9 to 14) (size 15 to 20)
#    0.000    2.286    3.810    0.286    0.000    1.524 
#    0.000    0.952    0.000    0.000    0.000    0.000 
#    0.000    0.762    0.000    8.381    0.000    6.095 
#
# Total GULP energy -520760.401667 kJ/mol
# GULP energy per Si atom -12399.057183 kJ/mol
# Density = 1.514650 g / cm^3
# Si number density = 15.181050 Si / 1000 Ang^3
#
#
#
# Elastic Constant Matrix: (Units=GPa)
#
#
# Indices 1 2 3 4 5 6 
#
# 1 75.1556 44.7661 47.4025 0.0000 0.0000 0.0002
# 2 44.7661 75.1556 47.4025 0.0000 0.0000 -0.0002
# 3 47.4025 47.4025 71.6383 0.0000 0.0000 0.0000
# 4 0.0000 0.0000 0.0000 25.4172 0.0000 0.0000
# 5 0.0000 0.0000 0.0000 0.0000 25.4172 0.0000
# 6 0.0002 -0.0002 0.0000 0.0000 0.0000 23.6407
#
#
#
# Elastic Compliance Matrix: (Units=1/GPa)
#
#
# Indices 1 2 3 4 5 6 
#
# 1 0.025196 -0.007710 -0.011570 0.000000 0.000000 0.000000
# 2 -0.007710 0.025196 -0.011570 0.000000 0.000000 0.000000
# 3 -0.011570 -0.011570 0.029271 0.000000 0.000000 0.000000
# 4 0.000000 0.000000 0.000000 0.039344 0.000000 0.000000
# 5 0.000000 0.000000 0.000000 0.000000 0.039344 0.000000
# 6 0.000000 0.000000 0.000000 0.000000 0.000000 0.042300
#
#
# Mechanical properties :
#
#
# Convention : Reuss Voigt Hill
#
# Bulk Modulus (GPa) = 55.67451 55.67685 55.67568
# Shear Modulus (GPa) = 18.63326 20.38690 19.51008
#
# Velocity S-wave (km/s) = 3.50723 3.66856 3.58880
# Velocity P-wave (km/s) = 7.29069 7.39590 7.34348
#
# Compressibility (1/GPa) = 0.01796154
#
# Stress axis : x y z
#
# Youngs Moduli (GPa) = 39.68905 39.68905 34.16391
#
# Poissons Ratio (x) = 0.30601 0.39528
# Poissons Ratio (y) = 0.30601 0.39528
# Poissons Ratio (z) = 0.45921 0.45921
#
# Static dielectric constant tensor:
#      x y z
#    x 2.758960 0.000000 0.000000 
#    y 0.000000 2.758960 0.000000 
#    z 0.000000 0.000000 2.808300 
# 
# 
# High freq. dielectric constant tensor:
#      x y z
#    x 1.561300 0.000000 0.000000 
#    y 0.000000 1.561300 0.000000 
#    z 0.000000 0.000000 1.573980 
# 
# From -- ./inp_files/736.got.cif
#   From: 2010.03.12/outbox.cif.g09.slc.cpg/sg108_1_cif.got.tgz:736.got - 2010.04.14 01:53:11.
