data_PCOD8307138
_publ_section_title
;
Structure prediction by ZEFSAII (Michael W. Deem and Ramdas Pophale) SiO2 
 PCOD8307138
Probable space group: P 42 M C
;
_chemical_formula_sum "Si O2"
_cell_formula_units_Z 64
_cell_length_a 14.289071
_cell_length_b 14.289071
_cell_length_c 19.901934
_cell_angle_alpha 90.000000
_cell_angle_beta 90.000000
_cell_angle_gamma 90.000000
_cell_volume 4063.528125
_symmetry_space_group_name_H-M "P 42 M C"
_symmetry_group_IT_number 105
_symmetry_cell_setting 'tetragonal'
loop_
_space_group_symop_operation_xyz
x,y,z
-y,x,1/2+z
-x,-y,z
y,-x,1/2+z
-x,y,z
x,-y,z
-y,-x,1/2+z
y,x,1/2+z
loop_
_atom_site_type_symbol
_atom_site_label
_atom_site_fract_x
_atom_site_fract_y
_atom_site_fract_z
Si Si1 0.609230 0.764490 0.044800
Si Si2 0.771630 0.890828 0.244907
Si Si3 0.397012 0.389144 0.800252
Si Si4 0.888438 0.104211 0.623640
Si Si5 0.771630 0.890828 0.002372
Si Si6 0.892515 0.107485 0.373640
Si Si7 0.610856 0.602989 0.947027
Si Si8 0.390770 0.764490 0.202479
O O1 0.500000 0.786729 0.031967
O O2 0.669221 0.846574 0.010882
O O3 0.630399 0.754152 0.123640
O O4 0.642017 0.669639 0.007844
O O5 0.841478 0.850723 0.188633
O O6 0.819601 0.867471 0.315501
O O7 0.669221 0.846574 0.236397
O O8 0.756260 0.000000 0.235135
O O9 0.500000 0.345548 0.786478
O O10 0.405261 0.500000 0.802760
O O11 0.357182 0.357184 0.873640
O O12 0.330361 0.357983 0.739436
O O13 0.850724 0.158522 0.558647
O O14 0.000000 0.098773 0.623640
O O15 0.845736 0.000000 0.623640
O O16 0.756260 0.000000 0.012143
O O17 0.819601 0.867470 0.931778
O O18 0.000000 0.120687 0.349040
O O19 0.879314 0.000000 0.398240
O O20 0.500000 0.594740 0.944518
O O21 0.654451 0.500000 0.960802
O O22 0.500000 0.786729 0.215312
#
# Coordination Sequence:
#
# PCOD8307138 Si02
#       8
#     8   8   8   8   8   8   8   8
#     4  10  20  31  44  67  98 128 156 184 218 268
#     4  10  19  31  46  67  93 122 153 186 226 271
#     4   8  15  29  48  68  89 115 149 190 234 271
#     4   9  16  28  47  67  88 115 149 189 231 272
#     4  10  19  31  46  67  93 122 153 186 226 271
#     4   9  18  32  50  70  90 113 146 194 244 277
#     4   8  15  29  48  68  89 115 149 190 234 271
#     4  10  20  31  44  67  98 128 156 184 218 268
#
# _framework density 15.74986
#
# number of rings (size 3 to 8) (size 9 to 14) (size 15 to 20)
#    0.000    2.750    1.250    1.500    1.750    4.000 
#    0.000    3.750    0.000    0.000    0.000    0.000 
#    0.000    4.000    0.000    0.000    0.000    0.250 
#
# Total GULP energy -793260.933235 kJ/mol
# GULP energy per Si atom -12394.702082 kJ/mol
# Density = 1.571401 g / cm^3
# Si number density = 15.749860 Si / 1000 Ang^3
#
#
#
# Elastic Constant Matrix: (Units=GPa)
#
#
# Indices 1 2 3 4 5 6 
#
# 1 72.6023 44.5659 55.7900 0.0000 0.0000 0.0000
# 2 44.5659 72.6023 55.7900 0.0000 0.0000 0.0000
# 3 55.7900 55.7900 115.4025 0.0000 0.0000 0.0000
# 4 0.0000 0.0000 0.0000 23.0244 0.0000 0.0000
# 5 0.0000 0.0000 0.0000 0.0000 23.0244 0.0000
# 6 0.0000 0.0000 0.0000 0.0000 0.0000 19.2563
#
#
#
# Elastic Compliance Matrix: (Units=1/GPa)
#
#
# Indices 1 2 3 4 5 6 
#
# 1 0.025742 -0.009926 -0.007646 0.000000 0.000000 0.000000
# 2 -0.009926 0.025742 -0.007646 0.000000 0.000000 0.000000
# 3 -0.007646 -0.007646 0.016058 0.000000 0.000000 0.000000
# 4 0.000000 0.000000 0.000000 0.043432 0.000000 0.000000
# 5 0.000000 0.000000 0.000000 0.000000 0.043432 0.000000
# 6 0.000000 0.000000 0.000000 0.000000 0.000000 0.051931
#
#
# Mechanical properties :
#
#
# Convention : Reuss Voigt Hill
#
# Bulk Modulus (GPa) = 58.45900 63.65542 61.05721
# Shear Modulus (GPa) = 19.04937 20.02512 19.53724
#
# Velocity S-wave (km/s) = 3.48155 3.56960 3.52585
# Velocity P-wave (km/s) = 7.30475 7.58246 7.44490
#
# Compressibility (1/GPa) = 0.01710601
#
# Stress axis : x y z
#
# Youngs Moduli (GPa) = 38.84699 38.84699 62.27336
#
# Poissons Ratio (x) = 0.38559 0.47615
# Poissons Ratio (y) = 0.38559 0.47615
# Poissons Ratio (z) = 0.29703 0.29703
#
# Static dielectric constant tensor:
#      x y z
#    x 2.919270 0.000000 0.000000 
#    y 0.000000 2.919270 0.000000 
#    z 0.000000 0.000000 3.196520 
# 
# 
# High freq. dielectric constant tensor:
#      x y z
#    x 1.582840 0.000000 0.000000 
#    y 0.000000 1.582840 0.000000 
#    z 0.000000 0.000000 1.617390 
# 
# From -- ./inp_files/3180.got.cif
#   From: 2010.03.12/outbox.cif.g09.slc.cpg/sg105_2_cif.got.tgz:3180.got - 2010.04.14 01:45:32.
