data_PCOD8307190
_publ_section_title
;
Structure prediction by ZEFSAII (Michael W. Deem and Ramdas Pophale) SiO2 
 PCOD8307190
Probable space group: P 42 M C
;
_chemical_formula_sum "Si O2"
_cell_formula_units_Z 32
_cell_length_a 9.295090
_cell_length_b 9.295090
_cell_length_c 20.588047
_cell_angle_alpha 90.000000
_cell_angle_beta 90.000000
_cell_angle_gamma 90.000000
_cell_volume 1778.780457
_symmetry_space_group_name_H-M "P 42 M C"
_symmetry_group_IT_number 105
_symmetry_cell_setting 'tetragonal'
loop_
_space_group_symop_operation_xyz
x,y,z
-y,x,1/2+z
-x,-y,z
y,-x,1/2+z
-x,y,z
x,-y,z
-y,-x,1/2+z
y,x,1/2+z
loop_
_atom_site_type_symbol
_atom_site_label
_atom_site_fract_x
_atom_site_fract_y
_atom_site_fract_z
Si Si1 0.170485 0.659287 0.895020
Si Si2 0.669937 0.835964 0.249645
Si Si3 0.171372 0.161424 0.015001
Si Si4 0.667073 0.168380 0.640653
O O1 0.235197 0.500000 0.907077
O O2 0.209780 0.713993 0.822858
O O3 0.000000 0.649727 0.901451
O O4 0.233785 0.767123 0.949159
O O5 0.500000 0.821268 0.240241
O O6 0.750391 0.727237 0.202847
O O7 0.718601 0.000000 0.235350
O O8 0.225840 0.251562 0.076758
O O9 0.000000 0.160449 0.012876
O O10 0.232732 0.000000 0.020168
O O11 0.500000 0.204347 0.632120
O O12 0.694018 0.000000 0.650802
#
# Coordination Sequence:
#
# PCOD8307190 Si02
#       4
#     8   8   8   8
#     4   8  14  26  44  66  93 123 154 192 241 295
#     4   9  18  32  50  72  97 126 161 201 245 292
#     4   9  16  26  43  69  98 126 158 198 243 288
#     4  10  20  32  47  69  98 132 167 202 241 286
#
# _framework density 17.989854999999999
#
# number of rings (size 3 to 8) (size 9 to 14) (size 15 to 20)
#    0.000    3.000    0.000    3.000    0.000    6.000 
#    0.000    2.500    0.000    1.500    0.000    7.000 
#    0.000    0.000    0.000    0.000    0.000    0.000 
#
# Total GULP energy -396712.211023 kJ/mol
# GULP energy per Si atom -12397.256594 kJ/mol
# Density = 1.794891 g / cm^3
# Si number density = 17.989855 Si / 1000 Ang^3
#
#
#
# Elastic Constant Matrix: (Units=GPa)
#
#
# Indices 1 2 3 4 5 6 
#
# 1 72.9420 34.3833 65.0826 0.0000 0.0000 0.0000
# 2 34.3833 72.9420 65.0826 0.0000 0.0000 0.0000
# 3 65.0826 65.0826 170.4012 0.0000 0.0000 0.0000
# 4 0.0000 0.0000 0.0000 9.4708 0.0000 0.0000
# 5 0.0000 0.0000 0.0000 0.0000 9.4708 0.0000
# 6 0.0000 0.0000 0.0000 0.0000 0.0000 19.0489
#
#
#
# Elastic Compliance Matrix: (Units=1/GPa)
#
#
# Indices 1 2 3 4 5 6 
#
# 1 0.021646 -0.004288 -0.006630 0.000000 0.000000 0.000000
# 2 -0.004288 0.021646 -0.006630 0.000000 0.000000 0.000000
# 3 -0.006630 -0.006630 0.010933 0.000000 0.000000 0.000000
# 4 0.000000 0.000000 0.000000 0.105588 0.000000 0.000000
# 5 0.000000 0.000000 0.000000 0.000000 0.105588 0.000000
# 6 0.000000 0.000000 0.000000 0.000000 0.000000 0.052497
#
#
# Mechanical properties :
#
#
# Convention : Reuss Voigt Hill
#
# Bulk Modulus (GPa) = 52.27377 71.70912 61.99144
# Shear Modulus (GPa) = 13.91327 17.71387 15.81357
#
# Velocity S-wave (km/s) = 2.78402 3.14133 2.96806
# Velocity P-wave (km/s) = 6.28130 7.28730 6.80292
#
# Compressibility (1/GPa) = 0.01913005
#
# Stress axis : x y z
#
# Youngs Moduli (GPa) = 46.19740 46.19740 91.46846
#
# Poissons Ratio (x) = 0.19811 0.60640
# Poissons Ratio (y) = 0.19811 0.60640
# Poissons Ratio (z) = 0.30627 0.30627
#
# Static dielectric constant tensor:
#      x y z
#    x 3.123330 0.000000 0.000000 
#    y 0.000000 3.123330 0.000000 
#    z 0.000000 0.000000 3.567420 
# 
# 
# High freq. dielectric constant tensor:
#      x y z
#    x 1.666940 0.000000 0.000000 
#    y 0.000000 1.666940 0.000000 
#    z 0.000000 0.000000 1.713680 
# 
# From -- ./inp_files/2353.got.cif
#   From: 2010.03.12/outbox.cif.g09.slc.cpg/sg105_2_cif.got.tgz:2353.got - 2010.04.14 01:45:32.
