data_PCOD8307290
_publ_section_title
;
Structure prediction by ZEFSAII (Michael W. Deem and Ramdas Pophale) SiO2 
 PCOD8307290
Probable space group: P 42 M C
;
_chemical_formula_sum "Si O2"
_cell_formula_units_Z 40
_cell_length_a 8.002224
_cell_length_b 8.002224
_cell_length_c 29.069651
_cell_angle_alpha 90.000000
_cell_angle_beta 90.000000
_cell_angle_gamma 90.000000
_cell_volume 1861.492222
_symmetry_space_group_name_H-M "P 42 M C"
_symmetry_group_IT_number 105
_symmetry_cell_setting 'tetragonal'
loop_
_space_group_symop_operation_xyz
x,y,z
-y,x,1/2+z
-x,-y,z
y,-x,1/2+z
-x,y,z
x,-y,z
-y,-x,1/2+z
y,x,1/2+z
loop_
_atom_site_type_symbol
_atom_site_label
_atom_site_fract_x
_atom_site_fract_y
_atom_site_fract_z
Si Si1 0.687926 0.000000 0.078560
Si Si2 0.189031 0.000000 0.177706
Si Si3 0.311285 0.805814 0.522921
Si Si4 0.189303 0.305759 0.831608
Si Si5 0.687904 0.305790 0.426093
Si Si6 0.312412 0.302625 0.736187
O O1 0.769057 0.174321 0.061935
O O2 0.500000 0.000000 0.060888
O O3 0.691985 0.000000 0.133650
O O4 0.216508 0.170018 0.206086
O O5 0.000000 0.000000 0.159940
O O6 0.500000 0.728955 0.533097
O O7 0.229534 0.739120 0.475053
O O8 0.334308 0.000000 0.518727
O O9 0.231365 0.500000 0.838387
O O10 0.227140 0.219317 0.881183
O O11 0.298683 0.237038 0.789025
O O12 0.000000 0.272917 0.817220
O O13 0.500000 0.234156 0.429807
O O14 0.691585 0.500000 0.417620
O O15 0.500000 0.258487 0.718297
O O16 0.279478 0.500000 0.734664
#
# Coordination Sequence:
#
# PCOD8307290 Si02
#       6
#     4   4   8   8   8   8
#     4  12  26  44  68  92 120 156 206 264 318 371
#     4  12  26  44  64  86 120 162 202 252 310 379
#     4  10  21  39  63  91 126 165 206 254 313 380
#     4   9  15  26  50  84 121 159 203 253 306 365
#     4   9  16  27  48  83 123 163 208 253 301 360
#     4  10  20  37  63  92 121 155 201 257 312 370
#
# _framework density 21.488135
#
# number of rings (size 3 to 8) (size 9 to 14) (size 15 to 20)
#    0.000    2.000    1.000    3.600    0.000    7.200 
#    0.000    0.000    2.200    0.000    0.000    0.000 
#    0.000    0.000    0.000    0.000    0.000    0.000 
#
# Total GULP energy -495659.139042 kJ/mol
# GULP energy per Si atom -12391.478476 kJ/mol
# Density = 2.143923 g / cm^3
# Si number density = 21.488135 Si / 1000 Ang^3
#
#
#
# Elastic Constant Matrix: (Units=GPa)
#
#
# Indices 1 2 3 4 5 6 
#
# 1 80.9361 17.9601 30.9796 0.0000 0.0000 0.0000
# 2 17.9601 80.9361 30.9796 0.0000 0.0000 0.0000
# 3 30.9796 30.9796 126.6420 0.0000 0.0000 0.0000
# 4 0.0000 0.0000 0.0000 22.3862 0.0000 0.0000
# 5 0.0000 0.0000 0.0000 0.0000 22.3862 0.0000
# 6 0.0000 0.0000 0.0000 0.0000 0.0000 19.7739
#
#
#
# Elastic Compliance Matrix: (Units=1/GPa)
#
#
# Indices 1 2 3 4 5 6 
#
# 1 0.013910 -0.001969 -0.002921 0.000000 0.000000 0.000000
# 2 -0.001969 0.013910 -0.002921 0.000000 0.000000 0.000000
# 3 -0.002921 -0.002921 0.009325 0.000000 0.000000 0.000000
# 4 0.000000 0.000000 0.000000 0.044670 0.000000 0.000000
# 5 0.000000 0.000000 0.000000 0.000000 0.044670 0.000000
# 6 0.000000 0.000000 0.000000 0.000000 0.000000 0.050572
#
#
# Mechanical properties :
#
#
# Convention : Reuss Voigt Hill
#
# Bulk Modulus (GPa) = 46.45953 49.81696 48.13824
# Shear Modulus (GPa) = 25.01806 26.81559 25.91683
#
# Velocity S-wave (km/s) = 3.41585 3.53643 3.47666
# Velocity P-wave (km/s) = 6.10125 6.31735 6.21024
#
# Compressibility (1/GPa) = 0.02152411
#
# Stress axis : x y z
#
# Youngs Moduli (GPa) = 71.88847 71.88847 107.23301
#
# Poissons Ratio (x) = 0.14152 0.31325
# Poissons Ratio (y) = 0.14152 0.31325
# Poissons Ratio (z) = 0.21000 0.21000
#
# Static dielectric constant tensor:
#      x y z
#    x 3.661510 0.000000 0.000000 
#    y 0.000000 3.661510 0.000000 
#    z 0.000000 0.000000 3.960240 
# 
# 
# High freq. dielectric constant tensor:
#      x y z
#    x 1.824790 0.000000 0.000000 
#    y 0.000000 1.824790 0.000000 
#    z 0.000000 0.000000 1.849250 
# 
# From -- ./inp_files/4348.got.cif
#   From: 2010.03.12/outbox.cif.g09.slc.cpg/sg105_3_cif.got.tgz:4348.got - 2010.04.14 01:45:32.
