data_PCOD8307481
_publ_section_title
;
Structure prediction by ZEFSAII (Michael W. Deem and Ramdas Pophale) SiO2 
 PCOD8307481
Probable space group: I 4 M M
;
_chemical_formula_sum "Si O2"
_cell_formula_units_Z 112
_cell_length_a 17.901585
_cell_length_b 17.901585
_cell_length_c 22.023850
_cell_angle_alpha 90.000000
_cell_angle_beta 90.000000
_cell_angle_gamma 90.000000
_cell_volume 7057.911533
_symmetry_space_group_name_H-M "I 4 M M"
_symmetry_group_IT_number 107
_symmetry_cell_setting 'tetragonal'
loop_
_space_group_symop_operation_xyz
x,y,z
-y,x,z
-x,-y,z
y,-x,z
-x,y,z
x,-y,z
-y,-x,z
y,x,z
1/2+x,1/2+y,1/2+z
1/2-y,1/2+x,1/2+z
1/2-x,1/2-y,1/2+z
1/2+y,1/2-x,1/2+z
1/2-x,1/2+y,1/2+z
1/2+x,1/2-y,1/2+z
1/2-y,1/2-x,1/2+z
1/2+y,1/2+x,1/2+z
loop_
_atom_site_type_symbol
_atom_site_label
_atom_site_fract_x
_atom_site_fract_y
_atom_site_fract_z
Si Si1 0.412466 0.225397 0.335920
Si Si2 0.417282 0.086650 0.902103
Si Si3 0.274602 0.912466 0.704537
Si Si4 0.645907 0.854092 0.020229
Si Si5 0.913350 0.417282 0.638355
Si Si6 0.294784 0.588532 0.078975
Si Si7 0.794784 0.911468 0.961482
O O1 0.500000 0.220572 0.327348
O O2 0.382375 0.142694 0.353753
O O3 0.376858 0.248724 0.270229
O O4 0.394091 0.282755 0.389866
O O5 0.500000 0.098632 0.875172
O O6 0.410363 0.130046 0.965290
O O7 0.400269 0.000000 0.916304
O O8 0.357306 0.882376 0.686706
O O9 0.217246 0.894089 0.650591
O O10 0.279423 0.000000 0.713108
O O11 0.730836 0.869521 0.999724
O O12 0.630047 0.910362 0.075168
O O13 0.630479 0.769163 0.040732
O O14 0.901367 0.500000 0.665285
O O15 0.000000 0.400270 0.624152
O O16 0.296213 0.500000 0.065148
O O17 0.374289 0.625712 0.061301
O O18 0.874287 0.874287 0.979156
O O19 0.796213 0.000000 0.975310
#
# Coordination Sequence:
#
# PCOD8307481 Si02
#       7
#    16  16  16  16  16  16  16
#     4   8  15  27  40  56  80 109 142 179 217 254
#     4   9  15  22  37  61  87 115 143 174 212 254
#     4   8  15  27  40  56  80 109 142 179 217 254
#     4  10  17  29  44  62  86 111 142 176 213 260
#     4   9  15  22  37  61  87 115 143 174 212 254
#     4  10  20  32  47  65  85 112 144 180 219 258
#     4  10  20  32  47  65  85 112 144 180 219 258
#
# _framework density 15.868715999999999
#
# number of rings (size 3 to 8) (size 9 to 14) (size 15 to 20)
#    0.000    2.857    0.000    4.714    0.000    2.571 
#    0.000    2.857    0.000    0.000    0.000    4.000 
#    0.000    0.000    0.000    0.000    0.000    5.143 
#
# Total GULP energy -693752.886847 kJ/mol
# GULP energy per Si atom -12388.444408 kJ/mol
# Density = 1.583260 g / cm^3
# Si number density = 15.868716 Si / 1000 Ang^3
#
#
#
# Elastic Constant Matrix: (Units=GPa)
#
#
# Indices 1 2 3 4 5 6 
#
# 1 65.3441 48.2059 20.4283 0.0000 0.0000 -0.0001
# 2 48.2059 65.3441 20.4283 0.0000 0.0000 0.0001
# 3 20.4283 20.4283 72.9944 0.0000 0.0000 0.0000
# 4 0.0000 0.0000 0.0000 9.1986 0.0000 0.0000
# 5 0.0000 0.0000 0.0000 0.0000 9.1986 0.0000
# 6 -0.0001 0.0001 0.0000 0.0000 0.0000 23.1702
#
#
#
# Elastic Compliance Matrix: (Units=1/GPa)
#
#
# Indices 1 2 3 4 5 6 
#
# 1 0.034071 -0.024278 -0.002741 0.000000 0.000000 0.000000
# 2 -0.024278 0.034071 -0.002741 0.000000 0.000000 0.000000
# 3 -0.002741 -0.002741 0.015234 0.000000 0.000000 0.000000
# 4 0.000000 0.000000 0.000000 0.108712 0.000000 0.000000
# 5 0.000000 0.000000 0.000000 0.000000 0.108712 0.000000
# 6 0.000000 0.000000 0.000000 0.000000 0.000000 0.043159
#
#
# Mechanical properties :
#
#
# Convention : Reuss Voigt Hill
#
# Bulk Modulus (GPa) = 41.91680 42.42305 42.16992
# Shear Modulus (GPa) = 12.15276 15.95483 14.05379
#
# Velocity S-wave (km/s) = 2.77037 3.17429 2.97918
# Velocity P-wave (km/s) = 6.05849 6.34244 6.20209
#
# Compressibility (1/GPa) = 0.02385678
#
# Stress axis : x y z
#
# Youngs Moduli (GPa) = 29.35049 29.35049 65.64402
#
# Poissons Ratio (x) = 0.71258 0.17991
# Poissons Ratio (y) = 0.71258 0.17991
# Poissons Ratio (z) = 0.08044 0.08044
#
# Static dielectric constant tensor:
#      x y z
#    x 2.801580 0.000000 0.000000 
#    y 0.000000 2.801580 0.000000 
#    z 0.000000 0.000000 3.345530 
# 
# 
# High freq. dielectric constant tensor:
#      x y z
#    x 1.587550 0.000000 0.000000 
#    y 0.000000 1.587550 0.000000 
#    z 0.000000 0.000000 1.606300 
# 
# From -- ./inp_files/4908.got.cif
#   From: 2010.03.12/outbox.cif.g09.slc.cpg/sg107_3_cif.got.tgz:4908.got - 2010.04.14 01:49:11.
