data_PCOD8307925
_publ_section_title
;
Structure prediction by ZEFSAII (Michael W. Deem and Ramdas Pophale) SiO2 
 PCOD8307925
Probable space group: I 41 M D
;
_chemical_formula_sum "Si O2"
_cell_formula_units_Z 112
_cell_length_a 22.233938
_cell_length_b 22.233938
_cell_length_c 12.248756
_cell_angle_alpha 90.000000
_cell_angle_beta 90.000000
_cell_angle_gamma 90.000000
_cell_volume 6055.148019
_symmetry_space_group_name_H-M "I 41 M D"
_symmetry_group_IT_number 109
_symmetry_cell_setting 'tetragonal'
loop_
_space_group_symop_operation_xyz
x,y,z
-y,1/2+x,1/4+z
-x,-y,z
y,1/2-x,1/4+z
-x,y,z
x,-y,z
-y,1/2-x,1/4+z
y,1/2+x,1/4+z
1/2+x,1/2+y,1/2+z
1/2-y,x,3/4+z
1/2-x,1/2-y,1/2+z
1/2+y,-x,3/4+z
1/2-x,1/2+y,1/2+z
1/2+x,1/2-y,1/2+z
1/2-y,-x,3/4+z
1/2+y,x,3/4+z
loop_
_atom_site_type_symbol
_atom_site_label
_atom_site_fract_x
_atom_site_fract_y
_atom_site_fract_z
Si Si1 0.337673 0.276020 0.339810
Si Si2 0.934038 0.615692 0.525450
Si Si3 0.896312 0.738994 0.437793
Si Si4 0.361800 0.668265 0.119705
Si Si5 0.066665 0.192323 0.229954
Si Si6 0.170876 0.211056 0.076682
Si Si7 0.930852 0.067716 0.510829
O O1 0.373941 0.308551 0.242859
O O2 0.354191 0.205811 0.346902
O O3 0.267349 0.284776 0.313260
O O4 0.353375 0.307059 0.456244
O O5 0.936221 0.684624 0.484772
O O6 0.879203 0.579761 0.470632
O O7 0.924217 0.611600 0.655300
O O8 0.000000 0.587551 0.496157
O O9 0.875596 0.777222 0.539920
O O10 0.931101 0.782401 0.353498
O O11 0.839677 0.712230 0.376222
O O12 0.407097 0.612729 0.103338
O O13 0.114169 0.226908 0.153622
O O14 0.000000 0.203681 0.184004
O O15 0.000000 0.083133 0.479938
O O16 0.926183 0.000000 0.556897
#
# Coordination Sequence:
#
# PCOD8307925 Si02
#       7
#    16  16  16  16  16  16  16
#     4  10  21  35  56  85 118 149 181 226 284 349
#     4  10  21  34  53  81 115 150 189 235 287 342
#     4  11  20  33  57  86 114 147 184 241 290 336
#     4  11  21  33  58  87 115 145 188 234 283 344
#     4  11  22  35  57  83 114 151 193 236 285 340
#     4  10  20  37  57  80 117 154 184 222 285 349
#     4  10  21  38  56  77 112 156 193 232 288 343
#
# _framework density 18.496656999999999
#
# number of rings (size 3 to 8) (size 9 to 14) (size 15 to 20)
#    0.000    1.571    2.857    3.429    4.000    1.429 
#    0.000    4.286    0.000    0.000    0.000    0.000 
#    0.000    0.000    0.000    0.000    0.000    0.000 
#
# Total GULP energy -694261.734559 kJ/mol
# GULP energy per Si atom -12397.530974 kJ/mol
# Density = 1.845456 g / cm^3
# Si number density = 18.496657 Si / 1000 Ang^3
#
#
#
# Elastic Constant Matrix: (Units=GPa)
#
#
# Indices 1 2 3 4 5 6 
#
# 1 79.3170 33.3553 30.3273 0.0000 0.0000 0.0000
# 2 33.3553 79.3170 30.3273 0.0000 0.0000 0.0000
# 3 30.3273 30.3273 118.7486 0.0000 0.0000 0.0000
# 4 0.0000 0.0000 0.0000 19.0555 0.0000 0.0000
# 5 0.0000 0.0000 0.0000 0.0000 19.0555 0.0000
# 6 0.0000 0.0000 0.0000 0.0000 0.0000 19.4268
#
#
#
# Elastic Compliance Matrix: (Units=1/GPa)
#
#
# Indices 1 2 3 4 5 6 
#
# 1 0.016024 -0.005734 -0.002628 0.000000 0.000000 0.000000
# 2 -0.005734 0.016024 -0.002628 0.000000 0.000000 0.000000
# 3 -0.002628 -0.002628 0.009763 0.000000 0.000000 0.000000
# 4 0.000000 0.000000 0.000000 0.052478 0.000000 0.000000
# 5 0.000000 0.000000 0.000000 0.000000 0.052478 0.000000
# 6 0.000000 0.000000 0.000000 0.000000 0.000000 0.051475
#
#
# Mechanical properties :
#
#
# Convention : Reuss Voigt Hill
#
# Bulk Modulus (GPa) = 50.42458 51.71137 51.06798
# Shear Modulus (GPa) = 22.04274 23.73242 22.88758
#
# Velocity S-wave (km/s) = 3.45587 3.58588 3.52147
# Velocity P-wave (km/s) = 6.57607 6.72031 6.64858
#
# Compressibility (1/GPa) = 0.01983160
#
# Stress axis : x y z
#
# Youngs Moduli (GPa) = 62.40779 62.40779 102.42264
#
# Poissons Ratio (x) = 0.35782 0.26916
# Poissons Ratio (y) = 0.35782 0.26916
# Poissons Ratio (z) = 0.16401 0.16401
#
# Static dielectric constant tensor:
#      x y z
#    x 3.389660 0.000000 0.000000 
#    y 0.000000 3.389660 0.000000 
#    z 0.000000 0.000000 3.534770 
# 
# 
# High freq. dielectric constant tensor:
#      x y z
#    x 1.710600 0.000000 0.000000 
#    y 0.000000 1.710600 0.000000 
#    z 0.000000 0.000000 1.709390 
# 
# From -- ./inp_files/2144.got.cif
#   From: 2010.03.12/outbox.cif.g09.slc.cpg/sg109_2_cif.got.tgz:2144.got - 2010.04.14 01:55:16.
