data_PCOD8307955
_publ_section_title
;
Structure prediction by ZEFSAII (Michael W. Deem and Ramdas Pophale) SiO2 
 PCOD8307955
Probable space group: I 41 M D
;
_chemical_formula_sum "Si O2"
_cell_formula_units_Z 32
_cell_length_a 7.621970
_cell_length_b 7.621970
_cell_length_c 27.740409
_cell_angle_alpha 90.000000
_cell_angle_beta 90.000000
_cell_angle_gamma 90.000000
_cell_volume 1611.563157
_symmetry_space_group_name_H-M "I 41 M D"
_symmetry_group_IT_number 109
_symmetry_cell_setting 'tetragonal'
loop_
_space_group_symop_operation_xyz
x,y,z
-y,1/2+x,1/4+z
-x,-y,z
y,1/2-x,1/4+z
-x,y,z
x,-y,z
-y,1/2-x,1/4+z
y,1/2+x,1/4+z
1/2+x,1/2+y,1/2+z
1/2-y,x,3/4+z
1/2-x,1/2-y,1/2+z
1/2+y,-x,3/4+z
1/2-x,1/2+y,1/2+z
1/2+x,1/2-y,1/2+z
1/2-y,-x,3/4+z
1/2+y,x,3/4+z
loop_
_atom_site_type_symbol
_atom_site_label
_atom_site_fract_x
_atom_site_fract_y
_atom_site_fract_z
Si Si1 0.799624 0.794806 0.528440
Si Si2 0.797894 0.500000 0.453899
Si Si3 0.303200 0.500000 0.346160
O O1 0.746706 0.676944 0.482428
O O2 0.678057 0.725369 0.572550
O O3 0.000000 0.756453 0.543830
O O4 0.774248 0.000000 0.515038
O O5 0.699509 0.500000 0.403376
O O6 0.000000 0.500000 0.440572
O O7 0.500000 0.500000 0.328184
#
# Coordination Sequence:
#
# PCOD8307955 Si02
#       3
#    16   8   8
#     4   9  20  39  56  78 118 151 186 239 282 344
#     4  10  22  36  58  88 110 154 196 233 295 337
#     4  10  22  36  58  88 110 154 196 233 295 337
#
# _framework density 19.856498999999999
#
# number of rings (size 3 to 8) (size 9 to 14) (size 15 to 20)
#    0.000    2.500    0.000    0.000    7.000    2.000 
#    0.000    0.000    0.000    0.000    0.000    0.000 
#    0.000    0.000    0.000    0.000    0.000    0.000 
#
# Total GULP energy -198274.437167 kJ/mol
# GULP energy per Si atom -12392.152323 kJ/mol
# Density = 1.981131 g / cm^3
# Si number density = 19.856499 Si / 1000 Ang^3
#
#
#
# Elastic Constant Matrix: (Units=GPa)
#
#
# Indices 1 2 3 4 5 6 
#
# 1 100.3296 39.6192 63.3954 0.0000 0.0000 0.0000
# 2 39.6192 100.3296 63.3954 0.0000 0.0000 0.0000
# 3 63.3954 63.3954 154.9587 0.0000 0.0000 0.0000
# 4 0.0000 0.0000 0.0000 30.6787 0.0000 0.0000
# 5 0.0000 0.0000 0.0000 0.0000 30.6787 0.0000
# 6 0.0000 0.0000 0.0000 0.0000 0.0000 14.5874
#
#
#
# Elastic Compliance Matrix: (Units=1/GPa)
#
#
# Indices 1 2 3 4 5 6 
#
# 1 0.013913 -0.002559 -0.004645 0.000000 0.000000 0.000000
# 2 -0.002559 0.013913 -0.004645 0.000000 0.000000 0.000000
# 3 -0.004645 -0.004645 0.010254 0.000000 0.000000 0.000000
# 4 0.000000 0.000000 0.000000 0.032596 0.000000 0.000000
# 5 0.000000 0.000000 0.000000 0.000000 0.032596 0.000000
# 6 0.000000 0.000000 0.000000 0.000000 0.000000 0.068552
#
#
# Mechanical properties :
#
#
# Convention : Reuss Voigt Hill
#
# Bulk Modulus (GPa) = 69.53335 76.49307 73.01321
# Shear Modulus (GPa) = 24.96070 27.80283 26.38176
#
# Velocity S-wave (km/s) = 3.54934 3.74597 3.64898
# Velocity P-wave (km/s) = 7.20355 7.57075 7.38943
#
# Compressibility (1/GPa) = 0.01438159
#
# Stress axis : x y z
#
# Youngs Moduli (GPa) = 71.87702 71.87701 97.52384
#
# Poissons Ratio (x) = 0.18393 0.45299
# Poissons Ratio (y) = 0.18393 0.45299
# Poissons Ratio (z) = 0.33386 0.33386
#
# Static dielectric constant tensor:
#      x y z
#    x 3.929790 0.000000 0.000000 
#    y 0.000000 3.929790 0.000000 
#    z 0.000000 0.000000 3.266960 
# 
# 
# High freq. dielectric constant tensor:
#      x y z
#    x 1.783500 0.000000 0.000000 
#    y 0.000000 1.783500 0.000000 
#    z 0.000000 0.000000 1.753890 
# 
# From -- ./inp_files/3345.got.cif
#   From: 2010.03.12/outbox.cif.g09.slc.cpg/sg109_2_cif.got.tgz:3345.got - 2010.04.14 01:55:16.
