data_PCOD8307814
_publ_section_title
;
Structure prediction by ZEFSAII (Michael W. Deem and Ramdas Pophale) SiO2 
 PCOD8307814
Probable space group: I 4 C M
;
_chemical_formula_sum "Si O2"
_cell_formula_units_Z 112
_cell_length_a 14.241569
_cell_length_b 14.241569
_cell_length_c 27.973369
_cell_angle_alpha 90.000000
_cell_angle_beta 90.000000
_cell_angle_gamma 90.000000
_cell_volume 5673.622692
_symmetry_space_group_name_H-M "I 4 C M"
_symmetry_group_IT_number 108
_symmetry_cell_setting 'tetragonal'
loop_
_space_group_symop_operation_xyz
x,y,z
-y,x,z
-x,-y,z
y,-x,z
-x,y,1/2+z
x,-y,1/2+z
-y,-x,1/2+z
y,x,1/2+z
1/2+x,1/2+y,1/2+z
1/2-y,1/2+x,1/2+z
1/2-x,1/2-y,1/2+z
1/2+y,1/2-x,1/2+z
1/2-x,1/2+y,z
1/2+x,1/2-y,z
1/2-y,1/2-x,z
1/2+y,1/2+x,z
loop_
_atom_site_type_symbol
_atom_site_label
_atom_site_fract_x
_atom_site_fract_y
_atom_site_fract_z
Si Si1 0.345877 0.485696 0.901650
Si Si2 0.847194 0.981796 0.509965
Si Si3 0.074057 0.862978 0.246698
Si Si4 0.666359 0.320167 0.650193
Si Si5 0.209760 0.553748 0.319345
Si Si6 0.250325 0.493002 0.103845
Si Si7 0.578692 0.078692 0.263217
Si Si8 0.925414 0.574587 0.156958
O O1 0.416984 0.399894 0.891545
O O2 0.253614 0.481042 0.869130
O O3 0.308698 0.479507 0.956016
O O4 0.761836 0.969360 0.547537
O O5 0.919637 0.898042 0.519200
O O6 0.107211 0.811705 0.198702
O O7 0.103051 0.793106 0.289233
O O8 0.962119 0.874356 0.250443
O O9 0.766805 0.266805 0.653151
O O10 0.680651 0.428233 0.635826
O O11 0.602414 0.272727 0.609956
O O12 0.129386 0.629386 0.330302
O O13 0.168668 0.463584 0.290897
O O14 0.147294 0.475324 0.122441
O O15 0.611542 0.111542 0.209244
O O16 0.500000 0.000000 0.261197
O O17 0.000000 0.500000 0.174045
#
# Coordination Sequence:
#
# PCOD8307814 Si02
#       8
#    16  16  16  16  16  16   8   8
#     4   9  19  40  65  91 120 155 198 255 319 372
#     4   9  18  35  65  93 120 158 200 253 317 374
#     4  11  23  39  59  87 122 158 200 258 310 361
#     4  12  24  38  58  91 128 163 205 257 310 369
#     4  11  22  40  62  88 121 159 205 254 309 374
#     4  12  22  38  63  90 124 163 212 258 307 373
#     4   9  22  42  64  81 116 172 211 238 295 373
#     4  11  24  44  62  85 126 179 215 248 307 386
#
# _framework density 19.740473000000001
#
# number of rings (size 3 to 8) (size 9 to 14) (size 15 to 20)
#    0.000    1.429    3.571    3.429    0.000    2.571 
#    6.429    0.000    3.143    0.000    0.000    0.000 
#    0.000    0.000    0.000    0.000    0.000    0.000 
#
# Total GULP energy -694286.574789 kJ/mol
# GULP energy per Si atom -12397.974550 kJ/mol
# Density = 1.969554 g / cm^3
# Si number density = 19.740473 Si / 1000 Ang^3
#
#
#
# Elastic Constant Matrix: (Units=GPa)
#
#
# Indices 1 2 3 4 5 6 
#
# 1 77.5770 16.1793 43.6059 0.0000 0.0000 0.0000
# 2 16.1793 77.5770 43.6059 0.0000 0.0000 0.0000
# 3 43.6059 43.6059 152.7546 0.0000 0.0000 0.0000
# 4 0.0000 0.0000 0.0000 44.1063 0.0000 0.0000
# 5 0.0000 0.0000 0.0000 0.0000 44.1063 0.0000
# 6 0.0000 0.0000 0.0000 0.0000 0.0000 23.8756
#
#
#
# Elastic Compliance Matrix: (Units=1/GPa)
#
#
# Indices 1 2 3 4 5 6 
#
# 1 0.015405 -0.000883 -0.004146 0.000000 0.000000 0.000000
# 2 -0.000883 0.015405 -0.004146 0.000000 0.000000 0.000000
# 3 -0.004146 -0.004146 0.008913 0.000000 0.000000 0.000000
# 4 0.000000 0.000000 0.000000 0.022672 0.000000 0.000000
# 5 0.000000 0.000000 0.000000 0.000000 0.022672 0.000000
# 6 0.000000 0.000000 0.000000 0.000000 0.000000 0.041884
#
#
# Mechanical properties :
#
#
# Convention : Reuss Voigt Hill
#
# Bulk Modulus (GPa) = 46.78291 57.18785 51.98538
# Shear Modulus (GPa) = 32.80328 36.05215 34.42771
#
# Velocity S-wave (km/s) = 4.08085 4.27817 4.18067
# Velocity P-wave (km/s) = 6.77900 7.31002 7.04951
#
# Compressibility (1/GPa) = 0.02137533
#
# Stress axis : x y z
#
# Youngs Moduli (GPa) = 64.91532 64.91532 112.19261
#
# Poissons Ratio (x) = 0.05729 0.46510
# Poissons Ratio (y) = 0.05729 0.46510
# Poissons Ratio (z) = 0.26911 0.26911
#
# Static dielectric constant tensor:
#      x y z
#    x 3.397120 0.000000 0.000000 
#    y 0.000000 3.397120 0.000000 
#    z 0.000000 0.000000 3.626000 
# 
# 
# High freq. dielectric constant tensor:
#      x y z
#    x 1.759040 0.000000 0.000000 
#    y 0.000000 1.759040 0.000000 
#    z 0.000000 0.000000 1.772600 
# 
# From -- ./inp_files/3393.got.cif
#   From: 2010.03.12/outbox.cif.g09.slc.cpg/sg108_2_cif.got.tgz:3393.got - 2010.04.14 01:53:11.
