data_PCOD8307406
_publ_section_title
;
Structure prediction by ZEFSAII (Michael W. Deem and Ramdas Pophale) SiO2 
 PCOD8307406
Probable space group: P 42 B C
;
_chemical_formula_sum "Si O2"
_cell_formula_units_Z 56
_cell_length_a 14.318911
_cell_length_b 14.318911
_cell_length_c 10.641286
_cell_angle_alpha 90.000000
_cell_angle_beta 90.000000
_cell_angle_gamma 90.000000
_cell_volume 2181.795768
_symmetry_space_group_name_H-M "P 42 B C"
_symmetry_group_IT_number 106
_symmetry_cell_setting 'tetragonal'
loop_
_space_group_symop_operation_xyz
x,y,z
-y,x,1/2+z
-x,-y,z
y,-x,1/2+z
1/2-x,1/2+y,z
1/2+x,1/2-y,z
1/2-y,1/2-x,1/2+z
1/2+y,1/2+x,1/2+z
loop_
_atom_site_type_symbol
_atom_site_label
_atom_site_fract_x
_atom_site_fract_y
_atom_site_fract_z
Si Si1 0.866542 0.943802 0.436200
Si Si2 0.052798 0.656344 0.857831
Si Si3 0.803742 0.036566 0.780995
Si Si4 0.686656 0.344488 0.673382
Si Si5 0.389547 0.172887 0.582965
Si Si6 0.863509 0.841637 0.027550
Si Si7 0.845758 0.681811 0.853550
O O1 0.764400 0.920998 0.379136
O O2 0.943045 0.903669 0.342125
O O3 0.881446 0.893720 0.572051
O O4 0.885829 0.055421 0.439053
O O5 0.067095 0.629372 0.710521
O O6 0.945140 0.636932 0.886562
O O7 0.110301 0.592137 0.958105
O O8 0.800424 0.076965 0.641618
O O9 0.723444 0.093823 0.854124
O O10 0.789233 0.923786 0.780773
O O11 0.780652 0.316376 0.606170
O O12 0.645814 0.247643 0.728720
O O13 0.418543 0.282549 0.558731
O O14 0.813488 0.752515 0.962443
#
# Coordination Sequence:
#
# PCOD8307406 Si02
#       7
#     8   8   8   8   8   8   8
#     4   9  19  38  62 103 133 171 234 297 354 437
#     4  10  22  38  71  97 141 185 247 288 364 420
#     4  11  21  40  70  97 142 183 232 292 364 425
#     4  10  21  38  68  99 134 183 234 288 369 427
#     4  11  19  42  68 104 134 195 238 302 351 439
#     4  10  20  36  71  95 129 187 233 287 359 426
#     4  11  22  42  65 104 138 185 236 298 351 435
#
# _framework density 25.666930000000001
#
# number of rings (size 3 to 8) (size 9 to 14) (size 15 to 20)
#    0.000    1.714    2.857    3.429    0.000    0.000 
#    5.143    3.571    6.286   12.000    0.000    0.000 
#    0.000    0.000    0.000    0.000    0.000    0.000 
#
# Total GULP energy -694000.017698 kJ/mol
# GULP energy per Si atom -12392.857459 kJ/mol
# Density = 2.560851 g / cm^3
# Si number density = 25.666930 Si / 1000 Ang^3
#
#
#
# Elastic Constant Matrix: (Units=GPa)
#
#
# Indices 1 2 3 4 5 6 
#
# 1 82.3421 35.3129 21.1562 0.0000 0.0000 0.0000
# 2 35.3129 82.3421 21.1562 0.0000 0.0000 0.0000
# 3 21.1562 21.1562 100.3677 0.0000 0.0000 0.0000
# 4 0.0000 0.0000 0.0000 19.9490 0.0000 0.0000
# 5 0.0000 0.0000 0.0000 0.0000 19.9490 0.0000
# 6 0.0000 0.0000 0.0000 0.0000 0.0000 11.0669
#
#
#
# Elastic Compliance Matrix: (Units=1/GPa)
#
#
# Indices 1 2 3 4 5 6 
#
# 1 0.015230 -0.006033 -0.001939 0.000000 0.000000 0.000000
# 2 -0.006033 0.015230 -0.001939 0.000000 0.000000 0.000000
# 3 -0.001939 -0.001939 0.010781 0.000000 0.000000 0.000000
# 4 0.000000 0.000000 0.000000 0.050128 0.000000 0.000000
# 5 0.000000 0.000000 0.000000 0.000000 0.050128 0.000000
# 6 0.000000 0.000000 0.000000 0.000000 0.000000 0.090359
#
#
# Mechanical properties :
#
#
# Convention : Reuss Voigt Hill
#
# Bulk Modulus (GPa) = 46.68606 46.70029 46.69317
# Shear Modulus (GPa) = 19.31871 22.68809 21.00340
#
# Velocity S-wave (km/s) = 2.74646 2.97634 2.86371
# Velocity P-wave (km/s) = 5.31846 5.48140 5.40054
#
# Compressibility (1/GPa) = 0.02141967
#
# Stress axis : x y z
#
# Youngs Moduli (GPa) = 65.66001 65.66001 92.75931
#
# Poissons Ratio (x) = 0.39615 0.17982
# Poissons Ratio (y) = 0.39615 0.17982
# Poissons Ratio (z) = 0.12728 0.12728
#
# Static dielectric constant tensor:
#      x y z
#    x 4.472260 0.000000 0.000000 
#    y 0.000000 4.472260 0.000000 
#    z 0.000000 0.000000 4.936500 
# 
# 
# High freq. dielectric constant tensor:
#      x y z
#    x 2.007470 0.000000 0.000000 
#    y 0.000000 2.007470 0.000000 
#    z 0.000000 0.000000 2.038040 
# 
# From -- ./inp_files/984.got.cif
#   From: 2010.03.12/outbox.cif.g09.slc.cpg/sg106_cif.got.tgz:984.got - 2010.04.14 01:48:02.
