data_PCOD8307324
_publ_section_title
;
Structure prediction by ZEFSAII (Michael W. Deem and Ramdas Pophale) SiO2 
 PCOD8307324
Probable space group: P 42 M C
;
_chemical_formula_sum "Si O2"
_cell_formula_units_Z 32
_cell_length_a 8.009349
_cell_length_b 8.009349
_cell_length_c 23.541245
_cell_angle_alpha 90.000000
_cell_angle_beta 90.000000
_cell_angle_gamma 90.000000
_cell_volume 1510.163131
_symmetry_space_group_name_H-M "P 42 M C"
_symmetry_group_IT_number 105
_symmetry_cell_setting 'tetragonal'
loop_
_space_group_symop_operation_xyz
x,y,z
-y,x,1/2+z
-x,-y,z
y,-x,1/2+z
-x,y,z
x,-y,z
-y,-x,1/2+z
y,x,1/2+z
loop_
_atom_site_type_symbol
_atom_site_label
_atom_site_fract_x
_atom_site_fract_y
_atom_site_fract_z
Si Si1 0.500000 0.810597 0.553200
Si Si2 0.308209 0.500000 0.177006
Si Si3 0.193998 0.311646 0.352230
Si Si4 0.698212 0.811001 0.979822
Si Si5 0.692450 0.819789 0.238634
O O1 0.500000 0.698981 0.609299
O O2 0.330333 0.777724 0.518917
O O3 0.500000 0.000000 0.573349
O O4 0.500000 0.500000 0.196401
O O5 0.221849 0.333310 0.203825
O O6 0.262445 0.500000 0.348616
O O7 0.224192 0.240420 0.415557
O O8 0.291661 0.202209 0.306430
O O9 0.000000 0.306237 0.337098
O O10 0.500000 0.797626 0.982939
O O11 0.752761 0.000000 0.998306
O O12 0.500000 0.827019 0.221807
O O13 0.773664 0.000000 0.222023
#
# Coordination Sequence:
#
# PCOD8307324 Si02
#       5
#     4   4   8   8   8
#     4  12  26  40  60  90 124 164 204 257 314 365
#     4  10  22  42  60  80 116 158 210 257 298 355
#     4   9  18  34  58  87 120 154 191 240 299 365
#     4   9  20  40  64  90 120 161 209 254 306 368
#     4  10  21  36  58  88 117 151 197 250 306 361
#
# _framework density 21.189762000000002
#
# number of rings (size 3 to 8) (size 9 to 14) (size 15 to 20)
#    0.000    2.250    1.250    2.625    1.750    4.000 
#    0.000    5.000    0.000    0.000    0.000    0.000 
#    0.000    0.000    0.000    0.000    0.000    0.000 
#
# Total GULP energy -396614.210084 kJ/mol
# GULP energy per Si atom -12394.194065 kJ/mol
# Density = 2.114153 g / cm^3
# Si number density = 21.189762 Si / 1000 Ang^3
#
#
#
# Elastic Constant Matrix: (Units=GPa)
#
#
# Indices 1 2 3 4 5 6 
#
# 1 99.1581 29.7500 42.3853 0.0000 0.0000 0.0000
# 2 29.7500 99.1581 42.3853 0.0000 0.0000 0.0000
# 3 42.3853 42.3853 115.0780 0.0000 0.0000 0.0000
# 4 0.0000 0.0000 0.0000 10.6874 0.0000 0.0000
# 5 0.0000 0.0000 0.0000 0.0000 10.6874 0.0000
# 6 0.0000 0.0000 0.0000 0.0000 0.0000 13.8933
#
#
#
# Elastic Compliance Matrix: (Units=1/GPa)
#
#
# Indices 1 2 3 4 5 6 
#
# 1 0.012322 -0.002085 -0.003770 0.000000 0.000000 0.000000
# 2 -0.002085 0.012322 -0.003770 0.000000 0.000000 0.000000
# 3 -0.003770 -0.003770 0.011467 0.000000 0.000000 0.000000
# 4 0.000000 0.000000 0.000000 0.093568 0.000000 0.000000
# 5 0.000000 0.000000 0.000000 0.000000 0.093568 0.000000
# 6 0.000000 0.000000 0.000000 0.000000 0.000000 0.071977
#
#
# Mechanical properties :
#
#
# Convention : Reuss Voigt Hill
#
# Bulk Modulus (GPa) = 59.31453 60.27061 59.79257
# Shear Modulus (GPa) = 15.62026 20.31185 17.96606
#
# Velocity S-wave (km/s) = 2.71802 3.09944 2.91497
# Velocity P-wave (km/s) = 6.15654 6.42757 6.29352
#
# Compressibility (1/GPa) = 0.01685928
#
# Stress axis : x y z
#
# Youngs Moduli (GPa) = 81.15408 81.15408 87.20517
#
# Poissons Ratio (x) = 0.16923 0.32880
# Poissons Ratio (y) = 0.16923 0.32880
# Poissons Ratio (z) = 0.30599 0.30599
#
# Static dielectric constant tensor:
#      x y z
#    x 3.910390 0.000000 0.000000 
#    y 0.000000 3.910390 0.000000 
#    z 0.000000 0.000000 3.664720 
# 
# 
# High freq. dielectric constant tensor:
#      x y z
#    x 1.822540 0.000000 0.000000 
#    y 0.000000 1.822540 0.000000 
#    z 0.000000 0.000000 1.820370 
# 
# From -- ./inp_files/3362.got.cif
#   From: 2010.03.12/outbox.cif.g09.slc.cpg/sg105_2_cif.got.tgz:3362.got - 2010.04.14 01:45:32.
