data_PCOD8307030
_publ_section_title
;
Structure prediction by ZEFSAII (Michael W. Deem and Ramdas Pophale) SiO2 
 PCOD8307030
Probable space group: P 4 C C
;
_chemical_formula_sum "Si O2"
_cell_formula_units_Z 36
_cell_length_a 8.712560
_cell_length_b 8.712560
_cell_length_c 23.713303
_cell_angle_alpha 90.000000
_cell_angle_beta 90.000000
_cell_angle_gamma 90.000000
_cell_volume 1800.046045
_symmetry_space_group_name_H-M "P 4 C C"
_symmetry_group_IT_number 103
_symmetry_cell_setting 'tetragonal'
loop_
_space_group_symop_operation_xyz
x,y,z
-y,x,z
-x,-y,z
y,-x,z
-x,y,1/2+z
x,-y,1/2+z
-y,-x,1/2+z
y,x,1/2+z
loop_
_atom_site_type_symbol
_atom_site_label
_atom_site_fract_x
_atom_site_fract_y
_atom_site_fract_z
Si Si1 0.240434 0.927396 0.008840
Si Si2 0.242258 0.064544 0.380296
Si Si3 0.500000 0.000000 0.799452
Si Si4 0.740434 0.572604 0.090063
Si Si5 0.257742 0.564544 0.718607
O O1 0.381157 0.881157 0.049452
O O2 0.099884 0.812303 0.021144
O O3 0.297850 0.914665 0.944531
O O4 0.184866 0.892193 0.368556
O O5 0.383713 0.096605 0.338706
O O6 0.403395 0.116287 0.760197
O O7 0.599884 0.687697 0.077759
O O8 0.797851 0.585335 0.154372
O O9 0.315134 0.392193 0.730348
#
# Coordination Sequence:
#
# PCOD8307030 Si02
#       5
#     8   8   4   8   8
#     4   9  19  35  54  77 106 136 167 209 260 311
#     4   9  20  37  53  76 110 139 169 217 267 305
#     4  12  20  32  58  80  96 140 192 214 244 312
#     4   9  19  35  54  77 106 136 167 209 260 311
#     4   9  20  37  53  76 110 139 169 217 267 305
#
# _framework density 19.999487999999999
#
# number of rings (size 3 to 8) (size 9 to 14) (size 15 to 20)
#    0.000    2.667    0.000    4.000    0.000    8.000 
#    0.000    0.000    0.000    5.333    0.000    0.000 
#    0.000    0.000    0.000    0.000    0.000    0.000 
#
# Total GULP energy -446386.335214 kJ/mol
# GULP energy per Si atom -12399.620423 kJ/mol
# Density = 1.995397 g / cm^3
# Si number density = 19.999488 Si / 1000 Ang^3
#
#
#
# Elastic Constant Matrix: (Units=GPa)
#
#
# Indices 1 2 3 4 5 6 
#
# 1 55.6919 23.5748 54.3625 0.0000 0.0000 0.0000
# 2 23.5748 55.6919 54.3625 0.0000 0.0000 0.0000
# 3 54.3625 54.3625 129.6569 0.0000 0.0000 0.0000
# 4 0.0000 0.0000 0.0000 38.4195 0.0000 0.0000
# 5 0.0000 0.0000 0.0000 0.0000 38.4195 0.0000
# 6 0.0000 0.0000 0.0000 0.0000 0.0000 30.0132
#
#
#
# Elastic Compliance Matrix: (Units=1/GPa)
#
#
# Indices 1 2 3 4 5 6 
#
# 1 0.030413 -0.000723 -0.012449 0.000000 0.000000 0.000000
# 2 -0.000723 0.030413 -0.012449 0.000000 0.000000 0.000000
# 3 -0.012449 -0.012449 0.018152 0.000000 0.000000 0.000000
# 4 0.000000 0.000000 0.000000 0.026028 0.000000 0.000000
# 5 0.000000 0.000000 0.000000 0.000000 0.026028 0.000000
# 6 0.000000 0.000000 0.000000 0.000000 0.000000 0.033319
#
#
# Mechanical properties :
#
#
# Convention : Reuss Voigt Hill
#
# Bulk Modulus (GPa) = 36.05124 56.18227 46.11675
# Shear Modulus (GPa) = 22.23797 28.61981 25.42889
#
# Velocity S-wave (km/s) = 3.33817 3.78700 3.56965
# Velocity P-wave (km/s) = 5.73786 6.87565 6.33237
#
# Compressibility (1/GPa) = 0.02773830
#
# Stress axis : x y z
#
# Youngs Moduli (GPa) = 32.88020 32.88020 55.09125
#
# Poissons Ratio (x) = 0.02376 0.68582
# Poissons Ratio (y) = 0.02376 0.68582
# Poissons Ratio (z) = 0.40932 0.40932
#
# Static dielectric constant tensor:
#      x y z
#    x 3.386590 0.000000 0.000000 
#    y 0.000000 3.386590 0.000000 
#    z 0.000000 0.000000 3.582810 
# 
# 
# High freq. dielectric constant tensor:
#      x y z
#    x 1.767920 0.000000 0.000000 
#    y 0.000000 1.767920 0.000000 
#    z 0.000000 0.000000 1.784950 
# 
# From -- ./inp_files/1158.got.cif
#   From: 2010.03.12/outbox.cif.g09.slc.cpg/sg103_cif.got.tgz:1158.got - 2010.04.14 01:42:52.
