data_PCOD8307366
_publ_section_title
;
Structure prediction by ZEFSAII (Michael W. Deem and Ramdas Pophale) SiO2 
 PCOD8307366
Probable space group: P 42 M C
;
_chemical_formula_sum "Si O2"
_cell_formula_units_Z 24
_cell_length_a 13.792786
_cell_length_b 13.792786
_cell_length_c 4.849431
_cell_angle_alpha 90.000000
_cell_angle_beta 90.000000
_cell_angle_gamma 90.000000
_cell_volume 922.560339
_symmetry_space_group_name_H-M "P 42 M C"
_symmetry_group_IT_number 105
_symmetry_cell_setting 'tetragonal'
loop_
_space_group_symop_operation_xyz
x,y,z
-y,x,1/2+z
-x,-y,z
y,-x,1/2+z
-x,y,z
x,-y,z
-y,-x,1/2+z
y,x,1/2+z
loop_
_atom_site_type_symbol
_atom_site_label
_atom_site_fract_x
_atom_site_fract_y
_atom_site_fract_z
Si Si1 0.110369 0.203284 0.194600
Si Si2 0.703284 0.389631 0.558547
Si Si3 0.391502 0.891502 0.376572
O O1 0.137957 0.182911 0.510627
O O2 0.126490 0.316427 0.125290
O O3 0.000000 0.171491 0.139832
O O4 0.671491 0.500000 0.613319
O O5 0.637956 0.317088 0.742518
O O6 0.816426 0.373509 0.627857
O O7 0.500000 0.878285 0.501535
O O8 0.378284 0.000000 0.251607
#
# Coordination Sequence:
#
# PCOD8307366 Si02
#       3
#     8   8   8
#     4  11  23  40  63  90 122 159 199 246 298 355
#     4  11  23  40  63  90 122 159 199 246 298 355
#     4   9  20  40  64  90 120 157 202 250 300 353
#
# _framework density 26.014559999999999
#
# number of rings (size 3 to 8) (size 9 to 14) (size 15 to 20)
#    0.000    1.667    0.000    4.000    0.000    4.000 
#    0.000   10.000    0.000   24.000    0.000    0.000 
#    0.000    0.000    0.000    0.000    0.000    0.000 
#
# Total GULP energy -297721.517353 kJ/mol
# GULP energy per Si atom -12405.063223 kJ/mol
# Density = 2.595535 g / cm^3
# Si number density = 26.014560 Si / 1000 Ang^3
#
#
#
# Elastic Constant Matrix: (Units=GPa)
#
#
# Indices 1 2 3 4 5 6 
#
# 1 118.3322 55.1784 4.1439 0.0000 0.0000 0.0000
# 2 55.1784 118.3322 4.1439 0.0000 0.0000 0.0000
# 3 4.1439 4.1439 59.8418 0.0000 0.0000 0.0000
# 4 0.0000 0.0000 0.0000 14.4858 0.0000 0.0000
# 5 0.0000 0.0000 0.0000 0.0000 14.4858 0.0000
# 6 0.0000 0.0000 0.0000 0.0000 0.0000 35.5342
#
#
#
# Elastic Compliance Matrix: (Units=1/GPa)
#
#
# Indices 1 2 3 4 5 6 
#
# 1 0.010808 -0.005026 -0.000400 0.000000 0.000000 0.000000
# 2 -0.005026 0.010808 -0.000400 0.000000 0.000000 0.000000
# 3 -0.000400 -0.000400 0.016766 0.000000 0.000000 0.000000
# 4 0.000000 0.000000 0.000000 0.069033 0.000000 0.000000
# 5 0.000000 0.000000 0.000000 0.000000 0.069033 0.000000
# 6 0.000000 0.000000 0.000000 0.000000 0.000000 0.028142
#
#
# Mechanical properties :
#
#
# Convention : Reuss Voigt Hill
#
# Bulk Modulus (GPa) = 37.41192 47.04872 42.23032
# Shear Modulus (GPa) = 22.20695 28.43715 25.32205
#
# Velocity S-wave (km/s) = 2.92487 3.30983 3.12329
# Velocity P-wave (km/s) = 5.08123 5.72114 5.41065
#
# Compressibility (1/GPa) = 0.02672945
#
# Stress axis : x y z
#
# Youngs Moduli (GPa) = 92.52059 92.52059 59.64382
#
# Poissons Ratio (x) = 0.46500 0.02388
# Poissons Ratio (y) = 0.46500 0.02388
# Poissons Ratio (z) = 0.03705 0.03705
#
# Static dielectric constant tensor:
#      x y z
#    x 4.916760 0.000000 0.000000 
#    y 0.000000 4.916760 0.000000 
#    z 0.000000 0.000000 3.994040 
# 
# 
# High freq. dielectric constant tensor:
#      x y z
#    x 2.058250 0.000000 0.000000 
#    y 0.000000 2.058250 0.000000 
#    z 0.000000 0.000000 2.016440 
# 
# From -- ./inp_files/76.got.cif
#   From: 2010.03.12/outbox.cif.g09.slc.cpg/sg105_1_cif.got.tgz:76.got - 2010.04.14 01:45:32.
