data_PCOD8307713
_publ_section_title
;
Structure prediction by ZEFSAII (Michael W. Deem and Ramdas Pophale) SiO2 
 PCOD8307713
Probable space group: I 4 C M
;
_chemical_formula_sum "Si O2"
_cell_formula_units_Z 96
_cell_length_a 16.247028
_cell_length_b 16.247028
_cell_length_c 20.497786
_cell_angle_alpha 90.000000
_cell_angle_beta 90.000000
_cell_angle_gamma 90.000000
_cell_volume 5410.716916
_symmetry_space_group_name_H-M "I 4 C M"
_symmetry_group_IT_number 108
_symmetry_cell_setting 'tetragonal'
loop_
_space_group_symop_operation_xyz
x,y,z
-y,x,z
-x,-y,z
y,-x,z
-x,y,1/2+z
x,-y,1/2+z
-y,-x,1/2+z
y,x,1/2+z
1/2+x,1/2+y,1/2+z
1/2-y,1/2+x,1/2+z
1/2-x,1/2-y,1/2+z
1/2+y,1/2-x,1/2+z
1/2-x,1/2+y,z
1/2+x,1/2-y,z
1/2-y,1/2-x,z
1/2+y,1/2+x,z
loop_
_atom_site_type_symbol
_atom_site_label
_atom_site_fract_x
_atom_site_fract_y
_atom_site_fract_z
Si Si1 0.879846 0.943194 0.291080
Si Si2 0.571587 0.792594 0.490170
Si Si3 0.500000 0.132696 0.117302
Si Si4 0.004309 0.366624 0.367303
Si Si5 0.928416 0.707404 0.744434
Si Si6 0.943194 0.879846 0.943523
O O1 0.804028 0.906736 0.249222
O O2 0.860694 0.933612 0.367301
O O3 0.961051 0.892191 0.272710
O O4 0.655308 0.844693 0.483638
O O5 0.526206 0.809879 0.557820
O O6 0.508184 0.812432 0.431847
O O7 0.593265 0.695970 0.485382
O O8 0.575500 0.075500 0.140558
O O9 0.473798 0.190123 0.176784
O O10 0.424498 0.075503 0.094048
O O11 0.940699 0.440699 0.367303
O O12 0.991818 0.312433 0.302758
O O13 0.096719 0.403282 0.367304
O O14 0.844698 0.655303 0.750965
O O15 0.038948 0.892190 0.961893
#
# Coordination Sequence:
#
# PCOD8307713 Si02
#       6
#    16  16  16  16  16  16
#     4   9  18  34  55  75 100 136 173 208 254 312
#     4  10  18  31  52  76 103 132 167 214 257 295
#     4   9  18  32  50  73 106 146 174 197 252 322
#     4   9  16  26  44  71 100 128 161 202 248 298
#     4  10  18  31  52  76 103 132 167 214 257 295
#     4   9  18  34  55  75 100 136 173 208 254 312
#
# _framework density 17.742567000000001
#
# number of rings (size 3 to 8) (size 9 to 14) (size 15 to 20)
#    0.000    2.667    1.667    2.000    0.000    4.000 
#    0.000    5.000    0.000    6.000    0.000    0.000 
#    0.000    0.000    0.000    0.000    0.000    0.000 
#
# Total GULP energy -595157.377965 kJ/mol
# GULP energy per Si atom -12399.112041 kJ/mol
# Density = 1.770218 g / cm^3
# Si number density = 17.742567 Si / 1000 Ang^3
#
#
#
# Elastic Constant Matrix: (Units=GPa)
#
#
# Indices 1 2 3 4 5 6 
#
# 1 94.4795 29.2472 38.6848 0.0000 0.0000 0.0000
# 2 29.2472 94.4795 38.6848 0.0000 0.0000 0.0000
# 3 38.6848 38.6848 86.3450 0.0000 0.0000 0.0000
# 4 0.0000 0.0000 0.0000 24.3709 0.0000 0.0000
# 5 0.0000 0.0000 0.0000 0.0000 24.3709 0.0000
# 6 0.0000 0.0000 0.0000 0.0000 0.0000 13.4086
#
#
#
# Elastic Compliance Matrix: (Units=1/GPa)
#
#
# Indices 1 2 3 4 5 6 
#
# 1 0.013279 -0.002051 -0.005030 0.000000 0.000000 0.000000
# 2 -0.002051 0.013279 -0.005030 0.000000 0.000000 0.000000
# 3 -0.005030 -0.005030 0.016089 0.000000 0.000000 0.000000
# 4 0.000000 0.000000 0.000000 0.041032 0.000000 0.000000
# 5 0.000000 0.000000 0.000000 0.000000 0.041032 0.000000
# 6 0.000000 0.000000 0.000000 0.000000 0.000000 0.074579
#
#
# Mechanical properties :
#
#
# Convention : Reuss Voigt Hill
#
# Bulk Modulus (GPa) = 54.27932 54.28198 54.28065
# Shear Modulus (GPa) = 21.77173 23.67590 22.72381
#
# Velocity S-wave (km/s) = 3.50678 3.65692 3.58264
# Velocity P-wave (km/s) = 6.85973 6.96358 6.91185
#
# Compressibility (1/GPa) = 0.01842322
#
# Stress axis : x y z
#
# Youngs Moduli (GPa) = 75.30734 75.30734 62.15436
#
# Poissons Ratio (x) = 0.15445 0.31266
# Poissons Ratio (y) = 0.15445 0.31266
# Poissons Ratio (z) = 0.37883 0.37883
#
# Static dielectric constant tensor:
#      x y z
#    x 3.185410 0.000000 0.000000 
#    y 0.000000 3.185410 0.000000 
#    z 0.000000 0.000000 3.139970 
# 
# 
# High freq. dielectric constant tensor:
#      x y z
#    x 1.674350 0.000000 0.000000 
#    y 0.000000 1.674350 0.000000 
#    z 0.000000 0.000000 1.673230 
# 
# From -- ./inp_files/2471.got.cif
#   From: 2010.03.12/outbox.cif.g09.slc.cpg/sg108_2_cif.got.tgz:2471.got - 2010.04.14 01:53:11.
