data_PCOD8307385
_publ_section_title
;
Structure prediction by ZEFSAII (Michael W. Deem and Ramdas Pophale) SiO2 
 PCOD8307385
Probable space group: P 42 M C
;
_chemical_formula_sum "Si O2"
_cell_formula_units_Z 40
_cell_length_a 9.701436
_cell_length_b 9.701436
_cell_length_c 25.583002
_cell_angle_alpha 90.000000
_cell_angle_beta 90.000000
_cell_angle_gamma 90.000000
_cell_volume 2407.817412
_symmetry_space_group_name_H-M "P 42 M C"
_symmetry_group_IT_number 105
_symmetry_cell_setting 'tetragonal'
loop_
_space_group_symop_operation_xyz
x,y,z
-y,x,1/2+z
-x,-y,z
y,-x,1/2+z
-x,y,z
x,-y,z
-y,-x,1/2+z
y,x,1/2+z
loop_
_atom_site_type_symbol
_atom_site_label
_atom_site_fract_x
_atom_site_fract_y
_atom_site_fract_z
Si Si1 0.159191 0.840809 0.506930
Si Si2 0.659819 0.840210 0.605422
Si Si3 0.663691 0.345384 0.699241
Si Si4 0.340181 0.840209 0.908438
Si Si5 0.654616 0.663691 0.314619
O O1 0.252508 0.794412 0.555410
O O2 0.205587 0.747493 0.458450
O O3 0.000000 0.814703 0.521559
O O4 0.185296 0.000000 0.492301
O O5 0.500000 0.805264 0.594378
O O6 0.720076 0.757857 0.655179
O O7 0.680900 0.000000 0.618131
O O8 0.500000 0.339945 0.699633
O O9 0.714308 0.500000 0.686153
O O10 0.718272 0.301336 0.756930
O O11 0.500000 0.805261 0.919482
O O12 0.279924 0.757857 0.858681
O O13 0.319103 0.000000 0.895729
O O14 0.500000 0.714307 0.327707
O O15 0.660055 0.500000 0.314226
#
# Coordination Sequence:
#
# PCOD8307385 Si02
#       5
#     8   8   8   8   8
#     4   9  18  32  46  59  82 116 144 167 206 256
#     4   9  17  28  43  64  85 105 137 178 210 239
#     4   8  14  25  41  62  88 114 137 165 206 252
#     4   9  17  28  43  64  85 105 137 178 210 239
#     4   8  14  25  41  62  88 114 137 165 206 252
#
# _framework density 16.612553999999999
#
# number of rings (size 3 to 8) (size 9 to 14) (size 15 to 20)
#    0.000    3.400    0.000    1.200    0.000    2.400 
#    0.000    4.000    0.000    1.200    0.000    8.400 
#    0.000    0.000    0.000    0.000    0.000    0.000 
#
# Total GULP energy -495824.773237 kJ/mol
# GULP energy per Si atom -12395.619331 kJ/mol
# Density = 1.657474 g / cm^3
# Si number density = 16.612554 Si / 1000 Ang^3
#
#
#
# Elastic Constant Matrix: (Units=GPa)
#
#
# Indices 1 2 3 4 5 6 
#
# 1 55.3271 32.7469 73.2954 0.0000 0.0000 0.0000
# 2 32.7469 55.3271 73.2954 0.0000 0.0000 0.0000
# 3 73.2954 73.2954 183.4074 0.0000 0.0000 0.0000
# 4 0.0000 0.0000 0.0000 12.9389 0.0000 0.0000
# 5 0.0000 0.0000 0.0000 0.0000 12.9389 0.0000
# 6 0.0000 0.0000 0.0000 0.0000 0.0000 13.4030
#
#
#
# Elastic Compliance Matrix: (Units=1/GPa)
#
#
# Indices 1 2 3 4 5 6 
#
# 1 0.039097 -0.005189 -0.013551 0.000000 0.000000 0.000000
# 2 -0.005189 0.039097 -0.013551 0.000000 0.000000 0.000000
# 3 -0.013551 -0.013551 0.016283 0.000000 0.000000 0.000000
# 4 0.000000 0.000000 0.000000 0.077287 0.000000 0.000000
# 5 0.000000 0.000000 0.000000 0.000000 0.077287 0.000000
# 6 0.000000 0.000000 0.000000 0.000000 0.000000 0.074610
#
#
# Mechanical properties :
#
#
# Convention : Reuss Voigt Hill
#
# Bulk Modulus (GPa) = 33.44932 72.52635 52.98783
# Shear Modulus (GPa) = 12.55626 15.50439 14.03033
#
# Velocity S-wave (km/s) = 2.75222 3.05830 2.90929
# Velocity P-wave (km/s) = 5.50257 7.49822 6.57653
#
# Compressibility (1/GPa) = 0.02989597
#
# Stress axis : x y z
#
# Youngs Moduli (GPa) = 25.57724 25.57724 61.41415
#
# Poissons Ratio (x) = 0.13273 0.83220
# Poissons Ratio (y) = 0.13273 0.83220
# Poissons Ratio (z) = 0.34659 0.34659
#
# Static dielectric constant tensor:
#      x y z
#    x 2.984000 0.000000 0.000000 
#    y 0.000000 2.984000 0.000000 
#    z 0.000000 0.000000 3.454960 
# 
# 
# High freq. dielectric constant tensor:
#      x y z
#    x 1.616340 0.000000 0.000000 
#    y 0.000000 1.616340 0.000000 
#    z 0.000000 0.000000 1.648930 
# 
# From -- ./inp_files/4228.got.cif
#   From: 2010.03.12/outbox.cif.g09.slc.cpg/sg105_3_cif.got.tgz:4228.got - 2010.04.14 01:45:32.
