data_PCOD8307461
_publ_section_title
;
Structure prediction by ZEFSAII (Michael W. Deem and Ramdas Pophale) SiO2 
 PCOD8307461
Probable space group: P 42 B C
;
_chemical_formula_sum "Si O2"
_cell_formula_units_Z 48
_cell_length_a 9.360054
_cell_length_b 9.360054
_cell_length_c 24.731652
_cell_angle_alpha 90.000000
_cell_angle_beta 90.000000
_cell_angle_gamma 90.000000
_cell_volume 2166.755140
_symmetry_space_group_name_H-M "P 42 B C"
_symmetry_group_IT_number 106
_symmetry_cell_setting 'tetragonal'
loop_
_space_group_symop_operation_xyz
x,y,z
-y,x,1/2+z
-x,-y,z
y,-x,1/2+z
1/2-x,1/2+y,z
1/2+x,1/2-y,z
1/2-y,1/2-x,1/2+z
1/2+y,1/2+x,1/2+z
loop_
_atom_site_type_symbol
_atom_site_label
_atom_site_fract_x
_atom_site_fract_y
_atom_site_fract_z
Si Si1 0.136283 0.083530 0.443770
Si Si2 0.684940 0.090498 0.108695
Si Si3 0.648091 0.920392 0.771854
Si Si4 0.091514 0.708742 0.151747
Si Si5 0.381080 0.896987 0.485681
Si Si6 0.107617 0.117616 0.319707
O O1 0.137840 0.253251 0.451941
O O2 0.151774 0.067355 0.379632
O O3 0.247523 0.000896 0.481094
O O4 0.000000 0.000000 0.464741
O O5 0.840060 0.156222 0.120739
O O6 0.572495 0.200520 0.134278
O O7 0.650749 0.077080 0.045653
O O8 0.675335 0.935471 0.135589
O O9 0.734607 0.907578 0.715910
O O10 0.625205 0.757830 0.789637
O O11 0.500000 0.000000 0.760744
O O12 0.734319 0.017945 0.815301
O O13 0.500000 0.000000 0.459942
O O14 0.000000 0.000000 0.294359
#
# Coordination Sequence:
#
# PCOD8307461 Si02
#       6
#     8   8   8   8   8   8
#     4  11  28  45  71 104 138 186 240 287 361 424
#     4  11  24  45  68 101 138 178 230 281 347 419
#     4  12  25  46  73 100 143 183 233 297 351 422
#     4  11  24  45  68 101 138 178 230 281 347 419
#     4  12  25  46  73 100 143 183 233 297 351 422
#     4  11  28  45  71 104 138 186 240 287 361 424
#
# _framework density 22.152940999999998
#
# number of rings (size 3 to 8) (size 9 to 14) (size 15 to 20)
#    0.000    0.667    3.333    4.000   14.000    0.667 
#    0.000    0.000    0.000    0.000    0.000    0.000 
#    0.000    0.000    0.000    0.000    0.000    0.000 
#
# Total GULP energy -595030.252447 kJ/mol
# GULP energy per Si atom -12396.463593 kJ/mol
# Density = 2.210252 g / cm^3
# Si number density = 22.152941 Si / 1000 Ang^3
#
#
#
# Elastic Constant Matrix: (Units=GPa)
#
#
# Indices 1 2 3 4 5 6 
#
# 1 101.3138 26.2336 3.2936 0.0000 0.0000 0.0000
# 2 26.2336 101.3138 3.2936 0.0000 0.0000 0.0000
# 3 3.2936 3.2936 50.7479 0.0000 0.0000 0.0000
# 4 0.0000 0.0000 0.0000 25.2244 0.0000 0.0000
# 5 0.0000 0.0000 0.0000 0.0000 25.2244 0.0000
# 6 0.0000 0.0000 0.0000 0.0000 0.0000 44.7579
#
#
#
# Elastic Compliance Matrix: (Units=1/GPa)
#
#
# Indices 1 2 3 4 5 6 
#
# 1 0.010593 -0.002726 -0.000511 0.000000 0.000000 0.000000
# 2 -0.002726 0.010593 -0.000511 0.000000 0.000000 0.000000
# 3 -0.000511 -0.000511 0.019772 0.000000 0.000000 0.000000
# 4 0.000000 0.000000 0.000000 0.039644 0.000000 0.000000
# 5 0.000000 0.000000 0.000000 0.000000 0.039644 0.000000
# 6 0.000000 0.000000 0.000000 0.000000 0.000000 0.022342
#
#
# Mechanical properties :
#
#
# Convention : Reuss Voigt Hill
#
# Bulk Modulus (GPa) = 29.88424 35.44637 32.66530
# Shear Modulus (GPa) = 31.01029 33.74498 32.37764
#
# Velocity S-wave (km/s) = 3.74549 3.90715 3.82717
# Velocity P-wave (km/s) = 5.67663 6.03240 5.85722
#
# Compressibility (1/GPa) = 0.03346246
#
# Stress axis : x y z
#
# Youngs Moduli (GPa) = 94.40339 94.40339 50.57784
#
# Poissons Ratio (x) = 0.25737 0.02582
# Poissons Ratio (y) = 0.25737 0.02582
# Poissons Ratio (z) = 0.04820 0.04820
#
# Static dielectric constant tensor:
#      x y z
#    x 4.166660 0.000000 0.000000 
#    y 0.000000 4.166660 0.000000 
#    z 0.000000 0.000000 3.926650 
# 
# 
# High freq. dielectric constant tensor:
#      x y z
#    x 1.881990 0.000000 0.000000 
#    y 0.000000 1.881990 0.000000 
#    z 0.000000 0.000000 1.873110 
# 
# From -- ./inp_files/1780.got.cif
#   From: 2010.03.12/outbox.cif.g09.slc.cpg/sg106_cif.got.tgz:1780.got - 2010.04.14 01:48:02.
