data_PCOD8307484
_publ_section_title
;
Structure prediction by ZEFSAII (Michael W. Deem and Ramdas Pophale) SiO2 
 PCOD8307484
Probable space group: I 4 M M
;
_chemical_formula_sum "Si O2"
_cell_formula_units_Z 112
_cell_length_a 22.564753
_cell_length_b 22.564753
_cell_length_c 13.690451
_cell_angle_alpha 90.000000
_cell_angle_beta 90.000000
_cell_angle_gamma 90.000000
_cell_volume 6970.740622
_symmetry_space_group_name_H-M "I 4 M M"
_symmetry_group_IT_number 107
_symmetry_cell_setting 'tetragonal'
loop_
_space_group_symop_operation_xyz
x,y,z
-y,x,z
-x,-y,z
y,-x,z
-x,y,z
x,-y,z
-y,-x,z
y,x,z
1/2+x,1/2+y,1/2+z
1/2-y,1/2+x,1/2+z
1/2-x,1/2-y,1/2+z
1/2+y,1/2-x,1/2+z
1/2-x,1/2+y,1/2+z
1/2+x,1/2-y,1/2+z
1/2-y,1/2-x,1/2+z
1/2+y,1/2+x,1/2+z
loop_
_atom_site_type_symbol
_atom_site_label
_atom_site_fract_x
_atom_site_fract_y
_atom_site_fract_z
Si Si1 0.731946 0.361399 0.027190
Si Si2 0.932657 0.376601 0.469499
Si Si3 0.321345 0.892196 0.666092
Si Si4 0.236407 0.670929 0.475335
Si Si5 0.756731 0.660214 0.693565
Si Si6 0.247147 0.566830 0.856883
Si Si7 0.565395 0.825686 0.374118
O O1 0.677927 0.322074 0.064151
O O2 0.755477 0.399422 0.119185
O O3 0.786908 0.320847 0.988297
O O4 0.710651 0.403985 0.939592
O O5 0.908916 0.367411 0.580126
O O6 0.930024 0.318687 0.401238
O O7 0.890649 0.425142 0.419957
O O8 0.000000 0.400393 0.474040
O O9 0.325991 0.825719 0.707854
O O10 0.330308 0.935595 0.756651
O O11 0.290395 0.709606 0.429630
O O12 0.256331 0.645759 0.580612
O O13 0.221255 0.615334 0.407227
O O14 0.716392 0.716392 0.727905
O O15 0.743121 0.602312 0.757027
O O16 0.267038 0.500000 0.835722
O O17 0.500000 0.803885 0.406518
#
# Coordination Sequence:
#
# PCOD8307484 Si02
#       7
#    16  16  16  16  16  16  16
#     4   9  16  30  52  72  91 120 164 200 246 302
#     4  10  20  36  49  63  95 134 172 211 242 278
#     4  10  18  33  48  73  93 122 160 212 258 289
#     4   9  18  33  49  70  95 124 159 207 255 296
#     4  10  17  29  51  74  95 121 164 206 252 301
#     4  10  18  28  46  69 101 134 160 196 243 290
#     4  12  22  33  50  72  97 131 170 206 246 293
#
# _framework density 16.067160000000001
#
# number of rings (size 3 to 8) (size 9 to 14) (size 15 to 20)
#    0.000    2.000    5.714    2.143    0.000    3.714 
#    0.000    0.714    0.000    1.714    0.000    0.000 
#    0.000    4.857    0.000    7.143    0.000    0.714 
#
# Total GULP energy -693958.625680 kJ/mol
# GULP energy per Si atom -12392.118316 kJ/mol
# Density = 1.603059 g / cm^3
# Si number density = 16.067160 Si / 1000 Ang^3
#
#
#
# Elastic Constant Matrix: (Units=GPa)
#
#
# Indices 1 2 3 4 5 6 
#
# 1 72.5129 44.5036 36.4046 0.0000 0.0000 0.0000
# 2 44.5036 72.5129 36.4046 0.0000 0.0000 0.0000
# 3 36.4046 36.4046 88.5461 0.0000 0.0000 0.0000
# 4 0.0000 0.0000 0.0000 17.9519 0.0000 0.0000
# 5 0.0000 0.0000 0.0000 0.0000 17.9519 0.0000
# 6 0.0000 0.0000 0.0000 0.0000 0.0000 14.3432
#
#
#
# Elastic Compliance Matrix: (Units=1/GPa)
#
#
# Indices 1 2 3 4 5 6 
#
# 1 0.023593 -0.012110 -0.004721 0.000000 0.000000 0.000000
# 2 -0.012110 0.023593 -0.004721 0.000000 0.000000 0.000000
# 3 -0.004721 -0.004721 0.015176 0.000000 0.000000 0.000000
# 4 0.000000 0.000000 0.000000 0.055704 0.000000 0.000000
# 5 0.000000 0.000000 0.000000 0.000000 0.055704 0.000000
# 6 0.000000 0.000000 0.000000 0.000000 0.000000 0.069719
#
#
# Mechanical properties :
#
#
# Convention : Reuss Voigt Hill
#
# Bulk Modulus (GPa) = 51.92773 52.02194 51.97484
# Shear Modulus (GPa) = 17.06408 17.80001 17.43204
#
# Velocity S-wave (km/s) = 3.26244 3.33205 3.29743
# Velocity P-wave (km/s) = 6.82501 6.87397 6.84953
#
# Compressibility (1/GPa) = 0.01925753
#
# Stress axis : x y z
#
# Youngs Moduli (GPa) = 42.38552 42.38552 65.89477
#
# Poissons Ratio (x) = 0.51327 0.31111
# Poissons Ratio (y) = 0.51327 0.31111
# Poissons Ratio (z) = 0.20011 0.20011
#
# Static dielectric constant tensor:
#      x y z
#    x 2.907080 0.000000 0.000000 
#    y 0.000000 2.907080 0.000000 
#    z 0.000000 0.000000 3.184920 
# 
# 
# High freq. dielectric constant tensor:
#      x y z
#    x 1.587310 0.000000 0.000000 
#    y 0.000000 1.587310 0.000000 
#    z 0.000000 0.000000 1.629740 
# 
# From -- ./inp_files/2580.got.cif
#   From: 2010.03.12/outbox.cif.g09.slc.cpg/sg107_2_cif.got.tgz:2580.got - 2010.04.14 01:49:11.
