data_PCOD8307830
_publ_section_title
;
Structure prediction by ZEFSAII (Michael W. Deem and Ramdas Pophale) SiO2 
 PCOD8307830
Probable space group: I 41 M D
;
_chemical_formula_sum "Si O2"
_cell_formula_units_Z 76
_cell_length_a 12.157485
_cell_length_b 12.157485
_cell_length_c 29.444377
_cell_angle_alpha 90.000000
_cell_angle_beta 90.000000
_cell_angle_gamma 90.000000
_cell_volume 4352.009699
_symmetry_space_group_name_H-M "I 41 M D"
_symmetry_group_IT_number 109
_symmetry_cell_setting 'tetragonal'
loop_
_space_group_symop_operation_xyz
x,y,z
-y,1/2+x,1/4+z
-x,-y,z
y,1/2-x,1/4+z
-x,y,z
x,-y,z
-y,1/2-x,1/4+z
y,1/2+x,1/4+z
1/2+x,1/2+y,1/2+z
1/2-y,x,3/4+z
1/2-x,1/2-y,1/2+z
1/2+y,-x,3/4+z
1/2-x,1/2+y,1/2+z
1/2+x,1/2-y,1/2+z
1/2-y,-x,3/4+z
1/2+y,x,3/4+z
loop_
_atom_site_type_symbol
_atom_site_label
_atom_site_fract_x
_atom_site_fract_y
_atom_site_fract_z
Si Si1 0.223941 0.500000 0.817190
Si Si2 0.224040 0.758496 0.524438
Si Si3 0.127083 0.128951 0.089625
Si Si4 0.260471 0.500000 0.007483
Si Si5 0.736551 0.125841 0.177662
Si Si6 0.000000 0.000000 0.519265
Si Si7 0.500000 0.797041 0.164150
O O1 0.280360 0.611030 0.798322
O O2 0.099817 0.500000 0.802883
O O3 0.219694 0.500000 0.870840
O O4 0.322058 0.686566 0.544979
O O5 0.258859 0.887252 0.535133
O O6 0.207516 0.741352 0.470357
O O7 0.186758 0.166269 0.136110
O O8 0.000000 0.163241 0.093240
O O9 0.142027 0.000000 0.082309
O O10 0.389928 0.500000 0.989434
O O11 0.209179 0.500000 0.956842
O O12 0.610077 0.129266 0.162277
O O13 0.764501 0.000000 0.191833
#
# Coordination Sequence:
#
# PCOD8307830 Si02
#       7
#     8  16  16   8  16   4   8
#     4  10  16  29  50  81 104 137 174 211 258 312
#     4  10  18  34  55  80 107 139 174 215 261 318
#     4  10  22  38  54  73 102 146 184 219 261 310
#     4   8  18  28  51  76 106 136 167 209 265 308
#     4  10  19  31  53  81 111 134 164 214 273 320
#     4   8  16  28  46  70 104 146 162 196 258 330
#     4  10  17  26  50  82 110 134 167 206 259 323
#
# _framework density 17.463194999999999
#
# number of rings (size 3 to 8) (size 9 to 14) (size 15 to 20)
#    0.000    2.316    3.158    0.316    4.421    0.842 
#    0.000    1.053   11.579    0.000    0.000    0.000 
#    0.000    0.000    0.000    0.000    0.000    0.000 
#
# Total GULP energy -470812.071830 kJ/mol
# GULP energy per Si atom -12389.791364 kJ/mol
# Density = 1.742345 g / cm^3
# Si number density = 17.463195 Si / 1000 Ang^3
#
#
#
# Elastic Constant Matrix: (Units=GPa)
#
#
# Indices 1 2 3 4 5 6 
#
# 1 83.1466 37.1057 47.3000 0.0000 0.0000 0.0000
# 2 37.1057 83.1466 47.3000 0.0000 0.0000 0.0000
# 3 47.3000 47.3000 111.1202 0.0000 0.0000 0.0000
# 4 0.0000 0.0000 0.0000 48.8607 0.0000 0.0000
# 5 0.0000 0.0000 0.0000 0.0000 48.8607 0.0000
# 6 0.0000 0.0000 0.0000 0.0000 0.0000 23.7483
#
#
#
# Elastic Compliance Matrix: (Units=1/GPa)
#
#
# Indices 1 2 3 4 5 6 
#
# 1 0.017111 -0.004609 -0.005322 0.000000 0.000000 0.000000
# 2 -0.004609 0.017111 -0.005322 0.000000 0.000000 0.000000
# 3 -0.005322 -0.005322 0.013530 0.000000 0.000000 0.000000
# 4 0.000000 0.000000 0.000000 0.020466 0.000000 0.000000
# 5 0.000000 0.000000 0.000000 0.000000 0.020466 0.000000
# 6 0.000000 0.000000 0.000000 0.000000 0.000000 0.042108
#
#
# Mechanical properties :
#
#
# Convention : Reuss Voigt Hill
#
# Bulk Modulus (GPa) = 57.97979 60.09165 59.03572
# Shear Modulus (GPa) = 29.93168 34.00777 31.96973
#
# Velocity S-wave (km/s) = 4.14452 4.41772 4.28330
# Velocity P-wave (km/s) = 7.49506 7.77861 7.63815
#
# Compressibility (1/GPa) = 0.01724739
#
# Stress axis : x y z
#
# Youngs Moduli (GPa) = 58.44146 58.44146 73.91017
#
# Poissons Ratio (x) = 0.26934 0.39334
# Poissons Ratio (y) = 0.26934 0.39334
# Poissons Ratio (z) = 0.31102 0.31102
#
# Static dielectric constant tensor:
#      x y z
#    x 3.108830 0.000000 0.000000 
#    y 0.000000 3.108830 0.000000 
#    z 0.000000 0.000000 3.276930 
# 
# 
# High freq. dielectric constant tensor:
#      x y z
#    x 1.654200 0.000000 0.000000 
#    y 0.000000 1.654200 0.000000 
#    z 0.000000 0.000000 1.680980 
# 
# From -- ./inp_files/5532.got.cif
#   From: 2010.03.12/outbox.cif.g09.slc.cpg/sg109_3_cif.got.tgz:5532.got - 2010.04.14 01:55:16.
