data_PCOD8307332
_publ_section_title
;
Structure prediction by ZEFSAII (Michael W. Deem and Ramdas Pophale) SiO2 
 PCOD8307332
Probable space group: P 42 M C
;
_chemical_formula_sum "Si O2"
_cell_formula_units_Z 48
_cell_length_a 8.190106
_cell_length_b 8.190106
_cell_length_c 33.558082
_cell_angle_alpha 90.000000
_cell_angle_beta 90.000000
_cell_angle_gamma 90.000000
_cell_volume 2251.003531
_symmetry_space_group_name_H-M "P 42 M C"
_symmetry_group_IT_number 105
_symmetry_cell_setting 'tetragonal'
loop_
_space_group_symop_operation_xyz
x,y,z
-y,x,1/2+z
-x,-y,z
y,-x,1/2+z
-x,y,z
x,-y,z
-y,-x,1/2+z
y,x,1/2+z
loop_
_atom_site_type_symbol
_atom_site_label
_atom_site_fract_x
_atom_site_fract_y
_atom_site_fract_z
Si Si1 0.685792 0.184069 0.500000
Si Si2 0.317484 0.812154 0.920497
Si Si3 0.500000 0.305423 0.799094
Si Si4 0.182799 0.811735 0.663762
Si Si5 0.806243 0.500000 0.209048
Si Si6 0.689258 0.179075 0.343337
Si Si7 0.314371 0.815509 0.078993
O O1 0.500000 0.193399 0.485535
O O2 0.795214 0.266148 0.466276
O O3 0.699624 0.275068 0.542053
O O4 0.746039 0.000000 0.506110
O O5 0.500000 0.742932 0.915380
O O6 0.200063 0.714110 0.890731
O O7 0.308584 0.000000 0.908422
O O8 0.500000 0.500000 0.801862
O O9 0.500000 0.245295 0.754405
O O10 0.334898 0.233093 0.819988
O O11 0.332660 0.733434 0.689225
O O12 0.228653 0.794141 0.617293
O O13 0.000000 0.733269 0.672208
O O14 0.171215 0.000000 0.674857
O O15 0.000000 0.500000 0.203791
O O16 0.500000 0.174489 0.333456
O O17 0.763571 0.000000 0.330834
O O18 0.500000 0.789709 0.092295
O O19 0.280234 0.000000 0.064893
#
# Coordination Sequence:
#
# PCOD8307332 Si02
#       7
#     8   8   4   8   4   8   8
#     4  11  24  38  54  80 114 154 199 243 289 348
#     4  11  23  38  58  85 117 152 194 244 297 352
#     4  10  22  40  60  88 122 154 190 244 304 354
#     4   9  19  37  59  83 115 155 194 241 300 355
#     4  10  22  38  60  88 118 152 198 246 292 362
#     4  10  21  39  63  88 116 155 199 241 295 361
#     4  10  21  37  57  83 114 148 191 243 297 351
#
# _framework density 21.323820000000001
#
# number of rings (size 3 to 8) (size 9 to 14) (size 15 to 20)
#    0.000    1.833    0.833    2.500    1.167    9.667 
#    0.000    0.000    0.000    0.000    0.000    0.000 
#    0.000    0.000    0.000    0.000    0.000    0.000 
#
# Total GULP energy -595057.668936 kJ/mol
# GULP energy per Si atom -12397.034769 kJ/mol
# Density = 2.127529 g / cm^3
# Si number density = 21.323820 Si / 1000 Ang^3
#
#
#
# Elastic Constant Matrix: (Units=GPa)
#
#
# Indices 1 2 3 4 5 6 
#
# 1 90.3081 29.5692 38.8515 0.0000 0.0000 0.0000
# 2 29.5692 90.3081 38.8515 0.0000 0.0000 0.0000
# 3 38.8515 38.8515 127.6855 0.0000 0.0000 0.0000
# 4 0.0000 0.0000 0.0000 33.8869 0.0000 0.0000
# 5 0.0000 0.0000 0.0000 0.0000 33.8869 0.0000
# 6 0.0000 0.0000 0.0000 0.0000 0.0000 16.1936
#
#
#
# Elastic Compliance Matrix: (Units=1/GPa)
#
#
# Indices 1 2 3 4 5 6 
#
# 1 0.013428 -0.003036 -0.003162 0.000000 0.000000 0.000000
# 2 -0.003036 0.013428 -0.003162 0.000000 0.000000 0.000000
# 3 -0.003162 -0.003162 0.009756 0.000000 0.000000 0.000000
# 4 0.000000 0.000000 0.000000 0.029510 0.000000 0.000000
# 5 0.000000 0.000000 0.000000 0.000000 0.029510 0.000000
# 6 0.000000 0.000000 0.000000 0.000000 0.000000 0.061753
#
#
# Mechanical properties :
#
#
# Convention : Reuss Voigt Hill
#
# Bulk Modulus (GPa) = 55.89330 58.09399 56.99365
# Shear Modulus (GPa) = 27.46240 30.19547 28.82893
#
# Velocity S-wave (km/s) = 3.59259 3.76712 3.68089
# Velocity P-wave (km/s) = 6.59375 6.79885 6.69709
#
# Compressibility (1/GPa) = 0.01789123
#
# Stress axis : x y z
#
# Youngs Moduli (GPa) = 74.47343 74.47343 102.50242
#
# Poissons Ratio (x) = 0.22612 0.32409
# Poissons Ratio (y) = 0.22612 0.32409
# Poissons Ratio (z) = 0.23547 0.23547
#
# Static dielectric constant tensor:
#      x y z
#    x 4.023730 0.000000 0.000000 
#    y 0.000000 4.023730 0.000000 
#    z 0.000000 0.000000 3.664630 
# 
# 
# High freq. dielectric constant tensor:
#      x y z
#    x 1.833820 0.000000 0.000000 
#    y 0.000000 1.833820 0.000000 
#    z 0.000000 0.000000 1.826700 
# 
# From -- ./inp_files/4858.got.cif
#   From: 2010.03.12/outbox.cif.g09.slc.cpg/sg105_3_cif.got.tgz:4858.got - 2010.04.14 01:45:32.
