data_PCOD8307703
_publ_section_title
;
Structure prediction by ZEFSAII (Michael W. Deem and Ramdas Pophale) SiO2 
 PCOD8307703
Probable space group: I 4 C M
;
_chemical_formula_sum "Si O2"
_cell_formula_units_Z 64
_cell_length_a 23.699298
_cell_length_b 23.699298
_cell_length_c 5.305532
_cell_angle_alpha 90.000000
_cell_angle_beta 90.000000
_cell_angle_gamma 90.000000
_cell_volume 2979.887731
_symmetry_space_group_name_H-M "I 4 C M"
_symmetry_group_IT_number 108
_symmetry_cell_setting 'tetragonal'
loop_
_space_group_symop_operation_xyz
x,y,z
-y,x,z
-x,-y,z
y,-x,z
-x,y,1/2+z
x,-y,1/2+z
-y,-x,1/2+z
y,x,1/2+z
1/2+x,1/2+y,1/2+z
1/2-y,1/2+x,1/2+z
1/2-x,1/2-y,1/2+z
1/2+y,1/2-x,1/2+z
1/2-x,1/2+y,z
1/2+x,1/2-y,z
1/2-y,1/2-x,z
1/2+y,1/2+x,z
loop_
_atom_site_type_symbol
_atom_site_label
_atom_site_fract_x
_atom_site_fract_y
_atom_site_fract_z
Si Si1 0.336048 0.251248 0.670290
Si Si2 0.884683 0.856371 0.670293
Si Si3 0.533996 0.873957 0.170309
Si Si4 0.264519 0.901389 0.670291
O O1 0.271637 0.228364 0.670300
O O2 0.334670 0.319137 0.670291
O O3 0.366513 0.225690 0.425311
O O4 0.366518 0.225690 0.915260
O O5 0.894430 0.894430 0.420293
O O6 0.924020 0.800887 0.670295
O O7 0.500000 0.891062 0.920310
O O8 0.593164 0.906837 0.170310
O O9 0.545943 0.806884 0.170303
#
# Coordination Sequence:
#
# PCOD8307703 Si02
#       4
#    16  16  16  16
#     4  10  17  26  44  70  97 119 133 150 191 258
#     4   8  16  26  41  67  96 120 135 150 187 251
#     4  12  26  42  58  71  83 107 149 206 268 312
#     4  10  20  33  48  67  90 112 137 172 219 278
#
# _framework density 21.477319999999999
#
# number of rings (size 3 to 8) (size 9 to 14) (size 15 to 20)
#    0.000    2.000    0.000    4.500    0.000   11.500 
#    0.000    0.000    0.000    0.000    0.000    0.000 
#    0.000    0.000    0.000    0.000    0.000    0.000 
#
# Total GULP energy -396540.018290 kJ/mol
# GULP energy per Si atom -12391.875572 kJ/mol
# Density = 2.142844 g / cm^3
# Si number density = 21.477320 Si / 1000 Ang^3
#
#
#
# Elastic Constant Matrix: (Units=GPa)
#
#
# Indices 1 2 3 4 5 6 
#
# 1 24.3649 28.3087 19.9705 0.0000 0.0000 0.0007
# 2 28.3087 24.3649 19.9705 0.0000 0.0000 -0.0007
# 3 19.9705 19.9705 220.4911 0.0000 0.0000 0.0000
# 4 0.0000 0.0000 0.0000 15.8846 0.0000 0.0000
# 5 0.0000 0.0000 0.0000 0.0000 15.8846 0.0000
# 6 0.0007 -0.0007 0.0000 0.0000 0.0000 24.6756
#
#
#
# Elastic Compliance Matrix: (Units=1/GPa)
#
#
# Indices 1 2 3 4 5 6 
#
# 1 -0.116589 0.136974 -0.001846 0.000000 0.000000 0.000007
# 2 0.136974 -0.116589 -0.001846 0.000000 0.000000 -0.000007
# 3 -0.001846 -0.001846 0.004870 0.000000 0.000000 0.000000
# 4 0.000000 0.000000 0.000000 0.062954 0.000000 0.000000
# 5 0.000000 0.000000 0.000000 0.000000 0.062954 0.000000
# 6 0.000007 -0.000007 0.000000 0.000000 0.000000 0.040526
#
#
# Mechanical properties :
#
#
# Convention : Reuss Voigt Hill
#
# Bulk Modulus (GPa) = 26.14089 45.08004 35.61046
# Shear Modulus (GPa) = -15.83848 24.68703 4.42428
#
# Velocity S-wave (km/s) = -2.71855 3.39403 1.43682
# Velocity P-wave (km/s) = 1.53094 6.03278 4.40103
#
# Compressibility (1/GPa) = 0.03825425
#
# Stress axis : x y z
#
# Youngs Moduli (GPa) = -8.57711 -8.57711 205.34790
#
# Poissons Ratio (x) = 1.17484 0.37914
# Poissons Ratio (y) = 1.17484 0.37914
# Poissons Ratio (z) = -0.01584 -0.01584
#
# Static dielectric constant tensor:
#      x y z
#    x 3.328480 0.000000 0.000000 
#    y 0.000000 3.328480 0.000000 
#    z 0.000000 0.000000 5.776890 
# 
# 
# High freq. dielectric constant tensor:
#      x y z
#    x 1.787150 0.000000 0.000000 
#    y 0.000000 1.787150 0.000000 
#    z 0.000000 0.000000 1.894110 
# 
# From -- ./inp_files/133.got.cif
#   From: 2010.03.12/outbox.cif.g09.slc.cpg/sg108_1_cif.got.tgz:133.got - 2010.04.14 01:53:11.
