data_PCOD8307389
_publ_section_title
;
Structure prediction by ZEFSAII (Michael W. Deem and Ramdas Pophale) SiO2 
 PCOD8307389
Probable space group: P 42 M C
;
_chemical_formula_sum "Si O2"
_cell_formula_units_Z 48
_cell_length_a 9.114014
_cell_length_b 9.114014
_cell_length_c 31.345678
_cell_angle_alpha 90.000000
_cell_angle_beta 90.000000
_cell_angle_gamma 90.000000
_cell_volume 2603.736617
_symmetry_space_group_name_H-M "P 42 M C"
_symmetry_group_IT_number 105
_symmetry_cell_setting 'tetragonal'
loop_
_space_group_symop_operation_xyz
x,y,z
-y,x,1/2+z
-x,-y,z
y,-x,1/2+z
-x,y,z
x,-y,z
-y,-x,1/2+z
y,x,1/2+z
loop_
_atom_site_type_symbol
_atom_site_label
_atom_site_fract_x
_atom_site_fract_y
_atom_site_fract_z
Si Si1 0.325275 0.165559 0.579900
Si Si2 0.334119 0.675030 0.997146
Si Si3 0.165890 0.674917 0.913969
Si Si4 0.674725 0.834441 0.248038
Si Si5 0.670837 0.329163 0.163969
Si Si6 0.334119 0.324970 0.830792
O O1 0.500000 0.167609 0.578900
O O2 0.263334 0.253450 0.539188
O O3 0.268916 0.242579 0.622958
O O4 0.264905 0.000000 0.578274
O O5 0.500000 0.735137 0.996379
O O6 0.333840 0.500000 0.997333
O O7 0.249094 0.734964 0.955705
O O8 0.165487 0.500000 0.913969
O O9 0.249094 0.734964 0.872233
O O10 0.000000 0.735384 0.913969
O O11 0.500000 0.832391 0.249038
O O12 0.731084 0.757421 0.204980
O O13 0.736666 0.746550 0.288750
O O14 0.735095 0.000000 0.249663
O O15 0.500000 0.299036 0.155823
O O16 0.700964 0.500000 0.172115
O O17 0.500000 0.264863 0.831559
O O18 0.333840 0.500000 0.830605
#
# Coordination Sequence:
#
# PCOD8307389 Si02
#       6
#     8   8   8   8   8   8
#     4   9  16  25  37  53  73  98 130 169 212 257
#     4   9  15  22  32  47  69  99 136 176 216 259
#     4   9  15  21  29  43  67 101 140 179 218 261
#     4   9  16  25  37  53  73  98 130 169 212 257
#     4   9  16  26  40  57  76 100 132 169 208 252
#     4   9  15  22  32  47  69  99 136 176 216 259
#
# _framework density 18.435044000000001
#
# number of rings (size 3 to 8) (size 9 to 14) (size 15 to 20)
#    0.000    3.000    0.000    2.500    0.000   10.000 
#    0.000    0.000    0.000    0.500    0.000    0.000 
#    0.000    0.000    0.000    1.500    0.000   32.667 
#
# Total GULP energy -595125.489123 kJ/mol
# GULP energy per Si atom -12398.447690 kJ/mol
# Density = 1.839308 g / cm^3
# Si number density = 18.435044 Si / 1000 Ang^3
#
#
#
# Elastic Constant Matrix: (Units=GPa)
#
#
# Indices 1 2 3 4 5 6 
#
# 1 82.4391 23.1135 65.8457 0.0000 0.0000 0.0000
# 2 23.1135 82.4391 65.8457 0.0000 0.0000 0.0000
# 3 65.8457 65.8457 218.4440 0.0000 0.0000 0.0000
# 4 0.0000 0.0000 0.0000 5.2921 0.0000 0.0000
# 5 0.0000 0.0000 0.0000 0.0000 5.2921 0.0000
# 6 0.0000 0.0000 0.0000 0.0000 0.0000 3.1547
#
#
#
# Elastic Compliance Matrix: (Units=1/GPa)
#
#
# Indices 1 2 3 4 5 6 
#
# 1 0.016020 -0.000836 -0.004577 0.000000 0.000000 0.000000
# 2 -0.000836 0.016020 -0.004577 0.000000 0.000000 0.000000
# 3 -0.004577 -0.004577 0.007337 0.000000 0.000000 0.000000
# 4 0.000000 0.000000 0.000000 0.188961 0.000000 0.000000
# 5 0.000000 0.000000 0.000000 0.000000 0.188961 0.000000
# 6 0.000000 0.000000 0.000000 0.000000 0.000000 0.316986
#
#
# Mechanical properties :
#
#
# Convention : Reuss Voigt Hill
#
# Bulk Modulus (GPa) = 51.55211 76.99243 64.27227
# Shear Modulus (GPa) = 6.57262 17.98227 12.27744
#
# Velocity S-wave (km/s) = 1.89024 3.12659 2.58347
# Velocity P-wave (km/s) = 5.72616 7.40871 6.62110
#
# Compressibility (1/GPa) = 0.01939785
#
# Stress axis : x y z
#
# Youngs Moduli (GPa) = 62.42081 62.42081 136.29251
#
# Poissons Ratio (x) = 0.05217 0.62382
# Poissons Ratio (y) = 0.05217 0.62382
# Poissons Ratio (z) = 0.28570 0.28570
#
# Static dielectric constant tensor:
#      x y z
#    x 3.017450 0.000000 0.000000 
#    y 0.000000 3.017450 0.000000 
#    z 0.000000 0.000000 3.675490 
# 
# 
# High freq. dielectric constant tensor:
#      x y z
#    x 1.668330 0.000000 0.000000 
#    y 0.000000 1.668330 0.000000 
#    z 0.000000 0.000000 1.737540 
# 
# From -- ./inp_files/4660.got.cif
#   From: 2010.03.12/outbox.cif.g09.slc.cpg/sg105_3_cif.got.tgz:4660.got - 2010.04.14 01:45:32.
