data_PCOD8307304
_publ_section_title
;
Structure prediction by ZEFSAII (Michael W. Deem and Ramdas Pophale) SiO2 
 PCOD8307304
Probable space group: P 42 M C
;
_chemical_formula_sum "Si O2"
_cell_formula_units_Z 48
_cell_length_a 9.392580
_cell_length_b 9.392580
_cell_length_c 30.748971
_cell_angle_alpha 90.000000
_cell_angle_beta 90.000000
_cell_angle_gamma 90.000000
_cell_volume 2712.691412
_symmetry_space_group_name_H-M "P 42 M C"
_symmetry_group_IT_number 105
_symmetry_cell_setting 'tetragonal'
loop_
_space_group_symop_operation_xyz
x,y,z
-y,x,1/2+z
-x,-y,z
y,-x,1/2+z
-x,y,z
x,-y,z
-y,-x,1/2+z
y,x,1/2+z
loop_
_atom_site_type_symbol
_atom_site_label
_atom_site_fract_x
_atom_site_fract_y
_atom_site_fract_z
Si Si1 0.330289 0.840094 0.251470
Si Si2 0.664084 0.834680 0.584007
Si Si3 0.668698 0.342425 0.330809
Si Si4 0.332026 0.662569 0.928343
Si Si5 0.334284 0.664609 0.168686
Si Si6 0.165734 0.833920 0.499474
O O1 0.500000 0.839692 0.252763
O O2 0.268439 0.765447 0.294932
O O3 0.276332 0.755224 0.209247
O O4 0.269987 0.000000 0.249572
O O5 0.500000 0.800868 0.573050
O O6 0.716042 0.748516 0.626006
O O7 0.758062 0.782864 0.543548
O O8 0.688140 0.000000 0.593951
O O9 0.500000 0.351517 0.326483
O O10 0.732502 0.500000 0.322361
O O11 0.707734 0.289771 0.379243
O O12 0.500000 0.677907 0.935330
O O13 0.284415 0.500000 0.937734
O O14 0.251017 0.769835 0.959425
O O15 0.500000 0.692353 0.160316
O O16 0.303361 0.500000 0.179098
O O17 0.000000 0.798113 0.503537
O O18 0.193743 0.000000 0.491404
#
# Coordination Sequence:
#
# PCOD8307304 Si02
#       6
#     8   8   8   8   8   8
#     4   9  16  25  40  66  97 124 152 189 232 277
#     4   9  18  33  51  69  91 122 160 199 237 281
#     4   8  14  26  44  66  93 123 153 188 232 279
#     4   9  18  32  51  75  99 124 159 202 244 287
#     4   9  17  29  46  68  93 121 152 189 235 282
#     4  10  21  35  50  70  97 129 162 196 240 293
#
# _framework density 17.694603000000001
#
# number of rings (size 3 to 8) (size 9 to 14) (size 15 to 20)
#    0.000    3.000    0.000    2.000    0.000    5.333 
#    0.000    3.333    0.000    1.000    0.000    2.333 
#    0.000    0.000    0.000    0.000    0.000    0.000 
#
# Total GULP energy -595159.203578 kJ/mol
# GULP energy per Si atom -12399.150075 kJ/mol
# Density = 1.765433 g / cm^3
# Si number density = 17.694603 Si / 1000 Ang^3
#
#
#
# Elastic Constant Matrix: (Units=GPa)
#
#
# Indices 1 2 3 4 5 6 
#
# 1 68.7952 36.1331 72.5104 0.0000 0.0000 0.0000
# 2 36.1331 68.7952 72.5104 0.0000 0.0000 0.0000
# 3 72.5104 72.5104 180.0017 0.0000 0.0000 0.0000
# 4 0.0000 0.0000 0.0000 5.8711 0.0000 0.0000
# 5 0.0000 0.0000 0.0000 0.0000 5.8711 0.0000
# 6 0.0000 0.0000 0.0000 0.0000 0.0000 18.3638
#
#
#
# Elastic Compliance Matrix: (Units=1/GPa)
#
#
# Indices 1 2 3 4 5 6 
#
# 1 0.026059 -0.004558 -0.008661 0.000000 0.000000 0.000000
# 2 -0.004558 0.026059 -0.008661 0.000000 0.000000 0.000000
# 3 -0.008661 -0.008661 0.012534 0.000000 0.000000 0.000000
# 4 0.000000 0.000000 0.000000 0.170326 0.000000 0.000000
# 5 0.000000 0.000000 0.000000 0.000000 0.170326 0.000000
# 6 0.000000 0.000000 0.000000 0.000000 0.000000 0.054455
#
#
# Mechanical properties :
#
#
# Convention : Reuss Voigt Hill
#
# Bulk Modulus (GPa) = 47.86863 75.54446 61.70654
# Shear Modulus (GPa) = 9.79466 15.11707 12.45587
#
# Velocity S-wave (km/s) = 2.35529 2.92607 2.65606
# Velocity P-wave (km/s) = 5.87435 7.36220 6.65995
#
# Compressibility (1/GPa) = 0.02089051
#
# Stress axis : x y z
#
# Youngs Moduli (GPa) = 38.37474 38.37474 79.78540
#
# Poissons Ratio (x) = 0.17490 0.69105
# Poissons Ratio (y) = 0.17490 0.69105
# Poissons Ratio (z) = 0.33238 0.33238
#
# Static dielectric constant tensor:
#      x y z
#    x 3.138370 0.000000 0.000000 
#    y 0.000000 3.138370 0.000000 
#    z 0.000000 0.000000 3.474860 
# 
# 
# High freq. dielectric constant tensor:
#      x y z
#    x 1.661500 0.000000 0.000000 
#    y 0.000000 1.661500 0.000000 
#    z 0.000000 0.000000 1.697850 
# 
# From -- ./inp_files/4683.got.cif
#   From: 2010.03.12/outbox.cif.g09.slc.cpg/sg105_3_cif.got.tgz:4683.got - 2010.04.14 01:45:32.
