data_PCOD8307802
_publ_section_title
;
Structure prediction by ZEFSAII (Michael W. Deem and Ramdas Pophale) SiO2 
 PCOD8307802
Probable space group: I 4 C M
;
_chemical_formula_sum "Si O2"
_cell_formula_units_Z 96
_cell_length_a 14.971707
_cell_length_b 14.971707
_cell_length_c 23.977238
_cell_angle_alpha 90.000000
_cell_angle_beta 90.000000
_cell_angle_gamma 90.000000
_cell_volume 5374.546104
_symmetry_space_group_name_H-M "I 4 C M"
_symmetry_group_IT_number 108
_symmetry_cell_setting 'tetragonal'
loop_
_space_group_symop_operation_xyz
x,y,z
-y,x,z
-x,-y,z
y,-x,z
-x,y,1/2+z
x,-y,1/2+z
-y,-x,1/2+z
y,x,1/2+z
1/2+x,1/2+y,1/2+z
1/2-y,1/2+x,1/2+z
1/2-x,1/2-y,1/2+z
1/2+y,1/2-x,1/2+z
1/2-x,1/2+y,z
1/2+x,1/2-y,z
1/2-y,1/2-x,z
1/2+y,1/2+x,z
loop_
_atom_site_type_symbol
_atom_site_label
_atom_site_fract_x
_atom_site_fract_y
_atom_site_fract_z
Si Si1 0.891808 0.754428 0.102290
Si Si2 0.642749 0.000001 0.015753
Si Si3 0.140106 0.042169 0.702427
Si Si4 0.957830 0.859894 0.329081
Si Si5 0.891806 0.754429 0.429218
Si Si6 0.104476 0.104475 0.515754
O O1 0.806009 0.693992 0.113189
O O2 0.858405 0.844151 0.070168
O O3 0.967209 0.703574 0.066672
O O4 0.934308 0.778801 0.161680
O O5 0.581312 0.918689 0.037920
O O6 0.581314 0.081314 0.993586
O O7 0.703574 0.967208 0.964835
O O8 0.174154 0.052375 0.765754
O O9 0.108930 0.941602 0.690839
O O10 0.891070 0.941603 0.340669
O O11 0.934306 0.778802 0.369827
O O12 0.806006 0.693995 0.418321
O O13 0.858406 0.844153 0.461340
O O14 0.000000 0.124612 0.515755
#
# Coordination Sequence:
#
# PCOD8307802 Si02
#       6
#    16  16  16  16  16  16
#     4  11  21  34  54  81 109 137 180 229 266 313
#     4   9  20  38  55  74 108 150 181 214 268 325
#     4   9  19  37  57  76 104 143 180 215 267 328
#     4   9  19  37  57  76 104 143 180 215 267 328
#     4  11  21  34  54  81 109 137 180 229 266 313
#     4  11  21  34  50  74 109 143 174 212 270 325
#
# _framework density 17.861974
#
# number of rings (size 3 to 8) (size 9 to 14) (size 15 to 20)
#    0.000    2.000    1.667    3.500    0.000    3.333 
#    0.000    0.000    0.000    3.000    0.000    4.667 
#    0.000    0.000    0.000    0.000    0.000    0.000 
#
# Total GULP energy -595109.853950 kJ/mol
# GULP energy per Si atom -12398.121957 kJ/mol
# Density = 1.782132 g / cm^3
# Si number density = 17.861974 Si / 1000 Ang^3
#
#
#
# Elastic Constant Matrix: (Units=GPa)
#
#
# Indices 1 2 3 4 5 6 
#
# 1 104.6471 51.4106 68.1835 0.0000 0.0000 -0.0005
# 2 51.4106 104.6471 68.1835 0.0000 0.0000 0.0005
# 3 68.1835 68.1835 141.1673 0.0000 0.0000 0.0000
# 4 0.0000 0.0000 0.0000 23.8921 0.0000 0.0000
# 5 0.0000 0.0000 0.0000 0.0000 23.8921 0.0000
# 6 -0.0005 0.0005 0.0000 0.0000 0.0000 21.6935
#
#
#
# Elastic Compliance Matrix: (Units=1/GPa)
#
#
# Indices 1 2 3 4 5 6 
#
# 1 0.014936 -0.003848 -0.005355 0.000000 0.000000 0.000000
# 2 -0.003848 0.014936 -0.005355 0.000000 0.000000 0.000000
# 3 -0.005355 -0.005355 0.012257 0.000000 0.000000 0.000000
# 4 0.000000 0.000000 0.000000 0.041855 0.000000 0.000000
# 5 0.000000 0.000000 0.000000 0.000000 0.041855 0.000000
# 6 0.000000 0.000000 0.000000 0.000000 0.000000 0.046097
#
#
# Mechanical properties :
#
#
# Convention : Reuss Voigt Hill
#
# Bulk Modulus (GPa) = 76.85861 80.66852 78.76356
# Shear Modulus (GPa) = 24.34404 24.74114 24.54259
#
# Velocity S-wave (km/s) = 3.69575 3.72577 3.71079
# Velocity P-wave (km/s) = 7.83160 7.98553 7.90894
#
# Compressibility (1/GPa) = 0.01301090
#
# Stress axis : x y z
#
# Youngs Moduli (GPa) = 66.95350 66.95350 81.58695
#
# Poissons Ratio (x) = 0.25766 0.43691
# Poissons Ratio (y) = 0.25766 0.43691
# Poissons Ratio (z) = 0.35855 0.35855
#
# Static dielectric constant tensor:
#      x y z
#    x 3.313740 0.000000 0.000000 
#    y 0.000000 3.313740 0.000000 
#    z 0.000000 0.000000 3.261070 
# 
# 
# High freq. dielectric constant tensor:
#      x y z
#    x 1.688620 0.000000 0.000000 
#    y 0.000000 1.688620 0.000000 
#    z 0.000000 0.000000 1.684230 
# 
# From -- ./inp_files/2898.got.cif
#   From: 2010.03.12/outbox.cif.g09.slc.cpg/sg108_2_cif.got.tgz:2898.got - 2010.04.14 01:53:11.
