data_PCOD8307732
_publ_section_title
;
Structure prediction by ZEFSAII (Michael W. Deem and Ramdas Pophale) SiO2 
 PCOD8307732
Probable space group: I 4 C M
;
_chemical_formula_sum "Si O2"
_cell_formula_units_Z 96
_cell_length_a 15.745493
_cell_length_b 15.745493
_cell_length_c 19.210883
_cell_angle_alpha 90.000000
_cell_angle_beta 90.000000
_cell_angle_gamma 90.000000
_cell_volume 4762.772676
_symmetry_space_group_name_H-M "I 4 C M"
_symmetry_group_IT_number 108
_symmetry_cell_setting 'tetragonal'
loop_
_space_group_symop_operation_xyz
x,y,z
-y,x,z
-x,-y,z
y,-x,z
-x,y,1/2+z
x,-y,1/2+z
-y,-x,1/2+z
y,x,1/2+z
1/2+x,1/2+y,1/2+z
1/2-y,1/2+x,1/2+z
1/2-x,1/2-y,1/2+z
1/2+y,1/2-x,1/2+z
1/2-x,1/2+y,z
1/2+x,1/2-y,z
1/2-y,1/2-x,z
1/2+y,1/2+x,z
loop_
_atom_site_type_symbol
_atom_site_label
_atom_site_fract_x
_atom_site_fract_y
_atom_site_fract_z
Si Si1 0.831953 0.533036 0.021380
Si Si2 0.504252 0.861982 0.173553
Si Si3 0.396999 0.238420 0.926897
Si Si4 0.693952 0.331382 0.538178
Si Si5 0.246501 0.397003 0.271503
Si Si6 0.910628 0.108890 0.672596
O O1 0.924915 0.575086 0.016368
O O2 0.818908 0.489330 0.097161
O O3 0.759934 0.602062 0.006950
O O4 0.825888 0.464261 0.960625
O O5 0.594298 0.905703 0.193235
O O6 0.478593 0.792613 0.231012
O O7 0.431435 0.931435 0.169739
O O8 0.308206 0.191795 0.915797
O O9 0.427116 0.266815 0.850248
O O10 0.378448 0.316393 0.979358
O O11 0.744334 0.244334 0.558699
O O12 0.648323 0.371881 0.603515
O O13 0.182774 0.317227 0.266692
O O14 0.336445 0.372391 0.236626
O O15 0.012086 0.118073 0.676144
#
# Coordination Sequence:
#
# PCOD8307732 Si02
#       6
#    16  16  16  16  16  16
#     4  10  19  34  57  84 119 157 197 248 302 356
#     4   9  17  31  54  83 116 157 198 236 290 353
#     4  10  22  36  57  89 122 155 197 241 294 362
#     4  10  20  37  60  84 113 153 196 244 296 352
#     4  10  21  40  60  85 123 160 194 246 301 354
#     4  11  23  39  60  85 113 150 198 246 293 349
#
# _framework density 20.156324999999999
#
# number of rings (size 3 to 8) (size 9 to 14) (size 15 to 20)
#    0.000    2.000    1.667    2.000    0.000    3.000 
#    0.000    2.500    0.000    2.000    0.000    0.000 
#    0.000    0.000    0.000    0.000    0.000    0.000 
#
# Total GULP energy -595068.939507 kJ/mol
# GULP energy per Si atom -12397.269573 kJ/mol
# Density = 2.011045 g / cm^3
# Si number density = 20.156325 Si / 1000 Ang^3
#
#
#
# Elastic Constant Matrix: (Units=GPa)
#
#
# Indices 1 2 3 4 5 6 
#
# 1 78.3117 28.4342 53.8651 0.0000 0.0000 0.0002
# 2 28.4342 78.3117 53.8651 0.0000 0.0000 -0.0002
# 3 53.8651 53.8651 184.9775 0.0000 0.0000 0.0000
# 4 0.0000 0.0000 0.0000 25.8432 0.0000 0.0000
# 5 0.0000 0.0000 0.0000 0.0000 25.8432 0.0000
# 6 0.0002 -0.0002 0.0000 0.0000 0.0000 21.8331
#
#
#
# Elastic Compliance Matrix: (Units=1/GPa)
#
#
# Indices 1 2 3 4 5 6 
#
# 1 0.016658 -0.003391 -0.003863 0.000000 0.000000 0.000000
# 2 -0.003391 0.016658 -0.003863 0.000000 0.000000 0.000000
# 3 -0.003863 -0.003863 0.007656 0.000000 0.000000 0.000000
# 4 0.000000 0.000000 0.000000 0.038695 0.000000 0.000000
# 5 0.000000 0.000000 0.000000 0.000000 0.038695 0.000000
# 6 0.000000 0.000000 0.000000 0.000000 0.000000 0.045802
#
#
# Mechanical properties :
#
#
# Convention : Reuss Voigt Hill
#
# Bulk Modulus (GPa) = 53.37110 68.21440 60.79275
# Shear Modulus (GPa) = 25.95452 28.39970 27.17711
#
# Velocity S-wave (km/s) = 3.59229 3.75770 3.67593
# Velocity P-wave (km/s) = 6.61379 7.26245 6.94570
#
# Compressibility (1/GPa) = 0.01873673
#
# Stress axis : x y z
#
# Youngs Moduli (GPa) = 60.03105 60.03105 130.61583
#
# Poissons Ratio (x) = 0.20357 0.50461
# Poissons Ratio (y) = 0.20357 0.50461
# Poissons Ratio (z) = 0.23192 0.23192
#
# Static dielectric constant tensor:
#      x y z
#    x 3.697560 0.000000 0.000000 
#    y 0.000000 3.697560 0.000000 
#    z 0.000000 0.000000 3.772070 
# 
# 
# High freq. dielectric constant tensor:
#      x y z
#    x 1.779560 0.000000 0.000000 
#    y 0.000000 1.779560 0.000000 
#    z 0.000000 0.000000 1.780990 
# 
# From -- ./inp_files/2480.got.cif
#   From: 2010.03.12/outbox.cif.g09.slc.cpg/sg108_2_cif.got.tgz:2480.got - 2010.04.14 01:53:11.
