data_PCOD8307336
_publ_section_title
;
Structure prediction by ZEFSAII (Michael W. Deem and Ramdas Pophale) SiO2 
 PCOD8307336
Probable space group: P 42 M C
;
_chemical_formula_sum "Si O2"
_cell_formula_units_Z 48
_cell_length_a 13.451083
_cell_length_b 13.451083
_cell_length_c 12.631108
_cell_angle_alpha 90.000000
_cell_angle_beta 90.000000
_cell_angle_gamma 90.000000
_cell_volume 2285.367008
_symmetry_space_group_name_H-M "P 42 M C"
_symmetry_group_IT_number 105
_symmetry_cell_setting 'tetragonal'
loop_
_space_group_symop_operation_xyz
x,y,z
-y,x,1/2+z
-x,-y,z
y,-x,1/2+z
-x,y,z
x,-y,z
-y,-x,1/2+z
y,x,1/2+z
loop_
_atom_site_type_symbol
_atom_site_label
_atom_site_fract_x
_atom_site_fract_y
_atom_site_fract_z
Si Si1 0.118188 0.385106 0.262230
Si Si2 0.793957 0.615864 0.644577
Si Si3 0.800536 0.386763 0.873801
Si Si4 0.611500 0.386935 0.508105
Si Si5 0.112362 0.726673 0.472814
Si Si6 0.733022 0.113346 0.551958
O O1 0.159192 0.500000 0.260896
O O2 0.156887 0.322914 0.365338
O O3 0.151552 0.323747 0.157767
O O4 0.000000 0.390730 0.267881
O O5 0.790596 0.500000 0.662394
O O6 0.810110 0.666484 0.759178
O O7 0.687756 0.651003 0.597328
O O8 0.882625 0.643323 0.564496
O O9 0.831948 0.500000 0.865284
O O10 0.685645 0.374353 0.908719
O O11 0.880019 0.342242 0.954486
O O12 0.500000 0.378723 0.554790
O O13 0.634573 0.500000 0.471235
O O14 0.173144 0.819725 0.519202
O O15 0.000000 0.762060 0.454370
O O16 0.769160 0.000000 0.566605
#
# Coordination Sequence:
#
# PCOD8307336 Si02
#       6
#     8   8   8   8   8   8
#     4   9  20  42  69  93 118 155 207 265 317 369
#     4  10  21  37  58  88 124 158 196 244 305 372
#     4  10  21  37  58  88 124 158 196 244 305 372
#     4   9  18  34  56  84 121 162 200 242 295 362
#     4  11  24  41  63  90 123 162 210 261 313 369
#     4  11  24  41  63  90 123 162 210 261 313 369
#
# _framework density 21.003191999999999
#
# number of rings (size 3 to 8) (size 9 to 14) (size 15 to 20)
#    0.000    2.000    1.667    1.000    2.333    3.667 
#    0.000    5.000    0.000    3.000    0.000    0.000 
#    0.000    0.000    0.000    0.000    0.000    0.000 
#
# Total GULP energy -594883.708506 kJ/mol
# GULP energy per Si atom -12393.410594 kJ/mol
# Density = 2.095539 g / cm^3
# Si number density = 21.003192 Si / 1000 Ang^3
#
#
#
# Elastic Constant Matrix: (Units=GPa)
#
#
# Indices 1 2 3 4 5 6 
#
# 1 68.7610 32.1389 39.9539 0.0000 0.0000 0.0000
# 2 32.1389 68.7610 39.9539 0.0000 0.0000 0.0000
# 3 39.9539 39.9539 180.5900 0.0000 0.0000 0.0000
# 4 0.0000 0.0000 0.0000 28.6159 0.0000 0.0000
# 5 0.0000 0.0000 0.0000 0.0000 28.6159 0.0000
# 6 0.0000 0.0000 0.0000 0.0000 0.0000 33.4435
#
#
#
# Elastic Compliance Matrix: (Units=1/GPa)
#
#
# Indices 1 2 3 4 5 6 
#
# 1 0.019661 -0.007645 -0.002658 0.000000 0.000000 0.000000
# 2 -0.007645 0.019661 -0.002658 0.000000 0.000000 0.000000
# 3 -0.002658 -0.002658 0.006714 0.000000 0.000000 0.000000
# 4 0.000000 0.000000 0.000000 0.034946 0.000000 0.000000
# 5 0.000000 0.000000 0.000000 0.000000 0.034946 0.000000
# 6 0.000000 0.000000 0.000000 0.000000 0.000000 0.029901
#
#
# Mechanical properties :
#
#
# Convention : Reuss Voigt Hill
#
# Bulk Modulus (GPa) = 49.72100 60.24503 54.98302
# Shear Modulus (GPa) = 28.01812 31.87274 29.94543
#
# Velocity S-wave (km/s) = 3.65635 3.89976 3.78001
# Velocity P-wave (km/s) = 6.44590 7.00168 6.72953
#
# Compressibility (1/GPa) = 0.02011222
#
# Stress axis : x y z
#
# Youngs Moduli (GPa) = 50.86201 50.86201 148.94855
#
# Poissons Ratio (x) = 0.38883 0.39598
# Poissons Ratio (y) = 0.38883 0.39598
# Poissons Ratio (z) = 0.13522 0.13522
#
# Static dielectric constant tensor:
#      x y z
#    x 3.692800 0.000000 0.000000 
#    y 0.000000 3.692800 0.000000 
#    z 0.000000 0.000000 4.210950 
# 
# 
# High freq. dielectric constant tensor:
#      x y z
#    x 1.812530 0.000000 0.000000 
#    y 0.000000 1.812530 0.000000 
#    z 0.000000 0.000000 1.829650 
# 
# From -- ./inp_files/1877.got.cif
#   From: 2010.03.12/outbox.cif.g09.slc.cpg/sg105_1_cif.got.tgz:1877.got - 2010.04.14 01:45:32.
