data_PCOD8307179
_publ_section_title
;
Structure prediction by ZEFSAII (Michael W. Deem and Ramdas Pophale) SiO2 
 PCOD8307179
Probable space group: P 42 M C
;
_chemical_formula_sum "Si O2"
_cell_formula_units_Z 48
_cell_length_a 9.610282
_cell_length_b 9.610282
_cell_length_c 27.802132
_cell_angle_alpha 90.000000
_cell_angle_beta 90.000000
_cell_angle_gamma 90.000000
_cell_volume 2567.735966
_symmetry_space_group_name_H-M "P 42 M C"
_symmetry_group_IT_number 105
_symmetry_cell_setting 'tetragonal'
loop_
_space_group_symop_operation_xyz
x,y,z
-y,x,1/2+z
-x,-y,z
y,-x,1/2+z
-x,y,z
x,-y,z
-y,-x,1/2+z
y,x,1/2+z
loop_
_atom_site_type_symbol
_atom_site_label
_atom_site_fract_x
_atom_site_fract_y
_atom_site_fract_z
Si Si1 0.668782 0.000000 0.600180
Si Si2 0.156067 0.500000 0.637567
Si Si3 0.665139 0.000000 0.709383
Si Si4 0.258283 0.835321 0.062198
Si Si5 0.336930 0.500000 0.732031
Si Si6 0.335628 0.775381 0.781861
Si Si7 0.334092 0.844193 0.886864
Si Si8 0.661655 0.343596 0.971797
O O1 0.721059 0.000000 0.655251
O O2 0.738827 0.870950 0.574351
O O3 0.500000 0.000000 0.594692
O O4 0.182056 0.365181 0.605504
O O5 0.262606 0.500000 0.681082
O O6 0.000000 0.500000 0.658330
O O7 0.724179 0.869435 0.738844
O O8 0.500000 0.000000 0.706688
O O9 0.223566 0.000000 0.053748
O O10 0.320102 0.765663 0.014715
O O11 0.500000 0.500000 0.719817
O O12 0.290821 0.623527 0.766393
O O13 0.500000 0.796769 0.784960
O O14 0.271808 0.811438 0.833916
O O15 0.500000 0.834790 0.885924
O O16 0.272988 0.730835 0.924419
O O17 0.287309 0.000000 0.901901
O O18 0.500000 0.365048 0.963230
O O19 0.727201 0.500000 0.979786
#
# Coordination Sequence:
#
# PCOD8307179 Si02
#       8
#     4   4   4   8   4   8   8   8
#     4  11  23  37  57  85 117 149 187 239 292 345
#     4  10  22  38  58  80 112 156 196 238 279 348
#     4   9  16  29  47  69 103 141 177 215 272 339
#     4  11  22  39  58  80 113 151 198 238 287 349
#     4  10  20  30  48  78 108 140 176 226 291 338
#     4   9  16  27  44  71 107 141 177 222 278 342
#     4   9  16  27  45  70 105 146 182 225 284 346
#     4  10  20  32  51  80 111 145 187 240 298 348
#
# _framework density 18.693511000000001
#
# number of rings (size 3 to 8) (size 9 to 14) (size 15 to 20)
#    0.000    2.167    1.667    2.250    1.167    3.333 
#    0.000    0.000    0.000    0.000    2.167    0.000 
#    0.000    0.000    0.000    0.000    0.000    0.000 
#
# Total GULP energy -594784.186928 kJ/mol
# GULP energy per Si atom -12391.337228 kJ/mol
# Density = 1.865096 g / cm^3
# Si number density = 18.693511 Si / 1000 Ang^3
#
#
#
# Elastic Constant Matrix: (Units=GPa)
#
#
# Indices 1 2 3 4 5 6 
#
# 1 92.3979 29.4239 28.8029 0.0000 0.0000 0.0000
# 2 29.4239 92.3979 28.8029 0.0000 0.0000 0.0000
# 3 28.8029 28.8029 98.5649 0.0000 0.0000 0.0000
# 4 0.0000 0.0000 0.0000 19.1760 0.0000 0.0000
# 5 0.0000 0.0000 0.0000 0.0000 19.1760 0.0000
# 6 0.0000 0.0000 0.0000 0.0000 0.0000 2424.7531
#
#
#
# Elastic Compliance Matrix: (Units=1/GPa)
#
#
# Indices 1 2 3 4 5 6 
#
# 1 0.012702 -0.003177 -0.002783 0.000000 0.000000 0.000000
# 2 -0.003177 0.012702 -0.002783 0.000000 0.000000 0.000000
# 3 -0.002783 -0.002783 0.011772 0.000000 0.000000 0.000000
# 4 0.000000 0.000000 0.000000 0.052148 0.000000 0.000000
# 5 0.000000 0.000000 0.000000 0.000000 0.052148 0.000000
# 6 0.000000 0.000000 0.000000 0.000000 0.000000 0.000412
#
#
# Mechanical properties :
#
#
# Convention : Reuss Voigt Hill
#
# Bulk Modulus (GPa) = 50.79090 50.82445 50.80767
# Shear Modulus (GPa) = 30.13189 505.70977 267.92083
#
# Velocity S-wave (km/s) = 4.01919 16.46555 11.98474
# Velocity P-wave (km/s) = 6.98340 19.71631 14.79021
#
# Compressibility (1/GPa) = 0.01968857
#
# Stress axis : x y z
#
# Youngs Moduli (GPa) = 78.72634 78.72634 84.94496
#
# Poissons Ratio (x) = 0.25014 0.23643
# Poissons Ratio (y) = 0.25014 0.23643
# Poissons Ratio (z) = 0.21913 0.21913
#
# Static dielectric constant tensor:
#      x y z
#    x 3.340970 0.000000 0.000000 
#    y 0.000000 3.340970 0.000000 
#    z 0.000000 0.000000 3.619750 
# 
# 
# High freq. dielectric constant tensor:
#      x y z
#    x 1.703510 0.000000 0.000000 
#    y 0.000000 1.703510 0.000000 
#    z 0.000000 0.000000 1.740810 
# 
# From -- ./inp_files/4962.got.cif
#   From: 2010.03.12/outbox.cif.g09.slc.cpg/sg105_3_cif.got.tgz:4962.got - 2010.04.14 01:45:32.
