data_PCOD8307604
_publ_section_title
;
Structure prediction by ZEFSAII (Michael W. Deem and Ramdas Pophale) SiO2 
 PCOD8307604
Probable space group: I 4 M M
;
_chemical_formula_sum "Si O2"
_cell_formula_units_Z 112
_cell_length_a 13.759563
_cell_length_b 13.759563
_cell_length_c 36.198112
_cell_angle_alpha 90.000000
_cell_angle_beta 90.000000
_cell_angle_gamma 90.000000
_cell_volume 6853.228330
_symmetry_space_group_name_H-M "I 4 M M"
_symmetry_group_IT_number 107
_symmetry_cell_setting 'tetragonal'
loop_
_space_group_symop_operation_xyz
x,y,z
-y,x,z
-x,-y,z
y,-x,z
-x,y,z
x,-y,z
-y,-x,z
y,x,z
1/2+x,1/2+y,1/2+z
1/2-y,1/2+x,1/2+z
1/2-x,1/2-y,1/2+z
1/2+y,1/2-x,1/2+z
1/2-x,1/2+y,1/2+z
1/2+x,1/2-y,1/2+z
1/2-y,1/2-x,1/2+z
1/2+y,1/2+x,1/2+z
loop_
_atom_site_type_symbol
_atom_site_label
_atom_site_fract_x
_atom_site_fract_y
_atom_site_fract_z
Si Si1 0.764405 0.611153 0.311490
Si Si2 0.884346 0.726933 0.594274
Si Si3 0.115452 0.392102 0.745895
Si Si4 0.614764 0.892616 0.461885
Si Si5 0.391469 0.114916 0.664589
Si Si6 0.774059 0.615496 0.533215
Si Si7 0.388124 0.230150 0.393603
O O1 0.745645 0.500000 0.302190
O O2 0.659299 0.659299 0.311085
O O3 0.829690 0.660034 0.279462
O O4 0.812803 0.625145 0.352071
O O5 0.829764 0.829764 0.588197
O O6 0.849990 0.684168 0.633746
O O7 0.851429 0.648004 0.564091
O O8 0.000000 0.744188 0.591674
O O9 0.157569 0.500000 0.750425
O O10 0.146313 0.352268 0.705301
O O11 0.000000 0.394059 0.749477
O O12 0.500000 0.902889 0.462752
O O13 0.647711 0.820363 0.494266
O O14 0.649410 0.850514 0.422430
O O15 0.661524 0.000000 0.467038
O O16 0.500000 0.158387 0.657709
O O17 0.400284 0.000000 0.662735
O O18 0.755277 0.500000 0.536005
O O19 0.671519 0.671519 0.538186
O O20 0.500000 0.257297 0.401330
O O21 0.328831 0.328831 0.399298
#
# Coordination Sequence:
#
# PCOD8307604 Si02
#       7
#    16  16  16  16  16  16  16
#     4   9  17  27  39  57  83 115 148 181 218 265
#     4  10  20  32  47  68  93 123 159 195 230 270
#     4   8  14  25  41  60  81 107 141 181 224 266
#     4   9  17  29  45  64  86 113 144 178 217 262
#     4   8  14  26  44  63  82 107 142 184 227 270
#     4  10  20  33  50  72  96 122 153 188 227 273
#     4   9  17  28  41  59  84 114 148 184 222 266
#
# _framework density 16.342662000000001
#
# number of rings (size 3 to 8) (size 9 to 14) (size 15 to 20)
#    0.000    3.000    0.000    2.143    0.000    3.143 
#    0.000    4.286    0.000    2.571    0.000    4.000 
#    0.000    2.857    0.000    9.429    0.000    5.429 
#
# Total GULP energy -693960.358534 kJ/mol
# GULP energy per Si atom -12392.149260 kJ/mol
# Density = 1.630547 g / cm^3
# Si number density = 16.342662 Si / 1000 Ang^3
#
#
#
# Elastic Constant Matrix: (Units=GPa)
#
#
# Indices 1 2 3 4 5 6 
#
# 1 66.5932 31.9456 42.0194 0.0000 0.0000 0.0000
# 2 31.9456 66.5932 42.0194 0.0000 0.0000 0.0000
# 3 42.0194 42.0194 129.3198 0.0000 0.0000 0.0000
# 4 0.0000 0.0000 0.0000 23.0900 0.0000 0.0000
# 5 0.0000 0.0000 0.0000 0.0000 23.0900 0.0000
# 6 0.0000 0.0000 0.0000 0.0000 0.0000 11.0505
#
#
#
# Elastic Compliance Matrix: (Units=1/GPa)
#
#
# Indices 1 2 3 4 5 6 
#
# 1 0.021450 -0.007412 -0.004562 0.000000 0.000000 0.000000
# 2 -0.007412 0.021450 -0.004562 0.000000 0.000000 0.000000
# 3 -0.004562 -0.004562 0.010697 0.000000 0.000000 0.000000
# 4 0.000000 0.000000 0.000000 0.043309 0.000000 0.000000
# 5 0.000000 0.000000 0.000000 0.000000 0.043309 0.000000
# 6 0.000000 0.000000 0.000000 0.000000 0.000000 0.090494
#
#
# Mechanical properties :
#
#
# Convention : Reuss Voigt Hill
#
# Bulk Modulus (GPa) = 48.71346 54.94167 51.82757
# Shear Modulus (GPa) = 18.47599 21.21420 19.84510
#
# Velocity S-wave (km/s) = 3.36599 3.60681 3.48848
# Velocity P-wave (km/s) = 6.70662 7.14401 6.92877
#
# Compressibility (1/GPa) = 0.02052821
#
# Stress axis : x y z
#
# Youngs Moduli (GPa) = 46.61942 46.61942 93.48344
#
# Poissons Ratio (x) = 0.34553 0.42643
# Poissons Ratio (y) = 0.34553 0.42643
# Poissons Ratio (z) = 0.21265 0.21265
#
# Static dielectric constant tensor:
#      x y z
#    x 2.885850 0.000000 0.000000 
#    y 0.000000 2.885850 0.000000 
#    z 0.000000 0.000000 3.529970 
# 
# 
# High freq. dielectric constant tensor:
#      x y z
#    x 1.599390 0.000000 0.000000 
#    y 0.000000 1.599390 0.000000 
#    z 0.000000 0.000000 1.651810 
# 
# From -- ./inp_files/6160.got.cif
#   From: 2010.03.12/outbox.cif.g09.slc.cpg/sg107_4_cif.got.tgz:6160.got - 2010.04.14 01:49:11.
