data_PCOD8307315
_publ_section_title
;
Structure prediction by ZEFSAII (Michael W. Deem and Ramdas Pophale) SiO2 
 PCOD8307315
Probable space group: P 42 M C
;
_chemical_formula_sum "Si O2"
_cell_formula_units_Z 40
_cell_length_a 9.210234
_cell_length_b 9.210234
_cell_length_c 25.691063
_cell_angle_alpha 90.000000
_cell_angle_beta 90.000000
_cell_angle_gamma 90.000000
_cell_volume 2179.332034
_symmetry_space_group_name_H-M "P 42 M C"
_symmetry_group_IT_number 105
_symmetry_cell_setting 'tetragonal'
loop_
_space_group_symop_operation_xyz
x,y,z
-y,x,1/2+z
-x,-y,z
y,-x,1/2+z
-x,y,z
x,-y,z
-y,-x,1/2+z
y,x,1/2+z
loop_
_atom_site_type_symbol
_atom_site_label
_atom_site_fract_x
_atom_site_fract_y
_atom_site_fract_z
Si Si1 0.831283 0.167811 0.317760
Si Si2 0.827290 0.663821 0.918560
Si Si3 0.167811 0.831283 0.019360
Si Si4 0.832676 0.670554 0.213675
Si Si5 0.670554 0.167324 0.123445
O O1 0.743749 0.230694 0.367000
O O2 0.782298 0.258798 0.267762
O O3 0.000000 0.188849 0.330290
O O4 0.793624 0.000000 0.306888
O O5 0.768473 0.500000 0.918560
O O6 0.000000 0.670320 0.918560
O O7 0.769306 0.743749 0.970119
O O8 0.258797 0.782298 0.069358
O O9 0.000000 0.793624 0.030232
O O10 0.188850 0.000000 0.006829
O O11 0.807955 0.500000 0.217569
O O12 0.733326 0.733326 0.168560
O O13 0.000000 0.709884 0.201899
O O14 0.500000 0.192045 0.119551
O O15 0.709884 0.000000 0.135221
#
# Coordination Sequence:
#
# PCOD8307315 Si02
#       5
#     8   8   8   8   8
#     4   9  17  31  52  75  99 129 166 208 253 300
#     4   9  17  29  48  75 102 128 164 209 252 295
#     4   9  17  31  52  75  99 129 166 208 253 300
#     4  10  21  36  54  77 104 135 172 213 258 307
#     4  10  21  36  54  77 104 135 172 213 258 307
#
# _framework density 18.354247999999998
#
# number of rings (size 3 to 8) (size 9 to 14) (size 15 to 20)
#    0.000    2.600    0.000    1.800    0.000    6.400 
#    0.000    5.000    0.000    6.000    0.000    0.000 
#    0.000    0.000    0.000    0.000    0.000    0.000 
#
# Total GULP energy -496109.001474 kJ/mol
# GULP energy per Si atom -12402.725037 kJ/mol
# Density = 1.831247 g / cm^3
# Si number density = 18.354248 Si / 1000 Ang^3
#
#
#
# Elastic Constant Matrix: (Units=GPa)
#
#
# Indices 1 2 3 4 5 6 
#
# 1 76.2642 40.9979 75.7669 0.0000 0.0000 0.0000
# 2 40.9979 76.2642 75.7669 0.0000 0.0000 0.0000
# 3 75.7669 75.7669 186.6326 0.0000 0.0000 0.0000
# 4 0.0000 0.0000 0.0000 1.2304 0.0000 0.0000
# 5 0.0000 0.0000 0.0000 0.0000 1.2304 0.0000
# 6 0.0000 0.0000 0.0000 0.0000 0.0000 18.0439
#
#
#
# Elastic Compliance Matrix: (Units=1/GPa)
#
#
# Indices 1 2 3 4 5 6 
#
# 1 0.023147 -0.005208 -0.007283 0.000000 0.000000 0.000000
# 2 -0.005208 0.023147 -0.007283 0.000000 0.000000 0.000000
# 3 -0.007283 -0.007283 0.011271 0.000000 0.000000 0.000000
# 4 0.000000 0.000000 0.000000 0.812755 0.000000 0.000000
# 5 0.000000 0.000000 0.000000 0.000000 0.812755 0.000000
# 6 0.000000 0.000000 0.000000 0.000000 0.000000 0.055420
#
#
# Mechanical properties :
#
#
# Convention : Reuss Voigt Hill
#
# Bulk Modulus (GPa) = 55.49824 80.46936 67.98380
# Shear Modulus (GPa) = 2.80261 13.87623 8.33942
#
# Velocity S-wave (km/s) = 1.23704 2.75257 2.13388
# Velocity P-wave (km/s) = 5.68711 7.35117 6.57202
#
# Compressibility (1/GPa) = 0.01801859
#
# Stress axis : x y z
#
# Youngs Moduli (GPa) = 43.20145 43.20145 88.72162
#
# Poissons Ratio (x) = 0.22501 0.64613
# Poissons Ratio (y) = 0.22501 0.64613
# Poissons Ratio (z) = 0.31462 0.31462
#
# Static dielectric constant tensor:
#      x y z
#    x 3.253890 0.000000 0.000000 
#    y 0.000000 3.253890 0.000000 
#    z 0.000000 0.000000 3.556730 
# 
# 
# High freq. dielectric constant tensor:
#      x y z
#    x 1.695930 0.000000 0.000000 
#    y 0.000000 1.695930 0.000000 
#    z 0.000000 0.000000 1.726100 
# 
# From -- ./inp_files/3899.got.cif
#   From: 2010.03.12/outbox.cif.g09.slc.cpg/sg105_2_cif.got.tgz:3899.got - 2010.04.14 01:45:32.
