data_PCOD8307375
_publ_section_title
;
Structure prediction by ZEFSAII (Michael W. Deem and Ramdas Pophale) SiO2 
 PCOD8307375
Probable space group: P 42 M C
;
_chemical_formula_sum "Si O2"
_cell_formula_units_Z 48
_cell_length_a 11.925870
_cell_length_b 11.925870
_cell_length_c 25.953175
_cell_angle_alpha 90.000000
_cell_angle_beta 90.000000
_cell_angle_gamma 90.000000
_cell_volume 3691.226007
_symmetry_space_group_name_H-M "P 42 M C"
_symmetry_group_IT_number 105
_symmetry_cell_setting 'tetragonal'
loop_
_space_group_symop_operation_xyz
x,y,z
-y,x,1/2+z
-x,-y,z
y,-x,1/2+z
-x,y,z
x,-y,z
-y,-x,1/2+z
y,x,1/2+z
loop_
_atom_site_type_symbol
_atom_site_label
_atom_site_fract_x
_atom_site_fract_y
_atom_site_fract_z
Si Si1 0.133628 0.263836 0.973970
Si Si2 0.263836 0.133628 0.279363
Si Si3 0.874507 0.866579 0.183542
Si Si4 0.500000 0.133551 0.435291
Si Si5 0.500000 0.866449 0.318043
Si Si6 0.125493 0.866579 0.569791
Si Si7 0.133614 0.874337 0.876667
O O1 0.177610 0.390720 0.965999
O O2 0.179195 0.188575 0.927106
O O3 0.000000 0.262282 0.974421
O O4 0.181229 0.212023 0.027257
O O5 0.212023 0.181229 0.226077
O O6 0.390720 0.177610 0.287334
O O7 0.188574 0.179195 0.326227
O O8 0.262282 0.000000 0.278913
O O9 0.831050 0.831050 0.126667
O O10 0.000000 0.819194 0.194228
O O11 0.879915 0.000000 0.186248
O O12 0.500000 0.179793 0.376667
O O13 0.500000 0.000000 0.432980
O O14 0.500000 0.000000 0.320353
O O15 0.000000 0.819194 0.559106
O O16 0.120085 0.000000 0.567086
O O17 0.000000 0.875002 0.876667
O O18 0.181623 0.000000 0.876667
#
# Coordination Sequence:
#
# PCOD8307375 Si02
#       7
#     8   8   8   4   4   8   8
#     4   9  14  19  26  35  49  69  94 124 157 189
#     4   9  14  19  26  35  49  69  94 124 157 189
#     4   8  13  20  28  37  49  66  92 128 164 191
#     4   9  14  20  26  34  50  72  96 124 155 184
#     4   9  14  20  26  34  50  72  96 124 155 184
#     4   8  13  20  28  37  49  66  92 128 164 191
#     4   9  14  17  23  35  49  66  91 124 158 187
#
# _framework density 13.003809
#
# number of rings (size 3 to 8) (size 9 to 14) (size 15 to 20)
#    0.000    3.333    1.667    2.000    0.000    4.000 
#    0.000    0.000    0.000    0.000    0.000    0.000 
#    0.000    0.000    0.000    0.000    0.000    2.500 
#
# Total GULP energy -594756.072081 kJ/mol
# GULP energy per Si atom -12390.751502 kJ/mol
# Density = 1.297421 g / cm^3
# Si number density = 13.003809 Si / 1000 Ang^3
#
#
#
# Elastic Constant Matrix: (Units=GPa)
#
#
# Indices 1 2 3 4 5 6 
#
# 1 55.2447 12.3791 41.3205 0.0000 0.0000 0.0000
# 2 12.3791 55.2447 41.3205 0.0000 0.0000 0.0000
# 3 41.3205 41.3205 138.0141 0.0000 0.0000 0.0000
# 4 0.0000 0.0000 0.0000 3.5761 0.0000 0.0000
# 5 0.0000 0.0000 0.0000 0.0000 3.5761 0.0000
# 6 0.0000 0.0000 0.0000 0.0000 0.0000 1.5150
#
#
#
# Elastic Compliance Matrix: (Units=1/GPa)
#
#
# Indices 1 2 3 4 5 6 
#
# 1 0.023324 -0.000004 -0.006982 0.000000 0.000000 0.000000
# 2 -0.000004 0.023324 -0.006982 0.000000 0.000000 0.000000
# 3 -0.006982 -0.006982 0.011426 0.000000 0.000000 0.000000
# 4 0.000000 0.000000 0.000000 0.279634 0.000000 0.000000
# 5 0.000000 0.000000 0.000000 0.000000 0.279634 0.000000
# 6 0.000000 0.000000 0.000000 0.000000 0.000000 0.660083
#
#
# Mechanical properties :
#
#
# Convention : Reuss Voigt Hill
#
# Bulk Modulus (GPa) = 33.17974 48.72708 40.95341
# Shear Modulus (GPa) = 3.80110 11.96567 7.88338
#
# Velocity S-wave (km/s) = 1.71155 3.03672 2.46486
# Velocity P-wave (km/s) = 5.42924 7.06033 6.29781
#
# Compressibility (1/GPa) = 0.03013887
#
# Stress axis : x y z
#
# Youngs Moduli (GPa) = 42.87366 42.87366 87.51763
#
# Poissons Ratio (x) = 0.00019 0.61103
# Poissons Ratio (y) = 0.00019 0.61103
# Poissons Ratio (z) = 0.29934 0.29934
#
# Static dielectric constant tensor:
#      x y z
#    x 2.321330 0.000000 0.000000 
#    y 0.000000 2.321330 0.000000 
#    z 0.000000 0.000000 2.964700 
# 
# 
# High freq. dielectric constant tensor:
#      x y z
#    x 1.438180 0.000000 0.000000 
#    y 0.000000 1.438180 0.000000 
#    z 0.000000 0.000000 1.510340 
# 
# From -- ./inp_files/4029.got.cif
#   From: 2010.03.12/outbox.cif.g09.slc.cpg/sg105_3_cif.got.tgz:4029.got - 2010.04.14 01:45:32.
