data_PCOD8307817
_publ_section_title
;
Structure prediction by ZEFSAII (Michael W. Deem and Ramdas Pophale) SiO2 
 PCOD8307817
Probable space group: I 4 C M
;
_chemical_formula_sum "Si O2"
_cell_formula_units_Z 96
_cell_length_a 14.142320
_cell_length_b 14.142320
_cell_length_c 23.356604
_cell_angle_alpha 90.000000
_cell_angle_beta 90.000000
_cell_angle_gamma 90.000000
_cell_volume 4671.442604
_symmetry_space_group_name_H-M "I 4 C M"
_symmetry_group_IT_number 108
_symmetry_cell_setting 'tetragonal'
loop_
_space_group_symop_operation_xyz
x,y,z
-y,x,z
-x,-y,z
y,-x,z
-x,y,1/2+z
x,-y,1/2+z
-y,-x,1/2+z
y,x,1/2+z
1/2+x,1/2+y,1/2+z
1/2-y,1/2+x,1/2+z
1/2-x,1/2-y,1/2+z
1/2+y,1/2-x,1/2+z
1/2-x,1/2+y,z
1/2+x,1/2-y,z
1/2-y,1/2-x,z
1/2+y,1/2+x,z
loop_
_atom_site_type_symbol
_atom_site_label
_atom_site_fract_x
_atom_site_fract_y
_atom_site_fract_z
Si Si1 0.420156 0.920156 0.871220
Si Si2 0.922995 0.577006 0.000611
Si Si3 0.449138 0.353486 0.935989
Si Si4 0.435190 0.778975 0.333020
Si Si5 0.931611 0.140786 0.727753
Si Si6 0.264230 0.506818 0.051038
Si Si7 0.676938 0.667388 0.112741
O O1 0.460688 0.828741 0.836636
O O2 0.500000 0.000000 0.874512
O O3 0.389675 0.889675 0.936650
O O4 0.841240 0.528206 0.037992
O O5 0.000000 0.500000 0.988115
O O6 0.557770 0.381399 0.926509
O O7 0.416474 0.274802 0.891761
O O8 0.436564 0.308389 0.998132
O O9 0.359547 0.859547 0.325329
O O10 0.416624 0.706015 0.282320
O O11 0.887822 0.191289 0.672439
O O12 0.042892 0.124261 0.728288
O O13 0.270552 0.581052 0.104558
O O14 0.326235 0.414655 0.064911
O O15 0.767067 0.732934 0.103716
#
# Coordination Sequence:
#
# PCOD8307817 Si02
#       7
#     8   8  16  16  16  16  16
#     4   9  20  38  66  91 132 182 213 261 342 410
#     4  11  22  42  66 101 144 183 219 271 350 425
#     4  11  23  40  63  95 134 173 219 274 335 401
#     4  11  23  43  65  97 133 172 224 278 339 414
#     4  11  24  46  71  92 126 175 226 282 343 399
#     4  12  23  40  68 101 136 182 224 279 340 414
#     4  12  25  43  68 101 136 175 230 281 340 408
#
# _framework density 20.550397
#
# number of rings (size 3 to 8) (size 9 to 14) (size 15 to 20)
#    0.000    0.833    5.833    2.000    0.000    2.333 
#    9.000    0.000    0.000    0.000    0.000    0.000 
#    0.000    0.000    0.000    0.000    0.000    0.000 
#
# Total GULP energy -594948.890527 kJ/mol
# GULP energy per Si atom -12394.768553 kJ/mol
# Density = 2.050362 g / cm^3
# Si number density = 20.550397 Si / 1000 Ang^3
#
#
#
# Elastic Constant Matrix: (Units=GPa)
#
#
# Indices 1 2 3 4 5 6 
#
# 1 85.1173 -15.6448 28.4887 0.0000 0.0000 0.0686
# 2 -15.6448 85.1173 28.4887 0.0000 0.0000 -0.0686
# 3 28.4887 28.4887 100.5992 0.0000 0.0000 0.0000
# 4 0.0000 0.0000 0.0000 58.2800 0.0000 0.0000
# 5 0.0000 0.0000 0.0000 0.0000 58.2800 0.0000
# 6 0.0686 -0.0686 0.0000 0.0000 0.0000 -443.2543
#
#
#
# Elastic Compliance Matrix: (Units=1/GPa)
#
#
# Indices 1 2 3 4 5 6 
#
# 1 0.014337 0.004412 -0.005309 0.000000 0.000000 0.000002
# 2 0.004412 0.014337 -0.005309 0.000000 0.000000 -0.000002
# 3 -0.005309 -0.005309 0.012948 0.000000 0.000000 0.000000
# 4 0.000000 0.000000 0.000000 0.017159 0.000000 0.000000
# 5 0.000000 0.000000 0.000000 0.000000 0.017159 0.000000
# 6 0.000002 -0.000002 0.000000 0.000000 0.000000 -0.002256
#
#
# Mechanical properties :
#
#
# Convention : Reuss Voigt Hill
#
# Bulk Modulus (GPa) = 34.23811 39.27766 36.75789
# Shear Modulus (GPa) = 52.17522 -50.03879 1.06822
#
# Velocity S-wave (km/s) = 5.04421 -4.93985 0.72176
# Velocity P-wave (km/s) = 7.11492 3.65812 4.31510
#
# Compressibility (1/GPa) = 0.02920722
#
# Stress axis : x y z
#
# Youngs Moduli (GPa) = 69.75186 69.75186 77.23437
#
# Poissons Ratio (x) = -0.30776 0.41007
# Poissons Ratio (y) = -0.30776 0.41007
# Poissons Ratio (z) = 0.37034 0.37034
#
# Static dielectric constant tensor:
#      x y z
#    x 3.850810 0.000000 0.000000 
#    y 0.000000 3.850810 0.000000 
#    z 0.000000 0.000000 3.769190 
# 
# 
# High freq. dielectric constant tensor:
#      x y z
#    x 1.806990 0.000000 0.000000 
#    y 0.000000 1.806990 0.000000 
#    z 0.000000 0.000000 1.801240 
# 
# From -- ./inp_files/2928.got.cif
#   From: 2010.03.12/outbox.cif.g09.slc.cpg/sg108_2_cif.got.tgz:2928.got - 2010.04.14 01:53:11.
