data_PCOD8307159
_publ_section_title
;
Structure prediction by ZEFSAII (Michael W. Deem and Ramdas Pophale) SiO2 
 PCOD8307159
Probable space group: P 42 M C
;
_chemical_formula_sum "Si O2"
_cell_formula_units_Z 48
_cell_length_a 22.272617
_cell_length_b 22.272617
_cell_length_c 5.135888
_cell_angle_alpha 90.000000
_cell_angle_beta 90.000000
_cell_angle_gamma 90.000000
_cell_volume 2547.757228
_symmetry_space_group_name_H-M "P 42 M C"
_symmetry_group_IT_number 105
_symmetry_cell_setting 'tetragonal'
loop_
_space_group_symop_operation_xyz
x,y,z
-y,x,1/2+z
-x,-y,z
y,-x,1/2+z
-x,y,z
x,-y,z
-y,-x,1/2+z
y,x,1/2+z
loop_
_atom_site_type_symbol
_atom_site_label
_atom_site_fract_x
_atom_site_fract_y
_atom_site_fract_z
Si Si1 0.125547 0.070584 0.570510
Si Si2 0.166881 0.570762 0.582377
Si Si3 0.429389 0.760224 0.575382
Si Si4 0.429416 0.374452 0.528873
Si Si5 0.929239 0.333119 0.517005
Si Si6 0.070610 0.260224 0.024013
O O1 0.083254 0.103225 0.361972
O O2 0.192943 0.096513 0.539429
O O3 0.122858 0.000000 0.517200
O O4 0.153446 0.500000 0.589222
O O5 0.198464 0.595598 0.842713
O O6 0.103049 0.603049 0.549696
O O7 0.211113 0.588691 0.348927
O O8 0.500000 0.756298 0.537817
O O9 0.403486 0.692944 0.559950
O O10 0.500000 0.377141 0.582178
O O11 0.416745 0.396776 0.237413
O O12 0.904399 0.301535 0.256677
O O13 0.000000 0.346557 0.510129
O O14 0.911316 0.288886 0.750461
O O15 0.000000 0.256296 0.061620
#
# Coordination Sequence:
#
# PCOD8307159 Si02
#       6
#     8   8   8   8   8   8
#     4  11  22  36  56  80 107 138 172 215 263 311
#     4  10  19  33  55  80 106 136 172 216 261 307
#     4   9  19  35  53  74 102 142 181 205 245 314
#     4  11  22  36  56  80 107 138 172 215 263 311
#     4  10  19  33  55  80 106 136 172 216 261 307
#     4   9  19  35  53  74 102 142 181 205 245 314
#
# _framework density 18.840098000000001
#
# number of rings (size 3 to 8) (size 9 to 14) (size 15 to 20)
#    0.000    2.000    0.000    4.000    0.000    7.667 
#    0.000    0.000    0.000   26.000    0.000    0.000 
#    0.000    0.000    0.000    0.000    0.000    0.000 
#
# Total GULP energy -595321.948574 kJ/mol
# GULP energy per Si atom -12402.540595 kJ/mol
# Density = 1.879722 g / cm^3
# Si number density = 18.840098 Si / 1000 Ang^3
#
#
#
# Elastic Constant Matrix: (Units=GPa)
#
#
# Indices 1 2 3 4 5 6 
#
# 1 68.4535 38.6991 11.4873 0.0000 0.0000 0.0000
# 2 38.6991 68.4535 11.4873 0.0000 0.0000 0.0000
# 3 11.4873 11.4873 82.4424 0.0000 0.0000 0.0000
# 4 0.0000 0.0000 0.0000 25.7844 0.0000 0.0000
# 5 0.0000 0.0000 0.0000 0.0000 25.7844 0.0000
# 6 0.0000 0.0000 0.0000 0.0000 0.0000 10.2450
#
#
#
# Elastic Compliance Matrix: (Units=1/GPa)
#
#
# Indices 1 2 3 4 5 6 
#
# 1 0.021614 -0.011994 -0.001340 0.000000 0.000000 0.000000
# 2 -0.011994 0.021614 -0.001340 0.000000 0.000000 0.000000
# 3 -0.001340 -0.001340 0.012503 0.000000 0.000000 0.000000
# 4 0.000000 0.000000 0.000000 0.038783 0.000000 0.000000
# 5 0.000000 0.000000 0.000000 0.000000 0.038783 0.000000
# 6 0.000000 0.000000 0.000000 0.000000 0.000000 0.097609
#
#
# Mechanical properties :
#
#
# Convention : Reuss Voigt Hill
#
# Bulk Modulus (GPa) = 37.90556 38.07741 37.99149
# Shear Modulus (GPa) = 18.58387 22.87447 20.72917
#
# Velocity S-wave (km/s) = 3.14411 3.48823 3.32063
# Velocity P-wave (km/s) = 5.77441 6.03973 5.90856
#
# Compressibility (1/GPa) = 0.02638135
#
# Stress axis : x y z
#
# Youngs Moduli (GPa) = 46.26590 46.26590 79.97945
#
# Poissons Ratio (x) = 0.55493 0.10721
# Poissons Ratio (y) = 0.55493 0.10721
# Poissons Ratio (z) = 0.06202 0.06202
#
# Static dielectric constant tensor:
#      x y z
#    x 3.343350 0.000000 0.000000 
#    y 0.000000 3.343350 0.000000 
#    z 0.000000 0.000000 3.641250 
# 
# 
# High freq. dielectric constant tensor:
#      x y z
#    x 1.717300 0.000000 0.000000 
#    y 0.000000 1.717300 0.000000 
#    z 0.000000 0.000000 1.753010 
# 
# From -- ./inp_files/255.got.cif
#   From: 2010.03.12/outbox.cif.g09.slc.cpg/sg105_1_cif.got.tgz:255.got - 2010.04.14 01:45:32.
