data_PCOD8307793
_publ_section_title
;
Structure prediction by ZEFSAII (Michael W. Deem and Ramdas Pophale) SiO2 
 PCOD8307793
Probable space group: I 4 C M
;
_chemical_formula_sum "Si O2"
_cell_formula_units_Z 92
_cell_length_a 21.913438
_cell_length_b 21.913438
_cell_length_c 8.351649
_cell_angle_alpha 90.000000
_cell_angle_beta 90.000000
_cell_angle_gamma 90.000000
_cell_volume 4010.451535
_symmetry_space_group_name_H-M "I 4 C M"
_symmetry_group_IT_number 108
_symmetry_cell_setting 'tetragonal'
loop_
_space_group_symop_operation_xyz
x,y,z
-y,x,z
-x,-y,z
y,-x,z
-x,y,1/2+z
x,-y,1/2+z
-y,-x,1/2+z
y,x,1/2+z
1/2+x,1/2+y,1/2+z
1/2-y,1/2+x,1/2+z
1/2-x,1/2-y,1/2+z
1/2+y,1/2-x,1/2+z
1/2-x,1/2+y,z
1/2+x,1/2-y,z
1/2-y,1/2-x,z
1/2+y,1/2+x,z
loop_
_atom_site_type_symbol
_atom_site_label
_atom_site_fract_x
_atom_site_fract_y
_atom_site_fract_z
Si Si1 0.589063 0.191681 0.798240
Si Si2 0.000000 0.500000 0.570782
Si Si3 0.074602 0.574602 0.820437
Si Si4 0.464995 0.594971 0.086194
Si Si5 0.189339 0.089495 0.797826
Si Si6 0.033657 0.305845 0.447524
Si Si7 0.812802 0.884590 0.452022
O O1 0.641946 0.141946 0.817187
O O2 0.539076 0.181957 0.938491
O O3 0.556739 0.185362 0.627227
O O4 0.615013 0.259948 0.818680
O O5 0.044434 0.544434 0.667036
O O6 0.043930 0.456071 0.474419
O O7 0.065499 0.646940 0.827027
O O8 0.422183 0.535318 0.074028
O O9 0.444926 0.642817 0.946086
O O10 0.450315 0.628533 0.255805
O O11 0.238218 0.046313 0.883077
O O12 0.215163 0.119296 0.631844
O O13 0.174116 0.144871 0.917969
#
# Coordination Sequence:
#
# PCOD8307793 Si02
#       7
#    16   4   8  16  16  16  16
#     4  12  28  51  74 110 143 198 250 309 375 456
#     4  10  24  42  76 106 144 166 228 306 384 462
#     4  11  24  46  70 110 138 182 230 302 386 453
#     4   9  22  42  69 114 158 191 242 300 367 434
#     4  10  24  43  73 109 143 202 244 298 367 430
#     4  12  26  48  75 105 148 191 241 307 378 454
#     4  10  24  44  74 106 149 196 250 300 365 439
#
# _framework density 22.940059000000002
#
# number of rings (size 3 to 8) (size 9 to 14) (size 15 to 20)
#    1.043    0.348    0.870    3.130    7.304    0.000 
#    7.826    1.739    0.000    0.000    0.000    0.000 
#    0.000    0.000    0.000    0.000    0.000    0.000 
#
# Total GULP energy -570051.018789 kJ/mol
# GULP energy per Si atom -12392.413452 kJ/mol
# Density = 2.288785 g / cm^3
# Si number density = 22.940059 Si / 1000 Ang^3
#
#
#
# Elastic Constant Matrix: (Units=GPa)
#
#
# Indices 1 2 3 4 5 6 
#
# 1 143.2052 79.9491 34.8849 0.0000 0.0000 0.0000
# 2 79.9491 143.2052 34.8849 0.0000 0.0000 0.0000
# 3 34.8849 34.8849 68.7822 0.0000 0.0000 0.0000
# 4 0.0000 0.0000 0.0000 44.6133 0.0000 0.0000
# 5 0.0000 0.0000 0.0000 0.0000 44.6133 0.0000
# 6 0.0000 0.0000 0.0000 0.0000 0.0000 42.3526
#
#
#
# Elastic Compliance Matrix: (Units=1/GPa)
#
#
# Indices 1 2 3 4 5 6 
#
# 1 0.010567 -0.005242 -0.002701 0.000000 0.000000 0.000000
# 2 -0.005242 0.010567 -0.002701 0.000000 0.000000 0.000000
# 3 -0.002701 -0.002701 0.017279 0.000000 0.000000 0.000000
# 4 0.000000 0.000000 0.000000 0.022415 0.000000 0.000000
# 5 0.000000 0.000000 0.000000 0.000000 0.022415 0.000000
# 6 0.000000 0.000000 0.000000 0.000000 0.000000 0.023611
#
#
# Mechanical properties :
#
#
# Convention : Reuss Voigt Hill
#
# Bulk Modulus (GPa) = 58.39219 72.73672 65.56445
# Shear Modulus (GPa) = 37.35527 40.01407 38.68467
#
# Velocity S-wave (km/s) = 4.03970 4.18100 4.11096
# Velocity P-wave (km/s) = 6.87521 7.42185 7.15375
#
# Compressibility (1/GPa) = 0.01712558
#
# Stress axis : x y z
#
# Youngs Moduli (GPa) = 94.63223 94.63223 57.87529
#
# Poissons Ratio (x) = 0.49602 0.15633
# Poissons Ratio (y) = 0.49602 0.15633
# Poissons Ratio (z) = 0.25561 0.25561
#
# Static dielectric constant tensor:
#      x y z
#    x 4.056220 0.000000 0.000000 
#    y 0.000000 4.056220 0.000000 
#    z 0.000000 0.000000 4.044420 
# 
# 
# High freq. dielectric constant tensor:
#      x y z
#    x 1.901450 0.000000 0.000000 
#    y 0.000000 1.901450 0.000000 
#    z 0.000000 0.000000 1.905790 
# 
# From -- ./inp_files/800.got.cif
#   From: 2010.03.12/outbox.cif.g09.slc.cpg/sg108_1_cif.got.tgz:800.got - 2010.04.14 01:53:11.
