data_PCOD8307619
_publ_section_title
;
Structure prediction by ZEFSAII (Michael W. Deem and Ramdas Pophale) SiO2 
 PCOD8307619
Probable space group: I 4 M M
;
_chemical_formula_sum "Si O2"
_cell_formula_units_Z 112
_cell_length_a 13.915937
_cell_length_b 13.915937
_cell_length_c 35.663988
_cell_angle_alpha 90.000000
_cell_angle_beta 90.000000
_cell_angle_gamma 90.000000
_cell_volume 6906.449060
_symmetry_space_group_name_H-M "I 4 M M"
_symmetry_group_IT_number 107
_symmetry_cell_setting 'tetragonal'
loop_
_space_group_symop_operation_xyz
x,y,z
-y,x,z
-x,-y,z
y,-x,z
-x,y,z
x,-y,z
-y,-x,z
y,x,z
1/2+x,1/2+y,1/2+z
1/2-y,1/2+x,1/2+z
1/2-x,1/2-y,1/2+z
1/2+y,1/2-x,1/2+z
1/2-x,1/2+y,1/2+z
1/2+x,1/2-y,1/2+z
1/2-y,1/2-x,1/2+z
1/2+y,1/2+x,1/2+z
loop_
_atom_site_type_symbol
_atom_site_label
_atom_site_fract_x
_atom_site_fract_y
_atom_site_fract_z
Si Si1 0.614139 0.771263 0.656900
Si Si2 0.394213 0.885765 0.447773
Si Si3 0.386495 0.893353 0.728294
Si Si4 0.236761 0.609431 0.014343
Si Si5 0.889791 0.735328 0.380588
Si Si6 0.231424 0.388329 0.099775
Si Si7 0.889482 0.733302 0.296334
O O1 0.500000 0.752069 0.655050
O O2 0.669257 0.669257 0.654181
O O3 0.647344 0.823804 0.694980
O O4 0.644762 0.841863 0.623244
O O5 0.500000 0.839800 0.447633
O O6 0.342178 0.849502 0.485549
O O7 0.340948 0.848746 0.410365
O O8 0.400700 0.000000 0.447435
O O9 0.500000 0.903109 0.726965
O O10 0.353044 0.848956 0.767980
O O11 0.340515 0.000000 0.724066
O O12 0.260749 0.500000 0.004756
O O13 0.335772 0.664229 0.008210
O O14 0.198411 0.621510 0.056621
O O15 0.835255 0.835255 0.385367
O O16 0.875866 0.693338 0.338598
O O17 0.000000 0.759044 0.389095
O O18 0.247017 0.500000 0.110789
O O19 0.331287 0.331287 0.107228
O O20 0.830337 0.830337 0.289648
O O21 0.000000 0.760239 0.288214
#
# Coordination Sequence:
#
# PCOD8307619 Si02
#       7
#    16  16  16  16  16  16  16
#     4  10  20  33  49  69  93 121 154 192 233 277
#     4   9  17  28  41  58  82 113 147 181 218 260
#     4   9  17  29  45  64  86 114 147 181 218 261
#     4   9  17  29  45  66  92 119 147 180 217 260
#     4   9  17  28  42  61  86 115 146 181 220 265
#     4   9  18  31  47  69  95 123 156 191 227 270
#     4   9  17  28  42  62  88 117 148 181 218 263
#
# _framework density 16.216726999999999
#
# number of rings (size 3 to 8) (size 9 to 14) (size 15 to 20)
#    0.000    2.857    0.000    1.286    0.000    2.714 
#    0.000    7.143    0.000    5.143    0.000    0.000 
#    0.000    7.143    0.000   12.571    0.000    1.143 
#
# Total GULP energy -694224.442568 kJ/mol
# GULP energy per Si atom -12396.865046 kJ/mol
# Density = 1.617982 g / cm^3
# Si number density = 16.216727 Si / 1000 Ang^3
#
#
#
# Elastic Constant Matrix: (Units=GPa)
#
#
# Indices 1 2 3 4 5 6 
#
# 1 85.5287 40.9617 52.8128 0.0000 0.0000 -0.0003
# 2 40.9617 85.5287 52.8128 0.0000 0.0000 0.0003
# 3 52.8128 52.8128 117.1291 0.0000 0.0000 0.0000
# 4 0.0000 0.0000 0.0000 24.7338 0.0000 0.0000
# 5 0.0000 0.0000 0.0000 0.0000 24.7338 0.0000
# 6 -0.0003 0.0003 0.0000 0.0000 0.0000 11.5483
#
#
#
# Elastic Compliance Matrix: (Units=1/GPa)
#
#
# Indices 1 2 3 4 5 6 
#
# 1 0.017559 -0.004879 -0.005717 0.000000 0.000000 0.000001
# 2 -0.004879 0.017559 -0.005717 0.000000 0.000000 -0.000001
# 3 -0.005717 -0.005717 0.013693 0.000000 0.000000 0.000000
# 4 0.000000 0.000000 0.000000 0.040430 0.000000 0.000000
# 5 0.000000 0.000000 0.000000 0.000000 0.040430 0.000000
# 6 0.000001 -0.000001 0.000000 0.000000 0.000000 0.086593
#
#
# Mechanical properties :
#
#
# Convention : Reuss Voigt Hill
#
# Bulk Modulus (GPa) = 61.78921 64.59569 63.19245
# Shear Modulus (GPa) = 19.66281 21.64314 20.65297
#
# Velocity S-wave (km/s) = 3.48588 3.65721 3.57257
# Velocity P-wave (km/s) = 7.37473 7.59952 7.48797
#
# Compressibility (1/GPa) = 0.01618406
#
# Stress axis : x y z
#
# Youngs Moduli (GPa) = 56.95067 56.95067 73.02789
#
# Poissons Ratio (x) = 0.27787 0.41752
# Poissons Ratio (y) = 0.27787 0.41752
# Poissons Ratio (z) = 0.32561 0.32561
#
# Static dielectric constant tensor:
#      x y z
#    x 2.960160 0.000000 0.000000 
#    y 0.000000 2.960160 0.000000 
#    z 0.000000 0.000000 3.353300 
# 
# 
# High freq. dielectric constant tensor:
#      x y z
#    x 1.601480 0.000000 0.000000 
#    y 0.000000 1.601480 0.000000 
#    z 0.000000 0.000000 1.642360 
# 
# From -- ./inp_files/6178.got.cif
#   From: 2010.03.12/outbox.cif.g09.slc.cpg/sg107_4_cif.got.tgz:6178.got - 2010.04.14 01:49:11.
