data_PCOD8307884
_publ_section_title
;
Structure prediction by ZEFSAII (Michael W. Deem and Ramdas Pophale) SiO2 
 PCOD8307884
Probable space group: I 41 M D
;
_chemical_formula_sum "Si O2"
_cell_formula_units_Z 112
_cell_length_a 23.919074
_cell_length_b 23.919074
_cell_length_c 10.138869
_cell_angle_alpha 90.000000
_cell_angle_beta 90.000000
_cell_angle_gamma 90.000000
_cell_volume 5800.671034
_symmetry_space_group_name_H-M "I 41 M D"
_symmetry_group_IT_number 109
_symmetry_cell_setting 'tetragonal'
loop_
_space_group_symop_operation_xyz
x,y,z
-y,1/2+x,1/4+z
-x,-y,z
y,1/2-x,1/4+z
-x,y,z
x,-y,z
-y,1/2-x,1/4+z
y,1/2+x,1/4+z
1/2+x,1/2+y,1/2+z
1/2-y,x,3/4+z
1/2-x,1/2-y,1/2+z
1/2+y,-x,3/4+z
1/2-x,1/2+y,1/2+z
1/2+x,1/2-y,1/2+z
1/2-y,-x,3/4+z
1/2+y,x,3/4+z
loop_
_atom_site_type_symbol
_atom_site_label
_atom_site_fract_x
_atom_site_fract_y
_atom_site_fract_z
Si Si1 0.383858 0.825409 0.737310
Si Si2 0.206252 0.242780 0.933462
Si Si3 0.934273 0.841580 0.590881
Si Si4 0.085549 0.723346 0.974970
Si Si5 0.653889 0.937721 0.646768
Si Si6 0.065679 0.280540 0.504073
Si Si7 0.856493 0.938116 0.499365
O O1 0.320722 0.805866 0.720316
O O2 0.422407 0.796157 0.626467
O O3 0.385597 0.893180 0.722029
O O4 0.404175 0.807853 0.880068
O O5 0.249643 0.266476 0.040461
O O6 0.150463 0.279439 0.934319
O O7 0.918158 0.841332 0.745048
O O8 0.913770 0.783058 0.527795
O O9 0.905516 0.893192 0.516531
O O10 0.000000 0.848974 0.572433
O O11 0.060014 0.784786 0.960838
O O12 0.054237 0.680486 0.880371
O O13 0.627539 0.000000 0.658664
O O14 0.082102 0.317016 0.630709
O O15 0.000000 0.281386 0.479046
O O16 0.882045 0.000000 0.470133
#
# Coordination Sequence:
#
# PCOD8307884 Si02
#       7
#    16  16  16  16  16  16  16
#     4  10  21  37  55  87 119 152 199 247 296 360
#     4   9  20  33  48  77 116 153 192 235 292 349
#     4  10  21  39  63  90 120 158 205 253 298 351
#     4  10  19  34  57  83 115 153 199 241 289 347
#     4  10  19  36  60  86 119 156 201 250 295 355
#     4  10  23  41  61  87 118 154 197 244 302 362
#     4  11  22  38  62  89 116 157 200 244 300 354
#
# _framework density 19.308109999999999
#
# number of rings (size 3 to 8) (size 9 to 14) (size 15 to 20)
#    0.000    2.000    2.857    0.429    0.000    7.143 
#    0.000    2.143    0.000    1.286    0.000    0.000 
#    0.000    0.000    0.000    0.000    0.000    0.000 
#
# Total GULP energy -694420.762567 kJ/mol
# GULP energy per Si atom -12400.370760 kJ/mol
# Density = 1.926416 g / cm^3
# Si number density = 19.308110 Si / 1000 Ang^3
#
#
#
# Elastic Constant Matrix: (Units=GPa)
#
#
# Indices 1 2 3 4 5 6 
#
# 1 80.6957 47.7024 46.6924 0.0000 0.0000 0.0000
# 2 47.7024 80.6957 46.6924 0.0000 0.0000 0.0000
# 3 46.6924 46.6924 99.1567 0.0000 0.0000 0.0000
# 4 0.0000 0.0000 0.0000 27.5521 0.0000 0.0000
# 5 0.0000 0.0000 0.0000 0.0000 27.5521 0.0000
# 6 0.0000 0.0000 0.0000 0.0000 0.0000 26.6872
#
#
#
# Elastic Compliance Matrix: (Units=1/GPa)
#
#
# Indices 1 2 3 4 5 6 
#
# 1 0.021077 -0.009232 -0.005578 0.000000 0.000000 0.000000
# 2 -0.009232 0.021077 -0.005578 0.000000 0.000000 0.000000
# 3 -0.005578 -0.005578 0.015338 0.000000 0.000000 0.000000
# 4 0.000000 0.000000 0.000000 0.036295 0.000000 0.000000
# 5 0.000000 0.000000 0.000000 0.000000 0.036295 0.000000
# 6 0.000000 0.000000 0.000000 0.000000 0.000000 0.037471
#
#
# Mechanical properties :
#
#
# Convention : Reuss Voigt Hill
#
# Bulk Modulus (GPa) = 59.81890 60.30248 60.06069
# Shear Modulus (GPa) = 23.37534 24.32237 23.84885
#
# Velocity S-wave (km/s) = 3.48321 3.55307 3.51832
# Velocity P-wave (km/s) = 6.87208 6.93772 6.90498
#
# Compressibility (1/GPa) = 0.01671713
#
# Stress axis : x y z
#
# Youngs Moduli (GPa) = 47.44484 47.44484 65.19707
#
# Poissons Ratio (x) = 0.43802 0.36365
# Poissons Ratio (y) = 0.43802 0.36365
# Poissons Ratio (z) = 0.26464 0.26464
#
# Static dielectric constant tensor:
#      x y z
#    x 3.512370 0.000000 0.000000 
#    y 0.000000 3.512370 0.000000 
#    z 0.000000 0.000000 3.570660 
# 
# 
# High freq. dielectric constant tensor:
#      x y z
#    x 1.744880 0.000000 0.000000 
#    y 0.000000 1.744880 0.000000 
#    z 0.000000 0.000000 1.750020 
# 
# From -- ./inp_files/2138.got.cif
#   From: 2010.03.12/outbox.cif.g09.slc.cpg/sg109_2_cif.got.tgz:2138.got - 2010.04.14 01:55:16.
