data_PCOD8307342
_publ_section_title
;
Structure prediction by ZEFSAII (Michael W. Deem and Ramdas Pophale) SiO2 
 PCOD8307342
Probable space group: P 42 M C
;
_chemical_formula_sum "Si O2"
_cell_formula_units_Z 48
_cell_length_a 9.441582
_cell_length_b 9.441582
_cell_length_c 27.790194
_cell_angle_alpha 90.000000
_cell_angle_beta 90.000000
_cell_angle_gamma 90.000000
_cell_volume 2477.314344
_symmetry_space_group_name_H-M "P 42 M C"
_symmetry_group_IT_number 105
_symmetry_cell_setting 'tetragonal'
loop_
_space_group_symop_operation_xyz
x,y,z
-y,x,1/2+z
-x,-y,z
y,-x,1/2+z
-x,y,z
x,-y,z
-y,-x,1/2+z
y,x,1/2+z
loop_
_atom_site_type_symbol
_atom_site_label
_atom_site_fract_x
_atom_site_fract_y
_atom_site_fract_z
Si Si1 0.254574 0.330925 0.268350
Si Si2 0.834428 0.664980 0.856274
Si Si3 0.831151 0.748715 0.542764
Si Si4 0.500000 0.164084 0.111975
Si Si5 0.000000 0.329632 0.090433
Si Si6 0.500000 0.829969 0.218121
Si Si7 0.662005 0.338983 0.951480
Si Si8 0.000000 0.662965 0.199244
O O1 0.285222 0.500000 0.272120
O O2 0.236461 0.262477 0.321377
O O3 0.370797 0.235455 0.244983
O O4 0.128893 0.294534 0.232602
O O5 0.817380 0.500000 0.841621
O O6 0.772807 0.690898 0.909112
O O7 0.000000 0.710055 0.854820
O O8 0.790220 0.635129 0.582499
O O9 0.778642 0.694382 0.491355
O O10 0.000000 0.781688 0.540531
O O11 0.734363 0.874620 0.559773
O O12 0.500000 0.234643 0.164324
O O13 0.500000 0.000000 0.121988
O O14 0.000000 0.500000 0.088150
O O15 0.000000 0.267676 0.145606
O O16 0.500000 0.000000 0.222029
O O17 0.500000 0.319481 0.933437
O O18 0.682908 0.500000 0.970973
O O19 0.000000 0.500000 0.187026
#
# Coordination Sequence:
#
# PCOD8307342 Si02
#       8
#     8   8   8   4   4   4   8   4
#     4  11  21  38  62  88 121 160 203 257 308 364
#     4  10  21  38  61  89 121 157 202 254 307 367
#     4  11  22  40  62  89 124 162 206 252 312 372
#     4   9  20  37  59  87 125 161 197 249 300 371
#     4  11  23  41  63  89 125 167 209 255 308 367
#     4  11  21  35  59  91 123 159 203 245 302 361
#     4  10  21  38  61  89 118 155 203 254 311 370
#     4   9  22  41  61  89 125 163 207 255 306 369
#
# _framework density 19.375819
#
# number of rings (size 3 to 8) (size 9 to 14) (size 15 to 20)
#    0.000    1.667    1.667    3.000    1.167    0.667 
#    1.500    6.667    0.000    0.000    0.000    0.000 
#    0.000    0.000    0.000    0.000    0.000    0.000 
#
# Total GULP energy -594726.584295 kJ/mol
# GULP energy per Si atom -12390.137173 kJ/mol
# Density = 1.933172 g / cm^3
# Si number density = 19.375819 Si / 1000 Ang^3
#
#
#
# Elastic Constant Matrix: (Units=GPa)
#
#
# Indices 1 2 3 4 5 6 
#
# 1 105.3650 37.3427 34.7158 0.0000 0.0000 0.0000
# 2 37.3427 105.3650 34.7158 0.0000 0.0000 0.0000
# 3 34.7158 34.7158 97.7279 0.0000 0.0000 0.0000
# 4 0.0000 0.0000 0.0000 13.2403 0.0000 0.0000
# 5 0.0000 0.0000 0.0000 0.0000 13.2403 0.0000
# 6 0.0000 0.0000 0.0000 0.0000 0.0000 29.3688
#
#
#
# Elastic Compliance Matrix: (Units=1/GPa)
#
#
# Indices 1 2 3 4 5 6 
#
# 1 0.011586 -0.003115 -0.003009 0.000000 0.000000 0.000000
# 2 -0.003115 0.011586 -0.003009 0.000000 0.000000 0.000000
# 3 -0.003009 -0.003009 0.012370 0.000000 0.000000 0.000000
# 4 0.000000 0.000000 0.000000 0.075527 0.000000 0.000000
# 5 0.000000 0.000000 0.000000 0.000000 0.075527 0.000000
# 6 0.000000 0.000000 0.000000 0.000000 0.000000 0.034050
#
#
# Mechanical properties :
#
#
# Convention : Reuss Voigt Hill
#
# Bulk Modulus (GPa) = 57.88324 58.00071 57.94197
# Shear Modulus (GPa) = 20.43550 24.61546 22.52548
#
# Velocity S-wave (km/s) = 3.25112 3.56816 3.41333
# Velocity P-wave (km/s) = 6.63565 6.85385 6.74563
#
# Compressibility (1/GPa) = 0.01727616
#
# Stress axis : x y z
#
# Youngs Moduli (GPa) = 86.30914 86.30914 80.83767
#
# Poissons Ratio (x) = 0.26884 0.24326
# Poissons Ratio (y) = 0.26884 0.24326
# Poissons Ratio (z) = 0.25973 0.25973
#
# Static dielectric constant tensor:
#      x y z
#    x 3.468580 0.000000 0.000000 
#    y 0.000000 3.468580 0.000000 
#    z 0.000000 0.000000 3.923060 
# 
# 
# High freq. dielectric constant tensor:
#      x y z
#    x 1.751100 0.000000 0.000000 
#    y 0.000000 1.751100 0.000000 
#    z 0.000000 0.000000 1.773110 
# 
# From -- ./inp_files/4906.got.cif
#   From: 2010.03.12/outbox.cif.g09.slc.cpg/sg105_3_cif.got.tgz:4906.got - 2010.04.14 01:45:32.
