data_PCOD8307672
_publ_section_title
;
Structure prediction by ZEFSAII (Michael W. Deem and Ramdas Pophale) SiO2 
 PCOD8307672
Probable space group: I 4 M M
;
_chemical_formula_sum "Si O2"
_cell_formula_units_Z 64
_cell_length_a 18.298291
_cell_length_b 18.298291
_cell_length_c 9.526601
_cell_angle_alpha 90.000000
_cell_angle_beta 90.000000
_cell_angle_gamma 90.000000
_cell_volume 3189.767554
_symmetry_space_group_name_H-M "I 4 M M"
_symmetry_group_IT_number 107
_symmetry_cell_setting 'tetragonal'
loop_
_space_group_symop_operation_xyz
x,y,z
-y,x,z
-x,-y,z
y,-x,z
-x,y,z
x,-y,z
-y,-x,z
y,x,z
1/2+x,1/2+y,1/2+z
1/2-y,1/2+x,1/2+z
1/2-x,1/2-y,1/2+z
1/2+y,1/2-x,1/2+z
1/2-x,1/2+y,1/2+z
1/2+x,1/2-y,1/2+z
1/2-y,1/2-x,1/2+z
1/2+y,1/2+x,1/2+z
loop_
_atom_site_type_symbol
_atom_site_label
_atom_site_fract_x
_atom_site_fract_y
_atom_site_fract_z
Si Si1 0.858234 0.742144 0.705820
Si Si2 0.000000 0.879653 0.315153
Si Si3 0.774554 0.500000 0.660370
Si Si4 0.139502 0.500000 0.940491
Si Si5 0.157694 0.623337 0.484736
Si Si6 0.207660 0.000000 0.593892
O O1 0.789359 0.789359 0.752354
O O2 0.840999 0.702490 0.558113
O O3 0.927286 0.797051 0.689173
O O4 0.870589 0.681749 0.824071
O O5 0.000000 0.808544 0.215860
O O6 0.000000 0.855623 0.477506
O O7 0.072437 0.927564 0.285059
O O8 0.835992 0.500000 0.779171
O O9 0.786916 0.429231 0.565135
O O10 0.093810 0.426560 0.977759
O O11 0.211805 0.500000 0.031879
#
# Coordination Sequence:
#
# PCOD8307672 Si02
#       6
#    16   8   8   8  16   8
#     4  11  22  37  60  90 125 167 215 269 329 390
#     4  10  22  41  67  95 128 175 221 265 328 397
#     4  11  22  41  63  91 130 163 208 276 313 377
#     4   9  20  40  57  86 123 164 210 253 314 385
#     4  11  22  40  61  90 126 169 215 264 325 388
#     4   9  20  38  59  87 123 164 211 269 317 377
#
# _framework density 20.064157999999999
#
# number of rings (size 3 to 8) (size 9 to 14) (size 15 to 20)
#    0.000    1.625    2.500    2.250    0.000    2.500 
#    0.000    1.250    0.000    0.000    0.000    3.500 
#    0.000    0.000    0.000    0.000    0.000    0.000 
#
# Total GULP energy -396735.931996 kJ/mol
# GULP energy per Si atom -12397.997875 kJ/mol
# Density = 2.001849 g / cm^3
# Si number density = 20.064158 Si / 1000 Ang^3
#
#
#
# Elastic Constant Matrix: (Units=GPa)
#
#
# Indices 1 2 3 4 5 6 
#
# 1 116.1191 51.4164 34.8002 0.0000 0.0000 0.0005
# 2 51.4164 116.1191 34.8002 0.0000 0.0000 -0.0005
# 3 34.8002 34.8002 90.5113 0.0000 0.0000 0.0000
# 4 0.0000 0.0000 0.0000 32.9528 0.0000 0.0000
# 5 0.0000 0.0000 0.0000 0.0000 32.9528 0.0000
# 6 0.0005 -0.0005 0.0000 0.0000 0.0000 25.8204
#
#
#
# Elastic Compliance Matrix: (Units=1/GPa)
#
#
# Indices 1 2 3 4 5 6 
#
# 1 0.011279 -0.004176 -0.002731 0.000000 0.000000 0.000000
# 2 -0.004176 0.011279 -0.002731 0.000000 0.000000 0.000000
# 3 -0.002731 -0.002731 0.013149 0.000000 0.000000 0.000000
# 4 0.000000 0.000000 0.000000 0.030346 0.000000 0.000000
# 5 0.000000 0.000000 0.000000 0.000000 0.030346 0.000000
# 6 0.000000 0.000000 0.000000 0.000000 0.000000 0.038729
#
#
# Mechanical properties :
#
#
# Convention : Reuss Voigt Hill
#
# Bulk Modulus (GPa) = 60.86123 62.75365 61.80744
# Shear Modulus (GPa) = 31.27293 31.79407 31.53350
#
# Velocity S-wave (km/s) = 3.95225 3.98505 3.96868
# Velocity P-wave (km/s) = 7.15725 7.24697 7.20225
#
# Compressibility (1/GPa) = 0.01643082
#
# Stress axis : x y z
#
# Youngs Moduli (GPa) = 88.65707 88.65707 76.05404
#
# Poissons Ratio (x) = 0.37022 0.20772
# Poissons Ratio (y) = 0.37022 0.20772
# Poissons Ratio (z) = 0.24214 0.24214
#
# Static dielectric constant tensor:
#      x y z
#    x 3.637430 0.000000 0.000000 
#    y 0.000000 3.637430 0.000000 
#    z 0.000000 0.000000 3.611840 
# 
# 
# High freq. dielectric constant tensor:
#      x y z
#    x 1.778000 0.000000 0.000000 
#    y 0.000000 1.778000 0.000000 
#    z 0.000000 0.000000 1.783190 
# 
# From -- ./inp_files/2194.got.cif
#   From: 2010.03.12/outbox.cif.g09.slc.cpg/sg107_2_cif.got.tgz:2194.got - 2010.04.14 01:49:11.
