data_PCOD8307587
_publ_section_title
;
Structure prediction by ZEFSAII (Michael W. Deem and Ramdas Pophale) SiO2 
 PCOD8307587
Probable space group: I 4 M M
;
_chemical_formula_sum "Si O2"
_cell_formula_units_Z 96
_cell_length_a 22.077179
_cell_length_b 22.077179
_cell_length_c 9.327951
_cell_angle_alpha 90.000000
_cell_angle_beta 90.000000
_cell_angle_gamma 90.000000
_cell_volume 4546.460412
_symmetry_space_group_name_H-M "I 4 M M"
_symmetry_group_IT_number 107
_symmetry_cell_setting 'tetragonal'
loop_
_space_group_symop_operation_xyz
x,y,z
-y,x,z
-x,-y,z
y,-x,z
-x,y,z
x,-y,z
-y,-x,z
y,x,z
1/2+x,1/2+y,1/2+z
1/2-y,1/2+x,1/2+z
1/2-x,1/2-y,1/2+z
1/2+y,1/2-x,1/2+z
1/2-x,1/2+y,1/2+z
1/2+x,1/2-y,1/2+z
1/2-y,1/2-x,1/2+z
1/2+y,1/2+x,1/2+z
loop_
_atom_site_type_symbol
_atom_site_label
_atom_site_fract_x
_atom_site_fract_y
_atom_site_fract_z
Si Si1 0.071401 0.434320 0.565780
Si Si2 0.162277 0.263032 0.935899
Si Si3 0.243885 0.345623 0.112758
Si Si4 0.147576 0.431074 0.830247
Si Si5 0.929977 0.762600 0.171923
Si Si6 0.929767 0.168579 0.450373
O O1 0.095906 0.500000 0.511684
O O2 0.089314 0.426129 0.728909
O O3 0.100039 0.378306 0.475147
O O4 0.000000 0.432362 0.549292
O O5 0.214739 0.214739 0.921943
O O6 0.188364 0.323004 0.013516
O O7 0.108022 0.231466 0.026057
O O8 0.139257 0.279569 0.774709
O O9 0.294136 0.294136 0.120098
O O10 0.273470 0.405504 0.040599
O O11 0.167519 0.500000 0.861431
O O12 0.205850 0.400291 0.758481
O O13 0.923028 0.819534 0.279067
O O14 0.000000 0.751986 0.128867
O O15 0.891879 0.108122 0.488086
O O16 0.000000 0.158197 0.491479
#
# Coordination Sequence:
#
# PCOD8307587 Si02
#       6
#    16  16  16  16  16  16
#     4   9  16  28  46  64  86 124 175 227 274 320
#     4  10  19  34  57  82 111 149 192 235 285 344
#     4   9  19  34  55  84 113 144 185 233 283 341
#     4   9  18  30  42  62  92 126 168 218 271 319
#     4  10  21  35  51  75 110 149 188 235 287 341
#     4  10  21  39  62  88 118 150 188 237 295 358
#
# _framework density 21.115328000000002
#
# number of rings (size 3 to 8) (size 9 to 14) (size 15 to 20)
#    0.000    2.500    0.000    2.000    0.000    8.167 
#    0.000    0.000    0.000    7.000    0.000    0.000 
#    0.000    4.000    0.000    0.000    0.000    0.167 
#
# Total GULP energy -594783.201102 kJ/mol
# GULP energy per Si atom -12391.316690 kJ/mol
# Density = 2.106727 g / cm^3
# Si number density = 21.115328 Si / 1000 Ang^3
#
#
#
# Elastic Constant Matrix: (Units=GPa)
#
#
# Indices 1 2 3 4 5 6 
#
# 1 70.6658 28.8464 34.6900 0.0000 0.0000 0.0001
# 2 28.8464 70.6658 34.6900 0.0000 0.0000 -0.0001
# 3 34.6900 34.6900 112.3791 0.0000 0.0000 0.0000
# 4 0.0000 0.0000 0.0000 27.1950 0.0000 0.0000
# 5 0.0000 0.0000 0.0000 0.0000 27.1950 0.0000
# 6 0.0001 -0.0001 0.0000 0.0000 0.0000 23.8373
#
#
#
# Elastic Compliance Matrix: (Units=1/GPa)
#
#
# Indices 1 2 3 4 5 6 
#
# 1 0.018359 -0.005554 -0.003953 0.000000 0.000000 0.000000
# 2 -0.005554 0.018359 -0.003953 0.000000 0.000000 0.000000
# 3 -0.003953 -0.003953 0.011339 0.000000 0.000000 0.000000
# 4 0.000000 0.000000 0.000000 0.036771 0.000000 0.000000
# 5 0.000000 0.000000 0.000000 0.000000 0.036771 0.000000
# 6 0.000000 0.000000 0.000000 0.000000 0.000000 0.041951
#
#
# Mechanical properties :
#
#
# Convention : Reuss Voigt Hill
#
# Bulk Modulus (GPa) = 47.30896 50.01819 48.66357
# Shear Modulus (GPa) = 25.31467 26.01110 25.66289
#
# Velocity S-wave (km/s) = 3.46624 3.51359 3.48999
# Velocity P-wave (km/s) = 6.20269 6.34034 6.27190
#
# Compressibility (1/GPa) = 0.02113765
#
# Stress axis : x y z
#
# Youngs Moduli (GPa) = 54.47045 54.47045 88.19321
#
# Poissons Ratio (x) = 0.30251 0.34860
# Poissons Ratio (y) = 0.30251 0.34860
# Poissons Ratio (z) = 0.21530 0.21530
#
# Static dielectric constant tensor:
#      x y z
#    x 3.694620 0.000000 0.000000 
#    y 0.000000 3.694620 0.000000 
#    z 0.000000 0.000000 4.067450 
# 
# 
# High freq. dielectric constant tensor:
#      x y z
#    x 1.817270 0.000000 0.000000 
#    y 0.000000 1.817270 0.000000 
#    z 0.000000 0.000000 1.827990 
# 
# From -- ./inp_files/1491.got.cif
#   From: 2010.03.12/outbox.cif.g09.slc.cpg/sg107_1_cif.got.tgz:1491.got - 2010.04.14 01:49:11.
