data_PCOD8307140
_publ_section_title
;
Structure prediction by ZEFSAII (Michael W. Deem and Ramdas Pophale) SiO2 
 PCOD8307140
Probable space group: P 42 M C
;
_chemical_formula_sum "Si O2"
_cell_formula_units_Z 64
_cell_length_a 19.341680
_cell_length_b 19.341680
_cell_length_c 9.423351
_cell_angle_alpha 90.000000
_cell_angle_beta 90.000000
_cell_angle_gamma 90.000000
_cell_volume 3525.281124
_symmetry_space_group_name_H-M "P 42 M C"
_symmetry_group_IT_number 105
_symmetry_cell_setting 'tetragonal'
loop_
_space_group_symop_operation_xyz
x,y,z
-y,x,1/2+z
-x,-y,z
y,-x,1/2+z
-x,y,z
x,-y,z
-y,-x,1/2+z
y,x,1/2+z
loop_
_atom_site_type_symbol
_atom_site_label
_atom_site_fract_x
_atom_site_fract_y
_atom_site_fract_z
Si Si1 0.926050 0.840216 0.522000
Si Si2 0.840216 0.073950 0.331597
Si Si3 0.678224 0.077027 0.334901
Si Si4 0.688703 0.787989 0.509326
Si Si5 0.922973 0.678223 0.518698
Si Si6 0.328434 0.421715 0.340003
Si Si7 0.311298 0.212011 0.844273
Si Si8 0.671567 0.578285 0.013594
O O1 0.914809 0.872757 0.676799
O O2 0.862740 0.862740 0.426798
O O3 0.926958 0.759266 0.532670
O O4 0.000000 0.866107 0.460180
O O5 0.759267 0.073041 0.320929
O O6 0.866108 0.000000 0.393417
O O7 0.662968 0.137910 0.447701
O O8 0.647835 0.094122 0.176800
O O9 0.651018 0.000000 0.384038
O O10 0.707067 0.795118 0.676800
O O11 0.755346 0.755345 0.426800
O O12 0.623098 0.739450 0.482654
O O13 0.862090 0.662967 0.405898
O O14 0.000000 0.651017 0.469561
O O15 0.312295 0.500000 0.386888
O O16 0.260550 0.376902 0.370944
O O17 0.349738 0.417286 0.176798
O O18 0.393617 0.393616 0.426798
O O19 0.687707 0.500000 0.966710
#
# Coordination Sequence:
#
# PCOD8307140 Si02
#       8
#     8   8   8   8   8   8   8   8
#     4   9  18  30  41  55  77 106 140 179 227 281
#     4   9  18  30  41  55  77 106 140 179 227 281
#     4   9  18  32  48  67  93 122 154 200 254 299
#     4  10  19  31  50  74  99 129 166 206 248 297
#     4   9  18  32  48  67  93 122 154 200 254 299
#     4   9  19  35  53  76 107 139 169 202 241 286
#     4  10  19  31  50  74  99 129 166 206 248 297
#     4   9  19  35  53  76 107 139 169 202 241 286
#
# _framework density 18.154579999999999
#
# number of rings (size 3 to 8) (size 9 to 14) (size 15 to 20)
#    0.000    2.750    0.000    3.000    0.000    6.000 
#    0.000    5.000    0.000    0.750    0.000    5.250 
#    0.000    0.000    0.000    0.000    0.000    0.000 
#
# Total GULP energy -792881.558644 kJ/mol
# GULP energy per Si atom -12388.774354 kJ/mol
# Density = 1.811326 g / cm^3
# Si number density = 18.154580 Si / 1000 Ang^3
#
#
#
# Elastic Constant Matrix: (Units=GPa)
#
#
# Indices 1 2 3 4 5 6 
#
# 1 90.7200 24.8045 45.9557 0.0000 0.0000 0.0000
# 2 24.8045 90.7200 45.9557 0.0000 0.0000 0.0000
# 3 45.9557 45.9557 90.7672 0.0000 0.0000 0.0000
# 4 0.0000 0.0000 0.0000 27.8825 0.0000 0.0000
# 5 0.0000 0.0000 0.0000 0.0000 27.8825 0.0000
# 6 0.0000 0.0000 0.0000 0.0000 0.0000 14.7307
#
#
#
# Elastic Compliance Matrix: (Units=1/GPa)
#
#
# Indices 1 2 3 4 5 6 
#
# 1 0.014833 -0.000338 -0.007339 0.000000 0.000000 0.000000
# 2 -0.000338 0.014833 -0.007339 0.000000 0.000000 0.000000
# 3 -0.007339 -0.007339 0.018449 0.000000 0.000000 0.000000
# 4 0.000000 0.000000 0.000000 0.035865 0.000000 0.000000
# 5 0.000000 0.000000 0.000000 0.000000 0.035865 0.000000
# 6 0.000000 0.000000 0.000000 0.000000 0.000000 0.067886
#
#
# Mechanical properties :
#
#
# Convention : Reuss Voigt Hill
#
# Bulk Modulus (GPa) = 55.30022 56.18210 55.74116
# Shear Modulus (GPa) = 22.34249 24.46521 23.40385
#
# Velocity S-wave (km/s) = 3.51191 3.67496 3.59436
# Velocity P-wave (km/s) = 6.85358 7.00148 6.92793
#
# Compressibility (1/GPa) = 0.01808311
#
# Stress axis : x y z
#
# Youngs Moduli (GPa) = 67.41749 67.41749 54.20476
#
# Poissons Ratio (x) = 0.02279 0.39780
# Poissons Ratio (y) = 0.02279 0.39780
# Poissons Ratio (z) = 0.49477 0.49477
#
# Static dielectric constant tensor:
#      x y z
#    x 3.430710 0.000000 0.000000 
#    y 0.000000 3.430710 0.000000 
#    z 0.000000 0.000000 3.670760 
# 
# 
# High freq. dielectric constant tensor:
#      x y z
#    x 1.687510 0.000000 0.000000 
#    y 0.000000 1.687510 0.000000 
#    z 0.000000 0.000000 1.703910 
# 
# From -- ./inp_files/1209.got.cif
#   From: 2010.03.12/outbox.cif.g09.slc.cpg/sg105_1_cif.got.tgz:1209.got - 2010.04.14 01:45:32.
