data_PCOD8307957
_publ_section_title
;
Structure prediction by ZEFSAII (Michael W. Deem and Ramdas Pophale) SiO2 
 PCOD8307957
Probable space group: I 41 M D
;
_chemical_formula_sum "Si O2"
_cell_formula_units_Z 128
_cell_length_a 23.799758
_cell_length_b 23.799758
_cell_length_c 11.210763
_cell_angle_alpha 90.000000
_cell_angle_beta 90.000000
_cell_angle_gamma 90.000000
_cell_volume 6350.095455
_symmetry_space_group_name_H-M "I 41 M D"
_symmetry_group_IT_number 109
_symmetry_cell_setting 'tetragonal'
loop_
_space_group_symop_operation_xyz
x,y,z
-y,1/2+x,1/4+z
-x,-y,z
y,1/2-x,1/4+z
-x,y,z
x,-y,z
-y,1/2-x,1/4+z
y,1/2+x,1/4+z
1/2+x,1/2+y,1/2+z
1/2-y,x,3/4+z
1/2-x,1/2-y,1/2+z
1/2+y,-x,3/4+z
1/2-x,1/2+y,1/2+z
1/2+x,1/2-y,1/2+z
1/2-y,-x,3/4+z
1/2+y,x,3/4+z
loop_
_atom_site_type_symbol
_atom_site_label
_atom_site_fract_x
_atom_site_fract_y
_atom_site_fract_z
Si Si1 0.649301 0.350699 0.981760
Si Si2 0.141149 0.764660 0.849242
Si Si3 0.433383 0.438426 0.351834
Si Si4 0.837325 0.250000 0.106760
Si Si5 0.566950 0.661194 0.187958
Si Si6 0.641149 0.764660 0.864278
Si Si7 0.433050 0.161194 0.025562
Si Si8 0.066617 0.561574 0.361686
O O1 0.652669 0.300253 0.889145
O O2 0.655681 0.408739 0.908475
O O3 0.699747 0.347331 0.074376
O O4 0.591261 0.344319 0.055044
O O5 0.197801 0.798268 0.820446
O O6 0.090862 0.786716 0.764745
O O7 0.125362 0.767292 0.991031
O O8 0.500000 0.443299 0.352605
O O9 0.407090 0.500000 0.325241
O O10 0.412505 0.395673 0.252509
O O11 0.414945 0.414945 0.481760
O O12 0.798269 0.197801 0.143074
O O13 0.874638 0.267292 0.222489
O O14 0.500000 0.667854 0.180450
O O15 0.590862 0.786716 0.948775
O O16 0.500000 0.167854 0.033071
O O17 0.412505 0.104327 0.961011
O O18 0.092910 0.500000 0.388278
O O19 0.000000 0.556701 0.360915
#
# Coordination Sequence:
#
# PCOD8307957 Si02
#       8
#    16  16  16  16  16  16  16  16
#     4  12  24  40  60  85 122 172 218 250 314 393
#     4  11  22  40  64  93 123 160 216 272 320 386
#     4   8  16  34  59  84 112 154 206 255 304 364
#     4  10  22  38  69  96 117 154 218 276 324 376
#     4  11  25  40  61  93 133 172 211 269 334 392
#     4  11  22  40  64  93 123 160 216 272 320 386
#     4  11  25  40  61  93 133 172 211 269 334 392
#     4   8  16  34  59  84 112 154 206 255 304 364
#
# _framework density 20.157177999999998
#
# number of rings (size 3 to 8) (size 9 to 14) (size 15 to 20)
#    0.000    1.750    2.500    3.000    3.500    3.000 
#    0.000    0.625    0.000    0.000    0.000    0.000 
#    0.000    0.000    0.000    0.000    0.000    0.000 
#
# Total GULP energy -793378.267608 kJ/mol
# GULP energy per Si atom -12396.535431 kJ/mol
# Density = 2.011130 g / cm^3
# Si number density = 20.157178 Si / 1000 Ang^3
#
#
#
# Elastic Constant Matrix: (Units=GPa)
#
#
# Indices 1 2 3 4 5 6 
#
# 1 87.0152 25.1026 39.7897 0.0000 0.0000 0.0000
# 2 25.1026 87.0152 39.7897 0.0000 0.0000 0.0000
# 3 39.7897 39.7897 136.9541 0.0000 0.0000 0.0000
# 4 0.0000 0.0000 0.0000 27.2761 0.0000 0.0000
# 5 0.0000 0.0000 0.0000 0.0000 27.2761 0.0000
# 6 0.0000 0.0000 0.0000 0.0000 0.0000 23.8953
#
#
#
# Elastic Compliance Matrix: (Units=1/GPa)
#
#
# Indices 1 2 3 4 5 6 
#
# 1 0.013694 -0.002458 -0.003265 0.000000 0.000000 0.000000
# 2 -0.002458 0.013694 -0.003265 0.000000 0.000000 0.000000
# 3 -0.003265 -0.003265 0.009199 0.000000 0.000000 0.000000
# 4 0.000000 0.000000 0.000000 0.036662 0.000000 0.000000
# 5 0.000000 0.000000 0.000000 0.000000 0.036662 0.000000
# 6 0.000000 0.000000 0.000000 0.000000 0.000000 0.041849
#
#
# Mechanical properties :
#
#
# Convention : Reuss Voigt Hill
#
# Bulk Modulus (GPa) = 53.72550 57.81649 55.77100
# Shear Modulus (GPa) = 28.41911 29.44303 28.93107
#
# Velocity S-wave (km/s) = 3.75890 3.82602 3.79261
# Velocity P-wave (km/s) = 6.74910 6.94716 6.84884
#
# Compressibility (1/GPa) = 0.01861313
#
# Stress axis : x y z
#
# Youngs Moduli (GPa) = 73.02450 73.02450 108.71205
#
# Poissons Ratio (x) = 0.17948 0.35489
# Poissons Ratio (y) = 0.17948 0.35489
# Poissons Ratio (z) = 0.23839 0.23839
#
# Static dielectric constant tensor:
#      x y z
#    x 3.691340 0.000000 0.000000 
#    y 0.000000 3.691340 0.000000 
#    z 0.000000 0.000000 3.834090 
# 
# 
# High freq. dielectric constant tensor:
#      x y z
#    x 1.772180 0.000000 0.000000 
#    y 0.000000 1.772180 0.000000 
#    z 0.000000 0.000000 1.798970 
# 
# From -- ./inp_files/2198.got.cif
#   From: 2010.03.12/outbox.cif.g09.slc.cpg/sg109_2_cif.got.tgz:2198.got - 2010.04.14 01:55:16.
