data_PCOD8307599
_publ_section_title
;
Structure prediction by ZEFSAII (Michael W. Deem and Ramdas Pophale) SiO2 
 PCOD8307599
Probable space group: I 4 M M
;
_chemical_formula_sum "Si O2"
_cell_formula_units_Z 80
_cell_length_a 13.914859
_cell_length_b 13.914859
_cell_length_c 25.594495
_cell_angle_alpha 90.000000
_cell_angle_beta 90.000000
_cell_angle_gamma 90.000000
_cell_volume 4955.690609
_symmetry_space_group_name_H-M "I 4 M M"
_symmetry_group_IT_number 107
_symmetry_cell_setting 'tetragonal'
loop_
_space_group_symop_operation_xyz
x,y,z
-y,x,z
-x,-y,z
y,-x,z
-x,y,z
x,-y,z
-y,-x,z
y,x,z
1/2+x,1/2+y,1/2+z
1/2-y,1/2+x,1/2+z
1/2-x,1/2-y,1/2+z
1/2+y,1/2-x,1/2+z
1/2-x,1/2+y,1/2+z
1/2+x,1/2-y,1/2+z
1/2-y,1/2-x,1/2+z
1/2+y,1/2+x,1/2+z
loop_
_atom_site_type_symbol
_atom_site_label
_atom_site_fract_x
_atom_site_fract_y
_atom_site_fract_z
Si Si1 0.613702 0.107413 0.029240
Si Si2 0.393446 0.885792 0.413904
Si Si3 0.270029 0.885893 0.626748
Si Si4 0.269297 0.111673 0.205825
Si Si5 0.260619 0.109236 0.323896
O O1 0.500000 0.100158 0.032490
O O2 0.649780 0.182513 0.072442
O O3 0.655953 0.000000 0.039453
O O4 0.644750 0.144823 0.971506
O O5 0.500000 0.843859 0.406496
O O6 0.329709 0.842082 0.367143
O O7 0.396067 0.000000 0.409203
O O8 0.167993 0.832008 0.633200
O O9 0.343768 0.855971 0.672330
O O10 0.251868 0.000000 0.628964
O O11 0.170288 0.170288 0.195685
O O12 0.304129 0.121156 0.265879
O O13 0.251690 0.000000 0.191027
O O14 0.157222 0.157222 0.326982
O O15 0.242077 0.000000 0.338618
#
# Coordination Sequence:
#
# PCOD8307599 Si02
#       5
#    16  16  16  16  16
#     4   8  14  26  44  63  82 107 141 180 219 256
#     4   8  14  25  41  61  84 110 142 179 215 249
#     4  10  20  32  46  65  89 117 149 185 225 271
#     4   9  18  31  46  66  90 116 149 188 230 274
#     4   9  17  28  42  62  89 118 146 177 214 260
#
# _framework density 16.143058
#
# number of rings (size 3 to 8) (size 9 to 14) (size 15 to 20)
#    0.000    3.200    0.000    1.800    0.000    3.400 
#    0.000    4.000    0.000    0.000    0.000    5.600 
#    0.000    0.400    0.000    4.400    0.000    7.600 
#
# Total GULP energy -495668.591299 kJ/mol
# GULP energy per Si atom -12391.714782 kJ/mol
# Density = 1.610632 g / cm^3
# Si number density = 16.143058 Si / 1000 Ang^3
#
#
#
# Elastic Constant Matrix: (Units=GPa)
#
#
# Indices 1 2 3 4 5 6 
#
# 1 70.6751 32.5486 48.5060 0.0000 0.0000 0.0000
# 2 32.5486 70.6751 48.5060 0.0000 0.0000 0.0000
# 3 48.5060 48.5060 118.0095 0.0000 0.0000 0.0000
# 4 0.0000 0.0000 0.0000 23.4777 0.0000 0.0000
# 5 0.0000 0.0000 0.0000 0.0000 23.4777 0.0000
# 6 0.0000 0.0000 0.0000 0.0000 0.0000 11.4641
#
#
#
# Elastic Compliance Matrix: (Units=1/GPa)
#
#
# Indices 1 2 3 4 5 6 
#
# 1 0.021007 -0.005221 -0.006488 0.000000 0.000000 0.000000
# 2 -0.005221 0.021007 -0.006488 0.000000 0.000000 0.000000
# 3 -0.006488 -0.006488 0.013808 0.000000 0.000000 0.000000
# 4 0.000000 0.000000 0.000000 0.042594 0.000000 0.000000
# 5 0.000000 0.000000 0.000000 0.000000 0.042594 0.000000
# 6 0.000000 0.000000 0.000000 0.000000 0.000000 0.087229
#
#
# Mechanical properties :
#
#
# Convention : Reuss Voigt Hill
#
# Bulk Modulus (GPa) = 51.47898 57.60897 54.54398
# Shear Modulus (GPa) = 18.44268 20.33716 19.38992
#
# Velocity S-wave (km/s) = 3.38369 3.55323 3.46949
# Velocity P-wave (km/s) = 6.87199 7.25244 7.06478
#
# Compressibility (1/GPa) = 0.01942540
#
# Stress axis : x y z
#
# Youngs Moduli (GPa) = 47.60292 47.60292 72.42253
#
# Poissons Ratio (x) = 0.24855 0.46991
# Poissons Ratio (y) = 0.24855 0.46991
# Poissons Ratio (z) = 0.30887 0.30887
#
# Static dielectric constant tensor:
#      x y z
#    x 2.883770 0.000000 0.000000 
#    y 0.000000 2.883770 0.000000 
#    z 0.000000 0.000000 3.448670 
# 
# 
# High freq. dielectric constant tensor:
#      x y z
#    x 1.594030 0.000000 0.000000 
#    y 0.000000 1.594030 0.000000 
#    z 0.000000 0.000000 1.638650 
# 
# From -- ./inp_files/4600.got.cif
#   From: 2010.03.12/outbox.cif.g09.slc.cpg/sg107_3_cif.got.tgz:4600.got - 2010.04.14 01:49:11.
