data_PCOD8307816
_publ_section_title
;
Structure prediction by ZEFSAII (Michael W. Deem and Ramdas Pophale) SiO2 
 PCOD8307816
Probable space group: I 4 C M
;
_chemical_formula_sum "Si O2"
_cell_formula_units_Z 72
_cell_length_a 13.785385
_cell_length_b 13.785385
_cell_length_c 18.427918
_cell_angle_alpha 90.000000
_cell_angle_beta 90.000000
_cell_angle_gamma 90.000000
_cell_volume 3501.983297
_symmetry_space_group_name_H-M "I 4 C M"
_symmetry_group_IT_number 108
_symmetry_cell_setting 'tetragonal'
loop_
_space_group_symop_operation_xyz
x,y,z
-y,x,z
-x,-y,z
y,-x,z
-x,y,1/2+z
x,-y,1/2+z
-y,-x,1/2+z
y,x,1/2+z
1/2+x,1/2+y,1/2+z
1/2-y,1/2+x,1/2+z
1/2-x,1/2-y,1/2+z
1/2+y,1/2-x,1/2+z
1/2-x,1/2+y,z
1/2+x,1/2-y,z
1/2-y,1/2-x,z
1/2+y,1/2+x,z
loop_
_atom_site_type_symbol
_atom_site_label
_atom_site_fract_x
_atom_site_fract_y
_atom_site_fract_z
Si Si1 0.664748 0.679654 0.190190
Si Si2 0.680709 0.180709 0.490277
Si Si3 0.712693 0.994830 0.740729
Si Si4 0.623013 0.597977 0.535078
Si Si5 0.424678 0.924678 0.360933
Si Si6 0.075206 0.424795 0.620844
O O1 0.726718 0.773283 0.164407
O O2 0.732927 0.606153 0.232093
O O3 0.583547 0.712023 0.248712
O O4 0.611657 0.633816 0.121192
O O5 0.660325 0.296449 0.491691
O O6 0.636265 0.136265 0.417873
O O7 0.630592 0.130592 0.558248
O O8 0.647027 0.988752 0.811614
O O9 0.650293 0.013816 0.668611
O O10 0.515515 0.635258 0.514252
O O11 0.500000 0.000000 0.398392
O O12 0.000000 0.500000 0.584836
#
# Coordination Sequence:
#
# PCOD8307816 Si02
#       6
#    16   8  16  16   8   8
#     4  12  20  35  66 103 129 168 228 273 336 396
#     4  12  25  45  64 100 135 182 233 275 346 419
#     4  12  22  39  67  94 136 174 220 284 336 395
#     4  11  22  41  68 100 138 172 220 292 343 395
#     4  12  25  48  65  95 139 188 229 281 340 408
#     4  12  19  39  67  92 122 168 224 288 332 384
#
# _framework density 20.559778000000001
#
# number of rings (size 3 to 8) (size 9 to 14) (size 15 to 20)
#    0.000    0.222   10.000    0.333    0.000    0.444 
#    8.000    0.000    0.000    0.000    0.000    0.000 
#    0.000    0.000    0.000    0.000    0.000    0.000 
#
# Total GULP energy -446480.078072 kJ/mol
# GULP energy per Si atom -12402.224391 kJ/mol
# Density = 2.051298 g / cm^3
# Si number density = 20.559778 Si / 1000 Ang^3
#
#
#
# Elastic Constant Matrix: (Units=GPa)
#
#
# Indices 1 2 3 4 5 6 
#
# 1 120.1968 55.6443 23.9266 0.0000 0.0000 -0.0001
# 2 55.6443 120.1968 23.9266 0.0000 0.0000 0.0001
# 3 23.9266 23.9266 57.4446 0.0000 0.0000 0.0000
# 4 0.0000 0.0000 0.0000 21.1724 0.0000 0.0000
# 5 0.0000 0.0000 0.0000 0.0000 21.1724 0.0000
# 6 -0.0001 0.0001 0.0000 0.0000 0.0000 57.1227
#
#
#
# Elastic Compliance Matrix: (Units=1/GPa)
#
#
# Indices 1 2 3 4 5 6 
#
# 1 0.010953 -0.004539 -0.002672 0.000000 0.000000 0.000000
# 2 -0.004539 0.010953 -0.002672 0.000000 0.000000 0.000000
# 3 -0.002672 -0.002672 0.019634 0.000000 0.000000 0.000000
# 4 0.000000 0.000000 0.000000 0.047231 0.000000 0.000000
# 5 0.000000 0.000000 0.000000 0.000000 0.047231 0.000000
# 6 0.000000 0.000000 0.000000 0.000000 0.000000 0.017506
#
#
# Mechanical properties :
#
#
# Convention : Reuss Voigt Hill
#
# Bulk Modulus (GPa) = 45.92341 56.09259 51.00800
# Shear Modulus (GPa) = 27.69634 32.84956 30.27295
#
# Velocity S-wave (km/s) = 3.67429 4.00153 3.84140
# Velocity P-wave (km/s) = 6.35496 6.97794 6.67372
#
# Compressibility (1/GPa) = 0.02177539
#
# Stress axis : x y z
#
# Youngs Moduli (GPa) = 91.30231 91.30231 50.93325
#
# Poissons Ratio (x) = 0.41439 0.13607
# Poissons Ratio (y) = 0.41439 0.13607
# Poissons Ratio (z) = 0.24392 0.24392
#
# Static dielectric constant tensor:
#      x y z
#    x 4.064470 0.000000 0.000000 
#    y 0.000000 4.064470 0.000000 
#    z 0.000000 0.000000 3.351600 
# 
# 
# High freq. dielectric constant tensor:
#      x y z
#    x 1.822580 0.000000 0.000000 
#    y 0.000000 1.822580 0.000000 
#    z 0.000000 0.000000 1.756500 
# 
# From -- ./inp_files/2357.got.cif
#   From: 2010.03.12/outbox.cif.g09.slc.cpg/sg108_2_cif.got.tgz:2357.got - 2010.04.14 01:53:11.
