data_PCOD8307000
_publ_section_title
;
Structure prediction by ZEFSAII (Michael W. Deem and Ramdas Pophale) SiO2 
 PCOD8307000
Probable space group: P 4 C C
;
_chemical_formula_sum "Si O2"
_cell_formula_units_Z 40
_cell_length_a 14.354259
_cell_length_b 14.354259
_cell_length_c 9.467070
_cell_angle_alpha 90.000000
_cell_angle_beta 90.000000
_cell_angle_gamma 90.000000
_cell_volume 1950.640085
_symmetry_space_group_name_H-M "P 4 C C"
_symmetry_group_IT_number 103
_symmetry_cell_setting 'tetragonal'
loop_
_space_group_symop_operation_xyz
x,y,z
-y,x,z
-x,-y,z
y,-x,z
-x,y,1/2+z
x,-y,1/2+z
-y,-x,1/2+z
y,x,1/2+z
loop_
_atom_site_type_symbol
_atom_site_label
_atom_site_fract_x
_atom_site_fract_y
_atom_site_fract_z
Si Si1 0.860652 0.715197 0.816920
Si Si2 0.125459 0.425467 0.037205
Si Si3 0.051692 0.146948 0.038574
Si Si4 0.862695 0.278882 0.760251
Si Si5 0.373563 0.917140 0.536389
O O1 0.768745 0.761813 0.752891
O O2 0.921852 0.673290 0.690087
O O3 0.820800 0.632069 0.916067
O O4 0.923341 0.789946 0.902955
O O5 0.146204 0.380778 0.189844
O O6 0.150698 0.535280 0.037797
O O7 0.018087 0.409853 0.996108
O O8 0.066553 0.209110 0.178995
O O9 0.943773 0.117497 0.036834
O O10 0.889252 0.294805 0.923545
#
# Coordination Sequence:
#
# PCOD8307000 Si02
#       5
#     8   8   8   8   8
#     4  11  24  37  62  86 121 161 206 258 300 351
#     4  10  23  39  62  85 120 160 200 259 315 368
#     4  10  25  43  55  78 119 177 221 248 288 336
#     4  11  24  37  62  86 121 161 206 258 300 351
#     4  11  22  40  61  90 116 154 210 256 320 362
#
# _framework density 20.506088999999999
#
# number of rings (size 3 to 8) (size 9 to 14) (size 15 to 20)
#    0.000    1.400    0.000    4.800   16.800    3.200 
#    0.000    2.000    0.000    2.400    0.000    0.000 
#    0.000   56.000    0.000    0.000    0.000    0.000 
#
# Total GULP energy -495902.818550 kJ/mol
# GULP energy per Si atom -12397.570464 kJ/mol
# Density = 2.045942 g / cm^3
# Si number density = 20.506089 Si / 1000 Ang^3
#
#
#
# Elastic Constant Matrix: (Units=GPa)
#
#
# Indices 1 2 3 4 5 6 
#
# 1 113.3078 32.6092 38.1075 0.0000 0.0000 0.0000
# 2 32.6092 113.3078 38.1075 0.0000 0.0000 0.0000
# 3 38.1075 38.1075 132.7629 0.0000 0.0000 0.0000
# 4 0.0000 0.0000 0.0000 24.8657 0.0000 0.0000
# 5 0.0000 0.0000 0.0000 0.0000 24.8657 0.0000
# 6 0.0000 0.0000 0.0000 0.0000 0.0000 16.0566
#
#
#
# Elastic Compliance Matrix: (Units=1/GPa)
#
#
# Indices 1 2 3 4 5 6 
#
# 1 0.010227 -0.002165 -0.002314 0.000000 0.000000 0.000000
# 2 -0.002165 0.010227 -0.002314 0.000000 0.000000 0.000000
# 3 -0.002314 -0.002314 0.008861 0.000000 0.000000 0.000000
# 4 0.000000 0.000000 0.000000 0.040216 0.000000 0.000000
# 5 0.000000 0.000000 0.000000 0.000000 0.040216 0.000000
# 6 0.000000 0.000000 0.000000 0.000000 0.000000 0.062280
#
#
# Mechanical properties :
#
#
# Convention : Reuss Voigt Hill
#
# Bulk Modulus (GPa) = 63.57988 64.11410 63.84699
# Shear Modulus (GPa) = 26.19791 29.86121 28.02956
#
# Velocity S-wave (km/s) = 3.57819 3.82017 3.70116
# Velocity P-wave (km/s) = 6.93858 7.12686 7.03335
#
# Compressibility (1/GPa) = 0.01572825
#
# Stress axis : x y z
#
# Youngs Moduli (GPa) = 97.78199 97.78199 112.85860
#
# Poissons Ratio (x) = 0.21169 0.26116
# Poissons Ratio (y) = 0.21169 0.26116
# Poissons Ratio (z) = 0.22627 0.22627
#
# Static dielectric constant tensor:
#      x y z
#    x 3.948200 0.000000 0.000000 
#    y 0.000000 3.948200 0.000000 
#    z 0.000000 0.000000 3.863830 
# 
# 
# High freq. dielectric constant tensor:
#      x y z
#    x 1.779070 0.000000 0.000000 
#    y 0.000000 1.779070 0.000000 
#    z 0.000000 0.000000 1.822950 
# 
# From -- ./inp_files/202.got.cif
#   From: 2010.03.12/outbox.cif.g09.slc.cpg/sg103_cif.got.tgz:202.got - 2010.04.14 01:42:52.
