data_PCOD8307544
_publ_section_title
;
Structure prediction by ZEFSAII (Michael W. Deem and Ramdas Pophale) SiO2 
 PCOD8307544
Probable space group: I 4 M M
;
_chemical_formula_sum "Si O2"
_cell_formula_units_Z 112
_cell_length_a 14.007699
_cell_length_b 14.007699
_cell_length_c 35.783849
_cell_angle_alpha 90.000000
_cell_angle_beta 90.000000
_cell_angle_gamma 90.000000
_cell_volume 7021.350521
_symmetry_space_group_name_H-M "I 4 M M"
_symmetry_group_IT_number 107
_symmetry_cell_setting 'tetragonal'
loop_
_space_group_symop_operation_xyz
x,y,z
-y,x,z
-x,-y,z
y,-x,z
-x,y,z
x,-y,z
-y,-x,z
y,x,z
1/2+x,1/2+y,1/2+z
1/2-y,1/2+x,1/2+z
1/2-x,1/2-y,1/2+z
1/2+y,1/2-x,1/2+z
1/2-x,1/2+y,1/2+z
1/2+x,1/2-y,1/2+z
1/2-y,1/2-x,1/2+z
1/2+y,1/2+x,1/2+z
loop_
_atom_site_type_symbol
_atom_site_label
_atom_site_fract_x
_atom_site_fract_y
_atom_site_fract_z
Si Si1 0.609622 0.764390 0.320320
Si Si2 0.890854 0.609146 0.612554
Si Si3 0.113042 0.393939 0.753269
Si Si4 0.613042 0.893939 0.471840
Si Si5 0.266921 0.111951 0.684414
Si Si6 0.766921 0.611951 0.540695
Si Si7 0.390378 0.235610 0.404789
O O1 0.500000 0.737458 0.312345
O O2 0.668360 0.668360 0.312990
O O3 0.645129 0.847049 0.292454
O O4 0.623934 0.802405 0.362554
O O5 0.875027 0.500000 0.625218
O O6 0.863513 0.675876 0.646971
O O7 0.824124 0.636487 0.578138
O O8 0.000000 0.624973 0.599890
O O9 0.158253 0.500000 0.750881
O O10 0.149919 0.330095 0.718961
O O11 0.000000 0.402066 0.750981
O O12 0.500000 0.902066 0.474128
O O13 0.649919 0.830095 0.506147
O O14 0.645129 0.847049 0.432655
O O15 0.658253 0.000000 0.474227
O O16 0.166527 0.166527 0.684143
O O17 0.244379 0.000000 0.687937
O O18 0.744379 0.500000 0.537172
O O19 0.666527 0.666527 0.540965
O O20 0.500000 0.262542 0.412763
O O21 0.331640 0.331640 0.412118
#
# Coordination Sequence:
#
# PCOD8307544 Si02
#       7
#    16  16  16  16  16  16  16
#     4   9  17  28  42  62  89 119 148 177 210 253
#     4   9  17  30  48  68  89 115 148 184 220 253
#     4   9  17  29  44  61  82 110 144 181 220 257
#     4   9  17  29  44  61  82 110 144 181 220 257
#     4  10  19  30  45  65  90 118 146 177 213 256
#     4  10  19  30  45  65  90 118 146 177 213 256
#     4   9  17  28  42  62  89 119 148 177 210 253
#
# _framework density 15.951347
#
# number of rings (size 3 to 8) (size 9 to 14) (size 15 to 20)
#    0.000    2.714    0.000    2.143    0.000    4.571 
#    0.000    4.286    0.000    5.143    0.000    0.000 
#    0.000   25.143    0.000   12.571    0.000    1.143 
#
# Total GULP energy -694350.039249 kJ/mol
# GULP energy per Si atom -12399.107844 kJ/mol
# Density = 1.591504 g / cm^3
# Si number density = 15.951347 Si / 1000 Ang^3
#
#
#
# Elastic Constant Matrix: (Units=GPa)
#
#
# Indices 1 2 3 4 5 6 
#
# 1 79.0089 48.2381 55.7740 0.0000 0.0000 0.0000
# 2 48.2381 79.0089 55.7740 0.0000 0.0000 0.0000
# 3 55.7740 55.7740 123.2601 0.0000 0.0000 0.0000
# 4 0.0000 0.0000 0.0000 22.5617 0.0000 0.0000
# 5 0.0000 0.0000 0.0000 0.0000 22.5617 0.0000
# 6 0.0000 0.0000 0.0000 0.0000 0.0000 17.6466
#
#
#
# Elastic Compliance Matrix: (Units=1/GPa)
#
#
# Indices 1 2 3 4 5 6 
#
# 1 0.022762 -0.009736 -0.005894 0.000000 0.000000 0.000000
# 2 -0.009736 0.022762 -0.005894 0.000000 0.000000 0.000000
# 3 -0.005894 -0.005894 0.013447 0.000000 0.000000 0.000000
# 4 0.000000 0.000000 0.000000 0.044323 0.000000 0.000000
# 5 0.000000 0.000000 0.000000 0.000000 0.044323 0.000000
# 6 0.000000 0.000000 0.000000 0.000000 0.000000 0.056668
#
#
# Mechanical properties :
#
#
# Convention : Reuss Voigt Hill
#
# Bulk Modulus (GPa) = 62.80562 66.76113 64.78338
# Shear Modulus (GPa) = 19.79095 20.65342 20.22219
#
# Velocity S-wave (km/s) = 3.52619 3.60220 3.56440
# Velocity P-wave (km/s) = 7.48581 7.69708 7.59218
#
# Compressibility (1/GPa) = 0.01592214
#
# Stress axis : x y z
#
# Youngs Moduli (GPa) = 43.93304 43.93304 74.36704
#
# Poissons Ratio (x) = 0.42775 0.43831
# Poissons Ratio (y) = 0.42775 0.43831
# Poissons Ratio (z) = 0.25894 0.25894
#
# Static dielectric constant tensor:
#      x y z
#    x 2.887860 0.000000 0.000000 
#    y 0.000000 2.887860 0.000000 
#    z 0.000000 0.000000 3.252640 
# 
# 
# High freq. dielectric constant tensor:
#      x y z
#    x 1.590070 0.000000 0.000000 
#    y 0.000000 1.590070 0.000000 
#    z 0.000000 0.000000 1.632820 
# 
# From -- ./inp_files/6209.got.cif
#   From: 2010.03.12/outbox.cif.g09.slc.cpg/sg107_4_cif.got.tgz:6209.got - 2010.04.14 01:49:11.
