data_PCOD8307329
_publ_section_title
;
Structure prediction by ZEFSAII (Michael W. Deem and Ramdas Pophale) SiO2 
 PCOD8307329
Probable space group: P 42 M C
;
_chemical_formula_sum "Si O2"
_cell_formula_units_Z 48
_cell_length_a 9.098693
_cell_length_b 9.098693
_cell_length_c 30.859989
_cell_angle_alpha 90.000000
_cell_angle_beta 90.000000
_cell_angle_gamma 90.000000
_cell_volume 2554.781663
_symmetry_space_group_name_H-M "P 42 M C"
_symmetry_group_IT_number 105
_symmetry_cell_setting 'tetragonal'
loop_
_space_group_symop_operation_xyz
x,y,z
-y,x,1/2+z
-x,-y,z
y,-x,1/2+z
-x,y,z
x,-y,z
-y,-x,1/2+z
y,x,1/2+z
loop_
_atom_site_type_symbol
_atom_site_label
_atom_site_fract_x
_atom_site_fract_y
_atom_site_fract_z
Si Si1 0.172742 0.169751 0.444240
Si Si2 0.830249 0.172742 0.599788
Si Si3 0.668812 0.828846 0.187323
Si Si4 0.671417 0.671417 0.522014
Si Si5 0.668812 0.171154 0.356706
Si Si6 0.325185 0.334271 0.272014
O O1 0.245106 0.271473 0.480023
O O2 0.235759 0.218405 0.397920
O O3 0.000000 0.196383 0.444384
O O4 0.211704 0.000000 0.454104
O O5 0.781595 0.235759 0.646109
O O6 0.728527 0.245106 0.564005
O O7 0.000000 0.211704 0.589924
O O8 0.803617 0.000000 0.599645
O O9 0.500000 0.785084 0.178113
O O10 0.734394 0.744692 0.228877
O O11 0.683814 0.000000 0.197387
O O12 0.500000 0.704241 0.516266
O O13 0.704240 0.500000 0.527762
O O14 0.500000 0.214916 0.365916
O O15 0.734394 0.255308 0.315152
O O16 0.683814 0.000000 0.346642
O O17 0.500000 0.324808 0.272014
O O18 0.266882 0.500000 0.272014
#
# Coordination Sequence:
#
# PCOD8307329 Si02
#       6
#     8   8   8   8   8   8
#     4  10  21  37  57  81 108 139 176 218 265 316
#     4  10  21  37  57  81 108 139 176 218 265 316
#     4   9  17  31  52  76 103 137 175 213 257 311
#     4  11  24  39  56  80 108 139 176 217 262 314
#     4   9  17  31  52  76 103 137 175 213 257 311
#     4   9  17  29  48  75 104 134 172 219 264 305
#
# _framework density 18.788297
#
# number of rings (size 3 to 8) (size 9 to 14) (size 15 to 20)
#    0.000    2.333    0.000    2.500    0.000    8.667 
#    0.000    4.167    0.000    5.000    0.000    0.000 
#    0.000    0.000    0.000    0.000    0.000    0.000 
#
# Total GULP energy -595352.058041 kJ/mol
# GULP energy per Si atom -12403.167876 kJ/mol
# Density = 1.874553 g / cm^3
# Si number density = 18.788297 Si / 1000 Ang^3
#
#
#
# Elastic Constant Matrix: (Units=GPa)
#
#
# Indices 1 2 3 4 5 6 
#
# 1 76.9038 42.2720 67.5032 0.0000 0.0000 0.0000
# 2 42.2720 76.9038 67.5032 0.0000 0.0000 0.0000
# 3 67.5032 67.5032 167.9608 0.0000 0.0000 0.0000
# 4 0.0000 0.0000 0.0000 37.4153 0.0000 0.0000
# 5 0.0000 0.0000 0.0000 0.0000 37.4153 0.0000
# 6 0.0000 0.0000 0.0000 0.0000 0.0000 22.1797
#
#
#
# Elastic Compliance Matrix: (Units=1/GPa)
#
#
# Indices 1 2 3 4 5 6 
#
# 1 0.022140 -0.006735 -0.006191 0.000000 0.000000 0.000000
# 2 -0.006735 0.022140 -0.006191 0.000000 0.000000 0.000000
# 3 -0.006191 -0.006191 0.010930 0.000000 0.000000 0.000000
# 4 0.000000 0.000000 0.000000 0.026727 0.000000 0.000000
# 5 0.000000 0.000000 0.000000 0.000000 0.026727 0.000000
# 6 0.000000 0.000000 0.000000 0.000000 0.000000 0.045086
#
#
# Mechanical properties :
#
#
# Convention : Reuss Voigt Hill
#
# Bulk Modulus (GPa) = 58.91085 75.14725 67.02905
# Shear Modulus (GPa) = 25.29813 29.03470 27.16642
#
# Velocity S-wave (km/s) = 3.67343 3.93537 3.80665
# Velocity P-wave (km/s) = 7.02960 7.79315 7.42120
#
# Compressibility (1/GPa) = 0.01697480
#
# Stress axis : x y z
#
# Youngs Moduli (GPa) = 45.16761 45.16761 91.49073
#
# Poissons Ratio (x) = 0.30422 0.56642
# Poissons Ratio (y) = 0.30422 0.56642
# Poissons Ratio (z) = 0.27963 0.27963
#
# Static dielectric constant tensor:
#      x y z
#    x 3.383600 0.000000 0.000000 
#    y 0.000000 3.383600 0.000000 
#    z 0.000000 0.000000 3.670230 
# 
# 
# High freq. dielectric constant tensor:
#      x y z
#    x 1.719530 0.000000 0.000000 
#    y 0.000000 1.719530 0.000000 
#    z 0.000000 0.000000 1.746350 
# 
# From -- ./inp_files/4667.got.cif
#   From: 2010.03.12/outbox.cif.g09.slc.cpg/sg105_3_cif.got.tgz:4667.got - 2010.04.14 01:45:32.
