data_PCOD8307917
_publ_section_title
;
Structure prediction by ZEFSAII (Michael W. Deem and Ramdas Pophale) SiO2 
 PCOD8307917
Probable space group: I 41 M D
;
_chemical_formula_sum "Si O2"
_cell_formula_units_Z 112
_cell_length_a 23.319317
_cell_length_b 23.319317
_cell_length_c 10.266392
_cell_angle_alpha 90.000000
_cell_angle_beta 90.000000
_cell_angle_gamma 90.000000
_cell_volume 5582.766904
_symmetry_space_group_name_H-M "I 41 M D"
_symmetry_group_IT_number 109
_symmetry_cell_setting 'tetragonal'
loop_
_space_group_symop_operation_xyz
x,y,z
-y,1/2+x,1/4+z
-x,-y,z
y,1/2-x,1/4+z
-x,y,z
x,-y,z
-y,1/2-x,1/4+z
y,1/2+x,1/4+z
1/2+x,1/2+y,1/2+z
1/2-y,x,3/4+z
1/2-x,1/2-y,1/2+z
1/2+y,-x,3/4+z
1/2-x,1/2+y,1/2+z
1/2+x,1/2-y,1/2+z
1/2-y,-x,3/4+z
1/2+y,x,3/4+z
loop_
_atom_site_type_symbol
_atom_site_label
_atom_site_fract_x
_atom_site_fract_y
_atom_site_fract_z
Si Si1 0.770635 0.284096 0.494860
Si Si2 0.435425 0.212963 0.427489
Si Si3 0.831053 0.434096 0.775150
Si Si4 0.819815 0.120292 0.939575
Si Si5 0.131963 0.065167 0.446354
Si Si6 0.935340 0.160372 0.827609
Si Si7 0.294633 0.397960 0.714449
O O1 0.768341 0.262373 0.643971
O O2 0.714177 0.322133 0.473373
O O3 0.831853 0.315494 0.479569
O O4 0.500000 0.198221 0.463874
O O5 0.402280 0.212004 0.562426
O O6 0.413682 0.167365 0.322023
O O7 0.428867 0.273542 0.359624
O O8 0.816538 0.500000 0.748733
O O9 0.886597 0.417561 0.686495
O O10 0.774348 0.399157 0.732906
O O11 0.847542 0.423299 0.925053
O O12 0.887798 0.126415 0.911073
O O13 0.812331 0.080434 0.068738
O O14 0.172669 0.063594 0.319640
O O15 0.107791 0.000000 0.462823
O O16 0.000000 0.138412 0.862587
#
# Coordination Sequence:
#
# PCOD8307917 Si02
#       7
#    16  16  16  16  16  16  16
#     4  10  22  33  52  85 122 162 200 241 307 373
#     4  10  20  35  58  86 114 156 205 248 306 364
#     4  11  23  40  65  93 125 170 215 263 314 369
#     4  11  22  38  58  89 126 162 202 255 315 368
#     4  11  22  39  63  90 121 162 212 260 309 374
#     4  10  21  38  62  91 125 167 213 254 310 382
#     4  11  23  39  59  93 130 161 209 256 319 388
#
# _framework density 20.061737000000001
#
# number of rings (size 3 to 8) (size 9 to 14) (size 15 to 20)
#    0.000    1.429    2.857    3.857    2.000    3.714 
#    0.000    2.143    0.000    0.429    0.000    0.000 
#    0.000    0.000    0.000    0.000    0.000    0.000 
#
# Total GULP energy -694075.328912 kJ/mol
# GULP energy per Si atom -12394.202302 kJ/mol
# Density = 2.001608 g / cm^3
# Si number density = 20.061737 Si / 1000 Ang^3
#
#
#
# Elastic Constant Matrix: (Units=GPa)
#
#
# Indices 1 2 3 4 5 6 
#
# 1 80.0886 24.8216 29.9207 0.0000 0.0000 0.0000
# 2 24.8216 80.0886 29.9207 0.0000 0.0000 0.0000
# 3 29.9207 29.9207 81.9908 0.0000 0.0000 0.0000
# 4 0.0000 0.0000 0.0000 21.9351 0.0000 0.0000
# 5 0.0000 0.0000 0.0000 0.0000 21.9351 0.0000
# 6 0.0000 0.0000 0.0000 0.0000 0.0000 15.7634
#
#
#
# Elastic Compliance Matrix: (Units=1/GPa)
#
#
# Indices 1 2 3 4 5 6 
#
# 1 0.015066 -0.003028 -0.004393 0.000000 0.000000 0.000000
# 2 -0.003028 0.015066 -0.004393 0.000000 0.000000 0.000000
# 3 -0.004393 -0.004393 0.015403 0.000000 0.000000 0.000000
# 4 0.000000 0.000000 0.000000 0.045589 0.000000 0.000000
# 5 0.000000 0.000000 0.000000 0.000000 0.045589 0.000000
# 6 0.000000 0.000000 0.000000 0.000000 0.000000 0.063438
#
#
# Mechanical properties :
#
#
# Convention : Reuss Voigt Hill
#
# Bulk Modulus (GPa) = 45.64853 45.72154 45.68503
# Shear Modulus (GPa) = 21.63752 22.42709 22.03230
#
# Velocity S-wave (km/s) = 3.28769 3.34713 3.31754
# Velocity P-wave (km/s) = 6.10043 6.14635 6.12343
#
# Compressibility (1/GPa) = 0.02190651
#
# Stress axis : x y z
#
# Youngs Moduli (GPa) = 66.37541 66.37541 64.92386
#
# Poissons Ratio (x) = 0.20099 0.28520
# Poissons Ratio (y) = 0.20099 0.28520
# Poissons Ratio (z) = 0.29158 0.29158
#
# Static dielectric constant tensor:
#      x y z
#    x 3.541920 0.000000 0.000000 
#    y 0.000000 3.541920 0.000000 
#    z 0.000000 0.000000 4.131590 
# 
# 
# High freq. dielectric constant tensor:
#      x y z
#    x 1.767540 0.000000 0.000000 
#    y 0.000000 1.767540 0.000000 
#    z 0.000000 0.000000 1.796960 
# 
# From -- ./inp_files/2155.got.cif
#   From: 2010.03.12/outbox.cif.g09.slc.cpg/sg109_2_cif.got.tgz:2155.got - 2010.04.14 01:55:16.
