data_PCOD8307529
_publ_section_title
;
Structure prediction by ZEFSAII (Michael W. Deem and Ramdas Pophale) SiO2 
 PCOD8307529
Probable space group: I 4 M M
;
_chemical_formula_sum "Si O2"
_cell_formula_units_Z 96
_cell_length_a 13.695448
_cell_length_b 13.695448
_cell_length_c 30.846097
_cell_angle_alpha 90.000000
_cell_angle_beta 90.000000
_cell_angle_gamma 90.000000
_cell_volume 5785.657312
_symmetry_space_group_name_H-M "I 4 M M"
_symmetry_group_IT_number 107
_symmetry_cell_setting 'tetragonal'
loop_
_space_group_symop_operation_xyz
x,y,z
-y,x,z
-x,-y,z
y,-x,z
-x,y,z
x,-y,z
-y,-x,z
y,x,z
1/2+x,1/2+y,1/2+z
1/2-y,1/2+x,1/2+z
1/2-x,1/2-y,1/2+z
1/2+y,1/2-x,1/2+z
1/2-x,1/2+y,1/2+z
1/2+x,1/2-y,1/2+z
1/2-y,1/2-x,1/2+z
1/2+y,1/2+x,1/2+z
loop_
_atom_site_type_symbol
_atom_site_label
_atom_site_fract_x
_atom_site_fract_y
_atom_site_fract_z
Si Si1 0.115930 0.608245 0.265830
Si Si2 0.773940 0.385262 0.420001
Si Si3 0.231468 0.385451 0.090399
Si Si4 0.726995 0.884521 0.348693
Si Si5 0.391687 0.883946 0.670891
Si Si6 0.386993 0.889314 0.505960
O O1 0.159025 0.500000 0.275841
O O2 0.149560 0.683944 0.302425
O O3 0.151201 0.645383 0.218323
O O4 0.000000 0.600363 0.264978
O O5 0.753649 0.500000 0.414282
O O6 0.672153 0.327848 0.413939
O O7 0.853408 0.351156 0.384874
O O8 0.817890 0.360096 0.466832
O O9 0.247562 0.500000 0.093408
O O10 0.337487 0.337487 0.087666
O O11 0.176777 0.343477 0.132823
O O12 0.170767 0.354886 0.048192
O O13 0.829990 0.829990 0.355995
O O14 0.745447 0.000000 0.351358
O O15 0.500000 0.839388 0.664435
O O16 0.398230 0.000000 0.667954
O O17 0.500000 0.882827 0.518042
O O18 0.358755 0.000000 0.492761
#
# Coordination Sequence:
#
# PCOD8307529 Si02
#       6
#    16  16  16  16  16  16
#     4   8  14  26  45  67  89 112 141 182 229 273
#     4  10  20  33  50  72  96 121 149 182 222 270
#     4  10  19  29  42  61  87 119 151 182 217 259
#     4  10  20  32  47  68  93 122 156 191 227 268
#     4   8  14  26  44  65  87 110 141 185 231 267
#     4   9  17  30  49  70  89 111 143 185 228 265
#
# _framework density 16.592756999999999
#
# number of rings (size 3 to 8) (size 9 to 14) (size 15 to 20)
#    0.000    2.833    0.000    3.000    0.000    4.833 
#    0.000    0.000    0.000    0.000    0.000    2.333 
#    0.000    7.000    0.000    0.667    0.000    0.000 
#
# Total GULP energy -595033.765376 kJ/mol
# GULP energy per Si atom -12396.536779 kJ/mol
# Density = 1.655499 g / cm^3
# Si number density = 16.592757 Si / 1000 Ang^3
#
#
#
# Elastic Constant Matrix: (Units=GPa)
#
#
# Indices 1 2 3 4 5 6 
#
# 1 68.7639 40.2477 46.6910 0.0000 0.0000 -0.0001
# 2 40.2477 68.7639 46.6910 0.0000 0.0000 0.0001
# 3 46.6910 46.6910 125.7647 0.0000 0.0000 0.0000
# 4 0.0000 0.0000 0.0000 14.3458 0.0000 0.0000
# 5 0.0000 0.0000 0.0000 0.0000 14.3458 0.0000
# 6 -0.0001 0.0001 0.0000 0.0000 0.0000 19.3736
#
#
#
# Elastic Compliance Matrix: (Units=1/GPa)
#
#
# Indices 1 2 3 4 5 6 
#
# 1 0.024260 -0.010808 -0.004994 0.000000 0.000000 0.000000
# 2 -0.010808 0.024260 -0.004994 0.000000 0.000000 0.000000
# 3 -0.004994 -0.004994 0.011659 0.000000 0.000000 0.000000
# 4 0.000000 0.000000 0.000000 0.069707 0.000000 0.000000
# 5 0.000000 0.000000 0.000000 0.000000 0.069707 0.000000
# 6 0.000000 0.000000 0.000000 0.000000 0.000000 0.051617
#
#
# Mechanical properties :
#
#
# Convention : Reuss Voigt Hill
#
# Bulk Modulus (GPa) = 53.80293 58.95022 56.37658
# Shear Modulus (GPa) = 16.72260 18.25720 17.48990
#
# Velocity S-wave (km/s) = 3.17807 3.32069 3.25016
# Velocity P-wave (km/s) = 6.77959 7.09278 6.93795
#
# Compressibility (1/GPa) = 0.01858635
#
# Stress axis : x y z
#
# Youngs Moduli (GPa) = 41.22092 41.22092 85.76794
#
# Poissons Ratio (x) = 0.44553 0.42831
# Poissons Ratio (y) = 0.44553 0.42831
# Poissons Ratio (z) = 0.20585 0.20585
#
# Static dielectric constant tensor:
#      x y z
#    x 2.883320 0.000000 0.000000 
#    y 0.000000 2.883320 0.000000 
#    z 0.000000 0.000000 3.471160 
# 
# 
# High freq. dielectric constant tensor:
#      x y z
#    x 1.615850 0.000000 0.000000 
#    y 0.000000 1.615850 0.000000 
#    z 0.000000 0.000000 1.659240 
# 
# From -- ./inp_files/6090.got.cif
#   From: 2010.03.12/outbox.cif.g09.slc.cpg/sg107_4_cif.got.tgz:6090.got - 2010.04.14 01:49:11.
