data_PCOD8307086
_publ_section_title
;
Structure prediction by ZEFSAII (Michael W. Deem and Ramdas Pophale) SiO2 
 PCOD8307086
Probable space group: P 4 N C 
;
_chemical_formula_sum "Si O2"
_cell_formula_units_Z 48
_cell_length_a 8.034247
_cell_length_b 8.034247
_cell_length_c 33.442491
_cell_angle_alpha 90.000000
_cell_angle_beta 90.000000
_cell_angle_gamma 90.000000
_cell_volume 2158.683527
_symmetry_space_group_name_H-M "P 4 N C "
_symmetry_group_IT_number 104
_symmetry_cell_setting 'tetragonal'
loop_
_space_group_symop_operation_xyz
x,y,z
-y,x,z
-x,-y,z
y,-x,z
1/2-x,1/2+y,1/2+z
1/2+x,1/2-y,1/2+z
1/2-y,1/2-x,1/2+z
1/2+y,1/2+x,1/2+z
loop_
_atom_site_type_symbol
_atom_site_label
_atom_site_fract_x
_atom_site_fract_y
_atom_site_fract_z
Si Si1 0.590542 0.241324 0.650550
Si Si2 0.912107 0.261822 0.867658
Si Si3 0.000000 0.500000 0.302419
Si Si4 0.086703 0.737681 0.022419
Si Si5 0.500000 0.000000 0.588354
Si Si6 0.741884 0.088580 0.239660
Si Si7 0.905556 0.259930 0.445135
O O1 0.707535 0.398550 0.644141
O O2 0.615244 0.167004 0.695170
O O3 0.627300 0.102294 0.617082
O O4 0.881967 0.383232 0.829867
O O5 0.874747 0.367352 0.907145
O O6 0.104628 0.208929 0.866529
O O7 0.123811 0.393512 0.273909
O O8 0.113921 0.620727 0.060974
O O9 0.894720 0.792207 0.023328
O O10 0.125452 0.630242 0.983328
O O11 0.896960 0.207969 0.245423
O O12 0.097976 0.210637 0.445017
#
# Coordination Sequence:
#
# PCOD8307086 Si02
#       7
#     8   8   4   8   4   8   8
#     4   9  19  37  59  84 115 153 197 243 298 364
#     4  11  24  40  59  85 120 162 202 242 295 359
#     4  12  21  35  58  88 120 152 198 251 297 346
#     4  11  24  41  62  88 120 159 199 241 295 359
#     4  12  21  33  58  88 116 148 194 243 287 338
#     4   9  19  36  58  84 115 152 195 244 300 359
#     4  11  24  43  66  91 118 151 195 246 297 350
#
# _framework density 22.235775
#
# number of rings (size 3 to 8) (size 9 to 14) (size 15 to 20)
#    0.000    1.500    0.000    6.500    0.000    4.667 
#    0.000    1.667    0.000    4.500    0.000   14.000 
#    0.000    0.000    0.000    0.000    0.000    0.000 
#
# Total GULP energy -595198.438530 kJ/mol
# GULP energy per Si atom -12399.967469 kJ/mol
# Density = 2.218517 g / cm^3
# Si number density = 22.235775 Si / 1000 Ang^3
#
#
#
# Elastic Constant Matrix: (Units=GPa)
#
#
# Indices 1 2 3 4 5 6 
#
# 1 89.0452 19.8957 52.0109 0.0000 0.0000 0.0000
# 2 19.8957 89.0452 52.0109 0.0000 0.0000 0.0000
# 3 52.0109 52.0109 192.4241 0.0000 0.0000 0.0000
# 4 0.0000 0.0000 0.0000 34.9921 0.0000 0.0000
# 5 0.0000 0.0000 0.0000 0.0000 34.9921 0.0000
# 6 0.0000 0.0000 0.0000 0.0000 0.0000 27.0743
#
#
#
# Elastic Compliance Matrix: (Units=1/GPa)
#
#
# Indices 1 2 3 4 5 6 
#
# 1 0.013417 -0.001044 -0.003344 0.000000 0.000000 0.000000
# 2 -0.001044 0.013417 -0.003344 0.000000 0.000000 0.000000
# 3 -0.003344 -0.003344 0.007005 0.000000 0.000000 0.000000
# 4 0.000000 0.000000 0.000000 0.028578 0.000000 0.000000
# 5 0.000000 0.000000 0.000000 0.000000 0.028578 0.000000
# 6 0.000000 0.000000 0.000000 0.000000 0.000000 0.036935
#
#
# Mechanical properties :
#
#
# Convention : Reuss Voigt Hill
#
# Bulk Modulus (GPa) = 54.42811 68.70548 61.56679
# Shear Modulus (GPa) = 33.44040 35.85150 34.64595
#
# Velocity S-wave (km/s) = 3.88222 4.01974 3.95158
# Velocity P-wave (km/s) = 6.68030 7.24639 6.96909
#
# Compressibility (1/GPa) = 0.01837286
#
# Stress axis : x y z
#
# Youngs Moduli (GPa) = 74.53260 74.53260 142.76176
#
# Poissons Ratio (x) = 0.07785 0.47742
# Poissons Ratio (y) = 0.07785 0.47742
# Poissons Ratio (z) = 0.24925 0.24925
#
# Static dielectric constant tensor:
#      x y z
#    x 3.875580 0.000000 0.000000 
#    y 0.000000 3.875580 0.000000 
#    z 0.000000 0.000000 4.262530 
# 
# 
# High freq. dielectric constant tensor:
#      x y z
#    x 1.864100 0.000000 0.000000 
#    y 0.000000 1.864100 0.000000 
#    z 0.000000 0.000000 1.898390 
# 
# From -- ./inp_files/1986.got.cif
#   From: 2010.03.12/outbox.cif.g09.slc.cpg/sg104_cif.got.tgz:1986.got - 2010.04.14 01:44:05.
