data_PCOD8307750
_publ_section_title
;
Structure prediction by ZEFSAII (Michael W. Deem and Ramdas Pophale) SiO2 
 PCOD8307750
Probable space group: I 4 C M
;
_chemical_formula_sum "Si O2"
_cell_formula_units_Z 128
_cell_length_a 19.032350
_cell_length_b 19.032350
_cell_length_c 19.541571
_cell_angle_alpha 90.000000
_cell_angle_beta 90.000000
_cell_angle_gamma 90.000000
_cell_volume 7078.550035
_symmetry_space_group_name_H-M "I 4 C M"
_symmetry_group_IT_number 108
_symmetry_cell_setting 'tetragonal'
loop_
_space_group_symop_operation_xyz
x,y,z
-y,x,z
-x,-y,z
y,-x,z
-x,y,1/2+z
x,-y,1/2+z
-y,-x,1/2+z
y,x,1/2+z
1/2+x,1/2+y,1/2+z
1/2-y,1/2+x,1/2+z
1/2-x,1/2-y,1/2+z
1/2+y,1/2-x,1/2+z
1/2-x,1/2+y,z
1/2+x,1/2-y,z
1/2-y,1/2-x,z
1/2+y,1/2+x,z
loop_
_atom_site_type_symbol
_atom_site_label
_atom_site_fract_x
_atom_site_fract_y
_atom_site_fract_z
Si Si1 0.702235 0.562416 0.046680
Si Si2 0.629551 0.238042 0.236133
Si Si3 0.994717 0.797688 0.782676
Si Si4 0.524188 0.384558 0.913898
Si Si5 0.686158 0.300159 0.622633
Si Si6 0.161287 0.449272 0.113512
Si Si7 0.496662 0.613097 0.155559
Si Si8 0.197911 0.415084 0.683579
O O1 0.787524 0.555872 0.046273
O O2 0.566669 0.571254 0.137734
O O3 0.681697 0.509635 0.108807
O O4 0.663559 0.534907 0.979891
O O5 0.686632 0.186632 0.272424
O O6 0.572868 0.263969 0.292077
O O7 0.666626 0.304178 0.199019
O O8 0.593279 0.197953 0.173845
O O9 0.964866 0.828851 0.852832
O O10 0.001977 0.865262 0.734168
O O11 0.944557 0.737810 0.750741
O O12 0.582143 0.446243 0.911934
O O13 0.753702 0.253702 0.603061
O O14 0.677830 0.357909 0.563013
O O15 0.616007 0.253919 0.629148
O O16 0.085757 0.414244 0.095457
O O17 0.151861 0.528211 0.141381
O O18 0.145510 0.354491 0.710185
#
# Coordination Sequence:
#
# PCOD8307750 Si02
#       8
#    16  16  16  16  16  16  16  16
#     4  11  19  34  56  77 110 150 190 233 282 336
#     4   8  15  29  52  80 105 134 179 231 276 328
#     4  11  20  35  54  76 109 157 185 229 289 340
#     4  11  26  39  50  77 120 161 198 235 281 340
#     4   9  17  30  53  85 112 137 180 238 285 328
#     4   9  18  33  55  84 111 140 178 227 291 346
#     4  11  20  29  50  79 104 138 189 230 274 345
#     4  10  20  33  55  88 115 139 185 244 290 336
#
# _framework density 18.082798
#
# number of rings (size 3 to 8) (size 9 to 14) (size 15 to 20)
#    0.000    2.000    3.750    3.375    3.500    2.250 
#    0.000    1.250    0.000    2.250    0.000    0.000 
#    0.000    2.000    0.000    0.000    0.000    0.000 
#
# Total GULP energy -793166.624054 kJ/mol
# GULP energy per Si atom -12393.228501 kJ/mol
# Density = 1.804164 g / cm^3
# Si number density = 18.082798 Si / 1000 Ang^3
#
#
#
# Elastic Constant Matrix: (Units=GPa)
#
#
# Indices 1 2 3 4 5 6 
#
# 1 97.0685 41.0627 34.9130 0.0000 0.0000 -0.0001
# 2 41.0627 97.0685 34.9130 0.0000 0.0000 0.0001
# 3 34.9130 34.9130 79.5602 0.0000 0.0000 0.0000
# 4 0.0000 0.0000 0.0000 22.6554 0.0000 0.0000
# 5 0.0000 0.0000 0.0000 0.0000 22.6554 0.0000
# 6 -0.0001 0.0001 0.0000 0.0000 0.0000 -4.7441
#
#
#
# Elastic Compliance Matrix: (Units=1/GPa)
#
#
# Indices 1 2 3 4 5 6 
#
# 1 0.013579 -0.004276 -0.004082 0.000000 0.000000 0.000000
# 2 -0.004276 0.013579 -0.004082 0.000000 0.000000 0.000000
# 3 -0.004082 -0.004082 0.016152 0.000000 0.000000 0.000000
# 4 0.000000 0.000000 0.000000 0.044140 0.000000 0.000000
# 5 0.000000 0.000000 0.000000 0.000000 0.044140 0.000000
# 6 0.000000 0.000000 0.000000 0.000000 0.000000 -0.210787
#
#
# Mechanical properties :
#
#
# Convention : Reuss Voigt Hill
#
# Bulk Modulus (GPa) = 54.26354 55.05274 54.65814
# Shear Modulus (GPa) = -103.79419 18.96725 -42.41347
#
# Velocity S-wave (km/s) = -7.58446 3.24220 -4.84831
# Velocity P-wave (km/s) = 6.82826 6.67284 1.02431
#
# Compressibility (1/GPa) = 0.01842858
#
# Stress axis : x y z
#
# Youngs Moduli (GPa) = 73.64182 73.64182 61.91154
#
# Poissons Ratio (x) = 0.31489 0.25275
# Poissons Ratio (y) = 0.31489 0.25275
# Poissons Ratio (z) = 0.30064 0.30064
#
# Static dielectric constant tensor:
#      x y z
#    x 3.633470 0.000000 0.000000 
#    y 0.000000 3.633470 0.000000 
#    z 0.000000 0.000000 2.852740 
# 
# 
# High freq. dielectric constant tensor:
#      x y z
#    x 1.710610 0.000000 0.000000 
#    y 0.000000 1.710610 0.000000 
#    z 0.000000 0.000000 1.638970 
# 
# From -- ./inp_files/2659.got.cif
#   From: 2010.03.12/outbox.cif.g09.slc.cpg/sg108_2_cif.got.tgz:2659.got - 2010.04.14 01:53:11.
