data_PCOD8307547
_publ_section_title
;
Structure prediction by ZEFSAII (Michael W. Deem and Ramdas Pophale) SiO2 
 PCOD8307547
Probable space group: I 4 M M
;
_chemical_formula_sum "Si O2"
_cell_formula_units_Z 80
_cell_length_a 13.654682
_cell_length_b 13.654682
_cell_length_c 25.509324
_cell_angle_alpha 90.000000
_cell_angle_beta 90.000000
_cell_angle_gamma 90.000000
_cell_volume 4756.222146
_symmetry_space_group_name_H-M "I 4 M M"
_symmetry_group_IT_number 107
_symmetry_cell_setting 'tetragonal'
loop_
_space_group_symop_operation_xyz
x,y,z
-y,x,z
-x,-y,z
y,-x,z
-x,y,z
x,-y,z
-y,-x,z
y,x,z
1/2+x,1/2+y,1/2+z
1/2-y,1/2+x,1/2+z
1/2-x,1/2-y,1/2+z
1/2+y,1/2-x,1/2+z
1/2-x,1/2+y,1/2+z
1/2+x,1/2-y,1/2+z
1/2-y,1/2-x,1/2+z
1/2+y,1/2+x,1/2+z
loop_
_atom_site_type_symbol
_atom_site_label
_atom_site_fract_x
_atom_site_fract_y
_atom_site_fract_z
Si Si1 0.113620 0.388502 0.580260
Si Si2 0.888503 0.386380 0.284677
Si Si3 0.885023 0.725815 0.475975
Si Si4 0.725815 0.114977 0.888962
Si Si5 0.385286 0.770318 0.682469
O O1 0.142194 0.500000 0.565807
O O2 0.142008 0.319382 0.532113
O O3 0.170719 0.351334 0.631241
O O4 0.000000 0.381015 0.593918
O O5 0.881016 0.500000 0.271020
O O6 0.819381 0.357992 0.332824
O O7 0.851334 0.329282 0.233697
O O8 0.000000 0.357805 0.299130
O O9 0.828188 0.828188 0.468765
O O10 0.852330 0.647670 0.432468
O O11 0.000000 0.746642 0.470130
O O12 0.828189 0.171812 0.896172
O O13 0.746643 0.000000 0.894807
O O14 0.500000 0.752188 0.682469
O O15 0.335124 0.664877 0.682469
#
# Coordination Sequence:
#
# PCOD8307547 Si02
#       5
#    16  16  16  16  16
#     4   9  17  30  49  71  92 116 151 194 236 276
#     4   9  17  30  49  71  92 116 151 194 236 276
#     4  10  20  33  50  72  97 125 157 193 234 280
#     4  10  20  33  50  72  97 125 157 193 234 280
#     4  10  19  30  45  65  92 124 155 189 228 271
#
# _framework density 16.820070999999999
#
# number of rings (size 3 to 8) (size 9 to 14) (size 15 to 20)
#    0.000    2.400    0.000    3.000    0.000    5.000 
#    0.000    0.000    0.000    0.000    0.000    5.600 
#    0.000   14.400    0.000    0.000    0.000    0.000 
#
# Total GULP energy -496071.200307 kJ/mol
# GULP energy per Si atom -12401.780008 kJ/mol
# Density = 1.678179 g / cm^3
# Si number density = 16.820071 Si / 1000 Ang^3
#
#
#
# Elastic Constant Matrix: (Units=GPa)
#
#
# Indices 1 2 3 4 5 6 
#
# 1 77.2492 47.6326 53.4946 0.0000 0.0000 -0.0003
# 2 47.6326 77.2492 53.4946 0.0000 0.0000 0.0003
# 3 53.4946 53.4946 126.4923 0.0000 0.0000 0.0000
# 4 0.0000 0.0000 0.0000 23.5842 0.0000 0.0000
# 5 0.0000 0.0000 0.0000 0.0000 23.5842 0.0000
# 6 -0.0003 0.0003 0.0000 0.0000 0.0000 24.9627
#
#
#
# Elastic Compliance Matrix: (Units=1/GPa)
#
#
# Indices 1 2 3 4 5 6 
#
# 1 0.023161 -0.010604 -0.005311 0.000000 0.000000 0.000000
# 2 -0.010604 0.023161 -0.005311 0.000000 0.000000 0.000000
# 3 -0.005311 -0.005311 0.012397 0.000000 0.000000 0.000000
# 4 0.000000 0.000000 0.000000 0.042401 0.000000 0.000000
# 5 0.000000 0.000000 0.000000 0.000000 0.042401 0.000000
# 6 0.000000 0.000000 0.000000 0.000000 0.000000 0.040060
#
#
# Mechanical properties :
#
#
# Convention : Reuss Voigt Hill
#
# Bulk Modulus (GPa) = 61.46420 65.58159 63.52289
# Shear Modulus (GPa) = 21.60250 22.85083 22.22667
#
# Velocity S-wave (km/s) = 3.58764 3.68984 3.63910
# Velocity P-wave (km/s) = 7.33369 7.56492 7.45020
#
# Compressibility (1/GPa) = 0.01626963
#
# Stress axis : x y z
#
# Youngs Moduli (GPa) = 43.17594 43.17594 80.66219
#
# Poissons Ratio (x) = 0.45783 0.42836
# Poissons Ratio (y) = 0.45783 0.42836
# Poissons Ratio (z) = 0.22929 0.22929
#
# Static dielectric constant tensor:
#      x y z
#    x 3.006030 0.000000 0.000000 
#    y 0.000000 3.006030 0.000000 
#    z 0.000000 0.000000 3.309220 
# 
# 
# High freq. dielectric constant tensor:
#      x y z
#    x 1.640530 0.000000 0.000000 
#    y 0.000000 1.640530 0.000000 
#    z 0.000000 0.000000 1.664780 
# 
# From -- ./inp_files/4595.got.cif
#   From: 2010.03.12/outbox.cif.g09.slc.cpg/sg107_3_cif.got.tgz:4595.got - 2010.04.14 01:49:11.
