data_PCOD8307167
_publ_section_title
;
Structure prediction by ZEFSAII (Michael W. Deem and Ramdas Pophale) SiO2 
 PCOD8307167
Probable space group: P 42 M C
;
_chemical_formula_sum "Si O2"
_cell_formula_units_Z 48
_cell_length_a 22.128768
_cell_length_b 22.128768
_cell_length_c 5.080222
_cell_angle_alpha 90.000000
_cell_angle_beta 90.000000
_cell_angle_gamma 90.000000
_cell_volume 2487.695165
_symmetry_space_group_name_H-M "P 42 M C"
_symmetry_group_IT_number 105
_symmetry_cell_setting 'tetragonal'
loop_
_space_group_symop_operation_xyz
x,y,z
-y,x,1/2+z
-x,-y,z
y,-x,1/2+z
-x,y,z
x,-y,z
-y,-x,1/2+z
y,x,1/2+z
loop_
_atom_site_type_symbol
_atom_site_label
_atom_site_fract_x
_atom_site_fract_y
_atom_site_fract_z
Si Si1 0.189907 0.244205 0.863810
Si Si2 0.429440 0.626247 0.338288
Si Si3 0.615956 0.066835 0.911940
Si Si4 0.190431 0.432744 0.313920
Si Si5 0.756420 0.374176 0.814701
Si Si6 0.305040 0.067102 0.412237
O O1 0.205669 0.202514 0.620507
O O2 0.231252 0.304054 0.865341
O O3 0.118357 0.256299 0.852830
O O4 0.500000 0.642969 0.363785
O O5 0.408892 0.581356 0.567859
O O6 0.389106 0.686424 0.357607
O O7 0.566505 0.118331 0.860725
O O8 0.670793 0.076259 0.707756
O O9 0.586983 0.000000 0.873915
O O10 0.640019 0.074605 0.207623
O O11 0.215557 0.500000 0.356476
O O12 0.224678 0.388997 0.516017
O O13 0.203235 0.412421 0.016984
O O14 0.276116 0.000000 0.381219
#
# Coordination Sequence:
#
# PCOD8307167 Si02
#       6
#     8   8   8   8   8   8
#     4  12  22  36  61  90 119 150 194 237 282 341
#     4  12  26  45  66  88 112 144 187 239 303 371
#     4  10  19  35  55  79 113 155 200 239 281 329
#     4  12  22  36  58  82 114 156 201 242 282 342
#     4  12  24  42  59  86 119 150 185 238 302 354
#     4  10  20  37  58  82 119 160 193 233 286 340
#
# _framework density 19.294968000000001
#
# number of rings (size 3 to 8) (size 9 to 14) (size 15 to 20)
#    0.000    0.667    3.333    6.000    0.000    1.333 
#    0.000    0.000    0.000    5.000    0.000    0.000 
#    0.000    2.000    0.000    0.000    0.000    0.000 
#
# Total GULP energy -595401.994945 kJ/mol
# GULP energy per Si atom -12404.208228 kJ/mol
# Density = 1.925105 g / cm^3
# Si number density = 19.294968 Si / 1000 Ang^3
#
#
#
# Elastic Constant Matrix: (Units=GPa)
#
#
# Indices 1 2 3 4 5 6 
#
# 1 81.1001 27.2103 17.6513 0.0000 0.0000 0.0000
# 2 27.2103 81.1001 17.6513 0.0000 0.0000 0.0000
# 3 17.6513 17.6513 92.9343 0.0000 0.0000 0.0000
# 4 0.0000 0.0000 0.0000 27.2589 0.0000 0.0000
# 5 0.0000 0.0000 0.0000 0.0000 27.2589 0.0000
# 6 0.0000 0.0000 0.0000 0.0000 0.0000 21.2666
#
#
#
# Elastic Compliance Matrix: (Units=1/GPa)
#
#
# Indices 1 2 3 4 5 6 
#
# 1 0.014199 -0.004357 -0.001869 0.000000 0.000000 0.000000
# 2 -0.004357 0.014199 -0.001869 0.000000 0.000000 0.000000
# 3 -0.001869 -0.001869 0.011470 0.000000 0.000000 0.000000
# 4 0.000000 0.000000 0.000000 0.036685 0.000000 0.000000
# 5 0.000000 0.000000 0.000000 0.000000 0.036685 0.000000
# 6 0.000000 0.000000 0.000000 0.000000 0.000000 0.047022
#
#
# Mechanical properties :
#
#
# Convention : Reuss Voigt Hill
#
# Bulk Modulus (GPa) = 42.23493 42.24007 42.23750
# Shear Modulus (GPa) = 27.12297 27.99830 27.56064
#
# Velocity S-wave (km/s) = 3.75334 3.81342 3.78350
# Velocity P-wave (km/s) = 6.38122 6.42875 6.40503
#
# Compressibility (1/GPa) = 0.02367709
#
# Stress axis : x y z
#
# Youngs Moduli (GPa) = 70.42651 70.42651 87.18103
#
# Poissons Ratio (x) = 0.30686 0.16297
# Poissons Ratio (y) = 0.30686 0.16297
# Poissons Ratio (z) = 0.13165 0.13165
#
# Static dielectric constant tensor:
#      x y z
#    x 3.495990 0.000000 0.000000 
#    y 0.000000 3.495990 0.000000 
#    z 0.000000 0.000000 3.766820 
# 
# 
# High freq. dielectric constant tensor:
#      x y z
#    x 1.734570 0.000000 0.000000 
#    y 0.000000 1.734570 0.000000 
#    z 0.000000 0.000000 1.777510 
# 
# From -- ./inp_files/266.got.cif
#   From: 2010.03.12/outbox.cif.g09.slc.cpg/sg105_1_cif.got.tgz:266.got - 2010.04.14 01:45:32.
