data_PCOD8307065
_publ_section_title
;
Structure prediction by ZEFSAII (Michael W. Deem and Ramdas Pophale) SiO2 
 PCOD8307065
Probable space group: P 4 N C 
;
_chemical_formula_sum "Si O2"
_cell_formula_units_Z 48
_cell_length_a 8.137557
_cell_length_b 8.137557
_cell_length_c 33.235421
_cell_angle_alpha 90.000000
_cell_angle_beta 90.000000
_cell_angle_gamma 90.000000
_cell_volume 2200.844059
_symmetry_space_group_name_H-M "P 4 N C "
_symmetry_group_IT_number 104
_symmetry_cell_setting 'tetragonal'
loop_
_space_group_symop_operation_xyz
x,y,z
-y,x,z
-x,-y,z
y,-x,z
1/2-x,1/2+y,1/2+z
1/2+x,1/2-y,1/2+z
1/2-y,1/2-x,1/2+z
1/2+y,1/2+x,1/2+z
loop_
_atom_site_type_symbol
_atom_site_label
_atom_site_fract_x
_atom_site_fract_y
_atom_site_fract_z
Si Si1 0.500000 0.000000 0.315760
Si Si2 0.089756 0.254186 0.088067
Si Si3 0.072158 0.260378 0.516796
Si Si4 0.741396 0.082246 0.751985
Si Si5 0.500000 0.000000 0.950171
Si Si6 0.926481 0.262746 0.882465
Si Si7 0.747884 0.095624 0.178816
O O1 0.619225 0.109847 0.287296
O O2 0.392456 0.120801 0.344056
O O3 0.137148 0.399475 0.057652
O O4 0.117097 0.319130 0.133453
O O5 0.902305 0.205243 0.080458
O O6 0.102087 0.374122 0.478003
O O7 0.886237 0.200817 0.515612
O O8 0.654041 0.105266 0.708873
O O9 0.893939 0.203916 0.756528
O O10 0.368644 0.098372 0.922904
O O11 0.114614 0.200861 0.881081
O O12 0.906971 0.207539 0.186541
#
# Coordination Sequence:
#
# PCOD8307065 Si02
#       7
#     4   8   8   8   4   8   8
#     4  11  22  38  61  86 118 150 183 234 294 347
#     4   9  19  37  60  85 117 160 207 251 299 358
#     4  11  23  37  56  86 123 160 201 250 300 351
#     4  11  23  38  59  88 121 159 203 248 295 352
#     4  11  22  40  63  88 120 156 191 236 298 361
#     4  10  22  41  66  92 116 147 190 238 291 360
#     4   9  19  37  60  87 120 158 201 251 305 358
#
# _framework density 21.809813999999999
#
# number of rings (size 3 to 8) (size 9 to 14) (size 15 to 20)
#    0.000    1.833    0.000    5.000    0.000    2.667 
#    0.000    7.500    0.000   18.500    0.000    0.000 
#    0.000    0.000    0.000    0.000    0.000    0.000 
#
# Total GULP energy -595276.609862 kJ/mol
# GULP energy per Si atom -12401.596039 kJ/mol
# Density = 2.176017 g / cm^3
# Si number density = 21.809814 Si / 1000 Ang^3
#
#
#
# Elastic Constant Matrix: (Units=GPa)
#
#
# Indices 1 2 3 4 5 6 
#
# 1 91.9848 33.8466 64.2595 0.0000 0.0000 0.0000
# 2 33.8466 91.9848 64.2595 0.0000 0.0000 0.0000
# 3 64.2595 64.2595 188.2973 0.0000 0.0000 0.0000
# 4 0.0000 0.0000 0.0000 36.7036 0.0000 0.0000
# 5 0.0000 0.0000 0.0000 0.0000 36.7036 0.0000
# 6 0.0000 0.0000 0.0000 0.0000 0.0000 33.9008
#
#
#
# Elastic Compliance Matrix: (Units=1/GPa)
#
#
# Indices 1 2 3 4 5 6 
#
# 1 0.014700 -0.002501 -0.004163 0.000000 0.000000 0.000000
# 2 -0.002501 0.014700 -0.004163 0.000000 0.000000 0.000000
# 3 -0.004163 -0.004163 0.008152 0.000000 0.000000 0.000000
# 4 0.000000 0.000000 0.000000 0.027245 0.000000 0.000000
# 5 0.000000 0.000000 0.000000 0.000000 0.027245 0.000000
# 6 0.000000 0.000000 0.000000 0.000000 0.000000 0.029498
#
#
# Mechanical properties :
#
#
# Convention : Reuss Voigt Hill
#
# Bulk Modulus (GPa) = 62.90096 77.44423 70.17260
# Shear Modulus (GPa) = 33.67150 35.45503 34.56326
#
# Velocity S-wave (km/s) = 3.93347 4.03630 3.98522
# Velocity P-wave (km/s) = 7.03796 7.57022 7.30894
#
# Compressibility (1/GPa) = 0.01589801
#
# Stress axis : x y z
#
# Youngs Moduli (GPa) = 68.02798 68.02798 122.66529
#
# Poissons Ratio (x) = 0.17011 0.51068
# Poissons Ratio (y) = 0.17011 0.51068
# Poissons Ratio (z) = 0.28321 0.28321
#
# Static dielectric constant tensor:
#      x y z
#    x 3.797490 0.000000 0.000000 
#    y 0.000000 3.797490 0.000000 
#    z 0.000000 0.000000 4.074780 
# 
# 
# High freq. dielectric constant tensor:
#      x y z
#    x 1.850600 0.000000 0.000000 
#    y 0.000000 1.850600 0.000000 
#    z 0.000000 0.000000 1.871740 
# 
# From -- ./inp_files/1952.got.cif
#   From: 2010.03.12/outbox.cif.g09.slc.cpg/sg104_cif.got.tgz:1952.got - 2010.04.14 01:44:05.
