data_PCOD8307658
_publ_section_title
;
Structure prediction by ZEFSAII (Michael W. Deem and Ramdas Pophale) SiO2 
 PCOD8307658
Probable space group: I 4 M M
;
_chemical_formula_sum "Si O2"
_cell_formula_units_Z 128
_cell_length_a 25.262022
_cell_length_b 25.262022
_cell_length_c 11.114817
_cell_angle_alpha 90.000000
_cell_angle_beta 90.000000
_cell_angle_gamma 90.000000
_cell_volume 7093.140048
_symmetry_space_group_name_H-M "I 4 M M"
_symmetry_group_IT_number 107
_symmetry_cell_setting 'tetragonal'
loop_
_space_group_symop_operation_xyz
x,y,z
-y,x,z
-x,-y,z
y,-x,z
-x,y,z
x,-y,z
-y,-x,z
y,x,z
1/2+x,1/2+y,1/2+z
1/2-y,1/2+x,1/2+z
1/2-x,1/2-y,1/2+z
1/2+y,1/2-x,1/2+z
1/2-x,1/2+y,1/2+z
1/2+x,1/2-y,1/2+z
1/2-y,1/2-x,1/2+z
1/2+y,1/2+x,1/2+z
loop_
_atom_site_type_symbol
_atom_site_label
_atom_site_fract_x
_atom_site_fract_y
_atom_site_fract_z
Si Si1 0.937740 0.439257 0.120380
Si Si2 0.212124 0.872820 0.959960
Si Si3 0.942069 0.266931 0.366561
Si Si4 0.743771 0.654834 0.706792
Si Si5 0.058717 0.756027 0.637440
Si Si6 0.440019 0.648556 0.300042
Si Si7 0.852665 0.297921 0.777442
Si Si8 0.594375 0.116158 0.871388
O O1 0.920088 0.500000 0.124670
O O2 0.919213 0.413713 0.246314
O O3 0.000000 0.432490 0.110751
O O4 0.914910 0.414707 0.996308
O O5 0.163789 0.836212 0.993919
O O6 0.187510 0.928295 0.913929
O O7 0.245752 0.844469 0.856175
O O8 0.245768 0.877280 0.081242
O O9 0.892500 0.240424 0.301197
O O10 0.939397 0.240475 0.495811
O O11 0.939116 0.330256 0.373840
O O12 0.000000 0.253507 0.308750
O O13 0.694408 0.694408 0.725155
O O14 0.797799 0.688274 0.712532
O O15 0.070566 0.815611 0.682675
O O16 0.101463 0.712580 0.679660
O O17 0.000000 0.738391 0.682993
O O18 0.500000 0.627963 0.309153
O O19 0.402069 0.597932 0.295846
O O20 0.870998 0.343638 0.868013
#
# Coordination Sequence:
#
# PCOD8307658 Si02
#       8
#    16  16  16  16  16  16  16  16
#     4  11  23  39  55  72  99 137 180 229 285 335
#     4   9  19  36  52  74 109 144 178 216 261 324
#     4  10  21  36  55  77 108 139 176 223 269 322
#     4  10  22  35  53  80 110 142 181 223 270 328
#     4   9  19  36  54  77 107 146 185 223 274 335
#     4   9  18  34  57  84 113 146 183 225 274 329
#     4  10  21  33  55  75 105 138 176 224 275 330
#     4  11  23  35  55  79 103 134 180 234 279 330
#
# _framework density 18.045604999999998
#
# number of rings (size 3 to 8) (size 9 to 14) (size 15 to 20)
#    0.000    2.125    0.000    2.625    7.000    4.625 
#    0.000    0.000    0.000    0.000    0.000    0.000 
#    0.000    0.250    0.000    0.250    0.000    0.000 
#
# Total GULP energy -793089.217687 kJ/mol
# GULP energy per Si atom -12392.019026 kJ/mol
# Density = 1.800453 g / cm^3
# Si number density = 18.045605 Si / 1000 Ang^3
#
#
#
# Elastic Constant Matrix: (Units=GPa)
#
#
# Indices 1 2 3 4 5 6 
#
# 1 96.7768 56.9478 43.2122 0.0000 0.0000 -0.0002
# 2 56.9478 96.7768 43.2122 0.0000 0.0000 0.0002
# 3 43.2122 43.2122 109.0082 0.0000 0.0000 0.0000
# 4 0.0000 0.0000 0.0000 24.5628 0.0000 0.0000
# 5 0.0000 0.0000 0.0000 0.0000 24.5628 0.0000
# 6 -0.0002 0.0002 0.0000 0.0000 0.0000 23.5317
#
#
#
# Elastic Compliance Matrix: (Units=1/GPa)
#
#
# Indices 1 2 3 4 5 6 
#
# 1 0.016739 -0.008368 -0.003318 0.000000 0.000000 0.000000
# 2 -0.008368 0.016739 -0.003318 0.000000 0.000000 0.000000
# 3 -0.003318 -0.003318 0.011804 0.000000 0.000000 0.000000
# 4 0.000000 0.000000 0.000000 0.040712 0.000000 0.000000
# 5 0.000000 0.000000 0.000000 0.000000 0.040712 0.000000
# 6 0.000000 0.000000 0.000000 0.000000 0.000000 0.042496
#
#
# Mechanical properties :
#
#
# Convention : Reuss Voigt Hill
#
# Bulk Modulus (GPa) = 65.47596 65.47849 65.47722
# Shear Modulus (GPa) = 24.47349 25.14410 24.80879
#
# Velocity S-wave (km/s) = 3.68666 3.73683 3.71183
# Velocity P-wave (km/s) = 7.38135 7.41500 7.39820
#
# Compressibility (1/GPa) = 0.01527278
#
# Stress axis : x y z
#
# Youngs Moduli (GPa) = 59.74076 59.74076 84.71412
#
# Poissons Ratio (x) = 0.49993 0.28110
# Poissons Ratio (y) = 0.49993 0.28110
# Poissons Ratio (z) = 0.19823 0.19823
#
# Static dielectric constant tensor:
#      x y z
#    x 3.371670 0.000000 0.000000 
#    y 0.000000 3.371670 0.000000 
#    z 0.000000 0.000000 3.486590 
# 
# 
# High freq. dielectric constant tensor:
#      x y z
#    x 1.698350 0.000000 0.000000 
#    y 0.000000 1.698350 0.000000 
#    z 0.000000 0.000000 1.701640 
# 
# From -- ./inp_files/2688.got.cif
#   From: 2010.03.12/outbox.cif.g09.slc.cpg/sg107_2_cif.got.tgz:2688.got - 2010.04.14 01:49:11.
