data_PCOD8307959
_publ_section_title
;
Structure prediction by ZEFSAII (Michael W. Deem and Ramdas Pophale) SiO2 
 PCOD8307959
Probable space group: I 41 M D
;
_chemical_formula_sum "Si O2"
_cell_formula_units_Z 112
_cell_length_a 13.823984
_cell_length_b 13.823984
_cell_length_c 27.712639
_cell_angle_alpha 90.000000
_cell_angle_beta 90.000000
_cell_angle_gamma 90.000000
_cell_volume 5295.955527
_symmetry_space_group_name_H-M "I 41 M D"
_symmetry_group_IT_number 109
_symmetry_cell_setting 'tetragonal'
loop_
_space_group_symop_operation_xyz
x,y,z
-y,1/2+x,1/4+z
-x,-y,z
y,1/2-x,1/4+z
-x,y,z
x,-y,z
-y,1/2-x,1/4+z
y,1/2+x,1/4+z
1/2+x,1/2+y,1/2+z
1/2-y,x,3/4+z
1/2-x,1/2-y,1/2+z
1/2+y,-x,3/4+z
1/2-x,1/2+y,1/2+z
1/2+x,1/2-y,1/2+z
1/2-y,-x,3/4+z
1/2+y,x,3/4+z
loop_
_atom_site_type_symbol
_atom_site_label
_atom_site_fract_x
_atom_site_fract_y
_atom_site_fract_z
Si Si1 0.610420 0.225826 0.192690
Si Si2 0.313323 0.386903 0.474471
Si Si3 0.288690 0.107903 0.546935
Si Si4 0.386966 0.397976 0.730647
Si Si5 0.393634 0.770572 0.889207
Si Si6 0.888922 0.731799 0.904239
Si Si7 0.294089 0.106858 0.812132
O O1 0.500000 0.205125 0.178092
O O2 0.624813 0.218592 0.250740
O O3 0.676310 0.146691 0.166313
O O4 0.638686 0.333883 0.175400
O O5 0.313438 0.500000 0.461058
O O6 0.208689 0.351197 0.497480
O O7 0.336655 0.328774 0.425209
O O8 0.391918 0.362756 0.514985
O O9 0.228567 0.119479 0.596369
O O10 0.376548 0.183842 0.545441
O O11 0.333771 0.000000 0.544141
O O12 0.500000 0.401395 0.737792
O O13 0.344714 0.500000 0.754561
O O14 0.361610 0.402527 0.674385
O O15 0.500000 0.744221 0.868281
O O16 0.323692 0.805326 0.846850
O O17 0.000000 0.728787 0.921280
O O18 0.304014 0.000000 0.835350
#
# Coordination Sequence:
#
# PCOD8307959 Si02
#       7
#    16  16  16  16  16  16  16
#     4  11  23  43  67  92 124 165 215 270 330 388
#     4  11  22  37  58  91 136 179 218 260 312 382
#     4  10  22  40  65  93 127 166 213 266 318 378
#     4   9  17  32  56  82 111 155 207 254 303 360
#     4  11  22  39  62  90 125 163 209 264 322 382
#     4  11  22  40  63  91 128 169 213 263 318 380
#     4  12  23  38  62  95 135 176 217 261 317 387
#
# _framework density 21.148215
#
# number of rings (size 3 to 8) (size 9 to 14) (size 15 to 20)
#    0.000    1.286    4.286    1.286    0.000    5.143 
#    0.000    4.286    0.000    4.286    0.000    0.000 
#    0.000    0.000    0.000    0.000    0.000    0.000 
#
# Total GULP energy -693810.334210 kJ/mol
# GULP energy per Si atom -12389.470254 kJ/mol
# Density = 2.110008 g / cm^3
# Si number density = 21.148215 Si / 1000 Ang^3
#
#
#
# Elastic Constant Matrix: (Units=GPa)
#
#
# Indices 1 2 3 4 5 6 
#
# 1 114.0913 36.4708 36.9956 0.0000 0.0000 0.0000
# 2 36.4708 114.0913 36.9956 0.0000 0.0000 0.0000
# 3 36.9956 36.9956 98.1480 0.0000 0.0000 0.0000
# 4 0.0000 0.0000 0.0000 25.6486 0.0000 0.0000
# 5 0.0000 0.0000 0.0000 0.0000 25.6486 0.0000
# 6 0.0000 0.0000 0.0000 0.0000 0.0000 20.2863
#
#
#
# Elastic Compliance Matrix: (Units=1/GPa)
#
#
# Indices 1 2 3 4 5 6 
#
# 1 0.010518 -0.002366 -0.003073 0.000000 0.000000 0.000000
# 2 -0.002366 0.010518 -0.003073 0.000000 0.000000 0.000000
# 3 -0.003073 -0.003073 0.012505 0.000000 0.000000 0.000000
# 4 0.000000 0.000000 0.000000 0.038988 0.000000 0.000000
# 5 0.000000 0.000000 0.000000 0.000000 0.038988 0.000000
# 6 0.000000 0.000000 0.000000 0.000000 0.000000 0.049294
#
#
# Mechanical properties :
#
#
# Convention : Reuss Voigt Hill
#
# Bulk Modulus (GPa) = 60.54045 60.80609 60.67327
# Shear Modulus (GPa) = 27.27177 28.70793 27.98985
#
# Velocity S-wave (km/s) = 3.59493 3.68837 3.64195
# Velocity P-wave (km/s) = 6.77645 6.85227 6.81446
#
# Compressibility (1/GPa) = 0.01651788
#
# Stress axis : x y z
#
# Youngs Moduli (GPa) = 95.07957 95.07957 79.96708
#
# Poissons Ratio (x) = 0.22493 0.24572
# Poissons Ratio (y) = 0.22493 0.24572
# Poissons Ratio (z) = 0.29215 0.29215
#
# Static dielectric constant tensor:
#      x y z
#    x 4.038530 0.000000 0.000000 
#    y 0.000000 4.038530 0.000000 
#    z 0.000000 0.000000 3.716830 
# 
# 
# High freq. dielectric constant tensor:
#      x y z
#    x 1.826170 0.000000 0.000000 
#    y 0.000000 1.826170 0.000000 
#    z 0.000000 0.000000 1.817440 
# 
# From -- ./inp_files/5023.got.cif
#   From: 2010.03.12/outbox.cif.g09.slc.cpg/sg109_3_cif.got.tgz:5023.got - 2010.04.14 01:55:16.
