data_PCOD8307493
_publ_section_title
;
Structure prediction by ZEFSAII (Michael W. Deem and Ramdas Pophale) SiO2 
 PCOD8307493
Probable space group: I 4 M M
;
_chemical_formula_sum "Si O2"
_cell_formula_units_Z 112
_cell_length_a 19.418160
_cell_length_b 19.418160
_cell_length_c 17.163616
_cell_angle_alpha 90.000000
_cell_angle_beta 90.000000
_cell_angle_gamma 90.000000
_cell_volume 6471.797799
_symmetry_space_group_name_H-M "I 4 M M"
_symmetry_group_IT_number 107
_symmetry_cell_setting 'tetragonal'
loop_
_space_group_symop_operation_xyz
x,y,z
-y,x,z
-x,-y,z
y,-x,z
-x,y,z
x,-y,z
-y,-x,z
y,x,z
1/2+x,1/2+y,1/2+z
1/2-y,1/2+x,1/2+z
1/2-x,1/2-y,1/2+z
1/2+y,1/2-x,1/2+z
1/2-x,1/2+y,1/2+z
1/2+x,1/2-y,1/2+z
1/2-y,1/2-x,1/2+z
1/2+y,1/2+x,1/2+z
loop_
_atom_site_type_symbol
_atom_site_label
_atom_site_fract_x
_atom_site_fract_y
_atom_site_fract_z
Si Si1 0.222964 0.338546 0.951100
Si Si2 0.810269 0.921939 0.730656
Si Si3 0.126557 0.238280 0.884630
Si Si4 0.578421 0.307089 0.835561
Si Si5 0.683848 0.574434 0.544546
Si Si6 0.169781 0.283145 0.628399
Si Si7 0.284248 0.922741 0.184152
O O1 0.276568 0.276568 0.951791
O O2 0.154158 0.314906 0.904554
O O3 0.255382 0.403738 0.906659
O O4 0.202360 0.354333 0.039980
O O5 0.882636 0.882636 0.743505
O O6 0.763203 0.921663 0.808802
O O7 0.767493 0.887510 0.661698
O O8 0.827395 0.000000 0.707418
O O9 0.192438 0.192438 0.863380
O O10 0.085195 0.208049 0.956901
O O11 0.500000 0.331160 0.846022
O O12 0.625330 0.374671 0.837637
O O13 0.589324 0.268953 0.753817
O O14 0.648351 0.500000 0.550090
O O15 0.629340 0.629340 0.573417
O O16 0.748318 0.579402 0.600707
O O17 0.245415 0.245415 0.632792
O O18 0.166943 0.355068 0.678268
O O19 0.319127 0.000000 0.193895
#
# Coordination Sequence:
#
# PCOD8307493 Si02
#       7
#    16  16  16  16  16  16  16
#     4   9  17  30  50  72  93 123 164 214 262 297
#     4  10  21  34  51  76 104 137 174 210 251 302
#     4   9  16  29  47  68  95 126 161 201 244 288
#     4  10  20  32  47  70 100 134 170 206 249 302
#     4  10  18  27  42  65  96 132 164 194 232 283
#     4  10  18  32  54  75  99 131 171 217 262 306
#     4  10  19  31  50  75 101 129 164 208 256 302
#
# _framework density 17.305857
#
# number of rings (size 3 to 8) (size 9 to 14) (size 15 to 20)
#    0.000    2.286    1.429    2.571    0.000    3.286 
#    0.000    0.000    0.000    5.571    0.000    4.000 
#    0.000    1.714    0.000    0.000    0.000    0.000 
#
# Total GULP energy -693978.432443 kJ/mol
# GULP energy per Si atom -12392.472008 kJ/mol
# Density = 1.726647 g / cm^3
# Si number density = 17.305857 Si / 1000 Ang^3
#
#
#
# Elastic Constant Matrix: (Units=GPa)
#
#
# Indices 1 2 3 4 5 6 
#
# 1 77.0984 40.4637 28.4541 0.0000 0.0000 0.0000
# 2 40.4637 77.0984 28.4541 0.0000 0.0000 0.0000
# 3 28.4541 28.4541 61.6016 0.0000 0.0000 0.0000
# 4 0.0000 0.0000 0.0000 19.0462 0.0000 0.0000
# 5 0.0000 0.0000 0.0000 0.0000 19.0462 0.0000
# 6 0.0000 0.0000 0.0000 0.0000 0.0000 9.3199
#
#
#
# Elastic Compliance Matrix: (Units=1/GPa)
#
#
# Indices 1 2 3 4 5 6 
#
# 1 0.019126 -0.008170 -0.005061 0.000000 0.000000 0.000000
# 2 -0.008170 0.019126 -0.005061 0.000000 0.000000 0.000000
# 3 -0.005061 -0.005061 0.020908 0.000000 0.000000 0.000000
# 4 0.000000 0.000000 0.000000 0.052504 0.000000 0.000000
# 5 0.000000 0.000000 0.000000 0.000000 0.052504 0.000000
# 6 0.000000 0.000000 0.000000 0.000000 0.000000 0.107298
#
#
# Mechanical properties :
#
#
# Convention : Reuss Voigt Hill
#
# Bulk Modulus (GPa) = 44.29138 45.61581 44.95359
# Shear Modulus (GPa) = 15.84409 17.37754 16.61081
#
# Velocity S-wave (km/s) = 3.02906 3.17226 3.10149
# Velocity P-wave (km/s) = 6.15487 6.31137 6.23361
#
# Compressibility (1/GPa) = 0.02257776
#
# Stress axis : x y z
#
# Youngs Moduli (GPa) = 52.28436 52.28436 47.82780
#
# Poissons Ratio (x) = 0.42718 0.24203
# Poissons Ratio (y) = 0.42718 0.24203
# Poissons Ratio (z) = 0.26459 0.26459
#
# Static dielectric constant tensor:
#      x y z
#    x 3.157230 0.000000 0.000000 
#    y 0.000000 3.157230 0.000000 
#    z 0.000000 0.000000 3.375740 
# 
# 
# High freq. dielectric constant tensor:
#      x y z
#    x 1.641370 0.000000 0.000000 
#    y 0.000000 1.641370 0.000000 
#    z 0.000000 0.000000 1.685080 
# 
# From -- ./inp_files/4275.got.cif
#   From: 2010.03.12/outbox.cif.g09.slc.cpg/sg107_3_cif.got.tgz:4275.got - 2010.04.14 01:49:11.
