data_PCOD8307024
_publ_section_title
;
Structure prediction by ZEFSAII (Michael W. Deem and Ramdas Pophale) SiO2 
 PCOD8307024
Probable space group: P 4 C C
;
_chemical_formula_sum "Si O2"
_cell_formula_units_Z 20
_cell_length_a 8.002994
_cell_length_b 8.002994
_cell_length_c 14.045314
_cell_angle_alpha 90.000000
_cell_angle_beta 90.000000
_cell_angle_gamma 90.000000
_cell_volume 899.573049
_symmetry_space_group_name_H-M "P 4 C C"
_symmetry_group_IT_number 103
_symmetry_cell_setting 'tetragonal'
loop_
_space_group_symop_operation_xyz
x,y,z
-y,x,z
-x,-y,z
y,-x,z
-x,y,1/2+z
x,-y,1/2+z
-y,-x,1/2+z
y,x,1/2+z
loop_
_atom_site_type_symbol
_atom_site_label
_atom_site_fract_x
_atom_site_fract_y
_atom_site_fract_z
Si Si1 0.500000 0.000000 0.569950
Si Si2 0.577674 0.234848 0.908422
Si Si3 0.734848 0.922326 0.231479
O O1 0.603952 0.870251 0.504948
O O2 0.370251 0.896048 0.634953
O O3 0.705469 0.387227 0.905076
O O4 0.613351 0.113350 0.819951
O O5 0.887227 0.794531 0.234825
#
# Coordination Sequence:
#
# PCOD8307024 Si02
#       3
#     4   8   8
#     4  12  22  40  64  94 128 164 214 268 312 378
#     4  11  24  42  65  93 128 170 213 262 319 378
#     4  11  24  42  65  93 128 170 213 262 319 378
#
# _framework density 22.232771
#
# number of rings (size 3 to 8) (size 9 to 14) (size 15 to 20)
#    0.000    0.800    0.000    8.400    0.000    0.000 
#    0.000    8.000    0.000    0.000    0.000    0.000 
#    0.000    0.000    0.000    0.000    0.000    0.000 
#
# Total GULP energy -248106.052565 kJ/mol
# GULP energy per Si atom -12405.302628 kJ/mol
# Density = 2.218217 g / cm^3
# Si number density = 22.232771 Si / 1000 Ang^3
#
#
#
# Elastic Constant Matrix: (Units=GPa)
#
#
# Indices 1 2 3 4 5 6 
#
# 1 110.9867 56.0730 79.2285 0.0000 0.0000 0.0000
# 2 56.0730 110.9867 79.2285 0.0000 0.0000 0.0000
# 3 79.2285 79.2285 211.8933 0.0000 0.0000 0.0000
# 4 0.0000 0.0000 0.0000 20.5101 0.0000 0.0000
# 5 0.0000 0.0000 0.0000 0.0000 20.5101 0.0000
# 6 0.0000 0.0000 0.0000 0.0000 0.0000 39.6101
#
#
#
# Elastic Compliance Matrix: (Units=1/GPa)
#
#
# Indices 1 2 3 4 5 6 
#
# 1 0.013743 -0.004467 -0.003468 0.000000 0.000000 0.000000
# 2 -0.004467 0.013743 -0.003468 0.000000 0.000000 0.000000
# 3 -0.003468 -0.003468 0.007313 0.000000 0.000000 0.000000
# 4 0.000000 0.000000 0.000000 0.048756 0.000000 0.000000
# 5 0.000000 0.000000 0.000000 0.000000 0.048756 0.000000
# 6 0.000000 0.000000 0.000000 0.000000 0.000000 0.025246
#
#
# Mechanical properties :
#
#
# Convention : Reuss Voigt Hill
#
# Bulk Modulus (GPa) = 83.39473 95.88072 89.63773
# Shear Modulus (GPa) = 27.12049 30.74850 28.93449
#
# Velocity S-wave (km/s) = 3.49641 3.72294 3.61145
# Velocity P-wave (km/s) = 7.34106 7.85493 7.60233
#
# Compressibility (1/GPa) = 0.01199117
#
# Stress axis : x y z
#
# Youngs Moduli (GPa) = 72.76471 72.76471 136.74460
#
# Poissons Ratio (x) = 0.32507 0.47425
# Poissons Ratio (y) = 0.32507 0.47425
# Poissons Ratio (z) = 0.25236 0.25236
#
# Static dielectric constant tensor:
#      x y z
#    x 3.971340 0.000000 0.000000 
#    y 0.000000 3.971340 0.000000 
#    z 0.000000 0.000000 4.058410 
# 
# 
# High freq. dielectric constant tensor:
#      x y z
#    x 1.884620 0.000000 0.000000 
#    y 0.000000 1.884620 0.000000 
#    z 0.000000 0.000000 1.885090 
# 
# From -- ./inp_files/398.got.cif
#   From: 2010.03.12/outbox.cif.g09.slc.cpg/sg103_cif.got.tgz:398.got - 2010.04.14 01:42:52.
