data_PCOD8307714
_publ_section_title
;
Structure prediction by ZEFSAII (Michael W. Deem and Ramdas Pophale) SiO2 
 PCOD8307714
Probable space group: I 4 C M
;
_chemical_formula_sum "Si O2"
_cell_formula_units_Z 96
_cell_length_a 15.372928
_cell_length_b 15.372928
_cell_length_c 23.403400
_cell_angle_alpha 90.000000
_cell_angle_beta 90.000000
_cell_angle_gamma 90.000000
_cell_volume 5530.853329
_symmetry_space_group_name_H-M "I 4 C M"
_symmetry_group_IT_number 108
_symmetry_cell_setting 'tetragonal'
loop_
_space_group_symop_operation_xyz
x,y,z
-y,x,z
-x,-y,z
y,-x,z
-x,y,1/2+z
x,-y,1/2+z
-y,-x,1/2+z
y,x,1/2+z
1/2+x,1/2+y,1/2+z
1/2-y,1/2+x,1/2+z
1/2-x,1/2-y,1/2+z
1/2+y,1/2-x,1/2+z
1/2-x,1/2+y,z
1/2+x,1/2-y,z
1/2-y,1/2-x,z
1/2+y,1/2+x,z
loop_
_atom_site_type_symbol
_atom_site_label
_atom_site_fract_x
_atom_site_fract_y
_atom_site_fract_z
Si Si1 0.426900 0.073101 0.161920
Si Si2 0.359512 0.000000 0.347383
Si Si3 0.544448 0.365393 0.163019
Si Si4 0.573100 0.926901 0.032848
Si Si5 0.951638 0.307208 0.467875
Si Si6 0.048363 0.307207 0.226892
Si Si7 0.955553 0.865393 0.031746
O O1 0.401511 0.098490 0.097384
O O2 0.463213 0.158457 0.193473
O O3 0.500000 0.000000 0.163678
O O4 0.420365 0.920365 0.367429
O O5 0.299661 0.972825 0.294160
O O6 0.420365 0.079636 0.327336
O O7 0.299663 0.027176 0.400606
O O8 0.607973 0.445465 0.176121
O O9 0.573530 0.287414 0.204031
O O10 0.553788 0.335932 0.097383
O O11 0.500000 0.000000 0.031092
O O12 0.536787 0.841545 0.001295
O O13 0.870450 0.370450 0.478636
O O14 0.926471 0.212586 0.490734
O O15 0.129551 0.370450 0.216131
O O16 0.054535 0.892027 0.018645
#
# Coordination Sequence:
#
# PCOD8307714 Si02
#       7
#     8  16  16   8  16  16  16
#     4   9  16  26  44  74 105 128 154 205 266 305
#     4   9  16  30  50  73 106 144 176 199 252 314
#     4   9  19  37  56  72  99 139 174 208 261 322
#     4   9  16  26  44  74 105 128 154 205 266 305
#     4  10  18  31  52  78 104 134 169 214 254 303
#     4  10  18  31  52  78 104 134 169 214 254 303
#     4   9  19  37  56  72  99 139 174 208 261 322
#
# _framework density 17.357177
#
# number of rings (size 3 to 8) (size 9 to 14) (size 15 to 20)
#    0.000    2.667    1.667    2.000    0.000    2.000 
#    3.000    1.667    0.000    6.000    0.000    0.000 
#    0.000    0.000    0.000    0.000    0.000    0.000 
#
# Total GULP energy -595218.315117 kJ/mol
# GULP energy per Si atom -12400.381565 kJ/mol
# Density = 1.731767 g / cm^3
# Si number density = 17.357177 Si / 1000 Ang^3
#
#
#
# Elastic Constant Matrix: (Units=GPa)
#
#
# Indices 1 2 3 4 5 6 
#
# 1 80.2731 18.1311 47.0701 0.0000 0.0000 0.0002
# 2 18.1311 80.2731 47.0701 0.0000 0.0000 -0.0002
# 3 47.0701 47.0701 105.3745 0.0000 0.0000 0.0000
# 4 0.0000 0.0000 0.0000 25.7442 0.0000 0.0000
# 5 0.0000 0.0000 0.0000 0.0000 25.7442 0.0000
# 6 0.0002 -0.0002 0.0000 0.0000 0.0000 10.8637
#
#
#
# Elastic Compliance Matrix: (Units=1/GPa)
#
#
# Indices 1 2 3 4 5 6 
#
# 1 0.016919 0.000827 -0.007927 0.000000 0.000000 0.000000
# 2 0.000827 0.016919 -0.007927 0.000000 0.000000 0.000000
# 3 -0.007927 -0.007927 0.016572 0.000000 0.000000 0.000000
# 4 0.000000 0.000000 0.000000 0.038844 0.000000 0.000000
# 5 0.000000 0.000000 0.000000 0.000000 0.038844 0.000000
# 6 0.000000 0.000000 0.000000 0.000000 0.000000 0.092049
#
#
# Mechanical properties :
#
#
# Convention : Reuss Voigt Hill
#
# Bulk Modulus (GPa) = 49.12691 54.49592 51.81141
# Shear Modulus (GPa) = 19.45638 22.71371 21.08505
#
# Velocity S-wave (km/s) = 3.35168 3.62139 3.48914
# Velocity P-wave (km/s) = 6.58356 6.99649 6.79316
#
# Compressibility (1/GPa) = 0.02035544
#
# Stress axis : x y z
#
# Youngs Moduli (GPa) = 59.10585 59.10585 60.34415
#
# Poissons Ratio (x) = -0.04886 0.47833
# Poissons Ratio (y) = -0.04886 0.47833
# Poissons Ratio (z) = 0.46852 0.46852
#
# Static dielectric constant tensor:
#      x y z
#    x 2.971260 0.000000 0.000000 
#    y 0.000000 2.971260 0.000000 
#    z 0.000000 0.000000 3.253330 
# 
# 
# High freq. dielectric constant tensor:
#      x y z
#    x 1.649170 0.000000 0.000000 
#    y 0.000000 1.649170 0.000000 
#    z 0.000000 0.000000 1.674370 
# 
# From -- ./inp_files/2935.got.cif
#   From: 2010.03.12/outbox.cif.g09.slc.cpg/sg108_2_cif.got.tgz:2935.got - 2010.04.14 01:53:11.
