data_PCOD8307376
_publ_section_title
;
Structure prediction by ZEFSAII (Michael W. Deem and Ramdas Pophale) SiO2 
 PCOD8307376
Probable space group: P 42 M C
;
_chemical_formula_sum "Si O2"
_cell_formula_units_Z 56
_cell_length_a 9.904510
_cell_length_b 9.904510
_cell_length_c 36.094629
_cell_angle_alpha 90.000000
_cell_angle_beta 90.000000
_cell_angle_gamma 90.000000
_cell_volume 3540.858501
_symmetry_space_group_name_H-M "P 42 M C"
_symmetry_group_IT_number 105
_symmetry_cell_setting 'tetragonal'
loop_
_space_group_symop_operation_xyz
x,y,z
-y,x,1/2+z
-x,-y,z
y,-x,1/2+z
-x,y,z
x,-y,z
-y,-x,1/2+z
y,x,1/2+z
loop_
_atom_site_type_symbol
_atom_site_label
_atom_site_fract_x
_atom_site_fract_y
_atom_site_fract_z
Si Si1 0.349817 0.339643 0.660370
Si Si2 0.657443 0.842611 0.225616
Si Si3 0.349787 0.839114 0.434782
Si Si4 0.150407 0.339101 0.016627
Si Si5 0.839364 0.151272 0.872890
Si Si6 0.660372 0.650334 0.578600
Si Si7 0.839763 0.150870 0.790631
O O1 0.500000 0.282676 0.669699
O O2 0.356388 0.500000 0.659947
O O3 0.241641 0.288912 0.690408
O O4 0.302113 0.292258 0.619438
O O5 0.500000 0.816258 0.233596
O O6 0.740467 0.787299 0.260915
O O7 0.685521 0.000000 0.217683
O O8 0.500000 0.781343 0.427657
O O9 0.296766 0.797230 0.475677
O O10 0.251982 0.776701 0.403433
O O11 0.353550 0.000000 0.432699
O O12 0.146074 0.500000 0.018745
O O13 0.250624 0.277641 0.047510
O O14 0.000000 0.281429 0.023961
O O15 0.788299 0.192428 0.831709
O O16 0.000000 0.158389 0.874169
O O17 0.790495 0.000000 0.882242
O O18 0.500000 0.643721 0.575110
O O19 0.720654 0.500000 0.572557
O O20 0.000000 0.150756 0.790776
O O21 0.787649 0.000000 0.780517
#
# Coordination Sequence:
#
# PCOD8307376 Si02
#       7
#     8   8   8   8   8   8   8
#     4   8  14  25  40  57  77 100 125 154 188 223
#     4   9  16  25  39  59  78  96 122 155 188 222
#     4   8  13  20  31  49  72  95 117 145 184 222
#     4   8  13  21  33  51  75  97 115 143 186 224
#     4   8  13  21  33  49  70  97 126 151 177 215
#     4   8  13  22  37  54  70  93 126 155 177 211
#     4   8  14  24  36  51  74 102 127 152 186 225
#
# _framework density 15.815372999999999
#
# number of rings (size 3 to 8) (size 9 to 14) (size 15 to 20)
#    0.000    3.857    0.000    2.571    0.000    0.571 
#    0.000    3.571    0.000    2.143    0.000    1.000 
#    0.000    5.714    0.000    0.000    0.000    0.000 
#
# Total GULP energy -693825.196379 kJ/mol
# GULP energy per Si atom -12389.735650 kJ/mol
# Density = 1.577938 g / cm^3
# Si number density = 15.815373 Si / 1000 Ang^3
#
#
#
# Elastic Constant Matrix: (Units=GPa)
#
#
# Indices 1 2 3 4 5 6 
#
# 1 45.4531 21.3906 57.2918 0.0000 0.0000 0.0000
# 2 21.3906 45.4531 57.2918 0.0000 0.0000 0.0000
# 3 57.2918 57.2918 170.0788 0.0000 0.0000 0.0000
# 4 0.0000 0.0000 0.0000 22.1478 0.0000 0.0000
# 5 0.0000 0.0000 0.0000 0.0000 22.1478 0.0000
# 6 0.0000 0.0000 0.0000 0.0000 0.0000 6.0766
#
#
#
# Elastic Compliance Matrix: (Units=1/GPa)
#
#
# Indices 1 2 3 4 5 6 
#
# 1 0.038481 -0.003077 -0.011926 0.000000 0.000000 0.000000
# 2 -0.003077 0.038481 -0.011926 0.000000 0.000000 0.000000
# 3 -0.011926 -0.011926 0.013914 0.000000 0.000000 0.000000
# 4 0.000000 0.000000 0.000000 0.045151 0.000000 0.000000
# 5 0.000000 0.000000 0.000000 0.000000 0.045151 0.000000
# 6 0.000000 0.000000 0.000000 0.000000 0.000000 0.164566
#
#
# Mechanical properties :
#
#
# Convention : Reuss Voigt Hill
#
# Bulk Modulus (GPa) = 27.01390 59.21479 43.11435
# Shear Modulus (GPa) = 12.13761 18.40848 15.27305
#
# Velocity S-wave (km/s) = 2.77331 3.41539 3.11096
# Velocity P-wave (km/s) = 5.23191 7.28531 6.34226
#
# Compressibility (1/GPa) = 0.03701798
#
# Stress axis : x y z
#
# Youngs Moduli (GPa) = 25.98682 25.98682 71.86911
#
# Poissons Ratio (x) = 0.07997 0.85710
# Poissons Ratio (y) = 0.07997 0.85710
# Poissons Ratio (z) = 0.30992 0.30992
#
# Static dielectric constant tensor:
#      x y z
#    x 2.807040 0.000000 0.000000 
#    y 0.000000 2.807040 0.000000 
#    z 0.000000 0.000000 3.481840 
# 
# 
# High freq. dielectric constant tensor:
#      x y z
#    x 1.561630 0.000000 0.000000 
#    y 0.000000 1.561630 0.000000 
#    z 0.000000 0.000000 1.622140 
# 
# From -- ./inp_files/4390.got.cif
#   From: 2010.03.12/outbox.cif.g09.slc.cpg/sg105_3_cif.got.tgz:4390.got - 2010.04.14 01:45:32.
