data_PCOD8307118
_publ_section_title
;
Structure prediction by ZEFSAII (Michael W. Deem and Ramdas Pophale) SiO2 
 PCOD8307118
Probable space group: P 42 M C
;
_chemical_formula_sum "Si O2"
_cell_formula_units_Z 32
_cell_length_a 7.974027
_cell_length_b 7.974027
_cell_length_c 23.820974
_cell_angle_alpha 90.000000
_cell_angle_beta 90.000000
_cell_angle_gamma 90.000000
_cell_volume 1514.659171
_symmetry_space_group_name_H-M "P 42 M C"
_symmetry_group_IT_number 105
_symmetry_cell_setting 'tetragonal'
loop_
_space_group_symop_operation_xyz
x,y,z
-y,x,1/2+z
-x,-y,z
y,-x,1/2+z
-x,y,z
x,-y,z
-y,-x,1/2+z
y,x,1/2+z
loop_
_atom_site_type_symbol
_atom_site_label
_atom_site_fract_x
_atom_site_fract_y
_atom_site_fract_z
Si Si1 0.313650 0.693205 0.307770
Si Si2 0.799680 0.000000 0.608670
Si Si3 0.000000 0.197265 0.235234
Si Si4 0.188165 0.191532 0.421822
Si Si5 0.314921 0.199411 0.038807
O O1 0.500000 0.732201 0.282811
O O2 0.292265 0.500000 0.322059
O O3 0.299831 0.789772 0.366582
O O4 0.170714 0.744191 0.264292
O O5 0.731404 0.000000 0.672160
O O6 0.727861 0.168285 0.578766
O O7 0.000000 0.000000 0.607573
O O8 0.000000 0.000000 0.236188
O O9 0.263541 0.293138 0.474724
O O10 0.000000 0.253467 0.406900
O O11 0.185423 0.000000 0.441352
O O12 0.500000 0.256371 0.060334
O O13 0.299762 0.000000 0.038242
#
# Coordination Sequence:
#
# PCOD8307118 Si02
#       5
#     8   4   4   8   8
#     4  11  24  40  59  85 118 158 206 258 311 374
#     4   9  18  33  51  81 119 153 201 254 297 360
#     4  11  23  39  61  87 121 163 205 256 313 366
#     4  10  18  31  56  88 120 152 192 246 310 376
#     4   9  16  28  50  81 117 157 197 244 305 368
#
# _framework density 21.126864000000001
#
# number of rings (size 3 to 8) (size 9 to 14) (size 15 to 20)
#    0.000    2.000    2.500    1.875    0.000    4.000 
#    0.000    2.500    0.000    3.000    0.000    3.500 
#    0.000    0.000    0.000    0.000    0.000    0.000 
#
# Total GULP energy -396691.804178 kJ/mol
# GULP energy per Si atom -12396.618881 kJ/mol
# Density = 2.107878 g / cm^3
# Si number density = 21.126864 Si / 1000 Ang^3
#
#
#
# Elastic Constant Matrix: (Units=GPa)
#
#
# Indices 1 2 3 4 5 6 
#
# 1 108.8937 28.0092 53.7050 0.0000 0.0000 0.0000
# 2 28.0092 108.8937 53.7050 0.0000 0.0000 0.0000
# 3 53.7050 53.7050 151.2314 0.0000 0.0000 0.0000
# 4 0.0000 0.0000 0.0000 8.9848 0.0000 0.0000
# 5 0.0000 0.0000 0.0000 0.0000 8.9848 0.0000
# 6 0.0000 0.0000 0.0000 0.0000 0.0000 16.5108
#
#
#
# Elastic Compliance Matrix: (Units=1/GPa)
#
#
# Indices 1 2 3 4 5 6 
#
# 1 0.011244 -0.001119 -0.003596 0.000000 0.000000 0.000000
# 2 -0.001119 0.011244 -0.003596 0.000000 0.000000 0.000000
# 3 -0.003596 -0.003596 0.009166 0.000000 0.000000 0.000000
# 4 0.000000 0.000000 0.000000 0.111299 0.000000 0.000000
# 5 0.000000 0.000000 0.000000 0.000000 0.111299 0.000000
# 6 0.000000 0.000000 0.000000 0.000000 0.000000 0.060566
#
#
# Mechanical properties :
#
#
# Convention : Reuss Voigt Hill
#
# Bulk Modulus (GPa) = 66.51455 71.09523 68.80489
# Shear Modulus (GPa) = 14.86100 22.46941 18.66520
#
# Velocity S-wave (km/s) = 2.65508 3.26474 2.97557
# Velocity P-wave (km/s) = 6.39930 6.92359 6.66660
#
# Compressibility (1/GPa) = 0.01503431
#
# Stress axis : x y z
#
# Youngs Moduli (GPa) = 88.93273 88.93273 109.09604
#
# Poissons Ratio (x) = 0.09950 0.39229
# Poissons Ratio (y) = 0.09950 0.39229
# Poissons Ratio (z) = 0.31978 0.31978
#
# Static dielectric constant tensor:
#      x y z
#    x 3.757330 0.000000 0.000000 
#    y 0.000000 3.757330 0.000000 
#    z 0.000000 0.000000 3.840570 
# 
# 
# High freq. dielectric constant tensor:
#      x y z
#    x 1.817410 0.000000 0.000000 
#    y 0.000000 1.817410 0.000000 
#    z 0.000000 0.000000 1.818380 
# 
# From -- ./inp_files/3848.got.cif
#   From: 2010.03.12/outbox.cif.g09.slc.cpg/sg105_2_cif.got.tgz:3848.got - 2010.04.14 01:45:32.
