data_PCOD8307059
_publ_section_title
;
Structure prediction by ZEFSAII (Michael W. Deem and Ramdas Pophale) SiO2 
 PCOD8307059
Probable space group: P 4 N C 
;
_chemical_formula_sum "Si O2"
_cell_formula_units_Z 40
_cell_length_a 8.271157
_cell_length_b 8.271157
_cell_length_c 28.038348
_cell_angle_alpha 90.000000
_cell_angle_beta 90.000000
_cell_angle_gamma 90.000000
_cell_volume 1918.160532
_symmetry_space_group_name_H-M "P 4 N C "
_symmetry_group_IT_number 104
_symmetry_cell_setting 'tetragonal'
loop_
_space_group_symop_operation_xyz
x,y,z
-y,x,z
-x,-y,z
y,-x,z
1/2-x,1/2+y,1/2+z
1/2+x,1/2-y,1/2+z
1/2-y,1/2-x,1/2+z
1/2+y,1/2+x,1/2+z
loop_
_atom_site_type_symbol
_atom_site_label
_atom_site_fract_x
_atom_site_fract_y
_atom_site_fract_z
Si Si1 0.500000 0.000000 0.924680
Si Si2 0.252695 0.076780 0.692503
Si Si3 0.565111 0.240101 0.844861
Si Si4 0.432375 0.241287 0.503818
Si Si5 0.753712 0.418429 0.085291
Si Si6 0.500000 0.000000 0.766224
O O1 0.411279 0.864985 0.892605
O O2 0.633135 0.908650 0.956795
O O3 0.321278 0.100932 0.639084
O O4 0.386989 0.110181 0.732348
O O5 0.106968 0.198493 0.700300
O O6 0.695010 0.381874 0.843793
O O7 0.597971 0.125364 0.799405
O O8 0.614511 0.304363 0.504315
O O9 0.398730 0.129877 0.549995
O O10 0.699229 0.601769 0.076303
#
# Coordination Sequence:
#
# PCOD8307059 Si02
#       6
#     4   8   8   8   8   4
#     4  11  22  39  60  78 104 147 186 223 278 340
#     4   9  19  35  55  82 114 150 190 223 259 319
#     4  10  22  39  57  80 108 139 181 230 280 336
#     4  11  23  37  56  85 116 144 182 233 282 326
#     4   9  19  36  57  81 113 154 193 224 261 321
#     4  11  20  33  58  84 110 143 178 229 286 322
#
# _framework density 20.85331
#
# number of rings (size 3 to 8) (size 9 to 14) (size 15 to 20)
#    0.000    2.000    0.000    4.800    0.000    4.000 
#    0.000    2.000    0.000   12.000    0.000    0.000 
#    0.000    0.000    0.000    0.000    0.000    0.000 
#
# Total GULP energy -496043.512680 kJ/mol
# GULP energy per Si atom -12401.087817 kJ/mol
# Density = 2.080585 g / cm^3
# Si number density = 20.853310 Si / 1000 Ang^3
#
#
#
# Elastic Constant Matrix: (Units=GPa)
#
#
# Indices 1 2 3 4 5 6 
#
# 1 46.3221 38.5753 47.9660 0.0000 0.0000 0.0000
# 2 38.5753 46.3221 47.9660 0.0000 0.0000 0.0000
# 3 47.9660 47.9660 164.7717 0.0000 0.0000 0.0000
# 4 0.0000 0.0000 0.0000 26.9153 0.0000 0.0000
# 5 0.0000 0.0000 0.0000 0.0000 26.9153 0.0000
# 6 0.0000 0.0000 0.0000 0.0000 0.0000 -12.6531
#
#
#
# Elastic Compliance Matrix: (Units=1/GPa)
#
#
# Indices 1 2 3 4 5 6 
#
# 1 0.073319 -0.055766 -0.005110 0.000000 0.000000 0.000000
# 2 -0.055766 0.073319 -0.005110 0.000000 0.000000 0.000000
# 3 -0.005110 -0.005110 0.009044 0.000000 0.000000 0.000000
# 4 0.000000 0.000000 0.000000 0.037154 0.000000 0.000000
# 5 0.000000 0.000000 0.000000 0.000000 0.037154 0.000000
# 6 0.000000 0.000000 0.000000 0.000000 0.000000 -0.079032
#
#
# Mechanical properties :
#
#
# Convention : Reuss Voigt Hill
#
# Bulk Modulus (GPa) = 42.17518 58.49229 50.33373
# Shear Modulus (GPa) = 17.19203 16.42940 16.81071
#
# Velocity S-wave (km/s) = 2.87440 2.80992 2.84234
# Velocity P-wave (km/s) = 5.59328 6.21593 5.91281
#
# Compressibility (1/GPa) = 0.02371063
#
# Stress axis : x y z
#
# Youngs Moduli (GPa) = 13.63901 13.63901 110.57123
#
# Poissons Ratio (x) = 0.76060 0.56499
# Poissons Ratio (y) = 0.76060 0.56499
# Poissons Ratio (z) = 0.06969 0.06969
#
# Static dielectric constant tensor:
#      x y z
#    x 3.598300 0.000000 0.000000 
#    y 0.000000 3.598300 0.000000 
#    z 0.000000 0.000000 3.860020 
# 
# 
# High freq. dielectric constant tensor:
#      x y z
#    x 1.809000 0.000000 0.000000 
#    y 0.000000 1.809000 0.000000 
#    z 0.000000 0.000000 1.829910 
# 
# From -- ./inp_files/1725.got.cif
#   From: 2010.03.12/outbox.cif.g09.slc.cpg/sg104_cif.got.tgz:1725.got - 2010.04.14 01:44:05.
