data_PCOD8307509
_publ_section_title
;
Structure prediction by ZEFSAII (Michael W. Deem and Ramdas Pophale) SiO2 
 PCOD8307509
Probable space group: I 4 M M
;
_chemical_formula_sum "Si O2"
_cell_formula_units_Z 128
_cell_length_a 22.678704
_cell_length_b 22.678704
_cell_length_c 15.150916
_cell_angle_alpha 90.000000
_cell_angle_beta 90.000000
_cell_angle_gamma 90.000000
_cell_volume 7792.473889
_symmetry_space_group_name_H-M "I 4 M M"
_symmetry_group_IT_number 107
_symmetry_cell_setting 'tetragonal'
loop_
_space_group_symop_operation_xyz
x,y,z
-y,x,z
-x,-y,z
y,-x,z
-x,y,z
x,-y,z
-y,-x,z
y,x,z
1/2+x,1/2+y,1/2+z
1/2-y,1/2+x,1/2+z
1/2-x,1/2-y,1/2+z
1/2+y,1/2-x,1/2+z
1/2-x,1/2+y,1/2+z
1/2+x,1/2-y,1/2+z
1/2-y,1/2-x,1/2+z
1/2+y,1/2+x,1/2+z
loop_
_atom_site_type_symbol
_atom_site_label
_atom_site_fract_x
_atom_site_fract_y
_atom_site_fract_z
Si Si1 0.067940 0.161666 0.318180
Si Si2 0.673274 0.764038 0.125891
Si Si3 0.244893 0.848567 0.009847
Si Si4 0.355191 0.864675 0.910535
Si Si5 0.871501 0.626722 0.714207
Si Si6 0.136304 0.230929 0.450049
Si Si7 0.068081 0.431130 0.557220
Si Si8 0.751005 0.930742 0.164987
O O1 0.099584 0.099584 0.306991
O O2 0.083267 0.192015 0.411471
O O3 0.089728 0.204319 0.240427
O O4 0.000000 0.147757 0.313387
O O5 0.714663 0.714663 0.173334
O O6 0.713366 0.805204 0.064545
O O7 0.638750 0.803449 0.196145
O O8 0.628160 0.733459 0.056558
O O9 0.186449 0.813552 0.976659
O O10 0.226787 0.902219 0.073457
O O11 0.284839 0.873295 0.928842
O O12 0.375575 0.891270 0.816410
O O13 0.368277 0.795165 0.906554
O O14 0.391891 0.897806 0.986055
O O15 0.922472 0.599121 0.652956
O O16 0.813445 0.589519 0.693933
O O17 0.199252 0.199252 0.426628
O O18 0.085776 0.500000 0.560987
O O19 0.000000 0.423523 0.530739
O O20 0.750651 0.000000 0.151100
#
# Coordination Sequence:
#
# PCOD8307509 Si02
#       8
#    16  16  16  16  16  16  16  16
#     4  10  20  31  47  74 103 135 169 200 240 290
#     4   8  15  28  46  70  99 127 152 192 254 303
#     4   9  17  30  47  73 105 129 155 199 255 303
#     4  11  20  33  54  78  94 125 168 206 258 308
#     4  11  20  33  53  77  97 127 164 210 261 307
#     4   9  16  30  48  72 102 126 159 203 242 292
#     4  11  25  42  54  66  94 133 172 218 261 300
#     4  10  18  30  50  72  96 130 171 208 243 290
#
# _framework density 16.426106000000001
#
# number of rings (size 3 to 8) (size 9 to 14) (size 15 to 20)
#    0.000    2.125    5.000    1.875    0.000    3.625 
#    0.000    1.250    0.000    0.000    0.000    0.000 
#    0.000    0.000    0.000    0.000    0.000    0.375 
#
# Total GULP energy -793241.969582 kJ/mol
# GULP energy per Si atom -12394.405775 kJ/mol
# Density = 1.638872 g / cm^3
# Si number density = 16.426106 Si / 1000 Ang^3
#
#
#
# Elastic Constant Matrix: (Units=GPa)
#
#
# Indices 1 2 3 4 5 6 
#
# 1 60.0463 35.2806 28.3447 0.0000 0.0000 0.0001
# 2 35.2806 60.0463 28.3447 0.0000 0.0000 -0.0001
# 3 28.3447 28.3447 79.7618 0.0000 0.0000 0.0000
# 4 0.0000 0.0000 0.0000 17.2731 0.0000 0.0000
# 5 0.0000 0.0000 0.0000 0.0000 17.2731 0.0000
# 6 0.0001 -0.0001 0.0000 0.0000 0.0000 22.0861
#
#
#
# Elastic Compliance Matrix: (Units=1/GPa)
#
#
# Indices 1 2 3 4 5 6 
#
# 1 0.026840 -0.013539 -0.004727 0.000000 0.000000 0.000000
# 2 -0.013539 0.026840 -0.004727 0.000000 0.000000 0.000000
# 3 -0.004727 -0.004727 0.015897 0.000000 0.000000 0.000000
# 4 0.000000 0.000000 0.000000 0.057893 0.000000 0.000000
# 5 0.000000 0.000000 0.000000 0.000000 0.057893 0.000000
# 6 0.000000 0.000000 0.000000 0.000000 0.000000 0.045277
#
#
# Mechanical properties :
#
#
# Convention : Reuss Voigt Hill
#
# Bulk Modulus (GPa) = 42.38731 42.64385 42.51558
# Shear Modulus (GPa) = 17.57535 18.51874 18.04705
#
# Velocity S-wave (km/s) = 3.27458 3.36132 3.31823
# Velocity P-wave (km/s) = 6.33704 6.40952 6.37338
#
# Compressibility (1/GPa) = 0.02359197
#
# Stress axis : x y z
#
# Youngs Moduli (GPa) = 37.25804 37.25804 62.90557
#
# Poissons Ratio (x) = 0.50442 0.29734
# Poissons Ratio (y) = 0.50442 0.29734
# Poissons Ratio (z) = 0.17611 0.17611
#
# Static dielectric constant tensor:
#      x y z
#    x 3.068420 0.000000 0.000000 
#    y 0.000000 3.068420 0.000000 
#    z 0.000000 0.000000 3.175890 
# 
# 
# High freq. dielectric constant tensor:
#      x y z
#    x 1.617600 0.000000 0.000000 
#    y 0.000000 1.617600 0.000000 
#    z 0.000000 0.000000 1.621090 
# 
# From -- ./inp_files/4419.got.cif
#   From: 2010.03.12/outbox.cif.g09.slc.cpg/sg107_3_cif.got.tgz:4419.got - 2010.04.14 01:49:11.
