data_PCOD8307591
_publ_section_title
;
Structure prediction by ZEFSAII (Michael W. Deem and Ramdas Pophale) SiO2 
 PCOD8307591
Probable space group: I 4 M M
;
_chemical_formula_sum "Si O2"
_cell_formula_units_Z 96
_cell_length_a 16.521415
_cell_length_b 16.521415
_cell_length_c 19.183779
_cell_angle_alpha 90.000000
_cell_angle_beta 90.000000
_cell_angle_gamma 90.000000
_cell_volume 5236.349711
_symmetry_space_group_name_H-M "I 4 M M"
_symmetry_group_IT_number 107
_symmetry_cell_setting 'tetragonal'
loop_
_space_group_symop_operation_xyz
x,y,z
-y,x,z
-x,-y,z
y,-x,z
-x,y,z
x,-y,z
-y,-x,z
y,x,z
1/2+x,1/2+y,1/2+z
1/2-y,1/2+x,1/2+z
1/2-x,1/2-y,1/2+z
1/2+y,1/2-x,1/2+z
1/2-x,1/2+y,1/2+z
1/2+x,1/2-y,1/2+z
1/2-y,1/2-x,1/2+z
1/2+y,1/2+x,1/2+z
loop_
_atom_site_type_symbol
_atom_site_label
_atom_site_fract_x
_atom_site_fract_y
_atom_site_fract_z
Si Si1 0.785601 0.089295 0.623880
Si Si2 0.907508 0.592492 0.952713
Si Si3 0.714401 0.410705 0.281549
Si Si4 0.291443 0.162065 0.063043
Si Si5 0.592970 0.724947 0.702713
Si Si6 0.291442 0.837937 0.342384
O O1 0.876746 0.123255 0.622492
O O2 0.751558 0.091089 0.702714
O O3 0.730338 0.142460 0.574985
O O4 0.787118 0.000000 0.592474
O O5 0.898706 0.500000 0.982819
O O6 0.833756 0.602082 0.897402
O O7 0.000000 0.601295 0.922608
O O8 0.897916 0.666243 0.008026
O O9 0.712883 0.500000 0.312954
O O10 0.623258 0.376743 0.282939
O O11 0.769667 0.357541 0.330443
O O12 0.207908 0.207908 0.037700
O O13 0.276455 0.113204 0.134030
O O14 0.500000 0.700682 0.702711
O O15 0.641967 0.641967 0.702714
O O16 0.613201 0.776455 0.771397
O O17 0.207908 0.792093 0.367725
#
# Coordination Sequence:
#
# PCOD8307591 Si02
#       6
#    16  16  16  16  16  16
#     4   9  16  27  45  69  97 129 165 205 247 292
#     4  11  23  36  50  74 107 137 170 216 262 299
#     4   9  16  27  45  69  97 129 165 205 247 292
#     4  10  19  35  55  75  99 135 175 208 249 305
#     4  10  20  35  57  81 104 130 164 206 252 306
#     4  10  19  35  55  75  99 135 175 208 249 305
#
# _framework density 18.333380999999999
#
# number of rings (size 3 to 8) (size 9 to 14) (size 15 to 20)
#    0.000    2.167    1.667    2.500    0.000    0.500 
#    0.000    1.667    0.000    4.000    0.000    0.000 
#    0.000   24.000    0.000    0.000    0.000    0.000 
#
# Total GULP energy -594698.976072 kJ/mol
# GULP energy per Si atom -12389.562002 kJ/mol
# Density = 1.829165 g / cm^3
# Si number density = 18.333381 Si / 1000 Ang^3
#
#
#
# Elastic Constant Matrix: (Units=GPa)
#
#
# Indices 1 2 3 4 5 6 
#
# 1 98.8521 31.3649 32.9844 0.0000 0.0000 0.0000
# 2 31.3649 98.8521 32.9844 0.0000 0.0000 0.0000
# 3 32.9844 32.9844 75.3115 0.0000 0.0000 0.0000
# 4 0.0000 0.0000 0.0000 22.2260 0.0000 0.0000
# 5 0.0000 0.0000 0.0000 0.0000 22.2259 0.0000
# 6 0.0000 0.0000 0.0000 0.0000 0.0000 21.8513
#
#
#
# Elastic Compliance Matrix: (Units=1/GPa)
#
#
# Indices 1 2 3 4 5 6 
#
# 1 0.012343 -0.002474 -0.004322 0.000000 0.000000 0.000000
# 2 -0.002474 0.012343 -0.004322 0.000000 0.000000 0.000000
# 3 -0.004322 -0.004322 0.017064 0.000000 0.000000 0.000000
# 4 0.000000 0.000000 0.000000 0.044992 0.000000 0.000000
# 5 0.000000 0.000000 0.000000 0.000000 0.044992 0.000000
# 6 0.000000 0.000000 0.000000 0.000000 0.000000 0.045764
#
#
# Mechanical properties :
#
#
# Convention : Reuss Voigt Hill
#
# Bulk Modulus (GPa) = 51.24763 51.96479 51.60621
# Shear Modulus (GPa) = 24.24327 24.97277 24.60802
#
# Velocity S-wave (km/s) = 3.64037 3.69473 3.66765
# Velocity P-wave (km/s) = 6.75896 6.82695 6.79304
#
# Compressibility (1/GPa) = 0.01951310
#
# Stress axis : x y z
#
# Youngs Moduli (GPa) = 81.01460 81.01460 58.60139
#
# Poissons Ratio (x) = 0.20044 0.25330
# Poissons Ratio (y) = 0.20044 0.25330
# Poissons Ratio (z) = 0.35018 0.35018
#
# Static dielectric constant tensor:
#      x y z
#    x 3.452440 0.000000 0.000000 
#    y 0.000000 3.452440 0.000000 
#    z 0.000000 0.000000 3.201190 
# 
# 
# High freq. dielectric constant tensor:
#      x y z
#    x 1.709340 0.000000 0.000000 
#    y 0.000000 1.709340 0.000000 
#    z 0.000000 0.000000 1.690280 
# 
# From -- ./inp_files/4045.got.cif
#   From: 2010.03.12/outbox.cif.g09.slc.cpg/sg107_3_cif.got.tgz:4045.got - 2010.04.14 01:49:11.
