data_PCOD8307941
_publ_section_title
;
Structure prediction by ZEFSAII (Michael W. Deem and Ramdas Pophale) SiO2 
 PCOD8307941
Probable space group: I 41 M D
;
_chemical_formula_sum "Si O2"
_cell_formula_units_Z 64
_cell_length_a 15.155408
_cell_length_b 15.155408
_cell_length_c 14.709561
_cell_angle_alpha 90.000000
_cell_angle_beta 90.000000
_cell_angle_gamma 90.000000
_cell_volume 3378.585989
_symmetry_space_group_name_H-M "I 41 M D"
_symmetry_group_IT_number 109
_symmetry_cell_setting 'tetragonal'
loop_
_space_group_symop_operation_xyz
x,y,z
-y,1/2+x,1/4+z
-x,-y,z
y,1/2-x,1/4+z
-x,y,z
x,-y,z
-y,1/2-x,1/4+z
y,1/2+x,1/4+z
1/2+x,1/2+y,1/2+z
1/2-y,x,3/4+z
1/2-x,1/2-y,1/2+z
1/2+y,-x,3/4+z
1/2-x,1/2+y,1/2+z
1/2+x,1/2-y,1/2+z
1/2-y,-x,3/4+z
1/2+y,x,3/4+z
loop_
_atom_site_type_symbol
_atom_site_label
_atom_site_fract_x
_atom_site_fract_y
_atom_site_fract_z
Si Si1 0.335803 0.225610 0.125000
Si Si2 0.743333 0.405145 0.069707
Si Si3 0.000000 0.896542 0.888886
Si Si4 0.817215 0.101434 0.180759
Si Si5 0.500000 0.397386 0.603130
O O1 0.298623 0.324737 0.123114
O O2 0.396440 0.223660 0.212970
O O3 0.255066 0.158005 0.128036
O O4 0.393485 0.198576 0.038594
O O5 0.699855 0.500000 0.098603
O O6 0.848572 0.413333 0.094470
O O7 0.000000 0.877514 0.996354
O O8 0.000000 0.000000 0.865622
O O9 0.912307 0.141298 0.151494
O O10 0.807692 0.000000 0.149808
O O11 0.500000 0.500000 0.623323
#
# Coordination Sequence:
#
# PCOD8307941 Si02
#       5
#    16  16   8  16   8
#     4  10  21  38  61  88 114 160 199 242 309 350
#     4   9  21  37  57  84 120 152 197 245 293 362
#     4   9  20  38  58  85 121 156 195 250 300 365
#     4  10  22  38  61  87 120 156 200 253 297 362
#     4   9  20  38  56  87 121 152 199 248 306 361
#
# _framework density 18.942834999999999
#
# number of rings (size 3 to 8) (size 9 to 14) (size 15 to 20)
#    0.750    1.750    0.000    0.750    8.750    1.000 
#    2.250    0.000    0.000    3.000    0.000    0.000 
#    0.000    0.000    0.000    0.000    0.000    0.000 
#
# Total GULP energy -396490.316287 kJ/mol
# GULP energy per Si atom -12390.322384 kJ/mol
# Density = 1.889972 g / cm^3
# Si number density = 18.942835 Si / 1000 Ang^3
#
#
#
# Elastic Constant Matrix: (Units=GPa)
#
#
# Indices 1 2 3 4 5 6 
#
# 1 102.1216 35.2523 12.3897 0.0000 0.0000 0.0000
# 2 35.2523 102.1216 12.3897 0.0000 0.0000 0.0000
# 3 12.3897 12.3897 38.5563 0.0000 0.0000 0.0000
# 4 0.0000 0.0000 0.0000 19.4547 0.0000 0.0000
# 5 0.0000 0.0000 0.0000 0.0000 19.4547 0.0000
# 6 0.0000 0.0000 0.0000 0.0000 0.0000 27.4956
#
#
#
# Elastic Compliance Matrix: (Units=1/GPa)
#
#
# Indices 1 2 3 4 5 6 
#
# 1 0.011341 -0.003614 -0.002483 0.000000 0.000000 0.000000
# 2 -0.003614 0.011341 -0.002483 0.000000 0.000000 0.000000
# 3 -0.002483 -0.002483 0.027532 0.000000 0.000000 0.000000
# 4 0.000000 0.000000 0.000000 0.051401 0.000000 0.000000
# 5 0.000000 0.000000 0.000000 0.000000 0.051401 0.000000
# 6 0.000000 0.000000 0.000000 0.000000 0.000000 0.036370
#
#
# Mechanical properties :
#
#
# Convention : Reuss Voigt Hill
#
# Bulk Modulus (GPa) = 30.25336 40.31808 35.28572
# Shear Modulus (GPa) = 22.98176 25.46551 24.22364
#
# Velocity S-wave (km/s) = 3.48690 3.67049 3.57988
# Velocity P-wave (km/s) = 5.67599 6.26847 5.97957
#
# Compressibility (1/GPa) = 0.03305418
#
# Stress axis : x y z
#
# Youngs Moduli (GPa) = 88.17621 88.17621 36.32148
#
# Poissons Ratio (x) = 0.31864 0.09019
# Poissons Ratio (y) = 0.31864 0.09019
# Poissons Ratio (z) = 0.21895 0.21895
#
# Static dielectric constant tensor:
#      x y z
#    x 3.428710 0.000000 0.000000 
#    y 0.000000 3.428710 0.000000 
#    z 0.000000 0.000000 3.399580 
# 
# 
# High freq. dielectric constant tensor:
#      x y z
#    x 1.729740 0.000000 0.000000 
#    y 0.000000 1.729740 0.000000 
#    z 0.000000 0.000000 1.741560 
# 
# From -- ./inp_files/2997.got.cif
#   From: 2010.03.12/outbox.cif.g09.slc.cpg/sg109_2_cif.got.tgz:2997.got - 2010.04.14 01:55:16.
