data_PCOD8307987
_publ_section_title
;
Structure prediction by ZEFSAII (Michael W. Deem and Ramdas Pophale) SiO2 
 PCOD8307987
Probable space group: I 41 M D
;
_chemical_formula_sum "Si O2"
_cell_formula_units_Z 40
_cell_length_a 9.739116
_cell_length_b 9.739116
_cell_length_c 16.091845
_cell_angle_alpha 90.000000
_cell_angle_beta 90.000000
_cell_angle_gamma 90.000000
_cell_volume 1526.317621
_symmetry_space_group_name_H-M "I 41 M D"
_symmetry_group_IT_number 109
_symmetry_cell_setting 'tetragonal'
loop_
_space_group_symop_operation_xyz
x,y,z
-y,1/2+x,1/4+z
-x,-y,z
y,1/2-x,1/4+z
-x,y,z
x,-y,z
-y,1/2-x,1/4+z
y,1/2+x,1/4+z
1/2+x,1/2+y,1/2+z
1/2-y,x,3/4+z
1/2-x,1/2-y,1/2+z
1/2+y,-x,3/4+z
1/2-x,1/2+y,1/2+z
1/2+x,1/2-y,1/2+z
1/2-y,-x,3/4+z
1/2+y,x,3/4+z
loop_
_atom_site_type_symbol
_atom_site_label
_atom_site_fract_x
_atom_site_fract_y
_atom_site_fract_z
Si Si1 0.000000 0.500000 0.030780
Si Si2 0.288016 0.500000 0.449975
Si Si3 0.788016 0.500000 0.861586
Si Si4 0.213786 0.500000 0.258699
Si Si5 0.500000 0.000000 0.030780
Si Si6 0.500000 0.786214 0.302862
O O1 0.000000 0.366340 0.964186
O O2 0.133660 0.500000 0.097375
O O3 0.282596 0.500000 0.350693
O O4 0.360735 0.632633 0.490912
O O5 0.129696 0.500000 0.471768
O O6 0.629696 0.500000 0.839793
O O7 0.860735 0.632633 0.820649
O O8 0.782596 0.500000 0.960868
#
# Coordination Sequence:
#
# PCOD8307987 Si02
#       6
#     4   8   8   8   4   8
#     4  12  24  40  74 108 152 204 272 334 388 464
#     4  11  26  47  74 111 158 212 269 330 410 494
#     4  11  26  47  74 111 158 212 269 330 410 494
#     4  11  26  47  74 111 158 212 269 330 410 494
#     4  12  24  40  74 108 152 204 272 334 388 464
#     4  11  26  47  74 111 158 212 269 330 410 494
#
# _framework density 26.206866999999999
#
# number of rings (size 3 to 8) (size 9 to 14) (size 15 to 20)
#    0.000    0.800    0.000    7.200    0.000   19.200 
#    0.000    0.000    0.000    0.000    0.000    0.000 
#    0.000    0.000    0.000    0.000    0.000    0.000 
#
# Total GULP energy -247828.400366 kJ/mol
# GULP energy per Si atom -12391.420018 kJ/mol
# Density = 2.614722 g / cm^3
# Si number density = 26.206867 Si / 1000 Ang^3
#
#
#
# Elastic Constant Matrix: (Units=GPa)
#
#
# Indices 1 2 3 4 5 6 
#
# 1 259.0896 90.9365 50.6172 0.0000 0.0000 0.0000
# 2 90.9365 259.0896 50.6172 0.0000 0.0000 0.0000
# 3 50.6172 50.6172 94.5392 0.0000 0.0000 0.0000
# 4 0.0000 0.0000 0.0000 -35.5113 0.0000 0.0000
# 5 0.0000 0.0000 0.0000 0.0000 -35.5113 0.0000
# 6 0.0000 0.0000 0.0000 0.0000 0.0000 52.9775
#
#
#
# Elastic Compliance Matrix: (Units=1/GPa)
#
#
# Indices 1 2 3 4 5 6 
#
# 1 0.004664 -0.001283 -0.001810 0.000000 0.000000 0.000000
# 2 -0.001283 0.004664 -0.001810 0.000000 0.000000 0.000000
# 3 -0.001810 -0.001810 0.012516 0.000000 0.000000 0.000000
# 4 0.000000 0.000000 0.000000 -0.028160 0.000000 0.000000
# 5 0.000000 0.000000 0.000000 0.000000 -0.028160 0.000000
# 6 0.000000 0.000000 0.000000 0.000000 0.000000 0.018876
#
#
# Mechanical properties :
#
#
# Convention : Reuss Voigt Hill
#
# Bulk Modulus (GPa) = 83.07791 110.78446 96.93118
# Shear Modulus (GPa) = -2804.80595 24.42747 -1390.18924
#
# Velocity S-wave (km/s) = -32.75026 3.05635 -23.05687
# Velocity P-wave (km/s) = 37.39434 7.40404 25.91830
#
# Compressibility (1/GPa) = 0.01203689
#
# Stress axis : x y z
#
# Youngs Moduli (GPa) = 214.42324 214.42324 79.89977
#
# Poissons Ratio (x) = 0.27517 0.14461
# Poissons Ratio (y) = 0.27517 0.14461
# Poissons Ratio (z) = 0.38808 0.38808
#
# Static dielectric constant tensor:
#      x y z
#    x 5.252620 0.000000 0.000000 
#    y 0.000000 5.252620 0.000000 
#    z 0.000000 0.000000 5.108000 
# 
# 
# High freq. dielectric constant tensor:
#      x y z
#    x 2.081450 0.000000 0.000000 
#    y 0.000000 2.081450 0.000000 
#    z 0.000000 0.000000 2.067800 
# 
# From -- ./inp_files/2882.got.cif
#   From: 2010.03.12/outbox.cif.g09.slc.cpg/sg109_2_cif.got.tgz:2882.got - 2010.04.14 01:55:16.
