data_PCOD8307130
_publ_section_title
;
Structure prediction by ZEFSAII (Michael W. Deem and Ramdas Pophale) SiO2 
 PCOD8307130
Probable space group: P 42 M C
;
_chemical_formula_sum "Si O2"
_cell_formula_units_Z 48
_cell_length_a 7.805386
_cell_length_b 7.805386
_cell_length_c 38.058721
_cell_angle_alpha 90.000000
_cell_angle_beta 90.000000
_cell_angle_gamma 90.000000
_cell_volume 2318.691444
_symmetry_space_group_name_H-M "P 42 M C"
_symmetry_group_IT_number 105
_symmetry_cell_setting 'tetragonal'
loop_
_space_group_symop_operation_xyz
x,y,z
-y,x,1/2+z
-x,-y,z
y,-x,1/2+z
-x,y,z
x,-y,z
-y,-x,1/2+z
y,x,1/2+z
loop_
_atom_site_type_symbol
_atom_site_label
_atom_site_fract_x
_atom_site_fract_y
_atom_site_fract_z
Si Si1 0.300661 0.000000 0.070601
Si Si2 0.000000 0.796367 0.318752
Si Si3 0.203605 0.689998 0.865177
Si Si4 0.699338 0.000000 0.738527
Si Si5 0.203632 0.000000 0.990375
Si Si6 0.297132 0.310835 0.693992
Si Si7 0.689997 0.203605 0.443951
Si Si8 0.310835 0.702867 0.615136
O O1 0.219197 0.171516 0.087950
O O2 0.500000 0.000000 0.079522
O O3 0.271874 0.000000 0.029457
O O4 0.168340 0.722856 0.338448
O O5 0.000000 0.728124 0.279671
O O6 0.000000 0.000000 0.318861
O O7 0.265831 0.500000 0.853449
O O8 0.270358 0.729866 0.904564
O O9 0.000000 0.696994 0.865208
O O10 0.780803 0.171515 0.721177
O O11 0.500000 0.000000 0.729605
O O12 0.277144 0.168340 0.970679
O O13 0.000000 0.000000 0.990266
O O14 0.500000 0.323657 0.697643
O O15 0.218432 0.500000 0.702061
O O16 0.250546 0.250547 0.654564
O O17 0.500000 0.265832 0.455678
O O18 0.696992 0.000000 0.443919
O O19 0.500000 0.781568 0.607066
O O20 0.323658 0.500000 0.611485
#
# Coordination Sequence:
#
# PCOD8307130 Si02
#       8
#     4   4   8   4   4   8   8   8
#     4  10  20  33  49  71  98 130 164 194 242 310
#     4  10  19  30  44  68 102 124 150 198 252 288
#     4   8  14  26  46  69  91 123 166 204 239 285
#     4  10  20  33  49  71  98 130 164 194 242 310
#     4  10  19  30  44  68 102 124 150 198 252 288
#     4   8  15  31  53  71  89 119 161 204 240 284
#     4   8  14  26  46  69  91 123 166 204 239 285
#     4   8  15  31  53  71  89 119 161 204 240 284
#
# _framework density 20.701332000000001
#
# number of rings (size 3 to 8) (size 9 to 14) (size 15 to 20)
#    0.000    3.333    0.000    2.500    0.000    3.333 
#    3.000    0.000    0.000    2.000    0.000    2.333 
#    0.000    0.000    0.000    0.000    0.000    0.000 
#
# Total GULP energy -594823.146902 kJ/mol
# GULP energy per Si atom -12392.148894 kJ/mol
# Density = 2.065422 g / cm^3
# Si number density = 20.701332 Si / 1000 Ang^3
#
#
#
# Elastic Constant Matrix: (Units=GPa)
#
#
# Indices 1 2 3 4 5 6 
#
# 1 87.8814 27.1810 61.1657 0.0000 0.0000 0.0000
# 2 27.1810 87.8814 61.1657 0.0000 0.0000 0.0000
# 3 61.1657 61.1657 163.7550 0.0000 0.0000 0.0000
# 4 0.0000 0.0000 0.0000 31.8793 0.0000 0.0000
# 5 0.0000 0.0000 0.0000 0.0000 31.8793 0.0000
# 6 0.0000 0.0000 0.0000 0.0000 0.0000 4.4326
#
#
#
# Elastic Compliance Matrix: (Units=1/GPa)
#
#
# Indices 1 2 3 4 5 6 
#
# 1 0.015445 -0.001029 -0.005385 0.000000 0.000000 0.000000
# 2 -0.001029 0.015445 -0.005385 0.000000 0.000000 0.000000
# 3 -0.005385 -0.005385 0.010129 0.000000 0.000000 0.000000
# 4 0.000000 0.000000 0.000000 0.031368 0.000000 0.000000
# 5 0.000000 0.000000 0.000000 0.000000 0.031368 0.000000
# 6 0.000000 0.000000 0.000000 0.000000 0.000000 0.225604
#
#
# Mechanical properties :
#
#
# Convention : Reuss Voigt Hill
#
# Bulk Modulus (GPa) = 57.39771 70.94919 64.17345
# Shear Modulus (GPa) = 13.93676 26.30527 20.12101
#
# Velocity S-wave (km/s) = 2.59748 3.56856 3.12102
# Velocity P-wave (km/s) = 6.06487 7.16426 6.63737
#
# Compressibility (1/GPa) = 0.01742230
#
# Stress axis : x y z
#
# Youngs Moduli (GPa) = 64.74591 64.74591 98.72518
#
# Poissons Ratio (x) = 0.06665 0.53159
# Poissons Ratio (y) = 0.06665 0.53159
# Poissons Ratio (z) = 0.34863 0.34863
#
# Static dielectric constant tensor:
#      x y z
#    x 3.841980 0.000000 0.000000 
#    y 0.000000 3.841980 0.000000 
#    z 0.000000 0.000000 3.762810 
# 
# 
# High freq. dielectric constant tensor:
#      x y z
#    x 1.790010 0.000000 0.000000 
#    y 0.000000 1.790010 0.000000 
#    z 0.000000 0.000000 1.798770 
# 
# From -- ./inp_files/4937.got.cif
#   From: 2010.03.12/outbox.cif.g09.slc.cpg/sg105_3_cif.got.tgz:4937.got - 2010.04.14 01:45:32.
