data_PCOD8307453
_publ_section_title
;
Structure prediction by ZEFSAII (Michael W. Deem and Ramdas Pophale) SiO2 
 PCOD8307453
Probable space group: P 42 B C
;
_chemical_formula_sum "Si O2"
_cell_formula_units_Z 64
_cell_length_a 31.493312
_cell_length_b 31.493312
_cell_length_c 5.201544
_cell_angle_alpha 90.000000
_cell_angle_beta 90.000000
_cell_angle_gamma 90.000000
_cell_volume 5159.040627
_symmetry_space_group_name_H-M "P 42 B C"
_symmetry_group_IT_number 106
_symmetry_cell_setting 'tetragonal'
loop_
_space_group_symop_operation_xyz
x,y,z
-y,x,1/2+z
-x,-y,z
y,-x,1/2+z
1/2-x,1/2+y,z
1/2+x,1/2-y,z
1/2-y,1/2-x,1/2+z
1/2+y,1/2+x,1/2+z
loop_
_atom_site_type_symbol
_atom_site_label
_atom_site_fract_x
_atom_site_fract_y
_atom_site_fract_z
Si Si1 0.731384 0.197027 0.111740
Si Si2 0.697027 0.768616 0.111740
Si Si3 0.402013 0.527358 0.137060
Si Si4 0.629129 0.700785 0.108309
Si Si5 0.527359 0.402013 0.137060
Si Si6 0.833419 0.095164 0.608814
Si Si7 0.200784 0.870871 0.108308
Si Si8 0.666581 0.404836 0.108814
O O1 0.701931 0.201766 0.362134
O O2 0.767347 0.232653 0.111573
O O3 0.752926 0.150724 0.111112
O O4 0.701766 0.798069 0.362133
O O5 0.650723 0.747074 0.111112
O O6 0.439610 0.560390 0.091460
O O7 0.406059 0.508942 0.423361
O O8 0.356328 0.549698 0.108928
O O9 0.406059 0.491058 0.923361
O O10 0.665006 0.665006 0.108668
O O11 0.599230 0.695781 0.356882
O O12 0.599620 0.696568 0.857574
O O13 0.549698 0.356328 0.108928
O O14 0.804219 0.099230 0.356881
O O15 0.868242 0.131758 0.613515
O O16 0.803432 0.099620 0.857573
#
# Coordination Sequence:
#
# PCOD8307453 Si02
#       8
#     8   8   8   8   8   8   8   8
#     4   9  15  21  30  47  69  89 107 125 143 161
#     4   9  15  21  30  47  69  89 107 125 143 161
#     4  11  22  34  46  58  70  82  99 128 168 216
#     4   9  15  24  37  50  66  87 107 125 143 168
#     4  11  22  34  46  58  70  82  99 128 168 216
#     4   9  17  28  40  52  64  81 104 125 149 186
#     4   9  15  24  37  50  66  87 107 125 143 168
#     4   9  17  28  40  52  64  81 104 125 149 186
#
# _framework density 12.405408
#
# number of rings (size 3 to 8) (size 9 to 14) (size 15 to 20)
#    0.000    2.500    0.000    3.750    0.000   11.500 
#    0.000    0.000    0.000    0.000    0.000    0.000 
#    0.000    0.000    0.000    0.000    0.000    0.000 
#
# Total GULP energy -793572.134252 kJ/mol
# GULP energy per Si atom -12399.564598 kJ/mol
# Density = 1.237717 g / cm^3
# Si number density = 12.405408 Si / 1000 Ang^3
#
#
#
# Elastic Constant Matrix: (Units=GPa)
#
#
# Indices 1 2 3 4 5 6 
#
# 1 33.5921 33.6033 24.8044 0.0000 0.0000 0.0000
# 2 33.6033 33.5921 24.8044 0.0000 0.0000 0.0000
# 3 24.8044 24.8044 107.7162 0.0000 0.0000 0.0000
# 4 0.0000 0.0000 0.0000 18.2931 0.0000 0.0000
# 5 0.0000 0.0000 0.0000 0.0000 18.2931 0.0000
# 6 0.0000 0.0000 0.0000 0.0000 0.0000 15.1505
#
#
#
# Elastic Compliance Matrix: (Units=1/GPa)
#
#
# Indices 1 2 3 4 5 6 
#
# 1 -44.533826 44.551756 -0.004129 0.000000 0.000000 0.000000
# 2 44.551756-44.533826 -0.004129 0.000000 0.000000 0.000000
# 3 -0.004129 -0.004129 0.011185 0.000000 0.000000 0.000000
# 4 0.000000 0.000000 0.000000 0.054665 0.000000 0.000000
# 5 0.000000 0.000000 0.000000 0.000000 0.054665 0.000000
# 6 0.000000 0.000000 0.000000 0.000000 0.000000 0.066005
#
#
# Mechanical properties :
#
#
# Convention : Reuss Voigt Hill
#
# Bulk Modulus (GPa) = 32.75457 37.92498 35.33977
# Shear Modulus (GPa) = -0.02810 16.45989 8.21590
#
# Velocity S-wave (km/s) = -0.15066 3.64652 2.57628
# Velocity P-wave (km/s) = 5.14106 6.95465 6.11546
#
# Compressibility (1/GPa) = 0.03053009
#
# Stress axis : x y z
#
# Youngs Moduli (GPa) = -0.02245 -0.02245 89.40371
#
# Poissons Ratio (x) = 1.00040 0.36914
# Poissons Ratio (y) = 1.00040 0.36914
# Poissons Ratio (z) = -0.00009 -0.00009
#
# Static dielectric constant tensor:
#      x y z
#    x 2.323480 0.000000 0.000000 
#    y 0.000000 2.323480 0.000000 
#    z 0.000000 0.000000 2.772780 
# 
# 
# High freq. dielectric constant tensor:
#      x y z
#    x 1.428090 0.000000 0.000000 
#    y 0.000000 1.428090 0.000000 
#    z 0.000000 0.000000 1.497100 
# 
# From -- ./inp_files/174.got.cif
#   From: 2010.03.12/outbox.cif.g09.slc.cpg/sg106_cif.got.tgz:174.got - 2010.04.14 01:48:02.
