data_PCOD8307195
_publ_section_title
;
Structure prediction by ZEFSAII (Michael W. Deem and Ramdas Pophale) SiO2 
 PCOD8307195
Probable space group: P 42 M C
;
_chemical_formula_sum "Si O2"
_cell_formula_units_Z 48
_cell_length_a 8.128837
_cell_length_b 8.128837
_cell_length_c 34.071844
_cell_angle_alpha 90.000000
_cell_angle_beta 90.000000
_cell_angle_gamma 90.000000
_cell_volume 2251.399000
_symmetry_space_group_name_H-M "P 42 M C"
_symmetry_group_IT_number 105
_symmetry_cell_setting 'tetragonal'
loop_
_space_group_symop_operation_xyz
x,y,z
-y,x,1/2+z
-x,-y,z
y,-x,1/2+z
-x,y,z
x,-y,z
-y,-x,1/2+z
y,x,1/2+z
loop_
_atom_site_type_symbol
_atom_site_label
_atom_site_fract_x
_atom_site_fract_y
_atom_site_fract_z
Si Si1 0.184429 0.811643 0.684580
Si Si2 0.815458 0.304280 0.023281
Si Si3 0.690071 0.679816 0.261297
Si Si4 0.305502 0.683616 0.605148
Si Si5 0.317497 0.304327 0.941518
Si Si6 0.304116 0.000000 0.394642
Si Si7 0.000000 0.303502 0.805271
O O1 0.297103 0.709687 0.714524
O O2 0.246067 0.799003 0.640128
O O3 0.000000 0.742163 0.687574
O O4 0.192819 0.000000 0.697503
O O5 0.813184 0.500000 0.025176
O O6 0.743998 0.230290 0.063730
O O7 0.000000 0.238955 0.017477
O O8 0.708305 0.243530 0.986266
O O9 0.500000 0.674085 0.272118
O O10 0.766795 0.500000 0.272957
O O11 0.770095 0.834784 0.284579
O O12 0.500000 0.691186 0.602672
O O13 0.242118 0.500000 0.613436
O O14 0.500000 0.242948 0.927547
O O15 0.311951 0.500000 0.939627
O O16 0.167572 0.234529 0.914821
O O17 0.243005 0.000000 0.349958
O O18 0.500000 0.000000 0.397578
O O19 0.000000 0.500000 0.801827
#
# Coordination Sequence:
#
# PCOD8307195 Si02
#       7
#     8   8   8   8   8   4   4
#     4  11  23  37  53  74 101 134 174 219 270 324
#     4   9  15  25  41  62  94 135 177 220 268 320
#     4  10  20  35  56  78 102 139 180 217 272 340
#     4  10  20  32  48  73 102 134 174 217 263 319
#     4   9  15  23  37  59  91 133 178 221 270 333
#     4   9  16  26  40  63  95 133 175 219 275 335
#     4   9  18  32  49  71 103 137 177 229 277 333
#
# _framework density 21.320076
#
# number of rings (size 3 to 8) (size 9 to 14) (size 15 to 20)
#    0.000    2.333    1.667    2.000    0.000    7.000 
#    0.000    3.333    0.000    0.000    0.000    0.000 
#    0.000    2.667    0.000    3.833    0.000    3.500 
#
# Total GULP energy -594937.364059 kJ/mol
# GULP energy per Si atom -12394.528418 kJ/mol
# Density = 2.127155 g / cm^3
# Si number density = 21.320076 Si / 1000 Ang^3
#
#
#
# Elastic Constant Matrix: (Units=GPa)
#
#
# Indices 1 2 3 4 5 6 
#
# 1 88.0976 24.1293 41.2283 0.0000 0.0000 0.0000
# 2 24.1293 88.0976 41.2283 0.0000 0.0000 0.0000
# 3 41.2283 41.2283 154.1256 0.0000 0.0000 0.0000
# 4 0.0000 0.0000 0.0000 10.2079 0.0000 0.0000
# 5 0.0000 0.0000 0.0000 0.0000 10.2079 0.0000
# 6 0.0000 0.0000 0.0000 0.0000 0.0000 10.4757
#
#
#
# Elastic Compliance Matrix: (Units=1/GPa)
#
#
# Indices 1 2 3 4 5 6 
#
# 1 0.013361 -0.002271 -0.002967 0.000000 0.000000 0.000000
# 2 -0.002271 0.013361 -0.002967 0.000000 0.000000 0.000000
# 3 -0.002967 -0.002967 0.008075 0.000000 0.000000 0.000000
# 4 0.000000 0.000000 0.000000 0.097963 0.000000 0.000000
# 5 0.000000 0.000000 0.000000 0.000000 0.097963 0.000000
# 6 0.000000 0.000000 0.000000 0.000000 0.000000 0.095459
#
#
# Mechanical properties :
#
#
# Convention : Reuss Voigt Hill
#
# Bulk Modulus (GPa) = 54.37949 60.38805 57.38377
# Shear Modulus (GPa) = 14.33803 21.09396 17.71599
#
# Velocity S-wave (km/s) = 2.59610 3.14888 2.88575
# Velocity P-wave (km/s) = 5.87775 6.45031 6.17068
#
# Compressibility (1/GPa) = 0.01838929
#
# Stress axis : x y z
#
# Youngs Moduli (GPa) = 74.84212 74.84212 123.83396
#
# Poissons Ratio (x) = 0.16999 0.36737
# Poissons Ratio (y) = 0.16999 0.36737
# Poissons Ratio (z) = 0.22203 0.22203
#
# Static dielectric constant tensor:
#      x y z
#    x 3.716280 0.000000 0.000000 
#    y 0.000000 3.716280 0.000000 
#    z 0.000000 0.000000 3.901090 
# 
# 
# High freq. dielectric constant tensor:
#      x y z
#    x 1.811580 0.000000 0.000000 
#    y 0.000000 1.811580 0.000000 
#    z 0.000000 0.000000 1.834430 
# 
# From -- ./inp_files/4749.got.cif
#   From: 2010.03.12/outbox.cif.g09.slc.cpg/sg105_3_cif.got.tgz:4749.got - 2010.04.14 01:45:32.
