data_PCOD8307633
_publ_section_title
;
Structure prediction by ZEFSAII (Michael W. Deem and Ramdas Pophale) SiO2 
 PCOD8307633
Probable space group: I 4 M M
;
_chemical_formula_sum "Si O2"
_cell_formula_units_Z 112
_cell_length_a 17.028962
_cell_length_b 17.028962
_cell_length_c 22.516521
_cell_angle_alpha 90.000000
_cell_angle_beta 90.000000
_cell_angle_gamma 90.000000
_cell_volume 6529.465654
_symmetry_space_group_name_H-M "I 4 M M"
_symmetry_group_IT_number 107
_symmetry_cell_setting 'tetragonal'
loop_
_space_group_symop_operation_xyz
x,y,z
-y,x,z
-x,-y,z
y,-x,z
-x,y,z
x,-y,z
-y,-x,z
y,x,z
1/2+x,1/2+y,1/2+z
1/2-y,1/2+x,1/2+z
1/2-x,1/2-y,1/2+z
1/2+y,1/2-x,1/2+z
1/2-x,1/2+y,1/2+z
1/2+x,1/2-y,1/2+z
1/2-y,1/2-x,1/2+z
1/2+y,1/2+x,1/2+z
loop_
_atom_site_type_symbol
_atom_site_label
_atom_site_fract_x
_atom_site_fract_y
_atom_site_fract_z
Si Si1 0.718115 0.590410 0.753580
Si Si2 0.293225 0.161899 0.720806
Si Si3 0.723010 0.409107 0.107507
Si Si4 0.411400 0.285013 0.324724
Si Si5 0.714987 0.588600 0.890290
Si Si6 0.661899 0.206776 0.994209
Si Si7 0.781885 0.909590 0.961435
O O1 0.703067 0.500000 0.736466
O O2 0.638741 0.638741 0.738281
O O3 0.794060 0.622443 0.717477
O O4 0.740693 0.601910 0.822563
O O5 0.230018 0.230018 0.723575
O O6 0.278349 0.107320 0.664043
O O7 0.286888 0.110766 0.781096
O O8 0.696465 0.500000 0.107508
O O9 0.644827 0.355174 0.107506
O O10 0.778349 0.392682 0.050971
O O11 0.500000 0.310992 0.313469
O O12 0.360930 0.360930 0.307766
O O13 0.398089 0.259306 0.392452
O O14 0.689008 0.500000 0.901547
O O15 0.639070 0.639070 0.907248
O O16 0.786888 0.610768 0.933918
O O17 0.730018 0.269983 0.991442
O O18 0.705941 0.122443 0.997538
O O19 0.861259 0.861259 0.976733
O O20 0.796932 0.000000 0.978549
#
# Coordination Sequence:
#
# PCOD8307633 Si02
#       7
#    16  16  16  16  16  16  16
#     4   9  17  29  47  70  93 118 149 188 234 279
#     4   9  17  30  46  65  91 124 160 189 218 266
#     4  10  20  33  51  73  96 124 154 186 222 258
#     4   9  16  26  43  67  94 123 153 188 229 271
#     4   9  16  26  43  67  94 123 153 188 229 271
#     4   9  17  30  46  65  91 124 160 189 218 266
#     4   9  17  29  47  70  93 118 149 188 234 279
#
# _framework density 17.153010999999999
#
# number of rings (size 3 to 8) (size 9 to 14) (size 15 to 20)
#    0.000    2.857    0.000    1.714    0.000    4.143 
#    0.000    3.571    0.000    9.429    0.000    8.000 
#    0.000    5.714    0.000    0.000    0.000    0.000 
#
# Total GULP energy -694096.814504 kJ/mol
# GULP energy per Si atom -12394.585973 kJ/mol
# Density = 1.711397 g / cm^3
# Si number density = 17.153011 Si / 1000 Ang^3
#
#
#
# Elastic Constant Matrix: (Units=GPa)
#
#
# Indices 1 2 3 4 5 6 
#
# 1 84.7508 64.7573 36.4189 0.0000 0.0000 0.0001
# 2 64.7573 84.7508 36.4189 0.0000 0.0000 -0.0001
# 3 36.4189 36.4189 48.9696 0.0000 0.0000 0.0000
# 4 0.0000 0.0000 0.0000 20.0014 0.0000 0.0000
# 5 0.0000 0.0000 0.0000 0.0000 20.0014 0.0000
# 6 0.0001 -0.0001 0.0000 0.0000 0.0000 19.4138
#
#
#
# Elastic Compliance Matrix: (Units=1/GPa)
#
#
# Indices 1 2 3 4 5 6 
#
# 1 0.030253 -0.019764 -0.007801 0.000000 0.000000 0.000000
# 2 -0.019764 0.030253 -0.007801 0.000000 0.000000 0.000000
# 3 -0.007801 -0.007801 0.032024 0.000000 0.000000 0.000000
# 4 0.000000 0.000000 0.000000 0.049997 0.000000 0.000000
# 5 0.000000 0.000000 0.000000 0.000000 0.049997 0.000000
# 6 0.000000 0.000000 0.000000 0.000000 0.000000 0.051510
#
#
# Mechanical properties :
#
#
# Convention : Reuss Voigt Hill
#
# Bulk Modulus (GPa) = 45.87403 54.85125 50.36264
# Shear Modulus (GPa) = 15.52658 17.27504 16.40081
#
# Velocity S-wave (km/s) = 3.01189 3.17695 3.09552
# Velocity P-wave (km/s) = 6.23677 6.74569 6.49622
#
# Compressibility (1/GPa) = 0.02179883
#
# Stress axis : x y z
#
# Youngs Moduli (GPa) = 33.05488 33.05488 31.22695
#
# Poissons Ratio (x) = 0.65329 0.24359
# Poissons Ratio (y) = 0.65329 0.24359
# Poissons Ratio (z) = 0.25785 0.25785
#
# Static dielectric constant tensor:
#      x y z
#    x 3.143560 0.000000 0.000000 
#    y 0.000000 3.143560 0.000000 
#    z 0.000000 0.000000 3.338420 
# 
# 
# High freq. dielectric constant tensor:
#      x y z
#    x 1.645400 0.000000 0.000000 
#    y 0.000000 1.645400 0.000000 
#    z 0.000000 0.000000 1.654100 
# 
# From -- ./inp_files/5418.got.cif
#   From: 2010.03.12/outbox.cif.g09.slc.cpg/sg107_3_cif.got.tgz:5418.got - 2010.04.14 01:49:11.
