data_PCOD8307837
_publ_section_title
;
Structure prediction by ZEFSAII (Michael W. Deem and Ramdas Pophale) SiO2 
 PCOD8307837
Probable space group: I 41 M D
;
_chemical_formula_sum "Si O2"
_cell_formula_units_Z 112
_cell_length_a 21.184817
_cell_length_b 21.184817
_cell_length_c 15.724826
_cell_angle_alpha 90.000000
_cell_angle_beta 90.000000
_cell_angle_gamma 90.000000
_cell_volume 7057.246421
_symmetry_space_group_name_H-M "I 41 M D"
_symmetry_group_IT_number 109
_symmetry_cell_setting 'tetragonal'
loop_
_space_group_symop_operation_xyz
x,y,z
-y,1/2+x,1/4+z
-x,-y,z
y,1/2-x,1/4+z
-x,y,z
x,-y,z
-y,1/2-x,1/4+z
y,1/2+x,1/4+z
1/2+x,1/2+y,1/2+z
1/2-y,x,3/4+z
1/2-x,1/2-y,1/2+z
1/2+y,-x,3/4+z
1/2-x,1/2+y,1/2+z
1/2+x,1/2-y,1/2+z
1/2-y,-x,3/4+z
1/2+y,x,3/4+z
loop_
_atom_site_type_symbol
_atom_site_label
_atom_site_fract_x
_atom_site_fract_y
_atom_site_fract_z
Si Si1 0.811702 0.380955 0.525620
Si Si2 0.072412 0.429340 0.231573
Si Si3 0.285771 0.697070 0.239257
Si Si4 0.260842 0.829566 0.319558
Si Si5 0.850159 0.311649 0.167072
Si Si6 0.887337 0.928304 0.170370
Si Si7 0.569382 0.743302 0.936976
O O1 0.828173 0.315110 0.572344
O O2 0.753508 0.376156 0.458476
O O3 0.873974 0.412159 0.483399
O O4 0.796277 0.428814 0.600841
O O5 0.096669 0.500000 0.206094
O O6 0.109056 0.373458 0.185287
O O7 0.079440 0.423489 0.332567
O O8 0.000000 0.421740 0.204529
O O9 0.282497 0.765329 0.278873
O O10 0.335964 0.705140 0.161764
O O11 0.218988 0.674168 0.203098
O O12 0.305920 0.649140 0.314047
O O13 0.284466 0.886405 0.260574
O O14 0.813703 0.911464 0.158182
O O15 0.896838 0.000000 0.206153
O O16 0.500000 0.741149 0.976256
#
# Coordination Sequence:
#
# PCOD8307837 Si02
#       7
#    16  16  16  16  16  16  16
#     4  10  17  27  48  70 101 126 155 199 236 280
#     4  10  20  34  48  63  94 132 158 190 238 292
#     4   9  17  28  49  69  93 121 155 200 241 279
#     4   9  16  29  44  68  95 127 152 191 243 286
#     4  10  18  29  47  74  93 122 163 199 239 285
#     4   9  18  31  46  69 100 131 161 190 232 292
#     4  10  18  28  45  71 100 128 162 197 233 285
#
# _framework density 15.870212
#
# number of rings (size 3 to 8) (size 9 to 14) (size 15 to 20)
#    0.000    2.429    2.857    0.857    4.000    0.571 
#    0.000    2.857    0.000    0.000    0.000    1.000 
#    0.000    0.000    0.000    0.000    0.000    0.000 
#
# Total GULP energy -693910.287337 kJ/mol
# GULP energy per Si atom -12391.255131 kJ/mol
# Density = 1.583409 g / cm^3
# Si number density = 15.870212 Si / 1000 Ang^3
#
#
#
# Elastic Constant Matrix: (Units=GPa)
#
#
# Indices 1 2 3 4 5 6 
#
# 1 61.9857 27.6321 26.6568 0.0000 0.0000 0.0000
# 2 27.6321 61.9857 26.6568 0.0000 0.0000 0.0000
# 3 26.6568 26.6568 75.3683 0.0000 0.0000 0.0000
# 4 0.0000 0.0000 0.0000 20.7439 0.0000 0.0000
# 5 0.0000 0.0000 0.0000 0.0000 20.7439 0.0000
# 6 0.0000 0.0000 0.0000 0.0000 0.0000 19.5869
#
#
#
# Elastic Compliance Matrix: (Units=1/GPa)
#
#
# Indices 1 2 3 4 5 6 
#
# 1 0.021621 -0.007489 -0.004998 0.000000 0.000000 0.000000
# 2 -0.007489 0.021621 -0.004998 0.000000 0.000000 0.000000
# 3 -0.004998 -0.004998 0.016804 0.000000 0.000000 0.000000
# 4 0.000000 0.000000 0.000000 0.048207 0.000000 0.000000
# 5 0.000000 0.000000 0.000000 0.000000 0.048207 0.000000
# 6 0.000000 0.000000 0.000000 0.000000 0.000000 0.051054
#
#
# Mechanical properties :
#
#
# Convention : Reuss Voigt Hill
#
# Bulk Modulus (GPa) = 39.88098 40.13680 40.00889
# Shear Modulus (GPa) = 19.93287 20.10785 20.02036
#
# Velocity S-wave (km/s) = 3.54784 3.56338 3.55562
# Velocity P-wave (km/s) = 6.47819 6.50198 6.49010
#
# Compressibility (1/GPa) = 0.02507461
#
# Stress axis : x y z
#
# Youngs Moduli (GPa) = 46.25234 46.25234 59.51012
#
# Poissons Ratio (x) = 0.34636 0.29745
# Poissons Ratio (y) = 0.34636 0.29745
# Poissons Ratio (z) = 0.23118 0.23118
#
# Static dielectric constant tensor:
#      x y z
#    x 2.966390 0.000000 0.000000 
#    y 0.000000 2.966390 0.000000 
#    z 0.000000 0.000000 3.212020 
# 
# 
# High freq. dielectric constant tensor:
#      x y z
#    x 1.593280 0.000000 0.000000 
#    y 0.000000 1.593280 0.000000 
#    z 0.000000 0.000000 1.600170 
# 
# From -- ./inp_files/3282.got.cif
#   From: 2010.03.12/outbox.cif.g09.slc.cpg/sg109_2_cif.got.tgz:3282.got - 2010.04.14 01:55:16.
