data_PCOD8307870
_publ_section_title
;
Structure prediction by ZEFSAII (Michael W. Deem and Ramdas Pophale) SiO2 
 PCOD8307870
Probable space group: I 41 M D
;
_chemical_formula_sum "Si O2"
_cell_formula_units_Z 64
_cell_length_a 26.660449
_cell_length_b 26.660449
_cell_length_c 5.091875
_cell_angle_alpha 90.000000
_cell_angle_beta 90.000000
_cell_angle_gamma 90.000000
_cell_volume 3619.200575
_symmetry_space_group_name_H-M "I 41 M D"
_symmetry_group_IT_number 109
_symmetry_cell_setting 'tetragonal'
loop_
_space_group_symop_operation_xyz
x,y,z
-y,1/2+x,1/4+z
-x,-y,z
y,1/2-x,1/4+z
-x,y,z
x,-y,z
-y,1/2-x,1/4+z
y,1/2+x,1/4+z
1/2+x,1/2+y,1/2+z
1/2-y,x,3/4+z
1/2-x,1/2-y,1/2+z
1/2+y,-x,3/4+z
1/2-x,1/2+y,1/2+z
1/2+x,1/2-y,1/2+z
1/2-y,-x,3/4+z
1/2+y,x,3/4+z
loop_
_atom_site_type_symbol
_atom_site_label
_atom_site_fract_x
_atom_site_fract_y
_atom_site_fract_z
Si Si1 0.690529 0.944207 0.114190
Si Si2 0.884839 0.190784 0.859706
Si Si3 0.555793 0.809471 0.897849
Si Si4 0.809216 0.884839 0.652332
O O1 0.672665 0.926218 0.399232
O O2 0.750000 0.945665 0.131020
O O3 0.669442 0.000000 0.056127
O O4 0.671486 0.905373 0.890678
O O5 0.832800 0.167200 0.756019
O O6 0.875914 0.250000 0.881019
O O7 0.500000 0.830558 0.955911
O O8 0.573782 0.827335 0.612807
O O9 0.594627 0.828514 0.121361
#
# Coordination Sequence:
#
# PCOD8307870 Si02
#       4
#    16  16  16  16
#     4   9  17  30  48  67  89 119 156 201 244 270
#     4  10  19  31  46  68  98 129 158 187 223 275
#     4   9  17  30  48  67  89 119 156 201 244 270
#     4  10  19  31  46  68  98 129 158 187 223 275
#
# _framework density 17.683464000000001
#
# number of rings (size 3 to 8) (size 9 to 14) (size 15 to 20)
#    0.000    2.500    0.000    3.000    0.000    6.000 
#    0.000    7.500    0.000    0.000    0.000    0.000 
#    0.000   70.000    0.000    0.000    0.000    0.000 
#
# Total GULP energy -396459.958214 kJ/mol
# GULP energy per Si atom -12389.373694 kJ/mol
# Density = 1.764322 g / cm^3
# Si number density = 17.683464 Si / 1000 Ang^3
#
#
#
# Elastic Constant Matrix: (Units=GPa)
#
#
# Indices 1 2 3 4 5 6 
#
# 1 64.9291 36.5100 36.3745 0.0000 0.0000 0.0000
# 2 36.5100 64.9291 36.3745 0.0000 0.0000 0.0000
# 3 36.3745 36.3745 130.0472 0.0000 0.0000 0.0000
# 4 0.0000 0.0000 0.0000 28.2673 0.0000 0.0000
# 5 0.0000 0.0000 0.0000 0.0000 28.2673 0.0000
# 6 0.0000 0.0000 0.0000 0.0000 0.0000 4.5414
#
#
#
# Elastic Compliance Matrix: (Units=1/GPa)
#
#
# Indices 1 2 3 4 5 6 
#
# 1 0.023760 -0.011428 -0.003449 0.000000 0.000000 0.000000
# 2 -0.011428 0.023760 -0.003449 0.000000 0.000000 0.000000
# 3 -0.003449 -0.003449 0.009619 0.000000 0.000000 0.000000
# 4 0.000000 0.000000 0.000000 0.035377 0.000000 0.000000
# 5 0.000000 0.000000 0.000000 0.000000 0.035377 0.000000
# 6 0.000000 0.000000 0.000000 0.000000 0.000000 0.220196
#
#
# Mechanical properties :
#
#
# Convention : Reuss Voigt Hill
#
# Bulk Modulus (GPa) = 48.81448 53.15816 50.98632
# Shear Modulus (GPa) = 12.76916 22.25828 17.51372
#
# Velocity S-wave (km/s) = 2.69010 3.55167 3.15048
# Velocity P-wave (km/s) = 6.10847 6.85167 6.49071
#
# Compressibility (1/GPa) = 0.02048572
#
# Stress axis : x y z
#
# Youngs Moduli (GPa) = 42.08812 42.08812 103.96048
#
# Poissons Ratio (x) = 0.48098 0.35858
# Poissons Ratio (y) = 0.48098 0.35858
# Poissons Ratio (z) = 0.14517 0.14517
#
# Static dielectric constant tensor:
#      x y z
#    x 3.102900 0.000000 0.000000 
#    y 0.000000 3.102900 0.000000 
#    z 0.000000 0.000000 3.725690 
# 
# 
# High freq. dielectric constant tensor:
#      x y z
#    x 1.648370 0.000000 0.000000 
#    y 0.000000 1.648370 0.000000 
#    z 0.000000 0.000000 1.711790 
# 
# From -- ./inp_files/458.got.cif
#   From: 2010.03.12/outbox.cif.g09.slc.cpg/sg109_1_cif.got.tgz:458.got - 2010.04.14 01:55:16.
