data_PCOD8307861
_publ_section_title
;
Structure prediction by ZEFSAII (Michael W. Deem and Ramdas Pophale) SiO2 
 PCOD8307861
Probable space group: I 41 M D
;
_chemical_formula_sum "Si O2"
_cell_formula_units_Z 96
_cell_length_a 18.874236
_cell_length_b 18.874236
_cell_length_c 15.267901
_cell_angle_alpha 90.000000
_cell_angle_beta 90.000000
_cell_angle_gamma 90.000000
_cell_volume 5438.987960
_symmetry_space_group_name_H-M "I 41 M D"
_symmetry_group_IT_number 109
_symmetry_cell_setting 'tetragonal'
loop_
_space_group_symop_operation_xyz
x,y,z
-y,1/2+x,1/4+z
-x,-y,z
y,1/2-x,1/4+z
-x,y,z
x,-y,z
-y,1/2-x,1/4+z
y,1/2+x,1/4+z
1/2+x,1/2+y,1/2+z
1/2-y,x,3/4+z
1/2-x,1/2-y,1/2+z
1/2+y,-x,3/4+z
1/2-x,1/2+y,1/2+z
1/2+x,1/2-y,1/2+z
1/2-y,-x,3/4+z
1/2+y,x,3/4+z
loop_
_atom_site_type_symbol
_atom_site_label
_atom_site_fract_x
_atom_site_fract_y
_atom_site_fract_z
Si Si1 0.921582 0.849954 0.580770
Si Si2 0.000000 0.415262 0.077202
Si Si3 0.346378 0.643192 0.389461
Si Si4 0.584908 0.500000 0.127306
Si Si5 0.789209 0.694920 0.307123
Si Si6 0.578902 0.734296 0.249082
Si Si7 0.686170 0.708187 0.958762
O O1 0.924727 0.832258 0.683458
O O2 0.878282 0.790278 0.527522
O O3 0.000000 0.850340 0.539614
O O4 0.887209 0.929208 0.577364
O O5 0.931363 0.383869 0.125075
O O6 0.000000 0.500000 0.086040
O O7 0.000000 0.388711 0.977318
O O8 0.263532 0.641894 0.359028
O O9 0.349165 0.657925 0.494559
O O10 0.387360 0.707164 0.340205
O O11 0.500000 0.500000 0.127086
O O12 0.741680 0.741997 0.243585
O O13 0.833614 0.748555 0.370807
O O14 0.500000 0.763659 0.268042
O O15 0.624635 0.795237 0.199418
#
# Coordination Sequence:
#
# PCOD8307861 Si02
#       7
#    16   8  16   8  16  16  16
#     4  10  19  32  48  74 103 138 171 208 272 334
#     4  11  20  34  54  80 115 144 166 211 278 341
#     4  10  20  35  52  77 104 144 177 217 271 319
#     4   9  18  30  48  72 113 143 156 199 270 348
#     4   9  20  36  53  70 103 137 185 225 256 311
#     4  10  19  30  50  79 106 131 171 214 270 336
#     4  10  18  34  51  72 100 139 174 226 262 305
#
# _framework density 17.650342999999999
#
# number of rings (size 3 to 8) (size 9 to 14) (size 15 to 20)
#    0.000    2.167    3.333    0.500    3.500    0.000 
#    4.500    0.000    0.000    0.000    0.000    0.000 
#    0.000    5.333    0.000    0.000    0.000    0.000 
#
# Total GULP energy -594827.206643 kJ/mol
# GULP energy per Si atom -12392.233472 kJ/mol
# Density = 1.761017 g / cm^3
# Si number density = 17.650343 Si / 1000 Ang^3
#
#
#
# Elastic Constant Matrix: (Units=GPa)
#
#
# Indices 1 2 3 4 5 6 
#
# 1 62.4578 27.0033 34.1144 0.0000 0.0000 0.0000
# 2 27.0033 62.4578 34.1144 0.0000 0.0000 0.0000
# 3 34.1144 34.1144 88.3968 0.0000 0.0000 0.0000
# 4 0.0000 0.0000 0.0000 21.8310 0.0000 0.0000
# 5 0.0000 0.0000 0.0000 0.0000 21.8310 0.0000
# 6 0.0000 0.0000 0.0000 0.0000 0.0000 26.4570
#
#
#
# Elastic Compliance Matrix: (Units=1/GPa)
#
#
# Indices 1 2 3 4 5 6 
#
# 1 0.022023 -0.006182 -0.006113 0.000000 0.000000 0.000000
# 2 -0.006182 0.022023 -0.006113 0.000000 0.000000 0.000000
# 3 -0.006113 -0.006113 0.016031 0.000000 0.000000 0.000000
# 4 0.000000 0.000000 0.000000 0.045807 0.000000 0.000000
# 5 0.000000 0.000000 0.000000 0.000000 0.045807 0.000000
# 6 0.000000 0.000000 0.000000 0.000000 0.000000 0.037797
#
#
# Mechanical properties :
#
#
# Convention : Reuss Voigt Hill
#
# Bulk Modulus (GPa) = 42.99398 44.86410 43.92904
# Shear Modulus (GPa) = 21.36229 21.89580 21.62905
#
# Velocity S-wave (km/s) = 3.48272 3.52594 3.50439
# Velocity P-wave (km/s) = 6.37056 6.48458 6.42782
#
# Compressibility (1/GPa) = 0.02325907
#
# Stress axis : x y z
#
# Youngs Moduli (GPa) = 45.40759 45.40759 62.37894
#
# Poissons Ratio (x) = 0.28073 0.38133
# Poissons Ratio (y) = 0.28073 0.38133
# Poissons Ratio (z) = 0.27758 0.27758
#
# Static dielectric constant tensor:
#      x y z
#    x 3.233830 0.000000 0.000000 
#    y 0.000000 3.233830 0.000000 
#    z 0.000000 0.000000 3.239860 
# 
# 
# High freq. dielectric constant tensor:
#      x y z
#    x 1.670730 0.000000 0.000000 
#    y 0.000000 1.670730 0.000000 
#    z 0.000000 0.000000 1.661420 
# 
# From -- ./inp_files/3166.got.cif
#   From: 2010.03.12/outbox.cif.g09.slc.cpg/sg109_2_cif.got.tgz:3166.got - 2010.04.14 01:55:16.
