data_PCOD8307490
_publ_section_title
;
Structure prediction by ZEFSAII (Michael W. Deem and Ramdas Pophale) SiO2 
 PCOD8307490
Probable space group: I 4 M M
;
_chemical_formula_sum "Si O2"
_cell_formula_units_Z 112
_cell_length_a 20.302828
_cell_length_b 20.302828
_cell_length_c 17.354424
_cell_angle_alpha 90.000000
_cell_angle_beta 90.000000
_cell_angle_gamma 90.000000
_cell_volume 7153.577304
_symmetry_space_group_name_H-M "I 4 M M"
_symmetry_group_IT_number 107
_symmetry_cell_setting 'tetragonal'
loop_
_space_group_symop_operation_xyz
x,y,z
-y,x,z
-x,-y,z
y,-x,z
-x,y,z
x,-y,z
-y,-x,z
y,x,z
1/2+x,1/2+y,1/2+z
1/2-y,1/2+x,1/2+z
1/2-x,1/2-y,1/2+z
1/2+y,1/2-x,1/2+z
1/2-x,1/2+y,1/2+z
1/2+x,1/2-y,1/2+z
1/2-y,1/2-x,1/2+z
1/2+y,1/2+x,1/2+z
loop_
_atom_site_type_symbol
_atom_site_label
_atom_site_fract_x
_atom_site_fract_y
_atom_site_fract_z
Si Si1 0.371147 0.266122 0.038890
Si Si2 0.871147 0.766122 0.821586
Si Si3 0.661138 0.766027 0.591265
Si Si4 0.577091 0.182721 0.456377
Si Si5 0.233973 0.338862 0.769211
Si Si6 0.317280 0.077091 0.404099
Si Si7 0.678333 0.569860 0.180238
O O1 0.332809 0.332809 0.014411
O O2 0.319989 0.215909 0.075270
O O3 0.425801 0.277696 0.103940
O O4 0.409797 0.239511 0.965660
O O5 0.832809 0.832809 0.846064
O O6 0.909797 0.739511 0.894816
O O7 0.819989 0.715909 0.785206
O O8 0.925801 0.777696 0.756536
O O9 0.694110 0.694110 0.573214
O O10 0.599260 0.784829 0.537524
O O11 0.638224 0.768910 0.680238
O O12 0.500000 0.164187 0.461126
O O13 0.617586 0.117586 0.430238
O O14 0.305890 0.305890 0.787261
O O15 0.215171 0.400740 0.822952
O O16 0.335813 0.000000 0.399349
O O17 0.641488 0.500000 0.180238
O O18 0.627949 0.627949 0.180238
#
# Coordination Sequence:
#
# PCOD8307490 Si02
#       7
#    16  16  16  16  16  16  16
#     4   9  16  29  47  67  86 109 145 188 232 270
#     4   9  16  29  47  67  86 109 145 188 232 270
#     4   9  16  29  49  71  91 110 141 191 244 282
#     4  10  20  31  45  65  91 125 158 188 223 267
#     4   9  16  29  49  71  91 110 141 191 244 282
#     4  10  20  31  45  65  91 125 158 188 223 267
#     4  10  18  27  42  62  87 115 141 173 212 264
#
# _framework density 15.656501
#
# number of rings (size 3 to 8) (size 9 to 14) (size 15 to 20)
#    0.000    2.571    1.429    1.714    0.000    4.429 
#    0.000    0.000    0.000    0.000    0.000    4.000 
#    0.000    5.143    0.000   12.571    0.000    0.000 
#
# Total GULP energy -693905.362479 kJ/mol
# GULP energy per Si atom -12391.167187 kJ/mol
# Density = 1.562087 g / cm^3
# Si number density = 15.656501 Si / 1000 Ang^3
#
#
#
# Elastic Constant Matrix: (Units=GPa)
#
#
# Indices 1 2 3 4 5 6 
#
# 1 72.9146 27.5165 45.1406 0.0000 0.0000 0.0000
# 2 27.5165 72.9146 45.1406 0.0000 0.0000 0.0000
# 3 45.1406 45.1406 123.0892 0.0000 0.0000 0.0000
# 4 0.0000 0.0000 0.0000 2.3700 0.0000 0.0000
# 5 0.0000 0.0000 0.0000 0.0000 2.3700 0.0000
# 6 0.0000 0.0000 0.0000 0.0000 0.0000 79.4859
#
#
#
# Elastic Compliance Matrix: (Units=1/GPa)
#
#
# Indices 1 2 3 4 5 6 
#
# 1 0.018441 -0.003587 -0.005447 0.000000 0.000000 0.000000
# 2 -0.003587 0.018441 -0.005447 0.000000 0.000000 0.000000
# 3 -0.005447 -0.005447 0.012120 0.000000 0.000000 0.000000
# 4 0.000000 0.000000 0.000000 0.421940 0.000000 0.000000
# 5 0.000000 0.000000 0.000000 0.000000 0.421940 0.000000
# 6 0.000000 0.000000 0.000000 0.000000 0.000000 0.012581
#
#
# Mechanical properties :
#
#
# Convention : Reuss Voigt Hill
#
# Bulk Modulus (GPa) = 49.90534 56.05708 52.98121
# Shear Modulus (GPa) = 5.31290 26.91989 16.11639
#
# Velocity S-wave (km/s) = 1.84412 4.15107 3.21187
# Velocity P-wave (km/s) = 6.03976 7.67185 6.90420
#
# Compressibility (1/GPa) = 0.02003793
#
# Stress axis : x y z
#
# Youngs Moduli (GPa) = 54.22800 54.22800 82.51073
#
# Poissons Ratio (x) = 0.19450 0.44947
# Poissons Ratio (y) = 0.19450 0.44947
# Poissons Ratio (z) = 0.29540 0.29540
#
# Static dielectric constant tensor:
#      x y z
#    x 2.863670 0.000000 0.000000 
#    y 0.000000 2.863670 0.000000 
#    z 0.000000 0.000000 3.576550 
# 
# 
# High freq. dielectric constant tensor:
#      x y z
#    x 1.580330 0.000000 0.000000 
#    y 0.000000 1.580330 0.000000 
#    z 0.000000 0.000000 1.615210 
# 
# From -- ./inp_files/4288.got.cif
#   From: 2010.03.12/outbox.cif.g09.slc.cpg/sg107_3_cif.got.tgz:4288.got - 2010.04.14 01:49:11.
