data_PCOD8307245
_publ_section_title
;
Structure prediction by ZEFSAII (Michael W. Deem and Ramdas Pophale) SiO2 
 PCOD8307245
Probable space group: P 42 M C
;
_chemical_formula_sum "Si O2"
_cell_formula_units_Z 40
_cell_length_a 9.127706
_cell_length_b 9.127706
_cell_length_c 25.761704
_cell_angle_alpha 90.000000
_cell_angle_beta 90.000000
_cell_angle_gamma 90.000000
_cell_volume 2146.336802
_symmetry_space_group_name_H-M "P 42 M C"
_symmetry_group_IT_number 105
_symmetry_cell_setting 'tetragonal'
loop_
_space_group_symop_operation_xyz
x,y,z
-y,x,1/2+z
-x,-y,z
y,-x,1/2+z
-x,y,z
x,-y,z
-y,-x,1/2+z
y,x,1/2+z
loop_
_atom_site_type_symbol
_atom_site_label
_atom_site_fract_x
_atom_site_fract_y
_atom_site_fract_z
Si Si1 0.171703 0.829690 0.889210
Si Si2 0.663547 0.174341 0.786777
Si Si3 0.168330 0.827170 0.073202
Si Si4 0.327772 0.330576 0.482405
Si Si5 0.173607 0.161991 0.189331
O O1 0.241306 0.772582 0.835582
O O2 0.238104 0.737959 0.935713
O O3 0.000000 0.800977 0.886310
O O4 0.207540 0.000000 0.898750
O O5 0.500000 0.237323 0.792715
O O6 0.731426 0.238744 0.733468
O O7 0.661896 0.000000 0.784350
O O8 0.213085 0.780988 0.131767
O O9 0.000000 0.784029 0.061406
O O10 0.189293 0.000000 0.065062
O O11 0.276070 0.739654 0.036167
O O12 0.500000 0.304925 0.484140
O O13 0.287045 0.500000 0.474468
O O14 0.000000 0.152288 0.194501
O O15 0.240022 0.000000 0.198093
#
# Coordination Sequence:
#
# PCOD8307245 Si02
#       5
#     8   8   8   8   8
#     4  10  20  34  54  78 102 131 170 214 258 305
#     4   9  16  26  44  73 106 137 169 206 250 299
#     4   9  18  33  54  79 104 132 169 211 254 301
#     4  11  24  38  51  71 101 135 170 210 258 310
#     4   8  14  26  45  71 103 133 162 203 252 298
#
# _framework density 18.636405
#
# number of rings (size 3 to 8) (size 9 to 14) (size 15 to 20)
#    0.000    2.600    0.000    3.600    0.000    8.800 
#    0.000    2.000    0.000    1.200    0.000    5.600 
#    0.000    0.000    0.000    0.000    0.000    0.000 
#
# Total GULP energy -495959.438564 kJ/mol
# GULP energy per Si atom -12398.985964 kJ/mol
# Density = 1.859399 g / cm^3
# Si number density = 18.636405 Si / 1000 Ang^3
#
#
#
# Elastic Constant Matrix: (Units=GPa)
#
#
# Indices 1 2 3 4 5 6 
#
# 1 73.6048 38.0270 56.9240 0.0000 0.0000 0.0000
# 2 38.0270 73.6048 56.9240 0.0000 0.0000 0.0000
# 3 56.9240 56.9240 160.2070 0.0000 0.0000 0.0000
# 4 0.0000 0.0000 0.0000 -0.7201 0.0000 0.0000
# 5 0.0000 0.0000 0.0000 0.0000 -0.7201 0.0000
# 6 0.0000 0.0000 0.0000 0.0000 0.0000 21.8428
#
#
#
# Elastic Compliance Matrix: (Units=1/GPa)
#
#
# Indices 1 2 3 4 5 6 
#
# 1 0.021078 -0.007029 -0.004992 0.000000 0.000000 0.000000
# 2 -0.007029 0.021078 -0.004992 0.000000 0.000000 0.000000
# 3 -0.004992 -0.004992 0.009789 0.000000 0.000000 0.000000
# 4 0.000000 0.000000 0.000000 -1.388757 0.000000 0.000000
# 5 0.000000 0.000000 0.000000 0.000000 -1.388757 0.000000
# 6 0.000000 0.000000 0.000000 0.000000 0.000000 0.045782
#
#
# Mechanical properties :
#
#
# Convention : Reuss Voigt Hill
#
# Bulk Modulus (GPa) = 55.80389 67.90741 61.85565
# Shear Modulus (GPa) = -1.89409 14.44997 6.27794
#
# Velocity S-wave (km/s) = -1.00923 2.78755 1.83738
# Velocity P-wave (km/s) = 5.35261 6.84673 6.14525
#
# Compressibility (1/GPa) = 0.01791990
#
# Stress axis : x y z
#
# Youngs Moduli (GPa) = 47.44248 47.44248 102.15295
#
# Poissons Ratio (x) = 0.33348 0.50993
# Poissons Ratio (y) = 0.33348 0.50993
# Poissons Ratio (z) = 0.23682 0.23682
#
# Static dielectric constant tensor:
#      x y z
#    x 3.281950 0.000000 0.000000 
#    y 0.000000 3.281950 0.000000 
#    z 0.000000 0.000000 3.693000 
# 
# 
# High freq. dielectric constant tensor:
#      x y z
#    x 1.700170 0.000000 0.000000 
#    y 0.000000 1.700170 0.000000 
#    z 0.000000 0.000000 1.743200 
# 
# From -- ./inp_files/3914.got.cif
#   From: 2010.03.12/outbox.cif.g09.slc.cpg/sg105_2_cif.got.tgz:3914.got - 2010.04.14 01:45:32.
