data_PCOD8307685
_publ_section_title
;
Structure prediction by ZEFSAII (Michael W. Deem and Ramdas Pophale) SiO2 
 PCOD8307685
Probable space group: I 4 M M
;
_chemical_formula_sum "Si O2"
_cell_formula_units_Z 96
_cell_length_a 24.204896
_cell_length_b 24.204896
_cell_length_c 9.574716
_cell_angle_alpha 90.000000
_cell_angle_beta 90.000000
_cell_angle_gamma 90.000000
_cell_volume 5609.605794
_symmetry_space_group_name_H-M "I 4 M M"
_symmetry_group_IT_number 107
_symmetry_cell_setting 'tetragonal'
loop_
_space_group_symop_operation_xyz
x,y,z
-y,x,z
-x,-y,z
y,-x,z
-x,y,z
x,-y,z
-y,-x,z
y,x,z
1/2+x,1/2+y,1/2+z
1/2-y,1/2+x,1/2+z
1/2-x,1/2-y,1/2+z
1/2+y,1/2-x,1/2+z
1/2-x,1/2+y,1/2+z
1/2+x,1/2-y,1/2+z
1/2-y,1/2-x,1/2+z
1/2+y,1/2+x,1/2+z
loop_
_atom_site_type_symbol
_atom_site_label
_atom_site_fract_x
_atom_site_fract_y
_atom_site_fract_z
Si Si1 0.149677 0.149677 0.219868
Si Si2 0.650971 0.774118 0.392184
Si Si3 0.562647 0.864687 0.394472
Si Si4 0.774118 0.650971 0.718391
Si Si5 0.364687 0.062647 0.216103
Si Si6 0.350323 0.350323 0.390708
Si Si7 0.437858 0.562143 0.389058
Si Si8 0.937858 0.937858 0.221517
O O1 0.212194 0.136068 0.267081
O O2 0.106062 0.106062 0.286710
O O3 0.144425 0.144425 0.055288
O O4 0.597036 0.809995 0.358177
O O5 0.667199 0.775845 0.555288
O O6 0.703132 0.796868 0.305288
O O7 0.636068 0.712194 0.343494
O O8 0.500000 0.851502 0.354056
O O9 0.583522 0.916478 0.305288
O O10 0.569125 0.881305 0.555288
O O11 0.809995 0.597036 0.752399
O O12 0.351502 0.000000 0.256519
O O13 0.393938 0.393938 0.323866
O O14 0.422507 0.500000 0.338458
O O15 0.435938 0.564063 0.555288
O O16 0.000000 0.922507 0.272117
#
# Coordination Sequence:
#
# PCOD8307685 Si02
#       8
#     8  16  16  16  16   8   8   8
#     4   9  16  25  41  63  84 113 149 175 203 252
#     4   9  17  29  44  63  88 115 142 175 214 253
#     4   9  18  31  45  62  85 113 144 178 216 255
#     4   9  17  29  44  63  88 115 142 175 214 253
#     4   9  18  31  45  62  85 113 144 178 216 255
#     4   9  16  25  41  63  84 113 149 175 203 252
#     4   8  14  24  37  57  88 119 142 170 211 253
#     4   8  14  24  37  57  88 119 142 170 211 253
#
# _framework density 17.113500999999999
#
# number of rings (size 3 to 8) (size 9 to 14) (size 15 to 20)
#    0.000    3.167    0.000    1.000    0.000    2.333 
#    0.000    8.333    0.000    0.000    0.000    0.000 
#    0.000    4.000    0.000    7.333    0.000    6.667 
#
# Total GULP energy -595030.699774 kJ/mol
# GULP energy per Si atom -12396.472912 kJ/mol
# Density = 1.707455 g / cm^3
# Si number density = 17.113501 Si / 1000 Ang^3
#
#
#
# Elastic Constant Matrix: (Units=GPa)
#
#
# Indices 1 2 3 4 5 6 
#
# 1 139.6038 82.3657 33.3741 0.0000 0.0000 -0.0002
# 2 82.3657 139.6038 33.3741 0.0000 0.0000 0.0002
# 3 33.3741 33.3741 28.0406 0.0000 0.0000 0.0000
# 4 0.0000 0.0000 0.0000 16.9587 0.0000 0.0000
# 5 0.0000 0.0000 0.0000 0.0000 16.9587 0.0000
# 6 -0.0002 0.0002 0.0000 0.0000 0.0000 28.2485
#
#
#
# Elastic Compliance Matrix: (Units=1/GPa)
#
#
# Indices 1 2 3 4 5 6 
#
# 1 0.012244 -0.005227 -0.008351 0.000000 0.000000 0.000000
# 2 -0.005227 0.012244 -0.008351 0.000000 0.000000 0.000000
# 3 -0.008351 -0.008351 0.055541 0.000000 0.000000 0.000000
# 4 0.000000 0.000000 0.000000 0.058967 0.000000 0.000000
# 5 0.000000 0.000000 0.000000 0.000000 0.058967 0.000000
# 6 0.000000 0.000000 0.000000 0.000000 0.000000 0.035400
#
#
# Mechanical properties :
#
#
# Convention : Reuss Voigt Hill
#
# Bulk Modulus (GPa) = 27.64703 67.27511 47.46107
# Shear Modulus (GPa) = 17.28448 22.97545 20.12997
#
# Velocity S-wave (km/s) = 3.18148 3.66804 3.43339
# Velocity P-wave (km/s) = 5.44848 7.57204 6.59628
#
# Compressibility (1/GPa) = 0.03617025
#
# Stress axis : x y z
#
# Youngs Moduli (GPa) = 81.67533 81.67533 18.00471
#
# Poissons Ratio (x) = 0.42694 0.15035
# Poissons Ratio (y) = 0.42694 0.15035
# Poissons Ratio (z) = 0.68206 0.68206
#
# Static dielectric constant tensor:
#      x y z
#    x 3.397230 0.000000 0.000000 
#    y 0.000000 3.397230 0.000000 
#    z 0.000000 0.000000 2.881750 
# 
# 
# High freq. dielectric constant tensor:
#      x y z
#    x 1.665200 0.000000 0.000000 
#    y 0.000000 1.665200 0.000000 
#    z 0.000000 0.000000 1.617490 
# 
# From -- ./inp_files/1565.got.cif
#   From: 2010.03.12/outbox.cif.g09.slc.cpg/sg107_1_cif.got.tgz:1565.got - 2010.04.14 01:49:11.
