data_PCOD8307910
_publ_section_title
;
Structure prediction by ZEFSAII (Michael W. Deem and Ramdas Pophale) SiO2 
 PCOD8307910
Probable space group: I 41 M D
;
_chemical_formula_sum "Si O2"
_cell_formula_units_Z 88
_cell_length_a 11.478951
_cell_length_b 11.478951
_cell_length_c 36.406967
_cell_angle_alpha 90.000000
_cell_angle_beta 90.000000
_cell_angle_gamma 90.000000
_cell_volume 4797.211921
_symmetry_space_group_name_H-M "I 41 M D"
_symmetry_group_IT_number 109
_symmetry_cell_setting 'tetragonal'
loop_
_space_group_symop_operation_xyz
x,y,z
-y,1/2+x,1/4+z
-x,-y,z
y,1/2-x,1/4+z
-x,y,z
x,-y,z
-y,1/2-x,1/4+z
y,1/2+x,1/4+z
1/2+x,1/2+y,1/2+z
1/2-y,x,3/4+z
1/2-x,1/2-y,1/2+z
1/2+y,-x,3/4+z
1/2-x,1/2+y,1/2+z
1/2+x,1/2-y,1/2+z
1/2-y,-x,3/4+z
1/2+y,x,3/4+z
loop_
_atom_site_type_symbol
_atom_site_label
_atom_site_fract_x
_atom_site_fract_y
_atom_site_fract_z
Si Si1 0.500000 0.860682 0.423910
Si Si2 0.635924 0.373396 0.695689
Si Si3 0.271234 0.365239 0.512083
Si Si4 0.723361 0.208469 0.634347
Si Si5 0.500000 0.869081 0.588449
Si Si6 0.631973 0.632837 0.835437
Si Si7 0.716680 0.500000 0.257066
O O1 0.393228 0.789118 0.406328
O O2 0.500000 0.854600 0.468588
O O3 0.500000 0.000000 0.413611
O O4 0.500000 0.390131 0.701661
O O5 0.694553 0.500000 0.689407
O O6 0.689336 0.316969 0.732370
O O7 0.656237 0.291225 0.661722
O O8 0.297112 0.500000 0.503938
O O9 0.215708 0.345476 0.551332
O O10 0.390456 0.299093 0.508815
O O11 0.622076 0.178498 0.604957
O O12 0.829489 0.278351 0.616421
O O13 0.500000 0.861791 0.543959
O O14 0.500000 0.000000 0.601215
O O15 0.500000 0.647208 0.849948
O O16 0.656655 0.500000 0.823942
#
# Coordination Sequence:
#
# PCOD8307910 Si02
#       7
#     8  16  16  16   8  16   8
#     4  12  27  44  66  88 118 168 212 264 310 380
#     4  10  20  34  56  89 124 159 196 243 302 371
#     4  10  20  35  59  89 122 159 200 252 310 369
#     4  12  22  40  62  89 122 155 207 255 313 370
#     4  12  25  41  63  92 123 161 202 265 329 379
#     4  10  21  38  60  87 122 163 203 249 302 365
#     4  12  22  42  62  87 126 160 212 256 318 382
#
# _framework density 18.343988
#
# number of rings (size 3 to 8) (size 9 to 14) (size 15 to 20)
#    0.000    1.091    5.455    2.182    0.000    2.182 
#    1.636    0.000    0.000    0.000    0.000    2.545 
#    0.000    0.000    0.000    0.000    0.000    0.000 
#
# Total GULP energy -545269.361683 kJ/mol
# GULP energy per Si atom -12392.485493 kJ/mol
# Density = 1.830224 g / cm^3
# Si number density = 18.343988 Si / 1000 Ang^3
#
#
#
# Elastic Constant Matrix: (Units=GPa)
#
#
# Indices 1 2 3 4 5 6 
#
# 1 98.6195 44.9209 40.5541 0.0000 0.0000 0.0000
# 2 44.9209 98.6195 40.5541 0.0003 0.0002 0.0000
# 3 40.5541 40.5541 92.2752 0.0001 0.0000 0.0000
# 4 0.0000 0.0003 0.0001 306.7100 0.0145 0.0000
# 5 0.0000 0.0002 0.0000 0.0145 306.7019 0.0000
# 6 0.0000 0.0000 0.0000 0.0000 0.0000 24.6484
#
#
#
# Elastic Compliance Matrix: (Units=1/GPa)
#
#
# Indices 1 2 3 4 5 6 
#
# 1 0.013945 -0.004677 -0.004073 0.000000 0.000000 0.000000
# 2 -0.004677 0.013945 -0.004073 0.000000 0.000000 0.000000
# 3 -0.004073 -0.004073 0.014418 0.000000 0.000000 0.000000
# 4 0.000000 0.000000 0.000000 0.003260 0.000000 0.000000
# 5 0.000000 0.000000 0.000000 0.000000 0.003260 0.000000
# 6 0.000000 0.000000 0.000000 0.000000 0.000000 0.040571
#
#
# Mechanical properties :
#
#
# Convention : Reuss Voigt Hill
#
# Bulk Modulus (GPa) = 60.02100 60.17470 60.09785
# Shear Modulus (GPa) = 41.45905 138.51107 89.98506
#
# Velocity S-wave (km/s) = 4.75920 8.69894 7.01147
# Velocity P-wave (km/s) = 7.93667 11.56590 9.91869
#
# Compressibility (1/GPa) = 0.01666083
#
# Stress axis : x y z
#
# Youngs Moduli (GPa) = 71.70827 71.70828 69.35992
#
# Poissons Ratio (x) = 0.33538 0.28253
# Poissons Ratio (y) = 0.33538 0.28253
# Poissons Ratio (z) = 0.29209 0.29209
#
# Static dielectric constant tensor:
#      x y z
#    x -76.760070 -0.004280 0.000000 
#    y -0.004280 -76.762380 0.000000 
#    z 0.000000 0.000000 3.558950 
# 
# 
# High freq. dielectric constant tensor:
#      x y z
#    x 1.712930 0.000000 0.000000 
#    y 0.000000 1.712930 0.000000 
#    z 0.000000 0.000000 1.722310 
# 
# From -- ./inp_files/5610.got.cif
#   From: 2010.03.12/outbox.cif.g09.slc.cpg/sg109_3_cif.got.tgz:5610.got - 2010.04.14 01:55:16.
