data_PCOD8307749
_publ_section_title
;
Structure prediction by ZEFSAII (Michael W. Deem and Ramdas Pophale) SiO2 
 PCOD8307749
Probable space group: I 4 C M
;
_chemical_formula_sum "Si O2"
_cell_formula_units_Z 80
_cell_length_a 29.664012
_cell_length_b 29.664012
_cell_length_c 5.037277
_cell_angle_alpha 90.000000
_cell_angle_beta 90.000000
_cell_angle_gamma 90.000000
_cell_volume 4432.570070
_symmetry_space_group_name_H-M "I 4 C M"
_symmetry_group_IT_number 108
_symmetry_cell_setting 'tetragonal'
loop_
_space_group_symop_operation_xyz
x,y,z
-y,x,z
-x,-y,z
y,-x,z
-x,y,1/2+z
x,-y,1/2+z
-y,-x,1/2+z
y,x,1/2+z
1/2+x,1/2+y,1/2+z
1/2-y,1/2+x,1/2+z
1/2-x,1/2-y,1/2+z
1/2+y,1/2-x,1/2+z
1/2-x,1/2+y,z
1/2+x,1/2-y,z
1/2-y,1/2-x,z
1/2+y,1/2+x,z
loop_
_atom_site_type_symbol
_atom_site_label
_atom_site_fract_x
_atom_site_fract_y
_atom_site_fract_z
Si Si1 0.832800 0.875420 0.596030
Si Si2 0.307342 0.470704 0.003335
Si Si3 0.098647 0.736780 0.584387
Si Si4 0.896372 0.677243 0.587642
Si Si5 0.970199 0.396182 0.040879
O O1 0.861753 0.846398 0.392167
O O2 0.841899 0.929103 0.555405
O O3 0.778930 0.866389 0.561757
O O4 0.315778 0.510957 0.208981
O O5 0.255992 0.451940 0.031867
O O6 0.111128 0.697849 0.378390
O O7 0.101011 0.717664 0.880089
O O8 0.854537 0.645464 0.515692
O O9 0.942503 0.649400 0.585273
O O10 0.939591 0.439591 0.094753
O O11 0.987747 0.397224 0.739984
#
# Coordination Sequence:
#
# PCOD8307749 Si02
#       5
#    16  16  16  16  16
#     4  10  20  36  58  82 118 157 183 217 283 336
#     4  10  20  33  54  87 117 139 183 229 271 327
#     4  10  22  34  59  80 111 154 176 239 278 333
#     4  11  22  39  55  80 109 148 191 234 292 344
#     4  11  24  39  57  80 107 143 189 237 292 358
#
# _framework density 18.048221000000002
#
# number of rings (size 3 to 8) (size 9 to 14) (size 15 to 20)
#    1.200    0.400    0.000    6.000    0.000    9.200 
#    0.000    0.000    0.000   12.000    0.000    0.000 
#    0.000   28.000    0.000    0.000    0.000    0.000 
#
# Total GULP energy -495987.650329 kJ/mol
# GULP energy per Si atom -12399.691258 kJ/mol
# Density = 1.800714 g / cm^3
# Si number density = 18.048221 Si / 1000 Ang^3
#
#
#
# Elastic Constant Matrix: (Units=GPa)
#
#
# Indices 1 2 3 4 5 6 
#
# 1 54.4966 47.9094 11.7435 0.0000 0.0000 -0.0036
# 2 47.9094 54.4966 11.7435 0.0000 0.0000 0.0036
# 3 11.7435 11.7435 75.3489 0.0000 0.0000 0.0000
# 4 0.0000 0.0000 0.0000 38.4264 0.0000 0.0000
# 5 0.0000 0.0000 0.0000 0.0000 38.4264 0.0000
# 6 -0.0036 0.0036 0.0000 0.0000 0.0000 20.1091
#
#
#
# Elastic Compliance Matrix: (Units=1/GPa)
#
#
# Indices 1 2 3 4 5 6 
#
# 1 0.080968 -0.070841 -0.001578 0.000000 0.000000 0.000027
# 2 -0.070841 0.080968 -0.001578 0.000000 0.000000 -0.000027
# 3 -0.001578 -0.001578 0.013764 0.000000 0.000000 0.000000
# 4 0.000000 0.000000 0.000000 0.026024 0.000000 0.000000
# 5 0.000000 0.000000 0.000000 0.000000 0.026024 0.000000
# 6 0.000027 -0.000027 0.000000 0.000000 0.000000 0.049729
#
#
# Mechanical properties :
#
#
# Convention : Reuss Voigt Hill
#
# Bulk Modulus (GPa) = 36.09550 36.34831 36.22191
# Shear Modulus (GPa) = 11.50199 26.92211 19.21205
#
# Velocity S-wave (km/s) = 2.52720 3.86641 3.26618
# Velocity P-wave (km/s) = 5.34402 6.33368 5.85978
#
# Compressibility (1/GPa) = 0.02770429
#
# Stress axis : x y z
#
# Youngs Moduli (GPa) = 12.35050 12.35050 72.65557
#
# Poissons Ratio (x) = 0.87493 0.11468
# Poissons Ratio (y) = 0.87493 0.11468
# Poissons Ratio (z) = 0.01949 0.01949
#
# Static dielectric constant tensor:
#      x y z
#    x 3.173710 0.000000 0.000000 
#    y 0.000000 3.173710 0.000000 
#    z 0.000000 0.000000 3.236950 
# 
# 
# High freq. dielectric constant tensor:
#      x y z
#    x 1.685570 0.000000 0.000000 
#    y 0.000000 1.685570 0.000000 
#    z 0.000000 0.000000 1.716320 
# 
# From -- ./inp_files/168.got.cif
#   From: 2010.03.12/outbox.cif.g09.slc.cpg/sg108_1_cif.got.tgz:168.got - 2010.04.14 01:53:11.
