data_PCOD8307180
_publ_section_title
;
Structure prediction by ZEFSAII (Michael W. Deem and Ramdas Pophale) SiO2 
 PCOD8307180
Probable space group: P 42 M C
;
_chemical_formula_sum "Si O2"
_cell_formula_units_Z 40
_cell_length_a 9.520604
_cell_length_b 9.520604
_cell_length_c 25.823322
_cell_angle_alpha 90.000000
_cell_angle_beta 90.000000
_cell_angle_gamma 90.000000
_cell_volume 2340.674984
_symmetry_space_group_name_H-M "P 42 M C"
_symmetry_group_IT_number 105
_symmetry_cell_setting 'tetragonal'
loop_
_space_group_symop_operation_xyz
x,y,z
-y,x,1/2+z
-x,-y,z
y,-x,1/2+z
-x,y,z
x,-y,z
-y,-x,1/2+z
y,x,1/2+z
loop_
_atom_site_type_symbol
_atom_site_label
_atom_site_fract_x
_atom_site_fract_y
_atom_site_fract_z
Si Si1 0.333827 0.845562 0.163660
Si Si2 0.338269 0.834263 0.047607
Si Si3 0.657468 0.666650 0.868833
Si Si4 0.334431 0.836417 0.465067
Si Si5 0.342924 0.667126 0.754668
O O1 0.500000 0.853772 0.170315
O O2 0.299917 0.788319 0.106277
O O3 0.266074 0.749905 0.208705
O O4 0.268326 0.000000 0.170507
O O5 0.500000 0.795980 0.034816
O O6 0.313844 0.000000 0.039992
O O7 0.234387 0.746538 0.012112
O O8 0.500000 0.724465 0.880209
O O9 0.652677 0.500000 0.869666
O O10 0.765522 0.721597 0.912014
O O11 0.709320 0.716500 0.811748
O O12 0.500000 0.811837 0.472702
O O13 0.296672 0.000000 0.462751
O O14 0.500000 0.722227 0.745918
O O15 0.338580 0.500000 0.751468
#
# Coordination Sequence:
#
# PCOD8307180 Si02
#       5
#     8   8   8   8   8
#     4   8  14  24  38  58  84 112 143 180 221 266
#     4   9  18  32  48  66  89 119 155 191 228 273
#     4   8  14  25  40  59  87 121 151 181 222 270
#     4  10  20  31  44  66  93 120 154 193 231 273
#     4   8  13  21  35  58  87 116 145 177 216 264
#
# _framework density 17.089089999999999
#
# number of rings (size 3 to 8) (size 9 to 14) (size 15 to 20)
#    0.000    3.400    0.000    3.000    0.000    3.200 
#    0.000    6.000    0.000    0.000    0.000    1.400 
#    0.000    8.000    0.000    0.000    0.000    0.000 
#
# Total GULP energy -495656.358368 kJ/mol
# GULP energy per Si atom -12391.408959 kJ/mol
# Density = 1.705019 g / cm^3
# Si number density = 17.089090 Si / 1000 Ang^3
#
#
#
# Elastic Constant Matrix: (Units=GPa)
#
#
# Indices 1 2 3 4 5 6 
#
# 1 60.4886 34.0646 65.6749 0.0000 0.0000 0.0000
# 2 34.0646 60.4886 65.6749 0.0000 0.0000 0.0000
# 3 65.6749 65.6749 175.6304 0.0000 0.0000 0.0000
# 4 0.0000 0.0000 0.0000 3.4142 0.0000 0.0000
# 5 0.0000 0.0000 0.0000 0.0000 3.4142 0.0000
# 6 0.0000 0.0000 0.0000 0.0000 0.0000 15.8075
#
#
#
# Elastic Compliance Matrix: (Units=1/GPa)
#
#
# Indices 1 2 3 4 5 6 
#
# 1 0.029927 -0.007918 -0.008230 0.000000 0.000000 0.000000
# 2 -0.007918 0.029927 -0.008230 0.000000 0.000000 0.000000
# 3 -0.008230 -0.008230 0.011849 0.000000 0.000000 0.000000
# 4 0.000000 0.000000 0.000000 0.292891 0.000000 0.000000
# 5 0.000000 0.000000 0.000000 0.000000 0.292891 0.000000
# 6 0.000000 0.000000 0.000000 0.000000 0.000000 0.063261
#
#
# Mechanical properties :
#
#
# Convention : Reuss Voigt Hill
#
# Bulk Modulus (GPa) = 43.57947 69.71514 56.64731
# Shear Modulus (GPa) = 6.43378 13.27340 9.85359
#
# Velocity S-wave (km/s) = 1.94243 2.78999 2.40386
# Velocity P-wave (km/s) = 5.53059 7.15978 6.39726
#
# Compressibility (1/GPa) = 0.02294658
#
# Stress axis : x y z
#
# Youngs Moduli (GPa) = 33.41512 33.41512 84.39724
#
# Poissons Ratio (x) = 0.26458 0.69458
# Poissons Ratio (y) = 0.26458 0.69458
# Poissons Ratio (z) = 0.27500 0.27500
#
# Static dielectric constant tensor:
#      x y z
#    x 2.966920 0.000000 0.000000 
#    y 0.000000 2.966920 0.000000 
#    z 0.000000 0.000000 3.600890 
# 
# 
# High freq. dielectric constant tensor:
#      x y z
#    x 1.621720 0.000000 0.000000 
#    y 0.000000 1.621720 0.000000 
#    z 0.000000 0.000000 1.678340 
# 
# From -- ./inp_files/3918.got.cif
#   From: 2010.03.12/outbox.cif.g09.slc.cpg/sg105_2_cif.got.tgz:3918.got - 2010.04.14 01:45:32.
