data_PCOD8307539
_publ_section_title
;
Structure prediction by ZEFSAII (Michael W. Deem and Ramdas Pophale) SiO2 
 PCOD8307539
Probable space group: I 4 M M
;
_chemical_formula_sum "Si O2"
_cell_formula_units_Z 80
_cell_length_a 14.141917
_cell_length_b 14.141917
_cell_length_c 25.527615
_cell_angle_alpha 90.000000
_cell_angle_beta 90.000000
_cell_angle_gamma 90.000000
_cell_volume 5105.365148
_symmetry_space_group_name_H-M "I 4 M M"
_symmetry_group_IT_number 107
_symmetry_cell_setting 'tetragonal'
loop_
_space_group_symop_operation_xyz
x,y,z
-y,x,z
-x,-y,z
y,-x,z
-x,y,z
x,-y,z
-y,-x,z
y,x,z
1/2+x,1/2+y,1/2+z
1/2-y,1/2+x,1/2+z
1/2-x,1/2-y,1/2+z
1/2+y,1/2-x,1/2+z
1/2-x,1/2+y,1/2+z
1/2+x,1/2-y,1/2+z
1/2-y,1/2-x,1/2+z
1/2+y,1/2+x,1/2+z
loop_
_atom_site_type_symbol
_atom_site_label
_atom_site_fract_x
_atom_site_fract_y
_atom_site_fract_z
Si Si1 0.239874 0.607985 0.479520
Si Si2 0.237119 0.609114 0.361402
Si Si3 0.109511 0.392176 0.573729
Si Si4 0.888153 0.733727 0.672330
Si Si5 0.605417 0.888256 0.768574
O O1 0.268541 0.500000 0.487953
O O2 0.334562 0.665439 0.490131
O O3 0.200749 0.625004 0.420742
O O4 0.160527 0.640060 0.520527
O O5 0.263810 0.500000 0.350772
O O6 0.331419 0.668582 0.349787
O O7 0.153061 0.642842 0.323288
O O8 0.134847 0.500000 0.589554
O O9 0.140219 0.323691 0.620467
O O10 0.000000 0.382012 0.561528
O O11 0.833246 0.833246 0.673010
O O12 0.852832 0.670172 0.720839
O O13 0.000000 0.755295 0.675058
O O14 0.500000 0.843355 0.765217
O O15 0.596174 0.000000 0.765139
#
# Coordination Sequence:
#
# PCOD8307539 Si02
#       5
#    16  16  16  16  16
#     4   9  17  28  42  61  86 115 145 177 212 251
#     4   9  17  28  42  62  88 116 144 174 209 251
#     4   9  17  29  45  64  85 111 144 180 218 255
#     4  10  19  30  45  64  87 114 141 171 208 252
#     4   9  17  29  44  61  82 108 138 172 208 245
#
# _framework density 15.669791
#
# number of rings (size 3 to 8) (size 9 to 14) (size 15 to 20)
#    0.000    2.800    0.000    1.800    0.000    3.800 
#    0.000    6.000    0.000    3.600    0.000    0.000 
#    0.000   17.600    0.000   14.800    0.000    1.200 
#
# Total GULP energy -495914.107050 kJ/mol
# GULP energy per Si atom -12397.852676 kJ/mol
# Density = 1.563413 g / cm^3
# Si number density = 15.669791 Si / 1000 Ang^3
#
#
#
# Elastic Constant Matrix: (Units=GPa)
#
#
# Indices 1 2 3 4 5 6 
#
# 1 72.7953 45.2255 57.1180 0.0000 0.0000 -0.0004
# 2 45.2255 72.7953 57.1180 0.0000 0.0000 0.0004
# 3 57.1180 57.1180 125.5698 0.0000 0.0000 0.0000
# 4 0.0000 0.0000 0.0000 24.0762 0.0000 0.0000
# 5 0.0000 0.0000 0.0000 0.0000 24.0762 0.0000
# 6 -0.0004 0.0004 0.0000 0.0000 0.0000 20.6486
#
#
#
# Elastic Compliance Matrix: (Units=1/GPa)
#
#
# Indices 1 2 3 4 5 6 
#
# 1 0.025705 -0.010567 -0.006886 0.000000 0.000000 0.000001
# 2 -0.010567 0.025705 -0.006886 0.000000 0.000000 -0.000001
# 3 -0.006886 -0.006886 0.014228 0.000000 0.000000 0.000000
# 4 0.000000 0.000000 0.000000 0.041535 0.000000 0.000000
# 5 0.000000 0.000000 0.000000 0.000000 0.041535 0.000000
# 6 0.000001 -0.000001 0.000000 0.000000 0.000000 0.048429
#
#
# Mechanical properties :
#
#
# Convention : Reuss Voigt Hill
#
# Bulk Modulus (GPa) = 58.95950 65.56483 62.26216
# Shear Modulus (GPa) = 19.88329 21.20681 20.54505
#
# Velocity S-wave (km/s) = 3.56602 3.68279 3.62487
# Velocity P-wave (km/s) = 7.39346 7.74702 7.57230
#
# Compressibility (1/GPa) = 0.01696080
#
# Stress axis : x y z
#
# Youngs Moduli (GPa) = 38.90308 38.90308 70.28359
#
# Poissons Ratio (x) = 0.41108 0.48397
# Poissons Ratio (y) = 0.41108 0.48397
# Poissons Ratio (z) = 0.26788 0.26788
#
# Static dielectric constant tensor:
#      x y z
#    x 2.879860 0.000000 0.000000 
#    y 0.000000 2.879860 0.000000 
#    z 0.000000 0.000000 3.231380 
# 
# 
# High freq. dielectric constant tensor:
#      x y z
#    x 1.582800 0.000000 0.000000 
#    y 0.000000 1.582800 0.000000 
#    z 0.000000 0.000000 1.618720 
# 
# From -- ./inp_files/4594.got.cif
#   From: 2010.03.12/outbox.cif.g09.slc.cpg/sg107_3_cif.got.tgz:4594.got - 2010.04.14 01:49:11.
