data_PCOD8307049
_publ_section_title
;
Structure prediction by ZEFSAII (Michael W. Deem and Ramdas Pophale) SiO2 
 PCOD8307049
Probable space group: P 4 N C 
;
_chemical_formula_sum "Si O2"
_cell_formula_units_Z 60
_cell_length_a 11.956208
_cell_length_b 11.956208
_cell_length_c 19.916439
_cell_angle_alpha 90.000000
_cell_angle_beta 90.000000
_cell_angle_gamma 90.000000
_cell_volume 2847.073074
_symmetry_space_group_name_H-M "P 4 N C "
_symmetry_group_IT_number 104
_symmetry_cell_setting 'tetragonal'
loop_
_space_group_symop_operation_xyz
x,y,z
-y,x,z
-x,-y,z
y,-x,z
1/2-x,1/2+y,1/2+z
1/2+x,1/2-y,1/2+z
1/2-y,1/2-x,1/2+z
1/2+y,1/2+x,1/2+z
loop_
_atom_site_type_symbol
_atom_site_label
_atom_site_fract_x
_atom_site_fract_y
_atom_site_fract_z
Si Si1 0.377754 0.368079 0.368110
Si Si2 0.008899 0.276515 0.282245
Si Si3 0.614049 0.638323 0.210368
Si Si4 0.500000 0.000000 0.202044
Si Si5 0.713601 0.317400 0.870212
Si Si6 0.967057 0.172658 0.145326
Si Si7 0.625194 0.831697 0.119283
Si Si8 0.335633 0.572912 0.007465
O O1 0.505906 0.344439 0.389356
O O2 0.366222 0.348820 0.288828
O O3 0.291034 0.281561 0.401622
O O4 0.035687 0.396075 0.248989
O O5 0.108999 0.235906 0.330481
O O6 0.893626 0.290361 0.322773
O O7 0.980370 0.185100 0.225598
O O8 0.484293 0.654093 0.188741
O O9 0.676948 0.736170 0.169287
O O10 0.519806 0.890984 0.155230
O O11 0.677205 0.402040 0.928838
O O12 0.932919 0.287306 0.109346
O O13 0.086711 0.128717 0.121458
O O14 0.603782 0.776952 0.047250
O O15 0.355150 0.444022 0.027350
#
# Coordination Sequence:
#
# PCOD8307049 Si02
#       8
#     8   8   8   4   8   8   8   8
#     4   9  20  37  60  94 133 172 219 273 342 412
#     4  11  23  38  67  99 137 173 220 279 349 401
#     4   9  18  32  56  88 120 161 204 255 324 394
#     4  10  26  42  62 108 136 164 216 292 352 410
#     4  12  23  40  66  97 134 181 221 283 330 407
#     4  10  21  38  61  92 123 164 214 271 336 404
#     4  11  23  40  63  91 131 170 213 273 333 390
#     4  11  25  46  67  92 128 177 234 270 321 411
#
# _framework density 21.074276999999999
#
# number of rings (size 3 to 8) (size 9 to 14) (size 15 to 20)
#    0.000    1.600    2.667    3.200    5.600    4.533 
#    0.000    3.333    0.000    1.600    0.000    0.000 
#    0.000    0.000    0.000    0.000    0.000    0.000 
#
# Total GULP energy -743580.346273 kJ/mol
# GULP energy per Si atom -12393.005771 kJ/mol
# Density = 2.102631 g / cm^3
# Si number density = 21.074277 Si / 1000 Ang^3
#
#
#
# Elastic Constant Matrix: (Units=GPa)
#
#
# Indices 1 2 3 4 5 6 
#
# 1 102.8632 50.3086 28.8052 0.0000 0.0000 0.0000
# 2 50.3086 102.8632 28.8052 0.0000 0.0000 0.0000
# 3 28.8052 28.8052 68.6145 0.0000 0.0000 0.0000
# 4 0.0000 0.0000 0.0000 32.0699 0.0000 0.0000
# 5 0.0000 0.0000 0.0000 0.0000 32.0699 0.0000
# 6 0.0000 0.0000 0.0000 0.0000 0.0000 24.2305
#
#
#
# Elastic Compliance Matrix: (Units=1/GPa)
#
#
# Indices 1 2 3 4 5 6 
#
# 1 0.013390 -0.005638 -0.003255 0.000000 0.000000 0.000000
# 2 -0.005638 0.013390 -0.003255 0.000000 0.000000 0.000000
# 3 -0.003255 -0.003255 0.017307 0.000000 0.000000 0.000000
# 4 0.000000 0.000000 0.000000 0.031182 0.000000 0.000000
# 5 0.000000 0.000000 0.000000 0.000000 0.031182 0.000000
# 6 0.000000 0.000000 0.000000 0.000000 0.000000 0.041270
#
#
# Mechanical properties :
#
#
# Convention : Reuss Voigt Hill
#
# Bulk Modulus (GPa) = 50.52131 54.46430 52.49280
# Shear Modulus (GPa) = 27.99343 28.76886 28.38114
#
# Velocity S-wave (km/s) = 3.64857 3.69876 3.67375
# Velocity P-wave (km/s) = 6.46331 6.64388 6.55422
#
# Compressibility (1/GPa) = 0.01979363
#
# Stress axis : x y z
#
# Youngs Moduli (GPa) = 74.68092 74.68092 57.78040
#
# Poissons Ratio (x) = 0.42102 0.18806
# Poissons Ratio (y) = 0.42102 0.18806
# Poissons Ratio (z) = 0.24306 0.24306
#
# Static dielectric constant tensor:
#      x y z
#    x 3.855890 0.000000 0.000000 
#    y 0.000000 3.855890 0.000000 
#    z 0.000000 0.000000 3.425360 
# 
# 
# High freq. dielectric constant tensor:
#      x y z
#    x 1.830470 0.000000 0.000000 
#    y 0.000000 1.830470 0.000000 
#    z 0.000000 0.000000 1.792930 
# 
# From -- ./inp_files/1694.got.cif
#   From: 2010.03.12/outbox.cif.g09.slc.cpg/sg104_cif.got.tgz:1694.got - 2010.04.14 01:44:05.
