data_PCOD8307662
_publ_section_title
;
Structure prediction by ZEFSAII (Michael W. Deem and Ramdas Pophale) SiO2 
 PCOD8307662
Probable space group: I 4 M M
;
_chemical_formula_sum "Si O2"
_cell_formula_units_Z 80
_cell_length_a 13.592211
_cell_length_b 13.592211
_cell_length_c 24.965800
_cell_angle_alpha 90.000000
_cell_angle_beta 90.000000
_cell_angle_gamma 90.000000
_cell_volume 4612.386608
_symmetry_space_group_name_H-M "I 4 M M"
_symmetry_group_IT_number 107
_symmetry_cell_setting 'tetragonal'
loop_
_space_group_symop_operation_xyz
x,y,z
-y,x,z
-x,-y,z
y,-x,z
-x,y,z
x,-y,z
-y,-x,z
y,x,z
1/2+x,1/2+y,1/2+z
1/2-y,1/2+x,1/2+z
1/2-x,1/2-y,1/2+z
1/2+y,1/2-x,1/2+z
1/2-x,1/2+y,1/2+z
1/2+x,1/2-y,1/2+z
1/2-y,1/2-x,1/2+z
1/2+y,1/2+x,1/2+z
loop_
_atom_site_type_symbol
_atom_site_label
_atom_site_fract_x
_atom_site_fract_y
_atom_site_fract_z
Si Si1 0.272638 0.886309 0.966980
Si Si2 0.111490 0.729281 0.844653
Si Si3 0.776349 0.614938 0.055160
Si Si4 0.227364 0.613691 0.643341
Si Si5 0.611490 0.229281 0.765668
O O1 0.169854 0.830147 0.978140
O O2 0.306236 0.873059 0.905596
O O3 0.255957 0.000000 0.981988
O O4 0.358731 0.840236 0.002845
O O5 0.174536 0.825465 0.831136
O O6 0.140881 0.640883 0.805160
O O7 0.000000 0.759529 0.833802
O O8 0.751941 0.500000 0.055162
O O9 0.673354 0.673354 0.055159
O O10 0.840233 0.641273 0.107476
O O11 0.244042 0.500000 0.628332
O O12 0.330152 0.669849 0.632181
O O13 0.193767 0.626941 0.704725
O O14 0.500000 0.259528 0.776519
O O15 0.674536 0.325464 0.779186
#
# Coordination Sequence:
#
# PCOD8307662 Si02
#       5
#    16  16  16  16  16
#     4   9  18  32  50  73  99 126 156 191 234 283
#     4   9  18  32  49  70  97 127 159 196 236 279
#     4  10  21  36  52  70  94 124 159 198 236 276
#     4   9  18  32  50  73  99 126 156 191 234 283
#     4   9  18  32  49  70  97 127 159 196 236 279
#
# _framework density 17.3446
#
# number of rings (size 3 to 8) (size 9 to 14) (size 15 to 20)
#    0.000    2.800    0.000    0.600    0.000    4.600 
#    0.000    8.000    0.000    3.600    0.000   11.200 
#    0.000    0.000    0.000    0.000    0.000    0.000 
#
# Total GULP energy -496029.634529 kJ/mol
# GULP energy per Si atom -12400.740863 kJ/mol
# Density = 1.730512 g / cm^3
# Si number density = 17.344600 Si / 1000 Ang^3
#
#
#
# Elastic Constant Matrix: (Units=GPa)
#
#
# Indices 1 2 3 4 5 6 
#
# 1 120.5935 48.9967 58.0984 0.0000 0.0000 0.0001
# 2 48.9967 120.5935 58.0984 0.0000 0.0000 -0.0001
# 3 58.0984 58.0984 95.7089 0.0000 0.0000 0.0000
# 4 0.0000 0.0000 0.0000 26.2736 0.0000 0.0000
# 5 0.0000 0.0000 0.0000 0.0000 26.2736 0.0000
# 6 0.0001 -0.0001 0.0000 0.0000 0.0000 12.4883
#
#
#
# Elastic Compliance Matrix: (Units=1/GPa)
#
#
# Indices 1 2 3 4 5 6 
#
# 1 0.012031 -0.001936 -0.006128 0.000000 0.000000 0.000000
# 2 -0.001936 0.012031 -0.006128 0.000000 0.000000 0.000000
# 3 -0.006128 -0.006128 0.017888 0.000000 0.000000 0.000000
# 4 0.000000 0.000000 0.000000 0.038061 0.000000 0.000000
# 5 0.000000 0.000000 0.000000 0.000000 0.038061 0.000000
# 6 0.000000 0.000000 0.000000 0.000000 0.000000 0.080075
#
#
# Mechanical properties :
#
#
# Convention : Reuss Voigt Hill
#
# Bulk Modulus (GPa) = 73.71216 74.14255 73.92736
# Shear Modulus (GPa) = 21.63990 24.45394 23.04692
#
# Velocity S-wave (km/s) = 3.53603 3.75892 3.64918
# Velocity P-wave (km/s) = 7.69820 7.85359 7.77628
#
# Compressibility (1/GPa) = 0.01356628
#
# Stress axis : x y z
#
# Youngs Moduli (GPa) = 83.11686 83.11686 55.90204
#
# Poissons Ratio (x) = 0.16090 0.34258
# Poissons Ratio (y) = 0.16090 0.34258
# Poissons Ratio (z) = 0.50936 0.50936
#
# Static dielectric constant tensor:
#      x y z
#    x 3.125990 0.000000 0.000000 
#    y 0.000000 3.125990 0.000000 
#    z 0.000000 0.000000 3.467990 
# 
# 
# High freq. dielectric constant tensor:
#      x y z
#    x 1.660430 0.000000 0.000000 
#    y 0.000000 1.660430 0.000000 
#    z 0.000000 0.000000 1.683830 
# 
# From -- ./inp_files/4605.got.cif
#   From: 2010.03.12/outbox.cif.g09.slc.cpg/sg107_3_cif.got.tgz:4605.got - 2010.04.14 01:49:11.
